#------------------------------------------------------------------------------
#$Date: 2015-09-06 01:32:58 +0300 (Sun, 06 Sep 2015) $
#$Revision: 154625 $
#$URL: svn://www.crystallography.net/cod/cif/4/12/41/4124178.cif $
#------------------------------------------------------------------------------
#
# This file is available in the Crystallography Open Database (COD),
# http://www.crystallography.net/
#
# All data on this site have been placed in the public domain by the
# contributors.
#
data_4124178
loop_
_publ_author_name
'Marshall, Ross J.'
'Griffin, Sarah L.'
'Wilson, Claire'
'Forgan, Ross S.'
_publ_section_title
;
 Single-Crystal to Single-Crystal Mechanical Contraction of Metal-Organic
 Frameworks through Stereoselective Postsynthetic Bromination.
;
_journal_issue                   30
_journal_name_full               'Journal of the American Chemical Society'
_journal_page_first              9527
_journal_page_last               9530
_journal_paper_doi               10.1021/jacs.5b05434
_journal_volume                  137
_journal_year                    2015
_chemical_formula_moiety         'Hf6 O4(OH)4 (C16H8O4Br2)6'
_chemical_formula_sum            'C96 H52 Br12 Hf6 O32'
_chemical_formula_weight         3747.23
_space_group_crystal_system      cubic
_space_group_IT_number           225
_space_group_name_Hall           '-F 4 2 3'
_space_group_name_H-M_alt        'F m -3 m'
_symmetry_space_group_name_Hall  '-F 4 2 3'
_symmetry_space_group_name_H-M   'F m -3 m'
_atom_sites_solution_hydrogens   geom
_atom_sites_solution_primary     isomor
_atom_sites_solution_secondary   difmap
_audit_creation_date             2015-04-29
_audit_creation_method
;
Olex2 1.2
(compiled 2015.01.26 svn.r3150 for OlexSys, GUI svn.r4998)
;
_cell_angle_alpha                90
_cell_angle_beta                 90
_cell_angle_gamma                90
_cell_formula_units_Z            4
_cell_length_a                   29.825(2)
_cell_length_b                   29.825(2)
_cell_length_c                   29.825(2)
_cell_measurement_reflns_used    20247
_cell_measurement_temperature    100
_cell_measurement_theta_max      27.5
_cell_measurement_theta_min      2.4
_cell_volume                     26530(3)
_computing_cell_refinement
;
CrystalClear-SM Expert 3.1 b27 (Rigaku, 20112)
;
_computing_data_collection
;
CrystalClear-SM Expert 3.1 b27 (Rigaku, 20112)
;
_computing_data_reduction
;
CrystalClear-SM Expert 3.1 b27 (Rigaku, 20112)
;
_computing_molecular_graphics    'Olex2 (Dolomanov et al., 2009)'
_computing_publication_material  'Olex2 (Dolomanov et al., 2009)'
_computing_structure_refinement  'ShelXL (Sheldrick, 2008)'
_diffrn_ambient_temperature      100
_diffrn_detector                 CCD
_diffrn_detector_area_resol_mean 28.5714
_diffrn_detector_type            'Rigaku HG Saturn724+ (2x2 bin mode)'
_diffrn_measured_fraction_theta_full 0.991
_diffrn_measured_fraction_theta_max 0.992
_diffrn_measurement_details
;
scan:
    Number of images: 124
               Slice: -51.0000 - 73.0000
         Image width: 1.0000
            Exp time: 30.0000
       Rotation axis: Omega
               Omega: 0.0000
               Kappa: 40.0000
                 Phi: -17.0000
                 XTD: 44.9898
              2theta: -17.2371
scan:
    Number of images: 19
               Slice: -52.0000 - -33.0000
         Image width: 1.0000
            Exp time: 30.0000
       Rotation axis: Omega
               Omega: 0.0000
               Kappa: 56.0000
                 Phi: -17.0000
                 XTD: 44.9898
              2theta: -17.2371
;
_diffrn_measurement_device       'four-circle \k diffractometer'
_diffrn_measurement_device_type  'Rigaku AFC12 (Right)'
_diffrn_measurement_method       'profile data from \w-scans'
_diffrn_measurement_specimen_support MiTeGen
_diffrn_orient_matrix_type       d*Trek
_diffrn_orient_matrix_UB_11      -0.014905
_diffrn_orient_matrix_UB_12      0.029691
_diffrn_orient_matrix_UB_13      0.004531
_diffrn_orient_matrix_UB_21      -0.029970
_diffrn_orient_matrix_UB_22      -0.015033
_diffrn_orient_matrix_UB_23      -0.000082
_diffrn_orient_matrix_UB_31      0.001959
_diffrn_orient_matrix_UB_32      -0.004086
_diffrn_orient_matrix_UB_33      0.033222
_diffrn_radiation_collimation    'Confocal mirrors, VHF Varimax '
_diffrn_radiation_monochromator  Mirrors
_diffrn_radiation_type           MoK\a
_diffrn_radiation_wavelength     0.71075
_diffrn_reflns_av_R_equivalents  0.0451
_diffrn_reflns_av_unetI/netI     0.0155
_diffrn_reflns_laue_measured_fraction_full 0.991
_diffrn_reflns_laue_measured_fraction_max 0.992
_diffrn_reflns_limit_h_max       30
_diffrn_reflns_limit_h_min       -36
_diffrn_reflns_limit_k_max       38
_diffrn_reflns_limit_k_min       -24
_diffrn_reflns_limit_l_max       38
_diffrn_reflns_limit_l_min       -15
_diffrn_reflns_number            22405
_diffrn_reflns_point_group_measured_fraction_full 0.991
_diffrn_reflns_point_group_measured_fraction_max 0.992
_diffrn_reflns_theta_full        25.242
_diffrn_reflns_theta_max         27.473
_diffrn_reflns_theta_min         2.366
_diffrn_source                   'Rotating Anode'
_diffrn_source_current           55.0
_diffrn_source_power             2.475
_diffrn_source_voltage           45.0
_exptl_absorpt_coefficient_mu    4.176
_exptl_absorpt_correction_T_max  1.000
_exptl_absorpt_correction_T_min  0.649
_exptl_absorpt_correction_type   multi-scan
_exptl_absorpt_process_details
;
CrystalClear-SM Expert 3.1 b27 (Rigaku, 20112)
;
_exptl_crystal_colour            Colorless
_exptl_crystal_density_diffrn    0.938
_exptl_crystal_description       Block
_exptl_crystal_F_000             6944
_exptl_crystal_size_max          0.039
_exptl_crystal_size_mid          0.038
_exptl_crystal_size_min          0.038
_refine_diff_density_max         0.461
_refine_diff_density_min         -1.022
_refine_diff_density_rms         0.097
_refine_ls_extinction_method     none
_refine_ls_goodness_of_fit_ref   1.056
_refine_ls_hydrogen_treatment    constr
_refine_ls_matrix_type           full
_refine_ls_number_parameters     36
_refine_ls_number_reflns         1562
_refine_ls_number_restraints     8
_refine_ls_restrained_S_all      1.064
_refine_ls_R_factor_all          0.0441
_refine_ls_R_factor_gt           0.0370
_refine_ls_shift/su_max          0.001
_refine_ls_shift/su_mean         0.000
_refine_ls_structure_factor_coef Fsqd
_refine_ls_weighting_details
'w=1/[\s^2^(Fo^2^)+(0.0582P)^2^+240.0159P] where P=(Fo^2^+2Fc^2^)/3'
_refine_ls_weighting_scheme      calc
_refine_ls_wR_factor_gt          0.1020
_refine_ls_wR_factor_ref         0.1087
_reflns_Friedel_coverage         0.000
_reflns_number_gt                1367
_reflns_number_total             1562
_reflns_threshold_expression     'I > 2\s(I)'
_cod_data_source_file            ja5b05434_si_002.cif
_cod_data_source_block           2Br2
_cod_depositor_comments
;
The following automatic conversions were performed:

'_exptl_absorpt_correction_type' value 'Multi-scan' changed to
'multi-scan' according to
/usr/data/users/saulius/crontab/automatic-downloads/rss-feeds/ACS/lib/dictionaries/cif_core.dic
dictionary named 'cif_core.dic' version 2.4.2 from 2011-04-26.

Automatic conversion script
Id: cif_fix_values 3271 2015-04-21 07:52:19Z andrius 

 Adding full bibliography for 4124172--4124178.cif.
;
_cod_original_cell_volume        26530(5)
_cod_database_code               4124178
_shelx_space_group_comment
;
The symmetry employed for this shelxl refinement is uniquely defined
by the following loop, which should always be used as a source of
symmetry information in preference to the above space-group names.
They are only intended as comments.
;
_platon_squeeze_void_probe_radius 1.20
_olex2_refinement_description
;
1. Fixed Uiso
 At 1.2 times of:
  All C(H) groups
2. Restrained distances
 C3A-C2 = C4A-C3A = C5-C4A
 1.39 with sigma of 0.01
 C6-C5
 1.48 with sigma of 0.02
 C6-C6_$1
 1.32 with sigma of 0.02
 Br1-C6
 1.88 with sigma of 0.02
 C2-C4A \\sim C3A-C5
 with sigma of 0.02
3. Restrained planarity
 C2, C3A, C4A, C5
 with sigma of 0.1
4. Others
 Fixed Sof: Br1(0.25) C4A(0.5) H4A(0.5) C3A(0.5) H3A(0.5) C6(0.25)
5.a Aromatic/amide H refined with riding coordinates:
 C4A(H4A), C3A(H3A)
;
_shelx_res_file
;
    2015ncs0106_zrstart_sq_test.res created by SHELXL-2014/7

TITL 2015ncs0106_xp in Fm-3m #225
REM reset to Fm-3m #225
rem DFIX 1.316 C6 C6_$1
CELL 0.71075 29.825 29.825 29.825 90 90 90
ZERR 4 0.002 0.002 0.002 0 0 0
LATT 4
SYMM -Y,+X,+Z
SYMM -X,-Y,+Z
SYMM +Y,-X,+Z
SYMM +X,-Z,+Y
SYMM +X,-Y,-Z
SYMM +X,+Z,-Y
SYMM +Z,+Y,-X
SYMM -X,+Y,-Z
SYMM -Z,+Y,+X
SYMM +Z,+X,+Y
SYMM +Y,+Z,+X
SYMM -Y,-Z,+X
SYMM +Z,-X,-Y
SYMM -Y,+Z,-X
SYMM -Z,-X,+Y
SYMM -Z,+X,-Y
SYMM +Y,-Z,-X
SYMM +Y,+X,-Z
SYMM -Y,-X,-Z
SYMM -X,+Z,+Y
SYMM -X,-Z,-Y
SYMM +Z,-Y,+X
SYMM -Z,-Y,-X
SFAC C H Br Hf O
UNIT 384 208 48 24 128
EQIV $1 1.5-X,0.5-Y,1-Z
DFIX 1.39 0.01 C3A C2 C4A C3A C5 C4A
DFIX 1.48 C6 C5
DFIX 1.32 C6 C6_$1
DFIX 1.88 Br1 C6
SADI C2 C4A C3A C5
FLAT C2 C3A C4A C5

L.S. 5 0 13
PLAN  20
ABIN
fmap 2 53
acta
OMIT 0 4 4
OMIT 0 2 4
OMIT 5 5 5
OMIT 4 10 10
REM <olex2.extras>
REM <HklSrc "%.\\2015ncs0106_Zrstart_sq_test.hkl">
REM </olex2.extras>

WGHT    0.058200  240.015900
FVAR       0.13264
HF1   4    0.500000    0.082280    0.500000    10.12500    0.04256    0.01899 =
         0.04256    0.00000    0.00000    0.00000
O1    5    0.563801    0.119013    0.500000    10.50000    0.07959    0.05826 =
         0.10008    0.00000    0.00000   -0.03771
O2    5    0.540168    0.040168    0.540168    10.16667    0.07385    0.07385 =
         0.07385    0.03661    0.03661    0.03661
C1    1    0.604228    0.104228    0.500000    10.25000    0.08015
C2    1    0.640645    0.140645    0.500000    10.25000    0.11646
C5    1    0.703886    0.203886    0.500000    10.25000    0.21211
BR1   3    0.765506    0.234494    0.425928    10.25000    0.40843    0.40843 =
         0.27339   -0.07807    0.07807   -0.25202
PART -1
C4A   1    0.660991    0.217377    0.485924    10.50000    0.15126
AFIX  43
H4A   2    0.655113    0.246563    0.476654    10.50000   -1.20000
AFIX   0
C3A   1    0.627229    0.184006    0.486658    10.50000    0.11854
AFIX  43
H3A   2    0.597738    0.190340    0.478755    10.50000   -1.20000
AFIX   0
PART 0
C6    1    0.739052    0.239052    0.484110    10.25000    0.27241
HKLF 4

REM  2015ncs0106_xp in Fm-3m #225
REM R1 =  0.0370 for    1367 Fo > 4sig(Fo)  and  0.0441 for all    1562 data
REM     36 parameters refined using      8 restraints

END

WGHT      0.0578    243.0178

REM Highest difference peak  0.461,  deepest hole -1.022,  1-sigma level  0.097
Q1    1   0.5993  0.2002  0.5000  10.50000  0.05    0.46
Q2    1   0.7623  0.2623  0.4403  10.50000  0.05    0.45
Q3    1   0.5177  0.0652  0.5177  10.50000  0.05    0.44
Q4    1   0.5456  0.0456  0.5605  10.50000  0.05    0.43
Q5    1   0.7599  0.2184  0.4401  11.00000  0.05    0.42
Q6    1   0.5000  0.0631  0.5233  10.50000  0.05    0.42
Q7    1   0.5797  0.1248  0.5000  10.50000  0.05    0.40
Q8    1   0.6413  0.1413  0.5235  10.50000  0.05    0.39
Q9    1   0.5560  0.0560  0.5412  10.50000  0.05    0.39
Q10   1   0.6363  0.2433  0.5000  10.50000  0.05    0.38
Q11   1   0.6101  0.1973  0.5000  10.50000  0.05    0.36
Q12   1   0.7006  0.2006  0.5338  10.50000  0.05    0.36
Q13   1   0.6389  0.1787  0.5000  10.50000  0.05    0.35
Q14   1   0.6555  0.2629  0.5000  10.50000  0.05    0.30
Q15   1   0.7603  0.2397  0.3790  10.50000  0.05    0.30
Q16   1   0.7216  0.2626  0.5000  10.50000  0.05    0.30
Q17   1   0.5000  0.0389  0.5000  10.12500  0.05    0.30
Q18   1   0.5750  0.1586  0.5000  10.50000  0.05    0.29
Q19   1   0.5000  0.1001  0.5242  10.50000  0.05    0.27
Q20   1   0.5474  0.1383  0.5000  10.50000  0.05    0.27
;
_shelx_res_checksum              62891
_shelx_hkl_file
;
   2   2   2 58274.1 941.060   1
  -3   3  -1 4361.43 132.050   1
   3  -3   1 4658.55 126.640   1
  -3   3   1 4134.66 104.510   1
   3  -3  -1 4648.19 116.850   1
  -3   1   3 4667.96 105.050   1
   1  -3  -3 4657.59 130.800   1
   3   3   1 4669.36 116.760   1
   3  -1  -3 4599.69 103.660   1
   1   3   3 4584.66 106.250   1
  -1  -3  -3 4354.24 108.310   1
  -3  -3  -1 4426.81 119.140   1
  -3  -1   3 4544.52 107.940   1
   3   1  -3 4523.65 110.760   1
  -3   3  -1 4905.56 125.060   1
   3  -3   1 5039.60 131.520   1
  -2   0   4 1374.09 55.2900   1
   0  -2  -4 1293.04 54.4700   1
   2   0  -4 1385.32 49.6900   1
   0  -4   2 1466.60 75.3100   1
  -4   2   0 1449.27 59.8400   1
   0   4  -2 1033.70 83.5200   1
   0  -4   2 1187.06 86.1600   1
  -4   2   0 1163.73 61.8200   1
   4  -2   0 1092.49 55.6900   1
   2  -4   0 1193.54 55.5100   1
   2   4   0 1156.61 60.6100   1
   0   4   2 1245.75 48.7600   1
  -4   0   2 1287.99 51.3300   1
   0  -4  -2 1347.36 56.1600   1
   4   0  -2 1322.59 55.0000   1
   0   2   4 1358.30 49.8700   1
   4   2  -2 112.860 30.8200   1
  -2  -2  -4 84.8000 28.5100   1
  -2   4  -2 109.090 38.5500   1
   2  -4   2 79.5100 34.5000   1
  -2  -4   2 78.9700 26.4200   1
  -4   2  -2 308.660 61.9500   1
  -2  -4   2 260.910 53.8100   1
  -2   4  -2 245.490 70.4200   1
   2  -4   2 297.760 51.9000   1
  -2   4   2 220.540 33.2400   1
  -4   2   2 220.360 31.7100   1
   4  -2  -2 170.720 33.4400   1
   2  -4  -2 203.810 34.2200   1
  -2  -4  -2 159.290 27.3600   1
  -2   2   4 137.330 29.2200   1
   2  -2  -4 137.090 27.7100   1
   2   2   4 104.380 26.0900   1
   3  -3   3 3012.63 126.340   1
  -3   3   3 2940.36 77.9100   1
   3  -3  -3 3217.44 90.3400   1
   3   3   3 3078.27 80.9000   1
  -3  -3  -3 3092.77 79.3800   1
  -1   5  -1 2439.28 83.3000   1
   1  -1  -5 2661.65 88.3600   1
   1   1   5 2584.69 75.0300   1
   5  -1   1 2627.90 88.1400   1
  -1   5  -1 2856.51 84.0700   1
   1   5  -1 2781.92 86.3200   1
   5   1   1 2620.09 154.910   1
  -5   1  -1 2530.82 104.700   1
   1   5  -1 2375.64 89.2100   1
   5  -1   1 2594.23 109.550   1
  -1   1   5 2568.19 79.1600   1
   1  -5   1 2548.39 93.2400   1
  -1  -5   1 2408.80 97.2000   1
  -5   1   1 2515.00 85.5500   1
  -5  -1   1 2435.67 92.9500   1
  -1   5   1 2465.01 75.2200   1
   1   5   1 2494.30 72.8100   1
   1  -5  -1 2586.46 85.0100   1
   5  -1  -1 2467.69 73.3500   1
  -1  -5  -1 2677.45 86.8500   1
  -4   4   0 4651.09 118.880   1
   4  -4   0 4915.67 124.800   1
  -4  -4   0 4655.06 118.580   1
   0   4   4 4493.24 100.180   1
  -4   0   4 4231.95 97.3800   1
   0  -4  -4 4401.33 114.940   1
   4   0  -4 4297.84 105.320   1
  -1  -5   3 437.200 41.1800   1
  -5   3  -1 535.850 45.2100   1
  -3   5  -1 519.690 47.6900   1
   5  -3   1 510.300 43.7400   1
   3   5  -1 488.100 40.5300   1
  -1   5  -3 550.620 75.5300   1
  -1  -5   3 574.840 67.4000   1
   1  -5   3 571.340 69.1600   1
   3   5  -1 518.420 54.1100   1
  -5   3  -1 528.750 56.4500   1
  -3   5  -1 556.550 53.7700   1
   5  -3   1 560.160 47.4400   1
   3  -5   1 499.280 46.1300   1
  -3  -5   1 525.820 41.1600   1
  -3   5   1 492.250 42.1600   1
  -5   3   1 555.730 42.2800   1
   5  -3  -1 539.550 39.7100   1
   3  -5  -1 511.120 39.8600   1
   3   5   1 541.850 38.2200   1
  -1   5   3 489.020 39.0900   1
  -5   1   3 506.200 39.9300   1
  -3  -5  -1 472.540 35.1300   1
   1  -5  -3 490.540 38.4400   1
   1   5   3 503.380 36.8700   1
   5  -1  -3 477.690 35.0200   1
  -5  -1   3 505.890 36.4100   1
  -1  -5  -3 467.780 35.8200   1
  -1   3   5 468.280 38.2800   1
  -3   1   5 507.290 37.5700   1
   5   1  -3 484.490 32.1800   1
   1  -3  -5 540.220 38.0300   1
   1   3   5 493.790 41.6700   1
   3  -1  -5 501.150 36.3900   1
  -1  -3  -5 447.490 35.0600   1
  -3  -1   5 472.890 34.3900   1
   5   3   1 465.260 34.8400   1
   3   1  -5 452.600 33.5700   1
   1  -5   3 490.040 44.4300   1
  -6   0   0 1681.08 82.4600   1
   0  -6   0 1866.95 71.3600   1
   6   0   0 1872.25 69.0600   1
   0   6   0 1778.26 64.0400   1
   6  -2   0 2945.27 103.230   1
   0   6  -2 3004.79 109.290   1
   0  -6   2 2789.77 107.820   1
  -6   2   0 2888.20 105.510   1
  -2   6   0 2734.44 81.7500   1
   6   0   2 2937.52 124.690   1
   2   6   0 2872.71 82.7700   1
   2  -6   0 2808.97 93.8200   1
  -2  -6   0 2879.77 88.2000   1
  -6   0   2 2913.59 82.3200   1
   0   6   2 2861.50 78.6500   1
   0  -6  -2 2806.91 89.0600   1
   6   0  -2 2799.81 77.4500   1
   0  -2  -6 2611.98 83.4400   1
   2   0  -6 2604.47 76.7100   1
   0   6  -2 2567.87 80.4400   1
  -6   2   0 2541.27 82.6200   1
   0  -6   2 2551.76 87.9000   1
  -2   0   6 2455.14 68.7800   1
  -3   3   5 2632.35 76.5600   1
   5  -3   3 2450.46 107.990   1
   3  -5   3 2288.53 108.140   1
  -3   5   3 2415.78 76.7700   1
  -5   3   3 2460.69 71.3800   1
   3  -5  -3 2533.51 88.8600   1
   5  -3  -3 2556.52 74.0400   1
   3   5   3 2583.90 72.3900   1
   3  -3  -5 2592.61 73.0600   1
  -3  -5  -3 2758.37 85.7900   1
   3   3   5 2650.26 70.1400   1
   5   3   3 2660.87 74.4500   1
  -5  -3   3 2628.53 99.1800   1
  -3  -5   3 2780.02 93.6600   1
   3  -5   3 2682.13 92.0200   1
  -3  -3  -5 2759.00 80.3600   1
  -5   3  -3 2369.57 109.970   1
  -4   4   4 6548.21 139.410   1
   4  -4  -4 6760.18 134.900   1
   4   4   4 6682.86 129.790   1
  -4  -4  -4 6700.89 137.140   1
   4  -4   4 6579.62 192.950   1
  -1  -7   1 9347.10 192.570   1
  -7   1   1 9020.29 184.310   1
   1  -7   1 9091.54 188.890   1
   5   5  -1 3444.63 96.9700   1
   7  -1   1 9394.03 200.750   1
   7   1   1 9007.87 216.060   1
   1   7  -1 8971.15 181.570   1
  -1   7  -1 9142.29 186.330   1
  -7   1  -1 8760.45 210.310   1
   7  -1   1 10008.9 203.060   1
   1  -1  -7 10053.9 180.140   1
   1   1   7 9581.75 179.670   1
  -1   1   7 9322.17 177.140   1
  -1  -7  -1 9811.27 194.860   1
  -7  -1   1 9155.88 188.950   1
  -5   5  -1 2731.63 88.4500   1
   5  -5   1 2785.75 88.6000   1
  -5  -5   1 2937.54 100.200   1
   5  -5  -1 2962.02 89.5000   1
   5   5   1 2901.50 87.0200   1
  -1   5   5 3003.72 79.6200   1
   1   7   1 8986.61 170.750   1
  -5   1   5 2937.71 83.2000   1
   1   5   5 3106.99 76.0900   1
   1  -5  -5 3139.48 93.8900   1
   5  -1  -5 3150.17 88.6300   1
  -5  -1   5 3198.93 81.7000   1
  -1  -5  -5 3178.65 90.7500   1
   5   1  -5 3227.10 86.0100   1
  -5   5  -1 3379.49 96.6700   1
   7   1  -1 10115.1 198.970   1
   1  -7  -1 9431.65 189.750   1
   7  -1  -1 9233.70 184.790   1
  -1   7   1 9525.57 175.690   1
   0  -6   4 17198.5 315.090   1
   4   0  -6 18137.3 302.490   1
  -6   4   0 17965.6 318.240   1
   0  -6   4 19348.8 391.320   1
  -6   4   0 18140.4 318.550   1
  -4   6   0 18238.8 321.590   1
   4   6   0 17572.8 297.800   1
   6  -4   0 18801.3 316.630   1
   4  -6   0 17850.9 304.900   1
  -4  -6   0 19071.0 317.310   1
   0   6   4 17666.1 278.640   1
  -6   0   4 18785.3 298.260   1
   0  -6  -4 18045.2 296.760   1
   6   0  -4 18029.4 298.240   1
   0   4   6 17990.3 282.940   1
  -4   0   6 17371.2 274.370   1
   0  -4  -6 17466.0 295.860   1
  -6   2   4 4407.61 100.720   1
   4   6   2 4225.96 95.6900   1
   2  -6  -4 4455.53 122.440   1
   2   6   4 4403.02 98.0500   1
   6  -2  -4 4341.56 110.720   1
  -2   4   6 4262.01 98.8500   1
  -4   2   6 4306.85 95.8300   1
  -4  -6  -2 4541.90 106.200   1
  -2  -6  -4 4509.87 109.970   1
  -6  -2   4 4445.88 100.970   1
   2  -4  -6 4399.69 120.260   1
   4  -2  -6 4863.57 119.060   1
   2   4   6 4484.22 101.520   1
  -6  -4   2 4392.62 108.610   1
   6   2  -4 4778.04 107.410   1
   6   4   2 4555.78 120.090   1
  -2  -4  -6 4571.36 102.720   1
  -4  -2   6 4425.55 98.2700   1
   2  -6   4 4800.87 137.510   1
  -4   6  -2 4782.61 123.120   1
   6  -4   2 4823.92 133.230   1
  -2   6   4 4084.17 95.5700   1
   6  -2   4 3992.85 139.820   1
  -2  -6   4 4003.07 148.360   1
   2  -6   4 3995.90 154.260   1
  -4  -6   2 3960.24 134.320   1
   6  -4   2 4286.36 121.180   1
   4  -6   2 4078.11 127.800   1
  -6   4   2 3954.34 101.430   1
  -4   6   2 4210.62 111.960   1
   4  -6  -2 4252.19 113.470   1
   6  -4  -2 4367.74 112.470   1
   3  -5   5 15824.7 331.490   1
  -5   5  -3 15211.9 308.080   1
   5  -5   3 15656.2 302.610   1
  -5   5   3 15472.3 262.360   1
   5  -5  -3 16678.6 268.990   1
  -3   5   5 15572.8 265.060   1
  -5   3   5 15943.9 259.140   1
   3  -5  -5 15825.2 260.960   1
   5  -3  -5 16678.8 279.750   1
   5   5   3 16243.6 267.180   1
   3   5   5 16270.8 262.500   1
  -3  -5  -5 16068.3 265.670   1
  -5  -5  -3 15997.1 264.460   1
  -5  -3   5 15990.5 253.900   1
   5   3   5 15857.7 259.010   1
  -5  -5   3 16817.2 306.960   1
   5  -5   3 17305.3 306.030   1
  -1  -7  -3 2004.95 66.3800   1
  -1   7   3 1856.15 62.7800   1
   7  -1  -3 1946.33 63.7800   1
   1  -7  -3 1811.02 67.7900   1
  -7  -1   3 1930.39 62.1100   1
   7  -3   1 1968.66 76.3900   1
  -3  -7  -1 1911.07 65.7600   1
   1   7   3 1861.09 60.7000   1
   1   7  -3 1771.14 94.2100   1
   7  -1   3 1866.04 95.4200   1
  -1   7  -3 1788.07 96.9600   1
  -1  -7   3 1824.82 88.5700   1
   1  -7   3 1781.76 86.1900   1
  -7   3  -1 1831.94 80.0100   1
   3   7  -1 1700.24 76.2100   1
  -3   7  -1 1805.09 68.1100   1
   7  -3   1 1876.88 75.0700   1
   3  -7   1 1706.57 73.0600   1
  -7   3   1 1880.81 67.5400   1
  -3  -7   1 1916.59 72.2400   1
  -3   7   1 1783.11 63.8600   1
   3   7   1 1811.32 59.6700   1
   7  -3  -1 1866.56 73.5300   1
  -7   1   3 1975.45 65.3400   1
   3  -7  -1 1813.78 73.1600   1
   1   7  -3 1886.79 71.7600   1
  -3   7  -1 1851.71 71.0000   1
  -1  -7   3 1864.36 80.0800   1
   1  -7   3 1903.19 69.5700   1
  -7   3  -1 1902.72 71.4700   1
  -1   7  -3 1938.05 73.8900   1
   7   1  -3 1928.57 68.3200   1
  -1  -3  -7 1867.28 64.8000   1
  -3  -1   7 1879.52 59.0400   1
   3  -1  -7 1874.43 59.9200   1
   1  -3  -7 1870.75 71.6300   1
   1   3   7 1706.63 56.7500   1
  -3   1   7 1882.48 60.5300   1
  -1   3   7 1795.93 60.5300   1
  -8   0   0 48414.3 805.790   1
   0   0   8 42847.6 610.600   1
   0   8   0 45974.8 729.240   1
   8   0   0 44836.7 662.560   1
   0  -8   0 46346.8 750.740   1
  -3   7  -3 52.3700 32.1000   1
   3  -3  -7 16.1600 30.9400   1
  -3   3   7 45.9700 32.0600   1
   3  -7  -3 29.0600 30.3200   1
  -3   7   3 40.2100 34.1100   1
   7  -3   3 18.8800 51.6500   1
  -7   3   3 38.2900 33.7300   1
   8  -2   0 4693.29 113.140   1
   2   8   0 4576.10 109.400   1
  -2   8   0 4705.78 113.620   1
   0  -8   2 4846.05 123.010   1
  -8   2   0 4563.69 120.400   1
   6  -4   4 13754.7 306.000   1
   4  -6   4 12689.4 283.800   1
  -4   6   4 13197.4 232.460   1
  -6   4   4 12883.7 220.490   1
   6  -4  -4 13192.5 231.440   1
  -4   4   6 12869.0 213.430   1
   4   6   4 13608.9 228.770   1
   4  -4  -6 13380.6 231.270   1
  -4  -6  -4 13183.9 231.120   1
   4   4   6 13098.8 215.150   1
  -6  -4   4 13176.0 216.480   1
   6   4   4 12834.2 218.910   1
  -4  -4  -6 12902.7 223.920   1
  -4  -6   4 13634.2 269.730   1
   4  -6   4 13422.0 250.730   1
   8   0   2 4684.09 144.650   1
   0   8  -2 4680.94 128.650   1
  -8  -2   0 4658.27 150.020   1
  -4   6  -4 12834.8 285.760   1
   8   0  -2 4789.93 112.220   1
   0   8  -2 5158.04 120.810   1
  -8   2   0 5026.83 125.310   1
   0  -2  -8 4571.85 103.740   1
  -2   0   8 4744.20 108.490   1
   0  -8  -2 4889.75 125.210   1
  -2  -8   0 4653.79 127.540   1
   0   8   2 4829.86 106.420   1
  -8   0   2 4782.25 112.700   1
   2  -8   0 4680.13 120.560   1
   8   2   0 4633.82 118.940   1
   2  -8   2 406.700 47.5500   1
  -2   8  -2 465.620 47.3600   1
   2   8  -2 424.130 57.6700   1
  -8   2  -2 551.540 71.1000   1
   8   2   2 492.720 58.6100   1
  -6  -6   0 1391.95 63.9600   1
   0   6   6 1363.86 49.1900   1
  -6   0   6 1261.86 45.9700   1
   2   8   2 352.920 36.7800   1
  -8  -2   2 396.740 34.4800   1
   8  -2   2 187.700 37.5400   1
  -2   8   2 290.930 40.3900   1
  -8   2   2 412.610 39.3600   1
   8  -2   2 417.980 50.0900   1
   2   8  -2 164.950 40.3100   1
   8  -2  -2 298.720 33.6800   1
   2  -8  -2 309.580 30.3000   1
  -2  -8  -2 308.170 34.7800   1
   8   2  -2 251.940 29.3500   1
  -2   2   8 206.790 26.8300   1
   2  -2  -8 197.940 32.3200   1
   6   0  -6 1213.19 49.5500   1
   0  -6  -6 1382.29 58.9100   1
  -2  -8   2 401.310 42.0000   1
  -2   8  -2 150.480 44.7000   1
  -7   5   1 1701.72 60.3400   1
   5  -7   1 1521.43 68.4000   1
  -5   7   1 1620.17 64.6900   1
  -5  -7   1 1669.13 60.3900   1
   7  -5  -1 1703.56 67.9200   1
   5   7   1 1692.85 57.5200   1
  -1   7   5 1664.56 54.2800   1
  -7   1   5 1776.46 59.7400   1
   1   7   5 1786.63 60.4200   1
  -5  -7  -1 1853.28 71.7600   1
   1  -7  -5 1773.14 66.4200   1
   7   5   1 1827.23 65.8700   1
  -1   5   7 1820.39 61.1900   1
   7  -1  -5 1813.37 62.5600   1
  -1  -7  -5 1847.38 61.6700   1
   5  -5   5 10351.4 250.770   1
   1   5   7 1765.54 58.4500   1
   1  -5  -7 1757.82 64.8500   1
   7   1  -5 1787.09 62.5400   1
  -5  -1   7 1825.09 58.4200   1
  -1  -5  -7 1798.34 63.7200   1
   5  -1  -7 1774.67 64.7500   1
   5   1  -7 1784.34 59.4500   1
   1  -7   5 1920.89 72.1400   1
  -7   5  -1 1923.60 66.4200   1
  -5   7  -1 1913.27 73.6900   1
   7   5  -1 2018.06 83.5100   1
  -5   5   5 10015.7 182.770   1
   5  -5  -5 10690.5 200.980   1
   5   5   5 10714.6 183.830   1
  -5  -5  -5 11050.1 198.880   1
  -1  -7   5 1670.65 95.8000   1
   1  -7   5 1703.35 86.7600   1
  -5   1   7 1806.41 60.5100   1
   5   7  -1 1658.87 81.4300   1
  -7   5  -1 1690.79 69.1600   1
  -5   7  -1 1594.71 78.4300   1
   7  -5   1 1657.80 66.2800   1
  -7  -1   5 1781.12 59.7800   1
   6  -6   2 22028.1 382.260   1
  -2   6   6 21956.8 337.930   1
   6   6   2 21582.8 338.590   1
  -6   2   6 21253.0 325.000   1
   2  -6  -6 21970.0 345.400   1
   2   6   6 20976.6 320.560   1
  -6   6  -2 21748.8 362.040   1
   6   2  -6 20828.0 337.380   1
   6  -6  -2 22121.3 362.650   1
   6  -6   2 21921.0 378.810   1
  -6   6  -2 21900.1 382.880   1
   6  -2  -6 21979.5 351.660   1
  -6  -2   6 22026.1 337.720   1
  -2  -6  -6 21742.6 344.120   1
  -6  -6  -2 21623.6 341.790   1
  -6   6   2 21298.9 338.290   1
   0  -8   4 994.440 58.8900   1
   0   8  -4 1118.75 89.7400   1
   0  -8   4 1035.06 70.4800   1
  -8   4   0 1062.34 59.8000   1
   4   8   0 1058.59 50.5100   1
  -4   8   0 1023.19 58.1700   1
   8  -4   0 1036.60 51.9200   1
   4  -8   0 963.580 52.8800   1
  -4  -8   0 1018.49 45.7700   1
   0   8   4 981.210 47.4600   1
  -8   0   4 1058.02 46.3700   1
   0  -8  -4 1027.98 50.8900   1
   8   0  -4 1034.64 47.7800   1
   0   4   8 1017.17 48.4000   1
  -4   0   8 1025.46 47.5500   1
   0  -4  -8 1005.69 42.4400   1
   4   0  -8 934.190 41.2500   1
  -8   4   0 1041.63 55.0300   1
  -7  -3   5 10672.9 200.110   1
  -7  -5   3 10761.3 217.160   1
   7   5   3 10302.9 182.920   1
  -5  -7   3 10888.0 223.080   1
  -5  -7  -3 10333.5 194.370   1
  -3  -7  -5 10302.6 190.780   1
   7  -3  -5 10380.4 198.420   1
   5  -7   3 11014.2 208.260   1
  -7  -5   3 10880.0 220.960   1
   3   7   5 10552.6 185.980   1
   7  -5   3 10887.3 233.390   1
  -5   7  -3 10746.8 209.170   1
   7   3  -5 10243.8 190.670   1
   3  -7  -5 10182.0 199.140   1
   5   7   3 10151.0 181.620   1
  -3   7   5 10235.5 179.650   1
  -7   3   5 10300.6 184.410   1
   5  -7  -3 10312.8 193.860   1
   9   1   1 19552.6 328.980   1
  -9   1   1 19860.4 355.650   1
   3  -7   5 10943.7 237.410   1
  -1  -9   1 18665.9 311.400   1
  -1  -9  -1 18757.1 312.990   1
   9   1  -1 18644.6 326.840   1
   1  -9  -1 18938.0 333.470   1
   7  -3   5 9931.15 233.000   1
   1   9   1 18902.9 301.540   1
  -9  -1   1 18729.2 352.990   1
  -1   9   1 17539.9 290.410   1
   1  -9   1 18152.6 318.580   1
   9  -1   1 17722.8 315.250   1
  -9   1   1 18409.2 305.380   1
   9   1   1 18883.0 328.390   1
   1   9  -1 18435.2 320.350   1
  -9   1  -1 18322.7 347.560   1
  -9  -1  -1 18130.7 373.790   1
   7  -5  -3 9859.92 199.010   1
  -7   5   3 10008.2 184.690   1
   5  -7   3 10063.9 220.550   1
   7  -5   3 9625.04 220.470   1
  -5  -7   3 10391.3 242.080   1
  -5   7  -3 9662.97 236.630   1
   3  -7   5 9778.14 250.020   1
  -7   5  -3 9865.62 228.760   1
   9  -1  -1 18186.8 311.340   1
   3   5   7 10140.5 176.720   1
   5  -3  -7 10456.7 188.200   1
  -5  -3   7 10295.7 178.390   1
  -3   5   7 9742.77 174.260   1
  -5   3   7 9970.49 182.560   1
   1   1   9 18953.1 291.360   1
  -1  -1   9 19003.2 296.890   1
  -3  -5  -7 10374.6 197.800   1
   5   3   7 10290.6 177.130   1
  -1   1   9 18762.9 289.430   1
   2  -8  -4 436.430 32.4300   1
   2  -8   4 269.620 43.9200   1
   8  -2  -4 402.440 37.1300   1
  -8  -2   4 462.350 37.1100   1
  -4  -8  -2 379.310 33.0500   1
  -2  -8  -4 390.090 36.0800   1
  -2   4   8 379.990 38.5200   1
   8   2  -4 329.620 31.9300   1
   2  -4  -8 318.310 36.4600   1
   2   4   8 310.150 34.3300   1
   4  -2  -8 359.150 36.3400   1
  -4  -2   8 310.090 34.2600   1
  -2  -4  -8 311.140 33.8900   1
   4   2   8 273.140 34.8900   1
  -4   8  -2 284.040 48.3600   1
   4   8  -2 261.010 39.3500   1
  -2   8   4 386.240 31.6600   1
  -2   8  -4 515.840 78.8400   1
   8  -2   4 593.080 72.6300   1
   4   8  -2 531.760 60.0000   1
  -2  -8   4 542.200 58.9400   1
  -8   4  -2 557.620 52.4900   1
  -4   8  -2 617.240 63.7300   1
   2  -8   4 535.870 49.3600   1
   8  -4   2 266.240 40.8700   1
   2   8   4 424.950 35.9300   1
  -4   2   8 306.930 28.9400   1
   8  -4   2 525.020 49.3100   1
   4  -8   2 522.220 49.4100   1
  -4  -8   2 507.380 38.7100   1
  -8   4   2 478.210 42.6300   1
  -4   8   2 481.510 35.8600   1
  -8  -4   2 501.520 37.0400   1
   4   8   2 473.670 39.7500   1
   4  -8  -2 453.520 41.2900   1
   8  -4  -2 441.470 39.6200   1
  -8   2   4 460.990 38.4700   1
  -6   6   4 10084.9 192.970   1
   6   4   6 11259.1 192.200   1
  -4   6   6 9874.25 186.700   1
  -6   4   6 10313.1 187.040   1
   6  -6  -4 10372.8 204.120   1
  -6  -6  -4 11211.4 197.050   1
   6  -4  -6 10480.5 193.480   1
   6   6   4 10413.3 181.750   1
   4  -6  -6 10897.3 193.910   1
   4   6   6 10760.9 183.010   1
  -4  -6  -6 11282.1 197.700   1
  -6  -4   6 11259.4 194.800   1
  -3  -9  -1 1003.24 49.9300   1
   1  -9  -3 936.800 48.1500   1
   9   3  -1 1008.57 55.1000   1
   9  -1  -3 1007.30 52.3100   1
  -1  -9  -3 939.720 49.4700   1
   9   1  -3 999.480 43.8100   1
  -1   3   9 1007.79 42.6300   1
  -3   1   9 946.950 46.2200   1
   1   3   9 1081.06 48.5400   1
  -3  -1   9 1016.02 46.4900   1
   1  -3  -9 1021.95 43.5700   1
   3  -1  -9 1080.61 47.2000   1
  -1  -3  -9 1031.40 47.2500   1
  -1   9  -3 934.590 77.4300   1
   9   1   3 937.870 80.0800   1
   1   9  -3 906.630 78.9900   1
   1   9  -3 1104.19 58.7900   1
  -1   9  -3 1062.23 59.5100   1
  -3   9  -1 996.320 50.1200   1
  -9   3   1 1092.74 56.2100   1
   9  -1   3 928.160 69.0500   1
  -9   3  -1 907.490 66.0300   1
  -9  -3   1 882.740 71.6200   1
   3   9  -1 892.700 57.3500   1
   9   3   1 956.580 60.1600   1
  -1  -9   3 1006.39 62.7500   1
   1  -9   3 912.170 52.8300   1
  -3   9  -1 938.280 60.3500   1
  -9   3   1 956.590 54.1500   1
   9  -3   1 900.010 51.3300   1
   3  -9   1 1025.99 56.0000   1
  -3   9   1 944.290 53.3700   1
   3   9   1 948.950 46.7800   1
  -3  -9   1 911.240 49.2200   1
  -9   1   3 995.330 49.9800   1
   9  -3  -1 998.170 47.7600   1
   3  -9  -1 969.480 52.2600   1
  -1   9   3 904.590 49.1000   1
  -9  -1   3 994.340 45.1100   1
   1   9   3 982.420 47.7700   1
  -4  -8   4 9334.44 200.830   1
   8  -4   4 9369.91 194.850   1
   4   4   8 9493.79 169.560   1
   4  -4  -8 9473.75 179.280   1
  -4  -8  -4 9533.18 177.430   1
  -8  -4   4 9544.18 178.380   1
  -4   4   8 9345.07 174.300   1
  -8   4   4 10073.1 183.220   1
  -4   8   4 9377.85 165.750   1
   4  -8  -4 9577.92 196.110   1
   8  -4  -4 9677.75 180.700   1
   4  -8   4 9373.79 198.220   1
   4   8   4 9296.84 167.340   1
  -4   8  -4 9621.63 226.330   1
  -4  -8   4 9423.61 242.350   1
   8  -4   4 9501.77 222.500   1
   4  -8   4 9890.48 215.820   1
   5   7   5 20330.5 312.250   1
   5   5   7 19771.8 305.430   1
  -5  -7  -5 20239.5 330.890   1
   7   5   5 19759.9 306.120   1
  -7  -5   5 19625.3 314.390   1
  -7   7  -1 9367.07 198.400   1
  -7   7   1 9731.97 181.650   1
   7  -7   1 9735.46 205.230   1
   7  -7  -1 9798.37 184.550   1
   7   7   1 10267.6 195.290   1
  -1   7   7 10276.9 180.820   1
   1   7   7 9781.43 173.230   1
  -7   1   7 10527.5 184.950   1
   1  -7  -7 10079.3 194.190   1
  -7  -1   7 10216.7 186.080   1
  -1  -7  -7 10262.4 190.130   1
   7  -1  -7 10416.0 192.130   1
  -7  -7  -1 10544.2 190.440   1
   7   1  -7 10146.8 188.640   1
  -7   7  -1 10085.1 187.380   1
   5  -7   5 19335.8 318.270   1
   7  -5   5 18296.9 350.430   1
   5  -7   5 18139.0 364.270   1
  -5   7   5 19230.6 317.190   1
  -7   5   5 19454.1 306.550   1
   5  -7  -5 20106.0 316.180   1
  -5   5   7 18967.8 297.840   1
   7  -5  -5 20062.0 319.890   1
   5  -5  -7 20544.8 333.140   1
   3   9  -3 80.0500 57.7500   1
  -9   3  -3 144.620 47.9200   1
  -3   9  -3 93.2100 42.5700   1
   9  -3   3 119.760 46.9300   1
  -3  -9   3 125.150 37.5900   1
   3  -9   3 119.910 41.6800   1
  -9   3   3 108.480 32.8500   1
  -3   9   3 120.900 36.8100   1
   3   9   3 116.300 29.7800   1
  -9  -3   3 117.860 25.5300   1
   3  -9  -3 96.8900 31.8300   1
  -3  -9  -3 125.180 28.9900   1
  -3   3   9 87.5600 32.4200   1
   9   3  -3 102.570 23.8000   1
   3  -3  -9 112.190 23.8300   1
   3   3   9 80.7500 32.4800   1
   3   9  -3 122.470 37.2200   1
   9  -3   3 62.4200 34.4800   1
  -3   9  -3 52.7400 43.9500   1
   3  -9   3 90.2700 31.0500   1
   0  -8   6 3520.28 141.200   1
   0 -10   0 24020.5 394.700   1
  10   0   0 23314.6 385.580   1
   0  10   0 23430.9 367.340   1
   0  -8  -6 3651.09 93.2200   1
  -8   6   0 3630.68 102.170   1
   6   0  -8 3448.72 87.1500   1
   0  -6  -8 3412.65 94.9900   1
   8   0  -6 3443.00 97.8100   1
  -6   0   8 3320.86 83.7200   1
   0   6   8 3432.14 85.4100   1
  -8   0   6 3442.92 87.1000   1
   0   8   6 3462.11 81.6800   1
  -6  -8   0 3564.86 96.7000   1
   6  -8   0 3478.53 99.1800   1
   8  -6   0 3336.82 102.890   1
  -6   8   0 3232.70 88.2900   1
   6   8   0 3446.29 102.590   1
  -8   6   0 3411.25 101.560   1
   2  -8  -6 7422.93 161.550   1
   2   8   6 7108.38 135.510   1
  10   0   2 15354.8 317.710   1
   2  10   0 15112.4 254.540   1
  -2  10   0 15599.0 269.990   1
   0 -10   2 14894.5 261.540   1
  -2   8   6 7048.28 136.580   1
   6   8   2 7071.05 136.920   1
   8  -6  -2 7176.39 150.880   1
   6  -8  -2 7011.54 144.010   1
  -6   8   2 6782.56 141.270   1
  -8   6   2 6980.97 142.380   1
  10  -2   0 15861.8 271.150   1
  10   2   0 15900.5 276.700   1
   0  10   2 15033.4 243.690   1
  -2 -10   0 15669.5 282.050   1
   0 -10  -2 15996.2 289.520   1
  -6   8  -2 7441.85 154.300   1
  10   0  -2 15450.0 261.350   1
   0   2  10 15242.2 247.490   1
  -2   0  10 15463.7 249.770   1
  10   0   2 16692.5 301.480   1
  -6  -8   2 6882.21 160.120   1
 -10   2   0 16137.9 279.660   1
   0  10  -2 15978.6 270.560   1
   0  10  -2 15324.8 287.410   1
 -10  -2   0 15324.7 334.570   1
  -2  -8  -6 7497.44 163.190   1
   2  -6  -8 7473.41 153.300   1
   6  -2  -8 7023.10 141.430   1
   6  -8   2 7047.44 158.100   1
   8  -6   2 6975.44 154.350   1
  -6   8  -2 6774.42 173.370   1
  -8   6  -2 7312.71 186.650   1
   2 -10   0 15419.7 276.070   1
  -6  -2   8 7087.12 140.060   1
  -2  -8   6 7003.19 202.720   1
  -8   2   6 7179.84 140.850   1
  -2  -6  -8 7118.38 145.010   1
   8   2  -6 7327.24 148.670   1
   2  -8   6 7410.07 162.250   1
  -8   6  -2 7166.34 152.900   1
   6   8  -2 7622.88 155.490   1
   8  -6   2 7382.50 164.340   1
 -10   2   0 15446.6 287.380   1
   2   6   8 7237.78 139.560   1
  -6  -8  -2 7271.80 151.740   1
   8   6   2 7358.87 147.030   1
   8  -2  -6 7270.96 150.430   1
  -8  -2   6 7038.81 138.380   1
  -6   2   8 7162.77 138.070   1
  -2   6   8 7214.83 135.930   1
 -10   0   2 15797.9 291.530   1
   2  -8   6 7135.09 192.980   1
  -1  -9   5 419.830 47.5800   1
   9  -1   5 562.140 74.6900   1
   1   5   9 463.950 38.3300   1
   5   1  -9 497.590 31.4700   1
  -1  -5  -9 521.410 33.1800   1
   5  -1  -9 513.080 38.2600   1
   9   5   1 492.150 35.7100   1
   1  -5  -9 488.940 38.7800   1
  -5  -1   9 519.740 37.8300   1
  -5   1   9 476.980 31.9600   1
   9   1  -5 509.390 34.7100   1
  -1   5   9 503.810 40.3700   1
  -1  -9  -5 475.710 39.2500   1
   9  -1  -5 501.090 36.1400   1
   1  -9  -5 558.680 35.5300   1
  -5  -9  -1 506.570 33.1900   1
  -9  -1   5 507.290 35.3000   1
   1   9   5 505.340 39.8700   1
  -9   1   5 472.080 37.4500   1
  -1   9   5 456.590 40.1600   1
   7  -7   3 11189.1 237.580   1
  -7  -7  -3 10914.6 193.120   1
  -3  -7  -7 11155.4 210.350   1
  -7  -3   7 10609.1 185.580   1
   7  -3  -7 10380.3 195.180   1
   3   7   7 10476.4 177.770   1
   3  -7  -7 10957.3 218.740   1
   7   7   3 10581.9 186.700   1
  -7   3   7 11128.9 196.450   1
  -3   7   7 10285.0 179.020   1
   7  -7  -3 10366.0 198.010   1
  -7   7   3 10479.7 186.650   1
   7  -7   3 10452.4 227.540   1
  -7  -7   3 10372.7 257.790   1
  -7   7  -3 9864.45 214.010   1
   3  -7   7 10736.1 271.700   1
  -5   9  -1 528.160 49.1300   1
   5  -9  -1 525.120 36.1200   1
  -5  -9   1 493.370 36.8000   1
   9  -5  -1 517.100 34.6200   1
   5   9   1 472.880 35.3700   1
   5  -9   1 525.350 37.9100   1
   9  -5   1 484.970 43.7900   1
  -5   9   1 442.210 44.5300   1
  -9   5   1 524.010 38.9400   1
  -5   9  -1 492.870 55.9800   1
  -9   5  -1 503.290 58.2200   1
   5   9  -1 533.630 47.3900   1
   1  -9   5 441.120 47.5100   1
  -9   5  -1 526.610 46.9500   1
  -1  -9   5 505.120 44.9600   1
   1  -9   5 592.800 48.6000   1
  10   2   2 11742.8 253.500   1
   2  10  -2 11518.0 226.610   1
 -10   2  -2 11671.5 259.230   1
  -2 -10   2 11909.3 224.310   1
 -10   2   2 11691.5 226.970   1
   2  10   2 11695.5 204.050   1
   2 -10  -2 12409.8 241.770   1
  10  -2  -2 12308.1 216.690   1
   6   6   6 53969.2 834.390   1
  -2 -10  -2 12102.5 210.610   1
  -6   6   6 52720.0 817.750   1
   6  -6  -6 56497.7 888.200   1
  10   2  -2 12469.6 221.840   1
  -2   2  10 11566.8 206.540   1
   2   2  10 11385.0 196.590   1
   2  -2 -10 11511.7 203.280   1
 -10  -2   2 12100.3 217.730   1
  -2  -2  10 11483.9 193.890   1
  10  -2   2 12536.8 251.340   1
   2  10  -2 12135.7 217.720   1
  -2  10  -2 11907.4 213.000   1
  -2  10   2 11420.8 199.010   1
   2 -10   2 11942.2 235.930   1
  10  -2   2 11934.8 238.980   1
  -2  10  -2 11518.9 238.100   1
  -6  -6  -6 53248.0 841.290   1
  -5  -3   9 3514.71 87.9600   1
  -3   9  -5 3352.95 116.900   1
  -9   5  -3 3370.89 123.780   1
   9  -3   5 3339.02 132.330   1
  -3  -9   5 3457.30 134.670   1
  -5   9  -3 3325.80 112.890   1
   3  -9   5 3170.39 112.600   1
   9  -5   3 3277.87 98.9700   1
  -5  -9   3 3606.04 112.110   1
   5  -9   3 3515.85 116.770   1
  -9   5   3 3463.49 91.9000   1
  -3   9   5 3343.62 80.0400   1
  -9   3   5 3446.37 88.4100   1
   5  -9  -3 3499.55 93.3200   1
   5   9   3 3414.51 84.9900   1
   9  -5  -3 3505.20 101.890   1
   3   9   5 3445.20 86.2800   1
  -9  -5   3 3658.84 103.140   1
   3  -9  -5 3658.69 98.9200   1
   9  -3  -5 3508.83 97.8800   1
  -9  -3   5 3365.25 83.9500   1
  -3   5   9 3221.29 86.0700   1
  -5   3   9 3340.04 83.7000   1
  -5  -9  -3 3473.96 88.6300   1
  -3  -9  -5 3541.09 97.4700   1
   3  -5  -9 3644.38 94.9600   1
   5  -3  -9 3467.42 87.4600   1
   3   5   9 3315.84 81.2200   1
   9   3  -5 3513.72 94.9700   1
   9   5   3 3304.53 82.3700   1
   5   3   9 3379.68 78.8700   1
  -3  -5  -9 3601.25 88.8500   1
   5   9  -3 3806.07 100.440   1
  -5   9  -3 3389.64 98.9300   1
  -3  -9   5 3646.68 113.610   1
   3  -9   5 3458.20 111.780   1
   9  -5   3 3541.49 103.840   1
  -4  10   0 187.990 43.9600   1
   4  10   0 189.720 35.3500   1
  10  -4   0 182.450 26.7000   1
   4 -10   0 189.030 36.1900   1
  10   4   0 187.240 34.2300   1
 -10   0   4 200.170 30.5500   1
   4  -8   6 10126.9 236.680   1
 -10   4   0 284.730 39.7400   1
 -10   4   0 196.460 33.2400   1
   8   4   6 10853.7 186.290   1
   6   4   8 10616.8 183.120   1
  -4  -6  -8 10949.6 199.750   1
   0 -10   4 197.380 47.3900   1
  10   0   4 236.610 58.5200   1
   0  10  -4 212.320 65.4200   1
  -4  -8  -6 10619.6 197.430   1
  -8  -4   6 10600.4 186.180   1
   4   6   8 10350.7 178.350   1
   6  -4  -8 10533.0 200.110   1
   4  -6  -8 10926.7 209.570   1
   4   8   6 10513.6 182.750   1
   8  -4  -6 10472.9 192.660   1
  -6  -4   8 10444.1 186.470   1
  -4   6   8 10581.5 190.410   1
   4  -8  -6 10488.9 208.380   1
  -6   4   8 10588.8 185.940   1
   0  10   4 177.090 33.9400   1
  -8   4   6 10454.0 189.420   1
   8  -4   6 9681.18 246.650   1
   0 -10   4 279.880 34.7800   1
   0  10  -4 248.170 35.0400   1
   4   0 -10 246.910 33.2100   1
   0  -4 -10 244.610 34.1000   1
  -4   0  10 270.290 34.9500   1
   0   4  10 229.310 35.8100   1
  10   0  -4 221.560 29.5800   1
   0 -10  -4 241.050 35.0200   1
  -4 -10   0 195.150 28.5800   1
   6  -8   4 10759.0 223.310   1
  -8  -6   4 11280.8 220.600   1
  -8  -6   4 10624.9 197.840   1
  -6  -8  -4 10805.1 193.630   1
   8   6   4 10708.7 187.130   1
   6   8   4 10600.9 185.770   1
  -8   6  -4 9612.16 219.310   1
  -6   8   4 9850.29 187.730   1
  -6  -8   4 11337.0 225.970   1
  -8   6   4 10418.7 195.700   1
   8  -6   4 10326.5 241.690   1
   8  -6  -4 10200.6 200.230   1
  -6  -8   4 10508.8 255.770   1
  -6   8  -4 9749.83 232.640   1
   6  -8  -4 10999.6 195.280   1
  -2 -10   4 42.8200 26.9500   1
  -4  10  -2 49.3000 51.7300   1
 -10   2   4 13.6800 30.0400   1
  -2  10   4 3.93000 33.2400   1
   4 -10  -2 -40.250 32.5000   1
   2   4  10 14.0400 21.7100   1
   2  -4 -10 -1.6300 30.8300   1
   4  -2 -10 26.2200 28.8000   1
   4  10  -2 6.46000 33.9000   1
  -4  10  -2 43.8700 30.0600   1
   2 -10   4 57.1800 40.1400   1
  10  -4   2 43.2000 34.7600   1
  11  -1  -1 23751.2 379.000   1
   5  -7   7 26837.2 499.050   1
  11   1  -1 23077.5 386.830   1
  -1  -1  11 23080.3 354.100   1
  -1   1  11 23398.0 352.910   1
  11   1   1 24280.3 409.170   1
 -11  -1  -1 22183.8 417.860   1
 -11   1  -1 22092.9 419.020   1
   7  -5  -7 28790.7 449.760   1
  -1 -11   1 23362.7 382.930   1
   1 -11   1 22980.8 394.840   1
 -11  -1   1 21745.9 374.290   1
   1  11  -1 23279.1 380.730   1
   1  11   1 22935.0 357.620   1
  -5  -7  -7 27508.4 409.890   1
  -1  11   1 22201.8 348.260   1
  11   1   1 23000.3 385.030   1
 -11   1   1 21528.8 357.410   1
  -7  -5   7 27201.0 407.790   1
   7   5   7 27171.3 399.780   1
  11  -1   1 22736.7 378.560   1
   5   7   7 28330.7 416.920   1
  -5   7   7 27651.3 421.060   1
  -7   5   7 27759.8 409.550   1
   1 -11  -1 23052.8 372.670   1
   5  -7  -7 28562.4 437.640   1
  -1 -11  -1 22869.5 362.850   1
   7  -5   7 28991.6 512.600   1
   7  -7   5 29263.7 467.160   1
  -7  -7  -5 28100.0 430.590   1
  -7   7   5 27135.4 411.630   1
   7  -7  -5 27672.5 432.580   1
  -7   7  -5 27225.8 483.470   1
   7  -7   5 28183.6 485.620   1
   7   7   5 28275.0 417.140   1
  -8   8   0 36.4000 29.0400   1
   8   0  -8 47.8800 26.6900   1
   0  -8  -8 22.4200 30.0300   1
   0   8   8 41.6600 23.0900   1
   8  -8   0 58.8000 24.7100   1
  -8   8   0 53.1100 42.0500   1
   3  11   1 5344.70 118.610   1
   3 -11   1 5297.09 134.430   1
 -11  -1   3 5382.90 125.900   1
 -11   1   3 5042.11 117.300   1
  -1  11   3 5421.36 117.910   1
  11  -3  -1 5303.56 133.940   1
   1  11   3 5388.24 114.800   1
   3 -11  -1 5442.57 125.810   1
  -3 -11  -1 5722.43 141.860   1
  11   3  -1 5737.70 129.060   1
   1 -11  -3 5843.41 125.280   1
  -1 -11  -3 5567.33 127.240   1
  11  -1  -3 5416.23 130.140   1
  11   1  -3 5671.52 122.380   1
  -1   3  11 5486.11 124.450   1
  -3   1  11 5461.25 109.970   1
   1   3  11 5472.07 108.590   1
  -3  -1  11 5900.52 119.740   1
   1  -3 -11 5635.79 135.640   1
   3  -1 -11 5746.70 130.720   1
   3   1  11 5686.71 112.650   1
  11  -1   3 5813.71 150.400   1
   1  11  -3 5811.99 136.500   1
  -1  11  -3 5906.52 134.080   1
 -11   3   1 5816.70 139.150   1
  -3  11  -1 5911.72 125.580   1
  -3 -11   1 5478.20 136.790   1
  -1  -9   7 47.7800 61.8700   1
  -1   9   7 75.4900 23.3700   1
  -9   1   7 27.7800 29.0400   1
   1   9   7 90.3400 24.4900   1
  -9  -1   7 59.1900 27.3400   1
   1  -9  -7 36.4300 31.6400   1
  -1  -9  -7 93.2200 30.8200   1
   9  -1  -7 81.3300 28.2400   1
   9   1  -7 66.4900 25.0500   1
   1  11  -3 5230.97 151.260   1
 -11  -3   1 5104.68 160.480   1
  11   1   3 5129.76 159.830   1
 -11   3  -1 5313.93 156.250   1
  11  -1   3 5624.19 147.650   1
   3  11  -1 5287.02 128.620   1
  -3  11  -1 5055.61 118.970   1
 -11   3   1 5248.92 131.400   1
   1 -11   3 5283.39 146.390   1
  11   3   1 5575.69 135.850   1
  -1 -11   3 5279.68 145.910   1
  11  -3   1 5445.59 131.000   1
  -3  11   1 5390.07 124.520   1
  -9   7  -1 82.9600 35.5000   1
  -7  -1   9 112.600 29.8800   1
   1  -7  -9 38.2700 30.5300   1
  -5  -9   5 3435.72 106.000   1
  -1  -7  -9 39.4300 27.8800   1
   7  -1  -9 45.3900 27.6900   1
   7   1  -9 64.2700 26.9700   1
  -9   7  -1 70.8900 39.3400   1
  -7   9  -1 71.8200 41.5000   1
   7   9  -1 87.4400 29.2500   1
  -9   5   5 3027.46 78.4200   1
  -5   9   5 3209.43 87.9100   1
   5  -9   5 2757.39 115.540   1
   9  -5   5 2797.00 99.9000   1
  -5  -9   5 2705.14 116.320   1
   5  -9  -5 3011.48 83.6000   1
  -7   9  -1 49.9600 34.7400   1
  -9   7   1 55.2000 39.6400   1
  -7   9   1 81.9800 30.5100   1
   7  -9   1 119.930 35.7300   1
   9  -7  -1 69.1500 23.8000   1
   7  -9  -1 83.7000 33.9200   1
   5   9   5 3126.63 78.8200   1
  -5   5   9 3060.68 76.8700   1
  -9  -5   5 3098.42 81.8900   1
   9  -5  -5 3183.21 88.2400   1
   5  -5  -9 3365.98 87.0500   1
  -1   7   9 78.3000 32.4300   1
  -5  -9  -5 3313.27 91.0400   1
   1   7   9 52.2300 23.2100   1
  -7   1   9 60.6700 30.2300   1
   5   5   9 3239.99 76.5400   1
   9   5   5 3293.55 80.8600   1
  -4   4  10 116.070 33.2300   1
  -8   8   2 53.5600 38.8400   1
   8  -8  -2 83.2800 32.5300   1
  -2   8   8 104.030 34.5400   1
  -8   2   8 131.290 25.2500   1
   2   8   8 155.320 33.1500   1
   2  -8  -8 193.980 34.4700   1
  -8  -2   8 156.810 29.9200   1
   8  -2  -8 152.860 30.6900   1
  -2  -8  -8 147.230 30.6500   1
  -8  -8  -2 175.740 23.5200   1
   8   2  -8 180.590 28.1000   1
   8   8  -2 203.100 29.8300   1
  -8   8  -2 192.880 43.2700   1
  -4 -10   4 98.9600 35.6500   1
   4 -10  -4 116.430 33.9700   1
  10  -4  -4 107.080 30.2900   1
  -4 -10  -4 107.180 26.6300   1
   4  -4 -10 109.420 29.5100   1
  10  -4   4 105.010 46.6900   1
 -10   4  -4 116.880 48.5600   1
  -8   8  -2 109.480 40.4200   1
  -4  10  -4 72.1200 32.6800   1
  10  -4   4 124.860 35.9200   1
   4 -10   4 110.510 44.3600   1
   8  -8   2 65.6500 27.7300   1
  -4  10   4 115.600 36.5300   1
 -10   4   4 119.700 32.3400   1
   4  10   4 121.100 30.0500   1
   8   8   2 96.5300 24.1900   1
   4   4  10 75.1500 23.3900   1
   4 -10   4 172.770 41.2200   1
  10   4  -4 101.930 19.3900   1
  -6   0  10 947.370 40.4700   1
   0  -6 -10 987.180 43.4600   1
   6   0 -10 994.170 47.7900   1
   0 -10   6 1007.90 55.8600   1
 -10   6   0 925.970 52.0400   1
  10  -6   0 1134.19 57.3300   1
  -6  10   0 957.830 58.3300   1
  10   0  -6 999.580 45.1900   1
   6  10   0 1074.11 53.7800   1
 -10   6   0 1121.83 54.6100   1
   0 -10   6 1149.43 65.9300   1
   6  -8   6 17187.3 291.430   1
  -8  -6   6 16964.9 277.750   1
  -6  -8  -6 17304.3 286.510   1
   8   6   6 16669.5 261.630   1
   6   6   8 16664.6 260.200   1
   6  -6  -8 16354.3 273.520   1
   6   8   6 16391.6 259.950   1
   8  -6  -6 16176.6 270.310   1
   6  -8  -6 16568.9 273.340   1
  -6   6   8 15976.7 264.650   1
  -6   8   6 15786.2 265.670   1
  -8   6   6 16255.8 259.070   1
   8  -6   6 15621.6 334.280   1
   6  -6   8 16201.4 326.270   1
 -10   0   6 996.800 41.9700   1
   0 -10  -6 1080.87 51.3400   1
   0   6  10 974.910 48.8500   1
   0  10   6 1042.20 48.6700   1
  -6 -10   0 1144.05 49.8400   1
   6 -10   0 1117.77 59.9300   1
 -11   3   3 2259.51 67.9600   1
   3  -3 -11 2423.80 71.5700   1
  -3 -11  -3 2484.72 83.2300   1
  11  -3   3 2493.05 87.0200   1
  -3  11  -3 2559.77 81.1500   1
   3  11  -3 2393.61 76.2700   1
  -3  -3  11 2320.10 67.1100   1
   3   3  11 2336.05 67.0600   1
   3  -9   7 2812.92 110.070   1
  11   3   3 2319.63 108.190   1
 -11   3  -3 2111.30 92.9300   1
  -9   3   7 2848.26 78.9800   1
  -7  -3   9 2859.99 75.5800   1
 -11  -3   3 2200.77 78.2500   1
   3  11   3 2378.42 69.7400   1
   3 -11  -3 2442.18 85.2600   1
   3  -9   7 2998.39 106.950   1
   9   3  -7 2990.19 81.9200   1
  -3  -7  -9 2971.83 87.9400   1
  -3  -9  -7 2842.09 76.1800   1
   7  -3  -9 2983.85 84.5600   1
   3  -7  -9 2917.14 88.2500   1
   3   7   9 2901.70 74.2000   1
  -3  11   3 2255.94 70.0100   1
  -9  -3   7 2866.99 78.2800   1
  -3 -11   3 2350.81 87.6000   1
  11  -3  -3 2365.97 75.2300   1
   3 -11   3 2243.07 87.5400   1
  11  -3   3 2233.17 85.0600   1
  -3  11  -3 2234.32 95.1500   1
   9  -3  -7 2952.40 81.2600   1
   3  -9  -7 3100.86 95.2900   1
  -7   3   9 2795.65 73.2800   1
   3   9   7 2931.37 75.4600   1
   3  11  -3 2183.40 89.4600   1
   9  -3   7 3092.05 133.130   1
  -3   9   7 2930.74 74.8300   1
  -3   3  11 2260.53 63.5800   1
  11   3  -3 2383.39 71.4600   1
  -7  -9   3 2862.37 97.9500   1
   7  -9   3 2936.77 92.7100   1
   9  -7   3 2828.63 95.8200   1
  -7   9  -3 2770.27 100.000   1
  -9   7  -3 2829.66 110.590   1
   9   7   3 2848.91 74.7700   1
  -7  -9  -3 2894.34 81.4400   1
  -9  -7   3 3027.39 88.7500   1
  -7   9  -3 3185.42 89.9200   1
   9  -7   3 3071.98 99.8900   1
   7   9   3 2838.60 79.0000   1
   7  -9  -3 2969.31 87.4200   1
   9  -7  -3 2807.53 85.1000   1
  -7   9   3 2898.31 85.4100   1
  -9   7   3 2939.58 82.0100   1
  10  -6   2 -12.380 32.3500   1
 -10   6   2 68.8300 38.2800   1
   6 -10   2 38.5700 36.9300   1
  -6  10   2 34.8300 26.1100   1
  -6 -10   2 60.6600 22.9700   1
   6  10   2 69.1400 25.4600   1
  10  -6  -2 48.0700 31.3300   1
   6 -10  -2 60.8400 23.9400   1
  -2  10   6 88.3500 32.3400   1
   2  10   6 101.260 31.3600   1
  -2  -6 -10 49.9800 20.9400   1
   6  -2 -10 28.8800 28.5100   1
   2  -6 -10 39.3000 22.8700   1
   2 -10   6 53.4400 51.3600   1
  -6  10  -2 36.0300 41.7100   1
  -6  -2  10 60.8200 29.6900   1
   2   6  10 64.1500 32.2300   1
  -6   2  10 48.0800 23.1400   1
   2 -10   6 66.1800 27.7400   1
  -2   6  10 49.4600 33.2400   1
  10  -2  -6 61.5200 20.9600   1
  -6 -10  -2 69.3600 22.3600   1
   6  10  -2 75.7900 32.0400   1
  -2 -10   6 51.1300 26.6500   1
 -10  -2   6 56.1800 25.3000   1
   2 -10  -6 59.6800 23.8700   1
 -10   6  -2 5.46000 38.3500   1
  -8   4   8 14097.8 234.750   1
   4  -8  -8 14022.8 261.340   1
   8  -4  -8 13711.8 239.510   1
   4   8   8 13717.9 224.160   1
  -8  -4   8 13364.7 227.460   1
  -4  -8  -8 13745.9 246.880   1
   8   4   8 13442.2 220.920   1
   4  -8   8 14493.8 313.100   1
  -8  -8   4 14314.8 307.540   1
   8  -8   4 14069.4 274.090   1
  -8   8   4 14467.3 243.110   1
   8  -8  -4 13918.5 245.360   1
   0   0  12 36326.1 523.680   1
   0 -12   0 37294.6 556.440   1
  12   0   0 37526.4 573.340   1
   0  12   0 39733.1 580.520   1
  -8   8  -4 13690.3 280.810   1
 -12   0   0 37661.6 622.580   1
   8  -8   4 14314.4 272.900   1
  -8  -8  -4 13249.5 227.950   1
   8   8   4 13742.0 231.310   1
   7  -7   7 16956.6 339.220   1
  -7   7   7 18253.6 296.770   1
   7  -7  -7 19329.3 321.200   1
   7   7   7 18458.9 288.790   1
 -11   5  -1 944.910 53.1400   1
  -1 -11   5 944.670 54.1800   1
  -5  11  -1 951.640 56.0000   1
   1 -11   5 980.920 49.5900   1
 -11   5   1 953.610 52.9400   1
  11   1   5 959.880 79.9500   1
  -1  11  -5 947.270 83.1200   1
  11  -1   5 1003.25 66.5600   1
   5  11  -1 888.710 55.6400   1
 -11   5  -1 881.100 54.6400   1
  -1 -11   5 959.530 63.2600   1
   1 -11   5 947.160 62.2800   1
  -5  11  -1 1015.55 64.0700   1
 -11   5   1 922.770 48.1400   1
  11   5   1 1025.78 61.7200   1
  -5  11   1 961.350 47.8200   1
  11  -5   1 845.140 48.7900   1
   5  11   1 862.140 44.7800   1
   5 -11   1 964.900 58.7400   1
  11  -5  -1 913.070 47.2200   1
  -5 -11   1 873.220 50.2600   1
   5 -11  -1 883.200 45.9200   1
 -11   1   5 884.770 44.4600   1
  -1  11   5 951.440 42.6000   1
 -11  -1   5 915.860 42.7200   1
   1  11   5 939.480 47.1800   1
  -5 -11  -1 937.290 46.9600   1
   1 -11  -5 999.550 45.0900   1
  -1 -11  -5 1002.30 51.2900   1
  11  -1  -5 935.970 44.2900   1
  11   1  -5 956.740 42.7100   1
  -1   5  11 856.250 46.0500   1
   1   5  11 857.750 45.1000   1
  -5   1  11 926.590 46.5000   1
  -5  -1  11 977.350 46.7500   1
   1  -5 -11 883.050 46.9100   1
  -1  -5 -11 939.610 45.9600   1
   5  -1 -11 920.630 45.2300   1
  -2   0  12 8877.51 164.270   1
  12   0  -2 8460.07 172.370   1
   0   2  12 8105.84 154.100   1
   2 -12   0 8324.37 183.630   1
   2   0  12 8740.70 156.010   1
  12   2   0 7838.02 158.970   1
  12  -2   0 7578.52 163.480   1
   0  12   2 7959.20 153.700   1
   0 -12   2 8276.84 180.930   1
 -12   0   2 7574.85 169.290   1
  -2  12   0 7593.45 150.900   1
   2  12   0 7895.29 158.970   1
  12   0   2 7826.23 172.550   1
 -12   2   0 7625.12 184.770   1
   0  12  -2 7507.46 174.340   1
  -2 -12   0 8373.99 178.780   1
   0 -12  -2 8345.75 163.120   1
   4 -10   6 1869.76 79.6600   1
  10   4  -6 1736.37 60.6000   1
  -4  -6 -10 1870.55 65.0200   1
  -6  -4  10 1735.26 58.0300   1
   6   4  10 1755.96 57.4500   1
   6  -4 -10 1764.23 65.8600   1
   4   6  10 1831.42 60.1600   1
   4  -6 -10 1725.40 60.7900   1
 -10  -4   6 1680.63 57.5900   1
  -6   4  10 1648.78 54.6700   1
  -4   6  10 1533.98 58.2000   1
  10  -4  -6 1713.67 61.3600   1
   4 -10  -6 1722.79 65.6500   1
   4  10   6 1574.55 54.5500   1
  10  -4   6 1504.51 90.2400   1
  -4 -10  -6 1791.94 59.9300   1
 -10   4   6 1606.73 54.9000   1
  -4  10   6 1476.32 58.7200   1
   4 -10   6 1398.16 70.3000   1
  -4 -10   6 1524.60 88.8800   1
  -4 -10   6 1895.05 75.2400   1
 -10   6   4 1577.27 60.6800   1
  10  -6   4 1887.21 76.6700   1
   6 -10   4 1951.96 79.9700   1
 -10  -6   4 1912.32 73.8100   1
 -12   2   2 10863.8 226.260   1
   2  12  -2 11229.5 227.640   1
  12  -2   2 11672.3 250.730   1
 -12   2   2 10585.1 219.450   1
  -2  12  -2 10988.8 214.190   1
   2  -2 -12 10616.9 212.720   1
   2   2  12 10167.6 191.130   1
  12   2  -2 10694.1 209.640   1
  -2 -12  -2 11381.3 224.770   1
   2 -12  -2 11167.0 235.010   1
  12  -2  -2 11095.5 223.760   1
   2  12   2 10557.0 205.970   1
  -2 -12   2 10958.0 234.330   1
 -12   2  -2 10532.2 244.120   1
   2  12  -2 9977.35 210.940   1
  -2  12  -2 10383.7 225.320   1
  12   2   2 10460.1 233.140   1
 -12  -2   2 10569.6 224.900   1
  -2  12   2 10388.5 197.790   1
   2 -12   2 11176.8 227.930   1
  -2  -2  12 11230.9 205.260   1
 -10   6  -4 1499.38 95.5000   1
  -6 -10   4 1516.10 71.1300   1
  10  -6   4 1596.60 76.7400   1
   6 -10   4 1509.02 65.7400   1
  -6  10   4 1452.23 59.4200   1
   6 -10  -4 1580.87 65.1800   1
  10  -6  -4 1759.84 67.2800   1
  12  -2   2 10607.0 220.870   1
   6  10   4 1650.36 54.5000   1
 -10  -6   4 1716.22 59.9700   1
  -6 -10  -4 1818.85 67.6000   1
  10   6   4 1760.21 57.5700   1
   9  -7   5 11586.5 254.780   1
   5  11   3 56.2600 26.6500   1
  -5  11   3 112.180 27.5600   1
 -11   5   3 59.9500 35.4000   1
  -5  -3  11 102.400 32.3200   1
  -5 -11   3 93.9000 27.7700   1
   5 -11   3 116.560 39.7500   1
  11  -5   3 131.060 29.9200   1
   3 -11   5 17.0300 45.2000   1
  -3 -11   5 83.7500 41.4800   1
  -5  11  -3 55.9600 40.1300   1
  11  -3   5 60.6500 51.7700   1
   5   3  11 62.3800 23.5300   1
  -3  -5 -11 56.9400 29.2500   1
 -11   5  -3 21.9100 62.5700   1
  -3  11  -5 133.440 69.1200   1
  -5  11  -3 59.1600 44.7500   1
  -9   7  -5 11474.5 261.480   1
  -7   9  -5 10933.8 261.660   1
   9  -5   7 12001.3 295.260   1
  -7  -9   5 11331.6 288.060   1
   5  -9   7 11481.6 285.060   1
  -7  -5   9 11596.4 217.590   1
   7  -9   5 11365.7 252.670   1
  -9   7   5 12015.3 225.390   1
  -7   9   5 11403.5 212.070   1
  -9   5   7 11454.5 215.990   1
  -5   9   7 11493.6 212.610   1
   9  -7  -5 11844.9 236.580   1
   7  -9  -5 12178.9 229.590   1
  -5   7   9 11586.3 215.680   1
   7   9   5 11738.0 215.980   1
   5  -9  -7 12389.7 242.480   1
   9  -5  -7 12076.9 234.070   1
   5   9   7 11665.9 213.990   1
   5  -7  -9 12468.4 240.320   1
   7  -5  -9 12640.1 245.820   1
   5   7   9 12048.5 218.430   1
   9   7   5 11866.7 217.730   1
  -9  -5   7 11908.8 230.420   1
  -5  -9  -7 12338.5 234.310   1
  -7  -9  -5 12071.4 233.580   1
  -9  -7   5 11506.9 217.580   1
   7   5   9 11412.7 204.850   1
   5  11  -3 99.3800 35.5300   1
   9   5   7 11965.9 218.180   1
  -5  -7  -9 12619.8 242.590   1
  -9  -7   5 12721.0 252.580   1
   9  -7   5 12043.6 243.790   1
   7  -9   5 11615.6 249.370   1
  -7  -9   5 12103.8 249.710   1
  -7   5   9 12320.4 223.340   1
  11  -5   3 80.5900 35.7900   1
   5  11  -3 120.920 53.9000   1
  -3  11   5 82.0200 26.0500   1
  -3 -11   5 76.3100 36.1300   1
   5  -3 -11 95.4800 23.5500   1
   3  -5 -11 68.0200 30.2700   1
  11   3  -5 110.720 22.2800   1
   3   5  11 92.9300 31.4600   1
  -5   3  11 102.150 32.4100   1
  -3   5  11 95.2900 35.0400   1
  -3 -11  -5 90.4100 28.4800   1
  -5 -11  -3 73.1100 26.5400   1
  11  -3  -5 66.6400 29.6100   1
   3 -11  -5 68.7100 30.3900   1
 -11  -3   5 83.8900 23.8000   1
  11  -5  -3 69.6800 22.4200   1
   3  11   5 106.300 30.0000   1
   3 -11   5 91.9400 29.4200   1
   5 -11  -3 104.320 34.0500   1
 -11   3   5 78.9700 31.2800   1
   0  12   4 5723.13 125.270   1
  -4 -12   0 5838.08 141.520   1
  -4   0  12 5763.04 124.490   1
   0  -4 -12 5682.83 139.950   1
   0  12  -4 5737.40 140.670   1
 -12   4   0 5618.14 142.480   1
   0  12  -4 5922.68 168.380   1
   4  12   0 6094.59 140.680   1
  12   0   4 6221.56 179.660   1
 -12   4   0 6029.85 154.720   1
   0 -12   4 6165.27 179.110   1
  -4  12   0 5361.81 130.180   1
 -12   0   4 5743.73 137.770   1
   0 -12  -4 6081.34 145.920   1
   4 -12   0 5871.04 155.220   1
  12   4   0 5995.35 139.920   1
  12  -4   0 5542.14 138.780   1
  12   0  -4 5900.26 137.630   1
   0   4  12 5647.14 119.280   1
   9   9  -1 1139.68 51.0400   1
  -9  -9  -1 1161.78 48.2700   1
  -9   9  -1 1110.06 67.6500   1
  -9   9   1 1046.98 57.6700   1
   9   9   1 1139.97 49.9100   1
   9  -9   1 1116.83 55.2900   1
   9  -9  -1 1070.84 53.8600   1
  -1   9   9 1026.76 44.1200   1
   1   9   9 1070.83 44.7600   1
  -9   1   9 1174.48 50.6200   1
  -9  -9   1 1192.46 58.5600   1
  -9  -1   9 1151.42 48.0600   1
   1  -9  -9 1168.58 48.9700   1
  -1  -9  -9 1116.66 46.0600   1
   9  -1  -9 1107.59 49.0000   1
   9   1  -9 1097.71 44.7600   1
  -9   9  -1 1156.13 52.5000   1
  10   0  -8 1792.64 62.6200   1
   8  -8  -6 18805.2 345.380   1
   0  -8 -10 1785.84 67.0700   1
   8   0 -10 1784.81 58.8100   1
   8   8   6 19293.2 329.500   1
 -10   8   0 1907.76 66.6200   1
  -8  10   0 1608.63 67.8700   1
   0 -10   8 1706.64 86.8900   1
   8  10   0 1855.66 73.6100   1
  -8  -8   6 19515.6 359.570   1
   8  -8   6 19707.5 354.380   1
 -10   8   0 1645.59 73.4100   1
  -8   8   6 18210.6 319.500   1
  -8  10   0 1838.50 72.3600   1
  10  -8   0 1658.58 63.0000   1
   8 -10   0 1686.14 70.2500   1
   0  10   8 1770.25 60.7700   1
 -10   0   8 1824.88 57.6500   1
  -8 -10   0 1881.91 65.7200   1
   0   8  10 1571.20 53.6800   1
   0 -10  -8 1818.55 63.2800   1
  -8   0  10 1858.15 61.7200   1
  -6   8   8 18474.5 320.500   1
   6  -8  -8 19216.0 347.340   1
   8  -6  -8 19124.9 344.700   1
   6   8   8 19421.5 328.620   1
   8   6   8 18300.8 306.310   1
  -8  -6   8 19432.6 336.160   1
  -6  -8  -8 19529.2 343.480   1
   4 -12   2 1422.25 61.0700   1
  12  -4   2 1307.75 63.0900   1
   2   4  12 1413.46 54.8100   1
   4  -2 -12 1435.63 53.6600   1
   2  -4 -12 1528.37 59.6800   1
  -4  -2  12 1456.78 50.6200   1
   4   2  12 1370.39 54.2800   1
  12   2   4 1358.02 81.9100   1
   2  12  -4 1330.92 84.6900   1
   2  12  -4 1666.87 68.4800   1
   8  -6   8 18472.6 382.130   1
  12  -2   4 1569.67 67.9500   1
  -2   4  12 1350.16 49.0600   1
  -4  12  -2 1251.21 63.4800   1
 -12  -4   2 1288.57 69.8600   1
  -4  12  -2 1547.87 60.3400   1
   4  12  -2 1563.35 59.3500   1
  -4  12   2 1380.62 60.1900   1
  12  -4   2 1555.34 65.6500   1
  -2 -12   4 1426.76 70.7300   1
   2 -12   4 1321.02 64.0100   1
  12  -2   4 1228.11 69.3400   1
 -12   4   2 1670.29 63.1300   1
  -4 -12   2 1371.07 63.0300   1
   6  -8   8 17861.3 385.040   1
   4  12   2 1347.64 50.2400   1
 -12   2   4 1408.12 52.7500   1
  -2  12  -4 1566.63 66.2700   1
  -2  12   4 1350.94 51.2900   1
  -2  12  -4 1264.67 85.1800   1
 -12   4  -2 1326.99 81.1400   1
   4  12  -2 1371.91 72.2500   1
  -4   2  12 1502.37 51.5400   1
 -12  -2   4 1337.57 60.3600   1
   2  12   4 1389.97 54.4300   1
  12  -4  -2 1368.12 63.0000   1
   4 -12  -2 1418.57 62.3700   1
   2 -12  -4 1432.74 56.1200   1
  -4 -12  -2 1503.28 59.1000   1
  12  -2  -4 1377.50 55.1700   1
  -2 -12  -4 1592.44 67.2500   1
  12   2  -4 1451.10 55.4600   1
 -12   4   2 1367.58 60.0000   1
  12   4  -2 1435.47 54.7700   1
  12   4   2 1302.28 70.9000   1
  -8   2  10 42.9900 31.0000   1
   2 -10  -8 60.1300 32.2000   1
   2   8  10 61.0800 22.8000   1
  10  -2  -8 56.2000 27.5500   1
  -2 -10  -8 32.5300 21.0900   1
   2  -8 -10 47.7200 30.5400   1
  -8  -2  10 47.1300 20.6900   1
   8  -2 -10 43.0500 20.7200   1
  -2  -8 -10 48.9200 29.6200   1
  10   2  -8 61.1400 25.1500   1
   8   2 -10 54.8000 24.7900   1
   2 -10   8 59.7300 28.9900   1
 -10   8  -2 56.8600 39.6200   1
 -10  -2   8 35.4500 26.9900   1
  -2 -10   8 42.3500 59.8000   1
  10  -8   2 -12.800 35.6800   1
  -8  10   2 48.5700 39.0000   1
   8 -10   2 35.2200 37.0400   1
 -10   8   2 66.6600 37.7500   1
   8 -10  -2 37.8400 33.0900   1
  10  -8  -2 1.85000 32.2800   1
  -2  10   8 23.7700 23.4000   1
 -10   2   8 57.9700 28.9600   1
   2  10   8 15.6100 32.3200   1
  -2   8  10 29.6200 35.6400   1
 -13  -1  -1 14298.2 335.470   1
 -11   7   1 400.120 38.1200   1
  -7  11  -1 373.970 51.0300   1
   7  11  -1 396.480 46.1900   1
   1 -11   7 391.340 47.2000   1
  -1 -11   7 318.540 60.0900   1
  -5  -5  11 2562.03 73.1700   1
   7 -11   1 433.870 42.9300   1
  -5   5  11 2608.77 74.4600   1
   5  -5 -11 2666.67 80.6900   1
   5   5  11 2629.93 72.7600   1
   7  11  -1 559.750 37.3300   1
 -11   7  -1 423.030 57.4400   1
  -7  11  -1 542.130 41.9800   1
  -1 -11   7 492.070 44.6400   1
   1 -11   7 529.280 48.2800   1
 -11   7  -1 544.890 46.8700   1
   7   1 -11 501.940 31.3400   1
   7  -1 -11 443.800 36.2900   1
  -1  -7 -11 506.550 39.0800   1
   1  -7 -11 472.830 38.3400   1
  11   1  -7 509.800 34.1800   1
  -7  -1  11 476.880 37.6700   1
  -7   1  11 445.590 32.3200   1
   1   7  11 477.290 39.7300   1
  11  -1  -7 460.340 36.0500   1
  -1 -11  -7 465.540 38.7300   1
  -1   7  11 470.310 33.1300   1
   1 -11  -7 484.730 38.6300   1
  -7 -11  -1 426.320 30.4100   1
 -11  -1   7 456.630 35.5600   1
   1  11   7 446.000 36.9900   1
 -11   1   7 431.480 30.5900   1
  -1  11   7 385.570 38.9000   1
  -7 -11   1 432.900 31.5400   1
  11  -7   1 433.540 34.8200   1
   7 -11  -1 389.660 39.4800   1
  11  -7  -1 424.470 39.1500   1
 -11   7   1 498.580 39.1400   1
 -13   1  -1 14163.6 317.710   1
 -13  -1   1 13748.1 313.170   1
  -1  13  -1 14910.5 296.380   1
   1  13  -1 14342.1 281.410   1
 -13   1   1 13733.1 277.680   1
   1  13   1 14426.3 264.540   1
  -1  13   1 14535.9 266.230   1
  13  -1   1 14697.1 291.420   1
  13   1   1 14531.7 277.680   1
  -1 -13   1 14229.1 284.760   1
   1 -13   1 14538.9 271.270   1
  13  -1  -1 14760.9 278.970   1
   1 -13  -1 14853.6 283.180   1
  13   1  -1 15073.3 280.260   1
  -1 -13  -1 15381.5 302.480   1
  -1   1  13 15158.5 266.410   1
   1   1  13 14029.6 251.220   1
  -1  -1  13 14885.0 260.550   1
   1  -1  13 15114.0 266.140   1
  -1  13  -1 15979.9 297.810   1
  13   1   1 15524.9 298.330   1
   7  11   1 441.200 38.6700   1
  -7  11   1 350.210 46.1200   1
   9   9   3 453.820 30.2000   1
  -3   9   9 467.270 33.9400   1
  -9   3   9 496.440 40.7800   1
   3   9   9 525.410 33.4800   1
   3  -9  -9 459.330 33.8400   1
   9  -3  -9 448.800 37.6000   1
  -9  -3   9 473.500 30.5600   1
  -3  -9  -9 500.160 32.5400   1
  -9  -9  -3 460.890 32.5500   1
  -9   9  -3 416.440 39.0200   1
 -11  -5   5 2665.16 76.3600   1
  -9   9  -3 475.460 65.3100   1
  -5 -11  -5 2724.35 86.5700   1
   3  -9   9 560.630 80.2400   1
   5 -11   5 2581.78 105.930   1
  -9   9   3 495.510 44.8100   1
  -5  11  -5 2576.73 103.190   1
  -5 -11   5 2538.45 106.930   1
  11  -5   5 2535.82 95.9000   1
   5 -11   5 2778.56 98.7800   1
 -11   5   5 2555.76 79.5300   1
  -5  11   5 2610.68 77.3100   1
   9  -9  -3 442.590 33.2300   1
  -9  -9   3 502.330 37.2400   1
   9  -9   3 482.970 38.8900   1
  -5 -11   5 2632.82 103.010   1
  11  -5   5 2537.49 88.2400   1
   5  11   5 2620.14 72.1800   1
   5 -11  -5 2631.48 98.7600   1
  11  -5  -5 2620.24 87.4300   1
  10   6   6 12446.8 230.070   1
   6   6  10 12835.9 230.800   1
  -6 -10  -6 12788.6 248.410   1
 -10  -6   6 12412.6 229.090   1
   6  -6 -10 12555.1 232.960   1
  -6   6  10 13019.9 239.560   1
   6  10   6 13137.0 234.090   1
  10  -6  -6 12579.0 238.860   1
   6 -10  -6 12303.0 267.590   1
  -6  10   6 12035.8 229.230   1
 -10   6   6 12473.4 226.890   1
   6 -10   6 12522.1 277.270   1
  10  -6   6 12849.6 294.260   1
  -6 -10   6 12891.8 307.170   1
  -6  10  -6 12659.8 277.210   1
  -6 -10   6 12825.8 268.460   1
   6 -10   6 12617.8 255.100   1
  10  -6   6 13337.1 275.530   1
 -12   4  -4 565.600 59.9300   1
  -4  12  -4 494.430 72.8400   1
  12  -4   4 519.510 50.3800   1
  -4 -12   4 437.770 42.3300   1
   4 -12   4 448.120 48.1700   1
 -12   4   4 480.700 41.1700   1
  -4  12   4 446.670 34.9700   1
 -12  -4   4 480.250 35.2900   1
   4  12   4 426.930 35.2100   1
   4 -12  -4 473.820 40.6900   1
  12  -4  -4 425.120 36.6100   1
  -4 -12  -4 455.150 37.0800   1
  -4   4  12 417.390 32.1000   1
  12   4  -4 404.310 30.1100   1
   4   4  12 403.670 31.5200   1
   4  -4 -12 444.300 38.4000   1
  -4  -4  12 432.440 38.3900   1
   4  12  -4 360.750 43.1800   1
  -4  12  -4 430.740 39.3300   1
  12  -4   4 422.830 35.3900   1
  13  -1  -3 5290.00 129.200   1
  13   1  -3 5468.30 128.200   1
  -1   3  13 5053.36 117.790   1
  -3   1  13 5113.89 113.480   1
   1   3  13 5513.42 125.640   1
  -3  -1  13 5230.84 117.270   1
   3   1  13 5299.90 118.040   1
  13  -1   3 5807.31 151.610   1
  -1  13  -3 5598.19 133.940   1
   1  13  -3 5512.98 135.040   1
 -13   3   1 5311.28 131.690   1
  13   3   1 5680.49 147.920   1
 -13  -1   3 5545.78 138.450   1
  -3  13  -1 5667.58 136.490   1
   3  13  -1 5645.45 133.550   1
  11  -7   3 72.3400 38.1900   1
   3 -11   7 93.7200 37.4800   1
  -3 -11   7 126.520 37.6000   1
  -7  11  -3 44.5900 43.2800   1
   7  11  -3 130.240 33.6700   1
   7   3  11 121.650 25.0100   1
  -3  -7 -11 118.370 23.2800   1
  11   3  -7 115.290 22.9600   1
  -7  -3  11 72.5000 21.8900   1
  13  -3   1 4697.63 125.080   1
   7  -3 -11 71.0100 28.4500   1
  11  -3   7 135.230 63.3700   1
  -3 -11   7 80.5500 49.5800   1
 -11   7  -3 103.580 43.6800   1
   3 -11   7 58.5500 36.3100   1
  -7  11  -3 114.120 41.4200   1
  11  -7   3 94.8200 27.7900   1
   7 -11   3 112.370 39.4900   1
  -7 -11   3 126.310 28.0700   1
 -11   7   3 96.8900 26.7700   1
  -7  11   3 97.6000 28.5100   1
   7  11   3 103.560 26.1000   1
  11  -7  -3 95.2500 32.7200   1
   7 -11  -3 128.480 32.4600   1
 -11   3   7 135.740 32.1400   1
  -3  11   7 138.020 36.4200   1
   3  11   7 107.000 23.0900   1
   3  -7 -11 112.970 24.8100   1
  11   7   3 96.9800 22.7500   1
   3   7  11 78.8900 30.9500   1
  -3 -11  -7 120.100 29.3800   1
  -7 -11  -3 124.360 24.6400   1
  11  -3  -7 120.150 30.1400   1
  -7   3  11 150.110 34.5900   1
  -3   7  11 51.0400 33.8900   1
   3 -11  -7 62.3100 33.3600   1
 -11  -3   7 95.7800 26.3400   1
 -13  -3   1 5022.37 153.640   1
   1  13  -3 4911.44 146.430   1
  -1  13  -3 5131.58 146.380   1
 -13   3  -1 5236.48 155.350   1
   3  13  -1 5080.39 135.340   1
  13   1   3 5125.15 147.850   1
  -3  13  -1 5201.47 133.240   1
 -13   3   1 5014.47 137.160   1
  13  -1   3 5013.83 138.080   1
   3  13   1 5174.78 123.930   1
  -3  13   1 5018.00 125.390   1
   1 -13   3 5114.61 144.590   1
 -13  -1   3 4995.45 131.010   1
  -1 -13   3 5138.94 141.780   1
 -13   1   3 4934.51 123.400   1
  13   3   1 5278.36 143.210   1
  -1  13   3 5200.88 118.600   1
   3 -13   1 5183.43 130.350   1
   1  13   3 4981.88 113.710   1
  -3 -13   1 5062.06 123.370   1
  13  -3  -1 4947.92 128.120   1
   3 -13  -1 5340.60 130.890   1
  -3 -13  -1 5392.18 129.960   1
   1 -13  -3 5476.52 143.060   1
  13   3  -1 5275.14 133.490   1
  -1 -13  -3 5191.78 139.210   1
   7   7   9 24665.5 405.080   1
   9  -7  -7 24536.9 425.170   1
  -7  -9  -7 23804.7 398.920   1
  -9  -7   7 23141.3 387.690   1
  -7   7   9 24374.9 401.780   1
  -9   7   7 23759.1 390.490   1
  -7   9   7 23705.8 395.860   1
   7  -9   7 22982.5 464.340   1
   9  -7   7 25696.2 501.800   1
   9   7   7 24950.8 412.790   1
   7  -9   7 24353.8 442.800   1
  -7  -9   7 24946.8 447.670   1
   7  -7   9 25569.7 503.250   1
   7   9   7 24989.0 411.890   1
   7  -7  -9 25127.4 434.080   1
   7  -9  -7 23712.2 409.020   1
  -4  10   8 584.790 43.0000   1
  -4   8  10 496.700 43.1700   1
  -8   4  10 534.280 40.9700   1
   4  10   8 560.370 34.1500   1
   4 -10  -8 581.800 37.0500   1
  10  -4  -8 599.180 35.4000   1
   4   8  10 576.960 39.4800   1
 -10  -4   8 548.910 36.2700   1
   4  -8 -10 567.890 36.0800   1
 -10   4   8 541.130 40.4700   1
  -8  -4  10 595.680 39.3000   1
  -4  -8 -10 561.810 38.4600   1
   8   4  10 563.960 32.9700   1
  -4 -10  -8 613.640 39.2700   1
   8  -4 -10 572.230 40.1900   1
   4 -10   8 654.430 44.2500   1
  10  -4   8 537.300 77.1500   1
   4 -10   8 596.570 59.7600   1
  10  -8  -4 521.130 40.8500   1
   8  10   4 531.730 34.2300   1
 -10  -8   4 593.390 33.9400   1
  -8 -10  -4 609.560 35.7100   1
  10  -8   4 688.100 51.2800   1
   8 -10   4 615.900 50.4900   1
 -10   8  -4 538.610 59.4300   1
 -10  -8   4 554.800 54.6200   1
  -8  10  -4 572.500 60.3900   1
  10   8   4 540.610 32.6400   1
  -8 -10   4 520.910 45.6000   1
  10  -8   4 474.110 40.2000   1
   8 -10   4 593.780 51.3500   1
 -10   8   4 517.050 36.3900   1
  -8  10   4 484.930 43.6300   1
   0 -12   6 63.2300 45.7700   1
   8 -10  -4 540.230 41.6000   1
 -12   6   0 42.9400 42.9400   1
  -6  12   0 52.9600 43.4600   1
  12  -6   0 47.2500 22.7000   1
   6 -12   0 34.5100 24.2100   1
   0  12   6 33.5100 31.1100   1
  12   0  -6 50.2500 24.6300   1
   0   6  12 57.0300 33.4600   1
  -6   0  12 72.9500 23.6100   1
   0  -6 -12 51.7900 22.4900   1
   6   0 -12 77.8500 29.4900   1
 -12   6   0 91.2100 37.3600   1
   0 -12   6 107.430 37.8400   1
  -6  12   0 130.470 33.0700   1
   6  12  -2 1027.73 69.5100   1
  12  -2   6 1127.79 70.8400   1
  12   6   2 1138.91 65.1900   1
 -12   6  -2 1153.18 67.0700   1
  -2 -12   6 1130.71 70.1400   1
  -6  12  -2 1259.26 73.5800   1
   2 -12   6 1157.44 71.4700   1
 -12   6   2 1123.33 56.6800   1
  -6  12   2 1081.09 57.6600   1
  12  -6   2 1051.62 58.2800   1
   6 -12   2 1061.54 62.1900   1
   6  12   2 1045.81 46.8100   1
  -6 -12   2 1054.63 49.2400   1
   6 -12  -2 1102.57 58.8400   1
  12  -6  -2 1035.69 48.3400   1
 -12   2   6 1121.75 50.9100   1
  -2  12   6 1046.35 45.4200   1
   2  12   6 1035.02 49.2000   1
 -12  -2   6 1076.19 46.5800   1
   2 -12  -6 1112.39 53.5200   1
  -6 -12  -2 1034.79 47.4400   1
  12  -2  -6 1020.36 47.9200   1
  -2 -12  -6 1064.96 47.2800   1
  -2   6  12 1013.13 43.3900   1
  -6   2  12 1054.07 43.9900   1
   2   6  12 981.040 48.2500   1
  12   2  -6 1014.76 44.1400   1
  -6  -2  12 1046.54 47.3200   1
   2  -6 -12 999.640 52.4200   1
  12   6   2 910.080 40.0100   1
   6  -2 -12 1008.79 43.0800   1
  -2  -6 -12 982.610 43.4000   1
  -6  12  -2 1043.04 59.0600   1
   6  12  -2 996.150 52.2600   1
  -2 -12   6 1026.26 60.3400   1
   2 -12   6 962.040 57.0900   1
  -9  -9   5 2649.56 89.0200   1
   3  13  -3 1842.84 64.9700   1
  13  -3   3 1864.62 75.9300   1
  -3  13  -3 1716.69 63.5200   1
  -3  -3  13 1749.10 55.7900   1
   3  -3 -13 1739.02 61.3400   1
   3   3  13 1667.07 58.8200   1
  -3   3  13 1745.56 62.9000   1
  13   3  -3 1719.72 66.3500   1
  -3 -13  -3 1745.53 64.3700   1
  13  -3  -3 1725.60 62.5700   1
   3 -13  -3 1790.33 62.7100   1
   3  13   3 1704.72 60.2600   1
  -3  13   3 1711.34 59.2000   1
  -3 -13   3 1742.62 78.1800   1
 -13   3   3 1744.08 64.6500   1
   3 -13   3 1694.20 76.0900   1
 -13  -3   3 1697.44 69.9600   1
  13  -3   3 1745.60 75.4500   1
  13   3   3 1785.96 79.1800   1
   3  13  -3 1834.43 82.5200   1
 -13   3  -3 1516.08 90.4100   1
  -3  13  -3 1581.72 79.2300   1
   9  -5   9 2381.02 117.390   1
   5  -9   9 2415.03 123.230   1
  -9  -9   5 2268.00 107.480   1
   9  -9   5 2274.42 84.2700   1
  -9   9   5 2365.16 74.0200   1
   9  -9  -5 2387.84 82.4100   1
  -5   9   9 2259.58 65.6300   1
  -9   5   9 2338.91 66.7900   1
   9   9   5 2421.88 69.7500   1
   5  -9  -9 2412.36 90.8400   1
   5   9   9 2463.65 69.7200   1
   9  -5  -9 2412.75 78.4800   1
  -9  -5   9 2450.84 71.1600   1
  -5  -9  -9 2651.14 81.1800   1
   9   5   9 2578.65 71.6400   1
  -9  -9  -5 2609.78 82.0600   1
   9  -9   5 2572.70 85.7500   1
   8  -8  -8 28152.9 468.870   1
   8   8   8 28638.9 497.940   1
   8  -8   8 29760.9 611.630   1
  -8   8   8 28552.8 502.740   1
  -5  -1  13 771.740 38.1500   1
 -11  -7   5 2454.37 85.9000   1
   7 -11   5 2410.72 92.2700   1
  13   1   5 749.290 68.4500   1
  -1  13  -5 634.090 77.1500   1
   1  13  -5 760.310 79.6200   1
 -11   7  -5 2312.35 110.680   1
  -7  11  -5 1992.64 102.750   1
   1  13   5 699.730 38.0700   1
  -5 -11   7 2677.54 122.180   1
  11  -5   7 2506.55 115.210   1
   5 -11   7 2270.39 91.9900   1
  -7 -11   5 2548.54 102.710   1
  11  -7   5 2265.66 85.5700   1
   7 -11   5 2379.61 91.0000   1
 -11   7   5 2445.56 74.8600   1
  -7  11   5 2505.86 79.4200   1
  -5  11   7 2552.96 74.6500   1
 -11   5   7 2249.33 70.7000   1
  11  -7  -5 2419.38 77.6900   1
   7  11   5 2337.82 66.5900   1
   5  11   7 2474.30 68.4400   1
   5 -11  -7 2329.95 84.6700   1
  -7   5  11 2508.66 73.4600   1
  -5   7  11 2478.11 75.7000   1
  11  -5  -7 2447.09 82.6900   1
 -11  -5   7 2293.56 69.0900   1
  -5 -13  -1 788.420 46.4400   1
   1 -13  -5 776.240 47.4000   1
  -1 -13  -5 747.040 39.5200   1
  13  -1  -5 773.400 42.2700   1
  13   5  -1 810.350 45.2000   1
  13   1  -5 765.810 39.5600   1
  -1   5  13 720.760 44.7300   1
   1   5  13 779.310 38.7300   1
  -5   1  13 722.460 37.5700   1
  11  -7   5 2295.93 82.7100   1
   1  -5 -13 725.670 37.4500   1
   5  -1 -13 760.120 42.8900   1
  -1  -5 -13 752.940 43.6700   1
 -13   5   1 784.230 48.5700   1
  -5  13  -1 845.190 55.9300   1
   5  13  -1 828.730 50.9300   1
  -5 -11  -7 2426.44 80.1100   1
   7  -5 -11 2463.93 81.9000   1
   5  -7 -11 2302.70 79.3000   1
   5 -11   7 2277.89 96.5400   1
 -11  -7   5 2336.02 73.1100   1
  -5 -11   7 2456.79 95.3700   1
  11   5   7 2342.68 70.1400   1
  -5  -7 -11 2367.41 72.7600   1
  -7  -5  11 2448.29 68.1700   1
   7   5  11 2303.92 66.6100   1
  11   7   5 2402.82 68.8600   1
  -7 -11  -5 2456.52 78.8100   1
   5   7  11 2270.84 65.9000   1
  -1 -13   5 676.260 50.5900   1
  13  -1   5 797.140 65.6200   1
 -13   5  -1 611.290 49.6300   1
   5  13  -1 681.650 53.2800   1
  -1  13   5 725.820 39.5600   1
  -5  13  -1 692.770 48.7100   1
   1 -13   5 728.600 55.0900   1
 -13   5   1 629.650 42.6300   1
  -5  13   1 774.280 53.0800   1
   5  13   1 657.960 38.2600   1
  13  -5   1 713.440 45.6400   1
  13   5   1 743.430 43.1600   1
   5 -13   1 707.480 48.8400   1
 -13   1   5 732.970 43.2200   1
  13  -5  -1 717.210 45.5500   1
 -13  -1   5 718.090 36.8500   1
  -5 -13   1 723.910 41.3600   1
   5 -13  -1 770.600 43.2000   1
   0   0  14 27529.3 448.400   1
  14   0   0 28513.7 519.440   1
   0 -14   0 27151.0 481.030   1
   0  14   0 28583.2 523.830   1
 -14   0   0 28679.9 566.810   1
  12  -6   4 710.470 48.5300   1
  -6  12  -4 703.730 54.6900   1
  12   4  -6 709.130 36.4700   1
  12   6   4 638.780 33.7400   1
   6   4  12 703.400 36.7900   1
  -6  -4  12 668.440 41.3000   1
   6  -4 -12 724.430 43.3700   1
   4  -6 -12 761.510 45.0700   1
  -4 -12  -6 790.510 42.4700   1
  -4  12   6 815.560 48.6900   1
 -12  -6   4 816.390 40.3400   1
 -12   4   6 850.520 47.3200   1
  -6  12   4 922.390 52.3100   1
 -12   6   4 839.060 50.0800   1
  -6 -12   4 817.360 44.6300   1
   6 -12   4 824.150 56.0900   1
  12  -6   4 900.020 58.3200   1
   4 -12   6 795.620 52.1800   1
  -4 -12   6 869.570 55.4700   1
  12  -4  -6 853.940 47.6300   1
   4 -12  -6 822.090 48.2000   1
   4   6  12 725.350 43.2000   1
 -12  -4   6 747.020 38.4600   1
  12  -6  -4 788.170 44.5200   1
   4  12   6 773.520 42.5900   1
   6 -12  -4 779.520 44.9800   1
  12  -4   6 940.370 69.5300   1
  -6  12  -4 904.710 75.0200   1
 -12   6  -4 905.420 68.2800   1
  -4  12  -6 828.290 68.2000   1
  -6 -12  -4 761.780 41.1300   1
  -6   4  12 681.990 44.1300   1
  -4   6  12 693.960 44.7600   1
  -4 -12   6 740.130 50.0000   1
   4 -12   6 642.500 43.6200   1
   6  12   4 821.530 42.5300   1
   6  -8  10 5570.63 188.500   1
  -8  10  -6 5785.38 165.660   1
 -14   2   0 5925.36 164.100   1
  14  -2   0 6478.21 159.650   1
   0  14  -2 6001.97 152.230   1
  -2  14   0 6366.59 144.360   1
   2  14   0 6049.98 138.950   1
  14   0   2 6324.83 155.090   1
   0  14   2 6256.87 135.270   1
   0 -14   2 6529.32 154.850   1
   2 -14   0 6953.43 156.140   1
  14   2   0 6665.33 157.010   1
  -2 -14   0 6734.75 151.660   1
   0 -14  -2 6942.39 157.860   1
  14   0  -2 6714.14 145.760   1
   0   2  14 6914.37 150.370   1
  -2   0  14 6861.66 142.070   1
 -10  10   0 22276.8 386.840   1
  10   0 -10 22277.3 387.110   1
 -10 -10   0 21868.5 383.360   1
   0 -10 -10 21373.7 378.040   1
 -10   0  10 21842.0 367.850   1
   0  10  10 21254.2 352.390   1
  10 -10   0 20970.2 369.190   1
 -10  10   0 21295.0 374.360   1
  10  10   0 20965.8 436.620   1
 -14  -2   0 5842.10 178.630   1
  -6   8  10 5874.13 127.500   1
  -8 -10   6 6442.49 161.060   1
   8 -10   6 6029.15 149.430   1
  10  -8   6 6344.51 154.180   1
 -10  -8   6 6528.69 165.070   1
   6 -10   8 6299.32 161.250   1
  -6  -8 -10 6328.31 148.710   1
  -8  -6  10 5658.29 121.990   1
  10   6   8 6021.67 125.670   1
 -10  -8   6 5854.16 128.580   1
  -8 -10  -6 6265.31 142.620   1
  -6 -10  -8 6224.58 141.550   1
   8   6  10 6171.22 127.930   1
 -10  -6   8 6122.68 139.450   1
  10   8   6 6080.31 130.670   1
   6   8  10 6014.08 124.550   1
   8  -6 -10 6120.40 139.140   1
   6  -8 -10 6029.49 140.550   1
  10  -6  -8 5831.73 137.170   1
   6  10   8 6068.92 128.420   1
   8  10   6 6255.53 134.520   1
  -8   6  10 6058.50 129.170   1
  10  -8  -6 6122.48 149.860   1
   8 -10  -6 6185.59 145.970   1
  -6  10   8 5805.44 127.630   1
 -10   6   8 5997.89 132.760   1
 -10   8   6 6078.10 134.220   1
  -8  10   6 6130.06 130.750   1
   8 -10   6 6031.02 181.230   1
  10  -8   6 6069.09 172.760   1
   6 -10   8 5793.33 193.200   1
  10  -6   8 6092.93 193.120   1
  -8 -10   6 5933.06 190.650   1
  -3  13  -5 -6.0600 64.5200   1
 -13   5  -3 87.3100 60.9500   1
  -5  13  -3 -14.430 53.0500   1
  -3 -13   5 11.5600 35.2200   1
   3 -13   5 2.48000 39.3200   1
  13  -5   3 11.0800 24.7500   1
  -3  13   5 23.4800 24.5600   1
   3 -13  -5 14.1100 32.1200   1
 -13   3   5 3.05000 30.3300   1
  -9 -11  -1 16119.4 286.830   1
   5 -13  -3 61.3500 33.0300   1
  13  -3  -5 41.1200 28.0900   1
  -3 -13  -5 15.4900 26.7300   1
  -5   3  13 -5.9800 32.2100   1
   9 -11  -1 16088.0 313.020   1
   3   5  13 -4.6300 22.2500   1
   3  -5 -13 38.7900 30.8700   1
  -5  -3  13 45.8500 22.3600   1
   9  11  -1 15921.3 346.210   1
  -1 -11   9 16541.7 393.070   1
   1 -11   9 16973.5 381.200   1
  -9  11  -1 16287.4 307.210   1
 -11   9  -1 15972.6 301.980   1
  -9  11   1 16416.5 309.910   1
 -11   9   1 16450.6 309.300   1
   9  11   1 16544.1 306.940   1
   9 -11   1 16925.7 330.990   1
  11  -9   1 16679.0 326.910   1
   5  -3 -13 15.2100 21.3000   1
  11  -9  -1 16443.4 302.350   1
  -1  11   9 16028.1 283.570   1
  -9 -11   1 16534.7 293.550   1
 -11   1   9 16684.6 295.420   1
   5   3  13 6.05000 31.5500   1
   1  11   9 16465.2 282.970   1
 -11  -1   9 17248.8 309.470   1
  -1   9  11 16673.0 287.510   1
  -9   1  11 17039.9 298.670   1
   1   9  11 16154.3 277.850   1
   1 -11  -9 16566.7 312.170   1
  -9  -1  11 16015.5 277.500   1
   3  13   5 33.6900 21.7300   1
  -1 -11  -9 16768.3 315.050   1
  11  -1  -9 17136.2 306.720   1
   1  -9 -11 16629.2 305.420   1
  -1  -9 -11 16635.5 293.470   1
   9  -1 -11 16022.7 282.790   1
  11   1  -9 17239.2 316.480   1
   9   1 -11 15892.6 282.400   1
   1 -11   9 16392.3 306.530   1
 -11   9  -1 16846.8 309.390   1
  11   9  -1 16874.6 309.100   1
  -9  11  -1 16387.2 294.300   1
   9  11  -1 16836.2 307.500   1
 -11   9   1 17244.1 316.470   1
  13  -5  -3 9.70000 20.3300   1
  -5  13  -3 134.580 44.9500   1
 -10  10  -2 13657.0 261.600   1
  10  10  -2 13661.4 257.350   1
 -10 -10  -2 13602.3 253.470   1
  10   2 -10 13419.0 253.010   1
  -2 -10 -10 13823.7 265.490   1
  10  -2 -10 13449.7 255.610   1
   2 -10 -10 13880.7 270.190   1
 -10  -2  10 13488.1 249.740   1
 -10   2  10 13346.8 239.300   1
  -2  10  10 13324.0 239.540   1
  14  -2  -2 6606.67 151.750   1
   2  10  10 13632.4 242.110   1
  -2 -14  -2 6561.53 162.220   1
  14   2  -2 6490.77 156.390   1
   2 -10  10 13539.2 319.760   1
 -10  10  -2 12589.2 254.650   1
 -10  10   2 13595.5 254.810   1
  10  10   2 13337.5 245.320   1
  10 -10  -2 12894.7 260.650   1
 -10 -10   2 14047.0 274.930   1
   2   2  14 6303.28 129.320   1
   2  14  -2 6778.55 168.830   1
  -2  -2  14 6347.03 132.750   1
  14   2   2 6149.17 148.830   1
 -14   2   2 6048.40 146.830   1
  -2  14  -2 6404.47 144.540   1
   2  14  -2 6108.02 138.500   1
  14  -2   2 6447.82 166.080   1
  -2   2  14 6230.04 127.560   1
 -14   2  -2 6741.87 189.150   1
  -2  14  -2 6583.25 164.930   1
 -14  -2   2 6794.10 176.920   1
 -14   2   2 6562.95 159.460   1
  14   2   2 6838.14 170.010   1
  14  -2   2 6725.46 163.920   1
  -2  14   2 6693.74 146.120   1
   2  14   2 6849.02 145.620   1
   2 -14   2 6702.75 169.920   1
  -2 -14   2 6419.27 170.280   1
   2 -14  -2 6756.62 156.580   1
  -8  12   0 11268.3 220.600   1
   0  12   8 12629.1 229.690   1
  12  -8   0 11827.5 229.250   1
   0   8  12 12142.8 220.540   1
   0 -12  -8 12531.4 239.290   1
  -8   0  12 11801.6 215.640   1
  12   0  -8 12218.0 238.320   1
   0  -8 -12 12276.2 238.410   1
   8   0 -12 11906.8 227.470   1
   0 -12   8 12156.9 244.040   1
  -8 -12   0 12495.5 240.390   1
   8  12   0 12621.5 252.950   1
 -12   8   0 12197.2 247.610   1
  -8  12   0 12850.1 240.650   1
 -12   8   0 12891.5 256.750   1
 -12   0   8 12175.7 232.310   1
   0 -12   8 12001.4 279.440   1
  11   9   3 5337.59 118.830   1
  -3   9  11 5609.42 122.410   1
   3  11   9 5059.21 110.870   1
  -9   3  11 5273.02 118.630   1
 -11  -3   9 5752.96 126.560   1
   3 -11  -9 5492.78 134.970   1
 -11   9   3 5442.52 131.340   1
   3   9  11 5375.19 115.770   1
  11  -3  -9 5522.32 133.470   1
   3  -9 -11 5430.26 130.440   1
  -3 -11  -9 5455.91 126.510   1
  -9  -3  11 5545.23 118.370   1
   9  -3 -11 5638.61 127.210   1
  -9 -11  -3 5575.72 125.690   1
  -3  -9 -11 5662.51 140.990   1
   9   9   7 8487.87 165.920   1
   9  -9  -7 8399.96 177.540   1
  -9   9   7 8585.46 169.460   1
   9  -9   7 7777.83 209.390   1
   3 -11   9 5519.80 152.420   1
  -9  11  -3 5288.28 122.020   1
  11   3  -9 5636.70 130.790   1
   9  -9   7 8352.83 192.500   1
  -3 -11   9 5642.06 191.390   1
   3 -11   9 5463.24 166.660   1
  -9  11  -3 5216.55 145.180   1
 -11   9  -3 5307.59 142.080   1
  11  -9   3 5255.75 141.900   1
   9 -11   3 5420.45 142.460   1
  -9  11   3 5446.60 131.530   1
  -9  -9   7 8594.23 195.430   1
  -9 -11   3 5286.46 126.160   1
   9  11   3 5450.77 123.120   1
   9 -11  -3 5649.78 142.630   1
  11  -9  -3 5459.16 134.570   1
  -3  11   9 5318.05 117.000   1
 -11   3   9 5615.99 125.060   1
   9  -7  -9 8680.35 192.800   1
  -9  -7   9 8388.44 170.540   1
  -7   9   9 8357.37 163.170   1
  -9   7   9 8621.74 169.050   1
  -7  -9  -9 8484.50 185.520   1
   9   7   9 8331.19 159.420   1
   7   9   9 8768.75 171.150   1
   9  -7   9 9313.53 255.290   1
   7  -9  -9 8477.28 176.820   1
  -2 -12   8 5902.34 148.610   1
   2 -12   8 5882.35 148.870   1
 -14   0   4 2298.63 76.0900   1
  14  -4   0 2381.12 81.1800   1
   0  14   4 2340.11 68.0800   1
   4 -14   0 2323.19 80.4400   1
  12  -2   8 5939.33 182.230   1
  -2 -12   8 5497.01 189.290   1
   2 -12   8 5347.48 168.350   1
  -4 -14   0 2440.28 91.3900   1
  14   4   0 2438.75 83.1700   1
   0 -14  -4 2413.44 78.9500   1
  14   0  -4 2463.09 79.9300   1
   0   4  14 2455.35 71.5800   1
  -4   0  14 2372.91 69.9600   1
 -12  -2   8 5687.29 128.320   1
   0  -4 -14 2246.20 78.2500   1
 -14   4   0 2213.97 75.2600   1
  -2  12   8 5517.65 121.900   1
 -12   2   8 5892.90 127.820   1
   2  12   8 5473.61 118.680   1
   0  14  -4 2329.26 77.8900   1
  12  -2  -8 5578.78 133.940   1
  -2   8  12 5747.17 123.010   1
   2 -12  -8 5683.52 148.340   1
  -8   2  12 5433.44 116.550   1
  -2 -12  -8 5934.24 139.460   1
   2   8  12 5415.73 115.200   1
  -8  -2  12 5843.02 129.630   1
   2  -8 -12 5789.98 145.620   1
   8  -2 -12 5566.82 132.380   1
  12   2  -8 5824.21 135.250   1
  -2  -8 -12 5502.65 134.930   1
   0  14  -4 2293.34 92.6100   1
 -14   4   0 2517.86 87.8100   1
  14   0   4 2619.82 105.410   1
   4  14   0 2327.41 73.9000   1
  -4  14   0 2309.95 74.7900   1
   0 -14   4 2380.46 81.5100   1
  -8  12  -2 5986.79 136.330   1
   8  12  -2 6077.47 144.580   1
   8  12  -2 5595.72 177.780   1
 -12   8  -2 5625.97 129.050   1
 -12   8  -2 5274.16 139.790   1
  -8  12  -2 5286.95 141.200   1
 -12   8   2 5504.92 135.060   1
  -8  12   2 5444.83 127.480   1
  12  -8   2 5286.65 141.340   1
   8 -12   2 5362.00 143.020   1
  12  -8  -2 5558.48 141.170   1
  -8 -12   2 5587.25 132.370   1
  12   8   2 5743.34 140.330   1
  -8 -12  -2 5717.56 136.850   1
   8  12   2 5446.43 124.050   1
  12  -6   6 825.100 52.1300   1
   6 -12   6 639.960 52.3400   1
  -6 -12   6 751.520 50.0300   1
   4 -10  10 845.410 83.6900   1
 -10  10  -4 744.670 64.1900   1
  10 -10   4 983.190 61.0200   1
 -10 -10   4 903.880 50.2900   1
 -10  10   4 1002.24 47.0600   1
  10 -10  -4 932.160 53.4300   1
  -4  10  10 1000.05 49.0600   1
 -10   4  10 928.260 47.0300   1
  10  10   4 898.680 39.9900   1
   4  10  10 918.590 41.2200   1
   4 -10 -10 959.800 47.3300   1
  10  -4 -10 1032.94 51.1800   1
 -10  -4  10 927.210 40.2700   1
  -4 -10 -10 959.010 43.7900   1
 -10 -10  -4 987.720 42.7200   1
  -6  12  -6 539.520 61.9100   1
  -6 -12   6 537.070 43.4200   1
  12  -6   6 568.990 48.5100   1
   6 -12   6 484.800 52.2400   1
 -12   6   6 578.330 43.4700   1
  -6  12   6 633.030 45.7700   1
   6  12   6 651.490 38.0800   1
   6 -12  -6 643.590 39.3100   1
  12  -6  -6 733.450 39.2700   1
 -12  -6   6 686.530 38.8800   1
  -6 -12  -6 708.170 36.0300   1
  12   6   6 710.140 37.0300   1
  -2  14  -4 48.7800 62.0300   1
   4  14  -2 40.7800 46.0800   1
  -4  14  -2 29.5300 49.2400   1
  -2 -14   4 17.4000 32.4800   1
  14  -4   2 7.00000 29.6700   1
  -4  14   2 24.2700 27.8200   1
   4  14   2 12.7500 30.7700   1
   4 -14   2 32.4300 24.3600   1
   2  14   4 58.1900 30.2700   1
   4 -14  -2 3.48000 23.4400   1
  14  -4  -2 30.7300 20.6800   1
   2 -14  -4 62.6600 29.9700   1
  -2   4  14 43.1900 33.7600   1
  -4   2  14 32.4000 23.8800   1
   2   4  14 -6.9100 30.7400   1
  -4  -2  14 8.18000 22.7000   1
   4   2  14 -0.7800 30.7100   1
   2  -4 -14 48.7900 30.0200   1
   4  -2 -14 25.0700 28.3100   1
   2  14  -4 34.5400 27.4400   1
  -4  14  -2 13.1000 29.7200   1
   4  14  -2 53.4600 27.2000   1
  -6   6  12 662.310 43.6500   1
   6  -6 -12 764.520 45.7900   1
   6   6  12 645.150 41.2300   1
  -6  -6  12 766.950 41.5800   1
  -7   1  13 3999.44 96.9700   1
  -1   7  13 4188.21 96.6000   1
  13  -1  -7 3956.65 100.210   1
  -1 -13  -7 4363.16 115.770   1
   1 -13  -7 4265.24 125.720   1
  -7 -13  -1 4284.22 109.490   1
 -13  -1   7 4192.38 109.010   1
   1  13   7 4270.09 102.040   1
  -7 -13   1 4088.80 106.740   1
 -13   1   7 4311.64 106.250   1
  -1  13   7 4193.84 98.1600   1
   7 -13  -1 4148.04 123.280   1
   7 -13   1 4224.36 115.840   1
  13  -7   1 3973.53 111.740   1
   7  13   1 4226.36 108.680   1
  -7  13   1 4237.93 104.860   1
 -13   7   1 4084.27 109.740   1
  -7  13  -1 4069.21 113.490   1
   1 -13   7 4112.19 125.690   1
  -1 -13   7 4023.28 129.720   1
  -7 -11  -7 1916.17 67.2800   1
   7   7  11 1918.26 61.8000   1
 -11  -7   7 1765.57 61.2800   1
   7  -7 -11 1973.23 68.1800   1
   7  11   7 1762.32 55.4600   1
  11  -7  -7 1776.66 64.9800   1
  -7   7  11 1713.90 56.9400   1
   7 -11  -7 1826.58 76.0700   1
  -7  11   7 1691.22 57.2400   1
 -11   7   7 1747.70 57.8300   1
   7 -11   7 1556.59 76.6700   1
  11  -7   7 1829.44 85.0900   1
  -7 -11   7 1684.38 90.2100   1
   7  13  -1 4562.36 114.650   1
  -5   5  13 412.980 40.4300   1
   5  -5 -13 347.730 29.4900   1
   5   5  13 365.420 30.1000   1
  -5  -5  13 394.160 37.2300   1
  13  -1   7 4386.14 163.020   1
   7  13  -1 4082.88 121.210   1
 -13   7  -1 3938.52 124.510   1
   1 -13   7 4057.65 117.620   1
  -1 -13   7 4307.77 118.160   1
 -13   7   1 4321.87 115.020   1
  -7  13  -1 4199.70 107.200   1
 -13   7  -1 4026.84 105.430   1
   7  -1 -13 4055.05 99.9300   1
  -1  -7 -13 4132.70 104.740   1
   1  -7 -13 4363.50 120.700   1
  13   1  -7 4185.09 106.940   1
   1   7  13 4016.46 92.9500   1
  11   7   7 1890.79 59.5500   1
  -7  -7  11 1867.70 62.4500   1
  11  -7   7 2080.59 74.9100   1
  -7 -11   7 2056.19 83.7800   1
   7 -11   7 1973.70 79.9800   1
  13  -7  -1 4136.85 120.380   1
  -7  -1  13 4175.15 100.660   1
  -5  13   5 419.660 43.1200   1
  13   5  -5 369.210 26.9600   1
  13  -5   5 384.990 35.5000   1
  13  -5   5 421.470 51.7900   1
   5  13   5 398.630 36.4600   1
 -13  -5   5 388.550 32.9000   1
   5 -13  -5 381.190 39.2300   1
  -5  13  -5 351.530 71.1300   1
  13  -5  -5 441.310 37.8000   1
  -5 -13  -5 395.640 29.7400   1
   5 -13   5 346.000 46.2800   1
  -5 -13   5 381.480 38.8900   1
 -13   5   5 369.800 38.8600   1
  -8  12  -4 601.020 53.7500   1
   4 -12   8 620.270 42.7600   1
  -4 -12   8 725.520 49.8400   1
  12  -8   4 646.730 50.0800   1
  12  -8   4 723.860 52.2800   1
   4 -12   8 703.360 66.0700   1
  -4   8  12 668.740 45.6800   1
   4 -12  -8 688.410 45.5300   1
  -8   4  12 712.540 44.8100   1
 -12  -4   8 668.880 37.6500   1
  12  -4  -8 699.760 37.5200   1
  12   8   4 660.550 36.1600   1
   4   8  12 649.370 40.7400   1
  -4 -12  -8 699.840 41.8900   1
  -8 -12  -4 638.080 37.5000   1
   4  -8 -12 668.090 37.1900   1
   8  -4 -12 634.180 41.3900   1
  -8  -4  12 684.080 40.2000   1
   8   4  12 654.090 41.6200   1
   4  12   8 643.890 35.1300   1
   8 -12  -4 671.010 39.6400   1
  12  -8  -4 671.660 42.0100   1
 -12   4   8 671.680 37.2800   1
  -4  12   8 698.810 45.6400   1
   8  12   4 662.690 37.3600   1
  -8  12   4 682.600 40.9400   1
 -12   8   4 699.050 46.7200   1
  -8 -12   4 724.010 44.4800   1
   8 -12   4 724.110 45.2100   1
  -8  12  -4 740.370 75.9500   1
  -4 -12   8 792.170 66.9200   1
 -12   8  -4 678.520 77.4700   1
  12  -4   8 798.090 65.3700   1
  -4  -8 -12 634.500 35.3400   1
  12   4  -8 640.430 35.7200   1
  -3 -13  -7 128.400 23.3600   1
   3   7  13 97.8700 33.4200   1
  13   7   3 113.800 22.1200   1
   3  -7 -13 126.060 32.7700   1
  -7  -3  13 133.930 31.4400   1
  13   3  -7 162.810 25.7500   1
   7  -3 -13 108.840 32.0400   1
  -3  -7 -13 113.810 31.3600   1
   7   3  13 154.100 25.9800   1
   7  13  -3 128.670 27.0800   1
  -7  13  -3 137.900 45.4600   1
  -3 -13   7 138.940 29.3500   1
 -13   7  -3 90.5000 59.4800   1
  13  -3   7 145.890 41.6500   1
   9  -5 -11 44.1100 30.0500   1
   5  -9 -11 18.9400 31.4800   1
   1  -1  15 11886.5 227.970   1
  -1  -1  15 12214.3 239.180   1
   1   1  15 11724.4 229.520   1
  -1   1  15 12010.0 233.660   1
   5   9  11 32.5600 31.1700   1
  11  -5  -9 24.7300 29.8400   1
  -9  11  -5 33.3400 47.7700   1
   5 -11  -9 50.1300 24.5400   1
   5  11   9 46.9000 28.9600   1
  -9   5  11 41.4500 25.2700   1
  -5   9  11 32.7300 33.4700   1
  11  -9  -5 48.0700 23.0700   1
   9 -11  -5 24.5300 31.7100   1
 -11   5   9 49.6600 23.3800   1
  -5  11   9 47.4900 25.1000   1
  -9  11   5 43.1500 35.6400   1
 -11   9   5 85.0600 26.6000   1
   9 -11   5 68.5900 41.6700   1
  11  -9   5 27.0800 41.9500   1
   5 -11   9 20.0200 41.8900   1
  -7  13  -3 23.1300 54.7500   1
  -3 -13   7 134.290 42.9400   1
   3 -13   7 133.770 48.6200   1
   5  -9  11 9.36000 48.6000   1
 -11   9  -5 -14.960 45.7900   1
   9 -11   5 74.6200 39.6300   1
  11  -9   5 52.9700 37.4900   1
   5 -11   9 56.9800 27.7500   1
  -5  -9 -11 46.1300 20.7600   1
   9   5  11 55.2600 28.8400   1
  -9 -11  -5 21.1500 22.4500   1
  11  -5   9 122.000 66.8000   1
  -5 -11  -9 46.0100 20.3700   1
  13  -7   3 58.5000 35.9200   1
 -13   7   3 102.290 28.5000   1
  -7  13   3 143.100 40.7800   1
  -7 -13   3 84.3100 23.9400   1
   7  13   3 97.2400 27.6100   1
 -13   3   7 99.9600 32.9700   1
   3 -13   7 128.610 29.9600   1
  -3  13   7 72.7600 36.1500   1
   7 -13  -3 85.5600 34.9700   1
  13  -7  -3 122.720 32.2000   1
   3  13   7 100.950 23.5700   1
 -13  -3   7 92.5900 25.9500   1
   3 -13  -7 123.900 32.5900   1
  13  -3  -7 103.780 29.3800   1
  -7 -13  -3 122.350 27.1500   1
  -7   3  13 108.350 33.1200   1
  -3   7  13 150.540 26.3700   1
   1 -15  -1 11850.5 255.510   1
  -1  15  -1 12517.2 247.360   1
   1  15  -1 12693.7 254.940   1
  -1 -15  -1 12387.0 255.970   1
  15   1  -1 12473.4 253.670   1
  15  -1  -1 12426.7 256.540   1
   1 -15   1 12041.9 272.760   1
  -1 -15   1 11936.3 252.950   1
  15   1   1 12362.5 253.900   1
  15  -1   1 12034.0 252.020   1
   1  15   1 11063.5 229.390   1
  -1  15   1 12081.2 239.930   1
  -1  15  -1 11865.4 248.100   1
   1  15  -1 11962.5 253.160   1
 -15   1   1 11934.9 263.350   1
 -15  -1   1 11963.2 277.810   1
 -15   1  -1 11717.1 278.830   1
 -15  -1  -1 11585.8 279.380   1
  -8 -10  -8 2568.46 82.7000   1
   8 -10  -8 2620.83 92.5600   1
  14  -4   4 91.2700 33.7800   1
   4  14  -4 78.7100 27.5400   1
  -4  14  -4 89.9200 31.4400   1
  -4  -4  14 89.2700 33.6400   1
  -4 -14  -4 93.2500 27.7700   1
  -4   4  14 37.3600 31.7100   1
   4   4  14 29.6500 33.2300   1
   4  -4 -14 51.6200 22.4700   1
  10  -8  -8 2477.40 79.8600   1
   8  -8  10 2481.44 112.300   1
  10  -8   8 2486.64 111.220   1
  -4  14  -4 72.4400 60.3500   1
   4 -14   4 93.6800 37.9400   1
  -4 -14   4 58.1200 31.4300   1
  -4  14   4 70.1000 37.3100   1
 -10   8   8 2486.95 76.2200   1
  -8  10   8 2436.24 75.4400   1
  -8   8  10 2339.41 68.3600   1
   8 -10   8 2212.68 92.9600   1
 -14   4   4 49.0600 33.1400   1
   4  14   4 41.5200 29.9600   1
   4 -14  -4 60.5000 24.1400   1
  14  -4  -4 27.9600 26.0300   1
 -10  -8   8 2565.75 76.7500   1
   8 -10   8 2658.67 91.1200   1
  10  -8   8 2599.64 95.0100   1
  -8 -10   8 2686.62 102.520   1
  10   8   8 2532.92 74.8700   1
   8   8  10 2536.69 72.3700   1
   8  -8 -10 2539.51 79.7000   1
   8  10   8 2507.86 71.7600   1
  14   0   6 1588.40 90.9100   1
  14  -6   0 1414.87 62.7400   1
  -6   0  14 1493.18 52.7200   1
   0 -14   6 1444.22 64.5400   1
  -6  14   0 1559.65 69.8000   1
 -14   6   0 1484.28 66.1500   1
   0  -6 -14 1449.10 54.3400   1
   0   6  14 1494.89 52.5000   1
  14   0  -6 1418.72 53.9400   1
   0 -14  -6 1561.20 67.9500   1
   0  14   6 1494.43 58.6100   1
   6 -14   0 1504.41 76.6700   1
  -6 -14   0 1549.02 62.2800   1
 -14   0   6 1462.74 53.3900   1
  -6  14   0 1533.92 68.1900   1
   0 -14   6 1361.55 67.7600   1
   6  14   0 1600.60 67.6400   1
 -14   6   0 1341.75 69.8200   1
  -3  15   1 1077.41 58.4200   1
 -15   1   3 1060.27 52.8000   1
  -1  15   3 1095.84 54.7100   1
   1  15  -3 980.610 60.2200   1
   3  15  -1 1030.34 60.4700   1
 -15   3   1 1068.70 62.2000   1
  -3  15  -1 1042.11 63.1500   1
  15   1   3 1034.00 57.0500   1
 -15  -1   3 1094.64 54.5400   1
  15  -1   3 1039.84 52.2800   1
  -1 -15   3 947.550 53.7400   1
   1  15   3 1100.12 52.7400   1
  15  -3   1 1133.85 55.9200   1
  15   3   1 1110.04 57.9100   1
   3 -15   1 1134.83 62.2500   1
  -3 -15   1 1101.52 58.8000   1
  15  -3  -1 1056.58 47.2000   1
   3 -15  -1 1081.91 58.2900   1
  -3 -15  -1 1152.08 57.5700   1
   1 -15  -3 1149.01 57.3800   1
  15   3  -1 1127.97 49.2600   1
  15  -1  -3 1153.58 50.3200   1
  -1 -15  -3 1104.05 49.7400   1
  15   1  -3 1136.46 51.8600   1
  -1   3  15 1123.85 45.9500   1
  -3   1  15 1173.15 50.9600   1
   1   3  15 1103.13 45.2800   1
  -3  -1  15 1095.84 45.3400   1
   1 -15   3 919.950 47.3800   1
  -1  -3  15 1188.17 52.9300   1
 -15  -1   3 1109.48 55.8100   1
 -15   3   1 1210.80 58.6600   1
  15   1   3 1168.10 59.7300   1
   1  15  -3 1153.63 53.3100   1
  -1  15  -3 1211.28 54.5200   1
 -15   1   3 1195.47 60.1100   1
  15  -1   3 1182.68 59.1000   1
  -3  15  -1 1209.18 55.1800   1
   3   1  15 1273.34 54.1500   1
   3  15   1 1115.10 50.1100   1
 -15  -3   1 994.780 67.1400   1
 -15   3  -1 1146.66 76.6800   1
  -1  15  -3 1113.69 74.7400   1
   6  -2 -14 301.560 35.6500   1
   2  -6 -14 243.510 27.3700   1
  -6  -2  14 265.160 34.5300   1
   2   6  14 258.380 28.7200   1
  14   2  -6 260.420 27.4000   1
 -10 -10   6 212.830 32.1900   1
  10 -10   6 177.010 41.0700   1
 -10  10  -6 204.210 68.6500   1
  10  -6  10 227.460 70.1200   1
   6 -10  10 199.190 68.0500   1
 -10 -10   6 224.440 41.8100   1
  10 -10   6 175.660 46.8900   1
 -10  10   6 196.610 29.3300   1
 -10   6  10 184.410 27.2200   1
  10 -10  -6 235.690 36.1500   1
  10  10   6 204.570 26.7600   1
  -2  14  -6 277.010 67.0600   1
  14   2   6 337.250 59.8100   1
   6  14  -2 360.840 42.3800   1
 -14   6  -2 409.760 63.6200   1
   6 -10 -10 236.290 35.7600   1
  14  -2   6 271.530 41.1300   1
  -6  14  -2 323.090 56.2700   1
  -2 -14   6 254.970 44.7100   1
   2 -14   6 260.920 44.9600   1
  14   6   2 317.430 33.7500   1
  -2  -6 -14 260.270 33.6900   1
   6  14   2 285.990 34.8800   1
  14  -6   2 294.200 36.7300   1
   6 -14   2 271.220 31.8700   1
  -6 -14   2 274.130 29.9900   1
 -14   2   6 287.460 35.9600   1
  -2  14   6 335.340 39.2600   1
 -14  -2   6 293.360 31.1100   1
   2  14   6 291.200 36.4100   1
   6  10  10 195.990 31.3600   1
  10  -6 -10 189.090 25.9000   1
 -10  -6  10 219.620 28.2100   1
  14  -6  -2 302.590 33.4800   1
   6 -14  -2 242.890 29.5900   1
   2 -14  -6 300.740 30.9600   1
  -6 -14  -2 281.170 26.8900   1
  -2 -14  -6 271.980 35.6600   1
  14  -2  -6 273.950 32.0600   1
  -2   6  14 218.320 28.8700   1
  -6  14   2 309.890 42.7300   1
   6   2  14 322.980 36.1300   1
  -6  14  -2 284.920 36.0200   1
 -14   6   2 300.350 43.8100   1
   6  14  -2 276.600 31.5900   1
 -14   6   2 273.550 39.0500   1
   2 -14   6 298.270 44.6200   1
  10   6  10 145.600 30.4900   1
  -6 -10 -10 205.710 30.7700   1
  -6  10  10 206.510 28.2700   1
  -6   2  14 228.710 28.1000   1
  11  -1 -11 15148.5 290.290   1
   1 -11 -11 15041.2 304.850   1
   1  11  11 15288.0 285.780   1
  -1  11  11 15546.8 291.650   1
   1 -11  11 15134.4 379.120   1
  11   1 -11 15455.2 296.690   1
 -11  -1  11 15559.4 292.620   1
 -11   1  11 15576.7 295.890   1
  -1 -11 -11 15401.2 301.980   1
  -5  13   7 327.880 32.1400   1
 -13   5   7 298.160 38.0000   1
   7  13   5 335.180 32.7400   1
   5  13   7 325.070 34.0700   1
   7 -13  -5 318.340 31.2500   1
  13  -7  -5 328.520 29.3700   1
 -13  -5   7 339.830 30.0400   1
   5 -13  -7 314.910 31.0100   1
  13  -5  -7 319.680 36.1300   1
  -5   7  13 333.710 39.9600   1
  -7   5  13 332.070 38.4700   1
  -5 -13  -7 317.200 27.9600   1
  -7 -13  -5 346.240 32.3900   1
   5   7  13 339.170 29.4900   1
   5  -7 -13 404.550 36.7200   1
   7  -5 -13 311.370 29.1900   1
  13   7   5 354.380 30.0300   1
   7   5  13 352.710 37.0700   1
  -7  -5  13 338.990 29.3800   1
  13  -7   5 430.070 43.5500   1
   5 -13   7 374.960 47.4200   1
  -5 -13   7 324.300 38.8300   1
   9   9   9 862.830 39.4800   1
   9  -9  -9 749.450 40.0900   1
  -9   9   9 779.760 45.6800   1
   9  -9   9 725.870 73.3900   1
 -13  -7   5 324.900 27.6500   1
 -15   3  -3 193.080 63.2800   1
   3  15  -3 52.4500 37.2000   1
  -3  15  -3 88.0000 53.0700   1
  15   3   3 97.4400 30.1500   1
 -15  -3   3 85.3000 28.5900   1
  15  -3   3 122.090 26.6600   1
 -15   3   3 98.2400 25.7300   1
   3 -15   3 77.4200 36.5500   1
  -3  15   3 102.660 34.6200   1
   3  15   3 108.420 24.5600   1
  -3 -15   3 90.6800 23.6900   1
   3 -15  -3 109.680 25.6500   1
  15  -3  -3 135.320 29.4200   1
  -3 -15  -3 88.1000 22.2700   1
  15   3  -3 93.4600 21.4800   1
  -3   3  15 95.4800 33.9000   1
   3   3  15 89.7500 25.4900   1
  -3  -3  15 99.6600 25.7900   1
   3  -3 -15 111.330 31.8600   1
   3  15  -3 83.0600 39.5000   1
  -3  15  -3 105.440 45.1800   1
 -15   3   3 105.760 24.4300   1
  15  -3   3 87.4700 30.2200   1
 -11  11   1 15710.7 313.500   1
  11  11  -1 16331.6 323.170   1
 -11  11  -1 15553.6 301.720   1
 -11 -11  -1 15829.3 309.270   1
  11 -11  -1 14571.2 290.110   1
  11 -11   1 14379.6 309.310   1
 -11  11   1 14691.4 287.350   1
  11  11   1 14947.3 306.720   1
 -11  11  -1 14802.6 306.290   1
 -13   7  -5 246.550 53.4200   1
  -7  13  -5 236.390 51.9700   1
  13  -5   7 305.840 55.9600   1
  -5 -13   7 258.910 36.3300   1
   5 -13   7 316.860 48.2500   1
  13  -7   5 299.400 35.9900   1
  -7 -13   5 297.000 34.5000   1
   7 -13   5 262.030 44.7800   1
 -13   7   5 275.740 39.7200   1
  -7  13   5 304.980 41.0200   1
  -8  12  -6 549.060 62.3500   1
  -6 -12   8 895.740 71.1000   1
  12  -6   8 946.200 79.0500   1
  -8 -12   6 930.450 59.3500   1
   6 -12   8 863.500 67.0200   1
  12  -8   6 880.900 62.7400   1
   8 -12   6 751.510 62.6500   1
 -12   8   6 857.450 43.6600   1
  -8  12   6 791.090 42.0300   1
 -12   6   8 856.400 47.8200   1
  -6  12   8 897.530 49.9300   1
   8  12   6 878.860 42.9700   1
   8 -12  -6 736.250 46.3700   1
  12  -8  -6 870.790 48.3000   1
   6  12   8 849.710 44.5400   1
  -6   8  12 872.290 49.4300   1
  -8   6  12 780.610 39.8600   1
   6 -12  -8 807.850 46.2700   1
  12  -6  -8 759.620 40.3100   1
 -12  -6   8 795.220 40.0200   1
 -12  -8   6 824.390 40.2200   1
   6  -8 -12 802.870 41.0400   1
   6   8  12 852.020 43.5100   1
   8  -6 -12 730.390 44.1000   1
  12   8   6 796.980 39.6000   1
  -6 -12  -8 793.460 38.6600   1
  -8 -12  -6 742.080 36.7000   1
   8   6  12 746.280 37.1900   1
  -8  -6  12 801.270 43.5100   1
  12   6   8 814.490 40.1600   1
   6 -12   8 715.730 53.6200   1
  -6 -12   8 806.620 50.9900   1
  12  -8   6 775.140 47.4500   1
 -12  -8   6 790.240 48.2100   1
   8 -12   6 672.860 52.9300   1
   0 -10 -12 13594.3 285.530   1
  10  12   0 12209.3 275.830   1
 -10  12   0 14053.1 274.990   1
 -12  10   0 13289.8 267.610   1
   0 -12  10 13259.0 280.640   1
  10   0 -12 13271.6 263.610   1
   0 -12  10 12824.1 311.970   1
  12   0 -10 13732.3 269.870   1
   0 -12 -10 13251.2 263.860   1
 -10 -12   0 12462.6 244.470   1
 -10   0  12 13245.1 252.220   1
   0  10  12 12827.3 242.470   1
 -12   0  10 14091.0 273.970   1
   0  12  10 13061.8 251.190   1
  10 -12   0 11987.2 265.200   1
  12 -10   0 12202.8 251.440   1
 -10  12   0 12562.9 262.230   1
 -12  10   0 12956.8 270.710   1
   6   4  14 1741.84 56.8300   1
  14   6   4 1649.85 58.3200   1
   6  14  -4 1774.12 69.2400   1
  -6  14  -4 1643.83 71.4200   1
  14  -4   6 1701.15 69.1700   1
  14  -6   4 1780.07 83.2500   1
  -2  12  10 11378.0 224.070   1
   4 -14   6 1480.38 77.8200   1
 -10 -12   2 11954.0 254.320   1
   2 -12  10 11711.1 261.070   1
 -12  10  -2 10705.9 236.630   1
 -12  -2  10 11740.8 237.990   1
 -10  12  -2 11423.2 260.600   1
   2 -12  10 11455.1 287.170   1
  -2 -12  10 11471.3 306.100   1
   2  10  12 11898.1 227.080   1
   2 -12 -10 11203.2 235.230   1
 -10  -2  12 11700.2 230.350   1
  12  -2 -10 11255.2 240.700   1
   2 -10 -12 11638.7 250.830   1
   2  12  10 11907.2 233.200   1
  -2  10  12 11744.0 227.170   1
 -10   2  12 11622.0 227.400   1
  -2 -12 -10 12045.6 255.220   1
 -12   2  10 11735.6 233.090   1
 -10 -12  -2 11974.7 250.510   1
  -2 -10 -12 11713.2 243.170   1
  10  -2 -12 11285.3 242.280   1
  12   2 -10 11918.9 239.730   1
  10   2 -12 11253.9 222.030   1
  -2 -12  10 11331.1 247.560   1
 -12  10  -2 11612.8 244.740   1
  12 -10   2 10501.3 243.410   1
   6  -4 -14 1661.22 66.0500   1
  14   4  -6 1675.57 59.7900   1
  -6  -4  14 1707.39 60.2600   1
  10  12  -2 12181.3 246.900   1
 -10  12  -2 11889.2 244.370   1
 -12  10   2 11619.7 234.230   1
 -10  12   2 11472.8 230.830   1
  10  12   2 11606.6 233.390   1
  12  10   2 11744.4 244.100   1
  12 -10  -2 11224.3 243.110   1
  10 -12  -2 10862.1 227.600   1
  -4  14  -6 1919.56 102.100   1
 -14   6  -4 1886.11 100.560   1
  14   6   4 1988.65 103.340   1
  -6  14  -4 1896.70 85.8300   1
  14  -4   6 1825.03 83.8700   1
  -4 -14   6 1715.95 82.5000   1
   4 -14   6 1837.08 91.6500   1
  14  -6   4 1722.99 77.2300   1
 -14  -6   4 1812.94 73.6900   1
   6 -14   4 1738.51 70.4300   1
  -6 -14   4 1804.41 71.2800   1
 -14   6   4 1910.40 70.1700   1
  -6  14   4 1866.83 67.0000   1
 -14   4   6 1797.50 65.2300   1
   6  14   4 1752.92 57.4700   1
  -4  14   6 1761.89 64.6900   1
 -14  -4   6 1874.87 67.6300   1
   4  14   6 1756.79 60.5900   1
   6 -14  -4 1721.24 70.8000   1
  14  -6  -4 1716.78 67.4500   1
   4 -14  -6 1701.77 65.6000   1
  14  -4  -6 1794.37 67.8100   1
  -6 -14  -4 1886.46 73.3900   1
  -4 -14  -6 1716.43 73.2400   1
  -6   4  14 1776.74 57.8700   1
  -4   6  14 1698.83 56.3300   1
   4   6  14 1805.31 61.8100   1
   4  -6 -14 1606.01 66.1600   1
   5  15  -1 59.9000 37.5400   1
  -3 -11 -11 8397.86 192.320   1
  -5  15  -1 39.6600 43.3200   1
  -9  11   7 199.100 29.6000   1
  -7  11   9 162.610 35.1400   1
 -11   7   9 150.740 27.6200   1
  -9   7  11 157.520 36.5700   1
  -7   9  11 138.450 27.1000   1
 -11  11  -3 8744.18 194.040   1
   3 -11 -11 8289.79 187.900   1
 -11  -3  11 8229.81 182.650   1
   3  11  11 8125.33 168.510   1
 -11   3  11 8254.31 174.550   1
  -3  11  11 8273.63 168.450   1
 -11 -11   3 8975.58 234.680   1
  11 -11  -3 7853.24 184.510   1
  11  11   3 8396.54 181.830   1
  11 -11   3 8003.99 185.780   1
 -11  11   3 8402.31 180.200   1
 -11  11  -3 8090.97 198.570   1
   3 -11  11 8509.96 239.160   1
  11  -9  -7 178.210 34.7400   1
   9 -11  -7 158.530 27.2200   1
   9  11   7 153.900 27.0200   1
   7  11   9 158.100 29.7000   1
  11  -7  -9 155.070 33.3600   1
   7  -9 -11 133.490 25.7300   1
   9  -7 -11 164.370 25.6200   1
  11   9   7 182.860 26.8600   1
   7   9  11 186.150 31.9900   1
 -11  -7   9 150.750 27.2700   1
   9   7  11 160.410 24.0100   1
  11   7   9 159.520 28.1500   1
 -11  -9   7 157.000 26.6300   1
  -7 -11  -9 127.050 22.0500   1
  -9  -7  11 150.670 28.2500   1
  -9 -11  -7 142.810 27.0500   1
  -7  -9 -11 144.900 30.6300   1
  -7 -11   9 185.870 34.0600   1
 -11  -9   7 177.790 30.0300   1
  11  -9   7 211.140 32.9700   1
   9 -11   7 130.200 30.3500   1
  -9 -11   7 187.370 32.9700   1
   1  15  -5 38.4200 42.5200   1
  -1  15  -5 65.8800 44.0500   1
  15   1   5 76.5400 41.3700   1
 -15   5  -1 77.8000 35.1200   1
  15  -1   5 57.1700 29.7100   1
 -15   5   1 56.0500 29.9200   1
  -5  15   1 59.0600 39.2200   1
   5  15   1 89.1400 24.6100   1
  -1 -15   5 44.0300 25.0300   1
   1 -15   5 48.6200 26.7900   1
   9  13  -1 7939.28 177.470   1
 -13   9   1 7634.58 186.320   1
  -9  13  -1 7690.56 176.670   1
  -1 -13   9 7080.22 166.930   1
   1 -13   9 7224.14 175.300   1
 -13   9  -1 7587.38 180.610   1
   9   1 -13 7115.32 157.890   1
   9  -1 -13 7116.47 158.480   1
  -1  -9 -13 7330.80 164.560   1
   1  -9 -13 7174.09 162.640   1
  13   1  -9 7501.62 173.860   1
  13  -1  -9 7188.78 161.120   1
  -9  -1  13 7402.49 157.060   1
  -1 -13  -9 7348.87 177.360   1
  -9   1  13 7319.06 156.310   1
   1   9  13 7044.83 147.440   1
   1 -13  -9 7501.51 181.640   1
  -9 -13  -1 7533.83 172.060   1
  -1   9  13 7273.01 155.630   1
 -13  -1   9 7351.63 162.230   1
  -9 -13   1 7240.02 165.650   1
   1  13   9 7145.66 153.900   1
 -13   1   9 7265.17 157.640   1
  -1  13   9 7029.24 147.620   1
  13  -9  -1 6916.93 162.950   1
  -9  13   1 7113.06 171.440   1
   9  13   1 7372.87 174.500   1
 -13   9   1 6948.24 169.170   1
  -9  13  -1 7069.31 182.490   1
 -13   9  -1 6936.71 180.400   1
   1 -13   9 7044.18 215.030   1
  -1 -13   9 7039.26 213.530   1
   9  13  -1 7248.25 205.540   1
  15  -5   1 37.3400 28.9700   1
 -15   1   5 49.3800 28.5900   1
   5 -15   1 53.1800 24.9300   1
  -1  15   5 70.3600 25.1800   1
   1  15   5 74.2600 33.0900   1
  15  -5  -1 57.3200 21.9200   1
   5 -15  -1 44.8900 31.6000   1
  -5 -15  -1 62.6600 24.9500   1
   1 -15  -5 53.0800 28.8500   1
  -1 -15  -5 40.8900 30.3800   1
  15  -1  -5 54.0900 25.9500   1
  15   1  -5 79.0300 24.5000   1
  -1   5  15 14.1100 32.2400   1
   1   5  15 16.7500 34.0900   1
  -5   1  15 87.4000 24.3600   1
  -5  -1  15 29.8500 23.9200   1
   5   1  15 81.2400 25.3800   1
  -1  15  -5 61.3800 30.0900   1
 -15   5   1 72.6600 34.1100   1
   9  -7  11 158.650 52.0200   1
  -9 -11   7 139.710 39.3300   1
  11  -7   9 100.430 46.4900   1
  11  -9   7 143.830 37.2700   1
 -11   9   7 162.800 35.1700   1
  -5  15  -1 73.7300 31.5000   1
 -16   0   0 12313.7 290.370   1
   0 -16   0 12169.7 271.070   1
  16   0   0 12132.3 247.100   1
   0  16   0 12126.5 243.070   1
   0   0  16 11883.1 229.460   1
 -15   5   3 1630.25 65.4200   1
   5  15  -3 1561.44 64.7700   1
  -5  15  -3 1507.19 60.7700   1
  15  -3   5 1640.72 76.3500   1
  -3  15  -5 1648.88 65.2500   1
  -3 -13   9 3563.43 106.720   1
  -9  13  -3 3512.90 96.9800   1
   9  13  -3 3746.21 103.360   1
  13   3  -9 3459.01 96.6100   1
  -3  -9 -13 3274.40 103.030   1
   9  -3 -13 3404.32 100.490   1
  -9  -3  13 3340.00 89.8500   1
  -3 -13  -9 3282.28 94.8200   1
  -9 -13  -3 3272.19 93.6100   1
  13  -3  -9 3490.49 104.140   1
   3   9  13 3352.70 87.9500   1
   3 -13  -9 3353.58 98.9900   1
  -9   3  13 3235.59 84.9900   1
  -3   9  13 3506.87 88.3100   1
 -13  -3   9 3588.34 97.7600   1
  13   9   3 3232.90 93.1500   1
   3  13   9 3346.67 89.1000   1
 -13   3   9 3348.98 90.7200   1
  -3  13   9 3382.70 89.8100   1
   5 -15   3 1420.92 70.7200   1
  -9 -13   3 3196.64 101.150   1
   9  13   3 3286.28 93.7200   1
  13  -9   3 3314.36 108.030   1
  -9  13   3 3171.83 95.3900   1
 -13   9   3 3329.89 93.2600   1
  -9  13  -3 3101.47 104.100   1
   3 -13   9 3216.21 135.380   1
 -13   9  -3 3292.68 113.840   1
  -3 -13   9 3243.57 123.870   1
  13  -3   9 3572.70 139.300   1
   5  -3 -15 1407.41 54.9600   1
   5   3  15 1618.45 59.5800   1
  -5  -3  15 1509.58 52.7900   1
  15   5  -3 1481.21 60.2600   1
   3   5  15 1506.62 52.7400   1
  15   3  -5 1531.75 61.6400   1
  -5   3  15 1479.63 52.6800   1
  -3   5  15 1468.59 58.0400   1
  -3 -15  -5 1549.14 68.5600   1
  -5 -15  -3 1613.98 61.5000   1
  15  -3  -5 1562.13 64.7400   1
   3 -15  -5 1507.18 61.9700   1
  15  -5  -3 1512.08 62.3700   1
   5 -15  -3 1411.05 64.4300   1
   3  15   5 1509.01 58.2100   1
  -3  15   5 1580.63 61.7700   1
  13  -9  -3 3119.73 92.8900   1
  -5 -15   3 1474.02 71.3700   1
 -15   3   5 1462.16 59.0500   1
   5  15   3 1545.44 55.4100   1
  -5  15   3 1477.38 57.1000   1
 -15   5   3 1467.22 57.5300   1
  15  -5   3 1507.71 62.3000   1
  -3 -15   5 1564.98 74.5400   1
   3 -15   5 1477.54 75.2200   1
 -15  -3   5 1464.34 60.5900   1
  15  -3   5 1523.55 74.9200   1
  -5  15  -3 1476.91 80.6200   1
 -15  -5   3 1501.62 84.5800   1
  15   3   5 1564.45 86.9300   1
  -3  15  -5 1558.93 90.9100   1
   5  15  -3 1601.53 85.5400   1
 -15   5  -3 1583.97 92.8900   1
   3  15  -5 1519.21 80.0600   1
  15   5   3 1537.29 80.1900   1
  -8  14   0 3826.61 111.910   1
   8  14   0 3733.41 114.270   1
 -14   8   0 3797.45 120.470   1
   0 -14   8 3745.97 129.280   1
  14   0   8 3989.77 155.210   1
  -2 -16   0 2930.67 105.620   1
  -8  14   0 3827.06 109.130   1
   0 -14   8 3616.55 127.620   1
 -14   8   0 3644.24 98.7900   1
   8   0 -14 3394.95 97.5600   1
  14   0  -8 3539.93 96.4500   1
  -8   0  14 3692.51 95.7900   1
   0   8  14 3699.88 94.7700   1
 -16   2   0 3021.04 110.530   1
   0 -14  -8 3814.06 122.900   1
  -8 -14   0 3808.65 110.830   1
 -14   0   8 3819.84 103.640   1
   0  14   8 3700.71 91.8400   1
  14  -8   0 3494.32 111.960   1
 -16  -2   0 2823.56 119.420   1
   0  16  -2 2637.98 94.7400   1
 -16   0   2 2872.15 101.610   1
   2  16   0 2821.87 90.9300   1
  -2  16   0 2876.30 87.0700   1
   0  16   2 2793.41 84.0300   1
  16   0   2 2919.52 93.7900   1
   0 -16   2 2815.43 94.6400   1
  16  -2   0 2885.39 87.7300   1
   2 -16   0 2781.29 101.080   1
  16   2   0 2936.92 90.5400   1
   0 -16  -2 2885.42 103.610   1
  16   0  -2 2980.19 93.2100   1
   0   2  16 2902.85 78.8400   1
  -2   0  16 3017.14 79.6300   1
   2   0  16 2691.12 74.6900   1
   0  -2  16 2953.05 78.9500   1
   0  16  -2 3046.08 87.3400   1
 -10 -12   4 3373.49 108.530   1
 -12  10   4 3487.64 94.0200   1
 -10  12   4 3512.63 96.0200   1
  12 -10   4 3101.58 108.940   1
 -10  12  -4 3238.32 114.140   1
   4 -12  10 3401.26 134.840   1
 -12  10  -4 3407.75 125.770   1
  -4 -12  10 3611.65 153.720   1
  12  -4  10 3637.19 146.950   1
  10   4  12 3693.68 94.1700   1
  -4 -10 -12 3621.48 99.4800   1
 -10 -12  -4 3590.91 99.2100   1
  -4 -12 -10 3703.80 111.350   1
  10  -4 -12 3522.51 98.1600   1
 -10  -4  12 3725.99 97.5000   1
  12  -4 -10 3634.70 108.470   1
 -12  -4  10 3606.13 97.6800   1
   4  10  12 3577.99 91.7900   1
   4  12  10 3678.96 94.2100   1
 -10   4  12 3509.95 91.6300   1
  -4 -12  10 3746.88 114.990   1
  -4  10  12 3595.51 90.2500   1
  12  10   4 3655.18 96.2100   1
 -12   4  10 3561.34 92.3400   1
  -4  12  10 3726.98 95.1400   1
  12 -10  -4 3259.81 108.350   1
  10  12   4 3606.34 95.2300   1
   8  14   2 394.540 34.0000   1
  14  -8   2 401.490 41.4500   1
  14  -8  -2 386.080 38.8600   1
  -8 -14   2 441.430 32.8000   1
 -14   8  -2 365.530 62.6800   1
  -8 -14  -2 458.120 33.2900   1
  -8  14  -2 527.680 51.4200   1
   8  14  -2 291.530 48.2700   1
   8  14  -2 514.760 43.8400   1
 -14   8   2 612.180 46.4100   1
  -8  14  -2 368.180 44.6800   1
 -14   8   2 386.580 38.0300   1
  16   2   2 1151.10 54.8200   1
  -8  14   2 368.100 36.7800   1
 -16   2  -2 1125.29 81.3000   1
 -16  -2   2 1147.10 68.7600   1
   2  16  -2 1056.90 57.4700   1
  -2  16  -2 1117.75 59.2500   1
 -16   2   2 1127.60 58.6600   1
  -2  16   2 1184.14 58.3200   1
   2  16   2 1144.95 55.0100   1
  16  -2   2 1112.06 52.2700   1
  16   2   2 1177.04 54.4100   1
   2 -16   2 1155.08 57.8400   1
  -2 -16   2 1104.37 63.7600   1
  16  -2  -2 1140.04 52.8400   1
   2 -16  -2 1104.30 60.9100   1
  -2 -16  -2 1179.08 59.0000   1
  16   2  -2 1131.54 53.7400   1
 -16   2   2 1131.89 55.4500   1
  -2  16  -2 1183.66 61.8500   1
   2  16  -2 1086.92 51.6000   1
  10  -8 -10 17.3600 22.0100   1
 -10   8  10 25.4600 23.9900   1
 -10  10   8 10.0100 25.2200   1
  -2 -14   8 497.270 39.4000   1
  -2   8  14 486.610 34.2500   1
  -8   2  14 479.480 40.0600   1
  -2 -14  -8 438.930 38.6000   1
  14  -2  -8 470.250 31.3700   1
  -8 -10 -10 -3.8500 25.8700   1
   2   8  14 503.530 34.4700   1
  -8  -2  14 419.070 36.4500   1
  14   2  -8 499.870 34.6700   1
   8  -2 -14 505.420 37.2000   1
  -2  -8 -14 535.360 40.0500   1
  -2 -14   8 324.160 40.4300   1
   2 -14   8 574.100 50.0300   1
  -2  14   8 458.390 42.5100   1
  10 -10   8 19.7400 27.4800   1
  14  -2   8 307.070 50.5300   1
   2  14   8 385.060 30.8300   1
  -2   2  16 1126.09 45.9900   1
   2   2  16 1230.33 52.6500   1
  -2  -2  16 1195.62 53.2400   1
  10   8  10 38.9900 19.1500   1
  10  10   8 12.4600 17.9000   1
 -14   2   8 405.860 31.3500   1
   2 -14   8 400.280 43.2900   1
 -14  -2   8 436.020 35.1600   1
   2 -14  -8 485.110 41.2000   1
 -11  11   5 3089.62 84.3200   1
 -11  11  -5 3137.42 121.620   1
 -11 -11   5 3063.91 105.070   1
  11  11   5 3151.50 84.6600   1
  11 -11   5 2891.06 107.320   1
 -13   7   7 2291.89 79.2200   1
  -7  13   7 2270.46 73.1700   1
   7  13   7 2278.31 68.9200   1
  -7   7  13 2263.69 71.2800   1
 -13  -7   7 2142.56 71.0600   1
  -7 -13  -7 2112.12 69.3200   1
   7   7  13 2129.33 66.2400   1
  -7  -7  13 2195.32 70.5700   1
  13  -7   7 1956.72 76.0400   1
  -7 -13   7 1991.50 93.4700   1
  13  -7  -7 2210.52 75.2200   1
  -5  11  11 3079.33 83.7400   1
 -11   5  11 2863.92 78.7600   1
   5  11  11 3116.63 84.6100   1
  11  -5 -11 3098.11 99.9000   1
  -5 -11 -11 3081.70 89.9400   1
  -7 -13   7 2285.33 102.690   1
  11   5  11 3150.36 83.3100   1
  13  -7   7 2378.05 99.8700   1
 -11  -5  11 3216.46 89.7200   1
  -6 -14  -6 2313.69 80.8400   1
   6   6  14 2238.28 68.5700   1
  -6  -6  14 2277.36 71.7700   1
  14   6   6 2238.58 69.0200   1
  14  -6   6 2411.24 83.2500   1
 -14  -6   6 2159.54 76.2100   1
  -6  14  -6 2240.04 108.310   1
   6  14   6 2319.33 71.2800   1
  -6  14   6 2225.63 68.4800   1
  14  -6  -6 2306.66 84.4400   1
  -6   6  14 2213.19 69.6200   1
  -6 -14   6 2159.68 93.1600   1
 -14   6   6 2194.47 71.5700   1
  14  -6   6 2153.10 100.210   1
  -8 -12   8 8.45000 43.3200   1
  -8  12   8 14.2800 35.6600   1
 -12   8   8 21.4800 33.4400   1
  -8   8  12 2.61000 31.5000   1
   8  12   8 3.30000 25.0700   1
  12  -8  -8 -0.8400 22.1900   1
   8   8  12 14.4900 29.1400   1
  -8 -12  -8 -10.850 24.9500   1
  -8  -8  12 -5.4100 25.7900   1
  12  -8   8 1.89000 27.0100   1
   0  16  -4 60.9900 56.9300   1
 -16   4   0 14.9500 43.7900   1
  -4  16   0 -4.9400 42.7700   1
   4  16   0 34.9900 33.8300   1
   0 -16   4 17.8900 23.6400   1
  16  -4   0 -28.580 28.3700   1
   4 -16   0 11.9200 32.2000   1
   0 -16  -4 -25.720 30.5300   1
   0   4  16 -0.8200 24.0700   1
  -4   0  16 -3.7500 32.6800   1
   4   0  16 35.9500 35.1300   1
  16   0   4 -10.820 29.3700   1
   0  16  -4 -7.6100 27.7200   1
  -4  16   0 -51.070 41.0300   1
  15  -7   1 76.4600 32.7500   1
  15   5   5 7524.62 227.910   1
  -5  15  -5 7214.18 197.060   1
  15  -5   5 7155.56 179.960   1
  -5 -15   5 6899.08 163.390   1
 -15   5   5 7334.48 165.720   1
 -15  -5   5 7109.39 178.220   1
  -5  15   5 7298.42 161.200   1
   5  15   5 7342.78 159.620   1
  -5 -15  -5 6780.22 158.440   1
  -5   5  15 6921.86 149.320   1
 -13   9  -5 320.050 72.2800   1
  -9  13  -5 307.390 54.2100   1
  -5 -13   9 360.710 47.0400   1
  13  -5   9 405.580 68.9700   1
 -13  -9   5 377.030 61.2900   1
  13  -9   5 340.880 44.1000   1
  -9 -13   5 368.900 39.0400   1
 -13   9   5 361.830 33.8300   1
  -9  13   5 379.440 34.5200   1
   9  13   5 353.480 32.0100   1
  -5  13   9 378.550 41.6200   1
 -13   5   9 379.710 31.3000   1
  13  -9  -5 302.270 36.4400   1
   5  13   9 353.100 35.9400   1
 -13  -9   5 417.710 39.4400   1
  -5   9  13 294.970 39.3800   1
  -9   5  13 336.440 31.3500   1
 -13  -5   9 332.220 31.8900   1
  13  -5  -9 367.470 30.3900   1
  13   9   5 346.320 28.6200   1
   5   9  13 402.470 37.2600   1
  -5 -13  -9 390.320 35.7200   1
   9  -5 -13 326.720 36.8600   1
  -9  -5  13 344.140 28.6000   1
  -7  15   1 53.1600 44.3300   1
   9   5  13 357.700 36.1900   1
  -5  -9 -13 297.270 27.6400   1
  -5 -13   9 379.000 35.9300   1
  13  -9   5 363.020 44.8500   1
   5   5  15 7242.42 152.000   1
  15   5  -5 6982.41 158.750   1
  -5  -5  15 7265.06 157.520   1
  15  -5   5 6659.77 165.910   1
  15   1   7 35.4600 51.3500   1
 -15   7  -1 38.7700 34.2200   1
  15  -5  -5 7150.40 174.270   1
  15  -1   7 119.890 51.5000   1
   7  -1 -15 74.6600 30.1200   1
  -7  15  -1 41.2400 48.0600   1
  -1 -15   7 64.4300 41.0500   1
 -15   7   1 34.3700 29.2700   1
   7  15   1 100.810 32.0800   1
  -7  -1  15 52.5900 32.2400   1
  -7   1  15 65.6000 24.4500   1
   1   7  15 63.3000 32.8700   1
  15   1  -7 46.9700 24.9800   1
  -1   7  15 107.540 36.0700   1
  15  -1  -7 70.2100 26.6900   1
  -1 -15  -7 65.3600 23.2600   1
   1 -15  -7 62.0100 33.6200   1
  -7 -15  -1 74.6600 23.7000   1
  -7 -15   1 45.6000 21.3100   1
   1  15   7 50.9400 33.4700   1
 -15  -1   7 74.0900 28.3200   1
  -1  15   7 115.220 35.3400   1
 -15   1   7 73.5100 28.0800   1
  15  -7  -1 47.1500 22.6100   1
   1 -15   7 25.7600 39.0400   1
  -1 -15   7 78.0300 28.5500   1
   7  15  -1 71.1800 35.1500   1
  -7  15  -1 102.880 41.9200   1
 -15   7   1 79.4000 27.3100   1
 -15   7  -1 33.1100 26.3600   1
  -2 -16   4 928.460 53.5400   1
  -4 -16  -2 848.770 50.1500   1
  16  -2  -4 934.410 49.3500   1
  -2 -16  -4 847.070 44.6700   1
  16   4  -2 887.660 42.5100   1
  16   2  -4 832.470 41.2000   1
  -2   4  16 880.070 41.1900   1
  -4   2  16 897.160 47.8700   1
   2   4  16 897.060 47.9500   1
  -4  -2  16 832.060 40.5600   1
   4   2  16 892.640 42.0900   1
  -2  -4  16 889.990 47.6600   1
 -16  -2   4 906.220 49.4300   1
   2  16  -4 924.180 54.1300   1
  -2  16  -4 942.270 49.4800   1
  16   4   2 925.150 53.3300   1
  16  -2   4 845.390 50.2000   1
 -16   4   2 901.120 46.3500   1
   4  16  -2 900.050 53.8300   1
  -4  16  -2 886.330 56.0800   1
 -16   2   4 878.880 50.4200   1
  -4 -16   2 888.280 47.1300   1
  16   4   2 928.460 55.2600   1
  16  -4   2 888.050 46.7600   1
  -2  16   4 854.010 43.3400   1
   4 -16   2 799.140 55.5700   1
   2  16   4 879.190 42.4400   1
  16  -4  -2 890.840 42.3500   1
 -16   2   4 888.440 49.5100   1
   2 -16  -4 888.140 46.0600   1
 -14   8  -4 9.27000 44.2900   1
  -8  14  -4 36.8700 44.1100   1
  14  -4   8 -54.110 53.2600   1
  14  -8   4 17.8100 25.3700   1
 -14   8   4 -14.400 36.5800   1
  -8  14   4 1.47000 26.8700   1
  -4  14   8 -13.590 24.0500   1
   4  14   8 21.0000 28.4800   1
  -4   8  14 -39.260 34.5400   1
  -8   4  14 14.0600 32.4900   1
  14  -4  -8 4.52000 19.8300   1
   4   8  14 -37.260 31.8300   1
   8  -4 -14 -11.670 29.6600   1
  -4  -8 -14 20.6400 29.7500   1
  -8  14  -4 -11.590 43.6700   1
  -4 -14   8 19.9300 36.3800   1
   2  16  -4 950.610 75.5400   1
 -16  -4   2 906.170 65.7600   1
 -16   4  -2 956.290 75.3200   1
  -2  16  -4 947.110 63.4800   1
   4  16  -2 916.860 66.2400   1
  -4  16  -2 860.670 54.9400   1
  16   2   4 908.000 57.1300   1
 -16   4   2 887.550 56.3800   1
  16  -2   4 960.810 53.7700   1
  -4  16   2 858.950 46.2700   1
 -16  -2   4 882.200 47.6800   1
   2 -16   4 847.370 53.2500   1
   4  16   2 953.340 50.9000   1
  -6 -12 -10 1252.51 58.0200   1
 -12 -10   6 1283.78 52.8800   1
 -10  -6  12 1418.15 54.3500   1
  10  -6 -12 1173.48 55.1000   1
  12  10   6 1385.63 51.2500   1
  10   6  12 1303.16 47.5300   1
  12 -10   6 1178.17 66.4200   1
  12  -6 -10 1323.94 53.0800   1
   6  10  12 1358.97 54.2200   1
  -6 -12  10 1406.01 69.0600   1
  -6 -10 -12 1288.66 58.9600   1
 -10 -12  -6 1258.86 57.5600   1
  12   6  10 1326.64 51.5000   1
  -6 -12  10 1289.58 77.5700   1
 -12  10  -6 1320.13 90.5000   1
 -10  12  -6 1411.90 81.0800   1
 -12 -10   6 1433.47 85.4500   1
 -10 -12   6 1299.57 68.4800   1
 -12  10   6 1356.91 58.4100   1
 -10  12   6 1337.92 52.7600   1
  -6  12  10 1304.57 55.4700   1
 -12   6  10 1393.68 56.8000   1
  -6  10  12 1274.07 54.5400   1
  10  12   6 1272.81 48.9100   1
 -10   6  12 1270.45 53.9500   1
   6  12  10 1370.38 50.4500   1
 -12  -6  10 1344.04 56.0700   1
  -3 -15  -7 1290.15 64.0100   1
  -7 -15  -3 1317.32 59.6100   1
  15  -3  -7 1291.57 55.2300   1
  15  -7  -3 1241.14 54.5700   1
 -15  -3   7 1409.04 57.5700   1
  -9   9  11 664.040 38.1300   1
  -9  11   9 641.060 46.4800   1
 -11   9   9 618.800 45.9000   1
   7  15   3 1357.50 54.8100   1
  -7  15   3 1389.21 63.1900   1
  -7   3  15 1294.60 55.2500   1
 -15   7   3 1342.49 63.2600   1
   3 -15   7 1211.49 63.1800   1
  -3 -15   7 1266.70 59.3400   1
  -7  15  -3 1197.75 55.3700   1
  -9 -11   9 716.170 46.6900   1
  -9  -9  11 738.550 44.0400   1
  -9 -11  -9 616.890 33.8500   1
 -11  -9   9 642.710 35.9300   1
  11   9   9 682.930 37.6500   1
   3  15   7 1361.62 50.9000   1
  -3  15   7 1327.11 56.6000   1
 -15   3   7 1268.79 49.6300   1
  -7 -15   3 1272.59 61.7800   1
   7  15  -3 1340.43 55.2800   1
   7   3  15 1365.24 55.6500   1
  15   7   3 1288.71 50.4900   1
  15   3  -7 1290.27 52.3400   1
  -7  -3  15 1390.64 55.2200   1
   3   7  15 1327.86 54.4500   1
  -3   7  15 1283.78 49.2400   1
  15  -7   3 1301.92 57.1400   1
   9  11   9 642.870 35.1800   1
   9   9  11 644.940 40.7700   1
   7  15  -3 1264.42 80.7000   1
  15   3   7 1470.07 91.8800   1
 -15   7  -3 1372.47 76.2100   1
  -7  15  -3 1296.22 78.7100   1
  15  -3   7 1302.17 78.8600   1
  15   7   3 1411.81 81.0800   1
  -3 -15   7 1303.60 72.5100   1
  16  -4  -4 5878.89 144.890   1
  -4 -16  -4 5901.94 153.930   1
  -4   4  16 5818.90 128.460   1
  16   4  -4 5479.09 131.030   1
   4   4  16 5777.00 125.560   1
  -4  -4  16 5710.44 132.260   1
   4  16  -4 5534.31 131.370   1
  -4  16  -4 5516.28 131.310   1
  16  -4   4 5754.25 149.890   1
   0 -12  12 22925.3 508.920   1
 -12  12   0 24332.8 507.900   1
   0  12  12 24180.5 487.150   1
 -12   0  12 23359.7 473.690   1
  12   0 -12 22784.3 413.300   1
 -12  12   0 23642.7 496.860   1
   4  16  -4 5730.27 171.690   1
  -4  16  -4 5463.17 150.810   1
  16   4   4 6088.28 175.160   1
  16  -4   4 5860.17 167.300   1
 -16  -4   4 5526.42 155.660   1
 -16   4   4 5695.21 140.310   1
  -4  16   4 5825.20 136.420   1
  -4 -16   4 5623.34 159.540   1
   4  16   4 5587.11 130.130   1
  -1 -13 -11 16268.1 324.280   1
  -1 -13  11 15745.4 362.670   1
  -1  11  13 16629.4 305.560   1
   1  -1  17 3261.92 84.0000   1
 -11   1  13 16895.9 316.000   1
   1  11  13 16788.0 306.150   1
 -11  -1  13 16538.8 305.090   1
  11  11   7 1481.79 56.4200   1
   1 -13  11 16280.3 394.990   1
  13  -1 -11 16064.9 315.930   1
  11  -1 -13 16475.2 320.450   1
  13   1 -11 16494.0 315.790   1
  11   1 -13 16176.9 319.140   1
  -1 -13  11 16025.2 344.730   1
  -1  -1  17 3091.93 80.4400   1
 -11 -11   7 1443.64 83.4600   1
 -11  11   7 1359.68 53.0000   1
 -11   7  11 1489.52 53.4900   1
  -7  11  11 1412.52 58.2000   1
   7  11  11 1458.55 55.0000   1
 -11  -7  11 1472.80 57.4300   1
  11   7  11 1392.16 49.0800   1
  -7 -11 -11 1397.60 54.7300   1
 -11 -11   7 1583.95 74.2600   1
 -13  -1  11 16268.3 303.210   1
 -13   1  11 17270.8 321.000   1
   1  13  11 16936.6 311.600   1
  -1  13  11 17260.3 318.280   1
  -1   1  17 3183.98 86.6500   1
   1   1  17 3096.60 90.1600   1
 -11  13   1 17218.8 332.020   1
  -1  17   1 3371.05 94.2900   1
 -17   1  -1 3038.19 114.890   1
  17   1   1 3291.47 101.570   1
 -11 -13   1 16996.7 330.770   1
 -11 -13  -1 17129.0 328.500   1
  13  11  -1 17833.6 341.560   1
   1 -17   1 3087.16 110.090   1
 -13  11  -1 17229.8 334.070   1
   1  17   1 3231.24 92.6500   1
  -1 -17  -1 3164.58 95.0800   1
   1  17  -1 3143.22 103.010   1
 -11  13  -1 17309.1 334.460   1
  -1  17  -1 3174.02 102.310   1
 -13  11   1 16553.5 317.860   1
 -11  13  -1 16507.3 334.670   1
  11  13   1 16887.0 350.830   1
 -13  11  -1 16801.8 336.720   1
 -17   1   1 3316.33 117.690   1
  -1 -17   1 3053.84 97.8000   1
  17  -1  -1 3252.44 103.650   1
   1 -17  -1 3072.08 96.9300   1
  17  -1   1 3078.29 101.060   1
  11  13  -1 17832.4 346.300   1
 -13  11   1 16763.8 322.410   1
 -11  13   1 17051.3 329.100   1
  17   1  -1 3126.82 94.4200   1
   1  17  -1 3299.57 96.2300   1
  -1  17  -1 3019.75 87.4300   1
 -17  -1   1 3196.57 126.520   1
  -6   0  16 539.660 42.2500   1
   0   6  16 616.160 36.3200   1
  16   0  -6 516.060 36.1000   1
   0 -16  -6 573.290 36.4800   1
 -12  12  -2 13669.1 272.320   1
  16   6   0 606.570 44.4700   1
  -6 -16   0 558.830 39.2400   1
   0  16   6 537.920 34.8600   1
  16  -6   0 592.380 42.2300   1
 -16   0   6 564.850 38.1900   1
   0 -16   6 641.410 50.3500   1
  -6  16   0 621.310 45.8900   1
   6  16   0 607.720 46.8900   1
 -16   6   0 522.880 45.9400   1
  16   0   6 572.390 56.6800   1
   0  16  -6 571.790 74.6700   1
  12  12   2 13291.4 275.980   1
 -12  12   2 12176.6 241.870   1
 -12  12  -2 12457.5 273.250   1
  -6  16   0 622.720 52.9200   1
 -16   6   0 569.550 47.1400   1
 -12  -2  12 12393.5 246.460   1
  -2 -12 -12 13139.2 264.850   1
  12  -2 -12 12778.5 262.490   1
  12   2 -12 13147.7 256.340   1
   2  12  12 13064.7 248.600   1
  -2  12  12 12753.9 241.700   1
 -12   2  12 13504.9 260.360   1
  -6  16  -2 1893.88 76.5900   1
  14   6   8 1170.14 47.8800   1
  14  -6   8 1090.74 57.2600   1
  14  -8   6 1131.38 61.5400   1
  -6 -14   8 1128.75 60.1200   1
   0 -14  10 8657.82 234.240   1
 -14  -8   6 1173.36 54.6800   1
  -8  14  -6 1229.56 76.1000   1
  14  -6   8 1310.18 70.1300   1
  -6 -14   8 1206.67 77.8500   1
  -8 -14   6 1326.27 69.7300   1
 -14   8   6 1249.41 57.1900   1
  -6  14   8 1238.93 54.8200   1
 -14   6   8 1212.07 49.3900   1
   8  14   6 1160.75 45.2600   1
   6  14   8 1206.82 49.2700   1
  14  -8  -6 1136.53 51.3100   1
 -14  -6   8 1175.03 51.1500   1
 -14  10   0 9180.00 214.440   1
  10  14   0 9291.28 223.430   1
  14   8   6 1183.19 48.5500   1
  14  -6  -8 1159.05 48.8600   1
  -6 -14  -8 1175.51 57.7100   1
 -16   6  -2 1968.43 85.9100   1
  -8 -14  -6 1183.46 55.9700   1
 -10  14   0 10325.0 219.950   1
  14  10   0 10135.7 227.520   1
 -14  10   0 9794.20 211.520   1
  10   0 -14 9100.67 194.210   1
  14   0 -10 9736.94 202.970   1
   6  16  -2 1834.52 85.0400   1
  16   2   6 2117.03 100.390   1
  -2  16  -6 1789.73 96.3400   1
  -2 -16  -6 2003.09 80.5800   1
  16  -2  -6 2035.67 94.2700   1
  -6 -16  -2 1877.61 78.5100   1
  16  -6  -2 1846.34 67.3800   1
  -6 -16   2 1893.36 81.8600   1
   2  16   6 1974.94 66.5200   1
 -16  -2   6 1908.51 71.7500   1
  -2  16   6 1935.14 68.1700   1
 -16   2   6 1886.21 64.7600   1
  16   6   2 2050.10 82.1200   1
  16  -6   2 1850.73 75.7600   1
   6  16   2 2022.26 70.6300   1
  -6  16   2 2027.92 73.2600   1
  -2 -16   6 1816.25 84.3300   1
   2 -16   6 1760.72 76.8100   1
 -16   6   2 1957.93 73.2100   1
  16  -2   6 1982.52 92.9900   1
  16   2  -6 1957.60 68.4900   1
  16  -2   6 2097.01 83.6300   1
 -16   6   2 2048.49 77.9400   1
   6  16  -2 1986.48 71.5300   1
 -10   0  14 9394.30 190.460   1
   0  10  14 9752.15 198.000   1
 -10 -14   0 9816.57 213.600   1
 -14   0  10 9576.00 196.760   1
   0  14  10 9560.16 188.700   1
  -2   6  16 1920.03 65.5500   1
  -8   6  14 1202.28 53.8800   1
  -6   8  14 1229.80 54.8800   1
   6   8  14 1209.66 51.8000   1
  -6   2  16 2007.76 61.8900   1
   2   6  16 2023.57 66.4400   1
  -6  -2  16 1963.86 61.1100   1
   8   6  14 1179.84 50.8600   1
  -8  -6  14 1190.21 51.0900   1
   6   2  16 2077.13 66.8800   1
   7  13   9 225.820 26.0500   1
   9  13   7 242.020 28.9000   1
  -7  13   9 167.330 28.5800   1
 -13   7   9 215.780 37.4500   1
  -9  13   7 213.420 30.3000   1
 -13   9   7 229.120 30.3900   1
  -9 -13   7 182.770 34.0100   1
  -7 -13   9 214.170 52.9300   1
  -9  13  -7 301.780 73.2400   1
  15  -7   5 3906.93 132.850   1
 -15   5   7 3999.53 110.140   1
  -7  15   5 3878.28 111.560   1
 -15  -7   5 4008.49 122.170   1
 -15   7   5 3905.75 109.240   1
  -7 -15   5 3892.69 123.930   1
  15  -7   5 3877.54 132.490   1
  -5 -15   7 3821.65 137.580   1
  15  -5   7 3798.70 142.370   1
  -7  15  -5 4058.41 140.750   1
  -5  15  -7 3871.35 141.280   1
 -15   7  -5 3821.15 143.530   1
  15  -5   7 3796.10 119.360   1
  15   5  -7 3805.64 113.750   1
  15   7   5 3994.74 113.530   1
  -1   3  17 -0.5200 23.7700   1
  -3   1  17 -50.940 33.8100   1
   1   3  17 23.5800 36.2500   1
  -3  -1  17 16.1200 24.6500   1
   3   1  17 10.9800 32.9100   1
  -1  -3  17 -43.230 34.4500   1
   3  -1  17 -32.590 35.2700   1
  -7  -5  15 3643.46 98.9300   1
   7   5  15 4028.90 109.240   1
   5   7  15 4064.90 107.450   1
  -7 -15  -5 4042.26 124.610   1
  -5 -15  -7 3920.36 122.790   1
  -5   7  15 3819.04 100.330   1
  -7   5  15 3899.94 102.470   1
  15  -5  -7 3842.60 120.680   1
  15  -7  -5 3698.74 110.930   1
 -15  -5   7 3998.42 114.360   1
   5  15   7 3853.90 107.630   1
   7  15   5 4152.06 111.690   1
  -5  15   7 3974.57 107.710   1
 -11   3  13 7588.72 165.720   1
   3  13  11 7517.85 173.940   1
  -3  11  13 7888.48 186.210   1
 -13   3  11 7268.38 170.910   1
  -3  13  11 7467.34 171.640   1
  -3 -13  11 7357.72 248.560   1
   3  11  13 7427.87 174.020   1
 -13  -3  11 7789.11 186.230   1
 -11  -3  13 7575.54 178.500   1
  13  -3 -11 6966.74 176.950   1
  -3 -13 -11 7153.22 190.700   1
  11  -3 -13 6788.63 175.090   1
  -3 -11 -13 7189.73 185.810   1
  13   3 -11 7534.21 169.880   1
  -3 -13  11 7474.40 206.050   1
 -13  -9   7 212.150 28.8900   1
  13  -9   7 192.480 42.1400   1
  -7 -13   9 215.280 36.3300   1
  13   7   9 213.520 29.7200   1
  -9 -13  -7 234.440 29.2600   1
  -7 -13  -9 194.680 28.5500   1
  13   9   7 239.800 27.9600   1
 -13  -9   7 188.530 26.3300   1
 -13  -7   9 235.010 28.2200   1
  13  -7  -9 187.940 33.2800   1
  -9   7  13 212.600 35.8500   1
  -3  17   1 -27.080 39.7500   1
  17  -1   3 16.2300 30.3700   1
   1  17   3 21.6700 24.4500   1
  -1  17   3 21.7400 36.1800   1
  -1 -17   3 7.59000 22.5500   1
  -3 -17   1 23.9700 26.8000   1
  17  -3  -1 34.7500 27.8300   1
 -11 -13   3 7620.42 191.500   1
  -7   9  13 198.720 38.1600   1
  -3 -17  -1 14.3700 19.8300   1
   1 -17  -3 1.07000 31.0900   1
  -1 -17  -3 21.4200 21.5500   1
  -1  17  -3 6.49000 28.7800   1
   1  17  -3 -35.690 28.7100   1
 -11  13  -3 7463.27 211.280   1
 -13  11  -3 7096.46 191.610   1
 -11  13  -3 7391.05 184.190   1
  -3  17  -1 31.7100 42.3100   1
  -9  -7  13 195.550 31.6300   1
   9   7  13 193.190 33.3800   1
   7   9  13 219.700 34.1600   1
 -17   1   3 1.89000 32.0400   1
  -3  17  -1 -9.9400 46.0800   1
  -1  17  -3 -4.8600 52.5100   1
   1  17  -3 37.0400 35.3700   1
 -17   3  -1 -4.9400 48.0100   1
  13  11   3 7607.05 183.770   1
  11  13   3 7602.89 182.020   1
 -11  13   3 7463.45 182.610   1
 -13  11   3 7406.45 181.110   1
 -11 -13  -3 7444.52 183.130   1
 -14   2  10 7413.77 177.360   1
  -2  14  10 7275.57 168.070   1
  10  14   2 7521.65 192.240   1
 -10  14   2 7296.90 181.340   1
  14  -2 -10 6851.28 176.680   1
  10  10  10 5371.43 130.640   1
 -10  10  10 5184.22 128.260   1
 -14  10   2 7620.71 192.900   1
  14   2 -10 7083.13 181.210   1
 -10  -2  14 6942.48 163.000   1
 -10  14  -2 7264.09 198.790   1
 -14  10  -2 7112.42 199.050   1
 -10  14  -2 6956.65 172.230   1
  10  14  -2 7567.18 191.630   1
  -2 -14  10 6865.64 185.170   1
 -14  10   2 7059.87 172.740   1
  -2 -14 -10 7102.87 178.350   1
 -10 -10  10 5496.29 145.460   1
 -10 -14  -2 7181.79 181.470   1
   2  10  14 7540.46 174.550   1
  14  -2  10 7728.52 258.030   1
 -10   2  14 7136.89 168.920   1
  -2  10  14 7500.32 174.570   1
 -14  -2  10 7397.56 173.510   1
   2  14  10 7387.38 173.640   1
 -14  10  -2 7165.68 177.590   1
  10  -2 -14 6887.76 176.490   1
 -10 -14   2 7102.06 180.210   1
  -2 -14  10 7163.45 208.660   1
 -12  12   4 7046.76 176.150   1
 -12  12  -4 7194.99 207.720   1
  -4 -12 -12 6585.24 181.280   1
  12  -4 -12 6460.45 162.670   1
 -12  -4  12 7569.98 179.040   1
   4  12  12 6940.19 163.860   1
 -12   4  12 6480.75 154.850   1
  -4  12  12 6673.59 155.880   1
  12  12   4 7044.80 169.480   1
 -12 -12   4 7221.27 184.460   1
  -9   1  15 2748.14 85.1300   1
   1   9  15 2737.53 78.8000   1
   9  -1 -15 2680.63 84.0300   1
  -9  -1  15 2750.74 79.3500   1
  -1   9  15 2757.31 79.4700   1
  -3   3  17 1893.74 62.8700   1
   3   3  17 1863.62 62.1600   1
  -3  -3  17 1875.92 66.9700   1
   9  15  -1 2915.88 116.230   1
  15  -1   9 3023.04 141.430   1
 -17   3  -3 1808.25 99.1800   1
   3  17  -3 1729.40 80.3000   1
  -3  17  -3 1717.46 77.1600   1
 -17  -3   3 1758.30 90.0900   1
 -17   3   3 1851.18 74.9400   1
  17   3   3 1825.89 76.4300   1
  -3  17   3 1757.75 70.1200   1
  17  -3   3 1749.85 73.9900   1
   3  17   3 1802.95 66.7800   1
  -3 -17   3 1759.21 79.8700   1
  17  -3  -3 1831.31 69.0900   1
  -3 -17  -3 1780.95 79.0800   1
  17   3  -3 1816.96 71.9000   1
  17   3   3 1966.90 81.1500   1
  -3  17  -3 1971.46 78.2500   1
   3  17  -3 2000.12 76.3400   1
 -17   3   3 2010.35 81.4200   1
   9  15   1 2870.75 97.7900   1
  -9  15   1 2904.26 96.3200   1
  -9  15  -1 2762.35 87.2100   1
 -15   9   1 2808.85 94.0800   1
 -15   9  -1 2819.34 94.0100   1
  15   1  -9 2698.76 84.4800   1
  15  -1  -9 2962.41 95.4300   1
  -1 -15  -9 2768.62 94.7100   1
  -9 -15  -1 2937.90 97.8100   1
  -9 -15   1 2827.45 98.5100   1
 -15  -1   9 3001.05 91.8900   1
   1  15   9 3016.84 87.5600   1
  -1  15   9 2771.39 80.5500   1
  -9  15   1 2481.06 90.6100   1
   9  15  -1 3011.16 95.3600   1
 -15   9   1 2756.80 92.7300   1
  -9  15  -1 2904.21 97.1000   1
 -15   9  -1 2617.59 94.9900   1
  -1 -15   9 2744.54 109.500   1
   1 -15   9 2544.01 108.470   1
 -16   6  -4 8998.87 247.500   1
  -4  16  -6 9366.58 258.400   1
  -4  -6  16 8795.41 198.550   1
   6  16  -4 9255.73 220.110   1
  -6  16  -4 9152.29 215.790   1
  16  -4   6 9065.05 229.430   1
  16  -6   4 8693.06 226.550   1
 -10 -12   8 2094.38 91.9600   1
 -12 -10   8 2104.29 84.8600   1
  -8 -12  10 1962.27 78.3000   1
  16  -6   4 8446.88 222.150   1
 -10 -12  -8 1856.01 74.8800   1
  -8 -12 -10 1896.15 68.7400   1
 -10  -8  12 1832.36 62.9400   1
  -4 -16   6 9146.10 256.430   1
 -12 -10   8 1973.90 71.2500   1
  16  -4   6 8863.76 229.790   1
  12   8  10 1978.86 62.7400   1
  10   8  12 2084.11 67.2400   1
 -12  -8  10 1991.54 69.4500   1
   8  10  12 2012.83 64.4700   1
 -16  -6   4 9342.36 249.220   1
  16   6   4 8918.55 257.640   1
  12  10   8 1928.35 66.6200   1
   8  12  10 2011.61 67.6600   1
  10  12   8 2048.89 67.6600   1
 -10   8  12 1861.04 62.6800   1
  -8  10  12 1770.66 60.8700   1
 -16  -4   6 8935.08 216.240   1
 -12   8  10 1927.40 67.5800   1
 -12  10   8 1863.30 69.3800   1
  -6  16  -4 8805.68 226.500   1
  16   4   6 9556.09 275.050   1
   4  16   6 9214.03 213.470   1
  -8  12  10 1986.88 70.1100   1
  -4  16   6 8634.66 195.090   1
 -16   4   6 8914.85 211.600   1
   6  16   4 9487.15 218.200   1
  16  -4  -6 9183.50 226.710   1
  -6 -16   4 8893.35 232.130   1
  -6  16   4 9068.37 205.950   1
 -16   6   4 8798.14 205.080   1
  16  -6  -4 8841.43 223.140   1
  -6 -16  -4 9344.66 230.250   1
  -4   6  16 8866.73 202.200   1
  -6   4  16 9082.78 205.370   1
   4   6  16 8900.44 201.470   1
  16   4  -6 8722.02 207.840   1
  -6  -4  16 9076.40 206.900   1
   6   4  16 8669.59 193.200   1
 -10  12   8 2019.12 72.5200   1
 -10 -12   8 1864.65 103.530   1
  -4 -16  -6 8782.36 215.310   1
 -14  10   4 430.770 44.9400   1
 -10  14   4 352.750 43.1400   1
 -10 -14   4 472.760 35.7600   1
  10  14   4 452.080 35.4900   1
  -4  14  10 454.700 34.0300   1
 -14   4  10 437.840 32.9900   1
   4  14  10 479.870 38.5400   1
  14  10   4 477.190 32.1300   1
  14  -4  10 524.540 58.6000   1
  -4 -14 -10 488.730 39.5700   1
 -10  -4  14 531.460 40.0300   1
 -10 -14  -4 493.550 34.9500   1
  10   4  14 497.500 38.9200   1
  14   4 -10 449.830 34.2100   1
  -4 -14  10 413.240 49.7700   1
 -10  14  -4 448.140 51.4400   1
   4  10  14 493.210 40.1300   1
 -10  14  -4 413.620 69.2700   1
  14  -4 -10 472.310 32.8000   1
 -10   4  14 464.040 40.9100   1
  -4  10  14 457.500 35.0600   1
 -14  -4  10 453.770 31.0800   1
  -4 -14  10 553.780 48.4100   1
 -14  10  -4 428.270 69.5500   1
  -5 -17   1 2342.20 91.9400   1
  -5 -17  -1 2387.72 82.0600   1
  -1 -17  -5 2302.68 91.8600   1
  17  -1  -5 2446.88 81.9500   1
  17   5  -1 2397.76 82.0800   1
  17   1  -5 2365.89 81.9000   1
  -5   1  17 2320.85 70.9300   1
   1   5  17 2360.24 71.6800   1
  -5  -1  17 2311.99 74.8800   1
   5   1  17 2391.30 72.5300   1
  -1  17  -5 2499.11 87.0700   1
   1  17  -5 2469.55 88.3100   1
 -17   5   1 2457.48 87.7600   1
  17  -1   5 2390.26 92.3200   1
  -5  17  -1 2482.97 87.7600   1
   5  17  -1 2367.10 78.1700   1
 -17  -1   5 2314.48 94.0500   1
  -5 -13  11 1578.50 87.0400   1
 -11  13  -5 1444.15 80.5800   1
 -11 -13   5 1474.59 73.3100   1
 -11  13   5 1666.23 68.4100   1
 -13  11   5 1614.39 61.4600   1
  11  13   5 1564.98 57.7400   1
  -5  13  11 1483.10 55.7000   1
 -13   5  11 1532.72 59.4500   1
  -5  11  13 1655.83 63.2500   1
 -11   5  13 1572.97 60.4300   1
  13  11   5 1505.15 57.7600   1
   5  13  11 1636.41 61.6800   1
   5  11  13 1643.82 62.2100   1
 -13  -5  11 1652.95 61.8700   1
  13  -5 -11 1549.52 65.3900   1
 -13 -11   5 1755.31 71.9000   1
 -11  -5  13 1516.52 57.8700   1
  -5 -13 -11 1630.11 67.3200   1
  -5 -11 -13 1496.11 60.7800   1
 -11 -13  -5 1585.69 66.3800   1
  11   5  13 1580.38 55.7300   1
  13   5  11 1610.24 56.3600   1
  -5 -13  11 1631.83 70.0700   1
 -13  11  -5 1571.96 93.0100   1
  -3   9  15 48.0500 36.2800   1
  -9   3  15 62.3900 34.5700   1
   3   9  15 77.0100 25.1200   1
  -9  -3  15 67.1800 32.3800   1
   9   3  15 69.5700 24.1500   1
   1  17  -5 2199.65 96.5600   1
  -1  17  -5 2325.45 108.480   1
 -17   5  -1 2379.49 93.1500   1
   5  17  -1 2297.31 95.7400   1
 -17   5   1 2350.94 89.9900   1
  17   1   5 2475.17 105.640   1
  -5  17  -1 2521.18 93.3400   1
  17  -1   5 2411.15 102.880   1
   5  17   1 2639.89 88.7900   1
  -5  17   1 2334.57 79.7300   1
  -1 -17   5 2252.88 98.7800   1
   1 -17   5 2135.30 84.2600   1
 -17   1   5 2387.39 86.5600   1
 -17  -1   5 2485.07 85.4600   1
  -1  17   5 2487.15 79.7600   1
   1  17   5 2398.43 77.8000   1
  17  -5   1 2153.67 80.3100   1
  17  -5  -1 2437.27 85.9900   1
  17   5   1 2417.34 82.5100   1
 -15   9   3 59.0700 28.6200   1
  -3 -15   9 55.3200 27.6800   1
  -9  15  -3 55.5500 41.3400   1
   9  15  -3 41.0100 32.6700   1
  15  -3   9 125.050 58.7500   1
  15   3  -9 79.2100 18.7900   1
  -3 -15  -9 89.0200 23.2400   1
  -9 -15  -3 60.5700 24.1400   1
  15  -3  -9 52.2700 28.2400   1
 -15  -3   9 69.4600 26.7300   1
   3  15   9 69.0600 30.2300   1
  -3  15   9 94.6200 26.4300   1
 -15   3   9 50.5400 23.1800   1
   9  15   3 84.6000 27.4600   1
  -9 -15   3 93.6200 23.2700   1
  -9  15   3 22.6300 38.6300   1
 -15   9   3 99.9900 29.8100   1
  -3 -15   9 120.910 46.6500   1
  -9  15  -3 47.1300 55.1100   1
 -15   9  -3 179.820 60.7300   1
  -8  16   0 290.840 37.3800   1
 -16   8   0 276.250 32.7000   1
  -8   0  16 275.090 38.0000   1
  16   0  -8 330.570 32.2000   1
   0   8  16 277.670 30.0700   1
  -8 -16   0 326.250 32.0200   1
 -16   0   8 334.880 35.2400   1
   0  16   8 337.330 31.2000   1
  16  -8   0 262.940 44.5700   1
  -8  16   0 344.590 39.9300   1
   0 -16   8 295.160 37.0800   1
   8  16   0 353.560 42.1500   1
 -16   8   0 310.150 41.7700   1
  16   0   8 343.570 48.2600   1
  -9  11  11 7648.55 175.860   1
 -11   9  11 7778.33 182.080   1
 -11  11   9 7729.62 177.610   1
  -5  -3  17 6753.27 161.700   1
   5   3  17 7225.53 166.980   1
  -3  -5  17 7476.24 176.930   1
 -11 -11   9 8227.50 225.430   1
 -11 -11   9 7606.55 180.260   1
 -11  -9  11 7203.26 168.190   1
  11   9  11 7207.28 168.670   1
   9  11  11 7615.67 174.090   1
  11  11   9 7743.80 181.240   1
  -3  17  -5 7587.05 187.110   1
  -5  17  -3 7146.43 173.890   1
   5  17  -3 7466.61 186.460   1
  17  -3   5 7259.21 196.690   1
 -17   5   3 7151.78 186.860   1
 -15  -7   7 4410.76 140.740   1
  -7  15  -7 3848.40 135.050   1
  -7 -15   7 3769.98 139.240   1
 -15   7   7 3936.50 112.970   1
  -7  15   7 4258.46 116.700   1
   7  15   7 4195.73 109.640   1
 -15  -7   7 4278.16 121.400   1
  15  -7  -7 3844.83 120.930   1
  -7   7  15 3985.56 107.100   1
 -17  -5   3 7317.68 224.350   1
  -7 -15  -7 4077.62 116.030   1
   3  17  -5 7075.41 210.930   1
   7   7  15 4255.49 113.670   1
  15   7   7 4224.30 112.360   1
  -3  17  -5 6867.46 192.760   1
  -7  -7  15 4346.04 116.000   1
   5  17   3 6560.26 159.830   1
 -17  -3   5 7136.17 189.100   1
  -5  17   3 7015.42 171.310   1
  -3 -17   5 7229.10 204.550   1
  17   5   3 7433.18 211.050   1
 -17   5   3 7203.89 183.540   1
  15  -7   7 4229.79 136.920   1
  17  -3   5 6839.77 193.540   1
  17   3   5 7196.58 212.860   1
  -5  17  -3 6925.73 191.740   1
   5  17  -3 7690.34 217.510   1
 -17   5  -3 7048.53 201.240   1
  -3 -17  -5 7193.57 200.550   1
  17  -5   3 6749.43 179.540   1
 -17   3   5 7016.36 174.690   1
  -3  17   5 6935.21 163.630   1
   3  17   5 6921.99 163.240   1
  -5 -17   3 6768.43 169.590   1
  17  -5  -3 6759.48 182.700   1
  17  -3  -5 7028.93 178.210   1
  -5 -17  -3 6922.97 175.620   1
  17   3  -5 6867.57 179.990   1
  -3   5  17 7254.75 174.320   1
  -5   3  17 6906.37 160.450   1
  17   5  -3 7321.04 186.390   1
   3   5  17 7204.82 166.240   1
  -8   2  16 144.780 35.9200   1
  -2   8  16 205.860 28.6600   1
  16  -2  -8 213.560 24.7800   1
  -2 -16  -8 160.010 33.5900   1
  -8 -16  -2 216.990 29.7100   1
 -16  -2   8 188.070 28.7000   1
   2  16   8 240.920 28.6400   1
  -8 -16   2 206.280 27.4800   1
  16  -8  -2 175.040 31.8800   1
   0   0  18 3286.94 95.8800   1
   0  18   0 3369.77 100.180   1
   8  16  -2 186.370 46.7000   1
  -2  16   8 171.930 34.4100   1
 -16   2   8 202.580 27.0300   1
   8  16   2 177.930 31.2100   1
  -8  16   2 74.2100 44.4500   1
 -16   8   2 228.640 43.9300   1
  -2 -16   8 192.290 44.7900   1
  -8  16  -2 208.070 52.1700   1
 -16   8  -2 184.520 41.7700   1
  16  -2   8 194.770 40.7000   1
  16   2   8 184.890 57.4800   1
  -8 -14   8 170.040 37.8600   1
 -14   8   8 227.830 36.8800   1
  -8  14   8 145.110 36.5000   1
   8  14   8 173.370 23.8800   1
  -8   8  14 187.330 38.3600   1
 -14  -8   8 208.620 28.4500   1
   8   8  14 197.070 32.9300   1
  -8 -14  -8 185.460 29.8600   1
  14   8   8 199.260 28.1000   1
  -8  -8  14 215.130 32.0100   1
 -14  -8   8 200.600 32.8000   1
  -8 -14   8 162.480 34.1200   1
 -12  12  -6 771.740 68.2700   1
 -12 -12   6 772.290 54.5800   1
 -12  12   6 811.290 51.2000   1
 -12   6  12 833.770 41.5500   1
  -6  12  12 726.910 40.0400   1
  12  12   6 912.790 44.6000   1
   6  12  12 917.400 42.5900   1
 -12  -6  12 969.930 47.1300   1
 -16   8   2 266.010 31.9700   1
  -6 -12 -12 979.570 47.0500   1
  12   6  12 1011.29 49.0700   1
 -12 -12   6 980.410 45.9700   1
  -8  -2  16 180.250 35.6900   1
   2   8  16 211.210 36.0900   1
 -18   0   0 3285.39 140.300   1
   0  18   0 3160.28 97.6600   1
  18   0   0 3385.87 107.050   1
   0 -18   0 3257.60 107.870   1
  16   2  -8 212.260 27.7100   1
   8   2  16 179.790 27.7200   1
  -8  16  -2 197.990 46.9700   1
   8  16  -2 247.280 37.4100   1
  16  -6   6 9951.45 269.360   1
  -2 -18   0 832.600 48.4000   1
   6   6  16 11059.9 242.110   1
  -6  -6  16 10604.3 233.580   1
  16  -6   6 10558.6 268.100   1
   2   0  18 766.600 40.6600   1
   0  -2  18 756.290 41.0100   1
  -2  18   0 831.290 57.1400   1
  16   6   6 11131.7 314.660   1
  -6  16  -6 10538.3 276.410   1
  -2   0  18 797.820 41.2600   1
   0   2  18 770.690 45.2900   1
  -2  18   0 920.090 60.8800   1
  -6 -16   6 10309.0 265.370   1
   0  18  -2 802.250 53.7800   1
 -16   6   6 11244.4 250.250   1
   2  18   0 926.600 59.4700   1
  -6  16   6 10803.5 237.980   1
 -16  -6   6 10058.1 237.960   1
   6  16   6 11067.3 246.520   1
  16  -6  -6 10114.4 233.400   1
  -6   6  16 10720.7 238.000   1
  -6 -16  -6 10638.7 262.080   1
 -18   0   2 949.210 60.5000   1
   0  18  -2 886.890 64.2500   1
 -18   2   0 966.410 62.3700   1
  18   0  -2 919.060 45.8800   1
   0 -18  -2 745.130 52.9000   1
  18   2   0 887.330 46.5700   1
   0 -18   2 869.900 58.9100   1
  18  -2   0 869.910 49.9300   1
  18   0   2 891.010 49.6500   1
   0  18   2 977.610 56.2800   1
   9   9  13 1050.07 47.7000   1
 -13  -9   9 1033.21 45.9800   1
   9  13   9 1012.91 43.5700   1
 -13   9   9 1041.25 51.7700   1
  -9   9  13 973.920 45.7400   1
  -9  13   9 1003.33 46.7700   1
  -9 -13   9 1035.47 71.3300   1
  -9 -13  -9 1095.87 54.1500   1
  13   9   9 1006.12 42.6700   1
 -15   9  -5 1530.37 84.6700   1
  -9  15  -5 1418.52 79.3000   1
  -5 -15   9 1591.34 82.1500   1
 -15   9   5 1682.37 68.4600   1
  -9 -15   5 1720.83 76.9900   1
  -9  15   5 1773.42 70.5300   1
   9  15   5 1696.22 63.4000   1
  -5  15   9 1637.88 63.7300   1
 -15   5   9 1666.79 59.6200   1
   5  15   9 1625.28 56.8600   1
   9   5  15 1588.22 59.5600   1
  -5 -15   9 1461.04 67.2300   1
  15  -9   5 1333.83 65.0000   1
  -9   5  15 1499.31 58.9600   1
  15  -5  -9 1512.39 64.4900   1
 -15  -5   9 1513.34 59.8900   1
  -5   9  15 1531.51 57.0000   1
  15   9   5 1693.08 63.0700   1
  -9 -15  -5 1558.76 63.5700   1
  -5 -15  -9 1455.86 56.5900   1
  -9  -5  15 1657.39 57.7200   1
   5   9  15 1554.12 55.5900   1
  -9 -13   9 1115.46 66.6900   1
  -9  -9  13 1156.83 51.7100   1
 -10  14  -6 37.3100 48.6700   1
 -14  10   6 60.2200 37.8200   1
 -10  14   6 4.80000 37.1400   1
  18  -2  -2 33.9700 26.9900   1
  -6  14  10 44.7700 37.0400   1
 -14   6  10 18.9200 31.3500   1
  14   6  10 35.2100 20.4600   1
   2  18  -2 56.5400 37.0500   1
  18   2  -2 45.3500 24.3800   1
  -2 -18  -2 65.8500 22.8700   1
  -2 -18   2 31.8300 22.2300   1
  18   2   2 37.0500 27.6500   1
  -2  18   2 75.0700 40.4600   1
   2  18   2 45.3100 35.6200   1
  -2  18  -2 47.5600 30.1000   1
  -2  18  -2 98.3100 36.3000   1
   2  18  -2 70.7900 46.3000   1
 -18   2  -2 67.2100 56.3900   1
  10  14   6 27.6900 22.7600   1
   6  14  10 -6.5800 21.1200   1
  -6 -14  10 3.64000 35.3400   1
 -14  10  -6 52.4300 49.5900   1
 -18   2   2 65.0500 38.2700   1
  10   6  14 -28.870 31.0500   1
  -6  10  14 -11.570 33.0100   1
   2  -2  18 56.1800 34.8500   1
 -10   6  14 17.8400 24.9900   1
   6  10  14 12.1800 32.7100   1
 -10  -6  14 30.7100 30.2500   1
  -2  -2  18 66.6400 26.4200   1
   2   2  18 50.0900 35.5500   1
  -2   2  18 95.0100 35.6600   1
 -16   4   8 3824.62 104.420   1
  -4  16   8 3881.49 106.470   1
 -16  -4   8 3697.37 112.870   1
   4  16   8 3650.82 100.150   1
  16  -4  -8 3522.10 102.900   1
  -4   8  16 3481.16 97.3800   1
  -8   4  16 3654.59 99.9400   1
  -4 -16   8 3488.24 115.180   1
  -8  16  -4 3780.11 114.560   1
   8   4  16 3784.57 103.730   1
  16   4  -8 3700.39 110.910   1
  -8  -4  16 3717.44 99.5400   1
  16   8   4 3755.61 108.530   1
   4   8  16 3657.78 99.3200   1
  -4 -16  -8 3511.80 105.120   1
  -8 -16  -4 3722.08 115.190   1
  16  -4   8 3719.59 146.170   1
  -8  16  -4 3536.25 121.170   1
  -4 -16   8 3695.85 142.470   1
 -16   8   4 3774.21 112.450   1
  -8  16   4 3882.00 113.480   1
   8  16   4 3803.51 107.650   1
  -8 -16   4 3514.63 114.870   1
 -16   8  -4 3417.12 125.050   1
  16   8   4 3939.81 157.280   1
  -5  17  -5 13307.9 336.270   1
  17  -5  -5 12959.2 301.430   1
 -17  -5   5 13195.4 305.070   1
  -5 -17   5 13191.2 315.130   1
  17   5  -5 12762.5 286.300   1
 -17   5   5 13537.7 290.150   1
  -5  17   5 13515.4 288.110   1
  -5 -17  -5 12956.0 293.440   1
  17  -5   5 13751.8 320.510   1
  -5  17  -5 13940.8 307.560   1
   5  17   5 13407.5 285.700   1
  17   5   5 14217.0 354.810   1
  17  -5   5 12882.8 318.300   1
 -13  11   7 792.030 42.7800   1
 -13  13   1 12026.0 278.430   1
 -13  13  -1 11945.7 280.650   1
  -7  17   1 1019.38 53.6900   1
 -17  -1   7 1118.77 51.7800   1
 -17   1   7 1058.66 48.9200   1
  13  -1 -13 11248.1 254.650   1
  -1  17   7 1077.88 53.9200   1
   1  17   7 1076.46 50.9100   1
  17  -7  -1 956.860 52.5100   1
 -13 -11   7 767.440 60.4100   1
 -11 -13   7 815.680 59.4400   1
 -11  13   7 767.840 43.2600   1
 -13   7  11 804.110 46.5300   1
  -7  13  11 772.460 48.3500   1
 -11   7  13 777.890 41.2500   1
  -7  11  13 744.410 40.7100   1
  11  13   7 840.800 42.0000   1
   7  13  11 849.580 46.8800   1
  13  11   7 815.290 41.1800   1
   7  11  13 847.600 40.4100   1
 -13  -7  11 855.150 44.1100   1
 -11  13  -7 751.500 83.7000   1
  17  -7   1 978.940 57.9100   1
  -7 -13  11 804.710 70.8600   1
  -7 -17   1 1070.50 50.2900   1
  -7 -17  -1 1108.04 58.3900   1
  17  -1  -7 1093.88 53.5000   1
  17   1  -7 1112.37 49.2800   1
  -1   7  17 1146.57 48.3800   1
   1   7  17 1088.47 46.8400   1
  -7   1  17 1069.58 52.1600   1
  -7  -1  17 1046.16 50.0000   1
   7   1  17 1202.59 55.5400   1
 -17   7   1 1195.57 59.3800   1
  -7  17  -1 1237.15 57.2500   1
   7  17  -1 1213.91 60.1600   1
  -7 -13  11 808.150 46.3100   1
 -11 -13  -7 910.570 51.1000   1
  -7 -11 -13 784.770 46.5600   1
  13   7  11 837.410 43.8300   1
  -7 -13 -11 842.560 49.1600   1
  11   7  13 866.600 40.4900   1
 -11  -7  13 940.330 46.3800   1
 -13 -11   7 832.730 43.1700   1
  -1  13  13 11895.3 258.330   1
   1  13  13 12459.4 266.500   1
 -13   1  13 12019.7 264.180   1
 -13  -1  13 12398.5 268.550   1
  13   1 -13 11746.8 264.010   1
  13  13  -1 12730.8 289.290   1
 -13  13  -1 12075.5 273.520   1
 -13  13   1 12251.9 274.230   1
  -1 -17   7 1005.47 67.3100   1
   7  17   1 1139.93 59.1000   1
  -7  17  -1 962.150 56.5700   1
 -17   7   1 1048.50 63.0400   1
  17  -1   7 1054.73 60.7200   1
   7  17  -1 1028.92 64.5300   1
 -17   7  -1 893.910 57.9000   1
  17   1   7 993.650 72.8600   1
  -5  -5  17 13372.0 280.190   1
   5   5  17 13607.8 280.940   1
  -5   5  17 13354.0 277.970   1
  -4  18   0 1339.18 67.1600   1
  -4   0  18 1201.55 49.2100   1
  12  14   0 11719.2 266.550   1
 -14  12   0 11283.0 272.080   1
 -12  14   0 10752.6 259.960   1
   0  14  12 11146.3 243.490   1
  14  12   0 11644.0 276.610   1
 -14   0  12 11213.2 249.010   1
   0  12  14 11231.2 243.800   1
 -12   0  14 11167.9 247.450   1
   0  18  -4 1217.64 79.2100   1
 -18   4   0 1226.46 64.4600   1
   4  18   0 1338.22 66.9800   1
  -4  18   0 1354.06 61.4900   1
  18   0   4 1353.13 76.5300   1
 -18   0   4 1361.49 67.6900   1
   0 -18   4 1293.77 71.3100   1
   0  18   4 1220.97 55.8800   1
  18  -4   0 1256.28 59.2600   1
   4   0  18 1225.50 50.1700   1
  -4 -18   0 1278.84 56.3300   1
  18   4   0 1317.11 59.3600   1
  18   0  -4 1390.91 59.7700   1
 -12  14   0 11003.8 251.340   1
  12  14   0 11095.4 324.450   1
 -14  12   0 11579.0 264.560   1
  12   0 -14 10779.1 250.080   1
  14   0 -12 10575.3 239.010   1
 -12 -14   0 11402.9 262.990   1
  18   0   4 1304.61 62.3000   1
 -18   0   4 1331.95 64.5800   1
   0  18  -4 1283.23 62.7500   1
   0   4  18 1174.04 48.4900   1
  18  -2   4 2340.79 93.6700   1
 -18   2   4 2210.73 82.2000   1
  18   2   4 2335.00 98.0200   1
 -18  -2   4 2359.22 94.0500   1
 -18   4   2 2270.97 87.5000   1
  -4  18  -2 2367.46 95.6600   1
   4  18  -2 2449.69 102.470   1
  -2  18  -4 2328.23 95.2800   1
   2  18  -4 2231.89 95.2000   1
 -18   4  -2 2340.89 108.860   1
  -2  -4  18 2457.77 74.1000   1
 -18  -4   2 2301.45 107.700   1
 -12  14   2 8128.10 195.380   1
 -14  12   2 8250.09 196.560   1
 -12  14  -2 8016.83 199.340   1
 -14  12  -2 7586.05 186.360   1
  12   2 -14 7139.62 186.070   1
  14   2 -12 7921.71 201.890   1
 -12 -14  -2 7918.72 203.170   1
  14  -2 -12 8105.98 199.620   1
 -12  -2  14 8074.22 186.540   1
   2  12  14 7949.54 185.500   1
 -12 -14   2 8110.24 203.350   1
 -14  -2  12 8385.64 193.700   1
 -12   2  14 7890.84 181.400   1
  -2  12  14 8088.12 184.580   1
   2  14  12 7901.71 182.300   1
 -14   2  12 8146.24 188.950   1
  -2  14  12 7534.26 172.070   1
 -12  14   2 7633.00 188.460   1
  12  14   2 8084.20 202.120   1
 -14  12   2 7741.00 187.480   1
 -12  14  -2 7539.60 202.450   1
 -14  12  -2 7512.33 199.290   1
  -2 -14  12 7280.66 229.900   1
   2  18  -4 2441.86 80.4400   1
  18   2  -4 2224.25 77.2000   1
  18   2   4 2441.56 91.7900   1
 -18   4   2 2419.81 85.2000   1
   4   2  18 2439.22 76.3400   1
  -4  -2  18 2427.78 73.7000   1
   2   4  18 2437.82 73.2800   1
  -4   2  18 2431.45 76.3100   1
  -2   4  18 2352.37 75.6300   1
  18   4  -2 2248.93 82.5700   1
  18  -2  -4 2299.90 79.7300   1
  -2 -18  -4 2286.25 93.4000   1
  -4 -18  -2 2271.77 90.8800   1
  18  -4  -2 2159.48 79.3100   1
  -2  18  -4 2399.82 84.3900   1
 -12  10  10 8000.13 186.730   1
 -10  12  10 7756.14 183.640   1
 -10  10  12 7729.54 179.600   1
  10  12  10 7643.33 177.620   1
  12  10  10 8274.88 193.630   1
  10  10  12 7912.51 184.920   1
 -12 -10  10 7784.47 188.120   1
 -10 -10  12 7961.25 188.350   1
 -10 -12  10 7658.45 196.810   1
  -4 -18   2 2239.39 91.9800   1
  18   4   2 2337.29 90.8600   1
  -2 -18   4 2274.66 96.5700   1
  18  -4   2 2115.80 77.1200   1
  -2  18   4 2438.59 76.9600   1
   2  18   4 2369.66 79.3300   1
   4  18   2 2399.20 82.3000   1
  -4  18   2 2438.61 83.2500   1
   4  18  -2 2415.24 79.2300   1
 -18   2   4 2409.76 90.1300   1
  -4  18  -2 2462.91 85.0400   1
  18  -2   4 2274.81 88.0700   1
  12  14  -2 8045.70 196.760   1
 -15  11   1 5378.34 140.150   1
  11  15  -1 5826.08 155.270   1
 -11  15   1 5896.62 153.220   1
 -17   7   3 5902.81 159.050   1
  -7  17  -3 5637.85 148.960   1
   7  17  -3 5869.15 153.990   1
  17  -3   7 6001.23 171.350   1
  17  -3   7 5727.43 174.130   1
   7   3  17 5728.59 140.950   1
  17   7   3 5476.05 143.360   1
  -7  -3  17 5825.62 140.380   1
  17   3  -7 5531.68 145.580   1
   3   7  17 5680.32 136.960   1
  -7   3  17 5728.02 141.390   1
  -3 -17   7 5712.82 175.790   1
 -17   7   3 5725.48 153.480   1
  17   7   3 5848.44 158.180   1
   7  17   3 5858.84 151.530   1
 -17   3   7 5783.69 156.880   1
  -3  17   7 5781.57 143.890   1
  -7 -17   3 5600.27 167.760   1
 -17  -3   7 5774.95 153.030   1
   3  17   7 5542.24 136.750   1
 -13  13  -3 7342.62 217.120   1
 -13  13   3 7435.07 185.910   1
  13  13   3 7768.79 194.130   1
  -3  13  13 7660.96 179.990   1
 -13   3  13 7678.14 179.330   1
   3  13  13 8040.21 186.380   1
 -13  -3  13 7600.57 180.700   1
 -13  13  -3 7213.84 178.290   1
  17  -7  -3 5087.99 140.720   1
 -15  11  -1 5444.01 163.030   1
  11  15   1 5683.15 161.520   1
  -7  17   3 5946.85 152.080   1
  -7  17  -3 5220.68 157.580   1
  17   3   7 5890.48 202.910   1
 -17   7  -3 5534.97 176.430   1
 -11  15  -1 5137.12 142.880   1
 -15  11   1 5109.99 141.100   1
 -11  15   1 5429.81 145.120   1
  -3   7  17 5462.18 137.430   1
  -1  15  11 5677.64 140.770   1
   1  15  11 5545.57 133.700   1
 -15   1  11 5570.97 136.020   1
 -15  -1  11 5250.99 131.550   1
 -11 -15   1 5519.18 148.110   1
  -1  11  15 5627.43 137.990   1
   7  17  -3 5644.09 173.850   1
  -3  17  -7 5557.38 169.330   1
   1  11  15 5671.29 139.250   1
 -11   1  15 5746.63 143.580   1
 -11  -1  15 5320.14 132.990   1
 -11 -15  -1 5541.29 150.560   1
 -11  15  -1 5696.84 150.760   1
  15  -1 -11 5259.87 134.960   1
  15   1 -11 5219.07 138.640   1
  11   1 -15 5213.88 136.660   1
 -15  11  -1 5650.73 151.630   1
  -7 -17  -3 5819.03 164.150   1
  17  -3  -7 5469.35 151.650   1
  -3 -17  -7 5888.23 170.170   1
  -8  12  12 5266.82 131.830   1
 -12 -12   8 5217.20 152.720   1
 -12 -12   8 5515.96 190.650   1
  -8 -12 -12 4918.26 137.370   1
 -12 -12   8 5143.90 138.790   1
  12   8  12 5320.17 133.540   1
 -12  -8  12 5166.70 131.560   1
   8  12  12 5475.09 135.230   1
  12  12   8 5431.93 137.530   1
 -12   8  12 5010.76 125.200   1
 -12  12   8 5369.18 139.510   1
 -15  -9   7 1716.14 68.8200   1
  -7   9  15 1664.50 65.1900   1
 -15  -7   9 1631.31 64.6700   1
  -9   7  15 1774.48 64.7800   1
   7   9  15 1696.47 61.4000   1
  15   9   7 1667.45 60.5700   1
  -7 -15  -9 1632.27 71.9500   1
  -9 -15  -7 1651.72 71.3700   1
   9   7  15 1695.20 58.3800   1
  -9  -7  15 1634.42 61.2200   1
  15   7   9 1655.89 58.6400   1
  -7 -15   9 1645.85 80.4900   1
  -3 -15  11 1473.22 80.7900   1
 -15  11  -3 1566.18 80.2300   1
 -11  15  -3 1469.43 83.0200   1
 -15  11   3 1614.50 68.7500   1
 -11  15   3 1573.87 62.9200   1
  11  15   3 1600.38 62.4800   1
 -11 -15   3 1665.43 71.5200   1
  -3  15  11 1576.12 63.2600   1
 -15   3  11 1613.46 61.2500   1
   3  15  11 1591.95 57.2200   1
 -15  -3  11 1613.34 64.2800   1
  -3  11  15 1592.16 63.1600   1
 -11   3  15 1531.39 61.0500   1
   3  11  15 1592.81 56.6700   1
 -11  -3  15 1515.82 55.2700   1
  15  -3 -11 1464.28 58.7300   1
 -11 -15  -3 1622.85 68.1900   1
  15   3 -11 1550.51 58.5100   1
 -11  15  -3 1548.44 69.4400   1
 -15  11   3 1727.95 67.5800   1
  -9  15   7 1617.45 60.3200   1
  -9 -15   7 1667.87 84.8600   1
  -9  15  -7 1564.46 99.8800   1
  -7 -15   9 1540.64 85.0700   1
 -15   9   7 1676.91 68.7500   1
 -15   7   9 1707.98 65.7000   1
  -7  15   9 1634.68 59.5900   1
   9  15   7 1578.30 55.5400   1
   7  15   9 1649.84 61.0800   1
  -4   4  18 8603.98 197.880   1
  -4 -18  -4 8572.93 226.290   1
  18  -4  -4 8197.24 196.070   1
  -4 -18   4 7987.84 197.210   1
   4  18   4 8719.20 205.240   1
  -4  18   4 8341.62 193.730   1
  18  -4   4 8018.06 202.340   1
 -18   4   4 8474.02 206.360   1
  18   4   4 8800.57 235.260   1
 -18  -4   4 8255.62 233.130   1
  -4  18  -4 8391.24 234.750   1
   4  18  -4 8426.74 241.930   1
   4   4  18 8306.71 187.120   1
  -4  -4  18 8563.72 193.290   1
   4  18  -4 8605.35 207.180   1
  -4  18  -4 8646.15 203.060   1
 -18   4   4 8801.64 215.680   1
  18  -4   4 8043.84 213.310   1
  16  -8   6 7071.61 189.010   1
  16  -6   8 7361.23 192.400   1
  -6  -8  16 7915.18 182.120   1
  16   6   8 7901.14 182.050   1
  -8  -6  16 7922.96 182.050   1
  16   8   6 7506.20 175.690   1
   6   8  16 7838.61 178.030   1
  -8 -16  -6 7831.95 203.140   1
  -6 -16  -8 7725.80 191.800   1
 -14  12  -4 2743.92 114.890   1
  -8   6  16 7749.19 179.750   1
  -6   8  16 7480.95 172.470   1
  -8  16  -6 7635.98 213.720   1
 -16  -6   8 8279.53 199.310   1
   6  16   8 7825.75 181.940   1
   8  16   6 7624.36 175.840   1
  -6  16   8 7967.28 184.980   1
 -16   6   8 8111.34 191.680   1
 -16  -8   6 8163.33 199.820   1
  -8  16   6 7861.45 183.540   1
  12   4  14 3185.02 89.6100   1
 -12 -14  -4 2920.64 95.7100   1
 -12  -4  14 3206.62 94.9800   1
 -14  -4  12 2738.28 84.9200   1
   4  12  14 3000.01 86.6200   1
 -12   4  14 2977.06 88.3000   1
   4  14  12 3107.28 87.5700   1
  -4  12  14 3163.51 91.2400   1
 -14   4  12 2826.12 82.7200   1
  -4  14  12 2884.79 85.9400   1
  14  12   4 2946.61 88.5100   1
 -12 -14   4 2935.20 99.4400   1
  12  14   4 2987.13 92.9500   1
 -14  12   4 2832.42 87.3000   1
 -12  14   4 2927.59 95.1300   1
 -12  14  -4 2869.81 108.430   1
 -16   8   6 7699.89 183.590   1
  -4 -14  12 2939.98 138.070   1
  -8 -16   6 7728.35 200.030   1
  -6 -16   8 7444.82 218.280   1
   8   6  16 7721.33 174.480   1
  18   4  -4 8137.02 193.210   1
  10  16   0 2261.58 82.5400   1
 -10  16   0 2053.07 77.9900   1
 -16  10   0 2199.37 79.1100   1
  16   0 -10 2106.20 74.7400   1
 -10   0  16 2202.46 72.1100   1
   0  10  16 2128.61 72.7000   1
 -10 -16   0 2134.40 81.1200   1
   0  16  10 2046.79 66.3700   1
 -16   0  10 2249.98 76.6200   1
 -10  16   0 1999.02 77.3400   1
 -16  10   0 2295.31 94.7800   1
  10  16   0 2235.40 97.5300   1
  16   0  10 2249.65 125.780   1
 -10  14   8 52.8000 38.5600   1
  10   8  14 72.0400 29.2400   1
  14  10   8 80.5200 26.0500   1
   8  10  14 43.5000 22.6200   1
 -14 -10   8 54.1300 23.9100   1
 -14  -8  10 67.0300 24.6300   1
   8  14  10 46.6500 28.5600   1
  -8  10  14 60.3200 33.1300   1
 -10   8  14 19.7600 32.6200   1
  10  14   8 78.4400 28.0400   1
 -14   8  10 68.7800 33.0900   1
  -8  14  10 20.0200 26.0000   1
 -14  10   8 62.4200 27.0200   1
  -8 -14  10 14.9200 43.2700   1
  10  16   2 548.130 42.8400   1
 -10  16   2 514.380 42.3100   1
 -16   2  10 480.590 39.9600   1
  -2  16  10 510.480 35.1500   1
   2  16  10 452.380 33.2800   1
  16  -2  10 491.750 69.5800   1
 -16  10  -2 522.840 53.5100   1
  -2 -16  10 427.400 53.6200   1
 -10  16  -2 346.940 46.0200   1
 -16  10   2 557.990 43.3100   1
  14   8  10 49.0800 26.6800   1
 -16  10   2 446.410 37.7000   1
  10  16  -2 518.640 37.3600   1
 -10  16  -2 476.330 42.0600   1
  16   2 -10 493.290 35.3900   1
  16  -2 -10 480.470 32.6300   1
 -10 -16  -2 480.850 32.2100   1
 -10 -16   2 446.080 33.3200   1
 -16  -2  10 514.120 33.0200   1
 -14 -10   8 76.3500 25.6800   1
  -8 -14  10 57.7100 24.0300   1
 -10 -14  -8 84.1500 26.6700   1
 -10  -8  14 72.5600 29.1100   1
  -8 -14 -10 58.5100 28.2300   1
   0  18  -6 2506.88 114.080   1
 -18   6   0 2363.06 95.5700   1
  18   0   6 2318.30 109.140   1
   6  18   0 2444.06 90.0900   1
  -6  18   0 2572.27 93.2800   1
 -18   0   6 2320.14 78.5800   1
   0  18   6 2326.89 73.2900   1
  18  -6   0 2241.74 85.5000   1
  -6 -18   0 2385.49 84.6200   1
  18   0  -6 2325.25 81.6000   1
   0   6  18 2601.71 80.7800   1
  -6   0  18 2660.93 82.0300   1
   6   0  18 2429.84 74.3800   1
  18   0   6 2282.01 85.1100   1
  -6  18   0 2651.94 91.3800   1
   6  18   0 2692.94 86.3800   1
 -10   2  16 453.860 41.1900   1
  -2  10  16 521.390 43.4300   1
 -10  -2  16 458.000 32.8200   1
  18   6   0 2548.74 83.6200   1
   2  10  16 499.690 41.8700   1
   1   1  19 1158.89 48.5800   1
  -1  -1  19 1230.83 56.1200   1
   1  -1  19 1154.45 49.1000   1
 -11  11  11 8931.47 204.000   1
  11  11  11 9388.28 211.180   1
 -11 -11  11 9367.42 214.110   1
   1  19  -1 1209.88 61.8000   1
  -1  19  -1 1170.34 55.6500   1
  17  -7   5 11935.2 286.580   1
  -5  -7  17 12513.7 273.720   1
  17   5  -7 12193.6 274.790   1
  17   7   5 12566.4 274.930   1
  -7  -5  17 12701.7 271.950   1
   7   5  17 12792.2 276.720   1
   5   7  17 12588.9 269.080   1
  -5 -17  -7 12120.9 275.580   1
  -5   7  17 12703.3 272.900   1
  -7   5  17 12799.1 273.010   1
  -7 -17  -5 12607.3 287.270   1
  17  -5  -7 11966.4 284.490   1
   5  17   7 12774.1 273.400   1
 -17  -5   7 12154.6 279.530   1
  -5  17   7 12576.0 271.260   1
   7  17   5 12202.8 269.120   1
 -17   5   7 12745.2 283.910   1
  -7  17   5 12900.8 279.640   1
  -7 -17   5 12463.5 297.200   1
 -17   7   5 13162.3 292.160   1
  -5 -17   7 12480.3 316.810   1
  17   7   5 13521.6 357.190   1
  -7  17  -5 12153.2 298.340   1
  17   5   7 13141.2 354.930   1
  -5  17  -7 12915.5 320.950   1
  19   1   1 1270.90 61.7300   1
  -1 -19   1 1203.89 59.6800   1
  19  -1  -1 1299.01 61.2700   1
  -1 -19  -1 1226.77 67.4400   1
  19  -1   1 1243.16 60.1700   1
  -1  19   1 1305.77 58.3400   1
   1  19   1 1369.53 64.3500   1
  -1  19  -1 1377.84 63.9700   1
   1  19  -1 1447.42 72.3700   1
 -19   1   1 1380.55 76.1600   1
 -19  -1   1 1392.13 81.1600   1
 -19   1  -1 1388.95 83.2200   1
 -13  13  -5 2439.49 114.180   1
 -13  13   5 2382.48 77.4800   1
 -13 -13   5 2459.68 91.7000   1
  13  13   5 2582.75 79.8100   1
  -5  13  13 2398.14 73.3700   1
  17  -5   7 12998.9 317.540   1
   5  13  13 2589.46 76.5100   1
 -13  -5  13 2550.65 80.3800   1
 -13 -13   5 2606.40 89.2900   1
  13   5  13 2586.91 78.1100   1
 -13   5  13 2596.47 80.9500   1
  19   1  -1 1250.61 55.6800   1
  -1   1  19 1177.48 54.9400   1
  -2  18  -6 5095.57 157.690   1
 -18   6  -2 5501.29 176.040   1
   6  18  -2 5516.76 169.590   1
  -6  18  -2 5157.36 150.720   1
  18   2   6 5400.26 162.440   1
 -18   6   2 5577.51 159.530   1
  18  -2   6 5305.02 156.510   1
   6   2  18 5201.08 130.210   1
  -6  -2  18 5154.88 130.280   1
  18   6  -2 5861.95 173.910   1
  18   2  -6 5494.98 145.190   1
  18  -2  -6 5104.82 144.830   1
  -6 -18  -2 5182.68 138.900   1
  18  -6  -2 4989.56 137.960   1
  -6 -18   2 5350.04 159.320   1
  18   6   2 5495.05 150.830   1
   2  18   6 5179.40 129.560   1
  -2  18   6 5168.07 128.780   1
   2   6  18 5182.60 131.230   1
 -18  -2   6 5350.72 148.990   1
 -18   2   6 5404.38 144.600   1
  -2 -18   6 4960.31 146.710   1
   6  18   2 5031.82 135.350   1
  -6  18   2 5009.77 131.020   1
  -6   2  18 5453.98 136.930   1
  -2   6  18 4950.49 124.530   1
  18   6   2 5707.38 163.410   1
  18  -2   6 5532.28 170.250   1
 -18  -2   6 5240.15 150.380   1
   6  18  -2 5208.84 135.850   1
  -6  18  -2 5419.38 142.410   1
 -18   6   2 4966.06 137.960   1
  18  -6   2 5025.41 150.050   1
  -9  17  -1 45.5300 31.3200   1
  -9  17   1 4.59000 41.8400   1
 -19   3  -1 137.190 41.1600   1
   1  19  -3 147.630 57.0200   1
 -15  11  -5 116.350 68.3900   1
 -11  15  -5 260.860 70.7700   1
  -5 -15  11 211.500 44.2000   1
 -11  15   5 246.820 42.9100   1
 -15  11   5 156.350 30.0900   1
 -11 -15   5 214.700 27.3300   1
  11  15   5 253.840 29.6600   1
  -5  15  11 146.010 28.1200   1
  -9 -13  11 4969.09 172.090   1
 -11 -13   9 5041.79 182.210   1
 -13  11   9 4886.68 122.460   1
 -11  13   9 4859.79 122.530   1
  -9  13  11 5089.89 132.920   1
 -13   9  11 5192.30 131.050   1
  -9  11  13 5145.16 124.920   1
 -11   9  13 4791.51 118.490   1
  11  13   9 5234.58 132.000   1
   9  13  11 5240.00 130.080   1
  13  11   9 5193.77 133.220   1
   9  11  13 5132.06 129.450   1
 -13  -9  11 5152.38 138.270   1
  11   9  13 5235.12 131.310   1
  13   9  11 4669.68 122.740   1
 -13 -11   9 5061.02 132.780   1
 -11  -9  13 5223.95 135.510   1
  -9 -13 -11 4664.45 126.190   1
  -9 -13  11 4955.97 159.620   1
 -13 -11   9 4911.45 149.980   1
 -11 -13   9 5377.38 169.200   1
 -15   5  11 204.220 35.8400   1
   5  15  11 166.710 26.0000   1
  -5  11  15 213.160 40.6900   1
  15  11   5 196.030 24.5200   1
 -11   5  15 146.650 36.3100   1
 -15  -5  11 161.990 28.4900   1
   5  11  15 167.820 35.3500   1
 -11  -5  15 206.080 33.4500   1
  -5 -15 -11 202.900 30.1400   1
 -11 -15  -5 208.270 27.6000   1
  11   5  15 186.920 36.4700   1
  -5 -15  11 180.830 36.8600   1
  -1  19  -3 99.0700 39.8600   1
 -19   3   1 118.760 47.0100   1
 -19  -1   3 125.830 36.4900   1
   3  19  -1 129.470 35.0800   1
  -3  19  -1 167.260 46.8600   1
 -19   1   3 144.180 36.1400   1
  -3  19   1 156.880 33.3200   1
   3  19   1 156.510 37.7400   1
  -1  19   3 163.470 40.9500   1
   1  19   3 185.000 29.4300   1
  19  -1   3 156.220 30.5600   1
  19   1   3 134.550 23.6300   1
  -1 -19   3 170.970 26.9700   1
  19  -3   1 125.920 30.7500   1
  19   3   1 120.280 25.1500   1
  -3 -19   1 142.820 30.4100   1
  19  -3  -1 145.240 30.6700   1
  -3 -19  -1 146.730 24.5600   1
  19   3  -1 146.730 24.4400   1
  19  -1  -3 123.020 21.8400   1
  -1   3  19 154.200 37.8200   1
  -3   1  19 153.890 27.2400   1
   1   3  19 146.010 28.2700   1
  -3  -1  19 146.950 28.4400   1
   3   1  19 98.1500 26.9600   1
  -1  -3  19 182.710 40.0400   1
   3  -1  19 134.580 28.1800   1
   1  -3  19 150.940 29.3500   1
   1  19  -3 166.340 44.1800   1
  -1  19  -3 109.290 45.4500   1
  -3  19  -1 197.970 46.5000   1
   3  19  -1 190.160 40.7300   1
  19   1   3 145.350 30.0600   1
  17   1   9 60.0300 55.2600   1
  17  -1   9 -78.350 54.2700   1
 -17   9  -1 -28.680 35.5200   1
 -17   9   1 -8.2400 43.1300   1
  -9  17  -1 11.0400 34.9800   1
  -9  17   1 -0.8400 31.0600   1
  -1  17   9 72.2000 35.0600   1
   1  17   9 -10.630 34.0500   1
 -17  -1   9 4.43000 26.9700   1
  -1   9  17 -33.010 35.6000   1
   1   9  17 -18.970 34.8800   1
  -9   1  17 44.2600 24.3200   1
  17  -1  -9 -2.3100 23.5300   1
  -9  -1  17 -19.050 31.4400   1
 -17   9  -1 -12.730 27.6600   1
 -17   9   1 11.2600 26.8700   1
  -4  10  16 144.230 38.4100   1
 -16  -4  10 216.390 30.6200   1
   4  16  10 216.670 27.7400   1
  -4  16  10 218.020 30.1900   1
 -16   4  10 259.980 29.2200   1
 -10 -16   4 222.260 28.0300   1
  10  16   4 244.190 30.4300   1
 -10  16   4 241.970 34.0400   1
 -16  10   4 191.290 42.5700   1
  16  10   4 233.100 25.4500   1
 -10  -4  16 238.340 27.2500   1
  -4 -16  10 280.000 48.2900   1
 -10   4  16 232.130 29.4900   1
  16  -4 -10 236.800 26.5200   1
   4  10  16 239.240 29.5700   1
 -10 -16  -4 214.170 28.3800   1
  10   4  16 216.210 28.8000   1
  16   4 -10 224.180 23.4000   1
 -10  16  -4 175.990 35.5600   1
 -10  16  -4 259.430 50.5000   1
 -16  10  -4 255.720 67.9000   1
  -6  14  12 1339.31 58.8200   1
 -12  -6  14 1321.67 50.5200   1
  -6 -14  12 1368.27 93.4900   1
 -14  12  -6 1279.27 92.2000   1
 -12  14  -6 1382.01 81.7500   1
 -14 -12   6 1343.96 62.4900   1
 -12 -14   6 1362.90 64.8700   1
 -14  12   6 1326.06 61.6700   1
  -6  12  14 1142.65 53.2100   1
 -12   6  14 1374.46 58.2400   1
  14  12   6 1382.72 55.1600   1
   6  14  12 1304.43 50.9700   1
   6  12  14 1455.91 58.6700   1
 -14  -6  12 1342.39 57.1500   1
 -14 -12   6 1301.86 59.0300   1
 -12  14   6 1260.22 53.6900   1
  12  14   6 1371.57 53.7800   1
 -14   6  12 1248.30 55.9200   1
  -6 -14 -12 1213.01 52.7100   1
  12   6  14 1368.86 56.0400   1
  14   6  12 1336.44 53.3800   1
 -12 -14  -6 1364.84 59.2200   1
  -6 -14  12 1274.14 63.1100   1
  18  -4   6 10979.6 268.500   1
  -6  18  -4 11396.4 257.350   1
   6  18  -4 10711.7 238.850   1
  -4  -6  18 11267.2 244.870   1
  18   6  -4 11176.4 254.330   1
  -6  -4  18 10897.4 238.060   1
  18   4  -6 10636.7 242.180   1
   4   6  18 11327.3 242.160   1
  -6   4  18 10675.6 228.360   1
 -18   6  -4 11096.0 285.170   1
   6  18  -4 9987.19 259.210   1
  18  -4   6 10789.7 280.200   1
   6   4  18 10711.0 229.330   1
 -18  -4   6 10739.7 253.580   1
 -18   4   6 10706.3 238.730   1
  -4  18   6 11044.8 243.660   1
  -6 -18   4 10141.0 257.870   1
 -18   6   4 10569.0 237.130   1
   4  18   6 10512.4 228.240   1
  18  -6  -4 10005.3 231.190   1
  18  -4  -6 10663.5 246.750   1
  -6 -18  -4 10383.8 241.430   1
  -4 -18  -6 10351.0 254.990   1
 -18  -6   4 11114.9 298.510   1
  -4   6  18 10906.5 236.460   1
  -6  18  -4 10480.5 262.810   1
  18   4   6 10733.8 288.250   1
   6  18   4 11168.9 246.190   1
  18   6   4 10809.0 277.000   1
 -18   6   4 10524.9 243.040   1
  -4  18  -6 10239.5 263.870   1
  -6  18   4 10608.2 237.910   1
  -4 -18   6 10022.3 241.340   1
  19   3   3 2007.94 82.4000   1
  17  -3  -9 1227.27 55.4300   1
  -9 -17  -3 1182.44 56.1000   1
  -9   3  17 1108.27 51.3800   1
  -3  19   3 1761.29 64.7800   1
 -19   3   3 1690.50 68.8500   1
  -3  19  -3 1859.14 91.1700   1
 -19  -3   3 1993.38 94.2400   1
   3  19  -3 1966.00 85.7800   1
 -17   9   3 1128.12 58.8200   1
  -9  17  -3 1244.01 57.7200   1
   9  17  -3 1270.29 58.5900   1
   9   3  17 1173.57 48.6300   1
  17   3  -9 1300.33 57.4500   1
  -3   9  17 1232.43 56.9000   1
 -17  -3   9 1262.56 54.6100   1
   3  17   9 1128.07 47.1300   1
  -9 -17   3 1185.96 57.9300   1
  -3  17   9 1228.65 50.8200   1
 -17   3   9 1305.77 56.4100   1
   9  17   3 1256.29 54.8600   1
 -17   9   3 1205.18 61.4900   1
  -3 -17   9 1085.40 66.3500   1
  -9  17   3 1254.43 55.8600   1
  -9  17  -3 1046.76 64.3000   1
  17  -3   9 1227.88 72.9400   1
 -17   9  -3 904.780 79.9800   1
  17   3   9 1288.47 88.1000   1
  -9  -3  17 1228.09 54.4200   1
   3   9  17 1167.83 54.2500   1
  -3   3  19 1922.03 63.2500   1
   3  19   3 1889.66 66.2000   1
  19   3   3 1850.73 83.5600   1
  19  -3   3 1862.99 74.9500   1
  -3 -19   3 1823.29 82.1200   1
  19  -3  -3 1898.32 79.1300   1
  -3 -19  -3 1844.80 79.5500   1
  19   3  -3 1864.41 72.0700   1
   3   3  19 1881.34 62.7800   1
  -3  -3  19 1915.25 67.8200   1
 -19   3   3 1850.77 73.5900   1
  -3  19  -3 1931.59 70.7800   1
   3  19  -3 2002.54 71.3600   1
  -8  16   8 5162.74 126.970   1
 -16  -8   8 5325.23 152.820   1
  -8 -16   8 4865.96 164.150   1
 -16  -8   8 5168.64 155.750   1
  -8  -8  16 5236.97 130.610   1
  16   8   8 5103.68 127.980   1
  -8 -16  -8 5077.55 150.310   1
   8   8  16 5139.14 127.100   1
  -8   8  16 4800.33 118.440   1
 -16   8   8 5010.26 130.130   1
   8  16   8 5201.62 129.650   1
  -7 -17   7 13649.6 315.690   1
   7  17   7 14647.4 311.610   1
   1   5  19 2373.89 75.9500   1
  -5   1  19 2290.99 70.2700   1
 -17  -7   7 14178.3 331.770   1
  -7  17   7 13872.7 289.770   1
   1  19   5 2327.27 77.2100   1
  -7  17  -7 14211.5 338.430   1
  -5  -1  19 2447.62 73.3900   1
 -17   7   7 14260.4 309.490   1
 -13   7  13 3814.99 100.520   1
  -5 -19   1 2373.42 98.8100   1
  19   1   5 2481.49 95.8300   1
 -19  -1   5 2470.22 88.7600   1
  19  -1   5 2325.98 94.0000   1
  -1   5  19 2050.60 70.0800   1
  19   1  -5 2125.38 76.1000   1
  19   5  -1 2294.17 78.6800   1
  19  -1  -5 2298.54 84.6000   1
  -5 -19  -1 2270.57 88.0300   1
  19   5   1 2399.89 85.0200   1
  19  -5   1 2192.19 86.5800   1
   5  19  -1 2319.09 76.6900   1
  19  -5  -1 2250.28 88.1700   1
 -19  -1   5 2315.57 85.7100   1
  19  -1   5 2305.05 99.1600   1
  -5  19   1 2302.65 84.6000   1
  19   1   5 2206.01 89.4400   1
   5  19   1 2387.12 82.4700   1
   7   7  17 14036.8 293.650   1
   1  19  -5 2325.97 104.380   1
  -1  19  -5 2377.28 98.8400   1
 -19   5  -1 2344.67 96.9000   1
   5  19  -1 2290.11 88.6700   1
 -19   5   1 2326.79 93.3600   1
   1  19  -5 2517.38 86.2000   1
  -1  19  -5 2336.99 79.2900   1
  -1  -5  19 2411.03 73.7600   1
  -1  19   5 2053.35 67.9200   1
 -19   1   5 2532.63 95.0200   1
   5  -1  19 2464.30 75.1000   1
   5   1  19 2425.12 73.2800   1
 -13 -13   7 3704.88 111.330   1
  13   7  13 3556.84 93.9300   1
 -13  -7  13 3563.67 100.150   1
   7  13  13 3764.29 98.4700   1
  13  13   7 3838.93 104.950   1
  -7  13  13 3639.92 97.1800   1
 -13  13   7 4218.72 116.490   1
 -13 -13   7 3903.11 135.280   1
 -13  13  -7 4023.98 149.680   1
  17   7   7 14439.7 309.000   1
  -7  -7  17 13909.1 293.700   1
  -7 -17  -7 13319.0 308.410   1
  -7   7  17 14355.7 299.030   1
 -19   1   5 2473.72 89.9900   1
  -5  19  -1 2583.85 89.6100   1
  -5  19  -1 2087.45 79.4800   1
  -9 -15  -9 253.110 32.0600   1
  -9 -15   9 307.580 42.8300   1
 -15   9   9 266.190 31.0000   1
   9  15   9 221.130 25.9000   1
  -9  -9  15 225.070 35.1700   1
  -9   9  15 274.090 31.3600   1
  -9  15   9 291.880 32.9700   1
 -15  -9   9 218.820 33.0800   1
 -15  -9   9 224.930 27.3400   1
  15   9   9 239.160 30.3100   1
   9   9  15 210.950 27.6600   1
 -10  12  12 7566.15 174.510   1
 -12  10  12 7860.28 180.150   1
  12  12  10 8410.93 189.690   1
  10  12  12 8295.55 187.840   1
  12  10  12 7682.36 173.940   1
 -12 -10  12 8540.15 200.460   1
 -12 -12  10 8098.70 191.870   1
 -12 -12  10 8600.86 218.470   1
 -12  12  10 8013.56 184.550   1
  18   0   8 1096.10 75.8700   1
 -18   8   0 1073.60 61.0300   1
   8  18   0 1071.32 63.3700   1
  -8  18   0 1101.24 58.8200   1
 -18   0   8 1089.85 50.9600   1
   0  18   8 1037.30 46.3000   1
  -8 -18   0 1020.19 55.6700   1
   0   8  18 1009.24 45.7400   1
  18   0  -8 1034.51 53.3800   1
  -8   0  18 1036.28 45.9600   1
 -18   8   0 899.380 48.3800   1
  -8  18   0 1011.48 52.3600   1
   8  18   0 1038.43 57.0200   1
  10   6  16 1742.58 63.7400   1
 -10 -16  -6 1559.28 69.5300   1
  -6 -16 -10 1454.01 60.9400   1
 -10  -6  16 1648.97 60.5900   1
 -14  14   0 9572.52 227.580   1
   0  14  14 9703.39 215.000   1
 -14   0  14 9824.36 218.880   1
  14   0 -14 8585.66 207.290   1
 -14  14   0 9083.82 211.830   1
  14  14   0 9835.08 229.540   1
 -16  10  -6 1704.51 99.3700   1
  -6 -16  10 1562.90 81.4100   1
 -10  16  -6 1531.30 84.6000   1
  -6 -16  10 1547.31 80.3100   1
 -10 -16   6 1606.35 73.7000   1
 -16  10   6 1621.80 66.8200   1
 -10  16   6 1390.60 56.6500   1
  10  16   6 1587.32 58.2700   1
 -16   6  10 1696.74 63.4800   1
  -6  16  10 1650.94 59.3900   1
   6  16  10 1683.96 62.0200   1
 -16  -6  10 1612.59 64.1000   1
 -10   6  16 1594.33 63.0500   1
  -6  10  16 1654.94 62.4600   1
  16  10   6 1597.10 61.3600   1
  16   6  10 1639.41 58.8400   1
   6  10  16 1713.63 62.1400   1
   8  18  -2 1909.19 92.4600   1
  18   2   8 1622.99 85.6900   1
 -18   8  -2 1803.78 91.5600   1
  18  -2   8 1690.81 86.2600   1
  -8  18  -2 1595.19 73.2200   1
 -18   8   2 1735.19 77.9900   1
   8  18   2 1710.56 68.2300   1
  -8  18   2 1757.40 67.6900   1
 -18   2   8 1793.72 65.9400   1
  -2  18   8 1838.33 67.4200   1
 -18  -2   8 1771.57 66.3000   1
   2  18   8 1787.47 60.9600   1
  -8 -18   2 1696.38 73.0700   1
  -8 -18  -2 1752.22 65.2700   1
  18  -2  -8 1742.18 69.0400   1
  -8  18  -2 1799.43 75.6200   1
  18   2  -8 1768.16 66.5600   1
 -18   8   2 1887.73 74.0400   1
   8  18  -2 1833.31 71.3900   1
  -8  -2  18 1840.44 65.0400   1
   8   2  18 1908.66 63.0000   1
  -2   8  18 1898.69 62.4600   1
  -8   2  18 1923.21 68.3600   1
   2   8  18 1756.75 60.4800   1
   5   3  19 5739.47 143.250   1
  -5  -3  19 5691.34 140.400   1
   3   5  19 5670.23 138.510   1
  19   5  -3 5384.37 139.200   1
  -5   3  19 5855.78 141.920   1
  -3   5  19 5407.58 129.780   1
  19   3  -5 5621.94 148.360   1
  -3 -19  -5 4901.88 148.660   1
  19  -3  -5 5426.93 145.110   1
  19  -5  -3 5210.42 146.490   1
  -5 -19   3 5033.18 135.740   1
   3  19   5 5384.63 133.290   1
  19  -5   3 5069.23 151.950   1
  -3  19   5 5486.53 134.640   1
  19   5   3 5500.69 154.200   1
  -3 -19   5 5033.49 144.010   1
  -5  19   3 5594.58 140.480   1
 -19   3   5 5415.38 145.160   1
   5  19   3 5654.09 151.700   1
  19  -3   5 5240.22 148.810   1
 -19  -3   5 5589.86 159.870   1
  19   3   5 5674.04 167.660   1
 -19   5   3 5459.46 144.090   1
  -5  19  -3 5135.97 147.830   1
  -5  19  -3 5836.94 153.370   1
  19   5   3 5788.81 168.010   1
 -17  -5   9 5256.52 143.760   1
  -5   9  17 4928.67 123.730   1
  -9   5  17 4950.66 122.060   1
  -9 -17  -5 4728.81 125.780   1
  -5 -17  -9 4622.22 128.790   1
   5   9  17 4949.76 121.260   1
  19  -3   5 5449.68 154.970   1
   5  19  -3 5496.61 180.620   1
 -11  15  -7 73.6600 72.2900   1
  -7 -15  11 -34.940 48.3900   1
 -15  11   7 -0.6300 35.9100   1
 -11  15   7 27.6000 39.5500   1
  -7  15  11 8.74000 37.1300   1
 -15   7  11 11.3400 34.9200   1
   7  15  11 13.0500 27.6700   1
  -7  11  15 16.2200 34.0500   1
  -5 -19  -3 5329.16 153.650   1
 -11   7  15 33.6500 33.6800   1
 -15  -7  11 2.46000 23.3300   1
   7  11  15 -8.7400 22.9100   1
 -11  -7  15 -19.040 30.7000   1
  11   7  15 27.4800 31.5700   1
  -7 -15 -11 -4.3800 27.9000   1
 -11 -15  -7 41.4300 24.6500   1
  15   7  11 -12.200 28.2500   1
 -19   3   5 5631.38 157.400   1
  17   9   5 5263.41 133.850   1
  -9  -5  17 4961.02 124.800   1
   9   5  17 5016.64 121.880   1
  -1  15  13 6946.84 163.880   1
   1  15  13 7034.14 166.440   1
 -15   1  13 6906.80 162.010   1
 -15  -1  13 6950.00 165.670   1
  -1  13  15 7050.35 162.480   1
   1  13  15 6820.46 157.010   1
 -13   1  15 6592.34 155.460   1
 -13  -1  15 6582.22 154.210   1
  15  -1 -13 6438.77 169.300   1
  15   1 -13 6176.53 152.140   1
   5  17   9 5238.50 129.970   1
  -5  17   9 5195.58 127.240   1
 -17   5   9 5090.06 130.690   1
   9  17   5 5038.03 128.630   1
  -9 -17   5 4899.06 144.530   1
  -9  17   5 5085.91 130.040   1
 -17   9   5 4982.21 132.320   1
  -5 -17   9 4877.49 173.270   1
  -9  17  -5 4908.73 152.550   1
  17   9   5 5043.76 199.860   1
 -17   9  -5 5054.53 159.620   1
  -3  19  -5 5208.92 157.070   1
   3  19  -5 5576.25 170.180   1
 -19   5  -3 5451.31 175.410   1
 -19  -5   3 5168.30 181.370   1
   5  19  -3 5787.95 150.780   1
 -19   5   3 5779.71 154.230   1
   3  19  -5 5759.42 146.190   1
  17  -5   9 4521.04 145.070   1
  -3  19  -5 5963.93 150.780   1
  -3  -5  19 5879.64 142.610   1
 -13 -15  -1 6896.34 176.200   1
  13  15   1 7216.92 229.590   1
 -15  13  -1 6661.90 164.590   1
 -13  15  -1 6777.36 171.410   1
  13  15  -1 6936.17 172.170   1
 -15  13   1 6740.49 170.760   1
 -13  15   1 6962.48 174.050   1
 -13  15   1 6805.05 175.260   1
 -13 -15   1 6930.96 177.600   1
 -15  13   1 7495.30 189.680   1
 -13  15  -1 6954.25 188.270   1
 -15  13  -1 6536.65 179.650   1
 -10 -14  10 3526.23 133.700   1
 -14  14   2 5471.61 144.930   1
 -14  14  -2 5078.14 136.390   1
  14   2 -14 4844.70 134.690   1
 -10 -14 -10 3368.86 110.090   1
 -14  -2  14 5278.85 128.640   1
   2  14  14 5294.61 127.730   1
 -14   2  14 5424.36 138.580   1
  -2  14  14 5200.54 126.350   1
 -14  14   2 5456.19 142.550   1
 -14  14  -2 5485.84 157.940   1
  14  14   2 5357.32 187.160   1
 -10 -14  10 3545.15 126.800   1
 -14 -10  10 3832.13 127.730   1
 -10 -10  14 3511.10 100.420   1
 -14 -10  10 3603.55 106.960   1
  14  10  10 3538.42 99.0800   1
  10  10  14 3344.98 89.3400   1
  10  14  10 3838.70 107.350   1
 -10  10  14 3496.60 93.8800   1
 -14  10  10 3702.83 100.480   1
 -10  14  10 3687.31 102.200   1
  -6  18  -6 16560.0 382.420   1
  18   6   6 18434.9 482.530   1
  -6 -18   6 16146.9 376.850   1
 -18  -6   6 17192.5 413.710   1
 -18   6   6 16720.3 353.580   1
  -6  18   6 17288.0 394.280   1
   6  18   6 17639.7 402.700   1
  -6   6  18 16975.8 385.160   1
  -6 -18  -6 16237.6 370.220   1
   6   6  18 16734.0 340.410   1
  -6  -6  18 16569.8 338.510   1
  18  -6   6 16138.0 370.030   1
  12  16   0 4892.79 136.150   1
   0  20   0 2345.62 92.5100   1
  12  16   0 4934.94 179.860   1
 -16  12   0 4815.31 148.090   1
 -12  16   0 4662.94 132.950   1
 -12  16   0 4785.65 132.280   1
   0  16  12 4882.50 125.860   1
 -16   0  12 4739.65 124.100   1
   0  12  16 4847.47 122.050   1
 -12   0  16 4604.67 116.620   1
 -12 -16   0 4296.29 121.610   1
  16   0 -12 4513.13 128.700   1
  16  12   0 4875.41 144.620   1
  20   0   0 2391.69 89.3100   1
   0   0  20 2406.76 72.4400   1
   0  20   0 2618.61 89.2300   1
 -16  12   0 4338.28 123.290   1
 -20   0   0 2605.74 115.190   1
 -15  13  -3 1543.98 91.5900   1
 -13  15  -3 1385.38 73.3000   1
 -15  13   3 1510.85 68.4800   1
  15  13   3 1552.62 75.0100   1
  13  15   3 1480.46 61.6400   1
  -3  15  13 1428.30 53.8900   1
 -15   3  13 1489.05 58.1100   1
   3  15  13 1411.72 53.3400   1
  -3  13  15 1461.52 58.9500   1
 -13   3  15 1463.90 58.4500   1
 -15  -3  13 1483.36 54.7400   1
 -13 -15   3 1466.29 64.6700   1
 -15  13   3 1532.85 69.7000   1
  15   3 -13 1319.40 54.5500   1
 -13 -15  -3 1426.26 58.9800   1
 -13  -3  15 1391.19 55.2500   1
 -13  15  -3 1558.96 69.8700   1
   3  13  15 1514.71 58.9900   1
 -13  15   3 1400.93 59.8000   1
  -8 -14 -12 2310.10 86.8800   1
  -8 -14  12 2405.37 98.2300   1
   4  18   8 8136.12 185.800   1
  18  -4  -8 7422.59 185.780   1
  -4   8  18 7635.92 173.500   1
  -8 -18  -4 7405.78 194.830   1
  -8   4  18 7750.40 174.520   1
   4   8  18 7754.12 176.070   1
  -8  -4  18 8009.77 183.800   1
  18   8   4 7931.51 185.450   1
  18   4  -8 7518.61 184.070   1
   8   4  18 7803.36 175.530   1
   8  18  -4 7868.23 189.480   1
  -8  18  -4 7521.25 187.090   1
  18  -4   8 7086.94 187.090   1
 -18   8   4 7791.53 186.220   1
  -2  20   0 1141.28 55.5800   1
   2  20   0 1095.64 53.7800   1
   0  20  -2 1129.13 62.0300   1
   0  -2  20 1074.37 69.7900   1
   2   0  20 1068.47 52.4400   1
  -2   0  20 1105.84 47.7100   1
   0   2  20 1201.43 56.5900   1
  20   0  -2 1192.24 60.3800   1
  20   2   0 1266.03 57.1600   1
  20  -2   0 1229.92 57.6300   1
  20   0   2 1226.94 62.2600   1
   0  20   2 1352.60 63.0900   1
  -2  20   0 1310.14 67.6000   1
   2  20   0 1382.05 69.0200   1
   0  20  -2 1446.67 79.4600   1
 -20   0   2 1373.20 74.6900   1
 -20   2   0 1289.37 78.0500   1
  -8  18   4 7653.62 185.120   1
 -12   8  14 2368.15 72.2400   1
 -16  12  -2 2000.11 93.4300   1
 -12  16  -2 1961.11 81.2900   1
  12  16   2 1869.18 79.9600   1
 -16  12   2 2047.82 82.9100   1
 -12  16   2 2064.57 82.2200   1
  -2  16  12 1937.76 68.6100   1
 -16   2  12 1888.16 62.8800   1
   2  16  12 1926.11 67.3600   1
 -16  -2  12 1829.53 62.3100   1
 -12 -16   2 1867.75 71.0500   1
  -2  12  16 1784.92 65.5500   1
 -12   2  16 1929.63 68.0300   1
   2  12  16 1832.98 61.1000   1
 -12  -2  16 2042.68 69.4700   1
  16  -2 -12 1652.57 63.4700   1
 -12 -16  -2 1865.48 73.8400   1
  16   2 -12 1800.88 71.0300   1
 -16  12  -2 1826.39 75.5600   1
  12  16  -2 1890.02 70.9100   1
 -12  16  -2 1844.41 74.1200   1
 -16  12   2 1863.29 68.7500   1
 -12  16   2 1952.29 71.9300   1
   8  18   4 7827.47 186.590   1
 -18   4   8 7877.71 181.040   1
  -4  18   8 8164.97 189.270   1
 -18  -4   8 7716.58 192.510   1
  -8 -14  12 2245.59 105.400   1
 -14 -12   8 2491.31 113.020   1
 -12 -14   8 2498.71 109.710   1
 -18   8   4 7543.78 180.230   1
 -12  14   8 2365.45 74.2400   1
 -14  12   8 2412.84 78.1600   1
  -8  14  12 2354.61 72.5900   1
 -14   8  12 2250.83 74.3500   1
  -8  12  14 2338.16 72.7600   1
  12  14   8 2336.59 74.9400   1
   8  14  12 2425.81 90.9300   1
  14  12   8 2357.43 73.5100   1
   8  12  14 2238.22 68.1200   1
 -14  -8  12 2503.72 81.8900   1
 -14 -12   8 2369.32 82.6100   1
 -12  -8  14 2426.15 79.3300   1
  12   8  14 2356.86 71.0000   1
  14   8  12 2205.58 69.2700   1
 -18   8  -4 7942.82 230.620   1
  18   4   8 7780.44 247.840   1
  -8  18  -4 7940.93 209.850   1
  18   8   4 8629.13 234.900   1
  -4 -18   8 7355.13 199.640   1
  -2  20  -2 -0.6600 45.9300   1
   2  20  -2 15.6300 48.3200   1
   2  20  -2 -4.1200 41.7400   1
  20   2   2 14.6800 25.0900   1
  20  -2   2 78.5000 29.8700   1
   2  20   2 2.86000 28.6200   1
  -2  20   2 14.9700 29.4600   1
 -14  -4  14 534.150 40.1800   1
   4  14  14 522.170 40.7200   1
 -14   4  14 555.400 41.2700   1
  -4  14  14 551.980 42.5300   1
  14  14   4 496.280 32.9200   1
 -14  14   4 506.000 50.0200   1
 -14  14  -4 491.140 75.0500   1
   2  -2  20 43.4600 26.7200   1
  -2  -2  20 44.8700 35.8600   1
   2   2  20 41.4500 37.6900   1
  -2   2  20 36.0200 26.6500   1
 -19   5   5 10647.4 238.570   1
  19   5   5 10833.5 279.720   1
 -19  -5   5 10659.5 273.890   1
  -5  19  -5 10363.7 271.670   1
  11  17  -1 1329.43 58.5400   1
  -7  19   1 2458.57 82.0600   1
  19   5  -5 10292.5 238.380   1
  -5  -5  19 9927.15 215.540   1
  -5  19  -5 10711.3 245.520   1
  19  -5   5 9425.86 229.200   1
 -19   5   5 10683.1 248.580   1
 -19   7  -1 2270.11 91.1100   1
   7  19  -1 2787.37 107.530   1
 -11  13  11 9020.96 202.410   1
 -13  11  11 9012.13 202.730   1
   1  17  11 1454.04 54.1100   1
  17   1  11 1420.70 108.490   1
  11  17  -1 1463.91 87.8700   1
 -17  11  -1 1452.64 80.1300   1
  -7  19  -1 2116.89 79.9000   1
 -19   7   1 2491.60 86.9300   1
  19  -1   7 2632.01 106.390   1
   7   1  19 2535.14 79.5900   1
  -7  -1  19 2500.56 78.3100   1
   1   7  19 2473.04 77.7900   1
  -7   1  19 2269.43 70.0400   1
  -1   7  19 2570.31 80.1900   1
  19   1  -7 2184.33 72.7300   1
  19  -1  -7 2251.60 80.8700   1
  -7 -19  -1 2273.31 91.6800   1
  -7 -19   1 2332.79 93.1700   1
   1  19   7 2510.10 79.4400   1
  -1  19   7 2342.13 78.0400   1
 -19  -1   7 2554.38 86.5700   1
 -19   1   7 2468.53 82.4800   1
  -7  19   1 2666.02 94.5100   1
   7  19   1 2312.19 84.6800   1
  19  -1   7 2345.47 107.240   1
  -7  19  -1 2320.47 84.3000   1
  19   1   7 2366.20 99.1000   1
 -19   7   1 2426.30 95.3500   1
 -11  11  13 9159.30 203.230   1
  11  13  11 8990.07 204.270   1
 -11  17  -1 1472.26 67.7900   1
 -17  11   1 1349.48 58.1600   1
 -17  11  -1 1477.84 68.8100   1
  17   1 -11 1296.66 57.3200   1
  17  -1 -11 1310.40 58.5000   1
 -11  -1  17 1514.01 60.0700   1
 -11   1  17 1395.44 52.9100   1
  13  11  11 9090.66 201.230   1
  11  17   1 1521.28 70.4600   1
  11  11  13 9198.08 206.120   1
 -13 -11  11 9476.17 221.300   1
 -11  17  -1 1542.39 77.6300   1
 -17  11   1 1472.78 66.6100   1
 -11 -11  13 8545.37 204.040   1
 -13 -11  11 8742.84 220.810   1
 -11 -13  11 9370.33 244.250   1
 -11  17   1 1458.69 65.1800   1
  -1  17  11 1389.78 53.6200   1
 -17   1  11 1377.02 52.7300   1
 -17  -1  11 1488.26 54.5300   1
   7  19  -1 2494.79 79.9800   1
 -11 -17  -1 1426.06 62.4800   1
   1  11  17 1460.19 54.5400   1
  -1  11  17 1414.98 58.7200   1
   5   5  19 10541.6 227.550   1
  -5   5  19 10337.8 224.630   1
  -5 -19  -5 9393.62 225.610   1
  -5 -19   5 9576.40 231.650   1
   5  19   5 10508.4 234.930   1
  -5  19   5 10514.8 231.050   1
 -11  17   1 1282.43 58.3700   1
  -4  12  16 3.82000 26.9000   1
   4  12  16 11.3400 34.4300   1
  12   4  16 -21.940 23.3000   1
 -12  16  -4 -14.830 32.6300   1
  -4   0  20 432.910 34.4500   1
   4   0  20 411.760 34.8000   1
   0  -4  20 404.030 42.5900   1
   0  20  -4 452.430 40.2000   1
  -4  20   0 475.030 49.9800   1
  20   0   4 450.140 41.2300   1
   4  20   0 440.950 39.3000   1
 -12  -4  16 18.8600 22.4600   1
  -4  20   0 437.860 51.0100   1
   0  20  -4 489.770 68.5100   1
 -20   4   0 515.410 59.3700   1
   4  20   0 437.300 49.7000   1
 -20   0   4 461.260 46.4800   1
  20   0   4 470.120 41.0600   1
   0  20   4 470.450 45.8800   1
  20  -4   0 390.480 35.7600   1
  -4 -20   0 525.920 42.3200   1
  20   4   0 477.990 36.5300   1
  20   0  -4 438.670 30.6300   1
 -16  12  -4 17.5800 61.9400   1
 -12  16  -4 54.9000 63.1700   1
 -16  12   4 40.1100 41.5700   1
 -12  16   4 -15.070 30.4600   1
 -16   4  12 -10.560 23.0300   1
   4  16  12 33.1400 30.7400   1
 -16  -4  12 12.7100 20.1700   1
   0   4  20 541.190 45.4200   1
 -12   4  16 -11.680 33.8500   1
  17   9   7 5648.30 142.140   1
   7  19  -3 5685.33 148.300   1
  -3  19  -7 5453.89 191.030   1
   7  19  -3 5161.85 168.130   1
 -19   7  -3 5184.39 165.030   1
  -7  19  -3 5205.59 148.920   1
  19   3   7 5340.21 176.420   1
  19  -3   7 5055.88 154.210   1
 -19   7   3 5511.91 152.950   1
  -7  19   3 5477.05 141.400   1
   7  19   3 5549.29 147.130   1
  -3 -19   7 4936.42 160.630   1
  19  -3   7 5165.83 145.970   1
  -9   7  17 5595.84 135.320   1
  -7   9  17 5385.96 131.200   1
   7   9  17 5550.88 134.920   1
  -9 -17  -7 5411.25 154.530   1
  -7 -17  -9 5235.46 156.750   1
  -7  19  -3 5399.39 138.720   1
   9   7  17 5586.12 136.590   1
  -9  -7  17 5637.93 139.180   1
  17   7   9 5816.56 142.660   1
 -19  -3   7 5668.46 154.520   1
 -17  11   3 71.3600 39.5100   1
 -11  17  -3 7.48000 44.8500   1
  11   3  17 44.6700 24.9000   1
  17   3 -11 12.9700 17.2000   1
 -11  -3  17 2.93000 23.5800   1
  17  -3 -11 -13.950 20.1100   1
   3  11  17 10.7100 32.4900   1
  19   7   3 5722.28 156.600   1
  -3  19   7 5390.58 135.400   1
   3  19   7 5604.44 140.940   1
  -7 -19   3 5288.55 155.850   1
 -19   3   7 5702.03 146.390   1
  -7 -19  -3 5395.28 165.400   1
  19  -3  -7 5006.02 131.910   1
  -3   7  19 5376.53 132.240   1
  -7   3  19 5794.98 141.980   1
   3   7  19 5859.60 140.390   1
  19   3  -7 5456.17 150.370   1
  -7  -3  19 5519.33 133.660   1
   7   3  19 5626.36 133.100   1
  19   7   3 5575.43 139.470   1
 -19   7   3 5600.68 150.950   1
 -19  -3   7 5882.88 170.320   1
   7  17   9 5588.38 137.010   1
   9  17   7 5445.91 132.970   1
 -17   7   9 5660.79 142.180   1
  -9  17   7 5891.95 145.460   1
 -17   9   7 5493.97 142.750   1
  -9 -17   7 5203.29 151.560   1
  -9  17  -7 5249.02 167.680   1
 -17  11  -3 -35.230 63.1400   1
 -11  17  -3 -76.490 60.0600   1
 -17  11   3 32.9000 40.5700   1
 -11  17   3 -10.360 42.6600   1
  -3  17  11 -21.500 25.4800   1
 -17   3  11 -5.8400 33.1500   1
  15   5  13 -7.0700 22.1100   1
  13   5  15 19.3500 32.7200   1
 -13  -5  15 25.0200 30.9500   1
   5  13  15 -7.8700 32.9800   1
   5  15  13 8.41000 23.2500   1
 -13   5  15 28.6000 25.0400   1
  -5  13  15 -13.230 25.1800   1
  -5  15  13 21.2000 33.6100   1
 -15  13   5 17.6500 38.0900   1
 -13  15   5 7.92000 41.4700   1
 -13  15  -5 58.7800 48.9000   1
 -15  13  -5 74.1300 63.6600   1
   3  17  11 -3.2300 32.9900   1
 -17  -3  11 -3.9500 24.8700   1
  -3  11  17 12.1300 37.1500   1
  -7  17   9 5658.99 136.480   1
  -7  -9  17 5697.32 141.030   1
 -13 -13   9 3944.03 127.400   1
  -9 -13 -13 3701.72 118.600   1
 -11   3  17 -1.9600 31.5300   1
 -13 -13   9 4241.76 119.830   1
 -13  -9  13 3935.10 108.180   1
  13   9  13 4165.95 109.610   1
   9  13  13 4117.49 105.520   1
  13  13   9 4278.84 112.570   1
 -13   9  13 4041.90 108.550   1
  -9  13  13 4156.83 106.960   1
 -13  13   9 4152.42 110.460   1
 -13 -13   9 4094.15 161.370   1
 -17  -7   9 5521.36 149.570   1
  -4  -2  20 786.280 46.7700   1
   2   4  20 713.890 47.9300   1
  -4   2  20 681.840 47.6300   1
  -2   4  20 718.850 48.2600   1
  20   2  -4 660.820 38.9700   1
  20   4  -2 694.740 38.2700   1
  20  -2  -4 624.890 41.0200   1
  -4 -20  -2 624.990 37.7900   1
  20  -4  -2 617.860 38.1900   1
  -4 -20   2 591.420 41.1100   1
  20   4   2 681.140 41.2900   1
  20  -4   2 635.890 43.1600   1
   2  20   4 714.060 41.4900   1
  20  -2   4 627.920 40.3200   1
   8  16  10 516.910 38.0500   1
 -16 -10   8 568.610 41.9700   1
 -16  -8  10 498.160 33.8200   1
   2  20  -4 742.950 45.9300   1
   8  10  16 526.490 34.4800   1
  20   2   4 758.780 46.6800   1
   4  20  -2 814.340 46.5700   1
  16  10   8 616.210 37.3000   1
  10   8  16 578.630 40.6300   1
  -4  20  -2 780.570 57.8900   1
  -8 -16 -10 497.310 38.9900   1
 -10 -16  -8 507.980 35.6900   1
  16   8  10 558.440 37.4200   1
 -10  -8  16 543.140 38.9900   1
  -8 -10  16 513.290 35.4500   1
  -2  20   4 690.630 42.6100   1
  20   2   4 686.030 46.7300   1
  -8 -16  10 534.910 39.5300   1
  -4  20   2 682.850 54.2000   1
   4  20   2 637.940 49.0900   1
 -20   2   4 797.020 46.8200   1
  -2  -4  20 811.480 42.4700   1
  -2  20  -4 796.060 48.5100   1
 -20   4  -2 662.620 67.7800   1
   2  20  -4 621.940 57.8500   1
  -2  20  -4 660.400 71.4400   1
   4  20  -2 716.890 65.0100   1
  -4  20  -2 568.480 63.0800   1
 -20   4   2 680.470 49.4400   1
 -20  -2   4 655.270 49.4400   1
 -20   2   4 710.400 51.5000   1
  -8 -16  10 499.090 53.9200   1
 -10 -16   8 514.780 46.9800   1
 -16  10   8 538.940 45.0900   1
 -10  16   8 537.330 38.3600   1
 -16   8  10 533.250 37.1000   1
  -8  16  10 568.510 47.5700   1
  10  16   8 505.090 37.6300   1
  -8  10  16 565.060 37.6100   1
 -10   8  16 534.000 45.3700   1
   4   2  20 758.300 40.6600   1
 -10  18   0 411.790 43.5800   1
   0  18  10 444.450 39.8300   1
 -18   0  10 442.060 36.4300   1
 -10 -18   0 375.540 32.8600   1
   0  10  18 408.490 33.8300   1
 -10   0  18 393.580 37.7800   1
  18   0 -10 333.920 32.9800   1
 -10  18   0 380.850 51.0600   1
  10  18   0 354.300 34.5400   1
 -18  10   0 331.040 34.9900   1
  18   6   8 10670.7 304.350   1
  -8  18  -6 10263.8 273.340   1
  18   8   6 10611.3 300.100   1
 -18  -8   6 11722.6 323.660   1
  -6 -18   8 9681.01 238.250   1
 -18   8   6 10683.8 242.050   1
  -8  18   6 10953.1 243.870   1
  -8 -18   6 9887.98 251.760   1
 -18   6   8 10225.8 229.700   1
  -6  18   8 10365.9 225.520   1
   8  18   6 10980.4 240.750   1
 -18  -6   8 11164.9 260.700   1
   6  18   8 10227.4 221.100   1
  -8   6  18 10617.8 231.240   1
  -6   8  18 10778.7 238.610   1
  -8 -18  -6 10620.3 264.710   1
  -6 -18  -8 10014.3 242.630   1
   6   8  18 10840.0 233.250   1
   8   6  18 10752.7 233.480   1
  -8  -6  18 10498.1 226.390   1
  18   8   6 10568.5 233.000   1
  -6  -8  18 11008.2 241.880   1
  18   0  10 562.990 68.0100   1
  10  18   0 529.510 57.6300   1
 -18  10   0 433.290 59.1600   1
 -15  11   9 1547.79 62.7100   1
  -9 -11  15 1460.79 60.3200   1
 -11 -15   9 1453.24 90.0400   1
 -15 -11   9 1351.89 60.0900   1
   9  11  15 1268.34 49.7600   1
  -9 -15  11 1234.50 63.3400   1
  11  15   9 1287.24 51.9200   1
  15  11   9 1453.39 55.5500   1
  -9  15  11 1381.04 54.2300   1
 -15   9  11 1525.61 60.7800   1
 -11 -15  -9 1319.12 64.7300   1
 -11  15   9 1393.15 62.3000   1
 -11  -9  15 1312.62 51.0200   1
 -15 -11   9 1359.17 69.3300   1
  -9 -15  11 1467.91 94.6800   1
 -15  -9  11 1413.71 55.1100   1
  11   9  15 1419.74 55.8900   1
  15   9  11 1276.61 52.1600   1
  -9 -15 -11 1255.46 60.1000   1
   9  15  11 1399.67 56.6700   1
 -11   9  15 1313.92 58.5700   1
  -9  11  15 1307.73 52.3400   1
 -18   2  10 6.46000 22.2700   1
  10  18   2 10.3000 31.0700   1
 -18  10   2 18.0900 42.6900   1
 -14  14  -6 228.750 73.5000   1
 -14 -14   6 148.290 25.7200   1
 -10  -2  18 5.17000 31.2800   1
  14  14   6 140.430 25.9700   1
  -6  14  14 163.820 28.8400   1
 -14 -14   6 118.480 24.1300   1
 -10  18   2 5.38000 45.6200   1
   6  14  14 127.940 35.0700   1
  18   2  10 42.8100 49.2500   1
 -18  10  -2 25.0700 58.7300   1
 -10  18  -2 102.410 54.4500   1
 -14   6  14 122.170 33.2300   1
  14   6  14 123.360 33.6900   1
 -14  -6  14 123.830 31.1600   1
 -14  14   6 208.460 40.6300   1
  18  -2 -10 8.87000 24.9600   1
 -10   2  18 -9.7700 23.5500   1
   2  10  18 26.7200 32.0800   1
  -2  10  18 -4.0900 33.1500   1
   2  18  10 4.58000 24.1100   1
 -18  -2  10 13.4000 28.5800   1
  -2  18  10 5.12000 25.2300   1
 -10  18   2 -26.910 31.8100   1
 -10  18  -2 -51.170 31.7500   1
  10   2  18 20.9900 25.6400   1
  -4  20   4 3661.21 105.310   1
  20   4   4 3760.85 125.290   1
 -20   4   4 3782.77 116.290   1
   4  20  -4 3629.82 140.480   1
  -4  20  -4 3645.21 130.690   1
   4  20  -4 3567.63 102.530   1
  -4  -4  20 3562.30 95.1400   1
  20   4   4 3744.50 127.340   1
  -4  20  -4 3483.38 100.670   1
 -12 -12  12 13491.9 292.730   1
  12  12  12 13147.1 277.520   1
 -12  12  12 13742.3 290.840   1
 -20  -4   4 3561.97 130.580   1
   4   4  20 3746.50 97.5800   1
  -4   4  20 3694.99 96.7400   1
  20   4  -4 3465.25 104.970   1
  -4 -20  -4 3370.55 108.150   1
  20  -4  -4 3262.96 99.5900   1
  -4 -20   4 3279.52 120.620   1
   4  20   4 3693.04 102.420   1
  20  -4   4 3155.26 105.680   1
 -20   4   4 3937.54 119.690   1
  -5 -17  11 1682.99 102.220   1
 -17  11   5 1867.10 74.2700   1
 -11  17   5 1888.76 74.4000   1
  11  17   5 1821.08 65.0800   1
 -11 -17   5 1657.95 74.5200   1
  -5  17  11 1661.11 59.6300   1
 -17   5  11 1713.59 60.2200   1
   5  17  11 1667.14 57.6400   1
 -17  -5  11 1815.52 68.8200   1
  17  11   5 1848.17 67.4000   1
 -11   5  17 1847.79 67.4500   1
   5  11  17 1739.54 59.5900   1
 -11  -5  17 1830.77 64.4000   1
 -11 -17  -5 1740.12 68.3200   1
  11   5  17 1682.05 58.5000   1
  -7  19  -5 11445.3 255.050   1
  -5  19  -7 10923.7 293.280   1
  -7  19  -5 11230.8 273.440   1
 -19  -7   5 11830.5 325.060   1
  19   5   7 10890.6 289.730   1
  19   7   5 11556.5 287.470   1
  -5 -19   7 10474.8 270.470   1
 -19   7   5 10843.9 240.740   1
  -7  19   5 11662.7 259.470   1
 -19   5   7 10981.8 241.910   1
   7  19   5 10761.4 235.250   1
  -7 -19   5 10151.7 256.580   1
  -5  19   7 11431.9 245.630   1
   5  19   7 10791.1 232.600   1
  -5   7  19 11148.3 236.450   1
  -5 -19  -7 9939.07 250.140   1
  -7   5  19 10864.5 231.130   1
   5   7  19 11206.4 238.150   1
   7   5  19 11228.1 243.680   1
  -7  -5  19 11573.1 253.150   1
  -5  -7  19 11483.4 249.840   1
  19   7   5 11398.8 253.020   1
 -19   7   5 11071.8 251.630   1
 -19  -5   7 11126.2 263.870   1
  19   5  -7 10847.8 250.650   1
 -17  11  -5 1933.54 106.410   1
 -11  17  -5 1435.28 80.3800   1
  -6   0  20 1082.82 51.6400   1
   0   6  20 981.150 52.7100   1
  20   0   6 951.020 62.0000   1
 -20   6   0 1063.15 72.1500   1
 -16  12  -6 566.530 62.6300   1
   0  20  -6 959.040 69.0700   1
   0  20   6 1089.19 55.2200   1
 -12   6  16 688.190 46.5200   1
   6  20   0 1147.84 60.8000   1
  -6  20   0 1065.21 63.0000   1
 -20   0   6 1025.63 59.8800   1
  20   0   6 1097.05 65.1700   1
   6   0  20 1075.52 54.1800   1
  -6  20   0 1040.71 67.1200   1
 -16  12   6 621.840 41.5400   1
  -6 -20   0 992.250 49.3500   1
  20   6   0 1037.31 55.2400   1
  20   0  -6 992.490 49.2700   1
  16   6  12 642.250 42.3400   1
 -12 -16  -6 558.140 38.3800   1
  12   6  16 589.750 43.0100   1
 -12  -6  16 663.690 37.3500   1
   6  12  16 594.790 43.2200   1
 -16  -6  12 563.470 39.2700   1
 -12  16  -6 604.750 74.9700   1
  -6  12  16 577.970 37.9600   1
  16  12   6 590.500 34.8100   1
   6  16  12 554.580 34.7800   1
  -6  16  12 596.820 38.3400   1
 -16   6  12 620.960 37.7400   1
  12  16   6 659.300 39.6000   1
 -12 -16   6 562.610 37.5000   1
 -12  16   6 551.040 39.5800   1
  -6 -16  12 651.640 69.0900   1
 -20   0   6 1085.81 55.2200   1
  18   4 -10 1763.88 68.5600   1
 -10  18  -4 1939.48 81.7400   1
 -18  10   4 1877.06 69.0500   1
 -10  14  12 4912.95 126.670   1
 -14  10  12 4881.81 121.430   1
 -12  10  14 5057.31 126.580   1
 -10  12  14 5037.76 123.230   1
  12  14  10 4960.29 127.950   1
  10  14  12 5215.98 132.990   1
 -20  -2   6 3054.88 107.420   1
 -20   2   6 3072.17 99.0900   1
  -2  20   6 3002.09 90.5300   1
   2  20   6 2909.23 87.4500   1
  20   6   2 2984.05 96.1400   1
  -6 -20   2 2501.53 84.1200   1
  -6 -20  -2 2569.15 87.2500   1
  20  -2  -6 2575.12 96.4900   1
  20   2  -6 2691.56 90.8100   1
  -6   2  20 2793.02 80.1700   1
   2   6  20 2870.84 84.9400   1
  20   6  -2 2905.47 92.9400   1
  -6  -2  20 2791.18 85.1500   1
   6   2  20 2919.91 86.1300   1
  -2  -6  20 2791.95 81.0700   1
  20   2   6 2704.38 102.080   1
 -20   6   2 2661.96 89.3900   1
  -6  20  -2 2761.26 87.2800   1
   6  20  -2 3011.03 93.8300   1
  20  -2   6 2584.44 95.3700   1
 -20   2   6 2762.41 93.9400   1
 -12  14  10 5069.95 137.950   1
 -14  12  10 5048.27 137.060   1
 -12 -14  10 5247.10 185.830   1
 -10 -14  12 5097.19 199.360   1
  20  -2   6 2783.93 109.130   1
   6  20   2 3116.97 99.9100   1
  20   2   6 3013.97 114.060   1
 -20   6   2 3041.83 108.080   1
  -6  20  -2 3002.67 107.520   1
 -20   6  -2 2865.71 116.560   1
  -2  20  -6 2959.29 119.180   1
  -6  20   2 2971.13 92.4200   1
  10  18   4 1955.87 69.3900   1
 -18   4  10 1787.70 67.0700   1
  -4  18  10 1877.56 67.2600   1
 -10 -18   4 1666.59 66.5700   1
 -18  -4  10 1873.25 69.2000   1
   4  18  10 1813.54 64.8100   1
  18  10   4 1954.74 73.2700   1
  -4  10  18 1936.10 70.6000   1
 -10 -12  14 5002.69 126.340   1
 -10   4  18 1713.87 63.2100   1
 -10 -18  -4 1749.91 68.5200   1
   4  10  18 1812.98 60.9400   1
 -10 -14 -12 4502.78 128.130   1
 -12 -10  14 4789.57 121.180   1
 -14 -12  10 4966.67 134.110   1
 -14 -10  12 5242.89 138.640   1
 -12 -14  10 4858.58 153.920   1
 -14 -12  10 4888.65 156.780   1
  12  10  14 4664.59 125.260   1
 -10 -14  12 5017.46 145.540   1
  10  12  14 4777.00 118.880   1
  14  12  10 5194.65 129.750   1
 -10  -4  18 1789.02 63.9200   1
  10   4  18 1910.69 72.8600   1
 -18  10  -4 1725.28 99.2500   1
 -10  18  -4 1840.32 86.2900   1
  18  10   4 2044.61 98.3100   1
 -18  10   4 1839.34 75.5900   1
 -10  18   4 1836.72 70.3100   1
  -2   6  20 2920.72 90.0900   1
  19   1  -9 30.4300 24.6500   1
   9   1  19 30.3600 37.1300   1
  -9  19  -1 38.1800 42.0200   1
   9  19  -1 30.0400 33.8300   1
  -9  19   1 19.9100 46.9200   1
 -13  15   7 -9.1300 39.6000   1
   1  21  -1 3198.62 102.320   1
  -1  21  -1 3227.03 107.890   1
   1  -1  21 3286.27 97.9000   1
  -1  -1  21 3201.02 94.3400   1
   1   1  21 3403.44 104.150   1
  -1   1  21 3526.85 107.810   1
  21   1  -1 3289.62 106.630   1
  21  -1  -1 3179.91 112.550   1
  21   1   1 3201.16 108.190   1
  21  -1   1 3082.37 107.890   1
  -1  21   1 3601.26 112.300   1
   1  21   1 3533.39 119.510   1
   1  21  -1 3442.01 114.420   1
  -1  21  -1 3599.00 124.710   1
 -21   1   1 3155.47 122.180   1
 -21  -1   1 3447.77 142.570   1
 -21   1  -1 3508.41 143.490   1
  15   7  13 4.95000 21.2500   1
  13   7  15 5.31000 31.9600   1
 -13  -7  15 18.2100 29.5000   1
 -15  -7  13 12.0900 26.9200   1
   7  13  15 2.80000 33.4000   1
   7  15  13 25.8500 33.4700   1
  15  13   7 15.5600 21.8900   1
 -13   7  15 24.6900 25.9500   1
  -7  13  15 -6.7100 25.5900   1
  -7  15  13 3.01000 26.6500   1
 -15   7  13 -19.340 31.7100   1
 -15  13   7 -24.070 28.1500   1
 -13  15  -7 -10.690 70.4300   1
 -15  13  -7 74.6100 50.8000   1
  19   1   9 -47.970 45.1800   1
 -19   9  -1 22.7900 38.8700   1
  19  -1   9 -31.200 46.4500   1
  -9  19  -1 0.15000 50.1400   1
   9  19   1 9.38000 35.0300   1
  -9  19   1 33.3700 43.1000   1
  -1  19   9 -5.4100 36.1500   1
   1  19   9 29.1400 24.3800   1
  -9 -19   1 15.8200 16.9300   1
  -9 -19  -1 40.1800 25.3500   1
  -1   9  19 19.8200 35.2800   1
   1   9  19 67.7400 37.3000   1
  -9   1  19 -15.240 32.4400   1
  19  -1  -9 7.70000 26.7200   1
  -9  -1  19 30.1300 25.2300   1
   3  21  -1 393.420 51.3600   1
 -21  -1   3 435.010 49.8900   1
 -21   3   1 438.150 57.6800   1
  -3   1  21 397.770 42.9100   1
   1   3  21 427.730 35.2300   1
  -3  -1  21 433.540 42.0800   1
   3   1  21 432.380 43.7300   1
  -1  -3  21 435.640 44.6600   1
  -1   3  21 417.050 34.4000   1
   3  -1  21 390.910 34.5700   1
   1  -3  21 395.100 44.5200   1
  -1  21  -3 384.890 39.6700   1
   1  21  -3 412.130 39.5200   1
   3  21  -1 415.980 39.6000   1
  -3  21  -1 362.080 48.2500   1
  -3  21   1 359.610 40.8800   1
 -19   9   3 1443.60 64.2300   1
  -9  19  -3 1577.72 66.3500   1
   9  19  -3 1525.55 67.8300   1
   9   3  19 1552.99 61.9400   1
  19   3  -9 1481.94 62.8800   1
  -9  -3  19 1636.72 64.8900   1
   3   9  19 1581.88 59.1100   1
  19  -3  -9 1354.76 61.6700   1
  -9   3  19 1637.84 64.9300   1
  -3   9  19 1579.50 63.4800   1
  -9 -19   3 1470.85 65.4800   1
   3  19   9 1580.08 59.3700   1
 -19  -3   9 1530.79 68.8300   1
  -3  19   9 1505.42 58.6600   1
  -9 -17   9 1462.67 79.2300   1
 -17   9   9 1672.87 68.4400   1
  -9 -19  -3 1461.92 61.5900   1
   9  17   9 1469.72 55.3900   1
 -17  -9   9 1660.07 76.8500   1
  -9   9  17 1635.60 66.4700   1
   9   9  17 1771.26 67.1000   1
  17   9   9 1709.53 61.1800   1
  -9 -17  -9 1579.09 65.9200   1
  -9  -9  17 1668.62 61.0100   1
 -17  -9   9 1712.00 82.3600   1
 -19   3   9 1540.87 63.3900   1
  -9  19   3 1485.72 63.5300   1
   9  19   3 1577.90 65.2200   1
 -19   9   3 1433.03 72.4000   1
  -9  19  -3 1563.12 86.3500   1
 -19   9  -3 1549.31 83.6800   1
  19   3   9 1502.45 90.4300   1
 -15  15  -1 2193.13 97.0500   1
 -15  15   1 2341.80 87.8000   1
  -1  15  15 2175.63 76.2500   1
   1  15  15 2181.21 75.2000   1
  -1  21  -3 424.260 49.8500   1
   1  21  -3 382.640 49.6300   1
 -21   3  -1 442.690 61.8200   1
  21   1  -3 427.080 36.5400   1
  21  -1  -3 441.640 37.0900   1
  21   3  -1 413.170 32.9600   1
  21  -3  -1 406.680 38.2500   1
  21   3   1 422.470 33.9600   1
  21  -3   1 382.370 35.4100   1
  21  -1   3 383.950 32.3900   1
  21   1   3 447.280 38.0100   1
  -1  21   3 402.350 38.2900   1
 -15   1  15 2404.88 81.0800   1
   1  21   3 444.740 44.5000   1
  -3  21   1 482.050 43.3500   1
 -15  -1  15 2352.74 78.5100   1
  15  15  -1 2142.45 81.1800   1
 -15  15  -1 2255.04 86.7500   1
 -15  15   1 2144.95 81.7300   1
  15  15   1 2118.69 84.3500   1
   3  21   1 332.610 37.1600   1
 -21   1   3 407.310 40.1100   1
  -3  21  -1 470.070 46.7800   1
  -9  17   9 1650.19 62.8000   1
   4   6  20 5225.58 136.650   1
 -20   6   4 5099.81 147.380   1
  -6  20  -4 5183.11 147.630   1
   6  20  -4 5306.86 145.630   1
  -4  -6  20 5365.27 145.440   1
  20   6  -4 5264.01 151.790   1
  -6  -4  20 5294.81 139.200   1
   6  20  -4 5156.18 187.600   1
 -20  -6   4 5306.97 193.560   1
  -6  20  -4 5048.24 175.310   1
 -20   6   4 5165.33 147.200   1
  -6  20   4 5303.37 148.970   1
   6  20   4 5489.90 158.520   1
  20   6   4 5193.47 158.070   1
  14  16   0 2261.58 85.0500   1
 -14  16   0 2229.21 85.9400   1
 -16  14   0 2161.41 78.2100   1
  16  14   0 2307.69 86.1200   1
 -14 -16   0 2215.57 84.1100   1
 -14   0  16 2351.05 79.8300   1
   0  14  16 2398.20 81.2600   1
 -16   0  14 2364.73 78.9100   1
   0  16  14 2207.44 72.5000   1
 -14  16   0 2420.44 99.2100   1
 -16  14   0 2581.16 103.640   1
   6   4  20 5209.11 138.810   1
  -6 -20   4 4631.46 145.070   1
  -6 -20  -4 4858.00 154.600   1
  -4   6  20 5156.05 137.660   1
  -6   4  20 5380.09 144.420   1
  -8   8  18 7746.32 190.910   1
  -8 -18  -8 7071.48 203.030   1
   8   8  18 8098.66 200.570   1
  18   8   8 8027.22 202.910   1
  -8  -8  18 8294.15 207.230   1
  20   4  -6 5162.06 148.180   1
  20  -4   6 5056.19 165.920   1
  -8 -18   8 7479.70 235.190   1
  -4  20   6 5189.67 147.290   1
  -4  20  -6 4888.80 168.140   1
  20   4   6 5139.97 171.890   1
   4  20   6 5311.98 146.190   1
 -20  -4   6 5284.76 164.000   1
 -20   4   6 5228.45 149.140   1
  20  -4  -6 4848.07 152.970   1
 -20   4   6 5403.30 162.830   1
 -18   8   8 7607.38 192.810   1
  -8  18   8 7895.30 193.910   1
   8  18   8 7904.61 203.250   1
 -18  -8   8 8174.96 229.430   1
 -14 -16  -2 629.240 39.0800   1
 -14 -16   2 704.080 46.4300   1
 -14  16   2 587.980 44.0600   1
 -16  14   2 695.320 45.6100   1
 -14  16  -2 621.460 45.0100   1
 -16  14  -2 674.770 54.6300   1
 -14  16   2 629.380 46.2000   1
 -16  14   2 700.200 50.0900   1
 -16  14  -2 690.010 57.4400   1
  14  16   2 714.470 54.2000   1
 -14  16  -2 692.770 57.8400   1
 -14 -14   8 419.410 33.7800   1
  14   8  14 446.640 36.8900   1
 -14  -8  14 419.100 37.0900   1
   8  14  14 378.780 31.8900   1
 -16  -2  14 704.990 45.4600   1
  -2  14  16 716.200 41.0100   1
   2  16  14 666.820 38.6600   1
 -16   2  14 636.370 42.1000   1
  -2  16  14 663.940 44.8900   1
  14  14   8 405.370 32.0000   1
 -14   8  14 382.810 33.5800   1
  -8  14  14 434.420 44.9600   1
 -14  14   8 409.240 45.8800   1
 -14 -14   8 405.840 39.9700   1
  16   2 -14 587.880 36.3400   1
 -14   2  16 660.270 46.3200   1
   2  14  16 696.800 46.7000   1
 -16  10  10 106.940 38.1200   1
 -14  -2  16 693.160 45.7600   1
 -10 -16  10 166.460 35.9800   1
 -16 -10  10 121.610 32.2600   1
 -10 -10  16 135.920 25.9800   1
 -10 -16 -10 95.8400 26.5700   1
  16  10  10 139.420 28.9800   1
  10  10  16 106.630 25.4000   1
 -16 -10  10 107.230 25.0800   1
  10  16  10 128.670 23.8400   1
 -10  10  16 145.310 39.4400   1
 -10  16  10 90.9400 29.3400   1
 -10 -16  10 133.280 37.5900   1
  -7  17  11 1562.73 60.2800   1
 -13   1  17 979.720 45.5700   1
 -13  -1  17 912.040 44.0800   1
 -13 -17   1 966.880 52.1800   1
 -13 -17  -1 967.520 51.3800   1
 -17  13  -1 880.460 48.5300   1
  13  17  -1 1037.51 54.6500   1
  -7   7  19 10553.2 254.520   1
   7  19   7 10769.2 247.590   1
  -7  19   7 11089.1 254.790   1
 -19   7   7 10519.7 257.380   1
 -19  -7   7 10690.8 275.240   1
  -7 -19   7 9973.58 261.130   1
 -13  17   1 1091.42 55.7600   1
  17  13   1 1042.46 52.2100   1
 -13  17  -1 1145.35 65.5700   1
 -13 -13  11 9133.02 257.400   1
 -11  17  -7 1441.44 94.1600   1
  -7 -17  11 1450.24 91.9400   1
 -11 -17   7 1480.34 70.8900   1
 -17  11   7 1542.09 65.3800   1
 -11  17   7 1509.29 65.8100   1
 -17  13   1 981.430 57.2100   1
 -13 -13  11 9128.52 234.560   1
  11  17   7 1528.68 59.0500   1
   7  17  11 1592.47 62.6400   1
  -7  11  17 1538.11 65.1900   1
 -17  -7  11 1528.55 67.0700   1
 -11   7  17 1413.22 60.7900   1
  17  11   7 1616.35 63.3400   1
   7  11  17 1442.26 58.6400   1
 -11  -7  17 1463.88 61.0600   1
 -11 -17  -7 1475.99 66.3100   1
  11   7  17 1496.80 56.4500   1
  17   7  11 1553.84 60.7200   1
  -7  19  -7 10475.3 286.370   1
 -17   7  11 1467.38 63.0400   1
  19   7   7 10921.4 303.620   1
  13  13  11 8467.85 208.430   1
 -17  13   1 1119.27 70.4600   1
  19   7   7 11254.4 261.100   1
 -13  13  11 9213.49 228.420   1
  -7  -7  19 10551.1 251.440   1
   7   7  19 10573.8 249.310   1
  -7 -19  -7 10016.4 270.410   1
 -13  17   1 961.050 67.1300   1
  -1  13  17 1022.47 53.9400   1
   1  13  17 1023.05 47.3400   1
  13  17   1 1052.91 74.3900   1
 -17  13  -1 1017.40 61.9100   1
 -13  17  -1 1018.28 69.1600   1
   3  21   3 9.24000 26.9800   1
  -3  21   3 -35.040 38.2000   1
  21  -3   3 26.0300 27.4100   1
  21   3   3 30.6200 24.6900   1
  21  -3  -3 31.7200 19.8600   1
  -3   3  21 -26.450 27.2200   1
   3   3  21 -4.7200 26.2300   1
  -3  -3  21 -6.3500 25.9400   1
   3  -3  21 29.9400 39.3000   1
   3  21  -3 41.4300 42.4300   1
  -3  21  -3 66.3200 41.5600   1
   3  21  -3 53.7600 57.5700   1
 -15  15  -3 18.1900 42.0700   1
 -15  15   3 123.700 34.6500   1
  -3  15  15 70.7400 35.0000   1
 -15   3  15 82.4400 31.5900   1
   3  15  15 107.910 26.8400   1
  17   1 -13 890.740 51.1100   1
 -17  -1  13 1068.20 50.7000   1
 -17   1  13 1132.24 49.0500   1
   1  17  13 990.870 46.0700   1
  -1  17  13 1038.30 47.7600   1
 -13 -11  13 8945.35 227.540   1
  13  11  13 9066.86 227.000   1
 -11 -13  13 8290.05 206.630   1
  11  13  13 8426.48 206.170   1
 -13  11  13 9160.20 223.810   1
 -15  15   3 70.0700 32.7300   1
 -15  15  -3 119.960 34.1600   1
 -15  -3  15 110.200 30.8700   1
 -11  13  13 8468.03 205.880   1
  -3  21  -3 3.55000 40.5600   1
 -21   3   3 39.7000 39.2900   1
   6  10  18 4340.23 122.600   1
  10   6  18 4436.92 122.540   1
 -10  18  -6 4389.98 154.670   1
  -6 -18  10 3890.22 151.050   1
  18   6  10 4143.72 126.480   1
 -18  10   6 4492.19 132.560   1
 -10  -6  18 4273.17 119.950   1
 -10  18   6 4519.76 131.480   1
  18  10   6 4202.40 174.970   1
 -10 -18  -6 4081.81 133.630   1
  18  10   6 4579.50 132.460   1
 -10   6  18 4556.10 126.720   1
  -6  10  18 4398.38 126.930   1
 -18  -6  10 4433.63 137.620   1
   6  18  10 4498.34 126.110   1
  -6  18  10 4308.90 121.980   1
 -18   6  10 4511.98 126.180   1
  10  18   6 4404.42 124.340   1
 -10 -18   6 3986.86 129.880   1
   8  20   0 62.5200 29.6800   1
 -12  -8  16 14.2500 30.3800   1
  12   8  16 -54.010 32.8600   1
 -20   8   0 198.340 53.3400   1
  -8   0  20 70.0600 26.2500   1
   8  16  12 -22.440 31.3600   1
   8  12  16 -3.7800 33.1500   1
  -8  20   0 110.110 37.3000   1
   8  20   0 104.010 40.2100   1
   8   0  20 98.4100 28.4500   1
 -20   0   8 114.080 30.0200   1
   0   8  20 125.380 35.8800   1
  20   0  -8 100.950 21.1900   1
  -8 -20   0 53.8000 20.2000   1
  20   0   8 33.8300 42.0300   1
  -8  12  16 -2.5300 26.6400   1
 -12   8  16 -20.170 33.4400   1
 -16   8  12 -35.440 32.2300   1
  -8  20   0 116.270 34.0900   1
  -8  16  12 30.8900 38.3000   1
  16   8  12 -27.180 28.8500   1
   0  20   8 74.4800 26.4300   1
 -16  12   8 -15.580 35.2700   1
 -12 -16  -8 7.05000 24.8200   1
 -12  16   8 -34.950 40.3100   1
  17   3 -13 13.3300 26.1100   1
  13   3  17 21.5600 25.8300   1
 -13  17  -3 16.7000 30.9700   1
 -17  13   3 3.28000 41.0300   1
  19   5   9 4591.68 180.930   1
  -9  19  -5 4807.82 156.110   1
  19   9   5 5036.73 183.630   1
  -5 -19   9 4174.94 144.830   1
 -19   9   5 4936.04 144.090   1
  -9  19   5 5284.20 143.780   1
   9  19   5 4934.45 139.680   1
 -19   5   9 4674.15 129.410   1
  -9 -19   5 4417.48 134.950   1
 -19  -5   9 5146.78 152.050   1
   5  19   9 4744.74 126.660   1
  -5   9  19 4767.96 131.750   1
  -9   5  19 4943.53 133.460   1
  -9 -19  -5 4644.99 148.610   1
   5   9  19 5026.83 133.980   1
  19   9   5 4853.46 135.670   1
  -9  -5  19 4631.87 125.690   1
   9   5  19 4621.17 125.580   1
  19   5  -9 4529.06 133.560   1
 -19   9   5 4680.97 139.850   1
 -21  -1   5 203.580 37.9300   1
  -5  21   1 195.840 49.4900   1
 -21   1   5 200.790 35.4800   1
  21   1   5 178.570 35.5300   1
  21  -1   5 159.040 34.5000   1
   1  21   5 216.730 40.1500   1
  -1  21   5 184.570 30.8600   1
  -5 -21   1 217.730 27.1700   1
  21   5   1 182.430 24.7900   1
  -5 -21  -1 223.670 33.8100   1
  21  -1  -5 142.950 27.8400   1
  21   5  -1 166.050 25.1100   1
  21   1  -5 173.970 28.5500   1
  -1   5  21 183.700 39.5900   1
  -5   1  21 203.890 30.6200   1
   1   5  21 233.620 37.7800   1
  -5  -1  21 176.980 29.9700   1
 -11 -15  11 2389.96 121.000   1
 -11  15  11 2413.79 83.5300   1
 -15  11  11 2401.85 78.4300   1
 -11  11  15 2392.20 76.9400   1
  11  15  11 2507.27 84.2800   1
  15  11  11 2261.02 77.9900   1
  11  11  15 2562.34 79.6800   1
 -15 -11  11 2454.27 89.9500   1
 -11 -11  15 2365.07 78.0900   1
 -11 -15 -11 2135.87 84.9100   1
 -15 -11  11 2410.46 98.5700   1
 -11 -15  11 2282.82 103.560   1
   5   1  21 219.000 31.2300   1
   5  -1  21 217.320 41.8800   1
  -1  -5  21 223.810 41.7500   1
   1  21  -5 197.170 44.0100   1
  -1  21  -5 245.620 37.1200   1
 -21   1   5 187.280 33.5300   1
  21   1   5 175.380 30.5700   1
  -5  21  -1 248.850 49.6500   1
   5  21  -1 188.220 44.7000   1
  21  -1   5 185.660 35.7800   1
  -5  21   1 254.850 38.1100   1
  -5  19   9 4967.88 136.810   1
  -1  21  -5 259.010 62.6300   1
   1  21  -5 172.500 59.8400   1
 -21   5  -1 160.020 60.4000   1
 -21   5   1 288.320 53.5800   1
   5  21  -1 197.920 38.2600   1
  -5  21  -1 188.790 40.9100   1
   5  21   1 187.360 40.8500   1
 -19   9  -5 4584.20 156.440   1
 -17  13  -3 61.3700 62.5300   1
 -13  17  -3 -5.6100 43.0500   1
 -17  13   3 16.4000 31.5900   1
 -13  17   3 -43.710 41.3100   1
  -3  17  13 -0.8800 25.9400   1
 -17   3  13 -1.5400 22.9700   1
   3  17  13 24.3100 34.4400   1
 -17  -3  13 17.8500 28.9000   1
  -3  13  17 2.62000 26.6900   1
 -13   3  17 -27.740 24.6800   1
   3  13  17 -2.1000 31.9600   1
 -13  -3  17 46.5300 33.3400   1
   8   2  20 605.270 38.9400   1
  20  -2   8 552.560 44.7100   1
 -20   8   2 584.670 49.3400   1
  -8  20  -2 523.290 44.0400   1
   8  20  -2 492.330 39.1200   1
 -14  16   4 27.2300 31.1700   1
  -8 -20   2 486.740 39.6000   1
   2  20   8 507.550 35.6100   1
  -2  20   8 379.020 41.1600   1
 -20   2   8 544.130 41.1500   1
 -16  14   4 131.530 41.1700   1
 -16  14  -4 84.7100 67.8800   1
 -14  16  -4 -79.950 62.5700   1
 -20  -2   8 481.590 38.3300   1
  -8  20   2 563.880 45.0400   1
  -8   2  20 561.460 36.9800   1
 -20   8  -2 431.360 69.2400   1
   8  20  -2 463.380 59.7900   1
  14  16   4 65.2000 23.6800   1
  20   2   8 502.280 52.6000   1
  -8  20  -2 510.540 60.9000   1
 -20   8   2 532.060 46.1600   1
   8  20   2 487.560 47.0800   1
  -8 -20  -2 438.460 36.6400   1
  20  -2  -8 504.870 37.2400   1
  -2   8  20 524.370 37.0000   1
   2   8  20 607.570 46.5100   1
  20   2  -8 531.310 35.5200   1
  -8  -2  20 628.100 45.9100   1
 -14  -4  16 97.7300 29.5600   1
  12  18   0 676.780 42.0900   1
 -12  18   0 695.790 46.6100   1
  14   4  16 46.5700 31.6800   1
  12  18   0 829.400 63.7200   1
 -18  12   0 854.920 57.7100   1
 -12  18   0 775.660 53.5100   1
 -18   0  12 734.900 39.9300   1
   0  18  12 761.570 41.5500   1
 -12 -18   0 695.710 44.4100   1
  18   0 -12 766.280 46.7000   1
 -18  12   0 718.340 45.8000   1
 -14   4  16 76.1300 26.8100   1
   0  12  18 700.700 39.9300   1
 -12   0  18 685.260 46.0700   1
   4  14  16 97.2700 34.2900   1
 -16  -4  14 64.5500 28.1700   1
  -4  16  14 32.3800 37.9700   1
 -16   4  14 87.5200 25.5900   1
  -4  14  16 59.2600 36.4600   1
   4  16  14 63.2400 31.9500   1
  -6 -20   6 8093.15 219.890   1
 -12  18   2 190.930 36.3100   1
 -18  12   2 207.880 32.8600   1
 -12  18  -2 198.050 44.6200   1
  12  18  -2 222.160 30.0400   1
  18   2 -12 182.010 29.7600   1
 -12 -18  -2 246.850 27.6600   1
   6  20   6 9451.23 238.330   1
 -12  -2  18 263.840 38.0400   1
   2  12  18 222.520 39.4400   1
  -6  20  -6 9250.21 258.080   1
  20   6   6 9405.73 263.420   1
 -20  -6   6 9832.79 273.980   1
 -20   6   6 9482.46 240.830   1
  -6  20   6 9638.25 237.860   1
   6   6  20 9308.47 227.690   1
  -6  -6  20 9249.21 224.580   1
 -12 -18   2 256.760 28.4200   1
  -2  12  18 220.600 40.9200   1
 -12  18   2 253.580 46.5300   1
  12  18   2 243.020 39.0600   1
 -12  18  -2 389.970 60.7700   1
 -18  12  -2 246.170 46.7000   1
  -2  18  12 212.720 29.7800   1
  -6   6  20 8989.24 216.530   1
 -18   2  12 279.210 36.2100   1
 -12   2  18 226.520 38.1200   1
 -18  -2  12 249.500 27.2800   1
   2  18  12 273.890 39.4900   1
  -3   5  21 1191.12 58.1900   1
  -5   3  21 1195.27 57.3500   1
   3   5  21 1243.22 52.3500   1
  -5  -3  21 1181.33 56.7300   1
   5   3  21 1084.32 54.5000   1
  -3  -5  21 1122.74 50.1400   1
 -15   5  15 149.050 36.9800   1
  -5  15  15 200.380 29.8400   1
   5  15  15 177.200 34.8400   1
  15   5  15 167.060 27.1700   1
 -21   5   3 1085.61 56.3600   1
  -5  21  -3 1133.51 56.9000   1
  21   3   5 1114.42 64.1600   1
   5  21  -3 1162.54 55.5300   1
 -21   3   5 1095.35 54.9400   1
  21  -3   5 1074.36 62.9300   1
  -9 -15  13 963.350 71.2900   1
 -15 -13   9 1016.62 70.3800   1
 -13 -15   9 948.160 63.0400   1
 -13  15   9 1030.02 49.4600   1
 -15  13   9 1044.09 56.3300   1
  -9  15  13 938.160 54.0600   1
 -15   9  13 907.510 50.9400   1
 -21   5  -3 1139.95 83.4100   1
   3  21  -5 1218.59 82.8900   1
   5  21  -3 1110.50 70.1000   1
  -3  21  -5 1232.79 76.3400   1
  -5  21  -3 1122.65 76.4000   1
 -13   9  15 1019.77 52.5900   1
  -9  13  15 1048.97 53.4100   1
  13  15   9 1033.65 47.7400   1
   9  15  13 994.650 49.1800   1
  15  13   9 1019.26 47.8000   1
   9  13  15 996.770 50.9200   1
 -15  -9  13 1050.37 51.0200   1
 -15 -13   9 1076.86 56.1000   1
 -13  -9  15 944.220 49.1900   1
  13   9  15 919.210 43.2100   1
 -21   5   3 1229.19 69.1600   1
 -21  -3   5 1188.71 68.8500   1
 -21   3   5 1155.56 55.0700   1
   5  21   3 1250.81 61.5800   1
  21   3   5 1183.91 60.5500   1
  -5  21   3 1177.47 56.0600   1
  21  -3   5 1061.53 61.5400   1
   3  21   5 1240.43 59.9100   1
  -3  21   5 1228.25 54.5600   1
  21   5   3 1209.39 58.4300   1
  -5 -21   3 1071.69 63.6300   1
  -5 -21  -3 1017.63 65.0300   1
  21  -3  -5 1043.53 51.6600   1
  21   3  -5 1105.48 54.5500   1
  15   9  13 1003.97 49.4700   1
  -9 -15  13 882.680 58.5900   1
  21   5  -3 1177.17 56.2900   1
 -15  -5  15 197.900 33.3200   1
 -15  15  -5 144.190 71.1500   1
 -15  15   5 159.270 33.5100   1
  15  15   5 173.060 28.0700   1
   3  21  -5 1147.11 56.5400   1
  -3  21  -5 1257.86 60.4500   1
  -4  20   8 3433.95 106.190   1
  -4  -8  20 3422.67 105.010   1
   8  20  -4 3441.00 114.710   1
 -20   8   4 3206.03 106.110   1
  20   4  -8 3131.58 104.790   1
  20   8   4 3404.87 111.750   1
  -8  -4  20 3264.32 97.8000   1
   8   4  20 3261.19 95.6000   1
   4   8  20 3395.01 96.5800   1
 -20   4   8 3393.61 106.520   1
 -20  -4   8 3668.17 119.670   1
  20   8   4 3545.83 124.310   1
   8  20   4 3410.27 115.550   1
  -8  20   4 3475.57 107.900   1
 -20   8   4 3411.70 107.740   1
  20   4   8 3327.52 129.680   1
  -8  20  -4 3334.15 120.640   1
 -20   8  -4 3249.01 130.830   1
  -8   4  20 3348.93 98.6300   1
  -4   8  20 3236.42 96.1100   1
  -8 -20  -4 3126.04 110.460   1
  -8 -20   4 3028.16 113.860   1
   4  20   8 3361.25 103.940   1
 -11  19  -1 470.720 42.3800   1
  11  19  -1 476.210 42.3800   1
 -19  11   1 368.430 44.5800   1
  19   1 -11 373.360 33.8400   1
  19  -1 -11 343.790 29.1900   1
 -11  -1  19 423.190 41.8500   1
 -11   1  19 412.230 39.0000   1
   1  11  19 450.190 42.3900   1
 -11 -19  -1 403.690 32.6000   1
  -1  11  19 388.720 34.0100   1
 -11 -19   1 420.470 33.9000   1
 -17  13   5 765.100 52.5100   1
 -19  -1  11 425.650 37.8700   1
 -19   1  11 467.430 37.7800   1
  -1  19  11 420.890 34.7700   1
 -11  19   1 502.760 55.3800   1
 -11  19  -1 410.700 61.2000   1
 -19  11   1 428.890 58.0100   1
  11  19   1 453.270 44.2900   1
 -19  11  -1 423.950 49.1100   1
  11  19  -1 415.920 56.4300   1
  13  17   5 748.430 43.9000   1
  17  13   5 796.280 46.7800   1
 -13 -17   5 694.850 42.8800   1
 -17   5  13 670.260 43.9400   1
  -5  17  13 728.930 41.8900   1
   5  17  13 696.470 39.4200   1
  -5  13  17 809.990 50.6100   1
 -17  -5  13 726.190 44.0300   1
 -13   5  17 714.670 48.1400   1
   5  13  17 679.290 46.8900   1
 -13  -5  17 688.480 43.4800   1
 -13 -17  -5 641.940 41.3600   1
  13   5  17 587.580 37.1800   1
   1  19  11 447.750 42.8800   1
 -17  13  -5 613.050 64.3200   1
 -13  17  -5 659.700 82.1800   1
 -13  17   5 715.990 56.2800   1
 -11  19   1 428.270 41.3200   1
 -12 -12  14 6383.08 174.690   1
   0  22   0 7797.69 216.100   1
 -22   0   0 7990.74 250.670   1
 -12 -14  12 5930.98 227.490   1
 -14  12  12 6134.64 160.700   1
 -12  14  12 6347.30 167.130   1
 -12  12  14 6045.09 155.590   1
  12  14  12 5962.13 156.230   1
  14  12  12 5951.20 158.780   1
  12  12  14 6246.58 162.490   1
 -14 -12  12 6266.14 175.330   1
   0   0  22 7497.87 186.460   1
 -12 -14  12 6373.74 179.930   1
 -14 -12  12 6132.73 188.230   1
 -12 -14  12 6190.63 194.570   1
   0  22   0 7198.50 188.260   1
  22   0   0 7246.44 209.180   1
 -12  18  -4 423.900 54.3500   1
   4  12  18 460.610 40.5800   1
 -12  18   4 574.290 51.2300   1
  18   4 -12 342.910 31.4500   1
 -18  -4  12 383.350 33.4900   1
 -18   4  12 422.470 34.1400   1
 -12 -18   4 409.290 34.3800   1
  12   4  18 426.810 34.3400   1
 -18  12  -4 397.770 72.0600   1
 -18  12   4 326.810 36.5400   1
 -12  18  -4 397.900 71.5300   1
 -18  12   4 434.810 40.7500   1
  12  18   4 442.640 37.1000   1
  -4  18  12 433.190 35.5600   1
 -12 -18  -4 358.480 30.8200   1
 -12  -4  18 405.570 32.8400   1
   4  18  12 427.310 33.4400   1
  -4  12  18 439.200 35.7900   1
 -12   4  18 442.530 44.8700   1
 -14  16   6 491.270 40.1100   1
  14  16   6 575.780 37.0900   1
 -14 -16   6 527.470 36.0700   1
  16  14   6 506.200 33.4800   1
  22   0  -2 4264.89 134.200   1
  -2   0  22 4587.71 127.740   1
   0   2  22 4443.59 124.070   1
   0  -2  22 4456.61 121.070   1
   0  22  -2 4352.95 133.250   1
   2  22   0 4447.57 129.640   1
  -2  22   0 4723.88 141.600   1
   2   0  22 4471.35 128.540   1
 -16  14  -6 577.120 64.7000   1
 -14  16  -6 507.410 72.9200   1
 -16  14   6 608.910 49.5400   1
 -22   2   0 4755.51 168.920   1
 -22   0   2 4978.89 179.360   1
   0  22  -2 4737.10 154.120   1
  -2  22   0 4624.99 136.250   1
   2  22   0 4657.19 139.880   1
   0  22   2 4725.28 135.660   1
  22   0   2 4428.68 137.270   1
  22  -2   0 4306.62 137.170   1
  22   2   0 4406.18 133.790   1
 -10 -18   8 1810.78 78.2600   1
 -18  10   8 1810.72 72.4600   1
 -10  18   8 1919.89 73.3900   1
  18   8  10 1944.89 67.9300   1
  16   6  14 491.460 34.5000   1
  14   6  16 521.150 35.4000   1
   6  14  16 568.380 44.1300   1
   6  16  14 565.630 43.5300   1
  -6  14  16 522.690 37.9700   1
 -14   6  16 593.740 43.5000   1
 -16   6  14 558.410 36.9000   1
 -16  -6  14 522.580 39.5800   1
 -10  -8  18 1948.03 67.0500   1
 -10 -18  -8 1736.53 76.2300   1
  10   8  18 1966.70 70.6100   1
   8  10  18 1918.42 69.7900   1
  18  10   8 1842.54 65.9100   1
  -8  10  18 1898.14 67.1600   1
  -8 -10  18 2032.22 73.5500   1
 -18  -8  10 1995.40 90.9200   1
 -10   8  18 1866.58 71.2500   1
 -18  -8  10 1899.49 74.3300   1
   8  18  10 1933.60 71.5100   1
  10  18   8 1835.39 67.9300   1
  -8  18  10 1782.16 70.5900   1
  -6  16  14 509.060 37.4300   1
 -14  -6  16 503.490 34.7400   1
 -10  18  -8 1817.14 94.5500   1
  -8 -18  10 1605.94 77.5900   1
 -18 -10   8 1963.22 78.3200   1
 -18   8  10 1765.61 65.0000   1
  21   1   7 31.4500 36.8500   1
   7  21   1 54.6400 29.4700   1
 -11   9  17 64.2600 26.9800   1
 -17  -9  11 41.6200 26.1100   1
  17  11   9 51.3300 23.2700   1
   9  11  17 59.8300 31.7100   1
  11   9  17 61.0900 33.5000   1
  17   9  11 88.8900 28.8600   1
 -11  -9  17 44.3400 24.1400   1
  -9 -17 -11 58.9600 27.2000   1
 -11 -17  -9 55.0900 20.8100   1
  -9 -11  17 50.6200 31.2300   1
  -9 -17  11 46.0800 25.7500   1
  -9  19   7 5271.32 145.510   1
  11   3  19 35.4300 26.7800   1
  19   3 -11 34.9900 23.2200   1
 -11  -3  19 2.65000 34.8600   1
   3  11  19 52.8100 33.1700   1
 -11   3  19 15.4200 32.6600   1
  -3  11  19 -3.2300 26.7700   1
  -9 -19   7 4927.47 161.520   1
 -19  -3  11 29.3700 28.4800   1
   3  19  11 48.2600 32.5400   1
 -19   3  11 78.5400 31.4500   1
  -3  19  11 25.1800 34.8300   1
 -19   9   7 5131.50 142.220   1
  -7 -19   9 5077.04 166.350   1
  19   9   7 5486.28 217.440   1
  -9  19  -7 5412.60 189.250   1
  19   7   9 5025.45 197.730   1
  -7  21  -1 20.3200 50.0000   1
 -21   7   1 -33.430 33.6600   1
   7  21  -1 58.4100 47.2400   1
  -7  21   1 71.0300 43.6600   1
   7  21  -1 83.8800 36.5700   1
  -7  21  -1 39.7300 47.7600   1
  21  -1   7 14.3100 33.9300   1
  -9  17  11 56.0200 28.6500   1
   7  -1  21 93.1900 28.6000   1
   7   1  21 42.9500 36.2100   1
  -7  -1  21 59.4700 34.0800   1
  -7   1  21 39.5600 26.7600   1
   1   7  21 32.4900 37.3900   1
  -1   7  21 27.7800 27.0100   1
  21  -1  -7 60.1500 24.9200   1
  -7 -21   1 6.57000 25.3900   1
  -1  21   7 50.9100 26.7800   1
   1  21   7 21.2600 25.7400   1
 -21  -1   7 66.0300 30.8000   1
 -21   1   7 25.0200 23.1000   1
  -7  21   1 -11.500 33.9400   1
  19   3  11 37.0800 54.8000   1
  21  -1   7 16.4400 33.4500   1
  -5  -5  21 3307.87 99.1600   1
   5   5  21 3356.67 100.270   1
  -5   5  21 3102.82 91.4300   1
  21   1   7 42.9800 30.2200   1
  -7  -9  19 5398.63 142.020   1
  19   7   9 5919.23 160.400   1
  -9  -7  19 5250.98 138.370   1
   9   7  19 5327.48 138.380   1
  19   9   7 5488.24 153.120   1
   7   9  19 5277.06 141.150   1
  -9 -19  -7 4844.29 158.410   1
  -9   7  19 5405.01 142.340   1
  -7   9  19 5435.78 147.390   1
   7  19   9 5447.80 148.430   1
 -19  -7   9 5622.00 175.220   1
   9  19   7 5507.65 153.230   1
  -7  19   9 5190.79 138.840   1
 -19   7   9 5356.76 149.730   1
  -9 -17  11 53.7300 29.5100   1
 -11 -17   9 48.7900 30.7100   1
 -17  11   9 54.8300 38.9700   1
 -11  17   9 44.7400 39.1100   1
 -17   9  11 21.2000 25.5000   1
  11  17   9 46.1100 28.6300   1
   9  17  11 51.5600 31.7300   1
  -9  11  17 -20.350 36.2200   1
 -11  19  -3 66.6800 42.3100   1
 -21   5   5 3249.84 109.200   1
 -21  -5   5 3172.67 133.090   1
  -5  21   5 3230.25 101.110   1
   5  21   5 3274.95 104.300   1
  -5  21  -5 3393.71 136.480   1
 -19  11   3 1.36000 42.0700   1
 -11  19  -3 33.0800 43.3700   1
  21   5   5 3105.65 112.710   1
 -19  11   3 57.9200 40.5100   1
 -19  11  -3 7.22000 45.0000   1
  11  19  -3 -6.2500 25.1700   1
 -11 -19   3 10.1200 22.7500   1
 -11  19   3 15.0400 43.5100   1
  11  19   3 27.8700 27.2500   1
  21   5   5 2899.95 107.190   1
  21   5  -5 3297.72 112.020   1
  -5  21  -5 3292.39 107.790   1
 -21   5   5 2870.80 97.2800   1
   2  22  -2 2195.80 84.6300   1
 -10  14  14 3133.83 96.4400   1
 -14  10  14 2943.58 88.7900   1
  -2  22  -2 2319.07 81.9300   1
  10  14  14 3031.12 94.9500   1
 -14 -10  14 3056.33 101.890   1
  14  10  14 2862.45 87.0800   1
  22  -2   2 1893.49 75.2200   1
  -2  22   2 2087.15 77.3400   1
   2  22   2 2179.90 84.0200   1
  22   2   2 2039.65 82.9700   1
  -2  22  -2 1984.75 85.0000   1
   2  22  -2 2079.33 93.4300   1
 -22   2   2 2263.04 99.1100   1
 -22  -2   2 2084.22 100.630   1
  22  -2  -2 1940.05 74.1800   1
  22   2  -2 2013.02 77.1500   1
  -2   2  22 2243.71 78.6100   1
   2   2  22 2209.97 72.7900   1
  -2  -2  22 2169.52 71.8200   1
   2  -2  22 2039.86 69.6600   1
 -14  14  10 3199.87 95.7400   1
  14  14  10 3201.50 99.7100   1
 -14 -14  10 3227.07 106.570   1
 -14 -14  10 3049.27 131.740   1
 -21  -3   7 881.620 50.8800   1
 -21   3   7 852.450 45.8600   1
  -3  21   7 955.250 48.2300   1
   3  21   7 898.430 51.6500   1
  21   7   3 844.900 48.5700   1
  -7 -21   3 737.160 46.7400   1
 -21   3   7 767.210 45.2100   1
  21   3  -7 813.460 43.5100   1
  21  -3  -7 786.040 45.8100   1
  -3   7  21 911.500 45.0300   1
  -7   3  21 873.680 44.7700   1
   3   7  21 775.480 42.2300   1
  -7  -3  21 915.690 51.6300   1
 -15  15  -7 321.740 57.5900   1
   7  21  -3 806.900 61.6700   1
  21   7   3 852.520 45.7100   1
  -7  21  -3 902.810 62.3600   1
 -21   7   3 890.170 52.6400   1
   7  21  -3 936.680 55.8400   1
  15  15   7 258.000 29.0800   1
  -7  15  15 239.690 39.1800   1
  -3  21  -7 933.650 72.0300   1
 -21   7  -3 933.620 82.1300   1
 -15  15   7 267.390 33.4600   1
  -7  21  -3 1005.24 75.0800   1
  21   3   7 874.930 61.2400   1
 -21   7   3 885.620 61.5800   1
  -7 -21  -3 752.460 45.0300   1
 -15 -15   7 285.780 29.8300   1
 -15   7  15 243.620 30.6800   1
   7  21   3 897.600 52.7700   1
  -7  21   3 816.780 56.5400   1
  21  -3   7 785.550 52.4200   1
   7   3  21 809.530 50.4700   1
  -3  -7  21 796.630 43.3900   1
  15   7  15 272.420 29.1400   1
 -15 -15   7 255.140 29.2200   1
 -15  -7  15 239.500 27.7100   1
   7  15  15 248.380 37.8700   1
   4   0  22 606.880 39.7600   1
  -8  20  -6 5276.95 172.700   1
   4  22   0 588.450 43.0200   1
  -4  22   0 597.090 45.0600   1
   0  22  -4 589.690 49.7500   1
   0  -4  22 610.950 39.5800   1
   0  20  10 696.820 47.4500   1
 -20   0  10 677.370 39.0300   1
  -8  20   6 5159.30 139.960   1
 -20  10   0 632.430 66.1900   1
  10  20   0 676.740 55.6200   1
 -10 -20   0 638.350 48.1600   1
   8  20   6 5472.53 156.220   1
 -10   0  20 639.420 39.1400   1
  20   0 -10 617.530 38.7700   1
 -10  20   0 579.180 45.2900   1
 -22   4   0 531.170 65.0000   1
   0  22  -4 495.020 55.0000   1
  10  20   0 632.000 46.6500   1
   4  22   0 585.000 47.7600   1
  -4  22   0 591.160 48.9600   1
   0  22   4 525.840 40.1000   1
  22   0   4 529.070 41.6100   1
  22   4   0 524.160 36.7100   1
  22   0  -4 524.270 33.4900   1
   0   4  22 462.440 36.2000   1
  -4   0  22 691.430 47.9900   1
   6  20   8 5197.86 138.380   1
  -6   8  20 4981.67 131.180   1
  -8   6  20 5406.80 146.000   1
  -8 -20  -6 4811.76 155.930   1
   6   8  20 5108.99 134.240   1
   8   6  20 5361.18 146.310   1
  -8  -6  20 5236.60 139.490   1
  20   8   6 5247.31 154.060   1
 -22   0   4 497.010 48.2900   1
 -20   8   6 5458.94 150.620   1
  -8 -20   6 4599.39 157.000   1
  20   8   6 4994.69 173.180   1
  -6  20   8 5356.09 142.460   1
 -10 -16  12 646.750 50.4100   1
  16  10  12 778.180 44.5900   1
 -16 -10  12 837.110 44.8600   1
  10  16  12 860.860 47.9500   1
 -16  10  12 768.160 48.4200   1
 -10  16  12 817.320 44.7900   1
 -10 -16  12 722.880 68.3500   1
 -20  -6   8 5450.58 165.480   1
 -10  20   0 773.730 53.8200   1
 -20   6   8 5377.28 150.970   1
   0  10  20 705.840 40.3900   1
  20   6   8 5032.77 172.410   1
  -6  -8  20 5081.63 139.650   1
 -12  10  16 730.710 46.3600   1
 -12 -10  16 802.170 46.6900   1
  12  10  16 716.270 39.2000   1
 -16  12  10 775.400 49.3200   1
 -12  16  10 799.300 44.5400   1
 -12 -16  10 676.770 55.3300   1
  10  12  16 829.780 48.0800   1
 -16 -12  10 827.700 53.1500   1
 -12 -16 -10 676.110 40.7800   1
  16  12  10 748.290 42.1900   1
 -10 -12  16 811.810 48.1200   1
  12  16  10 816.930 45.6200   1
 -10  12  16 846.950 44.4200   1
 -18  12  -6 800.720 70.4800   1
  -4  22   2 172.180 47.6700   1
   4  22   2 260.490 33.9200   1
   2  22   4 279.240 33.6300   1
  -2  22   4 177.210 43.1800   1
  22   2   4 218.840 30.5100   1
  22  -2   4 238.570 29.2000   1
  22   4   2 277.700 30.2100   1
  18   6  12 1030.73 49.6000   1
  12   6  18 1000.89 50.3300   1
 -12 -18  -6 878.870 50.7500   1
 -12  -6  18 943.930 45.1700   1
   6  12  18 971.210 45.3200   1
  -6  12  18 1019.26 48.1700   1
 -12   6  18 1026.42 52.6100   1
  18  12   6 1010.19 47.2100   1
   2  22  -4 264.000 45.7600   1
   6  18  12 1057.32 50.6500   1
  -6  18  12 963.940 46.9100   1
 -18   6  12 1003.72 51.9300   1
  -2  22  -4 241.890 44.3500   1
   2  -4  22 248.880 33.0000   1
 -20  10   2 30.9800 45.0100   1
   4  -2  22 256.140 43.5600   1
  -2  -4  22 244.960 31.9000   1
  22  -4  -2 236.750 32.2100   1
  22  -2  -4 199.580 32.5500   1
  22   2  -4 233.700 27.2300   1
  22   4  -2 261.140 27.4600   1
 -22   4  -2 372.990 65.9800   1
   2  22  -4 358.230 66.6800   1
 -22   2   4 218.160 44.5100   1
  -2  22  -4 213.020 49.6800   1
   4  22  -2 220.960 59.6800   1
 -22  -2   4 242.810 41.5400   1
 -22   4   2 189.450 47.8400   1
  -4  22  -2 278.930 59.0900   1
  -2   4  22 285.380 32.0900   1
   2   4  22 216.160 41.5300   1
  -4  -2  22 211.050 40.0800   1
   4   2  22 222.250 38.6600   1
 -10  20  -2 67.5800 40.8200   1
  20   2  10 82.7400 52.9100   1
  -4   2  22 208.810 31.1700   1
 -20  10  -2 69.5600 59.0300   1
  10  20   2 69.1400 36.1500   1
 -10  20   2 33.9000 33.8400   1
 -20   2  10 93.3900 30.9500   1
  -2  20  10 27.4600 27.5600   1
 -20  -2  10 49.8400 29.6600   1
   2  20  10 54.3500 33.0000   1
 -10 -20   2 48.0700 21.8900   1
  -2  10  20 67.0400 37.8600   1
 -10   2  20 26.1500 25.5400   1
   2  10  20 6.68000 37.3900   1
  20  -2 -10 42.9400 21.0000   1
 -10  -2  20 -3.9100 24.7800   1
  20   2 -10 37.7500 25.9400   1
  10   2  20 11.0100 26.5900   1
 -12  18  -6 912.340 72.5400   1
 -18  12   6 968.160 50.8900   1
 -12  18   6 920.900 49.2400   1
  12  18   6 972.540 48.1900   1
 -12 -18   6 930.980 54.2300   1
 -20  10   2 49.1800 36.0100   1
  10  20  -2 20.7300 36.8700   1
 -10  20  -2 23.3800 33.2100   1
 -10  20   2 70.3300 34.1200   1
  -4  22  -2 244.060 46.5900   1
   4  22  -2 257.970 35.8200   1
 -18  -6  12 945.110 45.8200   1
 -13  17   7 531.470 40.0400   1
 -13 -17  -7 438.240 35.7200   1
  17   7  13 510.430 40.5200   1
 -13 -17   7 430.210 35.2400   1
  13   7  17 505.160 42.0200   1
 -13  13  13 5275.00 142.980   1
  13  13  13 5245.79 141.660   1
 -13 -13  13 5696.82 160.770   1
 -13 -13  13 5383.52 166.430   1
 -13  17  -7 469.710 60.9500   1
 -17  13   7 517.190 40.5400   1
 -19   5  11 976.990 51.1700   1
  -5  19  11 958.760 54.4200   1
   5  19  11 1002.54 46.0500   1
 -19  -5  11 994.980 53.8300   1
  -5  11  19 981.520 53.8200   1
 -11   5  19 1030.24 54.6700   1
   5  11  19 1048.86 47.4300   1
 -11  -5  19 1035.37 51.4000   1
  11   5  19 1045.83 53.9800   1
 -13  -7  17 487.370 34.7000   1
   7  13  17 512.540 42.8500   1
 -17  -7  13 493.870 38.5300   1
  17  13   7 473.100 33.4000   1
 -13   7  17 427.630 35.1100   1
   7  17  13 506.680 42.2300   1
  -7  13  17 523.640 43.9300   1
  -7  17  13 499.480 45.9300   1
 -17   7  13 506.200 44.7000   1
  13  17   7 502.500 37.0700   1
  19  11   5 1079.28 75.1300   1
 -19  11  -5 1094.70 89.6700   1
 -11  19  -5 1120.57 74.1200   1
 -19  11   5 970.580 59.4400   1
 -11  19   5 943.700 59.5100   1
  11  19   5 955.110 47.9500   1
 -11 -19   5 1001.12 56.3400   1
  19  11   5 927.030 50.4500   1
 -11 -19  -5 967.200 52.9300   1
 -19  11   5 991.000 60.3700   1
  16  16   0 570.760 41.5100   1
 -16  16   0 563.760 54.0700   1
 -16   0  16 633.450 38.8300   1
   0  16  16 682.970 47.7900   1
 -16  16   0 784.840 56.5700   1
 -15  13  11 3031.48 95.5400   1
 -13 -15  11 2927.78 141.830   1
 -11 -15  13 2925.14 131.490   1
  -7  21  -5 3054.22 116.900   1
 -15 -13  11 2880.52 137.930   1
  21   5   7 3264.89 135.430   1
 -21  -5   7 3183.00 120.970   1
 -21   5   7 3225.61 107.340   1
  -7  21   5 3244.50 98.9600   1
 -21   7   5 3133.00 107.040   1
  21   7   5 3205.20 116.140   1
  -5  21  -7 3158.00 124.990   1
 -13 -15  11 2781.52 106.720   1
 -15  17   1 328.170 39.0700   1
 -17  15   1 319.920 37.3500   1
 -15  17  -1 233.680 37.4400   1
  15  17  -1 345.420 37.2000   1
 -17  15  -1 334.100 46.8200   1
   7  21   5 3195.28 99.6100   1
 -15  -1  17 314.690 36.5400   1
 -15   1  17 351.730 32.1800   1
   1  15  17 349.940 33.8600   1
 -17  -1  15 351.840 36.1000   1
  -1  15  17 397.510 34.4100   1
 -17   1  15 359.750 32.1800   1
 -15 -13  11 2885.35 115.840   1
  13  15  11 3199.37 101.290   1
 -11  13  15 2868.33 91.5800   1
   1  17  15 398.440 34.0700   1
  -1  17  15 374.790 33.6400   1
 -13  11  15 3013.65 94.1800   1
 -15  17   1 314.220 43.5900   1
 -17  15   1 340.770 44.3700   1
 -15  11  13 2984.95 90.1100   1
 -17  15  -1 327.050 47.5500   1
 -15  17  -1 388.220 47.9800   1
 -11 -15  13 2780.97 118.400   1
 -11 -13  15 3172.77 103.210   1
 -11  15  13 2952.58 90.7200   1
 -13 -15  11 2947.44 99.3900   1
 -13  15  11 2648.25 83.9800   1
  -5  21   7 3141.27 94.8100   1
   5  21   7 3407.18 105.630   1
  -7 -21   5 2784.51 99.0900   1
 -13 -11  15 3223.80 101.660   1
 -15 -13  11 3198.11 108.140   1
  -7 -21  -5 2736.20 98.4400   1
  15  17   1 364.540 38.8400   1
  17  15   1 388.440 39.0600   1
 -15 -11  13 3026.48 99.9800   1
  13  11  15 3055.48 95.9500   1
  15  11  13 2837.21 86.9100   1
  11  13  15 2816.48 84.5000   1
  15  13  11 3116.60 96.9700   1
  -7   5  21 2940.53 87.7500   1
  11  15  13 3049.65 95.6900   1
  -5   7  21 3069.42 90.4300   1
   5   7  21 3151.40 96.1000   1
  -7  -5  21 3301.54 99.6600   1
   7   5  21 3271.29 98.0700   1
  21   5  -7 3032.77 103.090   1
  -5  -7  21 3235.25 100.660   1
  21   7   5 3053.44 98.5800   1
  -7  21  -5 3082.79 99.5000   1
 -21   7   5 3127.94 106.940   1
  14   8  16 26.4900 30.7200   1
 -14  -8  16 32.5600 31.7000   1
 -16  -8  14 45.7100 26.1000   1
   8  14  16 61.9200 34.7300   1
   8  16  14 20.2100 23.7500   1
  16  14   8 59.5600 23.9600   1
 -14   8  16 93.9500 27.2500   1
  -8  14  16 71.3400 28.0300   1
  14  16   8 41.4600 25.6600   1
 -16   8  14 68.9400 26.7700   1
  -8  16  14 14.3900 26.8500   1
 -14  16   8 87.5200 39.3100   1
 -16  14   8 47.8200 28.7500   1
 -14 -16   8 46.0500 27.2600   1
 -16  16  -2 50.9800 31.1300   1
 -20  10   4 413.310 46.6400   1
 -10  20  -4 280.660 52.1800   1
  20   4 -10 291.420 27.0000   1
  10   4  20 391.070 40.3900   1
 -10  -4  20 237.570 29.5700   1
   4  10  20 425.930 40.3100   1
 -10 -20  -4 324.720 34.2500   1
 -10   4  20 312.550 32.3800   1
  -4  10  20 261.920 42.1600   1
 -10 -20   4 285.640 26.8900   1
   4  20  10 287.320 36.0700   1
 -20  -4  10 342.040 34.8700   1
  -4  20  10 302.470 39.7800   1
 -20   4  10 306.700 36.3400   1
  10  20   4 209.690 35.3200   1
 -10  20   4 309.220 37.6500   1
 -20  10   4 317.670 38.1300   1
 -10  20  -4 389.860 71.5700   1
  20   4  10 233.080 56.3900   1
 -20  10  -4 259.340 52.2100   1
  22   4   4 214.570 33.8400   1
   4  22  -4 230.930 41.5600   1
  -4  22  -4 223.870 48.3900   1
 -22   4   4 227.190 35.8600   1
  -4  -4  22 198.950 40.3200   1
   4   4  22 232.150 31.9700   1
  -4   4  22 212.100 30.9600   1
  22   4  -4 246.100 27.6300   1
  22   4   4 247.210 31.9200   1
  -4  22   4 302.540 35.5100   1
   4  22   4 268.690 41.3400   1
 -22   4   4 271.270 36.3400   1
  -4  22  -4 184.950 47.3400   1
 -22  -4   4 267.010 53.2800   1
   4  22  -4 319.730 65.1200   1
 -16  16   2 51.2600 44.1200   1
 -16  -2  16 3.94000 32.0200   1
   2  16  16 32.0600 36.2900   1
 -16   2  16 61.2500 33.8700   1
  -2  16  16 29.9900 38.3000   1
 -16  16   2 39.5800 35.2800   1
 -16  16  -2 11.4100 41.4200   1
  16   8  14 60.0700 29.6400   1
  -6   0  22 198.850 29.9400   1
   6  22   0 174.780 40.0400   1
  -6  22   0 172.090 36.3100   1
  22   0   6 131.870 31.2800   1
   0  -6  22 167.570 31.3500   1
 -22   0   6 212.830 33.3200   1
   6   0  22 226.650 41.9400   1
   0   6  22 150.040 40.4400   1
  22   0  -6 206.870 30.8500   1
  22   6   0 175.100 25.7400   1
  -6 -22   0 156.240 29.9500   1
   0  22   6 200.630 37.3900   1
  22   0   6 222.150 37.4700   1
 -22   0   6 176.760 34.3900   1
  -6  22   0 227.370 40.8400   1
   6  22   0 168.490 36.1200   1
 -22   6   0 188.930 43.1400   1
   0  22  -6 229.970 51.4100   1
 -14  18   0 547.600 44.0500   1
  14  18   0 520.010 36.8900   1
 -18  14   0 560.370 51.2900   1
 -14  18   0 626.040 50.5700   1
   0  18  14 583.990 42.7200   1
 -18   0  14 553.680 40.2900   1
   0  14  18 627.990 47.3200   1
 -14   0  18 669.410 45.9900   1
 -14 -18   0 588.350 41.5900   1
 -18  14   0 446.340 40.4600   1
  -9 -21  -1 357.170 33.3600   1
  -9 -21   1 385.260 32.9600   1
   1  21   9 404.220 33.4200   1
  -1  21   9 442.610 35.6200   1
 -21   1   9 474.800 41.3500   1
   1   9  21 433.170 34.7600   1
  -9  -9  19 1085.16 52.1500   1
 -21  -1   9 475.520 37.6800   1
  19   9   9 1082.00 48.5900   1
  21  -1  -9 402.740 35.8700   1
  -9   1  21 392.960 34.0400   1
  -1   9  21 491.450 42.1600   1
  -9 -19   9 1039.60 68.9100   1
 -19   9   9 1029.52 48.9200   1
  -9  19   9 1016.96 49.2600   1
 -19  -9   9 1092.62 61.6700   1
   9  19   9 1026.58 45.2200   1
  -9   9  19 990.890 53.2200   1
   9   9  19 1058.77 53.3900   1
  -9 -19  -9 933.550 52.1400   1
  -9  -1  21 460.940 35.3200   1
  21   1  -9 360.270 28.4000   1
   9   1  21 507.740 43.4600   1
 -21   9   1 377.730 45.7200   1
  -9  21  -1 368.530 53.2900   1
  -9  21   1 415.710 53.8800   1
   9  21   1 405.790 48.4200   1
  -9  21  -1 534.210 59.9500   1
  21   1   9 448.720 53.5800   1
 -21   9   1 394.790 45.2300   1
 -21   9  -1 381.510 50.5900   1
   9  21  -1 391.200 54.4200   1
   9  21  -1 444.750 46.2700   1
  -9  21   1 400.980 51.7000   1
   9  21   1 431.520 44.1800   1
  -3  17  15 363.250 33.7300   1
 -17   3  15 396.190 32.4000   1
   3  17  15 357.260 38.6600   1
  -3  15  17 340.780 39.8000   1
 -15   3  17 398.210 41.6100   1
 -17  -3  15 360.840 37.8800   1
   3  15  17 382.970 33.6200   1
 -15  -3  17 387.490 39.3700   1
 -15  17   3 277.100 39.0700   1
 -15  17   3 335.580 39.7300   1
 -17  15   3 358.640 38.2400   1
 -15  17  -3 293.160 51.0900   1
 -17  15   3 348.040 40.8000   1
  15  17   3 368.440 40.7700   1
 -17  15  -3 313.600 63.8900   1
 -15  17  -3 287.670 49.7100   1
  -6  22  -2 16.4600 57.9400   1
  -6 -22   2 20.7300 20.7500   1
  18   2 -14 11.9700 24.5900   1
  -2   6  22 20.0700 35.4100   1
  -6   2  22 24.6800 26.8900   1
   2  22  -6 -22.610 44.5900   1
  -2  22  -6 23.1800 61.0600   1
   2   6  22 12.5100 26.3000   1
   6  22  -2 43.6700 50.1000   1
  -6  -2  22 9.05000 26.5400   1
   6   2  22 58.6100 28.3900   1
  -2  -6  22 -8.9600 27.1300   1
   6  -2  22 58.3300 36.8400   1
   6  22  -2 1.76000 37.1100   1
  -6  22  -2 -8.1900 33.1400   1
 -22   6  -2 -41.620 58.4600   1
  -6  22   2 15.9700 33.8100   1
  22  -2   6 19.3900 32.1500   1
   6  22   2 53.6100 36.6000   1
 -22   6   2 13.1000 43.4600   1
  -2  18  14 -12.400 36.9600   1
 -18   2  14 -24.380 22.8500   1
   2  18  14 -8.2300 25.2100   1
 -18  -2  14 -0.3700 29.1500   1
   2  22   6 16.2300 33.2200   1
  -2  22   6 4.64000 35.4000   1
  22   2   6 11.6000 32.1200   1
 -22   2   6 10.7200 25.4200   1
  -6  22   2 -36.490 31.3100   1
  22  -2  -6 -29.940 27.5000   1
   2  14  18 11.7500 37.2800   1
 -14  -2  18 38.2100 31.4700   1
 -18  10  10 20.2400 26.3200   1
 -10 -18  10 1.68000 32.1900   1
 -10 -18 -10 -10.360 25.7000   1
 -10 -10  18 -31.440 34.0300   1
 -18  14  -2 -14.080 59.4200   1
 -14   2  18 14.4500 32.5500   1
 -14  18  -2 -18.270 41.4000   1
 -18  14   2 -9.1400 35.1900   1
 -14  18   2 68.0700 36.0500   1
  -2  14  18 -18.950 27.6100   1
 -10  10  18 8.66000 27.3300   1
  10  18  10 11.4900 26.7900   1
 -10  18  10 54.7400 40.5400   1
 -14  18   2 -6.6100 32.0800   1
 -18  14   2 62.8300 39.1800   1
 -14  18  -2 6.99000 33.2500   1
  14  18  -2 -15.360 31.8000   1
  10  10  18 -30.940 34.2500   1
  -8   8  20 3041.31 90.5000   1
   8  20   8 3008.18 89.8900   1
  -8  20   8 3261.52 100.160   1
 -20   8   8 3041.85 94.6700   1
  20   8   8 3074.47 94.6100   1
  -8  -8  20 2971.22 87.9400   1
  20   8   8 3039.89 144.300   1
  -8  20  -8 3261.11 123.280   1
   8   8  20 2898.46 83.8400   1
 -16  16   4 1730.78 69.1400   1
 -16  16   4 1604.89 71.2000   1
 -20  -8   8 3016.19 115.180   1
  16   4  16 1688.22 61.0700   1
 -16  -4  16 1766.30 64.2000   1
   4  16  16 1788.25 67.9400   1
 -16   4  16 1714.64 64.1500   1
  -4  16  16 1828.31 66.8300   1
  16  16   4 1847.76 84.0900   1
 -16  16  -4 1517.32 82.6800   1
 -11  11  17 797.450 49.7100   1
  11  17  11 783.850 44.8600   1
  -1  13  19 605.970 46.0800   1
  11  11  17 770.390 40.3900   1
  17  11  11 774.160 41.5800   1
 -11 -11  17 808.910 46.4400   1
 -11 -17 -11 655.470 40.6000   1
 -17 -11  11 688.580 51.6300   1
 -23   1   1 7668.79 220.290   1
 -23  -1   1 7955.87 239.040   1
  23  -1   1 7232.54 195.650   1
 -19   7  11 990.150 51.0400   1
  -7  19  11 1136.91 55.5600   1
   7  19  11 965.200 44.3600   1
 -19  -7  11 1051.71 50.6700   1
  -7  11  19 1098.43 56.4100   1
 -11   7  19 973.360 53.2000   1
  23   1   1 7166.95 194.630   1
   7  11  19 1038.88 46.5400   1
 -11  -7  19 992.580 45.7700   1
  11   7  19 1076.54 47.3500   1
  19   7  11 1081.28 50.7400   1
  -7 -11  19 984.320 47.5600   1
  23   1  -1 7085.29 183.980   1
  23  -1  -1 6989.94 185.540   1
  13  19   1 583.070 55.3900   1
 -13  19  -1 632.820 66.3300   1
 -19  13   1 668.550 65.7900   1
   1  23  -1 7564.77 190.630   1
  -1  23  -1 7471.55 190.940   1
   1  23   1 7663.73 187.460   1
  -1  23   1 7894.40 201.450   1
 -13  19   1 589.400 61.2800   1
 -19  13  -1 575.530 63.1900   1
   1  23   1 7953.92 207.090   1
  -1  23   1 8107.23 199.960   1
   1  13  19 600.610 46.9000   1
 -13   1  19 505.720 42.1800   1
 -13  -1  19 567.200 44.0800   1
 -13 -19   1 496.440 35.0400   1
 -13 -19  -1 492.530 36.0400   1
 -19  13  -1 477.710 52.2300   1
 -19  13   1 550.580 42.1100   1
  13  19  -1 527.240 43.4000   1
 -13  19  -1 589.470 52.7000   1
 -13  19   1 595.070 52.2300   1
  13  19   1 562.190 46.3900   1
  -1  23  -1 8036.36 207.660   1
   1  23  -1 7957.11 217.840   1
 -11 -17  11 745.280 60.2800   1
 -11  17  11 712.260 51.3700   1
 -17  11  11 705.530 41.6300   1
 -17 -11  11 754.990 45.2900   1
   3   9  21 -32.030 34.3200   1
  -9  -3  21 2.03000 25.7100   1
   9   3  21 -20.420 37.9700   1
   9  21  -3 30.8800 26.5900   1
  -9  21  -3 29.0800 46.5700   1
 -21   9   3 -25.480 26.2200   1
  -9  21   3 -11.860 43.5900   1
  15   9  15 68.2600 33.0000   1
 -15  -9  15 49.9000 31.1700   1
   9  15  15 53.2800 24.8200   1
  15  15   9 68.0500 23.7100   1
 -15   9  15 72.0400 27.3000   1
  -9  15  15 27.7400 35.6500   1
 -15  15   9 49.0300 37.8900   1
 -15 -15   9 100.500 32.1200   1
 -11  19  -7 1000.48 85.4300   1
 -19  11   7 1046.31 59.5300   1
 -11  19   7 956.060 48.6200   1
 -11 -19   7 936.960 60.2900   1
  11  19   7 986.350 47.5500   1
  19  11   7 975.550 46.7200   1
 -11 -19  -7 930.030 48.8300   1
  -1  -1  23 7899.32 188.450   1
   1   1  23 7926.25 188.650   1
  -1   1  23 7727.28 186.330   1
 -19   1  13 634.980 43.9300   1
  -1  19  13 607.030 45.6200   1
   1  19  13 622.270 44.0400   1
 -19  -1  13 633.570 37.1900   1
  19   1 -13 433.550 37.0500   1
 -21   9  -3 -72.180 57.5100   1
  -9  21  -3 -4.6800 43.1700   1
  21   3   9 -4.1500 30.7300   1
 -21   9   3 48.5300 42.6600   1
 -21   3   9 -24.310 33.9200   1
 -21  -3   9 24.1800 26.3100   1
   1  -1  23 7819.96 185.570   1
  -3  21   9 47.5400 36.5800   1
   3  21   9 7.89000 31.8800   1
  -9 -21   3 10.8200 22.2500   1
  -9 -21  -3 3.38000 24.4600   1
  -3   9  21 -24.110 37.9900   1
  -9   3  21 -24.310 25.6200   1
 -12   8  18 336.760 33.7500   1
   8  12  18 393.990 38.7500   1
 -12  -8  18 374.390 39.5000   1
  12   8  18 361.730 38.2800   1
  18  12   8 347.380 29.8600   1
 -12  18  -8 284.810 57.2200   1
 -12 -18  -8 318.760 31.2800   1
  18   8  12 381.690 30.2000   1
  -8 -18  12 292.120 39.8300   1
 -18  -8  12 410.660 35.2100   1
  -8  12  18 418.970 42.6000   1
   8  18  12 449.930 38.3700   1
  12  18   8 450.040 36.9800   1
  -8  18  12 367.530 35.1300   1
 -18   8  12 347.060 41.8600   1
 -12  18   8 285.120 42.7000   1
 -18  12   8 348.460 35.7400   1
 -12 -18   8 347.350 35.2500   1
  10  20   6 1655.57 68.3000   1
 -10  20   6 1734.20 72.6100   1
 -20  10   6 1468.39 60.9700   1
  20  10   6 1651.07 85.7100   1
 -10  20  -6 1572.61 100.420   1
  20   6  10 1537.68 96.6500   1
   6  22  -4 444.200 68.5900   1
  22   4   6 491.620 41.4600   1
  -6  22  -4 492.520 42.2400   1
  -4  18  14 955.840 53.9700   1
 -18   4  14 939.700 48.8000   1
   6  20  10 1738.42 66.3500   1
  -4  14  18 952.860 53.0500   1
 -18  -4  14 934.190 44.0900   1
 -14   4  18 921.110 45.3700   1
   4  14  18 992.540 52.4100   1
 -14  -4  18 894.650 43.8700   1
  14   4  18 1110.16 55.1900   1
  -4  22  -6 524.140 59.2000   1
 -22  -4   6 600.680 47.7200   1
 -22   6   4 583.400 54.5900   1
 -22   4   6 525.530 48.2300   1
  22   4   6 512.700 42.8500   1
  -6  22   4 625.320 43.9800   1
   6  22   4 598.090 39.5500   1
  -4  22   6 503.900 39.5100   1
   4  22   6 569.690 37.8800   1
   6  22  -4 584.200 49.6300   1
 -12 -14  14 3739.87 135.990   1
  -6  22  -4 551.450 58.0200   1
  22   6  -4 525.840 39.9600   1
  22   6   4 531.050 40.5100   1
  -6  -4  22 557.810 37.6400   1
   6   4  22 559.200 46.1000   1
  22   4  -6 469.890 34.4500   1
  -6 -22   4 517.530 39.6000   1
  -4   6  22 576.970 44.3100   1
  -6  20  10 1610.89 60.5500   1
 -10 -20   6 1438.57 73.4900   1
 -20  -6  10 1678.55 71.3500   1
  -4  -6  22 541.630 46.1500   1
  -6  10  20 1565.60 61.9100   1
 -10   6  20 1597.15 58.7300   1
  20  10   6 1631.29 63.5000   1
   6  10  20 1454.63 55.7100   1
 -10 -20  -6 1380.58 59.3100   1
 -10  -6  20 1506.18 76.1700   1
  10   6  20 1511.07 61.4600   1
  -6 -10  20 1639.06 60.6600   1
 -14 -14  12 3298.01 127.500   1
 -12 -14  14 3895.26 116.030   1
 -14 -14  12 3848.25 116.210   1
 -14 -12  14 3758.09 115.970   1
  14  14  12 3911.53 109.680   1
 -14  12  14 3746.19 103.080   1
 -12  14  14 3558.15 98.3900   1
 -14  14  12 3726.02 105.470   1
 -14 -14  12 3573.31 156.020   1
  12  14  14 3816.45 105.580   1
   4  18  14 983.390 50.9600   1
   4   6  22 587.270 46.8900   1
  -6   4  22 565.600 44.3800   1
  22  -4   6 414.860 42.6700   1
  22   6   4 532.820 43.1300   1
 -22   4   6 517.100 43.9500   1
 -22   6   4 457.360 44.4000   1
 -20   6  10 1634.09 63.7500   1
  14  12  14 3496.86 97.7900   1
 -14 -18   4 1027.77 56.7200   1
  14  18   4 888.880 49.9100   1
 -14  18   4 1048.72 64.9000   1
 -18  14   4 920.470 52.5900   1
 -18  14   4 872.890 57.9100   1
 -14  18  -4 1198.49 85.9400   1
 -18  14  -4 846.790 80.2200   1
 -14 -18  -4 885.700 51.4400   1
  -7  21  -7 2834.12 124.110   1
 -13  19   3 44.7200 34.7400   1
 -19  13   3 31.5400 42.4000   1
 -13  19  -3 -25.210 41.7700   1
  13   3  19 -3.4800 33.4100   1
  19   3 -13 51.5900 24.8800   1
 -13  -3  19 9.91000 35.0200   1
   3  13  19 46.5800 35.1200   1
 -13   3  19 11.2000 25.2800   1
   9  13  17 -12.700 24.4400   1
 -19  -3  13 43.2800 29.5200   1
   3  19  13 46.6100 33.0600   1
 -19   3  13 32.4500 24.8400   1
  -3  19  13 90.9300 28.3500   1
 -23   3  -1 3229.99 126.120   1
 -23   3   1 3371.45 133.430   1
  -1  23  -3 3331.52 121.460   1
   1  23  -3 3268.42 115.100   1
 -23  -1   3 3402.75 135.170   1
   3  23  -1 3465.41 123.860   1
 -23   1   3 3285.49 120.300   1
  -3  23  -1 3364.55 117.160   1
  -3  23   1 3436.52 107.320   1
   3  23   1 3255.76 103.240   1
  -1  23   3 3293.24 102.740   1
   1  23   3 3308.58 107.500   1
 -13  19   3 32.1500 44.5800   1
 -19  13   3 16.8100 43.6200   1
 -13  19  -3 -1.5900 61.4900   1
 -19  13  -3 24.0400 48.7300   1
  -3  23  -1 3251.75 98.0500   1
   3  23   1 3299.34 102.390   1
 -15   5  17 2862.23 82.9500   1
  -5  15  17 3038.04 89.6000   1
  -5  17  15 3061.69 87.1200   1
 -17   5  15 2914.38 86.2300   1
 -17  -9  13 23.0200 27.3900   1
   9  17  13 -7.4500 29.9800   1
  -9  13  17 -35.470 26.0700   1
  -9  17  13 -58.310 40.7000   1
 -13  17   9 -99.230 40.7600   1
 -17   9  13 -15.640 26.3600   1
  17   5  15 2835.69 87.4000   1
  -3  23   1 3211.81 97.5900   1
 -13 -17  -9 4.21000 25.9700   1
  17   9  13 -32.130 27.6500   1
  13   9  17 11.2000 24.0400   1
 -13  -9  17 18.0100 32.5900   1
  15   5  17 2893.10 86.2200   1
 -15  -5  17 3021.31 92.3500   1
   5  15  17 2923.47 84.6100   1
 -17  -5  15 3024.91 91.4000   1
   5  17  15 2984.85 88.1400   1
  23   1   3 3029.60 105.020   1
  23  -1   3 2921.02 103.020   1
  23   3   1 3066.39 103.410   1
  23  -1  -3 2834.33 94.1500   1
  -3  13  19 -1.1600 26.7900   1
  23   3  -1 3102.41 104.400   1
  23   1  -3 3001.44 104.620   1
  -1   3  23 3274.04 95.5000   1
  -3   1  23 3394.67 99.2300   1
   1   3  23 3373.69 92.8100   1
  -3  -1  23 3451.13 103.290   1
  -9 -17  13 -24.000 49.8100   1
 -17  13   9 62.4900 40.6400   1
   3   1  23 3148.12 90.1200   1
  -1  -3  23 3293.09 95.5000   1
   3  -1  23 3420.44 97.2800   1
   1  -3  23 3384.70 101.860   1
  -1  23  -3 3300.41 99.1300   1
   1  23  -3 3466.57 103.100   1
   3  23  -1 3381.60 107.970   1
  21   7   7 2672.97 91.9900   1
  -7  -7  21 2774.98 85.9900   1
   7   7  21 2823.88 86.5000   1
  -7   7  21 2751.00 84.3700   1
   7  21   7 2798.15 89.8600   1
  -7  21   7 2665.22 85.7100   1
  -7 -21   7 2331.26 99.9200   1
 -21   7   7 2768.70 89.8700   1
 -21  -7   7 2915.71 137.130   1
  21   7   7 2638.04 119.150   1
 -17  15   5 3072.70 95.3500   1
 -17  15  -5 3171.98 130.540   1
 -15  17  -5 2968.21 118.450   1
 -15 -17   5 2911.67 97.9600   1
 -15  17   5 3009.07 96.2800   1
  17  15   5 3092.37 102.540   1
  15  17   5 3037.61 95.8500   1
 -12   0  20 1106.57 53.7600   1
 -12 -20   0 1109.98 55.5500   1
   0  12  20 1202.92 56.5800   1
   0  20  12 1247.43 58.6400   1
 -12  12  16 2187.74 70.6200   1
 -16  12  12 2127.16 70.3200   1
 -12  16  12 2276.90 79.0000   1
 -12 -16  12 2195.45 122.900   1
  12  20   0 1112.65 58.1400   1
 -20   0  12 1103.12 48.6900   1
 -16 -12  12 2092.26 98.0500   1
 -12 -12  16 2181.01 72.2000   1
 -16 -12  12 2197.33 79.0800   1
  16  12  12 2056.77 71.2400   1
  12  12  16 2207.56 69.7600   1
  12  16  12 2230.13 73.4200   1
 -12  20   0 1069.76 61.1400   1
 -20  12   0 1175.88 61.1200   1
  12  20   0 1224.28 87.1000   1
 -20  12   0 1058.34 62.0100   1
 -12  20   0 1159.88 63.2200   1
  20   0 -12 995.800 49.4600   1
  -5   9  21 858.420 44.7700   1
  -9 -21  -5 672.740 51.2100   1
   5   9  21 769.080 48.8300   1
  21   9   5 835.850 49.0100   1
   9   5  21 793.700 49.7900   1
  -5  -9  21 798.970 43.2300   1
  21   5  -9 735.330 44.6000   1
 -21   9   5 846.530 54.7200   1
  -9  -5  21 777.860 41.9400   1
  -3  23  -3 1195.94 57.5000   1
   3  23  -3 1122.11 61.0900   1
   3  -3  23 1073.47 48.9400   1
  -3  -3  23 1147.17 57.7200   1
   3   3  23 1117.63 57.0200   1
  -3   3  23 1057.55 56.1100   1
  23   3  -3 1089.01 56.2900   1
  23  -3  -3 958.760 51.5600   1
  23   3   3 1130.80 56.7800   1
   3  23   3 1083.93 57.6200   1
  -3  23   3 1142.11 64.0900   1
 -23   3   3 1160.84 67.5600   1
  -3  23  -3 1193.34 68.8100   1
   3  23  -3 1029.20 80.7600   1
 -23  -3   3 1139.93 75.2100   1
  -9  21  -5 771.090 65.5200   1
  21   5   9 793.370 69.1800   1
 -21   9   5 771.520 53.4700   1
  -9  21   5 776.980 46.8800   1
  21   9   5 820.430 55.3900   1
   9  21   5 806.110 42.8400   1
 -21   5   9 774.710 49.7000   1
 -21  -5   9 807.660 50.1200   1
  -5  21   9 876.010 53.3600   1
   5  21   9 830.920 48.1200   1
  -9 -21   5 765.600 55.8000   1
  -9   5  21 783.510 48.6300   1
  -8  22   0 656.390 47.4100   1
   8  22   0 624.750 42.7600   1
 -22   0   8 693.080 45.1100   1
 -20  12  -2 527.780 70.2800   1
 -12  20  -2 516.400 53.0600   1
  12  20   2 540.980 49.5500   1
 -20  12   2 517.760 47.3500   1
 -12  20   2 580.500 47.2400   1
 -20   2  12 460.610 39.3500   1
  -2  20  12 434.070 35.2400   1
   2  20  12 474.540 35.7200   1
 -20  -2  12 433.310 33.0000   1
 -12 -20   2 408.510 32.8300   1
  -2  12  20 496.710 36.9800   1
   2  12  20 599.210 46.0500   1
 -12   2  20 528.140 46.0600   1
 -12 -20  -2 406.910 35.6000   1
  20   2 -12 367.390 34.2500   1
  12   2  20 515.000 45.7100   1
  12  20  -2 463.960 37.5400   1
 -12  20  -2 471.070 53.9900   1
 -20  12   2 408.520 39.0800   1
 -12  20   2 362.530 40.8400   1
 -16  16  -6 3131.54 131.660   1
 -12  -2  20 510.810 41.3800   1
 -22   8   0 434.170 62.8100   1
   8  22   0 630.750 58.4200   1
  -8  22   0 626.040 61.7400   1
  22   0   8 626.070 53.6400   1
 -22   0   8 660.760 39.8900   1
  16   6  16 3594.21 102.440   1
 -16  -6  16 3093.97 90.4000   1
   6  16  16 3391.01 93.3400   1
  -6  16  16 3247.75 91.5900   1
 -16   6  16 3266.04 91.2300   1
  16  16   6 3293.26 104.440   1
 -16  16   6 3419.08 103.410   1
   0  22   8 688.410 45.9600   1
  -8 -22   0 573.050 40.2400   1
  22   0  -8 538.980 37.1100   1
   0   8  22 642.720 39.2400   1
  -8   0  22 558.190 37.9100   1
   8   0  22 630.040 48.3700   1
  22   0   8 527.990 45.5100   1
  -8  22   2 235.350 38.8500   1
 -22  -2   8 292.900 37.0000   1
  -8  22  -2 251.080 38.9900   1
  22  -2   8 199.880 36.8600   1
   8  22  -2 259.440 34.2900   1
 -22   8   2 248.680 39.9700   1
   8   2  22 255.370 32.2000   1
  22   2  -8 208.780 29.3700   1
  -8  -2  22 249.100 31.2900   1
 -22   8  -2 321.700 65.8000   1
   8  22  -2 257.970 44.9000   1
  -8  22  -2 346.650 64.5000   1
 -10  14  16 199.630 42.6600   1
  22   2   8 277.410 44.7800   1
   8  22   2 291.530 41.5500   1
 -22  -2   8 256.590 34.2200   1
 -22   2   8 223.130 28.9700   1
  -2  22   8 305.380 42.7900   1
  16  14  10 204.390 30.6100   1
 -16  10  14 139.810 37.4500   1
  10  16  14 246.960 33.6900   1
 -10  16  14 187.400 39.5800   1
  14  16  10 176.480 29.2200   1
 -14  10  16 266.520 31.6300   1
 -14  16  10 129.160 42.4100   1
 -16  14  10 144.050 30.6600   1
 -14 -16  10 200.470 34.2600   1
 -16 -14  10 212.630 40.8100   1
 -10 -16  14 193.900 58.7000   1
  -8  22   2 164.980 52.7100   1
 -22   8   2 282.930 50.1800   1
   2  22   8 269.880 30.5700   1
 -14 -16  10 208.060 32.2000   1
  16  10  14 186.620 31.8200   1
 -14 -10  16 185.550 26.7200   1
  14  10  16 266.520 35.0100   1
 -16 -14  10 208.790 28.0000   1
 -16 -10  14 185.600 32.5400   1
  10  14  16 223.420 29.3200   1
  -8 -22   2 182.510 25.4000   1
  -8 -22  -2 223.180 26.9900   1
  22  -2  -8 183.680 31.8900   1
  -2   8  22 335.860 44.3300   1
  -8   2  22 267.510 31.9400   1
   2   8  22 271.060 43.0700   1
  -5  23  -1 1071.50 69.9500   1
   5  23  -1 1079.42 73.3400   1
  -1  23   5 1048.75 51.0700   1
  -5  -1  23 1100.09 53.8100   1
   5   1  23 1035.54 53.1900   1
   5  -1  23 1137.98 57.7300   1
  -1  -5  23 1140.47 58.2000   1
 -23   5   1 1220.17 77.1500   1
   1  23  -5 943.340 68.8300   1
 -23   5  -1 907.860 75.2800   1
  23  -1   5 899.080 55.8700   1
   1  -5  23 1075.43 53.8700   1
 -23   1   5 1071.94 59.5300   1
  -1  23  -5 1103.89 62.6200   1
   1  23  -5 980.470 62.2400   1
   5  23  -1 1176.71 55.0700   1
  -5  23  -1 1035.81 63.0200   1
  -5  23   1 1097.13 64.6200   1
   5  23   1 1140.01 55.3300   1
 -19  13   5 862.080 49.7800   1
  13   5  19 1026.43 51.5200   1
 -13 -19  -5 830.850 45.4900   1
 -13  -5  19 946.360 49.2700   1
   5  13  19 1013.26 51.0100   1
 -13   5  19 899.130 52.1600   1
 -19  13  -5 986.220 83.8900   1
 -13  19  -5 817.140 84.6200   1
  23   1   5 881.850 52.0000   1
  -5  13  19 913.830 51.7000   1
 -19  -5  13 1004.00 47.9100   1
   5  19  13 924.020 43.9000   1
 -13 -19   5 891.660 50.5500   1
 -19   5  13 943.920 49.9700   1
  13  19   5 989.780 53.4200   1
 -13  19   5 900.200 50.4300   1
  23   1   5 968.760 56.8800   1
  23   5   1 942.410 48.7100   1
  23  -1  -5 941.550 50.0000   1
  23   5  -1 1019.29 51.2000   1
  23   1  -5 931.940 49.9400   1
  -1   5  23 980.800 47.0400   1
   1   5  23 1030.75 47.6900   1
  -5   1  23 1092.51 54.2400   1
  -5  23   1 1035.03 58.2200   1
 -19  13   5 1024.90 59.6600   1
  -1  23  -5 1155.45 89.2800   1
   5  23   1 1070.03 65.2100   1
 -23  -1   5 1184.17 69.5300   1
   1  23   5 1108.54 55.5600   1
  -5  19  13 1010.46 47.8500   1
 -14  -6  18 2389.34 74.9800   1
  -6  22  -6 1108.60 74.5200   1
 -22  -6   6 1229.64 74.1700   1
 -22   6   6 1246.44 66.6200   1
  22   6   6 1210.93 69.4400   1
  -6  22   6 1149.55 53.2700   1
  14   6  18 2568.83 80.5300   1
   6  14  18 2565.32 81.1200   1
 -18  -6  14 2660.20 90.0700   1
 -14   6  18 2635.19 81.8600   1
  -6  14  18 2445.17 74.9700   1
   6  18  14 2577.73 77.4400   1
  -6   6  22 1078.71 53.1500   1
   6  22   6 1163.92 56.0600   1
  18   6  14 2433.18 76.1400   1
 -18   6  14 2731.33 86.2700   1
 -22   6   6 1087.15 55.8400   1
  -6  18  14 2596.34 83.1600   1
  22   6  -6 1084.70 52.0800   1
  -6  -6  22 1150.53 56.7800   1
   6   6  22 1205.53 57.2500   1
 -14 -18   6 2543.70 97.1200   1
  18  14   6 2691.46 93.3700   1
 -14  18   6 2497.46 81.4400   1
  14  18   6 2532.47 88.6300   1
 -18  14   6 2616.79 89.4400   1
 -14  18  -6 2524.42 114.670   1
 -18  14  -6 2395.93 105.340   1
 -14 -18  -6 2291.46 90.7200   1
 -12  20   4 71.7800 47.9000   1
 -20  12   4 119.190 46.9000   1
 -12  20  -4 45.6000 48.8100   1
 -20  12  -4 49.9400 49.0700   1
 -12  20  -4 86.4500 50.5700   1
 -12  -4  20 43.6800 25.2100   1
   4  12  20 78.3100 35.0700   1
 -12   4  20 33.2000 26.5800   1
  -4  12  20 76.5500 39.5800   1
 -12 -20   4 57.8900 25.7400   1
 -20  -4  12 68.6300 21.9100   1
   4  20  12 101.230 26.0900   1
  -4  20  12 54.6400 39.0800   1
 -20   4  12 84.8500 32.6700   1
  12  20   4 112.360 29.1100   1
  12   4  20 68.0500 38.9700   1
 -20  12   4 73.5900 37.6300   1
 -12 -20  -4 62.9600 24.2800   1
  20   4 -12 55.3500 26.3900   1
  -3   5  23 96.8200 35.9200   1
  -5   3  23 71.9000 35.8000   1
   3   5  23 162.340 30.3600   1
  -5  -3  23 144.640 29.4700   1
   5   3  23 150.540 30.5900   1
  -3  -5  23 168.280 38.0800   1
   5  -3  23 172.120 43.5000   1
 -13  13  15 3307.81 97.1700   1
 -19   9  11 -7.7700 37.7300   1
  -9  19  11 17.2500 29.1900   1
  13  13  15 3182.86 94.5100   1
   9  19  11 -11.300 31.7500   1
 -13 -13  15 2903.44 87.7800   1
 -11   9  19 -0.8000 27.7700   1
  -9  11  19 25.5400 37.6900   1
   9  11  19 20.2200 33.1300   1
  11   9  19 14.6300 25.0100   1
  19   9  11 11.1400 28.0000   1
 -11  -9  19 17.5000 24.4900   1
  -9 -11  19 -25.140 25.1500   1
  -1  11  21 1449.60 55.8200   1
  11  21   1 1380.37 65.3200   1
 -11  21   1 1442.89 63.9000   1
  11  21  -1 1372.78 61.9400   1
 -11  21  -1 1442.06 68.4800   1
 -21  11   1 1361.51 58.1400   1
  -7  17  15 2527.32 80.4600   1
 -17   7  15 2486.78 77.2500   1
 -15   7  17 2660.69 81.2600   1
  -7  15  17 2486.69 75.8700   1
   7  17  15 2644.45 81.4400   1
   7  15  17 2616.29 81.8000   1
 -17  -7  15 2390.41 77.1000   1
 -15  -7  17 2648.53 86.6100   1
  15   7  17 2608.93 79.1900   1
  17   7  15 2694.86 82.2300   1
  11   1  21 1518.03 58.0800   1
 -11  -1  21 1503.75 56.7500   1
 -11   1  21 1481.56 55.9300   1
   1  11  21 1344.78 53.2500   1
 -11 -21  -1 1348.26 70.6600   1
 -11 -21   1 1400.69 71.6900   1
   1  21  11 1554.31 61.7300   1
 -21  -1  11 1425.04 55.5200   1
  -1  21  11 1579.59 58.8600   1
 -21   1  11 1534.31 64.5100   1
 -11  21   1 1686.01 81.5600   1
 -21  11   1 1626.82 84.2000   1
 -11  21  -1 1601.05 84.7500   1
  11  21   1 1539.17 79.6000   1
 -21  11  -1 1433.32 74.5200   1
  11  21  -1 1576.30 93.0300   1
 -15  13  13 3238.55 111.600   1
  17  15   7 2617.22 89.5100   1
 -15 -17   7 2588.28 94.4300   1
 -17  15   7 2766.40 92.1200   1
 -13 -15  13 3092.33 151.590   1
 -13  15  13 3346.41 98.3200   1
 -13 -15  13 2764.11 115.370   1
  13  15  13 3332.06 101.580   1
  15  13  13 3276.26 96.3200   1
 -15 -13  13 3283.89 102.080   1
 -13 -15  13 3168.03 107.080   1
 -15 -13  13 2925.25 116.620   1
 -15  17   7 2554.18 82.1500   1
  15  17   7 2736.38 89.8400   1
 -11 -19  -9 9.46000 27.9900   1
 -23   5   3 165.370 48.2100   1
 -23  -3   5 158.040 37.9300   1
  -5  23  -3 77.2000 61.4400   1
   5  23  -3 118.660 58.8300   1
 -15 -17   7 2565.20 102.900   1
  -3  23  -5 83.4700 66.7700   1
   3  23  -5 117.520 46.9000   1
 -19  11   9 33.9200 36.6500   1
 -11 -19   9 -15.770 23.9300   1
 -23   3   5 149.950 32.7200   1
 -11  19   9 -2.7900 28.7300   1
  11  19   9 31.8500 21.4700   1
 -15  17  -7 2499.51 116.150   1
  -3  23  -5 125.710 45.2000   1
   3  23  -5 138.190 33.5000   1
   5  23  -3 159.860 33.7800   1
  -5  23  -3 155.080 50.0500   1
  23   3   5 170.570 31.2100   1
  23   5  -3 161.510 26.1400   1
  23   3  -5 123.140 26.0900   1
  23   5   3 99.0400 26.1200   1
  23   3   5 128.670 30.4000   1
   3  23   5 83.2300 35.2600   1
  -3  23   5 173.720 44.6300   1
  -5  23   3 111.830 33.4300   1
   5  23   3 140.140 41.1200   1
 -23   3   5 97.9400 38.4100   1
 -17  15  -7 2708.61 127.490   1
  -4   8  22 213.380 39.9300   1
   4   8  22 149.520 37.7800   1
  -8   4  22 181.670 37.2800   1
  -4  -8  22 202.230 30.6000   1
   8   4  22 172.010 40.9700   1
  -8  -4  22 225.570 30.7100   1
  -8 -22   4 152.290 24.3500   1
  -8 -22  -4 122.970 24.5100   1
 -20  10   8 249.210 33.8200   1
 -10 -20   8 175.720 31.2400   1
 -10  20   8 289.450 43.9600   1
  -8 -10  20 328.140 41.4900   1
 -20   8  10 256.740 38.6200   1
  -8  20  10 246.260 43.3900   1
 -20  -8  10 251.450 32.2200   1
   8  20  10 300.540 29.8000   1
  -8  10  20 226.820 38.8000   1
   8  10  20 205.390 35.6600   1
  20  10   8 281.280 29.9800   1
 -10 -20  -8 202.770 32.9700   1
  10   8  20 241.600 30.5800   1
 -10  -8  20 254.070 30.4700   1
  20   8  10 276.960 32.0100   1
 -22   8  -4 213.180 71.3800   1
  -8  22  -4 261.420 63.5000   1
  22   4   8 214.060 44.2200   1
 -22   8   4 231.050 36.8000   1
  -8  22   4 230.070 35.9200   1
   8  22   4 236.000 36.8400   1
 -22  -4   8 235.650 33.9100   1
 -22   4   8 232.290 30.3800   1
  -4  22   8 179.210 43.1600   1
   4  22   8 188.740 37.5700   1
  22   8   4 237.470 29.5200   1
  22   8   4 179.240 27.1100   1
  22   4  -8 161.930 28.2200   1
 -10   8  20 295.460 39.3100   1
   8  22  -4 206.790 41.2300   1
  -8  22  -4 161.270 45.1100   1
 -22   8   4 239.680 41.6500   1
 -10  20  -8 222.010 56.0800   1
  20  10   8 223.570 49.7600   1
  -8 -20  10 208.400 30.5000   1
  12  10  18 233.370 29.4400   1
  18  10  12 268.760 34.3900   1
 -18 -10  12 195.210 33.2200   1
 -10  18  12 262.280 33.1500   1
 -18  10  12 251.440 32.1400   1
  10  12  18 270.650 39.2200   1
 -10 -18  12 283.080 44.5800   1
 -12 -10  18 248.310 38.1300   1
 -18 -10  12 232.270 30.5200   1
 -10 -12  18 255.410 39.8200   1
 -10  12  18 313.740 40.0900   1
 -12  10  18 279.430 43.0400   1
  10  18  12 294.540 29.0200   1
 -18  12  10 249.260 32.8200   1
 -12 -18 -10 201.380 30.1600   1
 -12  18  10 343.990 41.7600   1
 -12 -18  10 213.700 33.0500   1
  18  12  10 281.740 31.6900   1
 -18 -12  10 309.720 56.4300   1
 -18 -12  10 286.850 30.2800   1
  12  18  10 283.990 34.2100   1
 -11  21  -3 135.830 49.2000   1
  21   7   9 903.950 46.5600   1
  -7  -9  21 683.080 40.8100   1
  -9  -7  21 759.080 41.7100   1
  11   3  21 211.160 31.4000   1
  21   3  11 225.170 53.0000   1
  -7  21   9 831.950 45.4800   1
  -9 -21   7 631.340 49.7800   1
   7  21   9 795.730 46.9700   1
  -9   7  21 755.540 49.6100   1
 -21  11  -3 267.340 70.7300   1
  15  11  15 476.310 33.1100   1
 -21   7   9 841.990 52.0900   1
 -11  21   3 210.590 38.5400   1
 -11  21   3 243.290 52.7500   1
 -21  11   3 166.790 32.6600   1
  -7   9  21 811.870 43.3600   1
  -9 -21  -7 656.630 52.4600   1
   7   9  21 835.470 50.1900   1
   9  21   7 743.050 44.2900   1
 -21  -7   9 766.940 44.6100   1
  11  21   3 283.620 41.0300   1
  -9  21   7 839.250 52.6700   1
 -21   9   7 813.070 54.5300   1
  21   9   7 798.700 71.1200   1
  21   7   9 712.720 71.1400   1
  -9  21  -7 764.980 83.2300   1
 -15  15  11 436.260 37.0600   1
 -15  11  15 534.800 37.4200   1
 -11  15  15 431.890 35.8700   1
  15  15  11 522.710 36.9300   1
  11  15  15 474.170 41.7000   1
   9   7  21 816.920 49.9500   1
  21   9   7 802.940 45.4500   1
 -15 -11  15 489.340 38.1000   1
 -15 -15  11 494.360 37.4700   1
  21   3 -11 214.770 28.3300   1
 -11  21  -3 314.850 68.9600   1
 -21  11   3 195.400 47.2200   1
 -15 -15  11 437.510 52.9600   1
  11  21  -3 193.080 31.9600   1
 -11  -3  21 281.120 40.7600   1
 -11 -21  -3 229.740 25.7200   1
   3  11  21 256.250 40.4800   1
 -11   3  21 225.950 38.0600   1
  -3  11  21 258.610 42.7000   1
 -11 -21   3 243.400 28.7600   1
   3  21  11 314.430 38.1800   1
 -21  -3  11 252.810 27.4300   1
  -3  21  11 272.930 39.4400   1
 -21   3  11 247.130 46.0500   1
  -8  16  16 1775.20 68.9500   1
  16   8  16 1810.48 66.2100   1
 -16  -8  16 1652.26 59.6400   1
   8  16  16 1846.01 67.8700   1
 -16   8  16 1590.84 58.9300   1
  16  16   8 1683.81 61.2800   1
   0   0  24 10376.8 290.270   1
 -16 -16   8 1665.62 75.8100   1
   0  24   0 9914.21 243.520   1
   0  24   0 10821.7 318.410   1
  24   0   0 9531.52 238.900   1
 -16  16   8 1678.86 63.6000   1
 -17  17  -1 315.910 61.7100   1
  -5  23  -5 -27.160 46.7800   1
 -11  17  13 640.570 40.8600   1
 -17  11  13 535.810 47.3600   1
 -13  17  11 604.850 40.8000   1
 -13 -17  11 606.740 52.3400   1
 -17 -13  11 605.530 61.9900   1
   7  23   1 907.480 57.8300   1
  -7  23   1 778.440 60.5900   1
  17  17   1 351.650 35.3300   1
 -17  17   1 312.570 46.2100   1
 -17  -1  17 366.250 32.8500   1
 -17   1  17 284.250 31.2500   1
   1  17  17 387.110 42.8100   1
  -1  17  17 301.130 42.9700   1
 -17  17   1 342.790 58.0300   1
 -11 -13  17 562.370 52.5500   1
  23  -1   7 673.780 49.4000   1
   7  23  -1 831.300 56.0400   1
  -7  23  -1 706.360 56.4600   1
 -23   1   7 774.700 49.0700   1
 -17  17  -1 328.420 39.4700   1
  13   7  19 993.050 52.6000   1
 -13  -7  19 1002.06 49.9100   1
   7  13  19 985.200 52.4300   1
 -13   7  19 988.140 47.1000   1
 -19  -7  13 1125.72 54.2200   1
  -7  13  19 1013.71 52.4500   1
 -23   5   5 88.3800 38.6600   1
  23   1   7 680.870 46.4300   1
  -5  23   5 98.6600 40.3600   1
   5  23   5 69.2200 26.6000   1
  -5   5  23 33.4000 35.7600   1
   5   5  23 34.2900 38.8700   1
  -5  -5  23 29.6000 27.5100   1
  -1  -7  23 752.760 43.4800   1
  -5  23  -5 18.0500 49.2700   1
 -23   7  -1 790.760 77.3800   1
   7  23  -1 777.200 65.5600   1
 -23   7   1 666.080 67.2300   1
  -7  23  -1 888.380 69.6900   1
 -11 -17  13 555.640 58.5100   1
  23   1  -7 685.430 41.4400   1
  -1   7  23 685.810 40.3300   1
  19  13   7 1056.21 49.1400   1
   7  19  13 986.500 45.3600   1
  -7   1  23 799.640 43.3300   1
 -19   7  13 1090.02 56.2500   1
  -7  19  13 1060.34 49.0700   1
 -13 -19   7 946.360 57.4300   1
  13  19   7 1162.88 54.6400   1
 -13  19   7 968.260 50.0100   1
 -19  13   7 1115.32 60.2300   1
 -13  19  -7 1025.57 90.0700   1
   7  23   1 756.000 56.7000   1
  -7  23   1 693.610 62.1100   1
 -23  -1   7 743.970 49.8800   1
   1   7  23 786.750 50.7300   1
   7  -1  23 865.050 52.9000   1
   7   1  23 890.520 50.8200   1
  -7  -1  23 865.410 49.3000   1
 -17  13  11 524.990 48.1900   1
  23   1   7 642.410 51.4500   1
 -23   1   7 725.560 43.2500   1
  19   7  13 1058.45 51.9100   1
 -13 -19  -7 874.180 51.0800   1
   1  23   7 712.520 50.5300   1
  -1  23   7 747.890 43.1800   1
  -7 -23   1 617.610 45.3500   1
  23   7   1 789.920 56.2400   1
  23  -1  -7 643.210 43.0400   1
 -17 -11  13 556.350 48.1600   1
 -13 -11  17 622.220 42.5900   1
  17  11  13 544.870 34.2700   1
  13  11  17 571.740 43.0900   1
 -17 -13  11 572.210 37.4300   1
 -17 -11  13 573.220 37.5600   1
  11  13  17 583.880 43.4600   1
  17  13  11 547.800 36.9400   1
  11  17  13 656.750 41.6700   1
  13  17  11 540.150 34.0600   1
 -11  13  17 585.770 38.1300   1
 -13  11  17 541.860 37.7600   1
  12  20   6 397.330 31.3400   1
 -20   6  12 456.500 43.7400   1
 -12 -20   6 410.740 33.6900   1
  -6  20  12 432.090 37.3000   1
   6  20  12 449.350 33.6800   1
 -20  -6  12 407.850 34.8000   1
  20  12   6 411.990 31.9300   1
  -2  24   0 6706.87 168.530   1
   2  24   0 6992.27 188.100   1
   0  24  -2 7226.05 182.100   1
   2   0  24 6801.38 166.510   1
 -24   2   0 7303.44 224.600   1
   2  24   0 7202.88 198.170   1
  -2  24   0 7507.39 203.110   1
   0  24  -2 7506.38 202.780   1
   0  18  16 103.280 28.5700   1
 -24   0   2 6852.02 208.390   1
  -6  12  20 386.540 42.4600   1
 -12   6  20 479.840 45.2000   1
  12   6  20 495.200 36.0000   1
  20   6  12 483.650 38.6900   1
 -18  16   0 153.250 59.6700   1
 -12  -6  20 379.820 33.3400   1
  16  18   0 140.160 30.9500   1
 -16  18   0 212.050 36.7300   1
 -18  16   0 109.670 34.1700   1
 -12  20   6 337.270 38.1500   1
 -16   0  18 158.030 34.1900   1
   0  16  18 117.040 29.0900   1
 -18   0  16 150.470 35.6600   1
   6  12  20 464.430 40.8900   1
   0  -2  24 6731.12 160.000   1
  -2   0  24 7159.73 175.970   1
   0   2  24 7419.07 180.020   1
  24   0  -2 6572.25 181.080   1
  24   2   0 6415.97 179.650   1
  24   0   2 6633.48 181.390   1
   0  24   2 7678.15 199.490   1
 -20  12  -6 362.230 59.2600   1
 -12  20  -6 397.470 59.4000   1
 -20  12   6 435.650 47.3900   1
 -12 -20  -6 376.990 33.3200   1
 -16  18   0 65.7600 56.9500   1
  -2  24   2 4794.58 129.300   1
  -2  24  -2 4800.01 131.200   1
   2  24  -2 4931.67 134.380   1
   2  -2  24 5008.42 128.610   1
  -2  -2  24 5153.42 135.410   1
   2   2  24 4834.18 122.150   1
  -2   2  24 5111.04 134.320   1
  24   2  -2 4395.52 142.170   1
  24   2   2 4580.08 134.840   1
   2  24   2 5004.07 144.240   1
  -2  24   2 4926.18 137.270   1
  -2  24  -2 4984.87 149.420   1
   2  24  -2 4742.79 148.200   1
 -24   2   2 4880.27 157.840   1
  10  22   0 2024.49 83.4400   1
 -16   2  18 689.840 40.8200   1
 -24  -2   2 4960.83 181.360   1
 -18   8  14 785.680 42.8200   1
  -8  18  14 909.850 54.5600   1
  -8  14  18 876.750 53.1000   1
 -14   8  18 844.730 52.2100   1
   8  18  14 913.580 43.7700   1
 -18  -8  14 877.140 45.6900   1
   8  14  18 862.680 43.2500   1
 -14  -8  18 845.560 42.7400   1
  14   8  18 932.930 51.0100   1
  18   8  14 965.770 50.2700   1
 -10  22   0 1830.16 70.0400   1
  10   0  22 1959.74 67.0300   1
   2  16  18 791.150 48.3400   1
 -18  -2  16 685.890 45.8500   1
  -2  16  18 751.940 47.7300   1
   2  18  16 702.910 40.8300   1
  22   8   6 553.510 43.3800   1
  -2  18  16 826.970 49.6300   1
 -18  16   2 596.660 62.5000   1
 -16  18   2 781.890 53.9200   1
 -16  18  -2 653.470 70.5100   1
 -18  16  -2 697.470 74.9900   1
 -10   0  22 1908.13 64.5300   1
   0  10  22 2061.45 72.0400   1
 -10 -22   0 1868.42 86.9500   1
   0  22  10 2177.06 74.6300   1
 -22   0  10 2080.07 74.5800   1
 -10  22   0 2024.61 80.1300   1
 -22  10   0 2271.39 98.7200   1
  10  22   0 2324.38 104.040   1
 -22   8   6 470.900 38.1400   1
  -6  -8  22 505.890 44.3200   1
  22   8   6 562.180 37.7200   1
  -8  -6  22 629.440 47.7900   1
   8   6  22 580.870 53.5000   1
   6   8  22 520.610 36.5200   1
  -6   8  22 613.130 45.0700   1
  -8   6  22 568.120 47.5600   1
  -8 -22   6 510.470 45.9600   1
   6  22   8 567.880 44.0300   1
  -6  22   8 477.220 38.3300   1
   8  22   6 571.850 37.0200   1
 -22   6   8 623.160 49.4300   1
  -8  22   6 595.410 51.4200   1
 -22  -6   8 574.320 42.3800   1
 -22   8   6 649.070 53.5000   1
  22   6   8 510.300 52.7600   1
  -8  22  -6 708.910 65.1200   1
  18  16   2 795.480 48.5300   1
 -16  18   2 671.280 46.9100   1
 -18  16   2 664.390 45.9000   1
 -16  18  -2 697.380 57.2400   1
 -18  16  -2 587.280 45.3000   1
 -16  -2  18 802.390 46.8200   1
 -18   2  16 736.460 47.3400   1
 -18  14   8 855.700 48.2600   1
 -14  18   8 862.520 47.7500   1
 -14 -18   8 824.230 56.7700   1
  14  18   8 952.550 47.5800   1
  18  14   8 878.490 43.4500   1
  -1  15  19 -0.3900 28.2400   1
   1  15  19 24.6300 27.4900   1
 -15   1  19 33.2700 25.9600   1
  -7  23   3 -40.530 44.2000   1
  23   3   7 38.4600 33.8200   1
   7  23   3 20.3000 35.0700   1
 -23  -3   7 60.0100 33.9200   1
 -23   3   7 25.6100 35.9300   1
   3  23   7 48.1900 33.7000   1
 -21   5  11 126.450 34.9800   1
  -5  21  11 147.920 30.1600   1
 -21  -5  11 122.510 28.0500   1
   5  21  11 109.780 27.3500   1
 -15  -1  19 -28.270 35.4500   1
 -19  15  -1 -49.780 59.3200   1
 -15  19  -1 92.5400 56.8300   1
  -3  23   7 -15.350 27.9900   1
 -19  15   1 51.1300 53.1200   1
 -15  19   1 -32.040 37.6100   1
  -3   7  23 54.8300 28.2900   1
  -7   3  23 41.0600 28.1900   1
   3   7  23 82.6900 35.7600   1
  23   3  -7 61.4800 26.4500   1
  -7  -3  23 -7.0200 37.0700   1
   7   3  23 56.1300 28.6700   1
  -3  -7  23 37.6200 28.6500   1
 -23   7   3 62.0300 28.2600   1
  -7  23  -3 54.4400 35.2300   1
   7  23  -3 54.4800 30.0200   1
 -19  15  -1 58.1900 33.2300   1
  15  19  -1 34.1600 32.1400   1
 -23   3   7 47.1300 32.9800   1
   1  19  15 -42.290 37.2800   1
 -19   1  15 26.5800 33.3700   1
  -1  19  15 5.48000 27.8400   1
 -19  -1  15 14.5000 28.5000   1
 -15  19  -1 13.7300 44.2000   1
 -21  11   5 103.220 38.0700   1
 -11  21   5 200.600 48.6900   1
 -21  11   5 160.820 34.5500   1
 -11  21  -5 196.730 67.1800   1
 -11 -21   5 98.8700 27.4800   1
  21   5  11 76.0300 48.0800   1
 -23   7  -3 126.850 66.2700   1
   7  23  -3 15.3200 57.9000   1
  -7  23  -3 63.4500 62.9500   1
  11   5  21 85.6800 35.1100   1
 -11  -5  21 114.510 36.8500   1
 -11 -21  -5 76.2800 28.5100   1
 -23   7   3 22.0500 47.9900   1
  23  -3   7 77.4400 36.2400   1
  -3  23  -7 54.2900 49.9600   1
 -21  11  -5 156.570 67.9400   1
  11  21   5 145.520 30.1100   1
 -15  19   1 -17.670 45.6900   1
 -19  15   1 -21.030 43.2100   1
   5  11  21 100.950 39.7700   1
 -11   5  21 69.2400 39.2700   1
  -5  11  21 57.6900 36.8000   1
 -17  17   3 2249.52 85.1500   1
 -17  -3  17 2392.79 81.6400   1
   3  17  17 2396.97 77.6100   1
 -17   3  17 2266.86 72.1400   1
  -3  17  17 2284.90 77.5200   1
 -17  17   3 2273.33 83.2200   1
 -17  17  -3 2386.22 99.4300   1
 -22   2  10 1137.08 58.8800   1
 -22  -2  10 1026.51 55.7100   1
 -10  22   2 1050.89 69.5400   1
  10  22   2 1140.23 64.2700   1
 -22  10   2 1007.19 68.7200   1
 -10  22  -2 1121.10 70.0700   1
 -22  10  -2 967.800 70.9500   1
  10  22  -2 1312.04 86.8800   1
 -10  22   2 952.120 66.1600   1
 -10  22  -2 1090.45 59.0300   1
  10  22  -2 1093.69 63.2100   1
 -22  10   2 951.020 56.6800   1
  10   2  22 1005.30 50.2700   1
  14  14  14 2944.81 102.950   1
 -14 -14  14 2596.66 126.720   1
 -14 -14  14 2706.47 101.700   1
  22   2 -10 918.880 52.4500   1
 -10  -2  22 1027.73 50.4600   1
 -14  14  14 2758.81 94.4500   1
   2  10  22 1022.64 50.5800   1
 -10   2  22 1106.79 58.5300   1
  -2  10  22 1004.54 50.0200   1
 -10 -22  -2 971.950 57.7200   1
 -10 -22   2 900.440 54.1800   1
   2  22  10 1070.51 57.2600   1
  -2  22  10 1111.18 60.1500   1
   0  24  -4 3210.00 140.640   1
  -4   0  24 3165.22 108.060   1
   0   4  24 2984.65 101.670   1
   4  24   0 3267.22 122.840   1
  -4  24   0 3427.51 135.180   1
  -4  24   0 3251.90 118.410   1
   0  24  -4 2985.01 105.630   1
   0  -4  24 2911.14 97.8000   1
   4   0  24 3252.65 109.420   1
   0  24   4 3181.18 109.940   1
  24   0   4 2718.89 111.400   1
  24   4   0 2917.71 112.850   1
 -24   4   0 2873.97 123.990   1
  24   0  -4 2913.59 109.180   1
   4  24   0 3266.14 117.790   1
 -24   0   4 3201.37 137.350   1
  15  17   9 605.350 41.2300   1
  -9  15  17 633.570 47.5400   1
 -15   9  17 575.500 40.0800   1
  17  15   9 629.000 41.2400   1
   9  17  15 597.790 38.8800   1
   9  15  17 558.360 38.0600   1
 -17  -9  15 588.120 37.3400   1
 -15  -9  17 613.680 57.3400   1
   3  15  19 745.830 43.9400   1
 -15   3  19 794.890 52.3500   1
 -17 -15   9 595.750 43.1700   1
 -19  -3  15 705.960 41.2100   1
   3  19  15 846.850 45.7400   1
 -19   3  15 817.260 45.0600   1
  -3  19  15 786.200 45.1400   1
 -19  15   3 666.460 50.4600   1
  -3  15  19 777.570 50.4500   1
 -15  19   3 782.690 63.3600   1
  15  19   3 783.820 54.6000   1
 -15  19  -3 767.670 77.5000   1
 -19  15  -3 664.640 82.9200   1
  15   9  17 533.620 44.3500   1
 -15 -17   9 545.750 46.2500   1
 -17 -15   9 603.440 44.8700   1
 -17  15   9 579.200 49.1400   1
 -15  17   9 557.890 42.1700   1
 -17   9  15 607.220 49.7300   1
  -9  17  15 603.260 49.9600   1
 -15  19   3 813.270 51.9900   1
 -19  15   3 640.330 55.7200   1
 -15  19  -3 658.430 49.9900   1
  15   3  19 812.470 46.8200   1
 -15 -19  -3 728.020 47.5800   1
 -15 -19   3 764.030 47.6600   1
 -15  -3  19 796.620 44.1400   1
 -15 -17   9 612.650 41.4300   1
  17   9  15 622.040 42.7400   1
 -16 -14  12 814.380 58.6000   1
 -14 -16  12 637.980 61.1200   1
  -4  24  -2 1726.91 94.7000   1
 -24   4   2 1742.96 94.3600   1
 -24  -2   4 1809.70 97.4900   1
   4  24  -2 1875.05 100.270   1
  -2  24  -4 1745.11 101.950   1
   2  24  -4 1871.85 94.5700   1
 -14  16  12 863.110 47.7100   1
 -16  18   4 3313.80 119.010   1
 -18  16   4 3300.85 115.500   1
  16   4  18 3421.86 112.910   1
 -16  -4  18 3692.70 122.720   1
   4  16  18 3535.79 118.240   1
 -18  -4  16 3649.43 127.860   1
 -16   4  18 3357.64 109.630   1
   4  18  16 3760.69 122.830   1
 -24   2   4 1839.13 89.4000   1
   4  24   2 1858.64 86.0400   1
  -4  24   2 1956.30 86.8900   1
  -2  24   4 1841.92 75.5500   1
   2  24   4 1762.68 72.8100   1
  24   2   4 1658.78 81.1100   1
  24   4   2 1752.33 81.7300   1
  -4  16  18 3792.37 123.070   1
  -4  18  16 3481.68 115.620   1
 -18   4  16 3625.05 119.230   1
 -16  18   4 3655.04 131.040   1
 -18  16   4 3694.30 128.380   1
  16  18   4 3747.37 143.130   1
 -16  18  -4 3630.27 144.210   1
 -20  14   0 484.000 50.9900   1
 -14  20   0 471.560 51.5200   1
   0  20  14 374.400 34.0000   1
 -20   0  14 406.300 33.6400   1
   0  14  20 417.490 36.9000   1
 -14   0  20 420.070 35.4600   1
 -14 -20   0 343.190 30.5600   1
 -20  14   0 351.990 44.2500   1
 -18  16  -4 3778.48 153.070   1
 -14  20   0 363.320 50.1500   1
  14  20   0 379.890 40.3800   1
  -4  24   2 1813.65 84.6300   1
  -4  24  -2 1664.88 72.5800   1
   4  24  -2 1816.81 75.4000   1
   2  24  -4 1703.56 72.3300   1
  -2  24  -4 1815.29 75.4300   1
   4  -2  24 1631.08 66.2200   1
   2  -4  24 1926.83 79.1600   1
  -2  -4  24 1917.42 73.0700   1
   4   2  24 1923.85 73.0600   1
  -4  -2  24 1963.15 77.6300   1
   2   4  24 1877.30 75.4800   1
  -2   4  24 1855.54 75.9200   1
  -4   2  24 2015.16 81.2600   1
  24   4  -2 1759.17 77.6800   1
  24   2  -4 1729.83 78.8100   1
  24  -2  -4 1571.46 76.0100   1
 -16 -14  12 779.840 69.2100   1
 -12 -16  14 821.640 74.2200   1
 -14 -16  12 763.420 64.2900   1
 -16  14  12 806.870 46.4600   1
 -16  12  14 926.710 56.8300   1
 -12  16  14 855.450 47.4900   1
 -12  14  16 878.480 52.9700   1
 -14  12  16 797.280 45.5400   1
  14  16  12 939.510 51.3500   1
  12  16  14 885.050 48.8600   1
  16  14  12 916.000 48.6900   1
  12  14  16 861.350 50.0900   1
  16  12  14 778.990 42.3700   1
  14  12  16 812.680 47.3100   1
 -16 -12  14 921.660 50.0500   1
 -16 -14  12 804.030 46.8400   1
 -14 -12  16 930.900 52.4300   1
 -12 -14  16 807.960 44.9500   1
 -14 -16  12 816.680 47.2300   1
 -12 -16  14 626.880 59.6600   1
 -14  20   2 37.9700 44.7900   1
 -14  20  -2 87.1700 58.7400   1
 -20  14  -2 14.4900 45.7300   1
 -20  14   2 98.0600 38.3100   1
 -14  20   2 64.4700 55.9600   1
 -14 -20  -2 62.9000 22.4800   1
  14  20  -2 58.5900 35.5200   1
 -14  20  -2 6.84000 34.8700   1
 -20  14   2 87.9600 43.7900   1
 -10 -22  -4 36.3200 20.5200   1
   4  10  22 30.3800 27.5600   1
  22   4  10 -10.350 45.5900   1
 -22  10   4 18.9500 33.7500   1
 -10 -10  20 114.420 33.9200   1
   4  22  10 51.3500 32.4700   1
  -4  22  10 61.8700 39.5800   1
 -22   4  10 59.5100 37.3200   1
  20  10  10 174.360 30.5200   1
 -10 -22   4 46.2900 25.7000   1
 -10  10  20 150.810 37.8000   1
  10  20  10 160.630 31.6700   1
 -20 -10  10 149.850 28.1400   1
 -10  20  10 139.710 43.1800   1
 -20  10  10 127.920 42.0300   1
 -10 -20  10 161.560 32.3400   1
 -10  22  -4 74.0900 48.4100   1
  10  22   4 65.3600 25.6600   1
 -20   2  14 63.0700 33.5300   1
 -10  22   4 45.4900 34.5600   1
 -10  -4  22 51.2200 37.5100   1
  10   4  22 73.0400 28.6800   1
  22   4 -10 62.4100 26.1700   1
 -10  22  -4 32.3200 52.0200   1
 -22  10   4 62.0700 37.3600   1
  -2  20  14 37.7000 39.9600   1
   2  20  14 19.5000 37.3900   1
 -20  -2  14 78.3600 30.4700   1
  -2  14  20 60.5900 40.4400   1
   2  14  20 64.1100 28.6400   1
 -14   2  20 44.2900 34.2500   1
  10  10  20 149.600 38.1700   1
  14   2  20 98.0400 28.6900   1
 -22  10  -4 202.580 72.3200   1
  -4  10  22 33.2600 38.5700   1
 -10   4  22 31.7800 34.5900   1
 -14  -2  20 51.5500 37.3300   1
 -17   5  17 5279.92 159.340   1
 -17  -5  17 5316.48 167.910   1
 -11  11  19 576.860 48.3400   1
  -5  17  17 5639.81 170.360   1
  11  11  19 601.570 46.3500   1
   5  17  17 5162.52 156.740   1
  17   5  17 5634.19 175.850   1
 -11 -11  19 633.540 45.1700   1
   5  23   7 145.310 27.8400   1
 -23   5   7 195.240 39.1800   1
   7  23   5 189.920 36.1200   1
  -7  23   5 197.210 34.1600   1
  -5  23   7 186.260 40.7700   1
  23   7   5 138.010 26.4600   1
  -9  -9  21 -65.530 36.2900   1
  -5   7  23 113.460 41.8600   1
   5   7  23 142.890 29.6700   1
   7   5  23 130.350 40.4600   1
  -7  -5  23 231.900 31.8200   1
  -5  -7  23 211.210 41.2800   1
  23   5  -7 134.020 25.0700   1
  23   7   5 172.770 30.6300   1
  23   5   7 168.790 35.2300   1
  23   7   5 150.790 30.7700   1
 -23   7   5 143.580 36.0700   1
 -23   5   7 137.050 36.7700   1
  -7   5  23 133.550 29.5100   1
 -19 -11  11 644.720 49.6600   1
  11  19  11 628.020 38.3200   1
 -19  11  11 549.540 48.5000   1
 -11 -19  11 494.850 72.7000   1
 -11  19  11 522.100 39.7600   1
  -9 -21   9 -10.930 26.7300   1
 -21   9   9 40.1600 39.2200   1
  -9  21   9 -56.620 37.7600   1
   9  21   9 27.5000 29.2200   1
  -9   9  21 30.4000 36.0100   1
   9   9  21 22.6400 34.8500   1
  -5  23  -7 251.710 69.4100   1
  -7  23  -5 247.720 73.7800   1
 -23  -5   7 167.320 35.9200   1
  -7  23  -5 186.850 37.4800   1
 -23   7   5 129.400 34.2100   1
 -17  17  -5 5089.71 184.190   1
 -17  17   5 5676.24 182.890   1
  17  17   5 5509.71 192.770   1
  19  11  11 500.580 33.5700   1
 -20   8  12 -10.070 37.0100   1
  -8  20  12 -18.990 28.8400   1
   8  20  12 6.56000 29.4600   1
  -8  12  20 -14.430 28.5200   1
 -12   8  20 3.24000 27.8900   1
 -12  -8  20 -23.500 32.3100   1
  12   8  20 36.2700 37.7000   1
  20   8  12 19.0500 27.6500   1
  -8 -12  20 50.3000 28.0700   1
   4  -4  24 580.360 42.2600   1
 -24  -4   4 565.130 61.3800   1
   4  24  -4 577.180 59.5300   1
 -12  20  -8 -82.470 67.9700   1
 -20  12   8 7.21000 29.3300   1
 -12  20   8 13.2500 29.6700   1
  12  20   8 8.92000 26.2100   1
  -4  24   4 457.750 51.6900   1
 -12 -20  -8 -17.050 27.9200   1
   4  24  -4 614.420 44.3600   1
  -4  -4  24 514.210 38.5100   1
   4   4  24 613.940 41.2500   1
  24   4  -4 485.200 35.7400   1
  -4   4  24 577.200 46.8900   1
  24   4   4 470.090 37.9700   1
   4  24   4 598.100 51.3300   1
 -24   4   4 590.680 55.7300   1
  -4  24  -4 606.850 46.3900   1
  -4  24  -4 588.880 60.7200   1
   1  21  13 1553.41 63.8300   1
  -1  13  21 1596.29 70.4700   1
   1  13  21 1438.35 63.9300   1
 -13 -21   1 1332.92 64.7500   1
 -13   1  21 1476.69 61.6700   1
 -13  -1  21 1637.11 70.1200   1
 -13 -21  -1 1328.93 64.0500   1
 -21  13   1 1270.61 61.2000   1
 -13  21  -1 1315.48 64.6300   1
  13  21  -1 1496.63 72.8300   1
 -13  21   1 1420.98 74.6500   1
  13  21   1 1474.34 74.7800   1
  -9  23  -1 1461.20 76.6300   1
 -23   9   1 1529.55 87.0700   1
 -13  19   9 -78.640 30.2300   1
 -19  13   9 -62.780 37.6300   1
 -23   9  -1 1567.17 87.1300   1
   9  23  -1 1670.83 96.0800   1
  -9  -1  23 1465.10 61.4700   1
  -9 -13  19 -6.1500 33.8300   1
 -13 -19  -9 -9.5100 28.1700   1
  19   9  13 14.3000 27.9400   1
 -13  -9  19 31.6700 24.8700   1
  13   9  19 -2.2600 36.3700   1
   9  13  19 7.39000 24.5800   1
  -9  13  19 33.2600 27.6400   1
 -13   9  19 -14.070 39.4000   1
   9  19  13 -3.5700 23.2800   1
  13  19   9 16.1700 27.9700   1
 -19  15   5 2688.75 103.590   1
  19   5  15 2783.33 98.0000   1
 -15 -19  -5 2396.91 102.580   1
  15   5  19 2859.25 100.970   1
 -15  -5  19 2871.10 103.230   1
   5  15  19 2676.66 95.6100   1
 -15 -19   5 2491.93 102.830   1
 -15   5  19 2822.89 99.6700   1
 -19  -5  15 2647.70 100.040   1
  -5  15  19 2705.70 96.4100   1
   5  19  15 2874.89 98.3200   1
 -19   5  15 2914.05 101.720   1
  15  19   5 2858.08 109.410   1
 -15  19   5 2766.34 100.160   1
 -19  15   5 2785.23 115.970   1
 -15  19  -5 2774.13 120.070   1
 -19  15  -5 2705.70 131.560   1
 -21  13  -1 1545.40 93.1300   1
 -23  -1   9 1600.37 81.4000   1
   9  23   1 1402.69 68.1900   1
  -9  23   1 1381.19 72.2500   1
   9  23  -1 1595.38 73.4500   1
  -9  23  -1 1424.31 71.7800   1
 -19   9  13 7.65000 38.3100   1
  -9  19  13 -7.0800 28.1600   1
  23  -1   9 1248.42 71.7500   1
 -11  21  -7 27.0800 53.5200   1
 -21  11   7 -22.410 41.1000   1
 -11  21   7 45.0400 40.9200   1
  11  21   7 17.0000 30.5500   1
 -21   7  11 29.6300 34.5300   1
  -7  21  11 39.1200 41.3500   1
   7  21  11 56.9800 31.3600   1
  -7  11  21 -28.530 27.6200   1
 -11   7  21 -22.930 26.8300   1
   7  11  21 12.6100 32.9700   1
  -5  19  15 2837.92 96.0700   1
 -11 -21  -7 22.1400 25.3300   1
 -11  -7  21 8.43000 25.5300   1
  11   7  21 -29.470 26.7500   1
  -7 -11  21 -41.690 38.0300   1
  23   1   9 1197.60 70.1300   1
   9  -1  23 1548.96 69.3100   1
   9   1  23 1571.90 64.6700   1
  23   1  -9 1190.82 58.3500   1
   1   9  23 1414.87 60.2000   1
  -9   1  23 1451.40 65.0500   1
  23  -1  -9 1195.49 62.1600   1
  -1   9  23 1512.53 68.9800   1
  -9 -23  -1 1271.31 75.3900   1
  -9 -23   1 1292.72 61.4500   1
   1  23   9 1538.09 63.3400   1
  -1  23   9 1441.11 68.0400   1
 -23  -1   9 1648.30 78.4800   1
 -23   1   9 1468.44 65.2300   1
  -9  23   1 1645.09 76.7800   1
   9  23   1 1485.58 80.3200   1
  13  21   1 1580.86 96.5400   1
 -13  21  -1 1624.96 88.3100   1
 -21  13   1 1637.54 94.2900   1
 -13  21   1 1290.08 75.7600   1
  -1  21  13 1485.85 66.0700   1
 -21  -1  13 1599.76 71.3600   1
 -21   1  13 1468.71 61.4500   1
 -16 -16  10 105.140 28.6400   1
  16  10  16 100.820 34.7600   1
  14   4  20 362.920 41.8000   1
 -14 -20  -4 254.580 30.9300   1
 -14  -4  20 314.810 33.3300   1
   4  14  20 276.200 33.3200   1
 -14   4  20 248.360 32.4500   1
 -14 -20   4 280.950 32.4400   1
  -4  14  20 292.630 42.0700   1
 -20  -4  14 286.030 36.4700   1
 -16 -10  16 52.8500 29.9500   1
   0  -6  24 1385.36 67.0900   1
  -6  24   0 1306.94 64.3000   1
   6  24   0 1277.45 62.0400   1
  24   0   6 1115.39 66.1500   1
 -22  -8   8 302.110 39.1800   1
  10  16  16 84.4800 26.5200   1
  16  16  10 98.1400 21.9900   1
 -10  16  16 81.2700 29.2500   1
 -22   8   8 278.970 42.0700   1
  -8 -22   8 242.770 36.7400   1
  -8  22   8 350.770 36.9100   1
   8  22   8 310.220 38.6600   1
  -8   8  22 290.750 39.9600   1
   8   8  22 314.660 42.4900   1
  -8  -8  22 234.240 31.2400   1
  22   8   8 268.030 32.0300   1
 -14  20   4 344.300 41.8700   1
 -16  10  16 107.900 40.3800   1
 -16  16  10 79.9300 31.6900   1
 -16 -16  10 90.5400 31.7200   1
   6   0  24 1330.05 65.3300   1
  -6   0  24 1278.97 56.6000   1
   0   6  24 1243.27 56.3000   1
  24   0  -6 1085.76 60.6000   1
  24   6   0 1291.59 63.1100   1
  24   0   6 1043.18 58.3200   1
   0  24   6 1342.48 65.1000   1
 -24   0   6 1243.57 67.9500   1
  -6  24   0 1385.74 83.3400   1
   6  24   0 1300.16 76.0300   1
 -24   6   0 1216.20 83.4100   1
   0  24  -6 1313.61 96.5100   1
 -14  20   4 292.270 38.9100   1
 -18  12  12 602.190 41.7000   1
 -12 -18  12 408.050 49.1300   1
 -12  18  12 569.080 40.8300   1
 -12  12  18 512.220 44.3100   1
  12  18  12 531.730 39.1900   1
 -18 -12  12 607.950 42.2600   1
  18  12  12 526.580 38.5900   1
  12  12  18 487.210 36.1000   1
 -20  14   4 309.100 46.2900   1
 -12 -12  18 549.850 44.8100   1
 -18 -12  12 479.310 42.9400   1
  -8  22  -8 260.170 57.7000   1
 -20  14  -4 272.160 55.8700   1
 -14  20  -4 307.200 73.7200   1
  14  20   4 275.070 37.6100   1
 -20  14   4 298.400 50.5300   1
  22   8   8 266.590 42.1000   1
 -20   4  14 365.050 42.4800   1
  -4  20  14 360.010 35.8600   1
   4  20  14 249.430 37.2300   1
   6  16  18 5026.79 151.920   1
 -16  -6  18 4949.24 154.090   1
  16   6  18 5000.66 153.150   1
  18   6  16 5375.50 171.870   1
 -24   6  -2 535.760 68.8900   1
   6  24  -2 628.580 65.5300   1
 -24   6   2 464.390 56.1700   1
  -6  24  -2 552.880 66.7700   1
 -24  -2   6 542.250 49.3100   1
   6  24   2 646.310 52.6000   1
 -24   2   6 530.070 50.8800   1
  -6  24   2 507.430 54.1400   1
   2  24   6 616.190 50.6100   1
  -2  24   6 594.740 43.2200   1
  24   2   6 520.650 43.9300   1
  24   6   2 552.560 40.4200   1
  24  -2  -6 469.450 37.5800   1
  24   2  -6 490.210 38.2000   1
  -2   6  24 538.950 49.3100   1
  -6   2  24 640.420 49.7900   1
   2   6  24 631.810 50.0100   1
  24   6  -2 596.850 43.3700   1
  -6  -2  24 602.170 40.3000   1
   6   2  24 559.260 45.7900   1
  -2  -6  24 599.880 51.0300   1
   6  -2  24 644.860 48.5600   1
   2  -6  24 518.970 40.2100   1
 -24   2   6 620.090 48.1400   1
   6  24  -2 567.440 43.4600   1
  -6  24  -2 544.810 46.1700   1
  24   2   6 517.730 45.1200   1
  -6  24   2 555.340 58.3700   1
 -18  16   6 5463.30 175.920   1
 -16  18   6 5181.21 161.590   1
  16  18   6 5451.25 178.660   1
 -16  18  -6 4733.43 172.710   1
 -18  16  -6 4821.47 180.550   1
   2  24  -6 482.640 60.1800   1
  -2  24  -6 550.840 61.7200   1
  18  16   6 5277.61 172.890   1
 -18   6  16 5141.28 156.500   1
  -6  18  16 5223.24 158.130   1
 -16   6  18 5161.83 161.510   1
  -6  16  18 4891.36 149.330   1
   6  18  16 5085.86 154.430   1
 -18  -6  16 5166.57 166.280   1
 -15  15  13 849.920 55.3900   1
 -13  15  15 806.750 54.5000   1
 -15  13  15 768.590 52.9400   1
  15  15  13 919.270 50.6200   1
  13  15  15 899.860 50.5600   1
  15  13  15 882.930 51.0300   1
 -15 -13  15 837.590 49.8200   1
 -15 -15  13 856.430 54.0900   1
 -13 -15  15 882.510 55.1700   1
 -13 -15  15 732.200 50.7100   1
 -15 -15  13 759.920 54.1700   1
  13  21   3 355.620 43.3500   1
 -21  13   3 439.470 57.5500   1
 -15 -15  13 870.660 76.0900   1
  -3  21  13 361.830 35.4500   1
 -21   3  13 356.280 33.4200   1
 -23   9   3 282.000 34.1800   1
   9  23  -3 364.650 45.8100   1
  -9  23  -3 305.790 40.6300   1
 -13  -3  21 315.610 32.9400   1
   3  13  21 304.250 40.6200   1
 -13   3  21 294.530 40.0000   1
  -9 -23  -3 273.800 32.9700   1
  -9 -23   3 288.560 35.7900   1
   3  23   9 328.830 38.7900   1
  -3  23   9 368.640 45.4200   1
 -23   3   9 353.120 40.2700   1
 -23  -3   9 387.650 40.3800   1
  -9  23   3 305.640 52.9400   1
   9  23   3 334.730 45.2300   1
 -23   9   3 340.660 42.5800   1
  23   3   9 321.730 46.4200   1
  -9  23  -3 305.720 62.9300   1
 -23   9  -3 429.790 74.8400   1
  -3  13  21 319.380 35.0900   1
 -21  13   3 363.490 49.2200   1
 -13  21  -3 292.360 39.6400   1
  21   3 -13 328.080 35.3000   1
  13   3  21 352.560 45.9700   1
 -13 -21  -3 297.800 32.7400   1
 -13 -21   3 320.870 34.8700   1
 -13  21   3 325.880 41.5100   1
 -21  -3  13 338.140 38.1900   1
   3  21  13 340.210 33.5900   1
 -13  21   3 241.910 40.7900   1
 -21  13  -3 505.720 79.2200   1
 -13  21  -3 322.970 52.6700   1
  21  13   3 354.510 36.4300   1
  -9  23   3 250.910 50.5800   1
  -3   9  23 329.180 34.5800   1
 -23  -3   9 419.480 42.5500   1
  -9   3  23 294.440 41.5100   1
   3   9  23 390.680 42.7200   1
  -9  -3  23 313.430 42.0900   1
  23   3  -9 277.650 31.9400   1
   9   3  23 323.490 42.4400   1
  -3  -9  23 295.250 35.9200   1
  18  10  14 16.8300 28.5700   1
 -10 -14  18 13.6200 26.5100   1
 -14 -10  18 13.2400 24.2700   1
 -10  -6  22 15.4900 33.5000   1
  10   6  22 26.2900 34.8700   1
  -6 -10  22 8.57000 36.6900   1
 -22  10   6 8.48000 39.3000   1
 -10  22  -6 -49.160 51.5600   1
  22   6  10 2.91000 32.0100   1
 -14  18  10 17.8600 29.0200   1
 -18  10  14 -13.620 28.1300   1
 -10  18  14 -27.330 27.9900   1
  14  18  10 -36.600 27.3300   1
 -14  10  18 -30.140 35.6000   1
 -10  14  18 -18.320 27.9300   1
  10  18  14 -18.330 22.8700   1
  10  14  18 9.44000 34.7500   1
  14  10  18 51.0800 36.2900   1
 -22  10   6 33.6100 32.0300   1
 -10  22   6 -25.750 45.0500   1
  10  22   6 29.0800 23.3000   1
 -22   6  10 -20.910 37.3100   1
  -6  22  10 -15.000 28.0100   1
   6  22  10 22.8800 31.7400   1
 -10 -22   6 17.0300 23.2500   1
  -6  10  22 58.3200 29.3200   1
 -10   6  22 39.4800 28.6600   1
   6  10  22 13.6200 27.1100   1
 -18  14  10 45.5200 37.6900   1
 -13  17  13 495.540 48.8200   1
 -17  13  13 376.500 35.7700   1
 -13  13  17 389.740 36.0300   1
  13  17  13 534.760 42.6000   1
  17  13  13 517.870 40.3000   1
  13  13  17 414.950 33.6700   1
 -17 -13  13 514.570 40.9000   1
 -13 -13  17 476.170 41.1300   1
 -17 -13  13 359.970 40.0800   1
 -13 -17  13 377.190 46.6700   1
 -17  17  -7 5320.98 190.420   1
 -17  17   7 5361.61 165.530   1
  25   1  -1 6572.22 211.490   1
  17  17   7 5662.99 178.110   1
  -7  17  17 5544.71 168.420   1
 -17   7  17 5422.52 163.470   1
  -1  -1  25 7440.16 214.270   1
 -23   7   7 328.780 44.2100   1
   1  -1  25 7296.49 213.140   1
   1  25  -1 7380.52 222.230   1
  -1  25  -1 7047.94 213.000   1
  -1  25   1 7454.44 222.790   1
   1  25   1 7590.85 191.600   1
  17   7  17 5329.66 161.680   1
  23   7   7 371.040 35.7700   1
  -7  -7  23 406.910 44.1700   1
   7   7  23 412.360 35.7400   1
  -7   7  23 420.400 45.6100   1
   7  23   7 467.330 43.7500   1
  -7  23   7 423.840 39.1800   1
 -23   7   7 473.110 49.1000   1
  23   7   7 364.170 39.8000   1
   1   1  25 7259.32 213.200   1
 -23  -7   7 417.610 56.6500   1
  -7  23  -7 457.310 73.7300   1
 -25   1   1 7756.44 239.380   1
  -1  25  -1 7749.64 216.900   1
   1  25  -1 7735.76 208.110   1
  -1  25   1 7609.48 194.460   1
   1  25   1 7650.15 208.160   1
  25  -1   1 6626.66 219.080   1
  25  -1  -1 6425.46 212.410   1
  -1   1  25 7520.71 178.950   1
 -13 -17  13 414.090 48.1400   1
   7  17  17 5800.71 175.080   1
 -17  -7  17 5800.37 187.030   1
  12  22   0 4110.42 182.200   1
 -22  12   0 3869.02 143.240   1
 -22   0  12 3968.03 130.430   1
   0  22  12 3795.71 125.880   1
   0  12  22 3642.07 115.730   1
 -12   0  22 3616.01 116.390   1
 -12  22   0 3413.53 122.410   1
  12  22   0 3498.21 122.730   1
 -12  22   0 3830.74 136.220   1
   6  24   4 35.3000 27.9200   1
  -6  24   4 35.3500 34.6700   1
 -24   4   6 9.93000 42.0000   1
 -24   6   4 19.8300 40.7100   1
 -24   4   6 33.2200 31.3200   1
 -24   6   4 -23.000 36.5900   1
  -6  24  -4 163.600 49.9100   1
   6  24  -4 34.0300 40.2700   1
  -4  -6  24 -3.1800 39.9300   1
   6   4  24 48.7600 28.7900   1
  -6  -4  24 78.4300 40.4500   1
   4   6  24 81.9100 37.3400   1
  -4   6  24 44.1000 28.6900   1
  -6   4  24 -8.4900 36.6300   1
  -4  24   6 -34.790 29.9100   1
  -6  24  -4 -90.400 68.9600   1
  -4  24  -6 -0.1400 49.7200   1
   6  24  -4 86.2600 57.5000   1
  24   4   6 32.1000 29.6200   1
   4  24   6 30.8900 38.6500   1
 -12 -22   2 2248.04 104.880   1
 -12 -22  -2 2120.12 89.8900   1
  12  22  -2 2375.68 93.8300   1
 -12  22  -2 2123.02 84.8600   1
 -22  12   2 2212.43 86.2600   1
 -12  22   2 2333.84 90.6100   1
  12  22   2 2285.43 88.5400   1
 -20  14   6 727.810 56.4300   1
 -14 -20  -6 662.810 49.0900   1
  20  14   6 802.700 50.4700   1
  14  20   6 794.710 49.3500   1
 -14  20   6 848.620 52.0100   1
 -20  14   6 909.240 58.7900   1
 -14  20  -6 846.490 85.1500   1
 -20  14  -6 725.410 71.2000   1
 -22  12  -2 2697.82 123.020   1
 -12  22  -2 2655.82 117.580   1
  12  22   2 2536.80 108.400   1
 -22  12   2 2527.54 104.190   1
 -12  22   2 2602.97 108.380   1
 -22   2  12 2506.51 89.6900   1
  -2  22  12 2332.37 88.2800   1
 -22  -2  12 2518.33 100.600   1
   2  22  12 2511.46 90.2300   1
  -2  12  22 2575.02 89.2900   1
 -14  -6  20 756.950 51.3700   1
   6  14  20 804.930 52.9100   1
  -6  14  20 771.490 45.0700   1
 -14   6  20 780.700 52.2200   1
 -20  -6  14 830.560 46.8800   1
   6  20  14 789.140 48.5600   1
  -6  20  14 768.820 45.9900   1
 -20   6  14 868.170 53.9400   1
 -12   2  22 2418.31 89.7900   1
   2  12  22 2439.04 87.9500   1
 -12  -2  22 2638.77 96.8700   1
  20   6  14 772.620 44.0100   1
  12   2  22 2433.60 88.9800   1
  14   6  20 871.660 54.8400   1
  25   1   3 3462.47 129.660   1
   1  25   3 3987.87 134.130   1
  -1  25   3 4108.92 142.550   1
   3  25   1 3978.84 142.750   1
  -3  25   1 4155.44 146.030   1
  -3  25  -1 3950.63 139.100   1
   3  25  -1 4372.31 168.760   1
 -25   1   3 4237.13 164.010   1
  -1  25  -3 4074.38 158.290   1
   1  25  -3 4018.45 150.450   1
 -25  -1   3 3629.60 148.500   1
   7  19  15 2494.77 89.9600   1
  -7  15  19 2248.78 81.6500   1
 -15   7  19 2397.10 88.5400   1
 -19  -7  15 2208.09 83.1100   1
   7  15  19 2300.21 84.3000   1
 -15  -7  19 2319.65 86.4200   1
  15   7  19 2270.73 81.9200   1
  19   7  15 2190.30 80.9100   1
 -21  13   5 -30.260 39.5800   1
  13   5  21 -43.040 37.5100   1
 -13 -21  -5 13.2100 26.3600   1
   5   9  23 -37.600 35.1800   1
  23   9   5 4.89000 23.6300   1
  -9  -5  23 13.7400 27.1700   1
 -23   9   5 -2.7600 35.7600   1
  -5  -9  23 17.1900 36.8000   1
   9   5  23 -29.390 27.1400   1
 -25   3   1 4281.26 173.530   1
  23   5   9 -0.6600 34.2800   1
 -23   9   5 7.91000 33.7600   1
 -13  -5  21 14.4600 37.3500   1
   5  13  21 18.4700 38.0000   1
 -13   5  21 -25.770 28.1400   1
  -5  13  21 0.04000 29.2000   1
   5  21  13 20.3300 24.9300   1
  -5  21  13 -71.500 40.5800   1
 -21   5  13 -27.020 32.7700   1
  -9  23   5 -16.490 32.9400   1
   9  23   5 46.9600 25.0100   1
 -23   5   9 -10.610 36.9300   1
  -5  23   9 -45.360 37.0100   1
   5  23   9 -20.130 24.5400   1
 -13  21   5 11.0600 33.2900   1
  13  21   5 -2.6900 30.8900   1
 -21  13   5 -54.510 32.3300   1
 -13  21  -5 -56.590 68.0000   1
 -21  13  -5 69.5200 73.7500   1
  25   3   1 3742.74 134.790   1
  25  -1  -3 3573.76 133.380   1
  25   3  -1 3793.74 142.630   1
  -9 -23   5 15.5800 27.8100   1
  -9   5  23 36.0900 28.0900   1
  25   1  -3 3494.18 126.310   1
  -1   3  25 4325.32 139.060   1
  -3   1  25 4266.21 137.850   1
  25  -1   3 3440.44 132.080   1
  -3  -1  25 4159.77 131.490   1
   3   1  25 4307.92 137.370   1
 -15  19   7 2409.36 93.2500   1
  -5   9  23 -86.070 39.2700   1
  -1  -3  25 4124.30 130.530   1
   1  -3  25 4171.59 134.900   1
   3  -1  25 3881.79 123.210   1
  -1  25  -3 4248.68 140.560   1
   1  25  -3 4158.42 136.250   1
   3  25  -1 3823.80 128.360   1
  -3  25  -1 3878.52 128.860   1
  -3  25   1 4053.46 142.390   1
   3  25   1 4297.26 146.870   1
 -15 -11  17 17.5800 32.7900   1
 -11 -15  17 6.27000 32.0100   1
  15  11  17 -22.920 34.0800   1
  17  11  15 29.8100 23.0900   1
  11  15  17 -21.180 33.9500   1
  17  15  11 57.4500 28.3000   1
  11  17  15 24.4500 24.5000   1
  15  17  11 31.8700 21.1700   1
 -11  15  17 5.33000 36.1200   1
 -15  11  17 22.0600 28.0200   1
 -11  17  15 34.1500 29.7600   1
 -17  11  15 -18.430 26.7900   1
 -15  17  11 23.6800 29.4200   1
 -17  15  11 6.17000 41.8900   1
 -15  19  -7 2594.71 118.190   1
 -19  15   7 2391.63 89.7200   1
  15  19   7 2568.48 96.6200   1
 -15 -19   7 2194.63 104.580   1
  19  15   7 2466.14 93.7600   1
  -7  19  15 2271.30 82.8800   1
 -19   7  15 2189.48 80.3200   1
  -9  23  -5 -50.000 71.9000   1
  -8  24   0 1245.31 63.2200   1
   8  24   0 1191.01 64.0000   1
   8   0  24 1340.02 63.8700   1
  -8   0  24 1333.62 62.4600   1
   0   8  24 1290.89 57.4800   1
   0  24   8 1246.02 57.0800   1
  24   0   8 1068.58 69.0600   1
 -24   0   8 1253.96 65.3800   1
  -8  24   0 1251.87 70.3600   1
   8  24   0 1274.63 78.5800   1
 -24   8   0 1332.97 78.1500   1
 -11   9  21 418.020 46.9100   1
  21   9  11 517.140 38.4400   1
 -11  -9  21 467.850 41.6700   1
  11   9  21 498.250 37.1900   1
  21  11   9 479.330 38.0300   1
   9  11  21 444.280 36.5000   1
  -9  11  21 390.560 36.6900   1
  -9 -11  21 443.320 37.0200   1
   9  21  11 493.190 35.6800   1
 -21  -9  11 430.020 36.0000   1
  11  21   9 476.320 40.9400   1
  -9  21  11 430.630 38.5900   1
 -21   9  11 511.440 45.6500   1
 -11  21   9 506.230 51.0000   1
 -21  11   9 425.470 38.7900   1
 -11 -21   9 403.590 36.7000   1
  21  11   9 445.270 59.1100   1
   3  25  -3 2108.85 106.380   1
   3  25  -3 1855.49 77.1200   1
  -3  25  -3 2013.76 81.4500   1
   3  -3  25 2087.62 78.1600   1
  -3  -3  25 1898.91 72.9400   1
  -3   3  25 2036.41 76.1700   1
   3  25   3 2123.73 93.9600   1
  -3  25   3 2100.30 88.0800   1
  25   3  -3 1765.25 80.9400   1
  25   3   3 1725.83 78.9700   1
  -3  25  -3 1845.15 92.2600   1
   3   3  25 1952.77 79.8600   1
 -25   3   3 2121.85 95.9500   1
 -12 -20  10 751.370 55.2600   1
 -12  20  10 765.010 53.9000   1
 -20  12  10 805.550 47.3100   1
 -20  10  12 800.720 51.5300   1
 -10  20  12 843.480 47.5700   1
 -20 -12  10 860.920 56.7000   1
  12  20  10 803.820 43.2600   1
  10  20  12 865.760 48.8700   1
 -20 -10  12 765.310 49.7400   1
 -12  10  20 848.580 52.9500   1
 -10  12  20 807.520 45.9500   1
  20  12  10 745.940 42.7800   1
  10  12  20 797.650 44.3700   1
  12  10  20 732.540 42.8900   1
  20  10  12 788.630 45.5000   1
 -12 -10  20 758.670 50.7000   1
 -12 -20 -10 627.000 45.5100   1
 -10 -12  20 860.150 52.1600   1
 -20 -10  12 751.090 53.9900   1
 -18  16   8 3413.98 120.870   1
 -16  18   8 3297.22 112.140   1
 -16 -18   8 3209.13 124.230   1
  16  18   8 3341.66 112.930   1
  -8  18  16 3154.64 104.120   1
  18  16   8 3404.42 119.000   1
 -18   8  16 3454.77 116.160   1
 -16   8  18 3112.91 103.610   1
  -8  16  18 3287.38 107.620   1
   8  18  16 3305.45 108.560   1
   8  16  18 3376.69 115.120   1
 -18  -8  16 3392.58 122.730   1
 -16  -8  18 3387.35 118.570   1
  16   8  18 3139.31 103.880   1
 -16 -18   8 3205.81 124.840   1
  18   8  16 3491.38 119.200   1
 -22  12  -4 713.570 80.1300   1
  -8  24   2 719.180 61.8100   1
 -12  22  -4 787.950 81.3300   1
 -22  12   4 755.200 53.1700   1
  12  22   4 809.410 51.3300   1
 -12  22   4 829.150 54.1900   1
 -22   4  12 832.890 52.6000   1
  -4  22  12 786.320 45.3800   1
 -22  -4  12 801.440 51.0700   1
   4  22  12 717.830 50.2400   1
 -12 -22   4 682.480 46.1200   1
  -4  12  22 733.140 52.1600   1
 -12   4  22 721.040 43.1400   1
   4  12  22 829.830 50.4800   1
 -12 -22  -4 694.110 50.6800   1
 -12  -4  22 711.310 42.7700   1
  12   4  22 851.470 55.3200   1
  22   4 -12 628.890 40.2800   1
 -12  22  -4 806.860 65.0800   1
 -22  12   4 781.090 54.5800   1
  -8   2  24 522.660 38.8200   1
   8  24   2 609.690 46.3700   1
 -24   2   8 601.100 47.3000   1
  24  -2   8 440.560 42.3300   1
   8  24  -2 549.640 43.4400   1
  -8  24  -2 645.910 59.6600   1
  24   2   8 425.180 37.4900   1
   8  -2  24 548.430 41.3900   1
  -2  -8  24 602.940 41.9900   1
   8   2  24 561.220 40.4600   1
  -8  -2  24 607.790 46.7200   1
  24   2  -8 412.120 31.0600   1
   2   8  24 572.630 46.6800   1
  -2   8  24 574.680 48.8700   1
   2  24   8 483.350 46.0400   1
  -2  24   8 446.630 45.3200   1
 -24   2   8 504.260 45.0200   1
 -24  -2   8 462.180 42.3900   1
  24   2   8 472.710 44.1200   1
  -8  24   2 488.010 57.0800   1
   8  24   2 481.840 52.1200   1
  -8  24  -2 424.320 62.5500   1
 -24   8   2 527.070 63.6400   1
 -24   8  -2 297.220 72.0600   1
   8  24  -2 441.790 60.8100   1
 -10 -20  12 611.370 59.2500   1
 -10 -22   8 104.120 30.1100   1
   6   6  24 150.240 38.9200   1
  -6   6  24 236.470 32.4400   1
   6  24   6 272.610 33.0600   1
  24   6   6 216.800 32.5200   1
  -6  24   6 236.360 43.8100   1
 -24   6   6 272.590 36.2500   1
 -24  -6   6 322.440 53.5400   1
 -18  18   0 720.590 49.8800   1
  18  18   0 783.760 51.5100   1
 -18   0  18 612.400 40.0400   1
   0  18  18 751.850 52.4100   1
 -18  18   0 661.580 57.0000   1
   8  22  10 103.960 25.8500   1
 -22   8  10 90.3300 40.0700   1
 -22  -8  10 126.930 27.3200   1
  -8  22  10 113.810 42.5600   1
 -10   8  22 100.400 40.9400   1
  10  22   8 104.090 25.2800   1
  -8  10  22 97.9200 29.6500   1
   8  10  22 180.370 38.0800   1
  22  10   8 135.670 27.7200   1
  10   8  22 85.7200 35.7000   1
 -10  -8  22 105.580 36.6100   1
  22   8  10 82.0800 29.6100   1
  -8 -10  22 116.640 40.1200   1
 -10  22  -8 219.650 72.4000   1
  -6  24  -6 242.610 74.4800   1
  22   8  10 134.280 49.9500   1
  22  10   8 86.6100 37.8400   1
 -22  10   8 139.100 32.1400   1
 -10  22   8 52.5900 41.6400   1
  -6  -6  24 256.410 33.7300   1
 -24   6   6 186.850 36.8500   1
  24   6   6 149.640 31.4900   1
 -14 -16  14 266.020 55.1700   1
 -16  14  14 333.250 35.2100   1
 -14  16  14 257.830 41.6900   1
 -14  14  16 320.050 34.8900   1
  14  16  14 271.100 29.1100   1
  16  14  14 309.340 34.8200   1
  14  14  16 340.500 39.5500   1
 -16 -14  14 291.530 37.3000   1
 -14 -14  16 331.150 35.7600   1
 -14 -16  14 286.430 37.3800   1
 -16 -14  14 236.150 38.6500   1
 -14 -16  14 241.720 39.6800   1
 -23  -1  11 4549.88 157.760   1
 -17  19  -1 696.950 60.0400   1
 -19  17  -1 635.040 58.3600   1
 -17  19   1 842.340 69.3000   1
 -19  17   1 784.870 59.3900   1
  -1  19  17 694.650 50.1300   1
   1  19  17 668.780 42.0300   1
 -19   1  17 707.470 42.0400   1
  -1  17  19 726.960 51.9400   1
   1  17  19 876.260 55.1400   1
 -17   1  19 736.120 49.2800   1
 -17  -1  19 659.610 48.9400   1
 -19  17  -1 796.790 58.7300   1
  19  17   1 743.870 50.0000   1
 -19  17   1 722.710 59.6600   1
 -17  19   1 680.070 59.8400   1
  17  19   1 728.600 49.6600   1
 -19 -11  13 442.690 43.0400   1
 -13 -19 -11 329.080 36.5600   1
 -11 -13  19 474.190 44.8000   1
 -13 -11  19 418.950 35.3100   1
  19  11  13 433.360 36.3000   1
  13  11  19 443.640 40.6600   1
  11  13  19 377.090 42.1600   1
  19  13  11 433.160 36.9700   1
 -19 -11  13 450.100 37.2700   1
 -19 -13  11 418.830 35.2100   1
 -11  13  19 426.560 36.7600   1
   1  11  23 4307.78 137.010   1
 -11   1  23 4190.17 132.260   1
 -11  -1  23 4421.96 137.760   1
  11   1  23 4331.16 138.140   1
 -11  23  -1 4180.15 141.840   1
  -1  11  23 4459.58 141.700   1
 -11 -23   1 3837.93 143.060   1
  25   1   5 1165.33 64.7400   1
   1  25   5 1462.73 72.9900   1
   1  23  11 4501.77 144.550   1
  11  23  -1 4263.62 149.810   1
 -11  23   1 4167.58 137.860   1
  11  23   1 4314.83 149.980   1
  25   5   1 1166.44 66.8600   1
  25  -1  -5 1103.05 63.9900   1
  -1  25   5 1401.68 69.0400   1
  -5  25   1 1301.98 68.4300   1
   5  25   1 1253.21 78.1200   1
  -5  25  -1 1328.73 78.5800   1
 -25   1   5 1370.46 76.1600   1
 -25  -1   5 1350.95 79.3100   1
   5  25  -1 1246.81 71.4600   1
 -25   5   1 1283.47 77.8700   1
  -1  25  -5 1366.40 83.5600   1
   1  25  -5 1245.85 93.3300   1
 -25   5  -1 1177.25 77.3400   1
  25   5  -1 1171.74 59.7900   1
  25   1  -5 1154.26 65.1100   1
  -1   5  25 1276.95 63.3800   1
   1   5  25 1280.58 57.1700   1
  -5  -1  25 1390.09 64.2800   1
  -1  23  11 4300.97 139.580   1
 -23   1  11 4396.62 142.910   1
 -19  -1  17 749.980 50.1500   1
 -11  23   1 4610.12 153.510   1
 -11  23  -1 4713.65 175.480   1
 -23  11   1 4416.77 157.030   1
  11  23   1 4675.66 186.780   1
 -23  11  -1 4561.56 165.180   1
  11  23  -1 4510.77 201.830   1
  -5   1  25 1382.64 66.0800   1
  11  19  13 448.390 41.2900   1
 -17  19  -1 637.400 48.4300   1
   5   1  25 1447.50 67.9900   1
   5  -1  25 1300.84 65.1600   1
 -19 -13  11 427.980 57.1100   1
 -11 -19  13 375.690 41.7900   1
 -13 -19  11 414.410 39.9300   1
 -13  19  11 396.460 45.2200   1
 -19  13  11 399.140 46.6500   1
 -11  19  13 416.140 38.1600   1
  -1  -5  25 1358.13 64.2000   1
 -13  11  19 445.370 46.0800   1
   1  -5  25 1352.35 60.1000   1
  -1  25  -5 1139.44 68.4300   1
   1  25  -5 1378.26 66.4400   1
   5  25  -1 1274.43 67.4600   1
  -5  25  -1 1344.60 73.9400   1
  -5  25   1 1420.70 67.2100   1
   5  25   1 1354.08 64.5000   1
 -19  11  13 415.120 42.5500   1
  13  19  11 437.450 33.0900   1
 -18  18   2 2277.73 102.440   1
  -2  18  18 2149.49 82.8600   1
 -18   2  18 2248.61 84.7200   1
   2  18  18 2066.87 75.7900   1
 -18  -2  18 2129.09 79.0700   1
 -18  18  -2 1960.07 90.0300   1
  18  18   2 2024.09 83.2200   1
 -18  18   2 1768.63 75.0300   1
 -18  18  -2 2135.73 108.400   1
 -16  20   0 31.3600 35.1700   1
  16  20   0 50.2000 31.6300   1
 -20  16   0 31.9500 40.7000   1
 -16   0  20 59.9300 27.5700   1
   0  16  20 1.33000 40.4100   1
 -20   0  16 74.5200 25.9400   1
   0  20  16 37.9700 28.0000   1
 -20  16   0 39.0500 41.8500   1
 -16 -16  12 35.9900 36.3000   1
 -16  16  12 -32.340 41.4400   1
  16  16  12 -7.3700 30.4500   1
 -16  20   0 41.4300 41.9500   1
  -8  24  -4 31.4900 70.9800   1
 -24   8   4 -15.360 34.3700   1
  24   4   8 45.0500 31.9900   1
   8  24   4 102.770 40.8500   1
  -8  24   4 31.5200 34.2900   1
  -8  -4  24 21.8300 28.3400   1
 -24   4   8 11.7900 38.4000   1
  -4  24   8 -23.880 42.0700   1
   4  24   8 -1.3100 36.7100   1
  -8   4  24 30.7700 39.5800   1
  -4   8  24 -6.4300 28.4400   1
   4   8  24 70.0200 37.1800   1
  24   4  -8 24.2800 24.9400   1
   8   4  24 56.9900 29.6700   1
  -4  -8  24 4.34000 38.0900   1
   8  24  -4 -16.530 30.6700   1
 -24   8   4 27.5100 34.6800   1
  -8  24  -4 4.84000 33.6300   1
 -24   4   8 53.0600 35.8100   1
 -16  12  16 16.7400 40.7900   1
 -12  16  16 64.9000 41.5000   1
  16  12  16 42.3200 33.6500   1
 -12 -16  16 38.5200 26.2500   1
  12  16  16 5.23000 24.1700   1
 -23   9   7 58.3600 36.6500   1
  23   7   9 15.1100 28.4000   1
  -7  -9  23 32.0600 29.0200   1
  -9  -7  23 65.1500 40.2900   1
   9   7  23 44.3100 39.3900   1
   7   9  23 -11.330 27.1100   1
  -9   7  23 40.7100 36.4000   1
 -21   7  13 35.6600 38.3100   1
  13  21   7 34.9500 28.1600   1
 -13  21   7 -0.1400 33.6900   1
 -21  13   7 47.0600 45.5400   1
 -13  21  -7 95.4300 76.6200   1
 -19  17  -3 3323.35 132.210   1
 -17  19  -3 3007.89 122.010   1
 -19  17   3 3161.38 107.180   1
 -17  19   3 2943.76 97.5800   1
  -3  19  17 3054.48 92.3700   1
 -19   3  17 3353.07 95.9500   1
   3  19  17 3057.89 91.0400   1
  -3  17  19 3076.60 92.4100   1
 -17   3  19 3014.14 91.7200   1
 -19  -3  17 3133.84 100.690   1
   3  17  19 3084.87 88.2200   1
 -23  11   3 2145.18 81.6500   1
 -11  23  -3 2057.27 74.8500   1
  -9 -23   7 -4.4800 28.7100   1
  11   3  23 2305.69 76.8300   1
  23   3 -11 1916.10 76.2600   1
 -11  -3  23 2319.31 78.2000   1
   3  11  23 2185.18 70.0300   1
 -11   3  23 2192.45 70.3600   1
  -3  11  23 2321.29 72.8900   1
 -17  -9  17 2397.66 78.8800   1
 -17 -17   9 2405.70 89.7900   1
  17   9  17 2426.78 83.0500   1
 -13 -21  -7 29.7700 25.2100   1
  13   7  21 51.7400 38.2300   1
 -13  -7  21 47.7700 26.7300   1
   7  13  21 29.7600 34.8700   1
 -13   7  21 6.42000 41.4400   1
  -7  13  21 22.3900 38.9400   1
 -21  -7  13 20.1800 25.3700   1
   7  21  13 3.70000 25.6600   1
  -7  21  13 50.3900 29.9800   1
   3  23  11 2271.39 72.6400   1
   5  -3  25 386.290 37.0600   1
  -3  -5  25 429.160 46.7700   1
   5   3  25 410.220 47.1500   1
  -5  -3  25 386.810 35.8600   1
   3   5  25 394.310 43.0600   1
  -5   3  25 343.340 34.9400   1
 -11  23   3 2263.91 84.9400   1
  -3  23  11 2395.67 78.8300   1
 -23   3  11 2451.87 84.4800   1
 -23  -3  11 2326.80 88.4600   1
 -11  23   3 2523.33 95.7100   1
 -23  11   3 2273.18 87.1200   1
  11  23   3 2491.11 109.330   1
 -11  23  -3 2156.41 92.2300   1
 -23  11  -3 2156.30 100.230   1
  -3   5  25 384.400 35.6200   1
 -17  19   3 3097.38 97.7400   1
  17   3  19 3064.66 92.0500   1
 -17  -3  19 3129.93 95.5900   1
 -17  17   9 2262.68 75.5700   1
 -17 -17   9 2140.47 91.1400   1
  17  17   9 2321.53 80.6000   1
 -17   9  17 2423.23 79.2900   1
   3  -5  25 364.760 43.3900   1
   9  17  17 2414.70 79.1900   1
  21   7  13 17.7100 23.4800   1
  -9  23  -7 -95.890 72.8900   1
 -23   9   7 22.2100 38.3100   1
 -23   7   9 70.9900 37.6000   1
  -9  23   7 31.2200 32.0200   1
   9  23   7 27.0100 31.3100   1
  -7  23   9 72.3800 31.0300   1
   7  23   9 35.1400 24.9700   1
  11  23  -3 2142.93 82.3200   1
  -7   9  23 -10.660 36.4900   1
  -5  25  -3 354.100 70.9500   1
  -5  25   3 380.200 41.3900   1
 -25  -3   5 396.650 56.1600   1
   5  25  -3 330.480 68.3600   1
  -3  25  -5 365.100 67.9000   1
   3  25  -5 418.950 73.2300   1
  -3  25   5 353.560 38.7400   1
   3  25   5 328.090 43.3200   1
  25   3   5 309.330 32.7400   1
  25   3  -5 338.210 34.5000   1
  25   5  -3 358.210 32.7200   1
   5  25  -3 389.700 47.2300   1
  25   5   3 367.030 33.5300   1
  -3  25  -5 363.470 51.1300   1
 -25   5   3 388.780 46.0100   1
  -5  25  -3 383.000 50.3200   1
 -25   3   5 323.380 47.5200   1
   5  25   3 421.960 47.2400   1
 -16  20  -2 318.580 52.3800   1
 -20  14   8 162.600 45.3000   1
 -14 -20   8 157.670 29.1100   1
 -20   8  14 89.8200 36.6700   1
  -8  20  14 86.2300 31.6200   1
   8  20  14 69.7300 36.3700   1
  20  14   8 154.790 26.8500   1
  -8  14  20 170.710 41.9000   1
  16  20   2 394.980 40.1700   1
 -16  20   2 324.880 54.0100   1
  20  16   2 363.020 39.7600   1
 -20  16   2 433.080 52.0300   1
 -16  -2  20 397.830 38.9600   1
 -14 -20  -8 106.450 30.5500   1
   2  16  20 316.990 42.8200   1
  -2  16  20 369.770 45.4200   1
 -20  -2  16 468.170 41.5600   1
   2  20  16 412.140 44.6500   1
  -2  20  16 391.980 41.9700   1
 -20   2  16 435.980 42.6200   1
 -16  20   2 409.440 47.2500   1
 -20  16   2 409.470 59.8000   1
 -16  20  -2 608.550 70.4000   1
 -20  -8  14 145.790 31.0900   1
 -16   2  20 410.570 35.3300   1
 -14   8  20 135.590 40.4600   1
   8  14  20 166.410 29.0700   1
 -14  -8  20 97.4300 34.9300   1
  20   8  14 89.5400 31.3200   1
  14  20   8 134.920 28.1800   1
  14   8  20 77.0600 28.2000   1
 -14  20   8 173.900 34.2500   1
 -20  16  -2 429.380 57.1900   1
 -14  20  -8 33.9000 55.4200   1
  22  12   6 500.940 51.5100   1
  -6  22  12 360.350 45.7600   1
  12   6  22 393.560 41.5800   1
 -12 -22   6 375.040 35.7100   1
 -22  -6  12 416.280 39.3400   1
 -12  -6  22 513.690 45.9200   1
 -12  22   6 379.820 40.6600   1
  -6 -12  22 368.800 36.9100   1
  -6  12  22 346.810 34.7500   1
  12  22   6 411.130 38.4200   1
 -22   6  12 389.650 40.5600   1
 -12 -22  -6 323.650 33.3900   1
 -12   6  22 422.640 45.2100   1
 -22  12   6 442.360 52.4000   1
  22   6  12 364.640 62.3900   1
   6  12  22 365.470 34.1800   1
 -22  12   6 320.960 47.0100   1
   6  22  12 448.550 40.1800   1
  22   6  12 381.960 38.7000   1
 -12  22  -6 369.310 60.6100   1
 -12 -18  14 177.060 49.8800   1
 -14 -18  12 182.280 39.4400   1
 -18  14  12 241.350 33.2000   1
 -12  18  14 173.070 32.1500   1
 -12 -14  18 218.400 30.3600   1
  18  12  14 185.260 32.2300   1
  14  12  18 186.550 28.9100   1
  12  14  18 168.750 34.1400   1
 -18 -14  12 209.400 30.0200   1
 -18 -12  14 193.310 32.3100   1
 -14  18  12 193.100 44.3300   1
 -14 -12  18 173.590 28.6700   1
 -18  12  14 189.700 42.3400   1
 -14  12  18 178.290 39.0100   1
 -12  14  18 175.840 31.4800   1
 -18 -12  14 200.900 39.7600   1
  18  14  12 142.810 31.1800   1
 -18 -14  12 228.340 48.3300   1
 -18  18   4 5643.31 152.220   1
  18   4  18 5830.01 150.740   1
 -18  -4  18 5795.43 148.780   1
   4  18  18 5597.32 140.410   1
 -18   4  18 5638.72 146.530   1
  -4  18  18 5773.18 143.370   1
 -18  18   4 5460.80 145.110   1
 -18  18  -4 5575.10 175.680   1
  12  18  14 253.830 34.3200   1
  14  18  12 211.320 26.5900   1
 -15 -21   1 240.290 30.5800   1
 -15 -21  -1 237.610 28.0000   1
  15  21  -1 277.330 37.2800   1
 -21  15   1 272.490 44.6700   1
 -15  21  -1 348.750 50.6700   1
 -15  21   1 271.090 48.0700   1
  15  21   1 263.340 37.7800   1
 -19  15   9 810.210 47.8000   1
 -15  19   9 715.490 45.4100   1
 -15 -19   9 631.030 42.0000   1
  15  19   9 750.740 44.8700   1
  -9  19  15 712.440 42.4700   1
 -19   9  15 732.280 42.9800   1
  -9  15  19 666.700 50.8100   1
 -15   9  19 731.050 42.1700   1
   9  19  15 789.680 48.4900   1
  19  15   9 747.970 42.5900   1
 -19  -9  15 745.140 43.9500   1
   9  15  19 653.150 44.3700   1
 -15  -9  19 688.810 40.6300   1
  15   9  19 716.240 40.5600   1
  19   9  15 794.180 47.9900   1
 -15  -1  21 319.600 39.7900   1
 -21  15  -1 271.550 62.7700   1
 -15  21  -1 275.430 62.7600   1
 -21  15   1 290.390 62.4900   1
 -15  21   1 398.710 47.3600   1
   1  21  15 259.900 31.6000   1
  -1  21  15 338.280 34.2900   1
 -21   1  15 273.010 36.4400   1
 -21  -1  15 304.220 36.6200   1
  -1  15  21 230.960 41.0200   1
   1  15  21 294.900 41.1100   1
 -15   1  21 338.320 42.4700   1
 -16  -4  20 2514.48 81.7200   1
 -16  20  -4 2211.71 108.350   1
 -16  20   4 2203.91 83.1200   1
  16   4  20 2390.15 75.2600   1
 -20  16   4 2337.33 86.6200   1
 -20  16  -4 2645.99 120.110   1
  -4  20  16 2441.77 80.8500   1
   4  20  16 2610.99 82.6600   1
 -20  -4  16 2353.61 76.7000   1
  -4  16  20 2444.75 80.5700   1
  16  20   4 2750.31 121.350   1
 -16   4  20 2561.62 78.6900   1
   4  16  20 2419.01 75.0500   1
 -20  16   4 2519.46 90.5500   1
 -16  20   4 2607.04 94.7000   1
 -20   4  16 2227.70 72.1600   1
  -7  25  -1 446.110 50.1400   1
 -15  21  -3 11.2300 49.2100   1
 -21  15   3 -1.0100 36.5100   1
 -15  21   3 3.85000 53.7300   1
  -3  21  15 -51.090 38.3600   1
 -21   3  15 37.5000 26.5700   1
   3  21  15 -91.600 38.8200   1
 -21  -3  15 28.9700 32.4900   1
  -3  15  21 79.3900 30.7000   1
   3  15  21 -11.590 27.9200   1
 -15  -3  21 18.7100 27.2800   1
  15   3  21 -7.5300 28.9900   1
 -15  21  -3 0.76000 36.6800   1
 -21  15   3 47.4600 44.2000   1
 -15  21   3 19.2700 34.9500   1
  23   5  11 806.360 78.6900   1
 -23  11   5 973.830 55.7200   1
 -11  23   5 1059.89 65.8400   1
  11  23   5 861.760 45.9200   1
 -23   5  11 974.860 54.7400   1
 -17  19   5 5790.75 155.090   1
 -19  17   5 5818.02 155.970   1
  19   5  17 6209.67 152.200   1
  17   5  19 6757.55 171.580   1
 -17  -5  19 6484.51 165.580   1
 -19  -5  17 6659.72 171.340   1
   5  17  19 6434.86 160.540   1
 -17   5  19 6436.95 157.660   1
   5  19  17 6329.22 152.940   1
  -5  17  19 6451.30 160.070   1
 -19   5  17 6437.39 162.680   1
  -5  19  17 6217.66 155.490   1
 -23  -5  11 952.300 54.4800   1
  -5  23  11 834.880 44.9200   1
 -17  19   5 6524.07 167.750   1
 -19  17   5 6722.45 180.040   1
  17  19   5 6753.85 210.840   1
 -17  19  -5 6768.73 199.420   1
 -19  17  -5 6339.86 194.090   1
 -23  11   5 891.430 49.3000   1
  -5 -11  23 892.700 47.7900   1
  11   5  23 811.290 50.1500   1
 -15 -15  15 24.6700 33.3600   1
 -15 -15  15 65.0700 28.8700   1
  15  15  15 81.1200 30.8600   1
 -15  15  15 -14.420 37.4300   1
 -11  -5  23 919.390 46.1900   1
 -11 -23  -5 751.500 46.6300   1
   5  11  23 1007.29 52.5500   1
 -11   5  23 962.980 54.4500   1
  -5  11  23 927.690 54.6500   1
 -11 -23   5 761.440 53.0700   1
   5  23  11 1002.47 51.4100   1
 -21  15  -3 -48.270 47.8100   1
 -11  23  -5 1129.01 86.7500   1
  25  -1   7 470.890 45.2100   1
   7  25   1 583.890 53.5000   1
  -7  25   1 584.240 46.1400   1
  25   1   7 513.510 44.9700   1
   7  25  -1 547.730 43.1400   1
  -7  25  -1 471.470 57.8700   1
   1  -7  25 516.290 40.4800   1
  -1  -7  25 591.650 50.9000   1
   7  -1  25 644.490 48.7700   1
   7   1  25 600.160 50.4800   1
  -7  -1  25 602.730 39.9700   1
   1   7  25 623.890 40.6900   1
  -7   1  25 687.780 49.7600   1
  25   1  -7 421.880 31.6000   1
  -1   7  25 508.330 45.6300   1
  25  -1  -7 460.040 36.2800   1
  -1  25   7 528.090 39.7500   1
   1  25   7 531.380 45.0400   1
  25   1   7 443.940 44.8600   1
 -25   1   7 510.810 42.0900   1
 -25  -1   7 479.290 40.4700   1
  -7  25   1 621.810 52.3100   1
 -23  11  -5 957.900 75.4200   1
   7  25   1 495.990 53.2000   1
 -25   7   1 551.820 64.0200   1
   7  25  -1 579.650 64.6900   1
  -5  -5  25 54.2300 29.8200   1
   5   5  25 50.0300 40.6000   1
  -5   5  25 0.17000 36.8600   1
  -5  25  -5 73.0700 35.7300   1
  -5  25  -5 205.980 70.9300   1
 -25   5   5 -7.1000 32.1200   1
 -25   5   5 23.6700 32.8200   1
  25   5   5 33.8700 25.2800   1
  -5  25   5 -0.3200 44.7300   1
   5  25   5 63.2500 36.3000   1
   0   0  26 6557.67 159.570   1
  26   0   0 5827.25 174.400   1
   0  26   0 7080.06 196.410   1
   0  26   0 6445.93 167.810   1
 -10 -24   0 3501.12 116.460   1
   0  10  24 4009.64 105.150   1
  10  24   0 4441.77 175.150   1
 -10   0  24 4059.54 107.640   1
  10   0  24 4051.12 108.760   1
   8  24   6 258.120 37.9200   1
  -6  24   8 197.360 45.8500   1
  24   8   6 185.500 28.5900   1
   6  24   8 184.260 38.7600   1
  -8  24  -6 124.430 70.9800   1
 -24  -6   8 247.300 42.3800   1
 -24   8   6 190.230 34.4300   1
  -6   8  24 163.820 31.3100   1
  -8   6  24 204.300 31.7400   1
   6   8  24 100.860 37.5000   1
 -24   6   8 158.390 36.1000   1
 -24   6   8 203.050 44.4600   1
   8   6  24 179.570 42.6900   1
  -8  -6  24 182.660 38.8900   1
  -8  24   6 207.110 44.1000   1
  24   8   6 117.060 30.3400   1
 -24   0  10 3933.43 128.780   1
  -6  -8  24 188.160 39.7700   1
  24   8   6 187.220 30.1800   1
 -24   8   6 85.6200 40.7400   1
 -10  24   0 3834.65 113.480   1
  10  24   0 3823.98 115.500   1
 -24  10   0 4024.69 135.060   1
 -10  24   0 4158.51 137.520   1
 -24   0  10 4118.81 127.090   1
   0  24  10 3918.48 106.360   1
  16  10  18 975.490 52.9200   1
   0  14  22 2225.65 70.9100   1
 -22   0  14 2417.81 81.7300   1
   0  22  14 2335.72 73.6000   1
 -14  22   0 2357.49 93.0800   1
 -22  14   0 2470.63 95.4800   1
 -14  22   0 2285.81 80.1800   1
  14  22   0 2319.47 88.0500   1
 -14 -22   0 2027.21 88.1600   1
  18  10  16 922.890 50.6000   1
  -2  26   0 4213.58 132.890   1
 -16 -10  18 920.140 49.9500   1
 -18 -10  16 878.280 47.1600   1
  10  16  18 914.030 44.7700   1
  10  18  16 954.240 45.4300   1
 -16  10  18 838.560 44.2700   1
 -10  16  18 845.210 53.4500   1
 -18  10  16 842.480 45.2100   1
 -10  18  16 900.410 46.9800   1
 -26   0   2 4739.46 172.160   1
   0  26  -2 4392.25 144.990   1
   2  26   0 4916.57 165.140   1
 -14   0  22 2289.58 77.0400   1
   0  26   2 4895.14 156.130   1
  26   2   0 3745.22 130.220   1
  -2   0  26 4349.29 130.340   1
   0   2  26 4203.34 110.710   1
   0  -2  26 4524.64 124.490   1
   2   0  26 4421.46 117.570   1
   0  26  -2 4211.06 119.990   1
  -2  26   0 4338.79 133.620   1
   2  26   0 4186.31 122.330   1
   0  26   2 4624.48 134.150   1
   2  10  24 2984.79 85.3800   1
 -10   2  24 3035.70 91.5600   1
  18  16  10 889.000 46.1800   1
  -2  10  24 3102.44 93.7500   1
 -18 -16  10 902.960 55.6100   1
  10   2  24 3129.91 90.6500   1
 -10  -2  24 3213.44 97.7300   1
 -16 -18  10 946.330 51.4100   1
 -24  10   2 2867.37 101.450   1
  10  24   2 3324.16 130.210   1
 -24  -2  10 2897.15 93.9100   1
 -10  24  -2 2694.07 102.280   1
 -10  24  -2 2915.58 100.280   1
  10  24  -2 2877.81 102.120   1
 -24  -2  10 3003.82 122.340   1
 -10  24   2 2895.63 91.5300   1
  10  24   2 3117.57 99.0700   1
  -2  24  10 2928.35 90.1900   1
 -18 -16  10 901.330 57.7300   1
   2  24  10 3054.14 89.7900   1
 -16  18  10 862.820 47.8900   1
  16  18  10 985.170 48.5900   1
  10  24  -2 3083.24 137.740   1
 -24  10  -2 3094.67 127.140   1
 -10  24   2 3375.87 105.890   1
 -24   2  10 3089.48 103.940   1
 -18  16  10 808.100 56.0900   1
 -11  11  21 2071.62 67.8200   1
  21  11  11 2166.98 75.5800   1
  17  13  15 9.31000 32.6900   1
 -13 -17  15 49.3900 34.0000   1
  11  21  11 2096.45 70.1100   1
 -21  11  11 2069.38 74.4200   1
 -11 -21  11 1837.30 97.9700   1
 -11 -11  21 1967.17 67.7500   1
  11  11  21 2150.81 74.5300   1
 -11  21  11 2079.42 71.3400   1
 -21 -11  11 2128.61 90.8800   1
  13  17  15 9.88000 23.7700   1
 -13  17  15 -18.860 40.4800   1
 -17 -13  15 -9.7000 29.8100   1
 -17  13  15 26.1500 40.4400   1
  -3  25  -7 98.4000 72.1900   1
  15  13  17 25.0400 24.5700   1
  13  15  17 -30.090 34.8800   1
  17  15  13 14.3700 27.2700   1
 -13  15  17 8.16000 28.6500   1
 -15  13  17 19.8500 28.9200   1
   3  25   7 15.8900 38.8400   1
 -15 -17  13 -14.760 33.8000   1
 -15  17  13 47.8200 29.9900   1
 -17  15  13 10.1700 28.6600   1
 -13 -15  17 -33.750 35.0100   1
 -15 -17  13 20.1800 29.9000   1
 -15 -13  17 28.1400 33.0600   1
  -7  25   3 78.4700 47.2600   1
  25   3   7 61.4300 31.1700   1
 -25   3   7 37.2800 35.1000   1
  -7  25  -3 43.3800 36.6100   1
   7  25  -3 71.4500 39.1600   1
   7  -3  25 6.43000 31.7600   1
  -3  -7  25 93.0200 39.3500   1
   7   3  25 66.1300 42.0500   1
  -7  -3  25 80.8200 41.8300   1
   3   7  25 2.11000 29.1200   1
  -7   3  25 32.9600 29.7500   1
  -3   7  25 58.1400 31.0300   1
  -3  25   7 48.5300 39.8200   1
 -25   3   7 62.1100 36.7600   1
  -7  25   3 39.5500 46.7700   1
   7  25   3 7.06000 44.0200   1
 -25  -3   7 87.6700 40.6800   1
 -25   7   3 40.2200 46.2900   1
  -7  25  -3 107.820 70.8900   1
   7  25  -3 95.2100 44.7900   1
  10  10  22 1227.46 55.6300   1
   2  22  14 1330.78 53.6600   1
 -22  -2  14 1307.57 56.4500   1
 -10 -10  22 1214.56 52.3500   1
  -2  22  14 1237.44 58.2600   1
  14  22   2 1337.49 62.4500   1
 -10  10  22 1300.78 54.0800   1
 -14  22  -2 1326.89 70.3100   1
 -22   2  14 1388.76 61.0700   1
 -14  22   2 1306.15 71.8600   1
 -22  14   2 1294.97 68.3100   1
   2   2  26 3234.73 98.4800   1
 -14  22  -2 1017.83 82.8400   1
  14  22   2 1324.40 87.1600   1
 -22  14  -2 1337.20 88.4000   1
  -2  -2  26 3137.64 89.3300   1
   2  -2  26 3245.00 93.9200   1
  -2  26  -2 3067.35 98.7500   1
   2  26  -2 2969.41 93.3900   1
 -26   2   2 3202.77 127.540   1
   2  26  -2 3297.89 129.040   1
   2  26   2 3038.32 97.5000   1
  -2  26  -2 3158.39 120.550   1
  -2  26   2 3299.91 112.400   1
   2  26   2 3397.04 107.750   1
  26   2   2 2734.67 100.460   1
  -2   2  26 3305.49 99.5800   1
 -14  22   2 1230.77 66.3200   1
 -22  14   2 1058.09 62.5000   1
  -2  26   2 3175.74 101.170   1
  14  22  -2 1234.02 63.5900   1
  14   2  22 1342.05 62.6500   1
 -14  -2  22 1262.28 52.2700   1
   2  14  22 1199.84 51.1100   1
 -14   2  22 1407.07 62.1900   1
  -2  14  22 1298.28 53.7900   1
 -18  18  -6 8276.52 278.090   1
  22  10  10 1293.61 56.3800   1
  10  22  10 1284.27 54.9000   1
 -22  10  10 1231.34 59.1800   1
 -22 -10  10 1362.31 71.5700   1
  22  10  10 1105.98 98.2900   1
 -10  22  10 1174.54 53.5500   1
 -18  18   6 8016.86 196.310   1
  18   6  18 8069.90 191.460   1
 -18  -6  18 9070.77 269.930   1
   6  18  18 8263.99 235.630   1
  -6  18  18 8332.87 239.140   1
 -18   6  18 8333.70 240.220   1
  18  18   6 8268.23 260.720   1
  12  12  20 1410.06 58.6800   1
 -12 -12  20 1250.56 53.1900   1
  20  12  12 1332.53 56.4500   1
 -20 -12  12 1351.61 69.6800   1
  12  20  12 1460.51 61.3900   1
 -20  12  12 1366.74 56.3800   1
 -12  20  12 1296.08 54.9700   1
 -12 -20  12 1210.85 74.1600   1
 -12  12  20 1402.15 59.6900   1
 -15  21   5 440.680 45.5300   1
 -21  15   5 483.070 53.2000   1
  21   5  15 592.480 45.2100   1
  15   5  21 583.500 39.3700   1
  -9 -13  21 589.420 46.8900   1
  21   9  13 538.160 41.5700   1
  13   9  21 491.040 36.6500   1
 -13  -9  21 538.150 46.4100   1
   9  13  21 616.790 38.9800   1
  21  13   9 583.710 38.1300   1
  -9  13  21 531.720 48.2100   1
 -13   9  21 543.200 43.9000   1
 -21  -9  13 564.070 39.5700   1
   9  21  13 546.320 43.3400   1
  -9  21  13 545.780 40.5800   1
  13  21   9 595.840 42.3200   1
 -21   9  13 641.740 46.5000   1
   9   9  23 155.890 37.6300   1
  -9  -9  23 242.130 32.4300   1
  23   9   9 264.240 32.4800   1
  -9   9  23 181.010 31.5100   1
   9  23   9 228.670 28.9000   1
  -9  23   9 290.250 44.2600   1
 -23   9   9 193.960 32.9000   1
  23   9   9 246.860 44.8000   1
 -15   5  21 652.730 41.2800   1
   5  15  21 646.820 40.0800   1
 -21  13   9 561.770 41.9100   1
  -5  15  21 606.000 40.7100   1
 -21  -5  15 668.300 44.6700   1
   5  21  15 661.770 47.8100   1
  -5  21  15 591.050 50.7500   1
 -21   5  15 568.180 38.8400   1
 -15  21   5 607.040 59.2100   1
  15  21   5 653.140 44.4600   1
 -15  -5  21 717.990 49.6700   1
 -21  15   5 612.080 54.9300   1
 -15  21  -5 665.500 79.7500   1
 -21  15  -5 561.420 77.6300   1
 -13 -21   9 493.570 40.1800   1
 -13  21   9 522.260 40.9700   1
 -10  -4  24 1266.69 53.2800   1
  26   0   4 1298.76 67.6800   1
  22   8  12 756.920 77.2300   1
 -16  20  -6 3738.83 132.300   1
 -20  16   6 3417.28 102.450   1
  -8  22  12 860.610 46.8000   1
 -16  20   6 3412.52 106.850   1
  16  20   6 3648.56 121.170   1
  -6  20  16 3439.39 95.6300   1
 -20  16  -6 3317.21 125.460   1
 -22   8  12 846.150 50.9500   1
 -12  22   8 974.770 51.3000   1
 -22  12   8 884.790 49.5800   1
  12  22   8 831.660 47.1700   1
  -8 -12  22 843.390 45.7800   1
  22   8  12 843.370 45.5800   1
  12   8  22 839.290 49.2800   1
 -12  -8  22 856.110 44.8600   1
   8  12  22 920.720 50.3000   1
  22  12   8 899.960 49.0800   1
  -8  12  22 986.890 55.6800   1
 -12   8  22 997.490 54.2000   1
   8  22  12 832.670 46.6600   1
 -22  -8  12 935.290 50.1900   1
 -12 -22   8 780.810 55.2700   1
  -4  26   0 1608.60 72.0800   1
 -20   6  16 3300.35 95.4100   1
   0  26  -4 1408.11 66.3800   1
   0  -4  26 1457.47 57.4700   1
   4   0  26 1582.69 67.1500   1
   0   4  26 1552.32 66.3100   1
  26   4   0 1267.41 66.4700   1
 -12  22  -8 922.170 99.8800   1
   0  26   4 1646.92 78.9900   1
 -16   6  20 3498.99 96.7000   1
  -4  10  24 1161.39 50.8100   1
 -10   4  24 1182.91 51.2900   1
   4  10  24 1168.62 50.8800   1
   6  20  16 3194.01 90.3900   1
  -6  16  20 3260.48 91.3600   1
 -20  -6  16 3436.18 110.050   1
   6  16  20 3443.22 102.670   1
 -16  -6  20 3233.41 92.6700   1
  16   6  20 3341.17 100.200   1
  20   6  16 3411.52 98.0300   1
  -4   0  26 1525.97 65.0200   1
  -4  26   0 1632.15 74.8500   1
   4  26   0 1676.17 82.2600   1
 -26   0   4 1792.68 88.3400   1
   0  26  -4 1562.50 94.7500   1
 -26   4   0 1752.69 94.7900   1
 -20  16   6 3088.03 97.3200   1
  -4 -10  24 1251.44 54.0500   1
  10   4  24 1172.01 58.5700   1
  22  12   8 765.870 69.4800   1
   4  26   0 1633.50 66.0300   1
 -24  10  -4 1188.93 87.8100   1
  24   4  10 1056.22 72.5400   1
 -24  10   4 1174.12 69.4400   1
  10  24   4 1246.18 67.7200   1
 -10  24   4 1163.40 58.7100   1
 -24  -4  10 1219.45 60.1200   1
 -24   4  10 1087.17 51.9000   1
  -4  24  10 1115.88 56.3100   1
 -24  10   4 964.920 51.5700   1
 -10  24  -4 1245.83 61.0000   1
   4  24  10 1239.96 55.8400   1
  24   4 -10 955.310 54.5700   1
 -10  24  -4 1185.49 91.8600   1
 -22  14  -4 324.990 73.9700   1
 -14  22  -4 187.070 56.7700   1
 -22  14   4 208.160 51.2900   1
  14  22   4 263.710 40.6000   1
 -14  22   4 234.130 54.9300   1
 -22   4  14 256.280 31.2800   1
  -4  22  14 263.580 41.6400   1
 -22  -4  14 264.840 44.5500   1
   4  22  14 220.100 30.7700   1
  -4  14  22 209.780 44.8400   1
 -14   4  22 234.940 40.1200   1
   4  14  22 119.720 36.8600   1
 -14  -4  22 240.130 42.0400   1
  14   4  22 184.970 32.4300   1
 -22  14   4 196.580 46.9400   1
 -14  22   4 297.930 54.1700   1
   4  -2  26 716.890 43.5300   1
   4  26  -2 731.730 54.3400   1
   2  26  -4 649.050 62.9500   1
 -26  -2   4 771.150 70.7300   1
  -2  26  -4 775.670 82.0000   1
 -26   4   2 663.330 73.6800   1
   4  26  -2 880.110 74.9300   1
 -26   2   4 740.500 66.8900   1
  -4  26  -2 897.720 63.4200   1
 -10 -14  20 80.8300 40.6900   1
  20  10  14 83.1200 29.6600   1
  14  10  20 49.6000 26.7300   1
 -14 -10  20 38.1900 32.6300   1
  10  14  20 30.6900 37.5800   1
  20  14  10 82.7600 29.5100   1
 -10  14  20 20.2800 28.2900   1
 -14  10  20 69.2700 37.7600   1
  10  20  14 49.6900 31.4100   1
  14  20  10 86.8400 31.0900   1
   4  26   2 754.640 51.7500   1
  -4  26   2 743.330 59.6700   1
  -2  26   4 734.660 58.2500   1
   2  26   4 848.810 59.2300   1
  26   2   4 622.110 42.7700   1
  26   4   2 645.200 48.9700   1
  26   2  -4 611.920 45.3100   1
  -4   2  26 843.860 44.7300   1
  -2   4  26 712.070 42.9300   1
   2   4  26 815.230 51.0000   1
  -4  -2  26 799.670 44.3200   1
   4   2  26 762.450 49.8100   1
  -2  -4  26 762.140 49.4100   1
   2  -4  26 906.590 55.9000   1
  -2  26  -4 667.010 56.9700   1
 -20  14  10 92.0000 44.0800   1
 -14  20  10 65.1900 32.1500   1
 -20  10  14 29.7900 36.9900   1
 -10  20  14 48.8800 31.9900   1
   2  26  -4 762.860 47.4500   1
   4  26   2 779.810 49.4000   1
  -4  26   2 747.460 61.7600   1
  -4  26  -2 752.130 50.0700   1
 -20 -10  14 71.0200 29.6900   1
  25   7   5 198.080 28.8800   1
 -25   7   5 206.820 37.4400   1
 -25   5   7 185.580 40.8200   1
  -7  -5  25 238.110 40.4500   1
 -13 -19  13 448.650 49.0100   1
 -13  19  13 430.200 38.1700   1
 -19  13  13 540.930 39.9700   1
 -13  13  19 571.910 45.5300   1
  13  19  13 536.290 40.1800   1
  -1  13  23 4410.61 116.880   1
   1  13  23 4439.51 117.710   1
 -13   1  23 4291.29 117.910   1
 -13  -1  23 4295.10 113.030   1
  13   1  23 4542.52 118.750   1
 -23  13   1 4218.35 120.540   1
  13  23  -1 4364.16 138.030   1
 -13  23  -1 4237.70 123.910   1
 -13  23   1 4103.33 123.620   1
  13  23   1 4378.35 140.740   1
 -19 -13  13 494.920 43.4300   1
  17   7  19 5737.01 149.760   1
  19   7  17 5818.02 147.950   1
   7   5  25 190.990 39.1400   1
  -5  -7  25 157.590 42.4100   1
 -23  -1  13 4743.66 137.370   1
 -13  23   1 4530.18 134.850   1
 -23  11   7 801.240 59.4900   1
  17  19   7 6306.08 172.690   1
 -17  19   7 6023.58 154.780   1
 -19  17   7 6098.46 166.950   1
  -7  19  17 5777.82 142.640   1
   1  23  13 4363.41 115.680   1
  -1  23  13 4493.40 117.250   1
 -11  23  -7 559.710 85.6200   1
  23   7  11 562.700 60.3700   1
 -17  19  -7 6025.72 208.760   1
 -19  17  -7 6184.35 191.140   1
  13  23   1 4816.83 176.850   1
 -11  23   7 705.090 58.0600   1
  11  23   7 753.390 48.7600   1
 -23   7  11 758.660 51.4400   1
  -7  23  11 737.830 50.2400   1
 -23  -7  11 788.950 48.1000   1
   7  23  11 662.280 39.2900   1
 -11 -23   7 571.670 59.2100   1
 -11   7  23 737.530 42.7400   1
  -7  11  23 754.460 43.3300   1
  23  11   7 721.490 43.5100   1
   7  11  23 762.840 50.7400   1
 -11  -7  23 680.510 46.3900   1
  11   7  23 746.620 42.5200   1
  -7 -11  23 657.080 41.8400   1
  23   7  11 786.120 47.3800   1
 -23  11   7 638.160 52.7100   1
  19  17   7 6057.21 178.120   1
 -19   7  17 5469.36 136.840   1
  19  13  13 501.500 37.6200   1
  -7  17  19 6136.40 152.150   1
 -17   7  19 6106.08 154.710   1
   7  19  17 5695.51 138.700   1
   7  17  19 5884.35 143.000   1
 -19  -7  17 6250.10 165.170   1
 -17  -7  19 5824.75 147.040   1
  13  13  19 526.890 42.0500   1
 -23   1  13 4739.01 134.170   1
 -25   7   5 244.770 46.8400   1
 -13 -13  19 521.210 45.3900   1
  -5  25  -7 235.830 77.7500   1
  -7  25  -5 336.200 71.4600   1
 -25  -5   7 309.310 48.5300   1
 -25   5   7 217.400 42.3100   1
  -7  25   5 190.510 51.4800   1
   7  25   5 185.400 31.0300   1
  25   5   7 200.200 31.3200   1
  -5  25   7 357.140 49.0600   1
   5  25   7 200.220 37.1400   1
  -7   5  25 233.570 39.1900   1
  -5   7  25 213.890 43.5400   1
 -23  13  -1 4619.12 156.060   1
 -23  13   1 4813.62 151.910   1
 -13  23  -1 4188.39 130.370   1
 -17  17  11 871.940 57.5400   1
 -11  17  17 865.240 55.4200   1
 -17  11  17 896.460 51.5500   1
  17  17  11 822.590 45.4300   1
  11  17  17 944.630 51.9600   1
 -17 -11  17 760.990 44.7800   1
  17  11  17 836.350 48.7300   1
 -17 -17  11 867.670 53.8100   1
   5   7  25 191.540 32.7300   1
  -8  24  -8 67.3900 53.8300   1
 -24   8   8 68.7800 31.3500   1
  -8  24   8 84.4100 41.0000   1
   8  24   8 41.0800 25.9100   1
  -8   8  24 53.5000 38.2400   1
   8   8  24 -17.800 29.0000   1
  -8  -8  24 84.8100 40.6400   1
 -24   8   8 -16.350 39.7300   1
 -11  15  19 96.1400 30.3700   1
 -15  11  19 39.8700 37.5500   1
  11  15  19 36.7300 25.5400   1
  15  11  19 58.1500 26.8800   1
 -15 -11  19 12.4700 36.7800   1
   3  13  23 2556.09 82.9800   1
 -13   3  23 2344.74 74.0900   1
 -11 -15  19 41.7200 35.5600   1
  -3  13  23 2419.74 75.4600   1
  13   3  23 2432.13 79.3000   1
 -13  -3  23 2246.60 72.0100   1
   3  23  13 2332.49 74.8100   1
 -23  -3  13 2447.05 89.4900   1
  -3  23  13 2568.78 82.3700   1
 -23   3  13 2516.47 81.5400   1
 -13  23   3 2443.69 92.4000   1
 -23  13   3 2307.62 86.2600   1
  13  23   3 2500.20 111.680   1
 -13  23  -3 2700.73 117.810   1
 -23  13  -3 2449.08 106.030   1
 -13  23   3 2219.18 87.2200   1
 -23  13   3 2310.01 83.2600   1
 -13  23  -3 2160.08 77.0900   1
 -15  19  11 -18.790 45.0500   1
 -19  15  11 1.31000 30.3400   1
 -19  11  15 77.4400 41.1500   1
   9  25   1 2098.78 79.4700   1
 -11  19  15 25.3700 29.4200   1
  15  19  11 16.9500 29.9600   1
  11  19  15 47.9200 25.9100   1
 -19 -11  15 44.9100 30.4600   1
  19  11  15 29.5800 29.8700   1
 -15 -19  11 84.3800 31.1400   1
   9  25  -1 1866.70 71.8900   1
 -25   1   9 2204.01 88.0500   1
  -9  25  -1 2044.91 80.7000   1
 -25  -1   9 2219.04 95.2300   1
  -1  -9  25 2221.80 80.2200   1
   9  -1  25 2275.28 73.4600   1
   9   1  25 2033.82 68.7700   1
  25   1  -9 1818.46 78.5600   1
  -9  -1  25 2162.82 76.0200   1
   1   9  25 2318.22 73.2800   1
  -9   1  25 2187.97 71.2200   1
  -1   9  25 2234.57 75.1600   1
  -1  25   9 2141.13 71.6800   1
   1  25   9 2265.93 78.2700   1
 -25  -1   9 2174.17 88.7100   1
 -25   1   9 2354.94 89.3100   1
  -9  25   1 2240.44 90.4400   1
  -9  25  -1 2248.91 88.9200   1
   9  25   1 2305.97 96.8800   1
 -25   9   1 2242.24 92.2000   1
   9  25  -1 2316.79 118.330   1
 -25   9  -1 2108.13 104.660   1
  -9  25   1 2071.10 75.8000   1
 -14 -16  16 45.2400 34.2500   1
 -16 -14  16 28.8600 31.9200   1
  16  14  16 41.4800 29.3500   1
  14  16  16 46.0300 31.2800   1
 -16  14  16 5.74000 28.7700   1
 -14  16  16 -20.290 29.1100   1
  -4  26   4 -29.900 43.2600   1
 -26   4   4 17.3900 50.0300   1
  -4  26  -4 -29.560 47.9600   1
   4  26  -4 18.8500 58.1900   1
   4  -4  26 70.3400 44.1500   1
 -16 -16  14 52.4400 30.7800   1
  16  16  14 35.0300 32.3600   1
 -16  16  14 -31.980 41.6700   1
   4  26  -4 -17.240 46.8400   1
  -4  26  -4 41.1000 34.8400   1
   4  26   4 52.8100 30.9700   1
  -4   4  26 -36.910 37.2600   1
   4   4  26 4.35000 29.5600   1
  -4  -4  26 13.0900 38.3400   1
 -10  -6  24 311.290 40.9600   1
  10   6  24 365.770 35.4600   1
 -24   6  10 320.980 44.1800   1
 -24  10   6 285.670 45.3300   1
  -6  24  10 353.150 36.9100   1
   6  24  10 268.600 40.3900   1
  -6  10  24 268.320 45.2500   1
  24  10   6 374.210 34.3500   1
   6  10  24 347.020 35.1300   1
  -6 -10  24 371.870 46.0100   1
  -6  26   0 289.330 53.8400   1
  -8  18  18 5214.28 132.750   1
   6  26   0 301.150 44.8700   1
   0  -6  26 244.500 35.1200   1
   6   0  26 348.610 46.7300   1
  -6   0  26 269.060 44.9300   1
 -10   6  24 354.810 42.0400   1
 -18  18   8 5126.99 136.490   1
  18  18   8 5289.35 154.130   1
   0   6  26 264.570 45.4100   1
 -18   8  18 4685.61 120.800   1
   8  18  18 5466.95 139.160   1
 -18  -8  18 5399.39 149.550   1
  18   8  18 5139.93 135.280   1
  26   0  -6 194.980 29.4600   1
   0  26   6 251.430 46.0300   1
  -6  26   0 198.940 43.7000   1
 -26   0   6 261.160 46.1600   1
   6  26   0 198.800 57.6600   1
 -26   6   0 156.600 59.2800   1
   0  26  -6 135.450 52.7300   1
 -10  24  -6 259.220 57.6300   1
  24   6  10 296.440 38.4800   1
 -24  10   6 289.850 38.0900   1
 -10  24   6 316.810 39.8700   1
 -24  -6  10 335.470 37.5500   1
  10  24   6 376.420 39.9700   1
  -7  15  21 537.040 49.1100   1
 -15  21  -7 475.300 63.7100   1
 -21  15   7 468.060 53.6900   1
 -15  21   7 448.870 53.2000   1
 -15  -7  21 466.050 42.7000   1
  15  21   7 454.450 36.8500   1
  21  15   7 423.320 33.3200   1
  -7  21  15 447.180 37.9000   1
 -21   7  15 461.490 37.0600   1
 -15   7  21 464.260 36.7800   1
   7  21  15 396.520 43.2800   1
 -21  -7  15 455.980 37.1500   1
 -21  15   7 397.850 41.8900   1
  21   7  15 469.510 48.5600   1
  15   7  21 389.020 45.2200   1
   7  15  21 417.760 44.8600   1
   3  25   9 833.490 44.9300   1
  -9  25   3 853.840 53.0000   1
 -25   3   9 780.810 49.6100   1
   9  25  -3 800.220 46.8700   1
  25   3   9 783.550 59.5100   1
  -3  -9  25 1070.18 57.1700   1
   9   3  25 867.880 45.1700   1
  -9  -3  25 932.710 46.6400   1
   3   9  25 1026.28 48.3700   1
  -9   3  25 1009.11 56.5100   1
  -3   9  25 852.040 54.2400   1
  -3  25   9 1017.97 58.6800   1
 -25   3   9 901.470 48.5300   1
 -25  -3   9 958.010 58.9400   1
  -9  25   3 977.660 67.4900   1
   9  25   3 1043.30 64.3900   1
 -25   9   3 953.910 60.0800   1
  -9  25  -3 889.530 85.8300   1
 -25   9  -3 937.950 87.6100   1
  -9  25  -3 806.590 61.9400   1
  -6  26  -2 224.620 47.9200   1
  -6  14  22 51.9400 38.9700   1
  -6  26   2 48.8300 36.8600   1
   6  26   2 -9.5700 47.4100   1
 -26   6   2 4.42000 57.7200   1
   6  26  -2 58.2400 41.8100   1
  -2  26  -6 57.6500 71.4800   1
 -26   6  -2 67.7700 48.2300   1
  -6  26  -2 91.8600 59.1200   1
  -2  -6  26 137.910 42.9100   1
   6  -2  26 94.3800 32.3000   1
   6  26   2 50.8600 45.4800   1
 -26   2   6 67.1500 40.0100   1
 -22  14  -6 50.7600 53.6900   1
 -14  22  -6 56.7900 75.0100   1
 -22  14   6 9.56000 44.3200   1
 -14  22   6 -47.100 47.1100   1
  14  22   6 7.82000 31.0400   1
 -22   6  14 3.33000 34.3700   1
  -6  22  14 -12.480 37.8500   1
 -22  -6  14 44.4300 27.4500   1
   6  22  14 11.4100 25.9800   1
 -26  -2   6 60.4900 44.6500   1
 -14   6  22 -2.7900 29.3000   1
 -14  -6  22 66.5900 35.1400   1
  14   6  22 38.7500 29.0300   1
  22   6  14 -7.0900 33.1400   1
 -22  14   6 3.43000 45.5500   1
   6  14  22 97.2100 40.2000   1
   6  26  -2 178.460 35.0300   1
   2   6  26 77.5800 31.3000   1
   6   2  26 153.890 40.1100   1
  -6   2  26 110.430 30.7600   1
  -2   6  26 39.9700 29.7100   1
  -2  26   6 89.4400 32.3500   1
  -6  -2  26 101.350 31.4200   1
   2  26   6 59.7400 42.4900   1
  -6  26   2 -17.350 52.3900   1
   2  -6  26 50.1100 44.4900   1
  14  18  14 -11.960 28.7200   1
 -14  14  18 -42.440 36.7400   1
 -14  18  14 -0.6700 41.9900   1
 -18  14  14 1.18000 28.4200   1
 -14 -14  18 20.3500 35.1100   1
  14  14  18 2.32000 24.6000   1
  18  14  14 -20.150 30.6200   1
 -16  -8  20 1863.28 69.4300   1
  16   8  20 2061.57 68.0600   1
  -8  20  16 1935.96 67.2900   1
   8  16  20 1939.93 65.4400   1
 -20  -8  16 2029.21 79.8200   1
   8  20  16 2068.19 70.5300   1
 -16   8  20 1941.37 65.8900   1
 -20   8  16 2009.33 73.3800   1
  20   8  16 2070.65 72.8800   1
 -12  24   0 6132.15 169.870   1
 -24   0  12 6369.46 177.480   1
   0  24  12 5694.82 142.180   1
   0  12  24 6068.64 152.350   1
 -12   0  24 5927.70 147.890   1
  20  16   8 2077.97 82.4800   1
 -24  12   0 6100.07 187.640   1
  16  20   8 1941.98 78.6300   1
  12  24   0 5806.32 161.340   1
 -16  20   8 1973.64 76.5300   1
 -20  16   8 2082.78 74.2100   1
  12   0  24 5903.04 146.060   1
 -12  24   0 5915.67 164.160   1
  12  24   0 5758.89 217.400   1
 -16 -20   8 1993.16 92.2700   1
 -23   5  13 1038.55 49.1800   1
 -19  19   1 843.390 58.0200   1
  19  19   1 755.130 49.5100   1
 -19  19  -1 640.410 46.1300   1
 -19  -1  19 783.500 43.0700   1
 -19   1  19 823.870 50.9000   1
   1  19  19 835.170 44.6000   1
  -1  19  19 812.820 50.9300   1
 -19  19   1 762.340 58.3600   1
 -19  19  -1 653.820 58.3600   1
 -23  13   5 1002.00 57.4200   1
  13   5  23 1125.83 50.4000   1
 -13  -5  23 1127.87 58.1000   1
  -5  23  13 1162.12 60.1600   1
 -23  -5  13 1149.42 56.7800   1
   5  23  13 1205.15 58.0000   1
  -5  13  23 1086.10 49.7100   1
 -13   5  23 988.020 48.2400   1
   5  13  23 1051.97 48.3100   1
 -23  13   5 1221.21 71.0400   1
  13  23   5 1027.88 56.3700   1
 -13  23   5 1106.35 63.3400   1
 -13  23  -5 1027.01 76.2700   1
 -23  13  -5 1076.77 78.3900   1
 -25   7   7 454.800 47.7900   1
  25   7   7 489.500 38.7300   1
  -7  -7  25 459.140 37.8400   1
   7   7  25 527.970 39.1600   1
  -7   7  25 541.180 46.2000   1
   7  25   7 709.260 50.7500   1
  -7  25   7 623.570 51.5100   1
 -25   7   7 714.050 47.6200   1
  -7  25  -7 706.200 66.8600   1
  18  16  12 361.870 36.4800   1
  16  18  12 360.040 34.4400   1
 -12  16  18 325.150 34.7700   1
 -16  12  18 343.060 35.8900   1
 -12  18  16 267.710 41.9500   1
 -18  12  16 339.000 46.1200   1
 -18  16  12 337.330 37.0600   1
 -16  18  12 317.730 37.2700   1
  12  24   2 4400.38 128.330   1
 -12  24   2 4385.43 124.090   1
 -12  24  -2 4567.23 131.420   1
  12  24  -2 4558.35 139.000   1
 -24  12   2 4278.44 126.390   1
  12   2  24 4540.43 118.270   1
 -12  -2  24 4867.43 130.100   1
 -12   2  24 4818.33 123.360   1
   2  12  24 4677.50 144.270   1
  -2  12  24 4698.17 126.650   1
   2  24  12 4470.57 122.090   1
  -2  24  12 4569.41 120.460   1
 -20   0  18 413.340 34.0600   1
 -24  -2  12 4799.42 138.870   1
 -12  24   2 4712.60 135.170   1
 -24  12   2 4712.96 147.010   1
 -12  24  -2 5083.01 170.010   1
 -24  12  -2 4697.24 154.850   1
  12  24   2 4696.81 165.390   1
   0  18  20 407.140 42.1900   1
 -18   0  20 414.280 41.4600   1
  18  20   0 387.790 39.2700   1
 -20  18   0 388.890 40.1700   1
 -18  20   0 302.700 41.1900   1
 -24   2  12 4546.12 146.910   1
  16  12  18 353.550 32.2700   1
  18  12  16 373.290 32.4400   1
 -18 -16  12 345.010 33.8400   1
 -18 -12  16 403.210 38.7700   1
  12  16  18 331.440 32.6500   1
  12  18  16 326.810 33.1000   1
 -12 -16  18 335.890 44.5000   1
 -16 -18  12 329.590 36.7900   1
 -16 -12  18 359.580 37.2000   1
 -20  18   0 422.460 69.5300   1
 -18  20   0 390.160 66.9000   1
   0  20  18 458.630 42.9700   1
 -12 -10  22 2391.08 89.6700   1
  -6   4  26 235.300 45.6200   1
   4   6  26 262.800 34.8600   1
   6   4  26 263.120 42.3800   1
  -6  -4  26 304.630 35.4600   1
 -10 -12  22 2522.53 94.2400   1
  18  20   2 910.020 54.8600   1
 -18  20   2 1038.56 64.5200   1
  20  18   2 959.230 57.9700   1
 -10  22  12 2530.69 92.5600   1
 -22  10  12 2558.95 93.8200   1
 -12  22  10 2588.69 95.8100   1
 -22  12  10 2378.79 90.0700   1
 -18  20  -2 889.740 66.4000   1
 -18  -2  20 894.370 47.8900   1
   2  18  20 1013.28 50.8300   1
 -18   2  20 995.720 56.4400   1
 -20  -2  18 995.500 56.6400   1
  -2  18  20 1024.77 59.0300   1
   2  20  18 910.260 48.0900   1
 -20   2  18 979.180 56.3800   1
  -2  20  18 953.450 55.1300   1
  -6  26  -4 180.380 37.9900   1
 -18  20   2 873.860 73.5200   1
 -18  20  -2 955.990 69.2400   1
 -20  18  -2 1102.22 75.2900   1
 -20  18   2 981.060 62.2500   1
   6  26  -4 353.060 63.3300   1
  -4  26  -6 280.370 71.1100   1
  -6  26  -4 356.430 77.1400   1
 -26   4   6 336.350 52.1200   1
  -6  26   4 309.020 40.1500   1
 -20  18   2 960.620 65.4800   1
  -4  -6  26 319.560 46.3200   1
   6  -4  26 223.120 46.2700   1
   4  -6  26 152.360 43.3000   1
 -26  -4   6 324.050 53.4900   1
 -26   6   4 338.260 44.2700   1
  12  22  10 2519.94 92.5700   1
 -22 -10  12 2573.29 107.290   1
  10  22  12 2485.09 90.9300   1
 -10  12  22 2406.86 87.6200   1
 -12  10  22 2421.22 85.6800   1
   6  26  -4 261.700 51.4800   1
  -4  26   6 355.010 50.6700   1
   4  26   6 261.280 34.4100   1
  -4   6  26 225.210 41.6100   1
  22  12  10 2463.75 94.5300   1
  10  12  22 2273.51 81.5300   1
  12  10  22 2435.72 89.0300   1
  22  10  12 2446.84 97.8500   1
   6  26   4 276.510 36.2200   1
  -1  27  -1 2679.20 99.8600   1
   1  27  -1 2865.72 105.160   1
   1  27   1 3229.16 130.510   1
  -1  27   1 3163.06 120.280   1
  -1  27  -1 3142.19 119.910   1
   1  27  -1 3235.84 144.040   1
 -21  13  11 1527.05 72.2300   1
 -13  21  11 1569.59 72.0100   1
 -21  11  13 1555.54 65.5000   1
 -11  21  13 1466.62 68.1000   1
  13  21  11 1585.18 69.9600   1
  11  21  13 1515.69 64.7100   1
 -21 -11  13 1504.53 77.1800   1
 -13  11  21 1425.12 61.2000   1
 -11  13  21 1430.38 61.7100   1
  21  13  11 1554.89 70.8700   1
  11  13  21 1414.29 59.8400   1
  13  11  21 1521.11 66.2500   1
  21  11  13 1602.44 68.4400   1
  17   9  19 2541.77 89.6900   1
  19   9  17 2480.59 87.4900   1
 -17 -19   9 2559.92 107.510   1
 -17  -9  19 2678.42 100.280   1
 -19  -9  17 2645.16 101.890   1
   9  17  19 2775.59 98.2000   1
   9  19  17 2498.91 87.4800   1
  -9  17  19 2628.95 91.3200   1
 -17   9  19 2517.92 90.8000   1
  19  17   9 2647.47 99.4200   1
 -19   9  17 2705.16 96.8400   1
  -9  19  17 2602.34 94.6000   1
  17  19   9 2666.67 97.9300   1
 -17  19   9 2597.15 94.0200   1
 -19  17   9 2757.69 103.800   1
 -13 -11  21 1542.57 64.6700   1
 -11 -13  21 1523.91 70.9000   1
 -19  -3  19 2368.75 88.6300   1
 -11  -9  23 1749.69 75.1800   1
  23   9  11 1856.73 77.8600   1
  -9 -11  23 1790.53 70.8400   1
 -19  19  -3 2208.19 117.340   1
 -19  19   3 2448.05 106.070   1
  -3  19  19 2271.88 81.8800   1
 -19   3  19 2220.74 85.9700   1
   3  19  19 2428.43 88.6600   1
 -19  19   3 2203.88 93.0100   1
  19  19   3 2342.29 97.6200   1
 -21  17  -1 91.3800 60.5000   1
 -17  21  -1 6.38000 65.2800   1
 -21  17   1 68.3600 43.3300   1
 -17  21   1 50.0800 42.3000   1
  -1  21  17 34.3300 41.3400   1
 -21   1  17 50.8100 33.8000   1
   1  21  17 44.6500 28.3100   1
 -21  -1  17 44.8200 25.2700   1
  -1  17  21 11.3900 30.0800   1
   1  17  21 52.2500 30.7400   1
 -17   1  21 37.8400 27.9000   1
 -17  -1  21 53.1900 28.0600   1
 -17  21  -1 68.3700 48.1000   1
 -21  17   1 -13.270 33.7600   1
 -17  21   1 63.5000 36.1600   1
  17  21   1 72.5700 34.4700   1
  -5  -9  25 27.4400 43.4300   1
   9   5  25 97.5100 31.1800   1
  -9  -5  25 54.8600 29.6600   1
   5   9  25 52.1900 28.7700   1
  -9   5  25 55.0300 37.8700   1
  -5   9  25 1.91000 28.7500   1
  11   9  23 1710.05 67.6100   1
   9  11  23 1744.73 68.3400   1
  23  11   9 1829.90 76.3700   1
  -9  11  23 1821.99 75.4600   1
 -11   9  23 1895.33 76.4300   1
   9  23  11 1663.48 66.3300   1
  11  23   9 1819.03 74.3500   1
  -9  23  11 1745.88 70.9800   1
 -23  -9  11 1984.19 92.8300   1
 -23   9  11 1782.36 72.2800   1
 -11  23   9 1918.96 81.0600   1
 -23  11   9 1794.24 74.0300   1
  -1  27   1 2989.79 115.740   1
   1  27   1 2734.07 112.560   1
  -9  25   5 18.7900 44.9900   1
   5  25   9 57.6700 27.8900   1
 -25   9   5 57.7900 29.6100   1
 -25   5   9 93.3000 34.9300   1
 -25   9   5 29.3700 34.8900   1
   1  -1  27 3054.87 102.420   1
   1   1  27 2964.98 104.060   1
  -5  25   9 88.3500 44.7700   1
 -25  -5   9 60.6900 34.3200   1
  -1  -1  27 2926.94 101.610   1
  -1   1  27 2958.15 99.7900   1
  -9  25  -5 -0.4600 53.4300   1
   9  25   5 73.1300 39.8400   1
 -25   5   9 49.8000 36.8300   1
 -12   4  24 2422.83 87.9000   1
 -12  24   4 2524.79 95.8300   1
  12  24   4 2639.51 112.600   1
 -12  24  -4 2679.93 116.980   1
   4  12  24 2411.79 88.6000   1
 -24  12  -4 2394.83 111.830   1
 -12  24   4 2288.69 94.8700   1
 -24  12   4 2447.87 98.1500   1
 -24  12   4 2082.48 84.0300   1
 -12  24  -4 2275.80 90.3900   1
  12   4  24 2471.64 87.1700   1
 -12  -4  24 2450.57 86.8700   1
  -4  12  24 2642.79 94.2400   1
   4  24  12 2399.87 89.2300   1
  -4  24  12 2395.56 86.8300   1
 -24   4  12 2488.14 90.7500   1
 -24  -4  12 2497.08 98.1200   1
 -17  -3  21 643.710 41.8900   1
   3  21  17 618.690 41.4000   1
 -21   3  17 592.700 48.1600   1
 -17   3  21 652.050 51.1800   1
  -3  17  21 662.250 47.6800   1
 -15  15  17 214.670 40.4500   1
   3  17  21 709.150 49.6100   1
  15  15  17 248.700 36.3200   1
  -3  21  17 622.150 42.4200   1
 -15 -15  17 233.610 35.7100   1
 -21  -3  17 694.740 46.0200   1
  17   3  21 629.150 49.5500   1
  15  17  15 161.320 35.5400   1
   3  27  -1 882.170 59.9400   1
   1  27  -3 924.640 54.7500   1
   3  -1  27 888.720 54.2700   1
  17  21   3 618.880 51.5100   1
 -17  21   3 601.620 48.1900   1
  21  17   3 593.760 45.2600   1
 -21  17   3 581.480 56.9600   1
   3  27  -1 997.880 74.6700   1
  -1  27  -3 882.960 61.1000   1
  -3  27  -1 714.730 60.7000   1
   1  27  -3 1008.31 71.9900   1
  -1  27  -3 906.930 69.1300   1
 -17  15  15 196.580 32.9100   1
 -15  17  15 158.370 32.7200   1
  -1  -3  27 851.510 48.1300   1
   3   1  27 987.760 51.9200   1
  -3  -1  27 917.530 49.7300   1
   1   3  27 793.170 46.2000   1
  -1   3  27 991.260 60.2300   1
 -21  17  -3 601.120 65.4700   1
 -17  21  -3 735.950 79.3400   1
 -21  17   3 637.230 61.1200   1
 -17  21   3 709.510 55.4100   1
   1  27   3 839.140 54.8100   1
  -1  27   3 838.490 60.2800   1
   3  27   1 980.660 65.0400   1
  -3  27   1 816.700 52.3500   1
   1  -3  27 959.120 59.5400   1
 -15 -17  15 182.250 32.5600   1
 -17 -15  15 185.580 34.1900   1
  17  15  15 201.200 32.7600   1
  -3   1  27 976.500 59.3200   1
  -1  27   3 962.770 57.1000   1
   1  27   3 980.980 64.9600   1
  -3  27   1 1031.59 75.8800   1
   3  27   1 1074.32 70.7300   1
  -3  27  -1 831.690 71.1500   1
 -27  -1   3 1010.74 76.8100   1
 -27   3   1 1142.75 86.8800   1
 -27   1   3 919.860 78.4800   1
 -16  22   0 595.480 55.8500   1
  16  22   0 548.770 45.2900   1
 -22  16   0 443.720 51.6000   1
 -14 -12  20 329.180 34.1400   1
 -16   0  22 480.100 43.9300   1
 -16  22   0 415.200 56.8900   1
 -22  16   0 564.900 56.6400   1
 -12 -14  20 409.710 42.9400   1
   0  16  22 468.720 38.4800   1
 -20  14  12 368.120 37.9700   1
 -14  20  12 353.110 38.6800   1
  14  20  12 380.240 36.4000   1
 -12  14  20 402.590 37.3000   1
 -22   0  16 544.830 45.3600   1
   0  22  16 457.640 37.0100   1
 -14  12  20 320.630 42.4300   1
 -20 -14  12 394.240 35.8000   1
  20  14  12 374.470 36.7200   1
  12  14  20 352.980 39.5200   1
  14  12  20 374.770 43.9100   1
 -18  -4  20 2820.99 98.6200   1
  18   4  20 3226.41 113.660   1
  20   4  18 3159.40 110.400   1
 -18  20   4 2796.02 108.110   1
 -20  18   4 2639.53 97.6900   1
 -20   4  18 2965.62 100.300   1
  -8  26   0 878.990 54.0000   1
 -26   0   8 1064.38 62.2900   1
  -8  26   0 903.890 71.3500   1
   8  26   0 960.100 72.4200   1
 -26   8   0 1014.77 85.4700   1
 -24   8  10 461.930 46.4100   1
 -24  10   8 396.160 39.9900   1
  24   8  10 491.020 40.3800   1
 -20  12  14 294.270 42.9400   1
 -12  20  14 352.650 37.8800   1
  -8 -10  24 450.770 43.8800   1
 -10  -8  24 551.770 49.9800   1
  10   8  24 514.880 48.5500   1
  24  10   8 513.040 37.0800   1
   8  26   0 1010.89 63.6100   1
   0  -8  26 861.830 48.8200   1
   8   0  26 831.010 48.2200   1
  -8   0  26 941.730 53.7500   1
   0   8  26 957.030 55.8400   1
   0  26   8 967.630 57.1700   1
   8  10  24 522.680 49.1500   1
  -8  10  24 460.890 38.7300   1
 -10   8  24 428.460 47.6300   1
   8  24  10 479.100 44.4400   1
  -8  24  10 448.640 39.9300   1
  10  24   8 482.240 41.4400   1
 -10  24   8 538.230 43.6400   1
 -24  10   8 471.140 52.5100   1
 -24  -8  10 488.860 45.9000   1
 -10  24  -8 510.550 67.7700   1
 -18  20  -4 3318.59 148.520   1
 -20  18  -4 3291.12 144.730   1
 -20  18   4 2885.52 108.200   1
 -18  20   4 2855.20 112.990   1
  -4  20  18 3105.52 102.500   1
  -4  18  20 3260.16 110.780   1
  12  20  14 431.000 39.1600   1
   4  20  18 3058.33 101.090   1
 -20 -12  14 368.810 36.9700   1
 -18   4  20 3057.29 107.980   1
   4  18  20 3198.85 111.660   1
 -20  -4  18 2807.10 98.7300   1
  20  12  14 382.600 39.3800   1
 -22  -8  14 239.280 34.1700   1
  22  14   8 289.670 32.1600   1
  -8  14  22 194.750 33.6600   1
   2   8  26 429.060 37.5600   1
 -14   8  22 226.870 32.8700   1
   8  14  22 229.180 31.4300   1
 -14  -8  22 286.250 33.5700   1
  14   8  22 261.790 32.6900   1
  22   8  14 264.400 38.5100   1
   8  26   2 404.750 44.2000   1
   2  22  16 143.540 30.0200   1
  -8 -14  22 224.320 41.7400   1
  -2  16  22 54.1300 31.4300   1
   2  16  22 168.320 43.0200   1
 -16   2  22 86.3000 36.3700   1
 -16  -2  22 117.510 39.4000   1
  16   2  22 33.5100 43.0000   1
 -16  22  -2 64.1200 35.8700   1
 -22  16   2 100.570 34.7300   1
 -16  22   2 53.1000 51.2300   1
  16  22   2 85.1900 39.0200   1
  -8  26   2 420.690 47.3100   1
 -26  -2   8 400.170 44.2000   1
 -22  -2  16 110.880 36.1900   1
  -2   8  26 414.170 48.1000   1
  -8  26  -2 424.350 58.4300   1
 -22   2  16 204.950 39.4800   1
 -22   8  14 245.600 43.6300   1
 -26   8  -2 395.760 67.5000   1
   8  26  -2 505.590 65.1800   1
 -26   8   2 323.770 58.6000   1
  -8  26   2 346.240 43.1500   1
   8  26  -2 330.820 39.0000   1
  -8   2  26 428.140 38.7000   1
  -2  22  16 91.7300 42.2900   1
  -2  26   8 378.400 45.7200   1
   2  26   8 386.390 37.6500   1
 -26   2   8 377.260 42.9600   1
 -22  16  -2 3.89000 72.8400   1
 -16  22  -2 65.2200 63.8800   1
 -22  16   2 55.0000 59.3800   1
   8  26   2 438.270 42.2400   1
 -16  22   2 129.900 43.6400   1
   8  -2  26 440.990 40.2900   1
  -2  -8  26 417.960 49.9900   1
  -8  26  -2 512.990 56.9500   1
  -8  -2  26 417.570 48.1600   1
   8   2  26 415.360 48.5400   1
 -26   2   8 428.630 48.5000   1
 -14  22  -8 364.290 63.5500   1
 -22  14   8 304.480 38.0300   1
 -14  22   8 240.090 38.2100   1
  14  22   8 255.920 33.4000   1
  -8  22  14 261.450 34.6700   1
   8  22  14 242.700 38.9100   1
 -13  17  17 498.490 39.7000   1
  17  13  17 495.080 41.1800   1
  13  17  17 526.990 45.0400   1
 -17 -13  17 523.700 44.1000   1
 -19  -5  19 5102.57 159.290   1
  19   5  19 5472.11 162.380   1
 -13 -17  17 574.460 45.0400   1
   5  19  19 4864.75 148.380   1
 -19   5  19 4791.00 146.950   1
  -5  19  19 5577.86 161.770   1
 -17  13  17 508.670 39.9700   1
 -13  -7  23 915.740 56.1300   1
  13   7  23 863.980 52.3300   1
  23   7  13 956.230 52.3900   1
  -7 -13  23 904.120 49.7600   1
 -23  13   7 877.420 57.5400   1
   3  27   3 70.9000 35.4400   1
  -3  27   3 121.880 37.6400   1
   3  27  -3 16.9900 33.9100   1
  -3  27  -3 74.9300 35.4100   1
   3  -3  27 116.640 41.0300   1
  -3  -3  27 52.8500 39.0500   1
   3   3  27 13.7300 30.9300   1
  -3   3  27 7.18000 29.7600   1
  -3  27   3 -21.080 34.8800   1
 -25  -1  11 4726.79 175.880   1
  11  25   1 4677.75 164.790   1
 -11  25   1 4075.48 136.150   1
  11  25  -1 4669.39 158.060   1
 -11  25  -1 4260.85 143.480   1
  11  -1  25 4518.58 146.730   1
  11   1  25 4802.54 154.050   1
 -11  -1  25 4525.31 141.210   1
   1  11  25 4355.10 134.980   1
 -11   1  25 4754.94 148.290   1
  -1  11  25 4536.35 138.490   1
  -1  25  11 4385.01 137.310   1
   1  25  11 4681.51 149.660   1
 -25  -1  11 4874.90 169.460   1
 -25   1  11 5016.00 169.640   1
 -11  25   1 5071.51 175.950   1
 -11  25  -1 4942.03 178.870   1
 -25  11   1 4617.34 171.520   1
  11  25   1 4733.56 192.880   1
 -25  11  -1 4436.95 164.330   1
  11  25  -1 4681.31 211.550   1
   3  27   3 91.7600 36.1100   1
  -3  27  -3 127.330 47.0200   1
 -21  15   9 -46.540 45.4600   1
 -15  21   9 -16.850 33.5200   1
  15  21   9 23.1000 26.6500   1
 -21   9  15 37.3700 28.5400   1
   9  21  15 20.4000 25.7400   1
  -9  15  21 42.9400 29.3600   1
 -15   9  21 -30.160 29.4200   1
 -21  -9  15 5.63000 26.7400   1
   9  15  21 -110.96 33.8900   1
 -15  -9  21 -0.7600 26.3300   1
  15   9  21 31.8500 34.2200   1
  21   9  15 -4.3100 24.0600   1
  -9 -15  21 -26.490 38.1900   1
 -19  19  -5 5105.58 185.520   1
 -19  19   5 5205.92 171.810   1
 -19  19   5 4727.77 152.600   1
 -17  17  13 427.250 45.0700   1
  17  17  13 519.360 39.8800   1
 -17 -17  13 553.460 42.8300   1
  -9  21  15 -42.960 29.9900   1
   3  27  -3 126.160 66.6400   1
 -27   3   3 87.8800 59.3200   1
 -13  23  -7 879.000 93.9700   1
 -13  23   7 925.150 54.9700   1
  13  23   7 1000.99 58.1500   1
  -7  23  13 914.310 49.5100   1
 -23  -7  13 929.930 52.7800   1
   7  23  13 812.110 44.7500   1
 -23  13   7 835.630 52.4600   1
  -7  13  23 852.750 56.1500   1
 -13   7  23 872.510 48.1800   1
   7  13  23 806.090 49.8800   1
 -18  10  18 1903.51 78.2900   1
  18  10  18 2069.06 79.0400   1
  18  18  10 2093.28 83.5200   1
  10  18  18 2073.57 79.9100   1
 -18  18  10 1784.87 80.4300   1
 -26   6   6 831.850 56.6700   1
  -6   6  26 942.440 49.3400   1
   6   6  26 925.960 54.6800   1
  -6  -6  26 861.510 56.3900   1
   6  26   6 1108.88 63.2600   1
 -18 -10  18 2062.71 83.0100   1
 -10  18  18 2015.88 78.7300   1
  -6  26  -6 937.900 73.9700   1
 -26   6   6 1009.29 68.6400   1
  -6  26   6 1045.45 56.4300   1
 -23  15   1 2086.24 104.680   1
 -23  15  -1 2141.24 101.910   1
 -27   5  -1 -2.4900 55.4200   1
   1  27  -5 21.6000 62.9900   1
  -1  27  -5 58.7000 51.6600   1
 -27   5   1 -7.7400 42.9300   1
   5  27  -1 58.8800 58.7700   1
 -27   1   5 13.5800 49.2300   1
  -5  27  -1 19.8600 43.1100   1
   5  27   1 -8.3700 51.4400   1
  -5  27   1 34.4900 58.7400   1
  -1  27   5 21.4200 41.4300   1
   1  27   5 13.0600 41.0600   1
  -1   5  27 -11.110 30.6700   1
   1   5  27 68.6500 39.0800   1
  -5   1  27 35.2800 29.8100   1
  -5  -1  27 79.8200 31.7300   1
   5   1  27 82.0800 31.7900   1
   5  -1  27 29.4000 43.6400   1
  -1  -5  27 -6.1300 39.7100   1
   1  -5  27 28.3900 39.2800   1
 -11  25  -3 2682.68 106.100   1
  11  25  -3 2628.89 100.660   1
  -3 -11  25 2700.02 101.780   1
  11   3  25 2670.32 99.9400   1
 -11  -3  25 2849.40 96.8700   1
   3  11  25 2611.71 89.8200   1
 -11   3  25 2701.65 95.3000   1
  -3  11  25 2889.74 101.390   1
   3  25  11 2946.14 102.530   1
  21   5  17 1957.10 80.4500   1
 -25  -3  11 2834.44 108.380   1
 -25   3  11 2796.17 112.140   1
 -11  25   3 2649.94 102.260   1
  11  25   3 2904.96 121.100   1
 -25  11   3 2888.07 123.690   1
 -11  25  -3 2652.43 114.860   1
 -25  11  -3 2599.35 120.430   1
  -5  27  -1 90.7900 37.6000   1
   5  27  -1 116.710 43.4400   1
   5  27   1 70.8800 43.8300   1
  -5  27   1 142.720 52.3800   1
  15  23   1 1805.90 78.3700   1
 -21  17  -5 1875.56 110.000   1
 -17  21  -5 1800.92 96.7900   1
  17  21   5 2049.33 112.260   1
 -21  17   5 2155.90 95.8600   1
 -17  21   5 2126.71 86.1100   1
  -5  21  17 1941.41 74.5700   1
 -21   5  17 1987.84 79.0000   1
   5  21  17 2084.53 79.7700   1
  -5  17  21 2031.13 79.1400   1
 -21  -5  17 1955.22 85.7100   1
 -17   5  21 1796.07 70.1800   1
   5  17  21 1804.03 69.7800   1
 -17  -5  21 1986.08 75.8300   1
  17   5  21 1976.84 82.4000   1
 -15  23   1 1714.02 75.4000   1
 -21  17   5 1793.01 75.9000   1
 -25   9   7 0.68000 36.0900   1
  25   7   9 20.8900 30.6800   1
  -7  -9  25 22.3400 28.6300   1
  -9  -7  25 -28.100 37.1400   1
   9   7  25 17.6300 42.6000   1
   7   9  25 28.6300 41.8900   1
  -7   9  25 -51.200 28.6800   1
  -9   7  25 -21.580 29.0100   1
   7  25   9 -19.610 26.3500   1
  -7  25   9 49.4800 45.5600   1
   9  25   7 50.0300 33.6300   1
 -25   7   9 -29.110 29.5500   1
  -9  25   7 5.70000 46.3500   1
 -25   9   7 4.09000 33.4400   1
  -9  25  -7 54.9200 69.2500   1
 -17  21   5 1705.57 74.7400   1
 -15  19  13 56.1900 38.5600   1
 -19  15  13 79.9200 31.5000   1
 -19  13  15 4.81000 37.1700   1
 -13  19  15 37.1000 31.2300   1
 -13  15  19 25.7200 37.8200   1
 -15  13  19 13.9700 41.4900   1
  13  19  15 15.9800 34.3800   1
  19  15  13 53.7500 28.0200   1
  13  15  19 39.1300 26.3500   1
  19  13  15 44.1700 30.0800   1
  15  13  19 14.4000 33.1800   1
 -15 -13  19 -2.8700 25.5800   1
 -15 -19  13 26.0500 34.7100   1
 -15  23  -1 1721.95 75.7200   1
  15  23  -1 1710.01 80.9100   1
  15  19  13 45.0400 28.7800   1
 -23  15   1 1876.90 79.0600   1
  15   1  23 2042.80 78.0400   1
 -23   1  15 2011.69 79.1500   1
 -15  23   1 2147.87 94.9100   1
 -15  -1  23 2041.77 81.9100   1
 -15   1  23 2031.63 81.2300   1
   1  15  23 1917.74 76.2100   1
  -1  15  23 2027.86 80.5800   1
  -1  23  15 2076.37 77.2300   1
 -13 -15  19 51.9400 33.9000   1
 -15  23  -1 1895.61 91.1300   1
 -23  -1  15 2105.33 86.1700   1
   1  23  15 1830.09 70.7500   1
  -3  25  11 2794.41 96.0900   1
 -22  16   4 22.8000 46.2700   1
 -16  22   4 68.7000 38.3000   1
 -22  16   4 174.020 51.8500   1
  16  22   4 95.4100 37.5300   1
 -16  22  -4 -46.410 74.5800   1
 -16  22   4 41.3800 51.3900   1
 -22  16  -4 125.650 56.2100   1
 -24   6  12 1364.81 61.4000   1
 -24  -6  12 1305.46 71.5100   1
  -6  24  12 1307.70 65.8100   1
   6  24  12 1321.99 61.2700   1
 -12   6  24 1317.78 64.7300   1
  -6  12  24 1319.56 59.0800   1
   6  12  24 1278.39 61.2300   1
 -12  -6  24 1203.29 55.9100   1
  12   6  24 1366.53 66.4900   1
  -6 -12  24 1221.28 62.7300   1
  24   6  12 1390.24 64.7200   1
 -24  12   6 1212.47 60.4400   1
  -8  26  -4 36.3200 65.4500   1
 -16  20  10 383.600 47.7100   1
 -20  16  10 384.980 39.9000   1
  16  20  10 329.790 34.2900   1
 -10  20  16 314.300 37.3100   1
 -20  10  16 331.020 45.5200   1
 -10  16  20 425.460 49.2400   1
 -16  10  20 333.800 36.1000   1
  20  16  10 372.770 35.3200   1
  10  20  16 352.240 41.8400   1
 -20 -10  16 331.790 35.5600   1
  10  16  20 298.220 39.0700   1
  16  10  20 319.510 33.9400   1
  20  10  16 322.240 32.2200   1
 -16 -20  10 366.920 38.6100   1
 -10 -16  20 377.100 48.7500   1
 -26   8   4 17.1300 35.8800   1
   8  26   4 6.68000 41.7100   1
 -26   4   8 -60.560 37.1200   1
  -8  26   4 -21.000 35.8700   1
  -4  26   8 -52.430 43.7200   1
   4  26   8 -14.060 27.6700   1
  -8   4  26 -11.110 41.9500   1
  -4   8  26 -25.600 29.9800   1
   4   8  26 -58.450 29.4400   1
  -8  -4  26 2.23000 29.0600   1
   8   4  26 60.9600 42.1700   1
  -4  -8  26 16.7300 42.7400   1
   8  -4  26 -19.040 33.1900   1
  -8  26  -4 -6.0800 48.7700   1
 -26   4   8 2.63000 32.7500   1
  -8  26   4 -11.900 37.2200   1
  -4  22  16 85.3300 31.3800   1
 -22   4  16 86.4400 39.4100   1
   4  22  16 17.9700 27.6000   1
 -22  -4  16 99.9900 32.0400   1
  -4  16  22 79.7400 30.9800   1
 -16   4  22 113.040 38.5400   1
   4  16  22 114.740 38.8400   1
 -16  -4  22 86.7500 39.5500   1
  16   4  22 25.5300 30.1000   1
 -16 -10  20 310.140 42.4700   1
 -12  24  -6 1328.08 95.6300   1
 -24  12   6 1236.71 70.8600   1
  12  24   6 1365.55 65.2600   1
 -12  24   6 1240.53 62.7600   1
 -18   6  20 4413.34 137.530   1
 -20  18   6 4608.75 149.930   1
 -18  20   6 4795.91 160.570   1
  20   6  18 4694.10 152.100   1
  18   6  20 4553.97 144.330   1
 -20  18  -6 4793.51 180.260   1
 -20  -6  18 4486.85 152.210   1
 -18  -6  20 4180.07 133.530   1
  -6  18  20 4699.64 150.520   1
   6  20  18 4765.90 147.810   1
 -18  20   6 4118.06 152.000   1
 -20  18   6 3919.95 131.170   1
  -6  20  18 4196.19 130.390   1
 -20   6  18 4546.47 143.760   1
   6  18  20 4378.68 137.010   1
  18  20   6 4536.67 169.530   1
 -18  20  -6 4875.17 185.390   1
   5   3  27 220.630 34.6300   1
  15  23   3 768.360 68.5500   1
   3  27  -5 298.090 57.1600   1
  -3  27  -5 166.240 52.9900   1
   5  27  -3 219.540 67.5300   1
  -3  15  23 821.680 53.2900   1
 -27  -3   5 216.470 52.1800   1
 -15   3  23 784.320 53.8900   1
   3  15  23 746.760 44.7500   1
 -15  -3  23 740.800 52.4200   1
  15   3  23 797.100 53.6900   1
 -15  23  -3 673.180 65.6400   1
 -23  15   3 687.150 55.5000   1
 -27   5   3 240.880 56.6500   1
  15  23   3 731.170 56.0200   1
   3  -5  27 217.090 36.1900   1
   5  27  -3 156.990 35.3200   1
 -15  23   3 611.830 49.2100   1
  -5  27  -3 209.200 64.2400   1
 -27   3   5 208.430 49.6200   1
   5  27   3 319.450 48.3900   1
  -5  27   3 203.600 39.5800   1
  -3  27   5 282.700 49.9400   1
   3  27   5 235.040 42.2300   1
  -5   3  27 126.750 44.6500   1
  -3   5  27 223.870 44.3900   1
   3   5  27 147.620 45.8400   1
  -5  -3  27 197.920 54.7100   1
  -5  27  -3 226.350 40.8700   1
  -3  -5  27 223.050 46.4200   1
   5  -3  27 162.970 40.9300   1
   3  23  15 761.660 45.3700   1
 -23  -3  15 706.800 46.5600   1
  -3  23  15 739.550 51.0300   1
  -5  27   3 218.910 54.2400   1
   5  27   3 159.530 37.5100   1
 -23   3  15 773.550 49.1600   1
 -15  23   3 719.640 55.2700   1
 -23  15   3 734.720 66.3000   1
 -15  23  -3 707.710 77.5600   1
 -23  15  -3 650.850 84.0700   1
  16  16  16 793.220 47.4200   1
 -16  16  16 835.540 56.1900   1
 -16 -16  16 792.390 50.5300   1
  -7  19  19 4891.62 149.650   1
   7  19  19 5111.64 151.490   1
 -19  -7  19 5171.88 162.960   1
  19   7  19 5050.22 162.660   1
 -19  17  11 719.150 46.6100   1
 -17  19  11 815.830 55.4400   1
 -11  19  17 776.270 55.6000   1
 -19  11  17 723.850 50.6600   1
  17  19  11 745.520 46.3700   1
 -17  11  19 760.630 45.8500   1
 -11  17  19 653.130 43.4600   1
  19  17  11 770.500 46.1600   1
  11  19  17 754.030 44.0200   1
  11  17  19 728.650 51.0100   1
 -19 -11  17 774.400 51.7900   1
 -17 -11  19 844.310 51.0500   1
  17  11  19 769.960 48.1600   1
  19  11  17 819.630 49.4700   1
 -17 -19  11 776.570 52.0700   1
 -11 -17  19 778.540 53.8000   1
  11  11  23 4137.10 131.010   1
  23  11  11 4070.67 137.630   1
 -11  11  23 4108.13 132.570   1
  11  23  11 4167.95 140.120   1
 -11 -11  23 4064.47 136.390   1
 -11  23  11 4178.52 138.150   1
 -23  11  11 4132.36 133.490   1
 -19  19  -7 5038.53 193.780   1
 -19  19   7 4632.89 149.360   1
  19  19   7 5156.29 179.110   1
 -19   7  19 4996.46 156.660   1
 -11  25   5 1144.32 68.6500   1
  11  25   5 1086.09 67.6700   1
 -25   5  11 1064.87 54.6700   1
 -11  25  -5 1129.29 90.0400   1
 -25  11   5 1038.34 71.8400   1
 -25  -5  11 1113.60 67.8800   1
 -25  11   5 1072.96 61.9200   1
  -5 -11  25 1218.16 65.7800   1
  11   5  25 992.070 55.3200   1
 -11  -5  25 1033.79 52.0400   1
   5  11  25 1098.12 60.5200   1
 -11   5  25 1129.18 54.1000   1
  -5  11  25 948.010 49.5100   1
   5  25  11 1099.47 58.7100   1
  -5  25  11 1052.11 53.5900   1
 -12  22  12 3463.15 117.300   1
 -12  12  22 3455.24 112.390   1
  12  22  12 3705.20 129.420   1
 -22  12  12 3479.83 117.950   1
 -12 -12  22 3415.51 123.250   1
  12  12  22 3575.56 119.740   1
  22  12  12 3532.86 127.110   1
 -24   0  14 4351.39 147.500   1
   0  24  14 4207.57 133.530   1
   0  14  24 4100.32 130.770   1
 -14   0  24 4113.55 132.030   1
  14   0  24 4214.14 139.630   1
  14  24   0 3620.47 129.090   1
 -14  24   0 3797.39 127.450   1
 -24  14   0 4000.55 147.550   1
 -14  24   0 4275.19 151.770   1
 -22  16   6 341.710 40.3100   1
 -16  22   6 529.890 47.5800   1
 -22  16  -6 430.580 80.2000   1
 -16  22  -6 510.610 66.5700   1
 -22  16   6 483.760 55.0100   1
  16  22   6 510.620 44.0500   1
  10  26   0 2360.70 97.0000   1
 -26   0  10 2613.37 112.680   1
  10   0  26 2669.47 97.2300   1
 -10   0  26 2580.12 93.8100   1
   0  10  26 2506.56 88.3300   1
   0  26  10 2415.29 89.1200   1
 -26   0  10 2708.61 109.650   1
 -10  26   0 2365.29 99.8600   1
  10  26   0 2518.34 115.990   1
 -26  10   0 2751.21 125.560   1
   6  22  16 424.800 36.7300   1
 -22   6  16 453.770 43.8700   1
 -16  18  14 499.590 40.7600   1
 -18  16  14 576.170 41.3600   1
 -18  14  16 506.140 39.8100   1
 -14  18  16 607.600 48.9000   1
 -14  16  18 517.640 50.4300   1
 -16  14  18 609.680 51.5100   1
  16  18  14 635.890 42.1400   1
  14  18  16 595.490 44.0500   1
  18  16  14 617.640 45.1500   1
  14  16  18 493.640 41.7600   1
  16  14  18 603.390 46.4800   1
  18  14  16 608.560 42.4700   1
 -18 -14  16 570.320 41.9500   1
 -18 -16  14 583.010 44.2100   1
 -16 -14  18 550.870 46.2800   1
 -16 -18  14 599.260 46.0100   1
 -14 -16  18 473.620 37.6600   1
 -14 -18  16 496.560 43.2600   1
  -6  22  16 295.730 48.6800   1
 -26   6   8 299.470 45.0300   1
 -26   8   6 301.550 36.6400   1
  26   8   6 408.410 36.7200   1
  -6  -8  26 358.510 47.8000   1
  -8  -6  26 397.740 37.7800   1
   8   6  26 369.530 47.6300   1
   6   8  26 388.560 47.6100   1
  -8   6  26 408.360 37.4500   1
  -6   8  26 351.910 48.1000   1
   6  26   8 395.290 42.8300   1
  -6  26   8 349.270 39.0900   1
  -8  26   6 378.730 41.1900   1
   8  26   6 533.140 49.2700   1
 -26   6   8 377.160 47.3900   1
 -26   8   6 440.800 44.9500   1
 -26  -6   8 419.340 54.8900   1
  -8  26  -6 395.730 60.8300   1
  14   2  24 3213.69 112.620   1
 -24  14   2 3051.87 113.200   1
 -14  24  -2 2723.89 99.3100   1
 -14  24   2 3076.53 112.650   1
  14  24   2 2877.62 106.320   1
  22   6  16 488.900 48.3600   1
  16   6  22 384.360 36.4000   1
 -16  -6  22 492.420 46.4300   1
   6  16  22 402.970 43.0400   1
 -24  10  10 2269.69 87.1700   1
 -10  24  10 2617.39 98.8900   1
  10  24  10 2475.12 88.8000   1
 -10  10  24 2319.02 83.3300   1
 -16   6  22 415.690 46.0000   1
  -6  16  22 374.310 45.2700   1
 -22  -6  16 511.850 40.7700   1
  10  10  24 2197.02 79.3500   1
  24  10  10 2458.45 96.8000   1
 -10 -10  24 2424.01 91.5900   1
 -10  26   0 2382.65 93.0700   1
 -24  14  -2 3263.91 141.690   1
  14  24   2 3234.99 159.830   1
 -14  24  -2 3188.81 126.420   1
 -24  14   2 3333.05 134.290   1
 -14  24   2 3455.14 128.050   1
 -24   2  14 3283.27 120.000   1
 -24  -2  14 3399.23 125.610   1
  -2  24  14 3150.20 105.100   1
   2  24  14 2755.78 94.1500   1
  -2  14  24 3268.16 109.510   1
   2  14  24 3103.84 106.190   1
 -14   2  24 2813.30 95.4400   1
 -14  -2  24 3202.66 109.290   1
  -1   7  27 32.8300 39.7500   1
 -21  17   7 2263.63 93.8600   1
 -17  21  -7 2109.61 124.080   1
  21  13  13 1354.13 61.3700   1
 -21 -13  13 1403.40 73.0300   1
 -13  13  21 1358.20 59.6700   1
  13  21  13 1493.66 67.3700   1
 -13  21  13 1462.28 71.1300   1
 -21  13  13 1400.18 62.4000   1
 -23  15   5 67.0400 36.9900   1
 -23  15  -5 86.0000 55.6500   1
 -15  23  -5 24.5300 77.8300   1
  15  23   5 110.650 33.7400   1
 -23  13   9 2101.88 82.4800   1
 -13  23   9 2249.51 89.4200   1
  23   5  15 106.500 29.9600   1
 -23  15   5 38.5600 41.2100   1
 -27  -1   7 31.3800 43.8700   1
  -7  27   1 10.2400 42.8900   1
 -27   1   7 9.06000 38.2200   1
   1  27   7 8.76000 38.6600   1
  -1  27   7 80.0400 33.0100   1
   7  27   1 51.8800 42.5000   1
   1   7  27 58.5100 44.0200   1
  -7   1  27 11.4600 30.0500   1
  -7  -1  27 24.0300 30.0500   1
   7   1  27 121.220 44.9200   1
  -1  -7  27 -1.8900 39.4100   1
   7  -1  27 110.840 33.6200   1
   1  -7  27 -29.210 41.6100   1
  -7  27  -1 23.0700 52.3300   1
   7  27  -1 114.580 47.3900   1
  -5  15  23 53.3600 31.8300   1
   5  23  15 34.3400 28.4400   1
 -23  -5  15 78.2700 30.3800   1
  -7  27  -1 30.9600 45.2800   1
 -15  23   5 35.9100 37.1800   1
   5   5  27 1297.67 62.6800   1
  -5   5  27 1166.76 54.9000   1
 -17   7  21 2327.82 88.0900   1
  -5  23  15 105.250 40.2100   1
 -23   5  15 79.3200 36.0400   1
 -15  23   5 90.9300 39.2800   1
  -7  27   1 72.7100 50.8100   1
  -7  17  21 2101.82 77.7800   1
 -21  -7  17 2043.52 81.7900   1
   7  17  21 2170.21 84.2200   1
 -17  -7  21 2008.94 76.2300   1
  17   7  21 2238.38 87.1500   1
  21   7  17 2144.37 85.4600   1
 -13 -13  21 1333.17 60.3200   1
 -23   9  13 2033.69 77.8300   1
  13  23   9 2040.31 82.3900   1
  -9  23  13 2176.45 84.8300   1
 -23  -9  13 2185.03 95.4100   1
   9  23  13 2228.92 87.4600   1
 -13   9  23 2054.99 80.7000   1
  -9  13  23 1866.95 72.3800   1
  23  13   9 2015.41 81.6300   1
   9  13  23 2003.01 74.7300   1
 -13  -9  23 1989.15 78.9900   1
  13   9  23 2065.75 82.3900   1
  23   9  13 2042.54 83.6700   1
  -9 -13  23 2000.85 77.3300   1
  13  13  21 1471.19 65.5300   1
  17  21   7 2298.72 99.1800   1
   7  21  17 2274.39 84.3000   1
   7  27   1 32.0700 47.5200   1
   7  27  -1 112.630 60.5000   1
 -27   7  -1 62.8100 59.7200   1
   5  -5  27 1196.82 57.0200   1
  -5  -5  27 1333.05 65.8600   1
 -15   5  23 19.6800 38.2800   1
   5  15  23 37.6300 41.0900   1
 -15  -5  23 84.7100 36.7100   1
  15   5  23 66.1300 30.7300   1
 -21   7  17 1856.47 73.9300   1
  -7  21  17 2313.85 89.3600   1
 -17  21   7 2132.91 91.0300   1
  -5  27   5 1346.39 65.1600   1
   5  27   5 1451.96 75.3700   1
 -27   5   5 1341.74 80.9100   1
  -5  27  -5 1317.34 98.4000   1
  22  10  14 1264.56 59.0600   1
  14  10  22 1217.20 60.3400   1
 -14 -10  22 1082.75 53.5900   1
  10  14  22 1107.41 52.3000   1
  22  14  10 1240.44 59.3200   1
 -14  10  22 1212.15 56.4500   1
 -10  14  22 1189.87 60.8800   1
 -22 -10  14 1231.13 61.1500   1
  10  22  14 1192.58 54.3100   1
  14  22  10 1201.68 58.4400   1
 -10  22  14 1251.72 63.6900   1
 -26   2  10 1628.06 75.1000   1
  10  26   2 1802.00 75.9300   1
 -10  26   2 1553.76 71.6000   1
 -10   2  26 1651.72 72.4300   1
 -14  22  10 1226.18 67.0300   1
 -10 -14  22 1234.29 62.5300   1
 -22  14  10 1161.65 67.4600   1
   2  26  10 1821.16 74.8300   1
  10  26  -2 1831.38 126.310   1
 -26  10  -2 1722.45 93.5200   1
 -26  10   2 1759.50 97.8200   1
 -10  26  -2 1953.46 97.6500   1
  10  26   2 1809.45 94.6500   1
 -10  26   2 1871.33 90.3600   1
 -26  -2  10 1952.74 95.7000   1
 -26   2  10 1851.12 84.5600   1
 -22  10  14 1232.35 62.0000   1
  -2  26  10 1631.06 67.4600   1
  -2  10  26 1824.55 74.1900   1
   2  10  26 1796.95 69.9400   1
 -10  -2  26 1774.55 70.1200   1
  10   2  26 1747.80 69.6500   1
  -2 -10  26 1856.73 80.1900   1
  10  -2  26 1926.90 79.0400   1
  10  26  -2 1822.17 85.3700   1
   0   0  28 1590.17 71.8800   1
   0  28   0 2032.83 107.520   1
   0  28   0 1695.01 81.6000   1
   8  12  24 1669.47 66.6300   1
 -12  -8  24 1627.68 67.0400   1
  12   8  24 1712.64 68.2400   1
  24   8  12 1828.45 74.9700   1
  -8 -12  24 1785.55 77.6100   1
 -24  12   8 1666.03 72.5000   1
  -8  12  24 1815.85 77.8400   1
 -12   8  24 1781.65 72.9700   1
   8  24  12 1738.04 68.6700   1
 -12  24  -8 1527.04 104.430   1
 -24  12   8 1819.59 76.5300   1
 -12  24   8 1729.43 81.5000   1
  12  24   8 1667.70 68.3000   1
 -24  -8  12 1881.40 87.3200   1
 -24   8  12 1752.21 71.4200   1
  -8  24  12 1656.97 68.8600   1
  21  15  11 281.260 34.6900   1
  11  15  21 242.500 32.2300   1
  15  11  21 259.420 39.4000   1
 -11  15  21 315.550 42.8800   1
  11  21  15 279.110 40.8400   1
 -11 -15  21 267.220 45.6600   1
  15  21  11 310.540 35.0000   1
 -21  11  15 242.430 34.0600   1
 -15 -11  21 219.440 37.3800   1
 -11  21  15 221.430 33.9700   1
  21  11  15 311.730 36.9900   1
 -15  21  11 379.980 47.2500   1
 -21 -11  15 323.400 33.9800   1
 -15  11  21 283.030 34.6800   1
 -21  15  11 266.630 36.9700   1
  -9  -9  25 340.990 43.6300   1
  25   9   9 439.020 38.7700   1
  -9   9  25 418.650 48.3700   1
   9  25   9 347.170 42.2100   1
  -9  25   9 375.160 40.2400   1
 -25   9   9 305.580 48.6800   1
   9   9  25 346.630 35.9100   1
  -3  27  -7 164.770 56.2700   1
   7  27   3 123.580 44.6100   1
  -7  27   3 173.790 52.9700   1
   7  27  -3 204.910 49.4400   1
  -7  27  -3 143.520 48.0200   1
   3  -7  27 147.190 34.3400   1
   7  -3  27 178.990 47.5700   1
  -3  -7  27 149.470 45.8800   1
   7   3  27 148.890 33.5500   1
   7  27  -3 72.6100 40.5300   1
  -7  -3  27 170.990 39.1000   1
 -25   9   9 390.570 45.7600   1
  -7   3  27 64.9900 44.4300   1
  -3   7  27 175.460 32.4800   1
   3  27   7 231.260 33.9700   1
  -3  27   7 232.910 47.7300   1
   3   7  27 143.230 43.7300   1
   7  27   3 213.170 45.1500   1
 -27  -3   7 188.460 49.4600   1
 -27   7   3 115.000 54.1400   1
  -7  27  -3 39.1900 71.3900   1
 -27   3   7 146.860 34.5800   1
   0  28  -2 585.810 47.2500   1
   2  28   0 649.080 58.1600   1
  -2  28   0 541.210 54.2300   1
  20   8  18 3155.50 109.330   1
  18   8  20 3060.74 107.800   1
 -18  -8  20 2972.54 102.410   1
   8  18  20 3200.68 105.190   1
 -20  -8  18 3277.43 128.270   1
   8  20  18 3011.38 102.030   1
   0  28   2 656.960 48.6800   1
  -8  18  20 3286.42 111.660   1
 -18   8  20 3103.41 105.720   1
  -8  20  18 3158.28 108.130   1
  20  18   8 3117.26 123.190   1
  18  20   8 3186.06 123.850   1
 -20  18   8 3143.92 114.620   1
 -18  20   8 3202.74 113.420   1
 -24  14  -4 1457.90 89.3600   1
 -14  24  -4 1190.60 95.7200   1
  14  24   4 1350.57 82.8400   1
 -24  14   4 1206.13 67.5200   1
 -14  24   4 1328.90 69.3300   1
 -24   4  14 1329.05 63.9000   1
  -4  24  14 1235.71 57.0000   1
 -24  -4  14 1203.28 63.6000   1
   4  24  14 1262.24 57.0100   1
  -4  14  24 1214.75 62.9700   1
 -14   4  24 1263.77 57.7500   1
   4  14  24 1373.67 63.8100   1
 -14  -4  24 1319.39 64.8400   1
  14   4  24 1226.32 57.1400   1
 -24  14   4 1131.06 67.8800   1
 -14  24   4 1093.48 60.7900   1
 -20   8  18 3294.87 114.080   1
   0  28  -2 701.840 77.6300   1
   2  28   0 693.430 64.0200   1
  -2  28   0 730.260 58.2000   1
   0  28   2 803.510 66.5300   1
   0   2  28 794.480 46.4800   1
  -2   0  28 702.710 45.0700   1
   2   0  28 645.180 50.6900   1
   0  -2  28 689.400 45.0700   1
  14  20  14 11.3300 29.9000   1
  -2  28   2 312.060 53.4800   1
  -2  28  -2 274.620 65.5600   1
 -26  10   4 445.710 48.2700   1
 -28   2   2 207.450 58.0900   1
   2  28  -2 279.340 70.5300   1
 -10  26  -4 429.020 79.9500   1
 -26  10   4 481.080 63.0000   1
  10  26   4 453.810 52.3800   1
 -10  26   4 422.160 55.1100   1
 -26  -4  10 405.890 43.7100   1
 -10  26   4 351.890 57.9400   1
 -26   4  10 409.190 45.7800   1
  -2  28  -2 122.410 37.9800   1
   2  28  -2 229.300 38.1900   1
   2  28   2 121.980 37.2300   1
  -2  28   2 161.550 53.2500   1
 -10  26  -4 398.390 61.1300   1
 -26   4  10 425.370 45.0000   1
  -4  26  10 412.000 45.9200   1
   4  26  10 438.230 46.9100   1
 -18  18  12 685.960 45.5900   1
  -4 -10  26 330.240 49.8700   1
  10   4  26 446.420 39.0700   1
  18  18  12 747.290 43.8800   1
 -10  -4  26 377.620 36.3400   1
   4  10  26 459.500 46.3800   1
 -18 -18  12 745.830 53.4000   1
 -10   4  26 360.260 47.5000   1
  -4  10  26 316.530 47.3200   1
   2   2  28 151.890 42.3500   1
 -14  20  14 -6.8400 31.1800   1
 -14  14  20 -40.470 41.9700   1
   2  -2  28 156.960 34.2000   1
  20  14  14 47.3900 29.6900   1
  14  14  20 48.6800 33.8800   1
 -14 -14  20 82.7800 38.9400   1
  -2  -2  28 188.480 42.2500   1
  -2   2  28 150.070 40.1500   1
   2  28   2 191.400 39.8600   1
 -12  18  18 736.070 45.8400   1
 -12 -18  18 869.200 54.3800   1
 -18  12  18 723.860 45.0600   1
  12  18  18 632.860 40.7700   1
 -18 -12  18 806.120 49.2800   1
  18  12  18 783.680 48.5300   1
  -1  13  25 4400.46 135.170   1
 -11   7  25 754.710 45.4500   1
   7  11  25 700.200 49.8500   1
   1  25  13 4499.13 138.220   1
  -1  25  13 4678.17 146.300   1
 -11  -7  25 742.390 50.9800   1
 -25   1  13 4554.80 145.660   1
   1  13  25 4507.16 136.090   1
 -13  25   1 4966.28 167.680   1
 -13  25  -1 4697.48 169.200   1
 -25  13   1 4866.80 165.540   1
  13  25   1 4505.68 181.200   1
 -25   7  11 562.490 51.4900   1
  -7  25  11 601.330 42.9800   1
   7  25  11 691.470 56.6600   1
 -25  -1  13 4837.81 163.500   1
  -7  11  25 675.910 49.3600   1
 -25  13  -1 4678.43 183.400   1
 -13  25  -1 4569.77 147.810   1
  13  -1  25 4468.50 145.920   1
  13   1  25 4396.27 135.060   1
 -11  25   7 668.670 60.8500   1
 -13  -1  25 4568.28 141.390   1
 -13   1  25 4498.02 135.420   1
  -7 -11  25 770.730 46.9300   1
  11   7  25 680.370 43.3900   1
  13  25   1 4159.49 143.370   1
 -13  25   1 4505.42 149.860   1
  13  25  -1 4275.27 144.500   1
 -25  -7  11 676.520 48.5300   1
 -25  11   7 614.190 54.6800   1
 -11  25  -7 727.820 84.1200   1
 -25  11   7 617.830 58.2100   1
  25   7  11 716.530 46.4000   1
  11  25   7 720.720 51.4700   1
 -20  20   0 75.9700 47.7300   1
   0  20  20 281.010 40.3000   1
 -20   0  20 97.9800 38.7500   1
 -20  20   0 124.530 36.0200   1
 -20  16  12 24.9100 32.0800   1
 -16  20  12 51.1800 33.0000   1
 -12  20  16 36.2900 31.2000   1
  16  20  12 52.4000 31.5100   1
 -12  16  20 30.2400 32.1400   1
 -28   4   0 -28.980 63.0700   1
   0  28  -4 174.620 72.9500   1
   4  28   0 -21.650 57.1600   1
  -4  28   0 60.4100 53.5100   1
   0  28   4 -21.810 34.5300   1
  20  16  12 49.9100 27.5500   1
   4  28   0 -0.2700 33.5900   1
 -16  12  20 46.0600 36.4800   1
  -4  28   0 22.9000 36.3600   1
  12  20  16 14.5600 26.0100   1
 -12 -16  20 78.9300 35.6000   1
 -20 -12  16 70.0400 32.4000   1
 -20  12  16 33.7200 38.3200   1
  20  12  16 70.7500 35.6900   1
  16  12  20 60.3200 34.7800   1
 -16 -12  20 71.3800 34.2100   1
   0   4  28 54.2700 43.0200   1
   4   0  28 97.0200 40.0500   1
   0  -4  28 -9.9500 30.9900   1
   0  28  -4 -20.760 51.9800   1
  12  16  20 34.3700 34.8900   1
  13   3  25 2665.44 95.7700   1
 -13  25  -3 2670.49 105.180   1
 -13  25   3 2499.05 97.1800   1
  13  25   3 2490.95 96.2300   1
 -19  19   9 2434.38 88.7900   1
  19  19   9 2500.61 94.6300   1
 -19   9  19 2352.76 82.6400   1
  -9  19  19 2742.86 91.9800   1
   9  19  19 2730.74 93.4800   1
 -19  -9  19 2645.39 103.220   1
  19   9  19 2843.06 101.870   1
 -13  -3  25 2768.16 93.2700   1
   3  13  25 2682.59 92.6300   1
  -3  13  25 2804.24 92.7500   1
   3  25  13 2803.50 95.3400   1
  -3  25  13 2906.03 101.010   1
 -25   3  13 2817.72 102.650   1
 -25  -3  13 2574.36 104.930   1
 -13  25   3 2815.77 110.020   1
 -25  13   3 2866.46 118.040   1
  13  25   3 2785.89 118.990   1
 -13  25  -3 2647.77 126.510   1
 -25  13  -3 2644.24 116.960   1
 -13   3  25 2681.44 93.9000   1
 -21  19  -1 210.130 68.9000   1
 -19  21  -1 60.0100 61.7800   1
 -21  19   1 122.690 63.7700   1
 -19  21   1 84.7300 63.2100   1
  -1  21  19 132.060 42.1700   1
   1  21  19 198.920 31.9900   1
 -21   1  19 119.810 39.6300   1
 -21  -1  19 134.090 28.1000   1
  -1  19  21 170.120 39.4400   1
 -19   1  21 157.760 40.6800   1
   1  19  21 103.420 30.1500   1
 -19  -1  21 120.170 29.4200   1
 -19  21  -1 38.1500 48.1900   1
  19  21   1 122.070 34.7200   1
 -21  19   1 116.680 35.8100   1
 -19  21   1 108.780 37.6300   1
  15  23   7 17.0100 29.5400   1
  -7  23  15 -10.810 40.0500   1
 -23   7  15 19.0900 28.0700   1
   7  23  15 28.5500 34.9300   1
  -7  15  23 59.4600 30.0600   1
 -15   7  23 12.0600 42.5100   1
   7  15  23 7.61000 28.9800   1
 -15  -7  23 47.9600 36.9100   1
  15   7  23 -9.1400 42.3300   1
  23   7  15 34.2500 34.3900   1
 -17  15  17 1402.24 67.8600   1
 -15  17  17 1399.45 65.4100   1
  17  17  15 1494.10 69.3400   1
  15  17  17 1358.39 58.0000   1
  17  15  17 1413.10 62.7400   1
 -17 -15  17 1455.63 65.8500   1
 -17 -17  15 1472.77 70.4700   1
 -27   5   7 1116.11 62.0300   1
 -15 -17  17 1440.91 66.7800   1
 -23  15   7 18.5500 41.1500   1
 -27   5   7 1280.87 69.9700   1
 -27   7   5 1283.42 79.6200   1
  -7  27  -5 1094.04 77.4200   1
  -5  27  -7 1278.32 84.1300   1
 -17  17  15 1193.12 64.4700   1
 -15  23  -7 10.0000 54.6900   1
 -23  15   7 -51.550 35.3700   1
 -15  23   7 -43.050 49.1500   1
  -7  27   5 1239.04 72.7500   1
   7  27   5 1178.82 66.3000   1
   5  27   7 1130.80 56.1400   1
  -5  27   7 1077.30 55.8600   1
  -7   5  27 1137.03 53.5800   1
  -5   7  27 1113.55 59.9700   1
   5   7  27 1080.79 58.0000   1
  -7  -5  27 1143.04 62.4200   1
   7   5  27 1165.17 54.3300   1
  -5  -7  27 1156.57 63.3600   1
   7  -5  27 916.140 58.8500   1
  -4  -2  28 116.110 44.1100   1
  -8  16  22 -4.2400 43.2500   1
 -22  -8  16 104.300 30.6500   1
   8  22  16 148.800 29.9400   1
  -8  22  16 196.260 42.4000   1
 -22   8  16 158.660 31.7600   1
  20  20   2 485.250 43.1900   1
 -20  20   2 574.120 46.9300   1
 -20  -2  20 566.590 39.9900   1
  -2   4  28 211.680 34.0400   1
   4   2  28 119.830 41.6200   1
  -2  -4  28 197.480 46.3900   1
  16  22   8 143.480 32.7500   1
 -20   2  20 559.550 39.3600   1
   2  20  20 518.760 45.8500   1
  -2  20  20 664.800 48.3900   1
 -20  20   2 564.720 55.7300   1
 -20  20  -2 482.560 61.1400   1
   2  -4  28 180.130 34.1200   1
 -28   2   4 174.210 61.1400   1
 -28   4   2 173.480 55.7000   1
   4  -2  28 164.550 33.5400   1
   2  28  -4 111.410 36.3800   1
   2  28  -4 246.390 53.5800   1
   2   4  28 173.450 41.8900   1
  -2  28  -4 -65.200 70.8500   1
   4  28  -2 150.040 48.9200   1
  -4  28  -2 196.040 48.0300   1
   4  28   2 231.300 41.6400   1
  -4  28   2 155.270 51.2500   1
  -2  28   4 151.120 38.3300   1
   2  28   4 195.370 46.8200   1
 -26   8   8 94.6800 47.2300   1
  -8  26   8 92.8200 33.6500   1
   8  26   8 109.810 35.7200   1
  -8   8  26 24.2900 38.0400   1
   8   8  26 48.6700 30.2800   1
  -8  -8  26 39.4600 31.0400   1
 -26   8   8 29.4600 35.9400   1
  -4   2  28 145.460 32.7700   1
 -28  -2   4 169.540 58.5800   1
  16   8  22 165.280 32.0100   1
  22   8  16 109.750 38.4400   1
  -4  28   2 141.560 38.7700   1
  -2  28  -4 154.550 53.5300   1
  -4  28  -2 240.590 49.4000   1
 -16  22  -8 147.030 59.1100   1
 -22  16   8 174.620 50.4200   1
 -16  22   8 37.2500 48.8800   1
   4  28  -2 167.040 49.7300   1
   4  28   2 177.550 37.5700   1
 -16  -8  22 145.270 41.3200   1
   8  16  22 150.620 31.0500   1
 -16   8  22 121.430 43.6500   1
 -22  18   0 -13.170 44.8500   1
 -18  22   0 30.9400 51.7200   1
 -14  -6  24 635.740 51.2700   1
   6  14  24 571.110 39.7700   1
  14   6  24 546.820 50.5400   1
 -24  14   6 527.860 43.7700   1
 -18  22   0 133.960 60.3500   1
  14  24   6 562.920 45.8300   1
 -22  18   0 -66.070 44.0700   1
 -22   0  18 32.8200 33.3800   1
   0  22  18 29.8600 37.1400   1
 -14  24  -6 610.020 83.1300   1
   0  18  22 14.2500 36.3700   1
 -14  24   6 585.290 59.5200   1
 -24   6  14 535.890 39.2900   1
 -24  14   6 657.460 51.1800   1
  24   6  14 682.800 47.4600   1
 -18   0  22 -5.4700 27.5500   1
  18  22   0 21.0500 31.0700   1
  -6  24  14 625.440 52.8400   1
 -24  -6  14 554.150 41.3500   1
   6  24  14 619.690 49.3400   1
  -6  14  24 595.260 49.2600   1
 -14   6  24 583.790 41.1600   1
  -6 -14  24 719.640 46.5100   1
 -21   9  17 766.930 45.9600   1
  -9  21  17 629.680 53.7000   1
  17  21   9 742.080 46.1100   1
 -17  21   9 788.090 50.5800   1
 -21  17   9 684.190 48.4600   1
 -21  19  -3 1126.77 78.2500   1
 -19  21  -3 791.160 70.2700   1
 -19  21   3 997.320 71.3300   1
 -21  19   3 901.580 71.4100   1
  -3  21  19 951.850 49.7500   1
 -21   3  19 979.990 54.2000   1
   3  21  19 960.970 57.1300   1
  -3  19  21 886.530 56.0800   1
 -21  -3  19 930.690 52.1100   1
 -19   3  21 957.590 49.6200   1
   3  19  21 892.020 52.4000   1
 -19  -3  21 937.030 53.5600   1
  19   3  21 1016.63 56.9100   1
 -21  19   3 886.970 53.9600   1
  21  19   3 730.010 58.7600   1
 -19  21   3 873.190 53.8800   1
  19  21   3 944.370 59.8600   1
   9  17  21 765.600 49.8800   1
 -21  -9  17 721.530 47.9000   1
   9  27   1 458.170 42.4800   1
  -9  27   1 591.800 56.5600   1
   9  27  -1 489.340 54.3900   1
  -9  27  -1 614.380 57.9500   1
 -27   1   9 562.550 48.5200   1
   1  -9  27 590.900 56.8800   1
  -1  -9  27 477.600 41.0300   1
   9  -1  27 495.740 48.2700   1
   9   1  27 540.830 41.7600   1
  -9  -1  27 562.350 41.0200   1
  -9   1  27 561.390 46.7200   1
   1   9  27 619.130 48.9100   1
  -1   9  27 585.730 51.8600   1
  -1  27   9 569.700 41.9400   1
   1  27   9 568.430 51.8800   1
 -27   1   9 548.240 51.5500   1
 -27  -1   9 578.010 44.8500   1
  -9  27   1 556.220 54.4200   1
  -9  27  -1 650.510 74.9800   1
   9  27   1 615.010 60.4200   1
 -27   9   1 668.430 77.7200   1
 -27   9  -1 698.150 81.8500   1
   9  27  -1 700.110 74.1400   1
 -17  -9  21 628.210 41.6400   1
  17   9  21 749.010 44.5800   1
  21   9  17 798.390 52.3900   1
 -15  19  15 433.900 50.7000   1
 -19  15  15 258.680 35.6900   1
 -15  15  19 336.890 48.3400   1
  15  19  15 343.830 36.9900   1
  19  15  15 325.380 31.9900   1
  15  15  19 359.100 39.7100   1
 -19 -15  15 398.680 37.9100   1
 -15 -15  19 411.560 44.7400   1
 -15 -19  15 360.260 39.6400   1
   9  21  17 711.560 42.0400   1
 -17   9  21 676.650 49.3800   1
  -9  17  21 647.870 43.1600   1
   2  18  22 -12.100 41.4600   1
 -26   6  10 93.8000 42.3000   1
 -26   6  10 61.7100 35.4000   1
 -26  10   6 68.0400 43.5700   1
 -22   2  18 53.4900 34.5200   1
   2  22  18 12.6800 41.4100   1
  -6 -10  26 -71.690 39.5800   1
  -6  26  10 43.8200 39.6300   1
 -10   6  26 39.6100 30.2100   1
  10  26   6 -7.9800 27.3000   1
   6  26  10 56.0500 39.4000   1
  10   6  26 66.0700 31.4600   1
 -10  -6  26 51.7000 38.5300   1
   6  10  26 65.1100 43.2200   1
 -22  -2  18 81.4500 33.0600   1
  -2  18  22 54.3500 29.5400   1
 -10  26   6 -5.8100 35.9400   1
 -26  10   6 42.1700 36.0300   1
 -10  26  -6 -22.060 68.5400   1
 -18   2  22 52.6300 28.8600   1
 -18  -2  22 102.500 40.4400   1
  -6  10  26 82.2200 31.2100   1
  18   2  22 106.520 41.4300   1
 -18  22  -2 61.5100 52.6900   1
 -22  18   2 6.62000 33.9200   1
 -18  22   2 21.1300 51.5700   1
  18  22   2 46.2700 32.1500   1
  -2  22  18 30.1500 29.9300   1
 -22  18   2 107.020 44.0800   1
 -18  22   2 141.490 64.3300   1
 -18  22  -2 -54.520 72.2700   1
 -22  18  -2 65.3000 72.9100   1
  -4  20  20 2069.19 75.6700   1
   4  20  20 2232.29 79.1000   1
 -20  -4  20 2219.38 91.5600   1
  20   4  20 2096.74 77.6700   1
  20  20   4 1966.94 88.5100   1
 -20   4  20 2248.28 84.4400   1
  -4  28  -4 1133.01 72.2700   1
   4  28  -4 1209.62 87.6800   1
  -4  28  -4 1123.06 76.3500   1
 -28   4   4 1328.03 74.2800   1
  -4  28   4 1127.61 61.7500   1
   4  28   4 1191.89 61.6000   1
  -4   4  28 1122.96 59.4000   1
   4  -4  28 1179.84 62.1500   1
  -4  -4  28 1188.24 60.8600   1
   4   4  28 1176.69 63.9600   1
 -20  20  -4 1980.08 109.880   1
 -20  20   4 2321.12 93.5000   1
  -4  28   4 968.310 58.1700   1
   4  28  -4 1039.76 67.4900   1
 -17  23   1 301.900 49.5600   1
 -23   1  17 285.150 42.0200   1
 -13 -19  17 542.450 46.4200   1
 -13 -17  19 520.270 40.2000   1
  13  17  19 522.790 42.9000   1
  13  19  17 552.240 46.0500   1
 -17  13  19 591.170 51.8500   1
 -13  17  19 659.450 53.8700   1
 -19  13  17 510.010 40.5100   1
 -13  19  17 569.140 48.6400   1
 -17  23   1 358.870 43.3400   1
  17  23   1 288.180 38.9300   1
 -23  17   1 278.750 52.4600   1
   1  23  17 381.810 35.8000   1
 -23  -1  17 301.950 40.0000   1
  -1  23  17 292.830 46.0300   1
  17  13  19 537.270 46.6300   1
  19  13  17 498.740 41.3000   1
 -19 -13  17 570.520 45.1500   1
 -17  23  -1 226.780 39.4400   1
 -17 -13  19 575.870 40.1900   1
 -23  17  -1 354.940 56.7000   1
 -23  17   1 197.220 49.2600   1
 -17  23  -1 347.330 53.8800   1
  17   1  23 272.710 37.1200   1
 -17  -1  23 301.740 33.9900   1
 -17   1  23 351.980 41.4100   1
   1  17  23 235.150 33.5900   1
  -1  17  23 259.310 45.9500   1
   3  27   9 21.0700 41.1100   1
 -27   3   9 26.5400 42.5100   1
  -9  27   3 88.3400 40.7900   1
   9  27   3 61.2100 42.8300   1
 -27   9   3 88.5700 51.9600   1
  -9  27  -3 107.020 70.1500   1
   9  -3  27 41.5900 32.8600   1
  -3  -9  27 14.0400 45.5300   1
   9   3  27 -18.510 44.2800   1
  -9  -3  27 114.150 31.3800   1
   3   9  27 -7.1500 43.0500   1
  -9   3  27 53.3700 42.6600   1
  -3   9  27 11.0700 41.7800   1
 -11 -13  23 4334.93 140.310   1
 -13 -11  23 4081.21 129.430   1
  23  11  13 3957.52 129.610   1
  13  11  23 4157.08 130.610   1
  11  13  23 4203.82 133.820   1
  23  13  11 4303.76 142.180   1
 -13  11  23 4128.40 130.810   1
 -11  13  23 4246.95 129.800   1
  11  23  13 4337.10 140.610   1
  13  23  11 4029.98 126.280   1
 -11  23  13 4355.14 138.070   1
 -23  11  13 4406.18 142.670   1
 -13  23  11 4387.36 134.850   1
  -9  27  -3 -48.010 46.6300   1
  -9  27   3 -36.800 52.9100   1
   9  27   3 35.4300 32.7500   1
 -13  25   5 1163.09 62.1400   1
 -25  13   5 913.600 53.6600   1
  -5 -13  25 1045.29 54.8400   1
  13   5  25 1068.06 60.5400   1
 -13  -5  25 1092.58 53.4800   1
   5  13  25 1078.08 59.7300   1
 -13   5  25 1076.38 57.7700   1
  -5  13  25 1141.34 58.0000   1
   5  25  13 1118.05 59.1400   1
  -5  25  13 1012.78 51.3900   1
 -25  -5  13 1155.43 66.4000   1
 -25   5  13 1153.70 62.8900   1
 -13  25   5 1096.89 72.0400   1
 -25  13   5 946.040 59.5100   1
  13  25   5 1115.65 69.4600   1
 -13  25  -5 1125.68 95.7700   1
 -17 -19  13 545.660 43.5100   1
 -23  13  11 4255.34 137.130   1
  19  17  13 511.490 41.2900   1
  17  19  13 536.670 39.9600   1
 -19  17  13 536.550 42.3300   1
 -17  19  13 491.420 51.0700   1
   9  27  -3 32.8100 32.3500   1
  -6  28   0 75.3000 48.2400   1
   0  -6  28 72.6900 33.4700   1
 -26   0  12 4001.77 138.260   1
   0  26  12 3877.24 126.250   1
   0  12  26 3915.82 119.320   1
 -12   0  26 3866.96 121.610   1
  12   0  26 4005.31 124.580   1
 -12  26   0 3765.07 130.900   1
  12  26   0 3736.54 136.260   1
  12  26   0 3937.87 188.020   1
 -26  12   0 4259.37 166.180   1
 -12  26   0 4081.85 153.020   1
   0  28  -6 34.1400 72.8600   1
 -28   6   0 115.990 49.0900   1
   6  28   0 89.5300 54.6500   1
 -28   0   6 109.410 45.2000   1
  -6  28   0 23.9200 53.1900   1
   0  28   6 67.9100 47.3900   1
   0   6  28 65.0100 30.3000   1
  -6   0  28 116.620 44.3900   1
   6   0  28 76.6900 43.3800   1
   6  28   0 143.340 44.4500   1
 -10  12  24 4214.61 127.930   1
 -10 -12  24 4340.76 144.000   1
 -12 -10  24 3820.06 119.880   1
  24  10  12 4141.69 137.490   1
  12  10  24 3986.46 121.660   1
  10  12  24 3981.45 121.330   1
  24  12  10 4026.74 133.770   1
  10  24  12 4301.08 139.150   1
  12  24  10 4059.61 130.660   1
 -12  10  24 4006.75 123.060   1
 -24  10  12 4097.43 134.970   1
 -12  24  10 4270.44 132.900   1
 -24  12  10 4020.03 128.030   1
 -10  24  12 4102.29 131.700   1
   6  28   2 300.220 52.5100   1
 -22  18   4 919.550 60.9500   1
  -6  28   2 345.000 43.2000   1
   6  28  -2 397.430 49.0900   1
 -22  14  12 2235.81 83.2800   1
 -14  22  12 2080.26 82.9600   1
  22   4  18 962.470 60.2300   1
  18   4  22 875.560 56.3100   1
 -18  22   4 705.640 62.3500   1
 -26  12  -2 2963.89 125.070   1
  -6  28  -2 473.820 46.9300   1
   2  -6  28 367.360 47.1500   1
   6  -2  28 419.160 39.3300   1
  -2  -6  28 436.140 48.9900   1
   6   2  28 359.040 37.9800   1
 -12  26  -2 2545.63 117.450   1
 -26  12   2 2570.57 105.420   1
 -12  26   2 2752.24 115.810   1
 -26   2  12 2814.99 106.380   1
 -26  -2  12 2692.09 114.380   1
  -2  26  12 2684.31 99.7800   1
   2  26  12 2686.49 91.6600   1
  -2  12  26 2555.50 86.7400   1
   2  12  26 2670.86 89.7800   1
  12  26   2 2869.56 147.640   1
 -22  12  14 2115.61 78.6600   1
  14  22  12 2110.44 76.7800   1
  12  22  14 2127.21 76.9200   1
 -12  14  22 2166.54 82.4900   1
 -14  12  22 2143.29 77.1500   1
  20  10  18 1100.58 56.4300   1
 -18 -10  20 905.470 48.2800   1
   4  22  18 800.320 50.5500   1
  -4  22  18 847.020 55.4100   1
 -22   4  18 913.190 53.3800   1
 -22  18   4 873.230 58.6000   1
 -18  22   4 802.290 69.7600   1
 -18  22  -4 825.000 88.1800   1
  18  10  20 1064.84 51.8200   1
 -12  22  14 2017.92 83.5000   1
 -22  18  -4 736.990 88.5000   1
 -18  -4  22 904.180 55.8800   1
  -2  28  -6 541.910 77.7100   1
   6  28  -2 354.530 63.7400   1
 -28  -2   6 394.750 56.0100   1
 -28   6   2 472.490 66.1300   1
  -6  28  -2 345.740 52.9700   1
 -28   2   6 441.770 54.7300   1
   6  28   2 464.570 60.4500   1
  -6  28   2 362.390 58.6900   1
  -2  28   6 395.930 53.4500   1
   2  28   6 436.790 52.9200   1
  -2   6  28 427.590 46.2000   1
  -6   2  28 395.100 45.5100   1
   2   6  28 474.950 40.0000   1
  -6  -2  28 457.260 46.6400   1
  22  14  12 2090.56 81.3400   1
  12  14  22 2176.43 80.6900   1
  14  12  22 2126.20 82.0900   1
  22  12  14 2270.22 96.2600   1
 -14 -12  22 2230.55 85.8600   1
 -18  20  10 1027.83 61.5000   1
 -20  18  10 1001.50 54.7700   1
  18  20  10 1077.22 57.8200   1
 -10  20  18 1160.40 60.3700   1
 -12   2  26 2492.07 85.5500   1
 -12  -2  26 2729.83 96.3500   1
  12   2  26 2542.65 89.8400   1
  12  -2  26 2672.29 99.6500   1
 -20  10  18 919.320 49.3800   1
  20  18  10 1015.33 52.1900   1
 -18  10  20 1105.98 57.4300   1
   4  18  22 873.470 48.1400   1
 -18   4  22 876.940 54.4500   1
  -4  18  22 833.210 47.2900   1
 -22  -4  18 863.830 50.2600   1
 -12 -14  22 2280.78 92.6800   1
 -10  18  20 1023.13 56.7400   1
  10  20  18 1006.48 49.5000   1
  10  18  20 979.120 49.2300   1
 -20 -10  18 1044.70 54.4400   1
  12  26   2 2367.03 95.7900   1
 -12  26   2 2566.47 100.600   1
 -12  26  -2 2437.35 97.6400   1
  12  26  -2 2731.41 110.540   1
 -23  17   3 -30.140 33.7100   1
 -17  23   3 16.7100 34.1800   1
  17  23   3 49.4700 34.6100   1
 -27   7   7 1071.94 64.1200   1
 -19  21   5 2245.65 87.7400   1
 -21  19   5 2189.71 88.9400   1
  21   5  19 2529.15 95.3800   1
  19   5  21 2644.64 96.1500   1
 -19  -5  21 2540.33 100.260   1
   5  19  21 2421.67 88.0000   1
 -21  -5  19 2568.02 102.340   1
   5  21  19 2515.87 90.1000   1
 -19   5  21 2471.29 87.5800   1
  -5  19  21 2572.93 90.3500   1
 -21   5  19 2380.82 83.4500   1
  -5  21  19 2561.49 92.3600   1
 -21  19   5 2409.02 100.810   1
 -19  21   5 2419.67 93.8800   1
 -21  19  -5 2440.42 112.470   1
 -19  21  -5 2541.88 115.910   1
 -25  11   9 2124.62 86.4600   1
 -25   9  11 2159.06 88.1800   1
 -11  25   9 2315.18 85.5200   1
  -9  25  11 2116.89 85.9200   1
  11  25   9 2261.71 96.2300   1
   9  25  11 2167.07 86.4700   1
 -11   9  25 2092.62 82.2000   1
  -9  11  25 2145.82 77.6300   1
   9  11  25 2097.56 79.5900   1
  11   9  25 2008.76 80.2400   1
 -11  -9  25 2012.49 79.1200   1
  25   9  11 2180.88 84.3400   1
  -9 -11  25 1921.50 73.3400   1
 -25  11   9 1804.17 79.3500   1
  -7  27  -7 1071.05 95.8700   1
 -27   7   7 1369.39 76.8300   1
  -7  27   7 1214.50 66.1100   1
   7  27   7 1262.76 58.8200   1
  -7   7  27 1160.27 54.7300   1
   7   7  27 1120.40 53.6700   1
  -7  -7  27 1270.73 65.3600   1
  27   7   7 1080.00 59.9700   1
 -23  17  -3 -55.130 66.3300   1
 -17  23  -3 10.7200 50.9400   1
 -23  17   3 32.1800 52.6300   1
 -17  23   3 -14.600 50.7900   1
  -3  23  17 -13.140 38.6700   1
 -23   3  17 1.60000 27.4400   1
   3  23  17 -37.910 28.3300   1
 -23  -3  17 -1.3400 24.9300   1
  -3  17  23 -25.800 41.9800   1
 -17   3  23 23.3200 40.1700   1
   3  17  23 20.3900 29.2000   1
  17   3  23 23.9200 43.2200   1
 -16   0  24 1344.97 58.8600   1
   0  16  24 1503.74 66.6600   1
 -16  24   0 1239.96 72.1900   1
   0  24  16 1397.06 59.7400   1
 -24   0  16 1414.40 60.4600   1
 -16  24   0 1381.06 73.7000   1
 -24  16   0 1239.78 74.9400   1
  16  24   0 1207.58 61.8100   1
  -9   5  27 185.020 40.9600   1
   5   9  27 185.220 45.9200   1
  -9  -5  27 229.490 34.6200   1
   9   5  27 228.870 47.2400   1
  -5  -9  27 199.620 47.9300   1
 -23  -9  15 373.560 39.6600   1
 -23   9  15 343.770 46.7800   1
  -9  23  15 338.450 37.8200   1
  13  21  15 301.800 40.1300   1
  15  21  13 347.780 36.7800   1
 -21  13  15 303.760 36.2200   1
 -13  21  15 330.520 38.1600   1
 -15  21  13 267.650 49.1700   1
 -15 -13  21 293.250 44.4900   1
 -21  15  13 337.340 45.5700   1
  15  23   9 327.920 36.7600   1
 -15  23   9 333.490 40.7800   1
 -23  15   9 389.010 48.5400   1
 -21 -13  15 312.310 36.0000   1
  -5   9  27 182.850 32.8300   1
  15  13  21 262.220 32.7400   1
 -13  15  21 294.870 35.8900   1
 -15  13  21 262.500 42.3000   1
  21  15  13 369.410 38.8200   1
 -13 -15  21 260.430 34.3000   1
 -15 -21  13 268.300 38.1600   1
   9  23  15 375.040 34.2900   1
 -15   9  23 266.590 45.8000   1
  -9  15  23 336.180 46.5700   1
 -15  -9  23 335.880 42.5400   1
  15   9  23 419.840 48.3700   1
  23   9  15 440.560 40.3000   1
  -9 -15  23 393.070 46.7200   1
   9  15  23 411.130 47.3600   1
  13  15  21 288.500 33.3400   1
 -27   5   9 225.610 35.9900   1
 -27   5   9 166.770 37.8900   1
  -9  27   5 246.780 43.4600   1
  -5  27   9 216.900 44.9600   1
  -9  27   5 228.340 49.5300   1
   9  27   5 241.170 43.9600   1
 -27   9   5 211.700 43.0300   1
  -9  27  -5 269.460 57.9700   1
 -27   9   5 173.280 45.7000   1
   5  27   9 186.150 43.9000   1
 -26  12   4 1106.27 76.7400   1
  12  26   4 1096.34 73.6100   1
 -12  26  -4 937.860 86.1500   1
 -26  12  -4 1120.93 95.3300   1
  -4  28   6 1817.67 75.2300   1
  -6  28   4 1874.04 84.9400   1
   2  16  24 785.440 54.1900   1
   6  28   4 1934.15 81.4600   1
 -28   4   6 1812.00 90.7800   1
 -28   6   4 1867.35 97.3600   1
  -6  28  -4 2097.67 113.660   1
  -4  28  -6 1877.94 122.360   1
   6  28  -4 1700.98 98.3800   1
 -20  20   6 2865.26 100.720   1
 -12  26   4 1137.42 67.9500   1
  -6   4  28 1708.75 67.8000   1
   4  26  12 1011.55 57.3700   1
   6   4  28 1889.15 77.8400   1
  -2  24  16 701.040 43.9900   1
  -4 -12  26 1005.91 53.5600   1
   2  24  16 717.170 43.8700   1
 -24  -2  16 699.960 46.6200   1
  -6  28  -4 1696.14 74.4200   1
  16   2  24 673.730 51.6500   1
 -26   4  12 1103.95 62.0900   1
 -12  26   4 1100.43 73.4000   1
 -18  16  16 1579.36 68.3100   1
 -16  18  16 1661.13 67.1300   1
  -2  16  24 698.810 44.2100   1
   4   6  28 1742.74 68.6000   1
 -16  16  18 1511.96 63.2600   1
 -16  -2  24 688.950 43.6000   1
  -6  -4  28 1788.43 69.4200   1
  20   6  20 3122.21 107.700   1
  -4  -6  28 1706.21 71.3400   1
  16  18  16 1830.45 82.4100   1
 -16   2  24 799.250 51.7200   1
 -14   8  24 837.890 47.3000   1
  18  16  16 1687.61 75.5900   1
   8  14  24 753.470 50.5300   1
 -14  -8  24 896.190 56.0200   1
  14   8  24 891.900 48.0800   1
  -8 -14  24 868.350 55.6600   1
  16  16  18 1788.00 71.2300   1
 -18 -16  16 1695.11 72.0800   1
 -16 -16  18 1730.63 75.5600   1
 -16 -18  16 1500.43 64.6900   1
  12   4  26 1049.33 58.2100   1
 -12  -4  26 1036.84 57.0900   1
   4  12  26 1008.17 55.7000   1
 -12   4  26 991.400 50.5700   1
  -4  12  26 1122.81 54.2000   1
  -4  26  12 1166.97 60.4800   1
  -8  14  24 784.290 46.4800   1
 -26  -4  12 1181.41 66.0600   1
   6  -4  28 1834.64 72.0000   1
   4  -6  28 1797.21 76.1600   1
  -4   6  28 1745.14 72.5400   1
 -20  -6  20 2979.93 101.620   1
 -24   2  16 813.700 53.6200   1
 -20  20  -6 3282.90 152.790   1
 -20  20   6 3282.33 119.550   1
  -6  20  20 2930.97 96.3200   1
 -20   6  20 3054.89 100.260   1
   6  20  20 2893.73 96.5800   1
   4  28   6 1832.29 75.0500   1
 -26  12   4 1031.81 59.7900   1
 -14  24  -8 721.630 74.4200   1
  24   8  14 830.190 51.9500   1
 -24  14   8 792.260 52.3000   1
 -24  14   8 811.610 60.6200   1
 -14  24   8 681.400 49.2600   1
  14  24   8 868.630 50.8000   1
 -24  16  -2 692.620 67.8600   1
 -16  24  -2 661.830 63.1800   1
 -24  16   2 626.250 69.8200   1
 -16  24   2 591.230 54.7400   1
 -24   8  14 822.690 52.9700   1
  -8  24  14 835.270 48.8100   1
 -24  -8  14 852.060 51.5700   1
   8  24  14 836.680 45.5900   1
 -16  24   2 755.150 64.5500   1
 -16  24  -2 696.110 60.2400   1
 -24  16   2 699.000 47.2100   1
  16  24   2 664.560 52.7100   1
 -10  -8  26 204.490 33.9700   1
  10   8  26 125.320 43.9100   1
 -10  16  22 36.6300 31.4500   1
   8  10  26 171.000 33.1100   1
 -10   8  26 286.210 35.8900   1
  -8  10  26 266.260 47.1700   1
 -16  22  10 -21.510 43.0400   1
  10  16  22 9.40000 28.5600   1
 -16  10  22 84.3700 38.7500   1
  16  22  10 47.5500 31.4100   1
 -22  16  10 52.7800 33.5300   1
 -16 -10  22 3.96000 35.7600   1
  16  10  22 -18.120 40.8600   1
  -8 -10  26 209.550 43.0500   1
  26   8  10 172.160 31.3600   1
 -10  26   8 257.490 47.7500   1
 -10  26  -8 292.290 62.4800   1
   8  26  10 220.690 31.9400   1
  10  26   8 208.190 37.1500   1
  22  10  16 46.2300 31.5700   1
 -26   8  10 188.660 34.5500   1
  10  22  16 7.10000 34.1900   1
  -8  26  10 314.870 46.8700   1
 -26   8  10 240.910 45.8300   1
 -22 -10  16 34.5800 27.1900   1
 -26  10   8 244.590 51.1000   1
 -10  22  16 41.1000 31.7800   1
 -22  10  16 -36.570 28.9800   1
 -26  10   8 290.500 47.6400   1
 -23  -5  17 372.360 38.0000   1
   5  23  17 403.070 36.5000   1
  -5  17  23 416.520 48.1600   1
 -17   5  23 327.900 42.1000   1
 -17  -5  23 404.220 42.3500   1
  17   5  23 329.340 35.8600   1
  23   5  17 401.490 43.7700   1
 -23  17   5 311.820 39.0600   1
 -17  23   5 258.360 41.4200   1
   1  29  -1 174.310 52.8200   1
 -23  17   5 358.810 55.8200   1
  19  19  11 703.890 43.3600   1
   5  17  23 333.270 42.0900   1
   1  29  -1 181.860 60.0400   1
  -1  29  -1 210.700 67.1600   1
  -1  29   1 241.750 56.0300   1
   1  29   1 287.430 54.6400   1
  11  19  19 799.380 45.1600   1
 -11  19  19 856.920 54.2500   1
  -1  29  -1 191.660 53.1300   1
 -19  19  11 711.340 47.5100   1
 -19  11  19 833.280 52.9900   1
 -23  17  -5 422.690 83.8000   1
  19  11  19 822.560 50.3000   1
 -19 -11  19 856.230 53.1200   1
 -17  23   5 336.830 60.8900   1
 -23   5  17 335.770 35.2000   1
  -1  29   1 192.150 47.9700   1
   1  29   1 205.380 39.0900   1
  -5  23  17 413.620 37.7200   1
 -17  23  -5 368.470 76.8000   1
 -13  25  -7 689.310 71.3200   1
 -13  -7  25 860.970 47.8700   1
   7  13  25 904.460 47.6300   1
  25   7  13 768.480 45.0400   1
   1  -1  29 305.850 46.3800   1
  -1   1  29 319.230 37.3000   1
  -7 -13  25 805.750 54.3700   1
 -13   7  25 768.950 51.2800   1
 -25  13   7 862.340 60.1700   1
  -7  13  25 843.270 52.9400   1
   7  25  13 913.600 51.6600   1
  13   7  25 779.910 46.4400   1
  -1  -1  29 253.830 35.7600   1
   1   1  29 160.700 34.1200   1
  -7  25  13 802.020 47.5000   1
 -25  -7  13 836.870 52.7900   1
 -25   7  13 888.180 56.7500   1
 -13  25   7 745.930 50.8100   1
  13  25   7 827.260 57.2200   1
 -25  13   7 883.380 54.1800   1
 -22   6  18 1571.18 70.5200   1
  -6  22  18 1648.58 66.5000   1
 -22  18   6 1536.39 79.3400   1
   6  22  18 1715.94 70.2400   1
 -18   6  22 1507.79 65.8200   1
  -6  18  22 1426.31 60.4300   1
 -22  -6  18 1469.98 63.3900   1
   6  18  22 1384.25 59.3500   1
 -18  -6  22 1567.00 67.7900   1
  18   6  22 1586.44 69.6400   1
 -22  18   6 1493.65 72.5800   1
 -18  22   6 1445.89 73.6900   1
  22   6  18 1620.90 69.8700   1
 -22  18  -6 1712.68 97.6700   1
  18  18  14 1159.67 52.5900   1
 -18  18  14 1144.42 55.2000   1
 -18  22  -6 1711.66 106.910   1
 -18  22   6 1611.25 73.2300   1
 -14 -18  18 1317.27 63.3900   1
 -18 -14  18 1290.41 71.7700   1
  18  14  18 1239.94 54.9700   1
  14  18  18 1360.80 61.5700   1
 -18  14  18 1414.09 68.4300   1
 -14  18  18 1270.16 62.6900   1
   4  16  24 39.0000 29.8100   1
 -16   4  24 83.3100 41.6700   1
  -4  24  16 33.0600 37.5800   1
 -24   4  16 56.8600 27.9900   1
   0  28   8 4.66000 40.4200   1
  -8  28   0 17.9800 53.6500   1
   8  28   0 28.0400 33.3900   1
  16   4  24 62.5700 31.1800   1
 -16  -4  24 51.5200 29.8400   1
   0  -8  28 -35.850 32.7600   1
   8   0  28 -7.7900 31.9200   1
  -8   0  28 -70.990 43.5800   1
   0   8  28 -44.430 39.6700   1
 -28   0   8 -36.520 38.5600   1
  -8  28   0 -0.5500 43.1800   1
   8  28   0 -26.080 59.3000   1
 -28   8   0 31.0400 47.8100   1
  -4  16  24 29.4800 30.6800   1
   4  24  16 -14.810 28.2700   1
 -24  -4  16 35.4500 34.9900   1
 -16  24   4 -21.100 56.6300   1
 -24  16   4 41.1200 55.7800   1
 -16  24  -4 5.53000 52.7600   1
 -24  16  -4 -23.420 68.8600   1
 -16  24   4 28.9500 46.8600   1
 -24  16   4 0.69000 47.0500   1
 -21  11  17 89.9200 31.0000   1
  19   7  21 2075.23 76.5700   1
 -19  -7  21 2264.17 83.8400   1
   7  19  21 2209.47 78.9900   1
 -21  -7  19 2044.48 80.1300   1
 -17  11  21 69.2200 30.8300   1
 -17 -11  21 101.300 36.1600   1
  11  21  17 65.9800 38.0800   1
   7  21  19 2385.41 86.8400   1
  21  11  17 77.0100 37.4300   1
  -7  19  21 2131.49 80.5200   1
 -21   7  19 2166.73 79.3400   1
  11  17  21 53.2800 35.5500   1
 -11  21  17 85.2900 41.8800   1
 -11 -17  21 38.8400 38.6300   1
  17  11  21 42.1700 39.7200   1
 -21 -11  17 104.880 31.1100   1
  -7  21  19 2197.61 85.6600   1
  21   7  19 2224.10 81.5400   1
 -11  17  21 63.4400 43.0500   1
 -19   7  21 2216.28 82.6900   1
 -11  -1  27 1768.00 75.3800   1
  11   1  27 1598.64 72.9500   1
 -15   1  25 2081.21 76.3700   1
   1  15  25 2197.29 78.6100   1
  11  -1  27 1598.57 66.5700   1
  -1 -11  27 1509.76 66.4700   1
 -11  27  -1 1598.48 78.1100   1
  11  27  -1 1639.82 71.0300   1
   1  27  11 1674.78 71.7600   1
 -11  27   1 1665.69 81.9500   1
  11  27   1 1442.85 73.4800   1
 -15  -1  25 2018.54 75.6900   1
  -1  15  25 1889.22 71.3600   1
   1  25  15 2171.65 81.5200   1
  -1  25  15 2174.69 85.3400   1
 -25  -1  15 2146.05 93.6400   1
 -25  15  -1 2227.90 104.760   1
 -25  15   1 2225.52 104.570   1
 -15  25  -1 2086.22 94.8300   1
 -15  25   1 2052.67 91.6800   1
 -19  21   7 2001.06 86.0500   1
 -21  19   7 1999.59 85.2400   1
  15   1  25 2107.75 78.1800   1
  15  25  -1 2111.55 92.6400   1
 -15  25  -1 1899.73 78.9700   1
  15  25   1 1950.73 89.7700   1
 -15  25   1 1867.06 77.9700   1
 -21  19   7 2120.71 84.3400   1
 -25   1  15 2278.69 91.7200   1
 -19  21   7 2235.16 92.4200   1
 -19  21  -7 2351.33 113.020   1
 -21  19  -7 2435.11 115.940   1
  21  17  11 56.3400 25.7300   1
   1  29   3 39.3800 36.7800   1
  -1  29   3 103.690 47.1300   1
  -3  29   1 43.7800 51.9800   1
   3  29   1 54.9700 44.4700   1
   3  29  -1 43.7600 43.9700   1
  -3  29  -1 -2.3000 46.5700   1
   1  29  -3 -9.7200 34.6500   1
  -1  29  -3 23.3700 34.7400   1
 -17  21  11 95.4100 44.0300   1
 -21  17  11 96.3100 47.1300   1
  17  21  11 89.6800 31.9700   1
   3  -1  29 80.0900 45.1500   1
   1  -3  29 81.8100 45.5600   1
  -1  -3  29 -23.320 39.9000   1
   3   1  29 27.3500 40.6100   1
  -3  -1  29 93.6800 40.4300   1
   1   3  29 8.31000 32.0300   1
  -3   1  29 -12.460 44.2800   1
  -1   3  29 4.85000 44.6300   1
  -1  29   3 47.7700 37.1000   1
   1  29   3 115.370 53.2800   1
  -3  29   1 -1.7700 57.6300   1
   3  29   1 74.6800 52.8000   1
  -3  29  -1 25.3600 45.8800   1
  -1  29  -3 8.12000 51.1400   1
   1  29  -3 -64.050 59.9600   1
 -29   1   3 53.7000 59.1100   1
 -29   3   1 -29.730 53.5100   1
  11  27  -1 1754.22 109.760   1
   3  29  -1 -44.680 63.3600   1
 -27  11  -1 1463.61 95.2100   1
  11  27   1 1687.31 102.820   1
 -27  11   1 1662.34 94.9700   1
 -11  27  -1 1771.01 86.7000   1
 -11  27   1 1587.46 78.8100   1
 -27  -1  11 1773.70 81.2000   1
 -27   1  11 1745.77 83.3100   1
  -1  27  11 1619.77 70.4700   1
  -1  11  27 1502.93 62.1800   1
 -11   1  27 1754.84 74.3900   1
   1  11  27 1700.52 66.5600   1
 -20 -14  16 119.030 29.4300   1
 -20  14  16 169.090 32.4200   1
 -16  14  20 90.5300 43.4800   1
 -14  16  20 72.2300 43.9200   1
  14  20  16 167.730 35.2500   1
 -14 -16  20 84.7200 40.8100   1
  20  14  16 122.490 32.2900   1
 -14 -20  16 115.900 40.2900   1
 -14  20  16 65.0600 40.4700   1
  16  14  20 149.010 40.5000   1
  14  16  20 132.150 29.4700   1
 -16 -14  20 95.4700 28.8400   1
  -8  -2  28 112.880 39.8900   1
   8   2  28 118.760 41.8600   1
   8  -2  28 66.9900 46.5000   1
  -2  -8  28 88.6800 41.8800   1
  20  16  14 121.240 31.5500   1
 -28   8  -2 154.180 52.8700   1
   2  -8  28 58.4400 34.0800   1
   8  28  -2 37.0600 41.3300   1
  -8  28  -2 9.47000 54.2200   1
  -2   8  28 96.3500 32.6800   1
   8  28  -2 40.2900 43.3400   1
   8  28   2 48.1200 51.8900   1
  -8  28  -2 -0.3600 46.8600   1
 -28   8   2 32.2400 43.2400   1
   2   8  28 65.4400 40.5400   1
 -28   2   8 132.170 34.2200   1
  -8   2  28 114.990 44.9300   1
 -16 -20  14 134.530 33.1100   1
   8  28   2 91.7000 35.1500   1
 -16  20  14 193.670 34.4700   1
  -8  28   2 1.79000 54.2700   1
  16  20  14 148.530 35.8900   1
 -20  16  14 47.9000 40.6300   1
   2  28   8 52.6500 29.9900   1
  -2  28   8 129.550 46.5900   1
  -8  28   2 53.5000 40.7100   1
 -28  -2   8 89.1600 46.5100   1
  -6   6  28 2418.09 83.5600   1
   6   6  28 2447.16 88.9800   1
  -6  -6  28 2733.26 95.4600   1
   6  -6  28 2552.34 90.6000   1
   6  28   6 2690.00 111.980   1
  -6  28   6 2562.04 100.230   1
 -28   6   6 2519.79 104.290   1
  -6  28  -6 2376.90 115.390   1
 -12  26  -6 283.610 58.8700   1
 -26  12   6 298.680 43.9800   1
  12  26   6 345.990 42.8200   1
 -12  26   6 344.750 43.0200   1
 -26   6  12 362.310 37.5100   1
  -6  26  12 332.490 49.6000   1
   6  26  12 401.430 41.9300   1
  -6  12  26 295.770 47.3500   1
 -12   6  26 302.490 35.7200   1
   6  12  26 397.560 43.8300   1
 -12  -6  26 373.440 42.9300   1
  12   6  26 383.170 37.2400   1
  -6 -12  26 368.890 37.9600   1
  26   6  12 414.740 41.2900   1
 -26  12   6 286.870 37.8700   1
 -11  -3  27 405.590 49.5600   1
   3  11  27 454.780 45.1900   1
 -11   3  27 448.060 45.0600   1
  -3  11  27 470.990 39.7100   1
  -3  27  11 485.770 40.1600   1
   3  27  11 469.510 48.0700   1
 -25   3  15 856.150 54.7100   1
 -15  25   3 712.630 71.4100   1
 -25  15   3 768.500 71.6600   1
 -15  25  -3 749.590 66.9000   1
  11  27   3 441.120 51.5000   1
   3  29  -3 528.390 72.8600   1
 -27   7   9 225.420 43.9900   1
 -27   9   7 174.360 41.2100   1
  27   7   9 230.900 37.1100   1
  -7  -9  27 303.350 42.1100   1
  -9  -7  27 285.680 35.1400   1
   7   9  27 114.430 31.7100   1
  -7   9  27 306.140 46.0500   1
  -9   7  27 202.910 33.8900   1
  -3  15  25 917.480 48.9100   1
  -7  27   9 62.5600 34.2700   1
  -9  27   7 137.870 46.3900   1
   9  27   7 202.960 33.7400   1
 -27   7   9 191.030 35.9000   1
 -27   9   7 289.680 49.5500   1
  -9  27  -7 253.660 75.4600   1
  15  25   3 813.450 77.3900   1
 -25  15  -3 800.950 82.3500   1
 -27   3  11 464.950 40.8400   1
 -27  11   3 463.340 52.2600   1
 -11  27  -3 521.080 62.2600   1
 -27  11  -3 487.530 63.3800   1
   9   7  27 120.580 43.8300   1
  15  25   3 837.150 50.0300   1
 -15  25   3 711.980 51.8800   1
 -25  15   3 692.640 53.6300   1
 -15  25  -3 667.790 52.0000   1
  15   3  25 784.460 52.7200   1
 -15  -3  25 826.720 46.4500   1
   3  15  25 770.060 54.1900   1
  -3 -11  27 460.910 41.3700   1
  11  -3  27 503.560 55.6200   1
 -11  27  -3 430.210 45.2800   1
 -15   3  25 799.780 46.5200   1
   3  29   3 615.270 48.4800   1
   7  27   9 264.210 33.3100   1
  -3  29   3 482.260 54.1800   1
   3  29  -3 559.900 51.8700   1
  -3  29  -3 535.670 45.7600   1
   3  -3  29 611.810 50.6900   1
  -3  -3  29 636.250 43.7900   1
   3   3  29 646.390 43.6200   1
  -3   3  29 614.790 50.1600   1
  -3  29   3 612.540 51.0200   1
   3  29   3 571.590 57.3100   1
  -3  29  -3 506.820 80.1100   1
 -29   3   3 616.730 59.5900   1
   3  25  15 820.380 46.1700   1
  11  27   3 452.810 42.3500   1
 -27   3  11 476.650 48.2100   1
 -11  27   3 369.390 53.7500   1
 -27  -3  11 536.050 46.1000   1
 -11  27   3 377.240 47.8000   1
 -25  -3  15 849.730 52.8100   1
  -3  25  15 743.070 51.5400   1
  11   3  27 424.720 46.8600   1
  -8  28   4 849.540 54.9800   1
  -4   8  28 915.240 49.1700   1
   4   8  28 920.170 49.7600   1
  20   8  20 1885.07 75.2700   1
  -8  -4  28 917.740 55.2000   1
   8   4  28 942.450 50.5600   1
 -12  24  12 5570.11 164.240   1
 -20  -8  20 1747.01 102.810   1
   8  20  20 1786.69 71.2900   1
 -20   8  20 1638.93 69.4900   1
  -8  20  20 1644.31 70.5600   1
 -20  20   8 1534.23 68.6900   1
  -4  -8  28 872.060 59.2700   1
   4  -8  28 875.530 52.4500   1
  -8  28  -4 748.420 67.0800   1
 -28   4   8 894.020 62.8400   1
 -28   4   8 929.200 62.5900   1
   8  28   4 945.410 65.7400   1
 -28   8   4 967.650 71.5700   1
  -8   4  28 842.080 53.2900   1
  -8  28  -4 1017.30 86.6900   1
  -8  28   4 696.920 53.0600   1
   4  28   8 942.980 57.1000   1
  24  12  12 6034.83 188.520   1
  12  24  12 6064.12 191.810   1
 -24  12  12 6027.05 189.540   1
  -4  28   8 933.460 52.3100   1
   8  -4  28 955.990 58.6800   1
  12  12  24 5791.50 169.610   1
 -12 -12  24 5720.60 169.650   1
 -12  12  24 5442.56 158.060   1
 -17  23   7 453.990 45.4900   1
 -23  17   7 327.660 47.6500   1
 -23  17   7 419.500 44.8700   1
 -17  23  -7 227.590 83.8700   1
 -13  23  13 4169.07 130.630   1
 -23  13  13 4188.97 131.820   1
 -17  17  17 2403.47 86.3000   1
  23   7  17 380.550 45.5900   1
  17   7  23 421.270 38.1600   1
  17  17  17 2629.11 93.2700   1
 -17  -7  23 386.870 45.4000   1
   7  17  23 413.630 47.4600   1
 -17   7  23 433.450 37.7000   1
  -7  17  23 382.940 47.9700   1
 -23  -7  17 436.890 42.3100   1
   7  23  17 450.280 46.1100   1
  -7  23  17 409.400 45.0000   1
 -23   7  17 430.340 43.5900   1
 -13  13  23 4125.64 133.500   1
   5  29   1 604.140 58.1800   1
   5  29   1 453.290 64.5000   1
  -5  29  -1 700.110 76.7600   1
   5  29  -1 533.120 58.9400   1
 -29   1   5 552.620 64.6100   1
 -29  -1   5 549.180 65.0200   1
  -1  29  -5 559.710 64.6800   1
 -29   5   1 613.070 63.6500   1
 -17 -17  17 2572.73 106.740   1
  -5  -1  29 590.390 42.6600   1
  -5   1  29 543.810 40.5400   1
   1   5  29 626.660 49.5300   1
  -1   5  29 566.750 42.0600   1
   1  29   5 658.740 48.0400   1
  -1  29   5 646.060 48.0500   1
  -5  29   1 629.730 64.5600   1
  -1  -5  29 565.960 48.6100   1
   1  -5  29 587.590 54.0200   1
  -5  29  -1 519.630 47.4400   1
   5  29  -1 568.860 46.4900   1
   1  29  -5 562.510 75.1100   1
   5  -1  29 586.310 52.6700   1
 -25  11  11 4538.59 164.410   1
 -11  25  11 4076.65 127.820   1
  11  25  11 4430.51 159.400   1
 -11  11  25 4612.86 162.410   1
  11  11  25 4233.89 131.040   1
  25  11  11 4280.27 144.620   1
 -11 -11  25 4362.59 137.410   1
  -5  29   1 579.900 48.3100   1
 -13 -13  23 4024.40 136.570   1
  13  13  23 4119.37 135.240   1
  23  13  13 4286.75 146.290   1
  13  23  13 4058.54 128.670   1
   5   1  29 577.320 42.4700   1
 -16   6  24 87.9400 37.8200   1
 -16  24   6 11.8200 37.5100   1
 -24  16   6 46.6400 33.6000   1
  24   6  16 5.85000 39.9100   1
  16   6  24 75.9100 43.1000   1
 -16  24  -6 26.8400 56.2900   1
 -16  -6  24 68.7700 29.3100   1
   6  16  24 20.2200 41.0700   1
  18  20  12 378.830 35.9400   1
  -6  16  24 -2.0900 29.2200   1
  20  12  18 393.150 35.2200   1
 -12 -18  20 347.990 37.2400   1
 -20  18  12 326.990 51.0700   1
 -12  20  18 380.830 37.9000   1
 -16  24   6 -11.310 37.1300   1
 -20  12  18 375.060 37.2200   1
 -18  12  20 297.050 34.6600   1
  18  12  20 407.270 35.6700   1
  20  18  12 403.310 38.6300   1
 -18  20  12 382.450 39.6100   1
 -12  18  20 302.250 35.8000   1
  12  18  20 394.000 36.2600   1
  12  20  18 343.970 39.4300   1
 -20 -12  18 410.990 39.2100   1
 -18 -12  20 379.910 35.5300   1
 -24  -6  16 8.29000 33.3400   1
   6  24  16 -17.130 34.3100   1
  -6  24  16 3.86000 39.9700   1
 -24   6  16 -59.990 38.4700   1
 -24  16   6 16.9800 52.9800   1
  16  24   6 12.4500 34.8700   1
  22   8  18 861.860 55.6400   1
 -22  18   8 680.630 55.4200   1
 -24  14  10 2700.48 102.580   1
 -22  18   8 821.000 62.4700   1
 -18  22   8 801.500 63.2700   1
 -22   8  18 844.020 56.6000   1
  -8  22  18 714.280 45.2800   1
   8  22  18 915.990 54.8700   1
 -10 -14  24 2319.72 84.9500   1
  24  10  14 2503.27 93.6100   1
  14  10  24 2571.29 88.8800   1
 -14 -10  24 2784.57 106.290   1
  10  14  24 2599.96 93.0100   1
 -14  10  24 2292.91 81.4400   1
 -10  14  24 2500.32 92.9900   1
  10  24  14 2483.13 87.1700   1
 -10  24  14 2594.54 96.3300   1
 -18   8  22 713.380 44.6500   1
  -8  18  22 866.950 48.1000   1
 -22  -8  18 715.380 42.2600   1
   8  18  22 760.700 50.3500   1
  14  24  10 2640.81 99.5900   1
 -18  -8  22 715.610 44.3300   1
  18   8  22 801.560 55.7500   1
 -24  10  14 2550.19 92.8200   1
 -14  24  10 2710.25 103.130   1
 -26  14   0 2442.19 163.500   1
 -14  26   0 2442.45 111.280   1
 -26   0  14 2327.20 89.5300   1
   0  26  14 2636.82 97.0700   1
   0  14  26 2515.90 86.5200   1
 -14   0  26 2661.98 95.7500   1
  14   0  26 2631.05 91.7300   1
  14  26   0 2276.81 103.860   1
 -14  26   0 2437.83 103.170   1
 -19 -15  17 1300.50 65.4300   1
 -17 -15  19 1450.53 66.6700   1
 -17 -19  15 1494.09 77.5100   1
 -15 -17  19 1455.73 75.6900   1
 -15 -19  17 1366.44 68.9900   1
 -23  15  11 1585.23 73.8400   1
 -15  23  11 1547.11 67.9800   1
  15  23  11 1465.54 70.9500   1
 -11  23  15 1553.51 73.5300   1
  11  23  15 1574.38 67.0000   1
 -15  11  23 1601.96 71.7400   1
 -11  15  23 1589.28 64.7300   1
  11  15  23 1692.47 72.8400   1
 -15 -11  23 1578.70 69.9000   1
  15  11  23 1469.19 65.9600   1
  23  11  15 1369.08 60.9300   1
 -11 -15  23 1498.65 70.0700   1
  -9 -13  25 1991.28 76.7100   1
 -13  -9  25 1996.33 76.3400   1
  13   9  25 1973.54 80.4800   1
   9  13  25 1997.71 74.3100   1
  -9  13  25 2001.89 74.9600   1
 -13   9  25 2004.72 79.1900   1
   3  -5  29 1735.26 74.2100   1
   5  -3  29 1550.43 73.6000   1
  -3  -5  29 1532.29 69.3000   1
  -5  -3  29 1536.83 64.5800   1
   5   3  29 1555.17 69.0600   1
   3   5  29 1581.92 69.7200   1
  -3   5  29 1741.90 69.3400   1
  -5   3  29 1524.83 68.6200   1
  -5  15  25 82.0700 32.6300   1
 -15   5  25 105.870 38.9800   1
 -23  11  15 1572.52 65.9900   1
   5  15  25 119.900 30.9000   1
 -15  -5  25 97.6000 37.7700   1
  15   5  25 143.630 45.2400   1
 -17  19  15 1483.33 68.3100   1
 -19  17  15 1488.39 63.9000   1
 -19  15  17 1431.14 66.2600   1
 -15  19  17 1413.23 61.7600   1
 -15  17  19 1369.22 60.7300   1
 -17  15  19 1561.01 65.0700   1
  17  19  15 1464.20 70.3700   1
  15  19  17 1528.27 66.6100   1
  19  17  15 1399.98 64.9100   1
  15  17  19 1398.06 63.2000   1
  17  15  19 1558.70 66.7400   1
  19  15  17 1340.88 57.9700   1
   5  25  15 142.030 37.3600   1
 -27  11   5 26.7200 37.4900   1
  -5 -11  27 -17.820 30.4400   1
 -25  15   5 73.5100 56.4700   1
  15  25   5 142.810 39.2100   1
 -15  25  -5 155.160 57.2600   1
 -25  15   5 51.8600 32.4900   1
 -15  25   5 113.780 53.7900   1
 -29   3   5 1720.60 86.2400   1
   5  29   3 1779.90 87.1900   1
  -5  29   3 1568.03 73.9500   1
 -25   9  13 2079.75 86.8800   1
  -3  29   5 1543.45 70.1400   1
 -27   5  11 -6.7900 29.5300   1
  -5  29  -3 1431.54 66.9000   1
 -25  15  -5 184.800 79.8600   1
   3  29  -5 1639.04 99.5100   1
   5  29  -3 1646.58 110.950   1
   5  29  -3 1418.08 66.0700   1
  -5  29   3 1424.22 73.6500   1
 -11  -5  27 -53.720 42.8900   1
   5  11  27 -38.840 42.6000   1
 -11   5  27 -52.800 37.3600   1
  -5  11  27 -29.630 42.7300   1
   5  27  11 -9.6200 34.9100   1
  -5  27  11 8.19000 32.0700   1
   5  29   3 1519.89 69.6900   1
  -3  29  -5 1445.02 85.7900   1
  11  27   5 9.05000 31.1500   1
 -27  11   5 36.8600 50.9800   1
 -11  27  -5 131.420 55.6300   1
  -5  29  -3 1702.22 92.1000   1
 -29   5   3 1684.11 100.160   1
 -25  13   9 1944.64 79.2000   1
 -13  25   9 2243.89 93.0500   1
  13  25   9 2071.04 80.4200   1
  -9  25  13 1921.29 81.6100   1
   9  25  13 2114.86 82.3000   1
  25   9  13 2029.46 82.5000   1
 -25  13   9 1938.76 79.0600   1
 -15  25   5 108.420 51.6400   1
 -11  27   5 -35.560 36.1300   1
   3  29   5 1717.69 82.9900   1
  11   5  27 46.4400 31.9200   1
 -25   5  15 60.1800 39.2100   1
 -11  27   5 33.8900 38.3300   1
 -27   5  11 -30.160 38.1800   1
  -5  25  15 101.400 30.6200   1
 -25  -5  15 124.720 32.3800   1
  25   5  15 152.330 39.0700   1
 -14  26   2 1487.78 69.3500   1
 -26   2  14 1805.45 83.5500   1
 -10  10  26 1510.63 67.9900   1
  10  10  26 1458.18 66.5200   1
 -10 -10  26 1491.26 63.9300   1
  14  14  22 1197.42 55.2600   1
 -14 -14  22 1506.44 69.3800   1
 -14  26   2 1897.41 97.5500   1
  22  14  14 1390.79 69.4500   1
 -14  14  22 1259.64 57.5600   1
 -26  14  -2 1558.33 96.3800   1
  14  22  14 1369.88 62.2800   1
 -14  22  14 1457.77 72.6600   1
 -22  14  14 1208.31 63.3300   1
  14  26   2 1644.89 109.090   1
 -14  26  -2 1500.19 83.0700   1
 -26  14   2 1502.94 87.1100   1
 -26  -2  14 1810.69 84.9700   1
 -14   2  26 1575.60 68.6800   1
  -2  26  14 1725.07 76.8300   1
   2  26  14 1736.64 72.3100   1
  -2  14  26 1708.58 71.2300   1
  14  26   2 1470.55 70.8500   1
  14   2  26 1583.50 70.4500   1
 -14  26  -2 1511.13 78.9300   1
   2  14  26 1521.51 63.1200   1
 -14  -2  26 1727.56 74.6000   1
 -26  10  10 1323.10 71.3300   1
  10  26  10 1619.00 74.1000   1
 -26  10  10 1495.61 75.4000   1
 -10  26  10 1489.63 66.0300   1
  -9  21  19 663.700 50.5000   1
  19   9  21 769.240 50.2400   1
  -1  21  21 167.520 44.1400   1
   1  21  21 207.840 32.3400   1
 -19  -9  21 706.570 44.0900   1
  21   9  19 686.590 43.4400   1
 -21  -9  19 730.130 47.4300   1
   9  19  21 780.820 45.7400   1
   9  21  19 725.620 48.9100   1
 -19   9  21 722.080 50.5200   1
  -9  19  21 713.830 51.2500   1
 -21   9  19 789.660 54.5000   1
 -21  19   9 618.070 59.1900   1
 -19  21   9 661.920 48.2600   1
 -21  21  -1 228.020 56.1300   1
 -21  21   1 156.210 47.6300   1
 -21   1  21 138.740 37.0100   1
 -21  -1  21 181.290 31.7800   1
 -21  21  -1 74.3200 37.6700   1
 -21  21   1 111.580 37.2400   1
 -22  16  12 435.650 53.4800   1
 -16  22  12 361.310 39.4900   1
 -22  12  16 340.580 37.1000   1
 -12  22  16 328.580 37.5200   1
   0  20  22 328.400 35.5100   1
  12  22  16 449.950 45.0900   1
   0  22  20 307.930 45.2300   1
  22  12  16 414.120 43.1600   1
  16  22  12 379.140 33.1800   1
  10   0  28 342.530 50.2800   1
   0 -10  28 432.740 53.8800   1
 -10  28   0 224.000 57.0300   1
 -12  26  -8 825.410 75.8800   1
 -26  12   8 893.670 55.1000   1
 -12  26   8 794.390 63.5000   1
  12  26   8 816.370 54.8100   1
 -26   8  12 870.460 50.4900   1
  -8  26  12 1096.00 64.6100   1
   8  26  12 833.020 53.1200   1
 -12 -16  22 384.090 44.9700   1
 -16 -12  22 434.820 47.3000   1
  16  12  22 415.200 42.7500   1
  12  16  22 299.570 34.6800   1
 -12  16  22 382.810 45.3200   1
 -16  12  22 387.020 37.4400   1
 -12   8  26 934.760 49.6400   1
  -8  12  26 917.680 49.6300   1
   8  12  26 857.660 53.6400   1
 -12  -8  26 830.850 48.2900   1
  12   8  26 703.860 44.9600   1
  26   8  12 841.480 49.5400   1
  -8 -12  26 974.780 60.5700   1
 -26  12   8 669.810 47.7100   1
  10  28   0 329.640 47.0900   1
  -8  28  -6 1648.29 108.930   1
 -28   8   6 1835.07 94.9300   1
 -28   6   8 1688.47 76.3100   1
   8  28   6 1776.70 80.6400   1
  -8  28   6 1605.66 72.2200   1
   6  28   8 1636.87 72.7900   1
  -6  28   8 1520.76 72.4600   1
  -6   8  28 1682.30 73.7500   1
  -8   6  28 1509.97 62.9500   1
   6   8  28 1508.43 63.0600   1
   8   6  28 1570.44 65.2600   1
  -8  -6  28 1691.91 74.6700   1
  -6  -8  28 1698.61 75.7600   1
 -28   8   6 1387.14 72.2000   1
 -28   6   8 1332.66 76.0600   1
 -28  10   0 516.370 71.4700   1
  10  28   0 425.950 62.0500   1
 -10  28   0 396.470 52.5700   1
 -20  22   0 332.260 48.3200   1
 -22  20   0 221.550 48.8400   1
 -20   0  22 327.820 40.3700   1
 -22   0  20 261.970 41.7600   1
 -20  22   0 369.340 65.0500   1
 -22  20   0 18.0300 68.9900   1
 -28   0  10 478.530 50.8600   1
   0  28  10 441.120 51.2800   1
   0  10  28 354.350 44.3600   1
 -10   0  28 373.570 47.8900   1
  -2 -10  28 72.7900 34.6100   1
  10  -2  28 116.090 36.2800   1
  10  28  -2 134.560 40.8800   1
 -10  28  -2 122.000 39.4100   1
 -10  28   2 3.33000 53.5100   1
 -20  22   2 42.0900 45.9700   1
 -22  20   2 45.6200 35.7700   1
 -26  14   4 383.270 40.1900   1
 -28  10  -2 58.2300 63.6500   1
 -10  28  -2 154.510 68.3200   1
  10  28   2 89.8800 34.2300   1
 -28  10   2 119.970 46.5900   1
  10  28   2 183.410 41.8000   1
 -20  22   2 56.7500 44.2500   1
  10   2  28 113.920 33.3400   1
  20   2  22 36.6400 39.9800   1
  -2  22  20 1.04000 30.2000   1
   2  20  22 0.00000 36.9500   1
 -14  26   4 380.540 53.5800   1
  -2  20  22 40.4600 38.2000   1
  14  26   4 375.730 47.1300   1
   2  22  20 67.9400 37.4100   1
 -20  22  -2 79.4000 74.0000   1
 -22  20  -2 7.02000 76.7300   1
 -10  28   2 83.4700 55.8000   1
 -28  -2  10 55.2400 41.6000   1
 -28   2  10 74.6300 44.5100   1
  -2  28  10 91.1600 32.7000   1
   2  28  10 74.7400 30.4800   1
  -2  10  28 56.9900 39.6200   1
 -10   2  28 112.160 43.4200   1
   2  10  28 105.070 45.0400   1
 -10  -2  28 115.230 44.5000   1
  -4  26  14 390.330 44.3100   1
 -26  14  -4 516.810 84.0100   1
 -14  26  -4 333.310 60.9100   1
  14  26   4 452.080 55.2400   1
 -26  14   4 334.400 62.2500   1
 -14  26   4 373.220 57.9700   1
 -26   4  14 400.040 43.0700   1
 -26  -4  14 453.440 41.0600   1
   4  26  14 464.990 37.6400   1
  -4  14  26 421.270 44.6300   1
 -14   4  26 397.850 44.5700   1
   4  14  26 410.830 48.2000   1
 -14  -4  26 408.120 43.4600   1
  14   4  26 448.700 45.9700   1
 -22   2  20 29.7100 35.4500   1
 -20   2  22 57.3900 37.4600   1
 -22  -2  20 39.6600 37.6100   1
 -20  -2  22 78.9500 36.6400   1
   1  23  19 335.260 35.1200   1
   7  29  -1 483.070 65.7000   1
 -23   1  19 232.350 37.7400   1
 -19  23   1 226.570 66.6900   1
 -23  19   1 255.200 49.0300   1
  19  23   1 245.170 39.3900   1
 -19  23   1 295.080 56.7900   1
 -23  19   1 332.570 52.5200   1
 -19  23  -1 264.450 67.7400   1
 -23  19  -1 325.410 57.3200   1
 -29   7  -1 500.870 72.2800   1
 -29   7   1 350.640 65.3600   1
   7  29   1 574.540 67.2200   1
 -29  -1   7 399.300 60.4200   1
  -7  29  -1 597.850 76.5500   1
 -21  15  15 -26.030 37.9300   1
 -23  -1  19 307.730 42.6400   1
 -21  -3  21 31.7500 38.2400   1
   3  21  21 15.5300 29.5300   1
 -21   3  21 -106.53 39.8700   1
  21   3  21 1.86000 39.7000   1
  -3  21  21 69.1800 31.6400   1
 -21  21   3 89.1300 57.7200   1
 -21  21  -3 43.9200 53.4200   1
  19  19  13 712.830 44.9000   1
  13  19  19 788.580 49.8700   1
 -19 -13  19 677.310 50.8200   1
 -15  15  21 -134.65 43.2000   1
 -13 -19  19 737.930 52.0700   1
  -1  29   7 666.580 53.6100   1
   1  29   7 533.540 75.7500   1
  -7  29   1 511.090 68.2600   1
 -29   1   7 494.760 60.5100   1
  -1  23  19 349.470 36.1500   1
 -15  21  15 5.20000 31.5100   1
  -1  19  23 290.910 45.3200   1
  15  21  15 0.28000 35.1400   1
  21  15  15 -18.360 29.4500   1
  15  15  21 2.95000 39.6500   1
 -15 -15  21 -19.970 35.5900   1
  19  13  19 763.930 48.7700   1
 -15 -21  15 24.3200 34.2000   1
 -19  19  13 705.450 46.6400   1
 -19  13  19 738.890 54.1700   1
   1  19  23 284.770 33.8800   1
 -19   1  23 295.500 34.4800   1
 -19  -1  23 288.570 45.0600   1
 -13  19  19 686.730 54.2900   1
 -19  23  -1 179.580 55.0900   1
 -21  21   3 10.4100 44.4200   1
  -7  29   1 512.570 46.3900   1
   7  29   1 481.510 44.1300   1
  -7  29  -1 488.460 55.7700   1
   7  29  -1 464.530 43.8200   1
  -1   7  29 500.650 40.5300   1
   5  -5  29 3105.26 111.800   1
  -5  -5  29 2987.95 99.4800   1
   5   5  29 3002.72 99.2100   1
  -5   5  29 3085.35 105.660   1
  -5  29   5 2820.24 103.460   1
   5  29   5 3233.19 118.090   1
 -29   5   5 3245.87 135.340   1
  -5  29  -5 3117.59 149.700   1
   1   7  29 427.940 39.8900   1
 -27   9   9 25.5700 32.2400   1
  -9  27   9 -27.900 33.9500   1
   9  27   9 -61.080 38.3000   1
  -9   9  27 -7.9200 30.6000   1
   9   9  27 11.4700 42.7600   1
  -9  -9  27 -24.010 39.4700   1
 -27   9   9 -22.280 41.2000   1
  -7   1  29 469.060 39.7100   1
   1  -7  29 434.310 52.8100   1
   7  -1  29 559.230 43.0200   1
  -1  -7  29 515.350 41.8800   1
   7   1  29 477.080 40.7100   1
  -7  -1  29 393.450 37.5300   1
   8  24  16 43.1400 28.0400   1
 -24  -8  16 3.74000 32.0300   1
  -8  24  16 -90.860 38.8600   1
 -24   8  16 40.5600 30.0800   1
  16  24   8 -12.000 29.0800   1
 -16  24   8 -50.240 50.8200   1
 -24  16   8 45.8200 36.4900   1
 -24  16   8 5.56000 33.4200   1
 -16  -8  24 -1.5600 36.3800   1
  16   8  24 14.7900 30.6500   1
  24   8  16 5.37000 37.4600   1
  -8 -16  24 13.7400 39.6600   1
   8  16  24 26.3600 36.8900   1
 -16   8  24 10.0100 29.5800   1
  -8  16  24 -52.780 38.0500   1
 -17   9  23 6.73000 37.4600   1
 -27  11   7 58.0400 40.4400   1
  27   7  11 -8.4400 34.8600   1
  -7 -11  27 3.38000 31.7700   1
 -11  -7  27 82.2100 39.6100   1
   7  11  27 16.9400 30.6900   1
 -11   7  27 19.1200 30.7800   1
  -7  11  27 -10.700 30.5400   1
   7  27  11 -32.580 38.6400   1
  -7  27  11 23.1300 31.6800   1
 -27   7  11 -33.510 42.0900   1
 -25  -7  15 61.8600 33.6600   1
   7  25  15 45.9400 28.2000   1
 -15   7  25 78.6100 43.2100   1
  -7  15  25 39.9100 31.4800   1
   7  15  25 110.010 42.6200   1
 -15  -7  25 53.3400 42.0500   1
  15   7  25 36.3600 31.3400   1
  25   7  15 58.1200 38.9200   1
  -7 -15  25 74.5400 33.2200   1
 -25  15   7 2.92000 45.8500   1
 -27   7  11 -13.590 36.2800   1
  11  27   7 51.0500 41.2700   1
 -11  27   7 16.2800 47.1400   1
 -27  11   7 47.9800 52.0700   1
  17   9  23 10.0000 30.0600   1
 -17  -9  23 -28.230 39.7400   1
   9  17  23 26.0500 36.7000   1
 -23  -9  17 -22.860 28.6300   1
  -9  17  23 -83.540 42.7800   1
   9  23  17 29.9800 27.9700   1
  -9  23  17 66.0600 45.5000   1
 -23   9  17 -19.020 41.5200   1
  17  23   9 8.13000 27.3000   1
 -17  23   9 -4.6000 44.1500   1
 -23  17   9 -54.400 49.2300   1
  -1  13  27 1724.62 71.4800   1
  -1  27  13 1532.56 63.8800   1
   1  27  13 1521.18 69.9100   1
 -27  -1  13 1509.96 75.5300   1
 -13 -17  21 6.24000 29.9100   1
 -17 -13  21 -42.110 27.6200   1
  21  13  17 -13.390 31.7900   1
  17  13  21 -9.6200 35.2100   1
  13  17  21 -2.4200 40.1900   1
  21  17  13 10.7200 30.5800   1
  13  21  17 43.9400 32.8600   1
  17  21  13 -15.720 32.0600   1
 -13  17  21 -32.760 39.6400   1
 -17  13  21 0.52000 38.4200   1
 -21  13  17 75.0900 31.4000   1
 -13  21  17 -48.170 45.1400   1
 -17  21  13 -15.880 41.9300   1
 -21  17  13 -96.520 45.1000   1
 -27   1  13 1595.40 74.6000   1
 -13  27   1 1739.58 95.8900   1
 -13  27  -1 1405.13 95.3500   1
 -27  13   1 1480.13 83.8100   1
  -3  -7  29 1307.46 67.4000   1
 -27  13  -1 1593.07 102.120   1
  13  27   1 1471.71 105.130   1
  11   7  27 17.5000 31.3800   1
 -11  27  -7 2.28000 58.1300   1
   7  29  -3 1565.26 92.6300   1
  -7  29  -3 1498.62 97.3500   1
 -29   7   3 1584.58 92.1300   1
 -29   3   7 1596.96 85.9200   1
   7  29   3 1457.13 83.4300   1
  -7  29   3 1497.72 84.1300   1
   3  29   7 1429.31 64.6900   1
  -3  29   7 1466.22 66.8500   1
  -3   7  29 1395.84 68.1000   1
  -7   3  29 1403.25 61.5000   1
   3   7  29 1459.21 66.6600   1
  -7  -3  29 1368.02 60.3800   1
   7   3  29 1457.52 67.4700   1
 -23  19   3 10.2400 55.7600   1
   7  -3  29 1370.22 67.1300   1
   3  -7  29 1432.92 73.0900   1
   7  29  -3 1393.40 66.8800   1
  -7  29  -3 1259.60 73.6600   1
  -7  29   3 1339.78 66.0300   1
   7  29   3 1395.10 74.6100   1
  19  23   3 -12.220 32.1100   1
 -19  23   3 86.5400 37.4100   1
 -23  19   3 -0.4600 44.1700   1
  19   3  23 -44.010 31.5800   1
 -19  -3  23 14.1300 28.8500   1
   3  19  23 -74.850 36.8300   1
  -3  19  23 -6.1500 30.3300   1
 -23  -3  19 -20.360 37.2700   1
   3  23  19 63.6100 37.6500   1
  -3  23  19 -31.310 43.9400   1
 -23   3  19 -1.4600 35.4900   1
 -19  23   3 18.6000 41.7700   1
 -19  23  -3 -51.090 65.6000   1
 -23  19  -3 -20.110 53.7300   1
 -13  27   1 1436.05 75.0300   1
 -15  25  -7 15.6000 57.9200   1
 -25  15   7 115.240 54.3300   1
 -15  25   7 49.4200 46.9900   1
  15  25   7 28.7400 31.6800   1
 -25   7  15 98.7300 30.2800   1
  -7  25  15 96.7500 40.3100   1
  13  27   1 1472.28 72.5000   1
 -13  27  -1 1318.06 72.6000   1
  13  27  -1 1295.44 61.8000   1
  13  -1  27 1549.55 66.1600   1
  13   1  27 1533.08 69.3800   1
 -13  -1  27 1543.46 63.7600   1
  23   9  17 6.80000 38.3500   1
 -19   3  23 -4.2300 40.3200   1
 -13   1  27 1694.54 68.1200   1
   1  13  27 1363.44 59.7600   1
 -23  17   9 88.6700 35.0400   1
  -9 -17  23 60.3200 41.0700   1
  20  10  20 410.830 42.3700   1
   0  30   0 65.9900 36.7800   1
   0   0  30 39.2300 32.3900   1
   0  30   0 170.340 59.8700   1
 -20 -10  20 428.940 41.0500   1
  10  20  20 283.550 33.8300   1
 -20  10  20 481.030 45.6800   1
 -10  20  20 380.360 46.0900   1
 -20  20  10 346.630 53.4500   1
 -20   4  22 143.180 38.1100   1
   4  22  20 160.190 31.5400   1
  -4  20  22 206.850 45.5100   1
 -22   4  20 131.840 29.9800   1
  -4  22  20 157.350 44.5700   1
 -20  22   4 119.300 42.7800   1
 -22  20   4 189.380 45.2400   1
 -20  22  -4 -16.280 79.2900   1
   0  18  24 538.260 40.7400   1
 -24   0  18 573.920 48.4700   1
   0  24  18 642.520 52.0500   1
 -24  18   0 480.840 57.8300   1
 -22  20  -4 70.1700 79.9600   1
 -18   0  24 504.100 40.1300   1
   4  10  28 86.9700 40.5200   1
 -10   4  28 100.060 38.2600   1
  10  -4  28 112.160 37.1300   1
  -4 -10  28 104.170 33.8100   1
 -28  10   4 201.680 60.8200   1
 -28   4  10 96.1300 40.5500   1
 -18  24   0 498.450 57.6100   1
  10  28   4 94.4100 35.2600   1
 -10  28   4 51.1400 38.0500   1
  -4  10  28 152.390 45.7900   1
   4  28  10 156.160 31.9900   1
  -4  28  10 89.1100 45.6600   1
 -28   4  10 157.000 41.1700   1
  10   4  28 58.1400 45.0000   1
  10  28   4 146.630 50.7800   1
 -10  28  -4 190.410 71.3700   1
 -10  28  -4 133.840 40.6200   1
  20  22   4 140.960 33.9800   1
 -20  22   4 103.120 51.2500   1
 -22  20   4 72.3700 45.9400   1
  22   4  20 142.890 45.6200   1
 -10  -4  28 94.8100 38.9400   1
  20   4  22 117.060 33.1200   1
 -20  -4  22 74.2800 29.0400   1
   4  20  22 164.620 43.1400   1
 -22  -4  20 174.980 36.5500   1
 -18  24   0 509.060 47.1100   1
  18  24   0 500.090 44.9300   1
 -10  28   4 45.4100 56.8400   1
  -2  18  24 186.940 32.0600   1
 -24  -2  18 201.340 30.1900   1
   2  24  18 180.860 40.3800   1
 -24   2  18 191.340 31.0300   1
 -18  24   2 182.150 63.8600   1
 -24  18   2 206.760 46.5900   1
 -18  24  -2 228.540 56.5100   1
 -24  18  -2 143.540 55.2800   1
 -16 -18  18 2532.14 99.3400   1
 -18 -16  18 2704.35 111.270   1
  18  16  18 2642.36 101.530   1
  16  18  18 2620.89 92.6300   1
  18  18  16 2996.51 109.050   1
 -16  18  18 2901.16 100.630   1
 -18  16  18 2674.91 92.3800   1
 -18  18  16 2647.82 97.4700   1
  -2  24  18 76.2700 39.2500   1
  18  24   2 210.440 37.4300   1
 -18  24   2 188.870 39.9500   1
 -24  18   2 238.250 49.1100   1
 -18  24  -2 203.420 40.7000   1
  18   2  24 195.420 35.3000   1
   0  30   2 16.9600 35.9000   1
  -2  30   0 9.57000 46.2300   1
   2  30   0 -41.210 35.5800   1
   0  30  -2 -1.9400 46.2200   1
   0  -2  30 -1.7300 31.9700   1
   2   0  30 -13.560 32.1600   1
  -2   0  30 29.9800 40.8200   1
   0   2  30 -25.880 31.0200   1
   0  30   2 -18.940 49.6800   1
  -2  30   0 -11.100 56.1200   1
   2  30   0 -6.5900 43.4900   1
   0  30  -2 -5.2300 48.7500   1
 -18  -2  24 139.740 43.9900   1
 -18   2  24 191.850 40.7200   1
   2  18  24 150.420 45.0600   1
 -27   3  13 621.360 52.0900   1
 -27  -3  13 514.840 43.6000   1
  -3  27  13 541.810 41.7200   1
  13  27   3 530.870 66.0600   1
 -13  27   3 465.560 46.3200   1
 -13  27  -3 498.940 48.8800   1
 -27  13   3 469.310 53.3100   1
 -13   3  27 525.010 40.3600   1
 -13  27  -3 760.350 81.7300   1
 -27  13  -3 491.040 63.4500   1
   3  27  13 473.400 38.1300   1
 -21  21   5 379.830 55.0200   1
 -13  -3  27 474.590 44.3500   1
  -5  21  21 444.140 45.2300   1
  -3  13  27 538.160 47.0600   1
  -3 -13  27 498.140 55.4700   1
  13   3  27 487.900 40.7600   1
  13  27   3 501.230 52.6900   1
  21   5  21 424.300 45.6600   1
 -21  -5  21 375.780 41.3000   1
   5  21  21 394.680 42.8700   1
 -21   5  21 445.670 43.1400   1
 -21  21   5 542.630 59.8800   1
 -21  21  -5 412.150 63.3500   1
   3  13  27 549.370 40.3700   1
 -13  27   3 480.550 51.0100   1
 -26   6  14 131.560 31.5600   1
 -14  26   6 105.980 39.3400   1
   2  -2  30 148.200 34.2400   1
   2   2  30 97.5400 32.8200   1
  -2  -2  30 69.9500 40.7700   1
  -2   2  30 142.480 46.0300   1
 -26  14   6 45.8600 54.1500   1
  14  26   6 106.400 36.9700   1
 -14  26  -6 41.2900 54.2000   1
 -26  14   6 112.540 47.1300   1
  10  18  22 29.7400 35.9300   1
 -22 -10  18 82.0000 31.6200   1
  10  22  18 27.9200 26.8300   1
 -18  10  22 62.7500 42.1700   1
 -10  18  22 -8.6400 30.4200   1
  -6 -14  26 174.170 47.3700   1
 -22  10  18 74.3900 42.3600   1
 -18  22  10 65.4100 34.8900   1
 -22  18  10 58.6100 41.8200   1
 -10  22  18 60.4900 40.5100   1
  22  10  18 59.2500 27.8700   1
  14   6  26 48.9700 31.2000   1
 -14  -6  26 56.0200 30.3500   1
   6  14  26 133.240 31.6900   1
 -14   6  26 95.5200 31.9900   1
 -10 -18  22 37.9700 45.4800   1
  -6  14  26 98.6600 31.3700   1
  18  10  22 55.4900 36.6100   1
 -18 -10  22 26.7500 35.2400   1
   6  26  14 92.9600 35.9500   1
  -6  26  14 143.560 45.0300   1
 -14  26   6 7.97000 47.7800   1
  26   6  14 66.2200 28.3200   1
  -2  30  -2 68.8100 46.8000   1
   2  30  -2 149.090 52.7200   1
   2  30   2 63.2600 36.5000   1
  -2  30   2 120.190 47.7500   1
   2  30  -2 167.690 50.2000   1
  -2  30  -2 129.930 50.1900   1
   2  30   2 42.5800 50.5400   1
  -2  30   2 138.730 52.7200   1
  20  16  16 1081.84 57.9200   1
  16  16  20 1163.65 61.0400   1
 -28   8   8 807.300 54.0100   1
 -16 -16  20 1040.11 53.4100   1
 -16 -20  16 1032.90 59.8300   1
  -8   8  28 785.860 47.0000   1
   8  28   8 825.240 57.1500   1
 -28   8   8 716.820 53.8800   1
  -8  -8  28 684.070 51.4000   1
   8   8  28 793.130 52.0700   1
 -16  20  16 1062.49 63.2400   1
 -20  16  16 950.300 51.7200   1
 -16  16  20 1092.19 54.4100   1
  16  20  16 1224.03 58.6600   1
  -8  28   8 805.130 63.3500   1
   5  29   7 3036.91 119.030   1
  -7   5  29 2756.67 93.1400   1
  -5   7  29 2539.38 87.7000   1
  11  25  13 4397.31 163.670   1
 -13  11  25 4051.33 131.360   1
  13  25  11 4137.39 139.000   1
 -11  25  13 4153.11 129.620   1
 -23  19   5 297.630 55.4700   1
 -25  11  13 3720.11 120.030   1
 -13  25  11 4229.00 140.210   1
 -25  13  11 4272.92 143.990   1
 -11  13  25 4143.10 130.350   1
  11  13  25 3931.38 125.930   1
  13  11  25 4140.00 128.820   1
  25  11  13 4150.99 147.240   1
 -13 -11  25 4013.50 135.810   1
 -11 -13  25 4222.51 142.520   1
   5   7  29 3070.11 105.190   1
   7   5  29 2837.40 100.950   1
  -7  -5  29 2854.11 97.0800   1
  -5  -7  29 2672.96 93.7700   1
   5  -7  29 2988.37 111.500   1
 -19  23   5 182.860 39.9100   1
 -23  19   5 304.530 48.7100   1
  23   5  19 250.600 35.7100   1
  19   5  23 258.350 46.9000   1
 -19  -5  23 221.900 38.5000   1
   5  19  23 229.020 32.9100   1
 -19   5  23 239.590 33.5400   1
 -17   1  25 616.970 42.4800   1
   7  -5  29 2912.85 103.240   1
  -7  29   5 2475.92 102.260   1
 -23  19  -5 267.150 76.0200   1
 -19  23  -5 289.350 62.1900   1
  -7  29   5 3046.17 113.860   1
   7  29   5 3040.08 123.710   1
 -29   5   7 3015.54 118.010   1
 -29   7   5 2914.10 119.750   1
  -7  29  -5 2879.04 126.020   1
  -5  29  -7 3067.49 136.770   1
 -19  23   5 300.210 45.4100   1
 -23   5  19 261.910 34.7300   1
  -5  23  19 220.920 34.7800   1
   1  17  25 618.070 42.0000   1
  -1  17  25 585.210 47.7400   1
   1  25  17 596.300 41.7600   1
 -25  -1  17 611.270 45.4700   1
  -1  25  17 540.170 40.6600   1
 -25   1  17 613.150 49.8500   1
 -17  25   1 424.690 64.4900   1
 -17  25  -1 639.290 63.0600   1
 -25  17   1 647.980 71.9200   1
 -25  17  -1 701.040 67.4300   1
   5  23  19 257.480 33.6400   1
 -23  -5  19 245.960 36.7700   1
  -5  19  23 265.020 34.5900   1
 -17  -1  25 535.430 40.0700   1
  17   1  25 541.330 52.7400   1
 -17  25  -1 512.140 53.7800   1
  17  25   1 526.590 48.6800   1
 -17  25   1 775.650 65.1200   1
  -5  29   7 2919.89 112.670   1
   0  -4  30 420.460 45.6400   1
   4   0  30 425.980 39.8000   1
  -4   0  30 371.870 45.8600   1
   0   4  30 452.350 50.6300   1
   0  30   4 473.260 54.8500   1
  -4  30   0 331.520 62.1300   1
   4  30   0 456.860 71.1200   1
   0  30  -4 379.980 70.9400   1
 -30   0   4 525.480 67.3800   1
 -24  18   4 4.61000 40.6100   1
 -18  24  -4 -60.680 55.0200   1
 -24  18   4 -8.8100 47.0400   1
  24   4  18 42.3300 38.7000   1
 -24  18  -4 -28.020 54.0000   1
 -18  24   4 44.0700 41.9000   1
  -4  30   0 484.680 59.5700   1
   0  30   4 465.870 45.5100   1
  18  24   4 39.0000 34.4400   1
  -4  18  24 35.1500 43.3300   1
 -18   4  24 -29.720 36.9000   1
 -18  24   4 -46.100 51.4200   1
   4  24  18 48.6500 40.5200   1
 -12 -14  24 3778.52 129.230   1
 -14 -12  24 3848.71 127.650   1
  24  12  14 3493.58 122.390   1
  14  12  24 3910.74 123.940   1
  12  14  24 3891.71 128.850   1
 -14  12  24 3647.65 117.530   1
 -12  14  24 3578.45 113.130   1
  12  24  14 3958.54 133.940   1
  14  24  12 3915.54 134.810   1
 -12  24  14 3823.42 122.850   1
 -24  12  14 3712.32 120.880   1
 -14  24  12 3260.90 113.750   1
 -24  14  12 3799.08 122.900   1
   0  30  -4 272.550 58.1300   1
 -24  -4  18 123.810 37.2900   1
  -4  24  18 -17.200 30.3200   1
   4  30   0 433.840 56.5500   1
   4  18  24 18.9600 29.7000   1
 -18  -4  24 -8.9900 36.2100   1
  18   4  24 15.8400 39.4100   1
 -24   4  18 20.8100 34.0000   1
 -18  14  20 643.970 50.0300   1
 -14  18  20 603.690 49.9000   1
 -14  20  18 670.390 45.3200   1
 -20  14  18 690.000 54.6800   1
 -20  18  14 720.860 53.7900   1
  -4  30  -2 955.740 86.0200   1
   4  30  -2 930.260 84.5600   1
  -2  30  -4 900.650 83.6900   1
 -30   2   4 944.530 78.4900   1
 -30   4   2 764.150 69.0300   1
   2  30  -4 850.550 71.5700   1
  -6  10  28 400.420 38.7900   1
 -22  20  -6 482.400 89.4500   1
 -20  22  -6 591.480 89.7200   1
  -4  30  -2 870.760 66.8600   1
   2  30  -4 831.290 54.3200   1
   4  30  -2 798.200 52.6600   1
  -2  30  -4 809.320 65.5700   1
   4  -2  30 844.710 49.5700   1
   2  -4  30 927.200 51.0900   1
  -2  -4  30 817.880 53.9400   1
   4   2  30 970.460 57.6600   1
 -26  12  10 2309.45 92.7000   1
 -26  10  12 2478.49 93.9200   1
 -12  26  10 2352.62 91.7500   1
  12  26  10 2522.45 103.490   1
 -10  26  12 2467.49 88.6300   1
  10  26  12 2379.48 91.6100   1
 -10  12  26 2394.30 90.4200   1
 -12  10  26 2256.18 82.9300   1
  10  12  26 2307.79 82.2200   1
 -12 -10  26 2391.79 87.5300   1
 -10 -12  26 2403.21 96.0800   1
 -26  12  10 2172.62 97.8800   1
  -4  -2  30 763.350 52.6900   1
   2   4  30 714.460 57.2500   1
  12  10  26 2205.21 85.3800   1
   4  30   2 803.770 52.2300   1
  -4  30   2 918.090 63.5600   1
 -10  28  -6 236.850 82.5500   1
 -28  10   6 425.080 47.2300   1
  10  28   6 421.820 51.4900   1
 -10  28   6 426.770 45.7200   1
 -28   6  10 479.290 53.4700   1
  -6  28  10 327.110 47.6900   1
   6  28  10 473.310 44.8400   1
 -10   6  28 365.910 44.2600   1
   6  10  28 420.940 38.8300   1
 -10  -6  28 370.900 38.1900   1
  10   6  28 339.460 48.2000   1
  -6 -10  28 367.990 38.9400   1
  28   6  10 399.380 44.2600   1
 -28  10   6 311.530 36.9200   1
 -28   6  10 326.960 43.3100   1
  -2   4  30 949.910 56.4400   1
  -4   2  30 817.210 47.9400   1
   2  30   4 959.350 65.4200   1
  -2  30   4 818.330 54.9500   1
  -4  30   2 677.540 56.5500   1
   4  30   2 921.350 67.7100   1
 -20  22   6 356.470 42.3100   1
 -22  20   6 382.250 55.1700   1
  22   6  20 468.740 39.8000   1
  20   6  22 457.570 45.1400   1
 -20  -6  22 491.490 47.8300   1
 -22  -6  20 470.500 41.2300   1
   6  20  22 513.350 44.3400   1
 -20   6  22 479.560 39.0800   1
   6  22  20 507.550 44.1900   1
  -6  20  22 444.840 38.9500   1
 -22   6  20 483.570 38.5600   1
  -6  22  20 462.180 38.8700   1
 -22  20   6 420.900 56.3200   1
 -14 -20  18 641.690 45.3100   1
 -20  22   6 487.620 57.0400   1
   2  30   4 882.500 54.8100   1
  -2  30   4 878.190 66.3900   1
 -18  20  14 681.610 52.9000   1
 -14 -18  20 697.560 51.1900   1
 -18 -14  20 589.340 41.7100   1
  20  14  18 685.150 46.6900   1
  18  14  20 607.620 40.7400   1
 -20 -14  18 734.190 50.5500   1
  14  18  20 603.500 49.6500   1
  14  20  18 677.000 41.4100   1
  20  18  14 644.180 43.2800   1
  18  20  14 638.820 43.8400   1
   9  29   1 26.2100 33.3000   1
  -9  29   1 30.3300 49.0000   1
   9  29  -1 25.9900 33.9900   1
  -9  29  -1 -31.260 53.7200   1
  -1  29   9 9.71000 31.6600   1
   1  29   9 -27.380 38.7000   1
 -29   1   9 -66.620 40.3100   1
 -29  -1   9 -22.640 46.1400   1
  -9  29   1 49.3200 43.8300   1
  -9  29  -1 80.1000 60.9900   1
 -29   9   1 -38.380 58.4100   1
   9  29  -1 85.5300 46.2100   1
 -21  11  19 97.0700 43.7700   1
 -17  25  -3 -28.540 55.4500   1
 -25  17  -3 110.250 56.5700   1
 -25  17   3 39.6600 43.8500   1
 -11  21  19 53.7000 31.5500   1
  15  23  13 1958.48 80.5100   1
  11  21  19 45.4000 28.0600   1
 -17  25   3 74.5900 59.6600   1
 -29   9  -1 50.2000 50.1500   1
 -17  25   3 81.1000 37.8000   1
  17  25   3 67.3300 41.3200   1
 -23  15  13 1727.12 78.1900   1
 -25  17   3 72.4900 33.7100   1
 -21 -11  19 52.4200 31.8600   1
  21  11  19 52.3600 38.6700   1
   9  29   1 38.2500 51.7500   1
 -15  23  13 1696.32 70.0200   1
 -27  13   5 45.3200 39.8800   1
 -13  27   5 14.4300 53.0500   1
   1  -9  29 -39.200 34.3300   1
  -1  -9  29 -55.860 42.8600   1
   9  -1  29 -46.810 47.3200   1
   9   1  29 -3.5600 41.6500   1
  -9  -1  29 1.18000 30.7000   1
  -9   1  29 41.2300 31.3100   1
   1   9  29 -62.050 39.6400   1
 -23  13  15 1743.11 70.3900   1
 -13  23  15 1678.08 76.2400   1
  13  23  15 1611.10 64.9000   1
 -13  15  23 1664.13 71.6100   1
 -15  13  23 1764.63 69.6500   1
  13  15  23 1724.68 71.7000   1
  23  13  15 1749.72 82.3200   1
  15  13  23 1871.18 75.7800   1
 -15 -13  23 1792.88 80.8800   1
 -13 -15  23 1807.40 83.8300   1
 -11 -19  21 77.5400 40.6200   1
  19  11  21 89.9700 29.5800   1
 -19 -11  21 37.5300 38.2400   1
  11  19  21 44.6000 36.8300   1
 -11  19  21 70.4900 43.8100   1
 -19  11  21 36.0200 29.9100   1
 -21  19  11 62.3000 34.4000   1
 -19  21  11 90.6300 43.9500   1
  -1   9  29 -28.700 39.4300   1
 -25   3  17 90.5800 28.8300   1
 -25  -3  17 69.8500 33.2600   1
  -3  25  17 122.450 31.9900   1
   3  25  17 63.5700 29.1300   1
  -3  17  25 128.930 44.9300   1
 -17   3  25 -16.210 42.8200   1
   3  17  25 31.0200 42.7500   1
 -17  -3  25 29.7100 41.4200   1
  17   3  25 8.85000 44.9300   1
 -13  27  -5 133.360 73.1100   1
 -27  13   5 171.720 53.3400   1
 -13  27   5 82.1100 50.5600   1
 -27   5  13 33.6200 37.1000   1
  -5  27  13 2.97000 31.8200   1
   5  27  13 26.1700 39.1100   1
  -5  13  27 36.5900 31.7000   1
 -13   5  27 10.3200 30.1900   1
   5  13  27 7.97000 43.4500   1
 -13  -5  27 93.6100 43.4600   1
  13   5  27 61.2400 31.8300   1
  -5 -13  27 73.2000 46.8200   1
  12   0  28 754.720 47.6900   1
  12  28   0 850.660 72.3200   1
 -28  12   0 795.400 78.8200   1
 -12  28   0 810.260 64.3700   1
 -28   0  12 842.220 60.5400   1
   0  28  12 817.850 47.5700   1
   0  12  28 812.240 47.4800   1
  12  28   0 764.320 49.6100   1
 -12  28   0 677.890 64.3000   1
 -27  11   9 402.150 40.9400   1
 -27   9  11 362.020 50.0800   1
 -11  27   9 386.800 49.9600   1
 -27  11   9 424.280 56.3400   1
   9  29   3 326.740 51.3600   1
  -9 -11  27 366.450 50.6700   1
 -25  15   9 589.660 56.5400   1
 -21  21  -7 345.450 65.5800   1
  -7  21  21 367.250 47.8100   1
 -21  21   7 355.360 52.1500   1
 -21   7  21 384.790 36.7600   1
   7  21  21 400.110 43.0300   1
 -21  -7  21 381.680 35.5700   1
  21   7  21 350.950 47.0900   1
 -21  21   7 333.860 41.6600   1
 -25  15   9 647.660 50.0000   1
   9  -3  29 456.930 51.1200   1
 -15  25   9 512.090 45.9600   1
  -9 -15  25 636.620 56.0600   1
  -3   9  29 360.010 38.1800   1
   3  29   9 396.040 45.1900   1
  -3  29   9 395.260 48.2800   1
 -29   3   9 383.110 50.1600   1
  -9  29   3 336.210 48.2500   1
 -25   9  15 708.530 51.3300   1
  25   9  15 686.590 47.3300   1
  15   9  25 705.370 54.4500   1
 -15  -9  25 685.350 49.5300   1
   9  15  25 725.810 50.1500   1
 -15   9  25 704.150 52.8400   1
  -9  15  25 630.500 49.8800   1
   9  25  15 706.910 47.8300   1
  -9  25  15 703.450 57.5900   1
 -11  -9  27 365.360 38.2300   1
  11   9  27 361.460 47.9200   1
   9  11  27 389.210 45.5900   1
  -9  11  27 357.500 45.3300   1
 -11   9  27 409.200 38.7500   1
  -9  29  -3 490.990 74.8400   1
 -29   9   3 579.970 73.8900   1
   9  29   3 361.670 48.3800   1
  -9  29   3 396.650 46.1700   1
  -9  29  -3 359.770 44.2400   1
   9  29  -3 368.840 41.6900   1
   3  -9  29 473.780 44.4000   1
  15  25   9 575.390 44.3800   1
   9  27  11 505.280 44.0800   1
  -3  -9  29 440.990 40.8900   1
   9   3  29 345.970 46.4800   1
  -9  -3  29 472.250 40.2300   1
   3   9  29 441.330 39.4400   1
  -9   3  29 363.050 37.3000   1
  -9  27  11 411.870 41.1100   1
  11  27   9 522.430 45.1900   1
 -27   9  11 399.600 40.5100   1
   4  30   4 2143.83 106.180   1
  -4  30   4 2112.89 93.7600   1
 -30   4   4 2085.55 111.540   1
  -4  30  -4 1752.32 86.0100   1
   4  30   4 1871.75 78.4000   1
  -4  30   4 1928.24 80.0900   1
   4  30  -4 2272.79 116.560   1
  -4  30  -4 2064.05 106.880   1
   4   4  30 2153.44 85.4700   1
  -4  -4  30 2117.81 78.5500   1
   4  -4  30 1962.54 75.4300   1
 -16  24  10 516.270 53.0500   1
  16  24  10 556.690 45.5500   1
  10  16  24 417.440 37.7800   1
 -16  26   0 727.750 53.0100   1
  16  26   0 705.870 50.4100   1
  16   0  26 791.620 49.4500   1
 -16   0  26 708.750 50.1600   1
   0  16  26 855.860 55.2300   1
 -28  12  -2 382.660 60.0900   1
  12  28   2 447.450 64.5900   1
 -28  12   2 413.850 72.7700   1
 -12  28  -2 606.100 76.5100   1
 -12  28   2 455.040 52.0300   1
 -28  -2  12 390.280 42.8100   1
 -28   2  12 341.120 42.9600   1
   2  28  12 464.850 48.7800   1
  -2  28  12 302.760 47.5800   1
  -2  12  28 377.590 37.7800   1
   2  12  28 355.720 37.4800   1
 -12   2  28 313.300 35.7400   1
 -12  -2  28 404.920 37.8500   1
  12   2  28 354.890 45.2000   1
  -2 -12  28 255.930 51.0900   1
  12  -2  28 361.780 40.3500   1
 -24  10  16 431.980 49.6500   1
 -10  24  16 550.540 43.3100   1
  10  24  16 624.600 49.4600   1
 -16  10  24 497.850 39.6900   1
 -10  16  24 510.670 51.8900   1
 -24  16  10 548.550 57.8600   1
 -16 -10  24 554.680 47.6100   1
  16  10  24 608.240 42.8000   1
  24  10  16 502.420 38.1400   1
 -10 -16  24 664.630 52.8300   1
  -4   4  30 1996.90 82.1100   1
 -26  16   0 860.360 79.4700   1
 -16  26   0 800.320 65.4100   1
 -26   0  16 802.760 53.5500   1
   0  26  16 757.080 53.7900   1
 -12  28   2 351.480 43.8200   1
  12  28   2 316.150 49.8100   1
 -12  28  -2 324.810 42.7700   1
  12  28  -2 302.810 51.0700   1
 -26  14   8 349.200 50.2200   1
  14  26   8 345.010 41.1100   1
 -14  26   8 375.820 43.4000   1
 -26   8  14 331.640 37.0900   1
  -8  26  14 285.730 44.8000   1
   8  26  14 372.520 44.7900   1
  -8  14  26 391.210 39.0400   1
 -26  -2  16 324.470 38.9400   1
 -14  -8  26 433.810 39.9000   1
  14   8  26 365.090 38.0700   1
 -16  22  14 146.410 48.8800   1
 -22  16  14 121.370 45.9300   1
   8  14  26 261.970 46.6500   1
 -30   6   0 725.890 79.9600   1
 -16  26  -2 284.050 59.0800   1
 -26  16  -2 304.710 58.6400   1
   2  26  16 350.760 42.3300   1
 -22  14  16 75.0700 32.7500   1
 -14  22  16 142.030 35.0800   1
  16  22  14 119.820 27.4300   1
 -16  14  22 176.590 41.8000   1
 -14  16  22 102.210 42.2600   1
  14  22  16 78.3400 38.0900   1
  22  16  14 118.270 34.4000   1
  26   8  14 394.230 41.2800   1
  22  14  16 175.370 37.9500   1
  16  14  22 149.240 30.7100   1
 -16 -14  22 101.120 42.5000   1
 -24  18   6 151.310 49.2300   1
  24   6  18 341.970 44.0800   1
  18   6  24 268.670 35.9900   1
 -18  -6  24 265.520 34.5500   1
   6  18  24 334.410 35.8200   1
 -18   6  24 250.470 34.5700   1
  -6  18  24 271.700 46.7200   1
 -24  -6  18 283.000 32.2200   1
   6  24  18 312.480 40.5200   1
  -6  24  18 350.270 49.4100   1
 -24   6  18 380.820 46.3400   1
 -18  24   6 246.530 60.6500   1
 -14 -16  22 113.870 32.4200   1
 -24  18  -6 267.640 63.0600   1
 -18  24  -6 301.830 62.7900   1
 -24  18   6 275.440 60.2800   1
  -2  26  16 302.930 46.9500   1
  -8 -14  26 360.990 39.9000   1
 -26   2  16 294.720 43.1700   1
 -14   8  26 471.800 40.8200   1
 -16  26   2 317.260 67.8100   1
 -26  16   2 252.120 60.9300   1
  -2  16  26 315.120 44.1300   1
 -26  14   8 294.290 40.0700   1
   2  16  26 375.950 37.4700   1
 -16   2  26 245.540 35.0100   1
 -16  -2  26 378.920 47.7200   1
  16   2  26 316.410 38.1600   1
 -30   0   6 887.820 80.4500   1
   6  30   0 908.960 78.6400   1
 -16  26  -2 291.930 44.4500   1
  16  26   2 327.740 46.7100   1
   6  30   0 775.720 52.7000   1
  -6  30   0 821.080 56.2900   1
   0  -6  30 800.780 51.1200   1
   6   0  30 949.270 60.1900   1
  -6   0  30 907.400 61.8000   1
   0   6  30 837.190 50.7000   1
   0  30   6 851.200 54.9600   1
  -6  30   0 929.450 76.3800   1
 -16  26   2 352.110 57.8500   1
 -14  26  -8 185.750 63.0100   1
  14  16  22 120.370 30.9400   1
 -19  23  -7 349.440 64.8900   1
 -11 -17  23 314.190 45.3600   1
  23  11  17 337.230 43.0600   1
  17  11  23 295.120 35.6300   1
 -17 -11  23 260.350 41.0200   1
  11  17  23 288.660 45.4200   1
 -11  17  23 282.800 36.3600   1
 -17  11  23 362.220 47.9400   1
  11  23  17 376.660 44.4700   1
 -11  23  17 316.520 37.8500   1
 -23  11  17 288.340 42.9700   1
 -17  23  11 346.820 49.0100   1
   7  -7  29 2635.06 103.630   1
  -7  -7  29 2633.86 103.050   1
   7   7  29 2654.54 100.370   1
  -7   7  29 2632.01 102.980   1
   7  29   7 3004.91 125.430   1
  -7  29   7 2735.27 109.800   1
 -29   7   7 2625.68 112.640   1
  -7  29  -7 2833.67 133.760   1
 -23  17  11 247.950 38.7900   1
 -17 -17  19 2967.40 119.730   1
  17  17  19 2886.91 108.520   1
  19  17  17 2989.37 116.320   1
  17  19  17 3145.16 122.730   1
 -17  17  19 3355.22 123.880   1
 -19  17  17 3070.82 117.850   1
 -17  19  17 3187.43 119.370   1
  -5  17  25 107.880 39.0900   1
  23   7  19 340.290 36.5900   1
 -17  25   5 11.2700 53.0700   1
 -25  17   5 51.4300 34.3700   1
  25   5  17 52.3700 37.3200   1
  17   5  25 83.5500 40.0000   1
 -17  -5  25 77.9900 30.2400   1
   5  17  25 50.2600 30.2500   1
 -17   5  25 142.730 39.2500   1
 -25  -5  17 60.4600 31.9100   1
   5  25  17 106.880 41.2600   1
  -5  25  17 59.1300 43.2500   1
 -17  25   5 70.8800 41.1300   1
 -25  17   5 161.110 42.8000   1
 -17  25  -5 -64.390 57.0700   1
 -25  17  -5 30.5300 57.4900   1
 -25   5  17 93.9700 35.8600   1
 -19  23   7 316.230 50.7600   1
 -23  19   7 303.530 53.5800   1
  19   7  23 313.220 43.5100   1
 -19  -7  23 357.250 41.9900   1
   7  19  23 381.520 37.4200   1
 -23  -7  19 374.090 39.3000   1
  -7  19  23 305.510 42.2100   1
 -19   7  23 369.850 43.6500   1
   7  23  19 308.890 35.0000   1
 -23   7  19 356.250 36.4900   1
  -7  23  19 335.600 49.0100   1
 -23  19   7 339.660 43.4600   1
 -19  23   7 359.340 44.7400   1
  -6  -2  30 1356.14 71.7800   1
   2  30   6 1338.69 74.6900   1
   6  30   2 1225.76 74.5000   1
   6  -2  30 1195.14 60.4200   1
   6   2  30 1466.84 74.7400   1
  -2  -6  30 1584.17 79.2100   1
   2   6  30 1365.91 64.5300   1
  -6   2  30 1406.74 73.8100   1
  -2   6  30 1402.55 65.8100   1
  -6  30  -2 1241.68 66.6700   1
   2  -6  30 1398.31 66.2000   1
   6  30  -2 1202.50 72.5100   1
   6  30  -2 1391.85 102.740   1
  -6  30   2 1262.43 77.6300   1
   6  30   2 1420.38 84.7800   1
  -2  30  -6 1299.25 90.6500   1
 -30   6   2 1324.81 93.3700   1
 -30   2   6 1327.59 93.0100   1
  -6  30  -2 1227.49 88.8800   1
  -6  30   2 1444.32 88.2000   1
  -2  30   6 1440.14 71.8400   1
  12  28   4 32.8600 45.5400   1
  12  28   4 24.9200 41.0200   1
 -12  28  -4 30.6600 78.6300   1
 -20  12  20 153.640 32.8200   1
  -4 -12  28 -70.140 40.5500   1
 -20  20  12 103.480 48.0700   1
 -12  20  20 114.520 32.9500   1
  12  20  20 107.830 36.4800   1
 -20 -12  20 108.560 33.8800   1
  20  12  20 98.9900 35.3800   1
 -12 -20  20 39.3700 45.5500   1
 -28  12   4 28.1600 41.2200   1
 -12  28   4 192.410 59.5300   1
 -28   4  12 -7.4200 29.2400   1
  -4  28  12 49.9800 40.7800   1
   4  28  12 34.5000 36.7100   1
 -12  28   4 -20.780 48.7600   1
  -4  12  28 43.6200 31.3200   1
   4  12  28 -84.660 42.8700   1
 -12  -4  28 32.8900 39.8000   1
  12   4  28 17.0300 45.3500   1
 -12   4  28 -32.120 38.6300   1
 -13  -7  27 35.5100 39.2700   1
  13   7  27 22.4100 31.5300   1
  -7 -13  27 32.0100 45.0600   1
  15  19  19 1520.59 68.4300   1
  19  15  19 1537.44 73.2500   1
 -19 -15  19 1515.42 76.4500   1
 -29   9   5 1306.56 74.9200   1
 -13   7  27 1.34000 39.9400   1
  -9  29  -5 1609.50 96.4500   1
   9  29   5 1241.82 67.9000   1
  27   7  13 83.5900 37.8700   1
 -19  19  15 1486.52 69.4700   1
 -19  15  19 1497.14 68.3400   1
 -15 -19  19 1558.22 77.3800   1
 -15  19  19 1493.37 72.5700   1
 -29   5   9 1439.86 75.3600   1
  19  19  15 1519.63 70.7700   1
   9   5  29 1255.93 61.2700   1
 -27  13   7 32.0300 48.4400   1
  13  27   7 61.8400 36.1300   1
  -5  -9  29 1308.03 71.5300   1
 -13  27   7 96.6700 39.0200   1
 -27   7  13 11.1200 43.2900   1
  -9  29   5 1137.05 75.7600   1
 -27  13   7 86.7900 41.3400   1
  -7  27  13 56.2600 32.7600   1
   7  27  13 35.5900 39.1500   1
 -13  27  -7 -41.930 73.4800   1
   9  -5  29 1379.59 73.4200   1
  -7  13  27 40.7900 31.2100   1
  -9  29   5 1467.74 80.3100   1
  -5  29   9 1230.92 63.6700   1
   5  29   9 1252.04 62.8800   1
  -5   9  29 1274.73 62.0500   1
   7  13  27 106.580 31.5300   1
  -9   5  29 1384.90 64.7600   1
   5   9  29 1301.33 67.6100   1
  -9  -5  29 1278.38 62.4900   1
 -28  10   8 77.5900 32.2400   1
 -28   8  10 54.4700 38.0700   1
  20   8  22 162.520 32.8100   1
  22   8  20 137.350 42.6200   1
 -20  -8  22 173.130 30.8800   1
   8  20  22 251.120 39.9700   1
 -22  -8  20 216.410 36.8700   1
   8  22  20 228.400 42.8500   1
  -8  20  22 179.260 34.0200   1
 -20   8  22 225.940 44.9300   1
 -22   8  20 219.530 34.0100   1
  -8  22  20 210.820 34.9000   1
 -20  22   8 203.280 48.6600   1
 -22  20   8 178.680 39.5900   1
 -22  20   8 212.400 46.0900   1
 -20  22   8 232.410 54.6900   1
   8  28  10 68.0800 36.5900   1
  -8  10  28 5.32000 40.6400   1
 -10   8  28 18.7200 40.1600   1
   8  10  28 34.5400 40.1600   1
  10   8  28 140.110 45.7400   1
 -10  -8  28 111.010 33.0000   1
  -8 -10  28 134.420 34.5000   1
  -8  28  10 0.12000 43.1400   1
 -10  28   8 86.6900 51.2100   1
 -26  16  -4 -20.080 52.7100   1
 -16  26  -4 18.6900 56.7500   1
 -26  16   4 -48.940 41.2700   1
 -16  26   4 77.2300 42.2100   1
 -26   4  16 4.66000 40.1300   1
 -26  -4  16 -24.630 30.5900   1
  -4  26  16 62.6000 43.6200   1
   4  26  16 59.0500 29.3900   1
  -4  16  26 64.6900 38.9200   1
 -16   4  26 97.2700 38.1200   1
   4  16  26 -70.660 41.6800   1
 -16  -4  26 17.6600 29.7000   1
  16   4  26 -21.640 30.8700   1
 -26  16   4 76.1900 46.6600   1
 -16  26   4 -22.260 37.9200   1
  16  26   4 -21.070 37.9200   1
 -28  10   8 89.5600 37.2500   1
 -28   8  10 73.1900 46.5900   1
  10  28   8 61.4100 38.1000   1
 -22  12  18 -26.370 42.7400   1
 -12  22  18 44.6500 46.1700   1
 -12  18  22 52.5900 30.9100   1
 -18  12  22 12.9400 30.5100   1
  12  22  18 73.1400 34.9200   1
  12  18  22 34.7900 28.9800   1
 -18 -12  22 67.1500 40.7800   1
  22  12  18 13.7800 33.1800   1
  18  12  22 83.5600 29.5700   1
 -12 -18  22 79.6900 40.2800   1
   6  30   4 2765.52 118.400   1
   6  -4  30 2474.62 99.5600   1
   4  -6  30 2848.74 110.410   1
  -6  30  -4 2518.04 104.260   1
  -6  30   4 2474.80 101.330   1
  -4  30  -6 2867.95 150.320   1
  -6  30  -4 3065.48 146.940   1
 -30   6   4 3060.34 139.640   1
 -30   4   6 3253.07 149.870   1
   6  30   4 2949.67 138.690   1
  -6  30   4 2842.09 125.970   1
  -4  30   6 3012.45 123.690   1
  -4  -6  30 2842.50 106.990   1
   4  30   6 2658.17 107.840   1
 -18  22  12 -6.1400 33.6900   1
  -6   4  30 2709.16 107.760   1
  -4   6  30 2550.10 98.4800   1
   4   6  30 2869.35 106.470   1
 -22  18  12 76.4600 34.5800   1
  -6  -4  30 2756.35 109.040   1
   6   4  30 2693.55 101.630   1
 -15  27  -1 509.050 61.3800   1
 -15  27   1 612.600 73.2600   1
 -27  -1  15 428.460 43.1900   1
 -27   1  15 453.760 47.3500   1
   1  27  15 573.360 48.7500   1
  -1  27  15 521.470 41.3100   1
  -1  15  27 534.500 51.5200   1
   1  15  27 523.210 46.8000   1
 -15  21  17 416.730 52.3100   1
 -15  -1  27 460.530 39.5700   1
  15   1  27 452.860 53.5400   1
  15  -1  27 465.020 42.8800   1
 -21  15  17 345.260 38.6700   1
 -17  15  21 393.440 39.8400   1
 -15  17  21 384.520 39.7100   1
  17  21  15 401.750 35.4500   1
  15  21  17 420.940 41.0500   1
  15  27  -1 359.310 49.6700   1
 -17  21  15 385.480 40.9100   1
 -21  17  15 378.180 46.5700   1
  15  17  21 356.390 35.7100   1
  21  15  17 362.820 34.6200   1
  17  15  21 346.570 35.7300   1
 -15 -17  21 349.520 37.8600   1
  21  17  15 388.530 42.6000   1
 -15  27  -1 509.720 59.9800   1
 -15  27   1 412.390 47.0300   1
  15  27   1 414.480 46.6300   1
 -15 -21  17 351.210 43.3300   1
 -27  15  -1 544.960 64.8500   1
 -27  15   1 530.300 62.1600   1
 -15   1  27 474.250 45.9400   1
 -27  15   3 -39.480 43.5300   1
 -15  27   3 34.0100 43.0000   1
 -15  27   3 -43.220 52.3300   1
  15  27   3 57.1800 38.8300   1
  -1  31  -1 -6.1500 46.8000   1
   1  31  -1 144.310 49.4500   1
  -1  31   1 36.6900 54.7200   1
   1  31   1 48.6600 53.5200   1
  -1   1  31 -24.950 40.5900   1
   1   1  31 37.1200 41.2200   1
  -1  -1  31 16.1500 41.1400   1
   1  -1  31 78.1600 33.6400   1
  -1  31  -1 11.4000 36.7300   1
   1  31  -1 48.5500 36.7100   1
   1  31   1 74.9900 37.1200   1
  -1  31   1 41.6200 37.2300   1
 -27  15  -3 -35.100 52.3800   1
 -21  21   9 16.7000 36.0300   1
 -15  27  -3 73.6600 56.3400   1
 -13 -13  25 3987.73 152.620   1
  -9  21  21 135.230 46.6100   1
 -21   9  21 71.0200 38.8800   1
   9  21  21 -11.880 27.9100   1
  21   9  21 56.2600 30.3000   1
  11   1  29 88.3900 47.8300   1
  11  -1  29 140.720 35.6200   1
   3  15  27 0.75000 29.5300   1
 -15   3  27 139.890 45.4400   1
  -3  15  27 33.5300 39.6300   1
   3  27  15 46.8000 36.2200   1
  -3  27  15 1.00000 30.8200   1
 -27  -3  15 51.3400 31.8800   1
  11  29  -1 139.100 55.1100   1
 -29  11  -1 -48.340 73.2900   1
  11  29   1 87.7900 53.6400   1
 -29  11   1 159.830 51.9400   1
 -11  29  -1 232.130 54.3500   1
  15   3  27 52.2000 32.5500   1
 -11  29   1 105.270 48.8700   1
  11  29   1 80.0700 42.7200   1
 -11  29  -1 34.5800 50.1600   1
  11  29  -1 109.720 45.7700   1
   1 -11  29 144.040 51.3400   1
  -1 -11  29 123.170 44.3200   1
 -17  25   7 158.120 40.1400   1
 -25  17   7 81.4600 34.5100   1
  25   7  17 133.660 37.6900   1
  17   7  25 78.9100 32.1000   1
 -17  -7  25 95.2100 37.7700   1
   7  17  25 151.520 31.4800   1
 -17   7  25 151.700 32.5200   1
  -7  17  25 130.900 39.8200   1
   7  25  17 170.950 31.4100   1
  -7  25  17 137.120 33.6000   1
 -25   7  17 145.210 39.3200   1
 -17  25   7 143.540 50.9900   1
 -11  29   1 105.290 56.0800   1
 -29   1  11 171.590 45.6500   1
 -29  -1  11 109.040 32.2300   1
  -1  29  11 115.350 46.4200   1
   1  29  11 155.040 32.4700   1
   1  11  29 126.920 40.9700   1
  -1  11  29 131.280 33.1200   1
 -11   1  29 118.960 32.5600   1
 -11  -1  29 91.9100 32.6100   1
 -25  17   7 210.850 56.7800   1
  13  13  25 4095.90 150.640   1
 -13  13  25 3589.34 132.010   1
  13  25  13 3980.76 148.070   1
 -13  25  13 4103.02 156.000   1
 -25  13  13 3769.41 136.540   1
 -17  25  -7 102.820 75.5500   1
 -15  -3  27 -15.560 28.7200   1
 -27   3  15 -11.740 34.6500   1
  12  26  12 3644.89 146.360   1
  -8  24  18 103.030 33.9200   1
 -24   8  18 135.220 31.7400   1
 -12 -12  26 3536.67 139.110   1
 -24  18   8 89.1100 37.1500   1
 -18  24   8 78.2900 38.4200   1
  12  12  26 3315.19 121.710   1
 -12  26  12 3800.66 144.060   1
 -26  12  12 3544.19 133.400   1
 -24  18   8 13.0000 42.2800   1
  24   8  18 96.2200 41.6100   1
 -30   8   0 368.330 69.9700   1
   8  30   0 225.150 67.8600   1
 -12  28  -6 163.740 83.2600   1
 -28  12   6 -0.5200 38.5500   1
  12  28   6 26.3600 39.5000   1
 -12  28   6 15.2900 37.9800   1
 -12  12  26 3394.33 122.380   1
  18   8  24 146.510 43.6400   1
 -28   6  12 61.6400 31.4000   1
  -6  28  12 73.7600 40.6300   1
   6  28  12 19.5700 36.8900   1
  -6  12  28 57.8000 32.4900   1
 -12   6  28 87.1100 38.8200   1
   6  12  28 36.0800 31.4000   1
 -12  -6  28 14.5100 43.7300   1
  12   6  28 55.1200 40.2000   1
  -6 -12  28 82.1100 41.9300   1
  28   6  12 62.6100 34.2500   1
 -28  12   6 104.880 40.2300   1
 -28   6  12 82.1300 36.7300   1
 -12  28   6 15.0900 38.0400   1
 -30   0   8 242.950 43.5000   1
  -8  30   0 154.590 68.9900   1
   0  30   8 266.620 38.1000   1
   0   8  30 356.150 39.1100   1
  -8   0  30 299.280 37.9100   1
   8   0  30 164.960 43.1700   1
   0  -8  30 254.140 51.0100   1
  -8  30   0 345.780 44.8600   1
   8  30   0 311.300 40.8900   1
 -18  -8  24 79.5300 41.5500   1
   8  18  24 144.330 38.5100   1
 -18   8  24 69.4900 43.0600   1
  -8  18  24 120.290 45.6600   1
   8  24  18 99.5200 29.9900   1
  -8   2  30 672.930 46.3300   1
  -8  -2  30 750.960 53.8100   1
   8   2  30 711.370 47.8800   1
  -2  -8  30 627.650 46.3100   1
   2  -8  30 671.180 55.4100   1
 -22  22   0 1127.31 70.3900   1
   0  22  22 1148.77 57.3600   1
 -22  22   0 1220.37 79.5300   1
  -6  26  16 171.120 34.5700   1
 -22   0  22 1276.78 67.5500   1
  -6  16  26 174.590 41.1300   1
 -26   6  16 170.180 43.1300   1
  14  24  14 2690.91 109.500   1
 -14  14  24 2586.82 107.790   1
  14  14  24 2637.69 102.620   1
 -14 -14  24 2590.73 108.190   1
  -6 -16  26 131.980 44.7200   1
 -16   6  26 134.500 44.2500   1
   6  16  26 148.190 32.3100   1
 -16  -6  26 124.920 38.8200   1
  16   6  26 98.8100 33.1100   1
  26   6  16 181.740 39.6500   1
  -2   8  30 562.110 47.7200   1
   2   8  30 726.490 53.8800   1
   8  -2  30 689.540 58.5200   1
 -24  14  14 2573.39 105.210   1
 -14  24  14 2355.32 93.7800   1
  -8  30   2 748.830 75.2000   1
   2  30   8 681.330 47.8000   1
 -26  16   6 129.770 40.7200   1
   8  30  -2 596.660 52.6200   1
 -16  26   6 116.710 58.0600   1
 -26  16   6 123.050 43.1000   1
   8  30   2 593.820 54.6600   1
  -2  30   8 603.380 53.2600   1
   8  30  -2 667.740 73.1100   1
 -30   8   2 508.050 61.3100   1
  -8  30  -2 577.560 61.8900   1
  -8  30   2 593.520 50.5700   1
  -8  30  -2 626.120 75.9600   1
 -16  26   6 104.780 53.9200   1
 -30   2   8 748.390 68.3000   1
 -16  26  -6 31.4100 75.9900   1
   8  30   2 745.530 67.8300   1
  -3  31   1 208.000 58.6100   1
   3  31   1 287.520 59.6200   1
  -3  31  -1 20.6400 70.3300   1
   3  31  -1 179.180 51.5600   1
  -1  31  -3 253.560 74.7900   1
   1  31  -3 174.230 73.9400   1
 -19 -13  21 108.460 36.6800   1
  19  13  21 10.9700 36.0900   1
 -13 -19  21 25.9200 43.4300   1
 -23  19   9 41.0800 46.7600   1
 -19  23   9 -50.800 51.5300   1
 -19  13  21 66.0000 44.6300   1
 -13  19  21 17.3300 45.3900   1
  13  19  21 47.2100 35.8400   1
 -23  19   9 11.6800 35.2600   1
 -21  23  -1 1073.05 95.1900   1
 -23  21  -1 865.450 88.3500   1
 -21  23   1 1004.74 71.9000   1
 -23  21   1 943.020 77.9400   1
  -1  23  21 1040.02 78.0200   1
   1  23  21 992.310 53.2900   1
 -23   1  21 891.680 50.8400   1
 -23  -1  21 937.210 51.7900   1
 -23  21   1 848.220 67.1600   1
 -21  23   1 1080.86 71.2400   1
  -1  31   3 160.400 39.3300   1
   1  31   3 133.890 38.5600   1
   3  31   1 120.250 36.9000   1
  -3  31   1 192.070 49.2600   1
   3  31  -1 59.8500 36.6200   1
  -3  31  -1 115.850 39.4800   1
   1  31  -3 142.630 37.6800   1
  -1  31  -3 231.600 39.3700   1
  -9  29  -7 1211.83 86.5000   1
 -29   7   9 1286.05 77.8000   1
   9  29   7 1339.10 79.2500   1
  -9  29   7 1268.14 67.6300   1
   7  29   9 1113.86 66.9200   1
  -7  29   9 1154.47 66.4500   1
 -29   9   7 1159.70 71.8800   1
 -29   7   9 996.840 63.0400   1
 -29   9   7 1228.73 76.0900   1
   1  31   3 98.3800 42.3100   1
  -1  31   3 218.140 54.8300   1
 -11 -15  25 1925.29 85.6100   1
  21  13  19 17.5800 27.1100   1
  -3 -11  29 -54.060 41.7300   1
 -15  25  11 1629.70 75.0300   1
 -25  15  11 1835.49 88.0900   1
  15  11  25 1737.77 74.3000   1
   1  21  23 1076.61 60.0000   1
 -21   1  23 968.380 60.0300   1
 -21  -1  23 903.200 50.9100   1
  -9  23  19 59.0500 40.2900   1
 -11  29   3 31.5900 37.8700   1
 -21  19  13 91.2900 43.6600   1
   3   1  31 165.360 42.6700   1
 -19  21  13 38.5600 33.3800   1
 -21  13  19 127.840 40.0000   1
 -13  21  19 77.3200 32.7900   1
  11  29   3 74.9900 42.6700   1
  13  21  19 37.7900 34.7900   1
 -15 -11  25 1781.67 78.5300   1
  25  11  15 1853.21 92.0400   1
  11  15  25 1816.91 79.2400   1
 -15  11  25 1672.13 72.6500   1
   7   9  29 1264.51 61.3700   1
 -23   9  19 34.5100 30.6700   1
 -19   9  23 -2.7500 30.4900   1
   9  23  19 16.8500 39.7200   1
  -3  -1  31 93.6900 42.0500   1
   1   3  31 84.8900 45.9400   1
  -1   3  31 141.340 47.3500   1
  -3   1  31 261.030 48.2300   1
   3  11  29 9.05000 43.4600   1
  -3  11  29 1.54000 32.1200   1
   3  29  11 100.620 31.0400   1
  -3  29  11 15.4200 32.2100   1
 -29   3  11 18.2300 37.7000   1
 -11  29   3 -165.25 52.7700   1
  11  29   3 48.9400 53.4000   1
 -11  -3  29 -67.770 39.5200   1
 -29  11   3 -45.200 43.0400   1
 -11  29  -3 3.38000 54.3700   1
  -7  -9  29 1222.18 69.7700   1
  -9  -7  29 1119.74 66.4500   1
   9   7  29 1305.78 70.7400   1
 -11   3  29 57.4000 31.2400   1
  -9  19  23 59.4100 39.3100   1
  -7   9  29 1255.50 69.0600   1
  -9   7  29 1225.00 60.4300   1
  -1  -3  31 228.180 49.2200   1
   1  -3  31 84.9400 43.0800   1
   3  -1  31 232.050 35.5500   1
 -27  11  11 1243.20 75.9900   1
 -11 -11  27 1530.67 77.1400   1
  11  11  27 1407.18 72.7600   1
 -11  11  27 1495.81 68.2700   1
  11  27  11 1519.50 74.2500   1
 -11  27  11 1518.31 76.7800   1
 -27  11  11 1369.06 73.7500   1
 -23  -9  19 34.0900 31.4600   1
   9  19  23 43.3700 29.1000   1
 -19  -9  23 55.8400 35.8800   1
  19   9  23 6.03000 37.5500   1
  23   9  19 27.5600 28.4900   1
  -1  21  23 934.810 51.1900   1
 -11  15  25 1699.27 76.9800   1
  11  25  15 1932.87 84.5800   1
  15  25  11 1776.15 85.8600   1
 -11  25  15 1992.36 87.1400   1
 -25  11  15 1917.13 87.3300   1
 -11  29  -3 5.19000 39.2900   1
  11   3  29 36.6400 33.1900   1
  11  -3  29 40.4600 35.7400   1
 -22  -2  22 845.700 53.8000   1
  22   2  22 780.020 52.1000   1
 -22   2  22 835.750 53.0500   1
   2  22  22 808.150 52.8500   1
  -2  22  22 845.060 54.6400   1
  10  26  14 1464.68 72.0300   1
  10  14  26 1564.48 75.7000   1
 -26  10  14 1519.10 73.8900   1
  14  10  26 1527.92 75.0700   1
 -14 -10  26 1560.15 77.4100   1
   6  30   6 3981.08 158.750   1
 -14  26  10 1538.51 77.2800   1
  14  26  10 1575.41 75.6100   1
 -26  14  10 1252.33 66.0600   1
 -18  18  18 3719.94 132.610   1
  18  18  18 3817.14 137.670   1
 -22  22  -2 867.770 75.1500   1
 -22  22   2 832.070 78.9900   1
 -22  22   2 718.430 63.9600   1
 -26  14  10 1518.45 73.0400   1
  -6  30  -6 3706.99 167.360   1
 -30   6   6 3759.17 157.340   1
 -10 -14  26 1452.88 68.6000   1
   6  -6  30 3615.09 136.730   1
  -6  -6  30 3383.08 123.450   1
   6   6  30 3810.42 143.470   1
  -6   6  30 3557.79 134.170   1
  -6  30   6 3879.76 147.180   1
 -10  14  26 1402.52 71.5600   1
 -14  10  26 1333.37 63.0600   1
  12  24  16 1392.68 69.8800   1
 -24  16  12 1193.94 63.1100   1
 -16  24  12 1206.22 67.9800   1
 -24  12  16 1287.71 67.4700   1
 -12  24  16 1121.49 66.7000   1
  16  24  12 1175.83 58.8400   1
 -16  12  24 1338.23 70.8300   1
 -12  16  24 1287.32 62.1000   1
  12  16  24 1290.17 65.7100   1
 -16 -12  24 1301.97 63.9500   1
  24  12  16 1192.80 63.8000   1
   0  20  24 786.930 47.8300   1
  16  12  24 1326.03 62.6900   1
 -20   0  24 780.960 56.2800   1
 -12 -16  24 1208.19 66.9800   1
 -20  24   0 634.320 57.7400   1
   0  24  20 754.340 52.2400   1
 -24   0  20 803.580 54.4600   1
 -20  24   0 585.130 79.3800   1
 -24  20   0 642.780 63.0600   1
 -23  21   3 324.350 50.9300   1
 -21  23   3 420.610 63.5400   1
 -23  21  -3 283.950 75.1200   1
 -21  23  -3 225.740 82.4600   1
 -23  21   3 369.460 57.1900   1
 -31   3   3 829.070 84.5200   1
   3  31   3 636.310 49.9100   1
  -3  31   3 611.540 63.5300   1
   3  31  -3 669.980 64.1900   1
  -3  31   3 688.330 55.4900   1
   3  31   3 772.330 72.0500   1
  -3  31  -3 636.070 49.6100   1
  -3  31  -3 727.170 80.5500   1
   3  31  -3 801.560 70.4700   1
  -9  27  13 530.000 44.4400   1
  23   3  21 306.140 38.9400   1
  21   3  23 325.700 50.4400   1
 -21  -3  23 321.240 35.6500   1
 -23  15  15 706.930 58.0200   1
 -15  23  15 591.770 52.7700   1
  15  23  15 599.870 49.3000   1
 -15  15  23 562.940 43.3400   1
   3  21  23 357.890 46.6800   1
 -21   3  23 278.620 40.7500   1
 -23  -3  21 332.670 34.6900   1
  -3  21  23 414.860 49.0900   1
   3  -3  31 625.080 52.8100   1
  -3  -3  31 626.830 45.8100   1
   3   3  31 786.940 59.4500   1
  -3   3  31 732.120 53.4200   1
   3  23  21 342.690 36.5200   1
 -23   3  21 304.730 35.0200   1
 -15  27  -5 178.910 74.8000   1
 -27  15   5 178.340 45.3500   1
 -15  27   5 230.150 63.1300   1
 -27   5  15 91.8300 30.9300   1
 -27  13   9 406.520 49.0900   1
  -9 -13  27 481.430 43.0100   1
 -13  -9  27 525.520 42.8700   1
  -3  23  21 455.480 50.3200   1
  13  27   9 470.370 48.1100   1
  15  15  23 508.250 40.3800   1
 -15 -15  23 559.440 43.7900   1
  -5  27  15 160.370 33.3200   1
   5  27  15 129.820 38.1200   1
  -5  15  27 58.3400 32.8000   1
 -15   5  27 150.590 32.6600   1
   5  15  27 125.810 43.4300   1
  13   9  27 472.720 47.3100   1
  15   5  27 148.600 34.0100   1
  27   5  15 113.090 38.8300   1
  -5 -15  27 103.390 36.0300   1
 -27  15   5 62.9300 33.9100   1
 -15  27   5 143.250 39.9700   1
 -27  13   9 547.230 48.4500   1
 -13  27   9 547.370 59.8100   1
 -27   9  13 569.850 51.1300   1
   9  13  27 500.350 41.3800   1
 -13   9  27 449.460 46.1600   1
  -9  13  27 533.940 53.0500   1
   9  27  13 546.040 45.7000   1
 -15  -5  27 131.460 43.9800   1
  -8  30  -4 1875.41 111.160   1
 -30   8   4 1882.56 104.940   1
 -30   4   8 1935.71 99.4900   1
 -16 -20  18 1898.05 92.6900   1
 -24  20  -2 433.720 63.2600   1
 -20  24  -2 390.360 61.1200   1
 -24  20   2 344.780 71.4700   1
 -20  24   2 239.960 49.5800   1
 -24   2  20 371.410 41.9200   1
   2  24  20 502.090 46.0300   1
 -24  -2  20 352.660 35.2800   1
  -2  20  24 414.450 47.9300   1
   2  20  24 378.120 47.3600   1
 -20   2  24 413.070 37.9400   1
 -20  -2  24 425.560 39.1800   1
  20   2  24 442.610 52.9000   1
 -24  20   2 431.010 55.5300   1
 -20  24   2 380.550 44.8100   1
 -16 -18  20 1911.85 91.7000   1
 -18 -16  20 1764.70 83.0900   1
  18  16  20 1915.56 83.4300   1
  20  16  18 1908.70 87.9100   1
  16  18  20 1890.07 81.4300   1
  20  18  16 1786.81 77.8100   1
  16  20  18 1924.60 79.9200   1
  18  20  16 2019.99 86.7700   1
 -18  16  20 1909.33 83.4200   1
 -16  18  20 1863.54 82.6900   1
 -20  16  18 1910.74 86.0600   1
 -16  20  18 1784.55 76.6100   1
 -20  18  16 1829.43 78.0500   1
 -18  20  16 1702.52 74.6700   1
   8  30   4 2091.66 106.360   1
  -8  30   4 1882.00 88.0500   1
   4  30   8 1997.88 93.9500   1
  -4  30   8 1920.66 87.1300   1
  -4   8  30 1862.67 84.8600   1
  -8   4  30 1801.00 76.2500   1
   4   8  30 1711.79 77.7800   1
  -8  -4  30 1969.44 88.1500   1
   8   4  30 1850.35 84.4200   1
  -4  -8  30 1722.94 82.5100   1
   8  -4  30 1841.06 87.5500   1
   4  -8  30 1935.40 90.4200   1
  -8  30   4 1668.98 83.9500   1
   8  30   4 1553.04 79.8200   1
 -28  14   0 304.690 56.4600   1
 -14  28   0 283.090 71.1500   1
 -28   0  14 291.200 44.9800   1
   0  28  14 267.970 34.7200   1
   0  14  28 374.200 49.2800   1
 -14   0  28 323.080 48.0700   1
  14   0  28 310.520 39.2700   1
 -14  28   0 159.650 57.3300   1
  14  28   0 245.170 35.9200   1
 -20  10  22 -18.690 36.6300   1
 -22  22   4 185.150 45.9100   1
  -2  28  14 94.9500 44.3500   1
   2  28  14 47.6000 37.2100   1
 -22  -4  22 161.130 37.1600   1
 -22  22  -4 113.890 72.5600   1
 -28   2  14 79.0800 41.3000   1
 -28  -2  14 64.4600 33.9900   1
  -4  22  22 160.950 33.5000   1
 -22   4  22 127.460 38.4300   1
   4  22  22 122.530 43.1300   1
  20  10  22 26.5900 35.8500   1
 -20 -10  22 38.5500 39.0500   1
  10  20  22 10.4200 40.2700   1
 -20  22  10 -9.1000 34.4800   1
 -10  20  22 35.7300 32.0200   1
 -22  20  10 -105.77 43.4600   1
  22   4  22 187.330 48.0400   1
 -22  22   4 187.310 39.0500   1
  10  10  28 77.2700 45.4800   1
 -28  10  10 70.3100 33.2500   1
  14   2  28 68.5300 41.1000   1
 -28  14   2 109.730 47.0400   1
 -14  28   2 57.6500 38.5800   1
 -14  28  -2 -57.330 48.5500   1
  14  -2  28 94.7700 36.0700   1
 -14  28   2 166.920 46.9000   1
  22  10  20 5.17000 40.0800   1
 -14  -2  28 26.4300 38.2000   1
 -14   2  28 39.3500 31.3200   1
 -22 -10  20 39.1000 26.2200   1
 -10  10  28 63.1100 32.3000   1
  10  28  10 166.690 42.1000   1
 -10  28  10 -38.360 50.5900   1
 -14  28  -2 63.7000 53.9500   1
 -22  10  20 50.8100 30.2800   1
 -10  22  20 -1.9800 39.9500   1
 -10 -10  28 100.820 46.2500   1
 -28  10  10 58.0900 35.4000   1
 -28  14  -2 53.7900 68.2300   1
   2  14  28 71.3000 32.9800   1
  -2  14  28 67.7100 43.6800   1
  10  22  20 20.1000 34.1100   1
 -17  23  13 326.920 38.9700   1
 -13  23  17 163.960 35.3300   1
 -23  13  17 228.890 35.0600   1
  17  23  13 302.220 37.1900   1
  13  23  17 345.900 44.1800   1
 -17  13  23 310.030 36.8300   1
 -13  17  23 277.250 36.7800   1
  13  17  23 338.000 41.4400   1
  23  13  17 326.780 38.7800   1
  17  13  23 370.300 37.5800   1
 -17 -13  23 342.010 42.8700   1
 -13 -17  23 324.090 38.6200   1
  -1  31  -5 775.550 72.2100   1
   5  31   1 733.920 69.8500   1
  -5  31  -1 564.330 59.7900   1
  -5  31   1 620.100 57.5000   1
  -1  31   5 842.590 65.4000   1
   1  31   5 805.570 67.9700   1
  -1   5  31 760.970 54.6200   1
   1   5  31 831.190 56.2200   1
  -5  11  29 444.160 46.9300   1
 -11   5  29 365.850 44.3800   1
   5  11  29 322.630 37.4300   1
 -11  -5  29 297.020 48.8700   1
  11   5  29 457.330 47.5300   1
  -5 -11  29 351.950 40.2300   1
  11  -5  29 435.600 45.7200   1
  -5   1  31 761.450 48.7200   1
  -5  -1  31 795.750 49.3800   1
   5   1  31 811.640 60.3500   1
   5  -1  31 872.760 61.4800   1
  -1  -5  31 932.610 63.4600   1
   1  -5  31 732.110 58.8300   1
  -5  31  -1 695.270 65.7200   1
   5  31  -1 696.800 58.9000   1
   5  31   1 712.600 63.2000   1
  -5  31   1 727.610 61.5500   1
   1  31   5 824.380 62.9200   1
  -1  31   5 688.580 64.4500   1
   5  31  -1 821.660 78.6000   1
 -25  19  -1 229.590 58.8100   1
 -19  25  -1 342.640 57.9300   1
 -25  19   1 301.840 54.4200   1
 -19  25   1 197.980 71.3700   1
  -1  25  19 373.800 44.5100   1
 -25   1  19 271.810 40.3700   1
 -25  -1  19 295.850 40.2200   1
   1  25  19 294.720 42.6600   1
 -19  25  -1 290.140 44.5800   1
 -19  25   1 410.490 54.1300   1
 -23  17  13 245.060 38.7800   1
   1  31  -5 796.040 83.3700   1
 -31   5   1 698.620 69.1600   1
  11  29   5 392.310 52.5900   1
  -1  19  25 382.600 44.6600   1
   1  19  25 365.350 37.3700   1
 -19   1  25 321.110 37.1400   1
 -11  29   5 320.010 53.3600   1
 -29  11   5 421.140 64.5000   1
   5  29  11 380.860 37.8300   1
  19   1  25 395.670 41.1400   1
  -5  29  11 435.310 47.4600   1
 -29   5  11 431.940 52.9900   1
 -11  29   5 353.370 45.9900   1
 -11  29  -5 367.860 101.200   1
 -19  -1  25 314.900 46.1900   1
   4  20  24 53.3300 30.9600   1
 -20  -4  24 4.06000 36.0200   1
  -4  20  24 9.54000 30.2600   1
   8  28  12 4.18000 40.0500   1
  -8  28  12 72.9800 42.1800   1
 -24  20  -4 27.2400 56.4700   1
  20   4  24 -0.1500 32.6700   1
 -12   8  28 -70.870 43.8000   1
 -28   8  12 -73.720 43.5900   1
  12  28   8 -39.300 41.5000   1
 -12  28   8 20.8300 47.2700   1
 -24  -4  20 61.7200 33.4600   1
   4  24  20 -15.780 36.2400   1
 -20   4  24 54.4800 30.4500   1
 -28  12   8 16.2400 36.2000   1
 -24   4  20 56.2000 29.5600   1
 -20  24  -4 62.8100 55.8800   1
 -20  24   4 36.2600 52.2600   1
 -24  20   4 -33.660 43.3600   1
  24   4  20 28.8600 45.2200   1
  -4  24  20 -31.460 31.7800   1
 -20  24   4 26.7600 60.9500   1
 -24  20   4 77.4400 44.5500   1
  -8  12  28 34.9300 43.8600   1
   8  12  28 35.3700 39.3100   1
  12   8  28 2.59000 40.4300   1
 -12  -8  28 -29.400 30.8000   1
  -8 -12  28 3.71000 45.8500   1
 -28  12   8 13.9300 40.2900   1
 -28   8  12 -13.940 44.1300   1
   5   3  31 1653.36 72.6100   1
   3   5  31 1701.61 73.5500   1
 -21  23  -5 -134.91 56.2800   1
 -23  21   5 -70.750 59.5500   1
 -21  23   5 73.0500 42.8900   1
 -23   5  21 49.2000 29.4400   1
  -5  23  21 36.7800 31.2500   1
  -5  21  23 61.6100 39.0200   1
   5  23  21 26.0200 28.8800   1
 -21   5  23 11.7100 29.8300   1
   5  21  23 -6.5900 37.3900   1
 -23  -5  21 55.1200 27.9200   1
 -21  -5  23 57.8800 41.0700   1
  21   5  23 68.6800 32.6100   1
  23   5  21 45.1800 31.8700   1
 -23  21   5 21.8400 34.8600   1
 -19  25   3 65.2600 46.9600   1
 -25  19   3 -25.930 33.8800   1
   3  31   5 1791.54 85.0200   1
 -19  25   3 -10.520 44.5600   1
 -25  19   3 77.8600 56.3800   1
 -19  25  -3 63.0500 56.6600   1
 -25  19  -3 19.7500 70.0600   1
 -25  17   9 48.4500 34.3400   1
 -17  25   9 -54.310 49.3800   1
 -25  17   9 -4.6600 35.6100   1
  -5   3  31 1575.51 70.6300   1
  -3   5  31 1589.52 70.6100   1
  -3  31   5 1662.58 89.3000   1
  -5  31   3 1505.89 79.2800   1
   5  31   3 1659.84 92.7800   1
 -31   3   5 1529.44 90.8200   1
  -5  31  -3 1822.03 107.980   1
 -31   5   3 1870.50 108.840   1
   5  31  -3 1743.69 99.8700   1
  -3  31  -5 1592.87 95.7200   1
  -5  -3  31 1613.16 76.2800   1
   3  31   5 1326.67 69.9300   1
  -3  31   5 1440.68 72.4500   1
  -5  31   3 1549.53 75.0000   1
   5  31   3 1533.62 80.0700   1
  -5  31  -3 1393.62 69.9400   1
   5  31  -3 1316.88 72.4800   1
   3  -5  31 1631.10 81.1500   1
   5  -3  31 1626.70 79.9000   1
  -3  -5  31 1670.52 73.5100   1
  25   9  17 1.61000 39.6300   1
   3  19  25 -19.070 42.4600   1
 -19  -3  25 28.2700 30.2300   1
  19   3  25 27.2800 32.6000   1
  -9 -17  25 33.4200 42.1500   1
   3  25  19 19.9700 37.6200   1
  17   9  25 -41.800 38.6700   1
 -17  -9  25 -27.350 42.3000   1
 -19   3  25 41.3600 41.6400   1
 -25   3  19 14.6500 36.2200   1
  -3  25  19 33.3100 30.9300   1
  -9  17  25 110.370 45.4600   1
  -3  19  25 36.0600 31.6800   1
 -25   9  17 -31.620 29.9200   1
   9  25  17 81.5500 40.7900   1
 -17   9  25 -25.780 43.3000   1
 -25  -3  19 88.9700 38.1400   1
   9  17  25 -13.070 37.0700   1
 -14  28   4 43.5300 47.4200   1
 -14  28  -4 36.9900 56.6300   1
 -20  14  20 300.340 37.5400   1
  -4  14  28 68.9100 40.8200   1
 -14  20  20 312.530 38.2300   1
  14  28   4 -25.960 39.5100   1
  -4 -14  28 60.0800 35.2500   1
  -8 -16  26 -78.680 41.3200   1
  14   4  28 83.1900 46.9200   1
 -14  -4  28 98.4200 31.6000   1
 -14 -20  20 330.860 45.1100   1
  20  14  20 321.120 35.3300   1
  14  20  20 339.310 35.7000   1
 -14  28   4 90.2000 54.7200   1
   4  14  28 90.1800 40.6500   1
 -20  20  14 344.940 47.5200   1
   4  28  14 129.850 30.7800   1
  -4  28  14 98.3800 45.0500   1
  -8  16  26 80.2400 41.2000   1
 -16   8  26 6.23000 30.3700   1
   8  16  26 -1.1400 29.5000   1
 -16  -8  26 -57.970 37.9200   1
  16   8  26 -32.100 38.9800   1
 -16  16  22 37.6800 41.1800   1
 -28   4  14 71.1000 37.3000   1
  16  22  16 52.4800 26.7600   1
  22  16  16 37.1900 31.1700   1
  16  16  22 58.5300 41.1200   1
 -16 -16  22 90.2000 30.9100   1
 -22  16  16 -16.640 40.9200   1
 -16  22  16 71.3300 33.2600   1
 -28  14   4 47.1300 42.6400   1
 -16  26   8 33.9300 47.2100   1
 -26  16   8 -69.140 54.8200   1
 -26  16   8 52.1000 42.5000   1
  26   8  16 42.3300 35.7600   1
   8  26  16 37.6900 36.2100   1
  -8  26  16 -36.470 31.9100   1
 -26   8  16 1.75000 29.6500   1
 -24  18  10 30.6500 35.7800   1
   0  10  30 -26.510 38.6000   1
 -10  30   0 79.3500 58.8900   1
 -30  10   0 -104.52 49.0400   1
 -26  18   0 251.370 68.8600   1
   0  30  10 -6.3800 43.9000   1
 -10   0  30 -6.2000 30.7900   1
   0  18  26 109.290 38.9500   1
  18   0  26 126.460 48.9000   1
 -18  26   0 54.2900 53.6400   1
  -6   8  30 2691.42 105.070   1
  10  30   0 4.82000 61.1500   1
  -8   6  30 2547.75 97.7300   1
   6   8  30 2514.50 96.5500   1
 -24  18  10 29.1500 44.6600   1
  10  30   0 -6.2000 32.8600   1
 -10  30   0 38.3800 55.5000   1
   0  26  18 196.790 33.6700   1
 -18  24  10 75.0700 36.7200   1
   6  -8  30 2705.49 110.310   1
   8  -6  30 2730.24 105.970   1
  -6  -8  30 2470.57 103.390   1
  -8  -6  30 2485.92 96.7100   1
   8   6  30 2488.37 97.1100   1
   0 -10  30 56.4600 34.7500   1
  10   0  30 23.3000 47.3200   1
 -26   0  18 128.920 36.6000   1
 -18   0  26 109.700 39.5600   1
 -30   8   6 2720.87 123.100   1
  -8  30  -6 2875.95 154.570   1
 -10 -18  24 128.350 35.2300   1
  18  10  24 89.2600 44.4000   1
  24  10  18 138.930 36.5500   1
 -18 -10  24 114.350 31.5700   1
  10  18  24 131.920 39.2200   1
 -18  10  24 74.0900 31.4500   1
 -10  18  24 71.7800 44.1800   1
 -24  10  18 63.1200 30.9300   1
 -10  24  18 51.8800 45.3900   1
   6  30   8 2716.01 110.340   1
  -6  30   8 2771.70 113.620   1
  -8  30   6 2829.07 123.290   1
  10  24  18 22.8500 35.7100   1
   8  30   6 2348.20 101.630   1
 -30   6   8 2696.77 116.450   1
 -27  15   7 46.8600 33.9000   1
  -7 -15  27 82.0200 43.0800   1
  21  11  21 55.9000 36.8500   1
 -29   9   9 366.560 56.1900   1
  -9  29   9 332.340 55.5800   1
   9  29   9 286.080 46.1500   1
  -9   9  29 363.330 38.1700   1
   9   9  29 255.740 48.2200   1
  -9  -9  29 251.130 36.9000   1
 -29   9   9 274.280 44.3100   1
 -21 -11  21 82.7100 34.1700   1
  11  21  21 157.260 36.8000   1
  27   7  15 81.3600 35.4200   1
  15   7  27 85.9800 40.6000   1
 -15  -7  27 79.7700 32.3000   1
  -7  27  15 42.4600 41.4500   1
   7  15  27 93.5100 39.0300   1
 -15   7  27 92.0700 32.4600   1
   7  27  15 112.660 30.2000   1
 -27   7  15 99.6100 31.1200   1
 -15  27   7 27.9300 39.3100   1
 -27  15   7 64.8900 40.2500   1
 -21  11  21 -17.850 42.6600   1
 -11  21  21 82.3500 40.9300   1
 -21  21  11 73.2800 35.8700   1
  -7  15  27 106.760 40.4700   1
 -15  27   7 72.4600 49.1400   1
 -15  27  -7 146.380 84.1300   1
  14  18  22 -20.970 35.9700   1
   6  22  22 68.9600 41.8700   1
 -22   6  22 36.2400 29.8700   1
  -6  22  22 -4.2300 43.8200   1
 -22  22   6 -35.830 57.4300   1
 -22  22  -6 -4.6400 83.9000   1
 -26  18  -2 -34.070 75.0700   1
 -18  26  -2 102.910 55.6100   1
 -26  18   2 61.9800 45.5000   1
 -18  26   2 -47.900 57.9200   1
 -26   2  18 -17.080 27.5900   1
 -26  -2  18 -37.390 32.8500   1
 -22  14  18 -60.610 39.0700   1
   2  26  18 -47.900 30.1500   1
  -2  18  26 47.4900 31.6600   1
 -18   2  26 20.0700 30.8200   1
   2  18  26 53.8800 31.1300   1
 -18  -2  26 -58.620 37.1800   1
  18   2  26 -7.8200 33.6000   1
  18  26   2 30.2900 40.0600   1
 -18  26   2 37.1900 37.8100   1
 -22  18  14 34.6100 34.1800   1
 -18  22  14 -16.030 47.1200   1
  -2  26  18 9.78000 30.7700   1
 -10  30   2 45.8200 38.5000   1
  10  30   2 81.7900 43.1400   1
 -10  30  -2 59.1200 38.5400   1
  10  30  -2 93.3300 35.4000   1
   2 -10  30 76.9500 35.8300   1
  -2 -10  30 119.710 44.5000   1
  10  -2  30 125.500 44.9200   1
  10   2  30 52.6200 42.5300   1
 -10  -2  30 59.4700 45.3300   1
   2  10  30 44.0900 32.2000   1
 -10   2  30 82.5700 32.2400   1
  -2  10  30 81.5000 46.4900   1
  -2  30  10 51.6300 32.5600   1
   2  30  10 -30.870 39.4700   1
 -30   2  10 20.6200 34.3900   1
 -10  30   2 104.230 45.2500   1
  10  30   2 105.220 52.8100   1
 -10  30  -2 175.860 80.6700   1
 -30  10   2 88.0900 61.6800   1
 -14 -22  18 -11.450 43.1700   1
 -14 -18  22 4.91000 43.1300   1
 -18 -14  22 -36.110 28.5700   1
  22  14  18 40.5400 33.5500   1
  18  14  22 33.5100 35.7600   1
  14  22  18 30.1300 38.3500   1
  18  22  14 23.0000 30.9200   1
 -14  18  22 -86.440 44.6500   1
 -18  14  22 14.4900 44.7600   1
 -14  22  18 -6.0400 44.5700   1
 -22  22   6 52.1700 44.3100   1
  22   6  22 66.5800 44.4900   1
 -22  -6  22 21.7600 34.7200   1
   7  31  -1 644.250 61.2400   1
   1  31   7 713.310 61.5900   1
  -1  31   7 691.040 62.1100   1
  -7  31  -1 513.680 49.8100   1
  -7  31  -1 536.770 60.5700   1
 -29   7  11 310.490 47.3300   1
  -7  29  11 387.480 53.9000   1
   7  29  11 379.980 44.4600   1
   7  31   1 520.760 47.0100   1
 -19  23  11 104.810 50.4100   1
 -23  19  11 137.770 50.3700   1
  -7  31   1 582.950 59.5300   1
  -7  31   1 660.850 59.8500   1
 -31   7   1 876.680 88.4500   1
   7  31  -1 646.500 73.2400   1
   7  31   1 701.870 76.7300   1
 -19  17  19 2940.71 153.590   1
 -17  19  19 2993.83 154.380   1
  19  19  17 3151.70 167.910   1
  17  19  19 2932.61 115.470   1
  19  17  19 2774.34 109.680   1
  25   5  19 109.800 40.7400   1
  19   5  25 71.2500 33.4000   1
 -19  -5  25 144.510 43.4200   1
   5  19  25 107.840 32.2700   1
 -19   5  25 134.850 32.3900   1
  -5  19  25 73.8200 39.2400   1
   5  25  19 76.1900 29.5100   1
 -25  -5  19 147.260 34.6200   1
  -5  25  19 117.740 40.3700   1
 -25   5  19 97.5800 38.2600   1
 -25  19   5 197.640 54.6800   1
 -19  25  -5 87.6200 81.8000   1
 -25  19  -5 205.890 82.7600   1
 -31   5   5 3101.70 180.840   1
  -5  31   5 2905.09 132.060   1
   5  31   5 2781.47 119.880   1
  -5   5  31 2885.32 112.050   1
   5   5  31 2930.24 112.790   1
 -25  19   5 122.250 37.5500   1
 -11  23  19 133.560 34.2300   1
 -23  11  19 95.7300 32.3900   1
 -19  11  23 133.190 44.6100   1
 -11  19  23 153.350 33.9500   1
  11  23  19 112.180 30.0500   1
  11  19  23 106.930 30.8400   1
 -19 -11  23 184.960 37.7600   1
  19  11  23 204.540 44.2400   1
  23  11  19 136.830 41.2100   1
 -11 -19  23 99.2100 34.5600   1
  -1  13  29 58.4800 40.4300   1
   1  13  29 121.860 33.7300   1
 -13   1  29 21.9600 31.3100   1
 -13  -1  29 112.970 44.6100   1
  13   1  29 67.3200 47.9900   1
  13  -1  29 66.8100 35.5800   1
  -1 -13  29 -7.9900 51.2000   1
 -13  29  -1 111.730 48.3500   1
 -13  29   1 58.7300 38.8900   1
  13  29   1 81.9900 33.2700   1
  -5  -5  31 2733.04 112.690   1
   5  -5  31 2966.22 155.980   1
   5  31   5 2603.00 116.240   1
  -5  31   5 2434.52 107.220   1
  13  29  -1 44.9400 46.1000   1
   7  11  29 342.780 49.3000   1
  -1   7  31 715.020 48.2300   1
  -7   1  31 679.840 52.3400   1
   1   7  31 514.960 43.5100   1
  -7  -1  31 645.160 46.4300   1
   7   1  31 590.010 45.4900   1
  -1  -7  31 712.370 49.5000   1
   7  -1  31 601.590 46.2900   1
   1  -7  31 647.190 47.8700   1
 -19  25   5 111.330 46.9400   1
  19  25   5 52.0000 41.2900   1
 -19  25   5 200.720 61.0500   1
 -11   7  29 263.910 48.3600   1
  -7  11  29 352.120 50.1800   1
  -1  29  13 92.6700 39.1400   1
 -11  29   7 336.290 52.9900   1
  11  29   7 324.730 47.0900   1
 -29  11   7 219.720 57.3900   1
 -11  29  -7 355.740 64.5400   1
 -11  -7  29 358.100 38.7900   1
  11   7  29 348.460 49.8400   1
  -7 -11  29 360.690 39.6000   1
 -29  11   7 317.600 39.1400   1
   1  29  13 26.9300 38.8400   1
 -29   1  13 132.810 42.3900   1
 -13  29   1 93.9400 45.4600   1
 -13  29  -1 127.970 72.0500   1
 -29  13   1 110.040 71.5500   1
 -29  13  -1 127.010 75.4600   1
 -19  19  17 2835.42 112.770   1
  -5  31  -5 2840.23 156.040   1
 -24  20  -6 167.140 74.9600   1
 -20  24  -6 58.3400 73.9900   1
 -24  20   6 81.0000 57.7100   1
 -20  24   6 -16.080 39.1900   1
  -6  24  20 34.3700 45.5700   1
 -24   6  20 41.8500 29.3800   1
   6  20  24 61.0000 31.1500   1
 -20  24   6 -7.8600 37.0000   1
  20   6  24 11.6700 39.4800   1
  24   6  20 44.2600 31.4500   1
   6  24  20 78.2400 41.8400   1
 -24  20   6 -8.0700 34.5800   1
  -6  20  24 60.3100 30.9000   1
 -24  -6  20 31.0100 37.4100   1
 -20   6  24 59.5900 42.8200   1
 -20  -6  24 75.7700 37.7300   1
 -26  18   4 123.500 44.1400   1
  18  26   4 117.410 38.9600   1
  10  30   4 592.720 58.5500   1
 -10  30   4 635.920 60.5400   1
   4  30  10 605.340 54.3100   1
  -4  30  10 636.630 54.8900   1
 -30   4  10 553.590 48.2100   1
 -10  30   4 659.620 70.6300   1
  10  30   4 670.710 61.4800   1
 -30  10   4 683.220 75.1500   1
 -10  30  -4 510.760 78.9200   1
 -18  26   4 75.1100 54.1500   1
 -18  26   4 317.530 49.2200   1
 -26  18   4 186.580 59.3800   1
 -18  26  -4 308.460 84.2200   1
 -26  18  -4 317.340 81.2600   1
  18   4  26 125.760 34.5200   1
  26   4  18 212.580 43.9000   1
 -14  28  -6 340.780 64.5800   1
 -28  14   6 373.390 47.8700   1
 -14  28   6 323.880 46.0900   1
 -28   6  14 315.250 43.6000   1
  -6  28  14 329.270 50.4100   1
   6  28  14 251.980 40.1500   1
  -6  14  28 212.460 48.7700   1
 -14   6  28 306.950 43.2400   1
   6  14  28 236.070 34.7700   1
 -14  -6  28 260.010 48.4000   1
  14   6  28 309.860 45.0400   1
  28   6  14 270.770 40.4800   1
  -6 -14  28 228.240 38.6200   1
 -28  14   6 195.840 36.8500   1
 -14  28   6 272.300 57.0200   1
  -4  10  30 554.920 48.5300   1
 -10   4  30 641.210 45.1300   1
   4  10  30 581.500 50.6000   1
 -10  -4  30 635.950 52.2200   1
  10   4  30 559.010 44.5500   1
  -4 -10  30 585.580 45.9100   1
  10  -4  30 599.500 56.5900   1
   4 -10  30 647.350 50.8500   1
 -26  14  12 2311.47 102.340   1
 -26  12  14 2245.62 103.350   1
 -14  26  12 2148.84 91.2400   1
 -12  26  14 2464.23 102.300   1
  14  26  12 2258.02 105.330   1
  12  26  14 2166.88 97.3800   1
 -14  12  26 2353.32 97.4600   1
 -12  14  26 2165.16 89.1400   1
  12  14  26 2239.01 96.0300   1
  14  12  26 2180.67 90.4200   1
 -14 -12  26 2175.64 91.9200   1
 -12 -14  26 2196.13 93.1200   1
 -26   4  18 153.500 38.1100   1
  -4  26  18 159.950 41.4300   1
 -26  -4  18 155.560 36.0800   1
   4  26  18 143.230 43.9300   1
  -4  18  26 142.190 40.4700   1
 -18   4  26 97.1600 39.5500   1
   4  18  26 157.710 44.8600   1
 -18  -4  26 170.290 39.6800   1
 -29  13  -3 123.890 68.1800   1
 -13  29  -3 67.9700 70.3500   1
 -29  13   3 -16.530 57.1100   1
 -13  29   3 -116.33 63.4800   1
 -29   3  13 2.02000 29.6300   1
   3  29  13 56.3700 43.8800   1
  -3  29  13 12.1300 31.2800   1
  -3  13  29 137.110 45.2300   1
 -13   3  29 -10.110 30.4900   1
   3  13  29 3.40000 39.2900   1
 -13  -3  29 51.4200 39.8700   1
  13   3  29 5.33000 32.7300   1
 -13 -15  25 1826.99 87.5400   1
 -21  23  -7 54.5500 61.2100   1
 -21  23   7 38.4300 56.2400   1
 -23  21   7 -101.97 49.3000   1
  -7  23  21 24.9600 40.5700   1
 -23   7  21 -62.460 28.8800   1
  -7  21  23 -22.350 31.3000   1
 -21   7  23 19.2300 37.5600   1
   7  23  21 0.23000 28.8200   1
 -23  -7  21 69.0600 34.5500   1
   7  21  23 85.5500 37.2600   1
 -21  -7  23 -14.380 39.9300   1
  23   7  21 51.9800 39.4600   1
  17  27   1 6.66000 34.9900   1
  17  -1  27 -3.7400 35.5900   1
  17   1  27 41.6400 43.1600   1
 -17  -1  27 45.5700 30.1700   1
 -17   1  27 27.4600 38.6600   1
   1  17  27 38.8400 43.9200   1
  -1  17  27 20.3200 31.8200   1
   1  27  17 26.3900 37.5400   1
  -1  27  17 -2.6700 42.8300   1
 -27   1  17 30.3400 38.8500   1
 -27  -1  17 29.3500 33.9000   1
 -17  27   1 44.8300 69.3400   1
 -17  27  -1 -56.670 48.9700   1
 -27  17   1 -14.940 49.9300   1
 -27  17  -1 28.5900 67.1500   1
  -7  31  -3 1299.80 77.6000   1
   7  31  -3 1313.22 70.3200   1
   7  31   3 1483.36 78.8800   1
 -15  13  25 1993.11 83.8200   1
 -13  15  25 1797.33 77.9000   1
  13  15  25 2104.13 91.9700   1
  15  13  25 1976.86 83.7900   1
 -27  13  11 1319.73 76.4500   1
 -11 -13  27 1491.02 71.1300   1
  13  29   3 70.2900 41.8000   1
 -13  29   3 20.7600 47.9800   1
 -13  29  -3 86.0300 40.5500   1
  -7  31   3 1783.63 100.100   1
 -13  11  27 1562.04 77.0600   1
   7  31   3 1575.35 93.3300   1
 -31   3   7 1678.18 100.590   1
  -7  31  -3 1609.23 94.9000   1
 -31   7   3 1466.51 92.5800   1
  -3 -13  29 12.5500 34.8900   1
 -17  27   1 10.8900 55.2600   1
  11  27  13 1597.71 77.9500   1
 -17  27  -1 15.7100 37.1800   1
 -13 -11  27 1387.08 75.0000   1
  13  -3  29 37.4900 35.7300   1
 -21  23   7 27.9100 35.9500   1
 -23  21   7 11.0800 44.7800   1
  21   7  23 0.08000 31.5800   1
  13  11  27 1411.81 70.9900   1
  11  13  27 1452.63 67.5000   1
 -11  13  27 1349.64 64.3700   1
 -17 -17  21 1279.11 73.2000   1
 -11  27  13 1526.11 79.7000   1
  13  27  11 1373.53 68.8800   1
 -13  27  11 1366.03 73.7700   1
 -27  11  13 1455.70 71.4000   1
 -27  13  11 1753.97 88.6100   1
  17  17  21 1182.51 66.7900   1
  21  17  17 1239.55 64.6000   1
   3  -7  31 1384.66 68.5900   1
   7  -3  31 1488.85 70.7500   1
  -3  -7  31 1582.10 81.1900   1
   7   3  31 1557.22 76.1300   1
  -7  -3  31 1473.00 69.2700   1
   3   7  31 1607.36 72.8500   1
  -3   7  31 1469.22 69.0800   1
  -7   3  31 1545.22 77.9500   1
   3  31   7 1472.23 73.5500   1
  -3  31   7 1475.58 82.2300   1
 -15 -13  25 2033.68 95.7100   1
 -21  17  17 1260.43 63.2700   1
 -17  17  21 1225.16 66.7400   1
  17  21  17 1240.63 69.1900   1
 -25  15  13 1883.47 93.3300   1
 -17  21  17 1233.79 71.3400   1
 -15  25  13 1833.19 81.4900   1
 -25  13  15 1817.29 80.1300   1
 -13  25  15 1901.56 82.8600   1
  15  25  13 1933.48 93.9800   1
  13  25  15 1845.91 80.6200   1
   0   0  32 232.950 49.5100   1
   0  32   0 124.480 48.7800   1
   0  32   0 276.460 50.8300   1
 -17  27  -3 89.8100 71.2300   1
  17  27   3 143.730 38.9300   1
  15  19  21 510.350 45.4300   1
  21  15  19 534.570 49.0900   1
 -27  17  -3 111.970 80.9700   1
  -3  17  27 108.950 40.4700   1
 -27  17   3 207.870 49.3000   1
 -17  27   3 128.370 46.9300   1
  -3  27  17 165.530 45.8700   1
   3  27  17 164.180 32.9700   1
  19  15  21 524.480 45.7900   1
 -17   3  27 162.390 33.6200   1
   3  17  27 115.250 33.3500   1
  15  21  19 589.080 49.9800   1
 -15  19  21 546.810 43.5200   1
 -21  15  19 540.520 43.1100   1
 -21  19  15 465.510 54.3000   1
 -19  21  15 422.420 42.8000   1
 -15  21  19 575.260 51.6600   1
 -19 -15  21 506.350 46.2000   1
 -27  -3  17 192.650 36.8700   1
 -15 -19  21 518.290 54.1200   1
 -15 -21  19 539.180 50.1900   1
 -17  27   3 69.4600 39.1400   1
 -27   3  17 165.630 41.2000   1
 -17  -3  27 105.490 38.5900   1
  17   3  27 180.800 48.6400   1
 -27  17   3 160.600 37.2100   1
 -19  15  21 573.970 43.9500   1
 -22  20  12 126.120 44.1900   1
 -12  22  20 92.8100 40.9900   1
 -22  12  20 211.690 34.2200   1
 -20  22  12 111.570 45.0800   1
 -12  28  10 432.140 57.3700   1
  12  22  20 80.4900 36.1200   1
 -28  12  10 382.130 48.1400   1
 -28  12  10 379.650 56.6100   1
  22  12  20 154.740 37.2100   1
  12  28  10 391.790 38.0900   1
  -8   8  30 1513.44 69.8600   1
   2   0  32 76.2100 47.7500   1
   0  -2  32 21.1000 47.5300   1
   0  32  -2 42.9700 51.1800   1
  -2  32   0 87.9300 39.5400   1
   2  32   0 8.09000 36.6200   1
   0  32   2 13.0800 37.8600   1
  -8  -8  30 1738.34 82.6400   1
   8   8  30 1670.37 78.9400   1
   8  30   8 1734.31 80.7100   1
  -8  30   8 1705.09 80.8500   1
 -30   8   8 1594.20 89.5600   1
 -28  10  12 397.940 52.8600   1
 -14 -16  24 756.580 55.6500   1
 -16 -14  24 826.120 59.7600   1
  16  14  24 713.750 46.8200   1
  14  16  24 644.950 53.3100   1
 -16  14  24 651.550 52.2300   1
 -14  16  24 739.240 53.9800   1
  14  24  16 622.260 43.5100   1
  16  24  14 786.200 52.0900   1
 -24  14  16 786.280 50.2900   1
 -14  24  16 717.690 55.5500   1
 -16  24  14 709.470 55.2900   1
 -24  16  14 686.490 55.9000   1
 -10 -12  28 372.020 41.0400   1
 -10  28  12 423.810 54.8100   1
  10  28  12 371.380 36.5600   1
 -12  10  28 305.460 50.4900   1
 -10  12  28 442.640 41.0700   1
  10  12  28 374.610 50.2700   1
  12  10  28 329.680 44.7800   1
 -12 -10  28 350.070 45.8800   1
 -12 -20  22 175.380 35.4100   1
  20  12  22 128.980 31.3600   1
 -20 -12  22 126.870 30.7400   1
  12  20  22 142.290 31.5600   1
 -12  20  22 89.3800 33.5500   1
 -20  12  22 210.430 35.3300   1
 -28  10  12 416.300 41.8900   1
   0  32  -2 134.840 73.9500   1
   2  32   0 109.770 49.1700   1
  -2  32   0 110.110 67.3400   1
   0  32   2 41.7000 53.3600   1
  -2   0  32 129.920 47.6500   1
   0   2  32 25.9900 46.4600   1
  -2  32   2 22.8500 53.6300   1
   2  32   2 -19.970 60.8000   1
  10  16  26 293.540 36.2700   1
 -16  10  26 201.000 35.0600   1
 -10  16  26 237.830 46.4300   1
  10  26  16 153.250 37.5800   1
 -10  26  16 308.580 46.0900   1
 -26  10  16 232.900 35.2100   1
 -16  26  10 165.900 48.8700   1
 -26  16  10 241.520 40.6800   1
   2  -2  32 -14.950 46.7800   1
  -2  32  -2 -71.200 52.9700   1
  -2   2  32 -40.270 46.0200   1
   2   2  32 -59.460 47.4800   1
   2  32  -2 -88.280 62.1900   1
   2  32   2 27.5400 37.4600   1
  -2  32  -2 -62.020 65.2000   1
 -22  22   8 68.1300 37.6100   1
  22   8  22 60.8800 39.5600   1
 -22  -8  22 61.6900 28.8700   1
   8  22  22 71.4600 37.5800   1
  -8  22  22 47.2500 32.9600   1
 -22   8  22 86.7700 31.3600   1
 -22  22   8 131.010 47.5300   1
  -2  -2  32 62.0500 41.4800   1
 -26  16  10 142.340 49.9000   1
 -10 -16  26 247.740 50.8400   1
  16  10  26 239.440 35.3000   1
 -16 -10  26 244.860 35.8000   1
 -19  25  -7 197.130 76.7800   1
 -25  19   7 132.290 52.9900   1
 -19  25   7 114.240 51.5700   1
 -25   7  19 117.570 31.2600   1
  -7  25  19 149.620 42.5300   1
   7  25  19 192.140 38.7500   1
  -7  19  25 238.910 47.1600   1
 -19   7  25 97.9600 38.2300   1
   7  19  25 210.120 34.0100   1
 -19  -7  25 135.850 39.2400   1
  19   7  25 193.660 42.1600   1
  25   7  19 138.630 32.8100   1
 -25  19   7 126.260 44.4000   1
 -19  25   7 104.410 38.7700   1
   7  31   5 2868.98 135.430   1
 -31   5   7 3028.88 175.230   1
  13   5  29 370.400 52.3200   1
 -27  15   9 -8.6900 45.3100   1
 -15  27   9 -12.000 37.3400   1
 -27   9  15 58.6000 31.7200   1
  -9  27  15 -48.970 45.5200   1
   9  27  15 -5.9100 27.8000   1
  -9  15  27 89.9100 44.6200   1
 -15   9  27 -33.700 42.4100   1
   9  15  27 43.5900 31.1700   1
  15   9  27 -45.200 43.8600   1
  -9 -15  27 0.88000 33.0600   1
 -27  15   9 -1.7200 33.2900   1
 -31   7   5 2873.05 145.110   1
  -7  31  -5 2687.89 137.590   1
  -5 -13  29 332.550 47.8900   1
 -13  29   5 242.890 42.4700   1
  13  29   5 326.460 48.4400   1
   5  29  13 405.950 44.3300   1
  -5  13  29 304.160 49.2300   1
 -13   5  29 436.800 45.7600   1
   5  13  29 303.030 36.9000   1
 -13  -5  29 334.550 38.9700   1
 -13  29  -5 384.120 65.3100   1
 -29  13   5 335.890 63.9100   1
 -13  29   5 408.870 49.6000   1
 -29   5  13 401.280 40.5000   1
  -5  29  13 449.440 48.8900   1
   7  31   5 2353.82 109.200   1
  -7  31   5 2426.91 110.310   1
   7  -5  31 2637.52 105.490   1
   5  -7  31 2689.04 107.400   1
  -5  -7  31 2724.89 107.610   1
 -17  25  11 499.010 53.0400   1
 -25  17  11 438.450 51.8100   1
 -25  11  17 369.280 44.6600   1
 -11  25  17 377.280 39.7400   1
  11  25  17 365.120 46.4700   1
 -17  11  25 488.490 41.4100   1
 -11  17  25 390.380 45.9800   1
  11  17  25 359.030 37.0200   1
 -17 -11  25 446.290 47.2200   1
  17  11  25 418.460 50.3100   1
  25  11  17 416.450 41.8800   1
 -11 -17  25 358.060 52.2800   1
  -7  -5  31 2690.36 114.340   1
   7   5  31 2851.04 114.700   1
   5   7  31 2706.59 110.950   1
  -5   7  31 2632.17 103.170   1
  -7   5  31 2492.99 104.930   1
   5  31   7 2966.36 172.360   1
  -5  31   7 2752.98 115.430   1
  -7  31   5 2743.30 115.310   1
   6  10  30 1137.99 64.7100   1
   6  18  26 457.220 40.4300   1
 -10  30   6 939.700 72.3100   1
  10  -6  30 1211.06 76.5400   1
  -6 -10  30 889.360 54.2900   1
  10   6  30 900.590 58.7200   1
 -10  -6  30 1049.05 57.3700   1
  10  30   6 1102.10 73.8100   1
  -6  10  30 1121.01 58.2600   1
 -10   6  30 1026.95 56.3400   1
   6  30  10 1049.04 62.7100   1
  -6  30  10 1147.88 62.5600   1
 -30   6  10 1050.92 72.4300   1
 -10  30   6 1176.09 68.4900   1
 -26  18   6 524.420 61.7300   1
 -18  26   6 397.510 48.5300   1
 -18  -6  26 407.390 39.7200   1
  18   6  26 496.690 53.3000   1
  26   6  18 465.230 51.4500   1
 -26  18   6 352.100 55.0600   1
 -18  26   6 483.070 55.4100   1
 -18   6  26 372.430 37.5900   1
  -6  18  26 450.090 51.5700   1
 -26   6  18 551.240 51.6100   1
   6  26  18 422.850 38.6400   1
  -6  26  18 491.470 52.0600   1
 -18  26  -6 364.790 79.6400   1
 -10  30  -6 1010.48 91.7700   1
 -30  10   6 1189.00 72.9500   1
 -28  16   0 -30.760 51.7400   1
 -16  28   0 8.49000 63.9800   1
   4  32   0 163.040 38.9300   1
   0  32   4 181.220 48.9700   1
  -4  32   0 154.640 40.3500   1
   4   0  32 107.420 43.6900   1
  -4   0  32 144.040 34.8500   1
   0   4  32 139.050 49.2100   1
   0  32   4 109.400 50.4600   1
  -4  32   0 8.64000 48.2700   1
   4  32   0 150.910 62.9600   1
   0  28  16 -3.5700 29.8900   1
   0  16  28 -122.59 30.8800   1
 -16  28   0 31.8000 39.3800   1
 -16   0  28 26.0500 30.6100   1
  16   0  28 -25.320 43.1100   1
  16  28   0 -27.550 43.6700   1
 -28   0  16 21.3600 27.7200   1
   0  -4  32 86.8200 34.8600   1
   0  32  -4 48.8900 54.1100   1
  20   8  24 -10.900 31.2700   1
  24   8  20 40.9600 42.5000   1
  -8  24  20 -66.090 32.0000   1
 -20  24   8 -28.900 37.4300   1
 -24  20   8 41.4400 50.9400   1
 -24   8  20 -6.6700 37.9600   1
  -8  20  24 -60.140 39.8900   1
   8  24  20 -15.490 28.9800   1
   8  20  24 38.5000 30.8300   1
 -20  -8  24 -8.8900 28.3600   1
 -20   8  24 3.87000 30.1900   1
 -20  24   8 -69.980 46.3700   1
 -24  20   8 24.7500 37.6000   1
 -17  27  -5 631.520 86.1800   1
   1  31   9 123.470 43.0700   1
 -23  17  15 -17.450 40.2500   1
 -17  23  15 0.54000 42.6700   1
 -15  23  17 58.4700 32.9900   1
 -23  15  17 111.950 33.0700   1
  17  23  15 -23.600 32.0100   1
 -17  15  23 -36.490 44.0800   1
 -15  17  23 -73.150 43.7400   1
  15  23  17 15.0800 32.7700   1
  15  17  23 -28.390 28.9900   1
  17  15  23 20.1200 40.6600   1
 -17 -15  23 -55.360 37.0500   1
 -15 -17  23 -14.810 43.6100   1
  -9  31   1 81.4100 67.3400   1
  -9  31  -1 82.8800 49.6900   1
   9  31   1 95.6300 55.7500   1
 -31   9   1 116.770 52.1200   1
   9  31  -1 125.000 66.9400   1
  11   9  29 -103.61 38.6900   1
 -29  11   9 -84.260 50.8500   1
 -29   9  11 -107.84 47.5800   1
  11  29   9 -64.540 35.1300   1
 -11  29   9 57.0900 51.1900   1
  -9  29  11 -126.23 48.1200   1
   9  29  11 10.0300 35.8400   1
 -29   9  11 6.89000 38.7200   1
 -29  11   9 29.9600 40.4200   1
  -9 -11  29 83.0200 46.3200   1
 -11  -9  29 -2.1100 40.8900   1
   9  11  29 -15.190 40.2500   1
  -9  11  29 -20.260 31.6900   1
 -11   9  29 -4.9100 45.3900   1
  -9  31   1 102.840 40.4600   1
   9  31   1 100.830 35.9100   1
  -9  31  -1 73.2800 57.0600   1
   9  31  -1 210.750 49.3500   1
   1  -9  31 107.060 44.9600   1
  -1  -9  31 126.780 49.6400   1
   9  -1  31 152.640 48.5700   1
   9   1  31 69.2300 47.9800   1
  -9  -1  31 161.060 42.9400   1
   1   9  31 69.6200 42.0200   1
  -9   1  31 160.430 46.0500   1
  -1   9  31 134.460 34.5500   1
  -1  31   9 113.330 43.4500   1
  17  27   5 550.670 50.5100   1
 -17  27   5 626.430 58.7300   1
 -27  17   5 509.170 45.9700   1
  27   5  17 612.570 51.4600   1
  17   5  27 766.370 59.5100   1
 -17  -5  27 705.060 52.8700   1
   5  17  27 730.280 56.4300   1
 -17   5  27 686.230 55.6600   1
  -5  17  27 681.090 55.0300   1
   5  27  17 784.360 56.6800   1
  -5  27  17 772.540 58.0700   1
 -27   5  17 680.610 54.3400   1
 -17  27   5 774.230 66.9600   1
 -27  17   5 658.630 66.6700   1
 -16  28   2 84.2300 48.1100   1
  -2  32   4 258.330 54.7400   1
  -4  32   2 298.650 49.0900   1
   4  32   2 224.650 63.2500   1
  -4  32  -2 284.840 58.0400   1
  12   0  30 -87.250 42.3000   1
   0 -12  30 -10.900 45.5500   1
 -12  30   0 102.440 55.6600   1
  12  30   0 15.1900 45.7400   1
   2  28  16 120.390 39.1600   1
  -2  28  16 148.800 33.0600   1
  -2  16  28 113.140 33.1800   1
  -2  32  -4 314.890 60.2400   1
   4  32  -2 301.100 57.6800   1
   2  32  -4 380.920 72.7500   1
 -16   2  28 97.6400 38.7900   1
 -16  28  -2 77.1700 56.7100   1
  16  -2  28 71.0700 36.9500   1
 -12 -18  24 347.260 51.2000   1
  18  12  24 471.110 50.1600   1
  24  12  18 349.430 41.2400   1
 -18 -12  24 383.170 48.7300   1
  12  18  24 380.730 37.5300   1
 -12  18  24 424.200 39.6500   1
  -2  32   4 281.010 57.2400   1
   2  32   4 371.010 44.4900   1
  -4  32   2 227.360 57.1100   1
   4  32   2 317.100 42.1600   1
   4  32  -2 221.190 47.2700   1
 -18  12  24 384.740 49.6800   1
  -8 -14  28 10.3800 41.9700   1
  14   8  28 -3.3900 39.9700   1
   2  -4  32 340.630 40.2000   1
 -14  -8  28 10.4800 31.2900   1
   8  14  28 -22.800 38.8400   1
  16  28   2 69.3400 43.9000   1
   2  32   4 355.250 46.1500   1
  -2   4  32 340.930 51.9400   1
 -28  14   8 75.0200 42.6600   1
  -4   2  32 314.600 38.7600   1
  -2  -4  32 408.560 41.5200   1
   2  16  28 106.630 45.7500   1
 -16  -2  28 188.720 44.9400   1
  16   2  28 47.6000 35.3700   1
  12  24  18 387.250 42.4600   1
 -24  12  18 407.130 46.3100   1
 -12  24  18 285.110 45.7900   1
 -18  24  12 347.200 42.0300   1
 -24  18  12 422.610 54.7500   1
   2   4  32 282.960 46.2800   1
  -4  -2  32 420.670 40.9500   1
  -4  32  -2 338.980 52.2000   1
   4  -2  32 284.580 46.3500   1
 -16  28   2 39.0800 56.3000   1
   4   2  32 311.040 47.2100   1
 -28  16  -2 152.420 69.0300   1
 -16  28  -2 176.490 55.7600   1
 -28  16   2 47.4900 47.9900   1
 -28  14   8 -89.360 54.0800   1
 -28   2  16 139.370 38.5600   1
 -30  12   0 108.830 53.1300   1
  -8  28  14 98.2900 47.2700   1
 -28   8  14 16.1000 31.0600   1
   8  28  14 -10.270 34.9600   1
 -14   8  28 -6.5900 44.2100   1
 -14  28   8 59.8900 38.1100   1
 -12  30   0 25.6700 47.4400   1
   0  30  12 8.34000 30.6200   1
   0  12  30 -52.640 31.3000   1
 -12   0  30 57.3500 39.3500   1
 -12  30   2 45.6500 38.8100   1
 -12  30  -2 -27.380 36.7900   1
  12  -2  30 -59.400 34.7500   1
  -2 -12  30 46.6700 36.0000   1
 -18  18  20 2590.72 102.520   1
 -18  20  18 2622.07 113.410   1
 -20  18  18 2744.81 110.570   1
  12   2  30 -10.570 46.7000   1
 -12  -2  30 91.3900 40.0600   1
 -12   2  30 15.4200 31.6000   1
   2  12  30 117.690 46.0100   1
  -2  12  30 -35.990 31.1300   1
   2  30  12 73.4300 31.2400   1
  -2  30  12 60.3600 46.3200   1
 -30   2  12 -38.750 30.5000   1
 -12  30   2 -45.880 65.1300   1
 -12  30  -2 16.9900 50.9600   1
 -30  12   2 2.50000 49.7100   1
  12  30   2 13.5100 48.0000   1
  18  18  20 2501.50 101.590   1
  20  18  18 2563.71 111.640   1
  18  20  18 2593.34 111.790   1
 -30  12  -2 -107.57 65.2400   1
  -9  31   3 499.700 56.9500   1
  -9  31  -3 520.770 51.0500   1
 -21  23   9 186.590 54.9500   1
 -21  23   9 105.090 48.3600   1
 -23  21   9 189.710 39.0700   1
 -23  21   9 121.840 38.3700   1
   9  31   3 517.740 57.8000   1
  -3  31   9 601.640 47.5900   1
   3  31   9 526.250 44.7800   1
 -31   3   9 696.110 63.7600   1
  -9  31   3 577.180 57.1100   1
   9  31   3 508.400 63.4500   1
  -9  31  -3 337.140 61.4600   1
 -31   9   3 397.530 76.6900   1
 -21  -9  23 205.770 38.9100   1
  21   9  23 173.430 33.6700   1
  23   9  21 209.370 34.0900   1
   9   3  31 583.640 45.2900   1
  -9  -3  31 575.350 44.9700   1
   3   9  31 588.010 55.2500   1
  -9   3  31 532.790 49.0800   1
  -3   9  31 590.430 44.9000   1
 -21  21  13 74.7000 35.4800   1
  21  13  21 64.4800 37.1200   1
  -3  -9  31 562.140 45.7100   1
   9  -3  31 580.730 59.7800   1
   3  -9  31 593.910 55.8300   1
 -13 -21  21 -14.150 40.8900   1
  13  21  21 87.8100 29.5900   1
  -9  23  21 152.420 46.9300   1
 -21  13  21 42.8000 40.1400   1
 -13  21  21 137.080 42.0800   1
 -23   9  21 240.080 41.7700   1
 -21   9  23 183.100 44.7400   1
  -9  21  23 214.260 35.4500   1
   9  23  21 181.130 42.8400   1
   9  21  23 246.900 43.3600   1
 -28  16  -4 760.080 85.2200   1
 -28  16   4 651.980 58.6000   1
 -16  28  -4 687.380 92.4500   1
  -4  32   4 1023.10 62.2400   1
   4  32  -4 1182.84 85.5700   1
   4  32   4 870.760 63.2400   1
 -28  16   4 583.070 55.0200   1
 -16  28   4 535.630 49.7300   1
  16  28   4 534.680 51.2500   1
 -16  28   4 801.570 76.0300   1
  -4  32  -4 1275.23 88.8300   1
  -4  32   4 1071.71 73.6300   1
   4  32   4 1183.24 73.2200   1
 -32   4   4 1132.34 89.6400   1
  -4  28  16 739.490 48.1600   1
   4  28  16 657.150 45.0300   1
  -4  16  28 818.100 56.3700   1
 -16   4  28 693.800 52.7800   1
   4  16  28 651.520 45.3800   1
 -16  -4  28 603.030 44.8000   1
  16   4  28 794.870 61.1000   1
  -4 -16  28 732.080 52.9400   1
   4  -4  32 993.530 57.4200   1
 -20  20  16 1154.47 61.2600   1
 -16  20  20 1151.10 60.4800   1
 -20  16  20 1313.68 72.8600   1
  16  20  20 1271.68 66.2100   1
  20  16  20 1229.61 64.9600   1
  -4   4  32 1171.95 61.2100   1
  -4  -4  32 1146.55 68.8800   1
   4   4  32 1164.99 60.7400   1
 -28   4  16 683.190 47.1700   1
 -13  29  -7 169.720 63.5100   1
 -13  -7  29 315.650 50.0600   1
   7  13  29 383.170 49.5900   1
  -7  13  29 413.480 45.6600   1
 -13   7  29 217.570 47.3500   1
 -23  23   1 2126.40 98.9800   1
 -23  -1  23 2263.45 93.9900   1
 -23   1  23 2354.29 95.9200   1
   1  23  23 2375.90 100.180   1
 -23  23  -1 2584.46 123.340   1
   7  -7  31 2637.98 114.730   1
  -7  -7  31 2348.05 95.4800   1
  -7   7  31 2480.21 106.420   1
  -7  31   7 2756.52 124.050   1
   7  29  13 336.570 46.3700   1
  -7  29  13 298.080 45.5300   1
 -29   7  13 307.990 50.0000   1
 -13  29   7 176.490 41.5900   1
 -29  13   7 342.680 60.5300   1
   7   7  31 2588.35 102.540   1
 -13  29   7 206.410 42.5900   1
 -29  13   7 207.370 37.8400   1
  -7 -13  29 336.700 40.3900   1
  13   7  29 412.480 51.5800   1
 -13 -19  23 146.040 42.6000   1
  19  13  23 200.310 34.0200   1
  23  13  19 158.510 37.8300   1
 -19 -13  23 241.140 45.7000   1
  13  19  23 157.750 42.7700   1
  13  23  19 183.910 31.5600   1
 -13  19  23 190.530 34.5800   1
 -23  13  19 162.510 40.9200   1
 -13  23  19 191.870 35.8300   1
 -19  23  13 231.530 38.2000   1
 -23  19  13 214.860 46.0500   1
 -23  23   1 2202.85 120.590   1
  -1  23  23 2346.87 96.7800   1
  -7  31  -7 2735.88 137.920   1
 -31   7   7 2837.49 130.700   1
   7  31   7 2844.97 134.250   1
  -4 -12  30 313.070 48.2500   1
 -12  30   4 275.120 43.9300   1
 -24  22   0 2129.04 117.100   1
 -12  30  -4 311.380 83.7500   1
 -30  12   4 290.130 51.6600   1
 -12  30   4 259.010 48.2400   1
 -24   0  22 2116.03 96.0500   1
  -4  30  12 308.620 38.7800   1
  12   4  30 327.690 38.4800   1
   4  30  12 330.150 42.9900   1
  -4  12  30 241.700 36.1800   1
 -12   4  30 282.120 36.1300   1
   4  12  30 302.400 36.5000   1
 -12  -4  30 355.700 38.5800   1
 -22   0  24 1885.27 81.7800   1
   6  32   0 275.000 53.5900   1
   0  22  24 2154.84 93.7900   1
 -22  24   0 1672.69 87.7000   1
 -30   4  12 333.000 51.4100   1
  -6  32   0 295.870 54.6300   1
   0  24  22 2011.25 89.4800   1
 -22  24   0 1937.62 101.580   1
  12  30   4 271.790 47.0600   1
  12  -4  30 297.430 42.1500   1
   6  32   0 230.800 49.2600   1
  -6  32   0 287.720 57.9100   1
   0  -6  32 235.270 37.9800   1
   6   0  32 359.480 40.3600   1
  -6   0  32 409.980 51.8300   1
   0   6  32 326.310 47.1700   1
   0  32   6 220.870 49.4700   1
 -22  16  18 427.590 83.5600   1
 -18  22  16 399.920 41.8900   1
 -22  18  16 370.120 52.2800   1
   2  24  22 1479.98 75.4200   1
 -24   2  22 1541.46 71.9500   1
 -24  -2  22 1640.38 79.5400   1
  -2  22  24 1546.73 70.3300   1
   2  22  24 1479.54 71.3800   1
 -22   2  24 1384.09 66.2200   1
 -22  -2  24 1520.91 73.8500   1
  22   2  24 1392.89 73.8400   1
  24   2  22 1346.96 69.8400   1
 -24  22   2 1256.89 67.1300   1
 -22  24   2 1265.54 68.7000   1
   2  -6  32 584.100 46.6900   1
   6  -2  32 644.350 47.5900   1
  -2  -6  32 656.350 58.5200   1
   6   2  32 645.540 46.9600   1
  -6  -2  32 555.700 50.1900   1
   2   6  32 594.110 45.5700   1
  -2   6  32 625.010 52.3600   1
  -6   2  32 637.260 53.5000   1
 -26  18   8 225.150 52.7000   1
 -18  26   8 257.130 43.2700   1
 -26   8  18 214.360 34.2500   1
  -8  26  18 188.380 35.3200   1
 -18   8  26 226.760 41.2800   1
  -8  18  26 173.930 46.9100   1
   8  18  26 117.490 32.2200   1
 -18  -8  26 215.720 46.2000   1
  18   8  26 186.080 43.1400   1
  26   8  18 214.580 41.1200   1
  -8 -18  26 159.440 46.2800   1
 -26  18   8 111.210 44.4800   1
 -18  26   8 191.220 40.9800   1
   8  30  10 559.280 53.5200   1
 -30  10   8 541.490 51.7600   1
 -30   8  10 457.330 53.1500   1
  10  30   8 601.650 52.1300   1
 -10  30   8 585.950 57.2900   1
  -8  30  10 511.170 45.7200   1
 -10   8  30 436.210 47.8900   1
  -8  10  30 500.200 42.1300   1
   8  10  30 402.690 51.7100   1
  10   8  30 442.600 52.1700   1
 -10  -8  30 609.620 56.1400   1
  -8 -10  30 552.030 44.9900   1
 -30  10   8 569.050 55.7600   1
 -24  22  -2 1573.75 106.320   1
 -22  24  -2 1449.02 107.350   1
 -22  24   2 1711.45 99.9900   1
 -24  22   2 1581.15 88.5600   1
  -2  24  22 1358.03 64.9100   1
 -16 -18  22 363.920 50.9700   1
 -18 -16  22 433.380 49.8700   1
  18  16  22 447.780 45.2500   1
  22  16  18 441.140 41.0500   1
  16  18  22 371.410 37.6200   1
  16  22  18 331.480 40.3100   1
  18  22  16 363.400 40.0000   1
 -18  16  22 416.350 40.5900   1
 -16  18  22 362.790 39.0300   1
 -16  22  18 433.890 49.2200   1
  -6  32  -2 562.580 49.2300   1
   6  32  -2 546.560 46.2500   1
   6  32   2 537.110 59.2900   1
  -6  32   2 603.570 50.5200   1
  -2  32   6 466.190 49.2600   1
  -2  32  -6 727.370 72.8900   1
   6  32  -2 650.130 75.5600   1
 -32   6   2 717.560 80.5500   1
  -6  32  -2 616.850 67.4400   1
   6  32   2 667.040 60.6000   1
  -6  32   2 655.080 59.6000   1
  -2  32   6 685.310 64.4400   1
   2  32   6 612.630 53.2000   1
 -23  23   3 1236.65 77.2100   1
   5   9  31 1345.77 65.6200   1
  -9  -5  31 1397.67 71.7700   1
   9   5  31 1403.50 72.0600   1
 -19  25   9 -10.250 38.3400   1
  -9  31   5 1171.87 77.5300   1
 -23  23   3 999.250 61.4600   1
 -23  23  -3 1599.33 112.220   1
 -25  19   9 29.2600 34.3400   1
   5  -9  31 1400.86 80.2600   1
 -19  25   9 -74.810 47.4900   1
 -25  19   9 14.0400 37.2000   1
   9  -5  31 1464.66 77.8100   1
   9  31   5 1230.82 71.8100   1
 -31   9   5 1484.70 96.7500   1
   9  31   5 1411.65 89.3600   1
 -31   5   9 1231.70 72.0700   1
  -9  31   5 1410.02 82.0100   1
   5  31   9 1405.84 77.3700   1
  -9  31  -5 1337.25 89.8200   1
  -5  -9  31 1445.73 78.1500   1
  -5  31   9 1428.26 79.7900   1
  -5   9  31 1402.23 71.7300   1
  -9   5  31 1381.92 66.4500   1
 -17  27   7 546.380 66.5200   1
 -15  -1  29 57.1500 32.5000   1
  15   1  29 -7.1300 48.4800   1
  15  -1  29 39.7900 36.3800   1
  25   9  19 49.7300 36.9400   1
  19   9  25 1.20000 39.5600   1
 -15  29  -1 21.8000 54.4300   1
 -17   7  27 665.950 45.7000   1
 -25   9  19 -77.920 42.1000   1
  15  29   1 81.1800 32.5000   1
 -15  29   1 153.590 40.7300   1
  -7  27  17 611.050 45.3700   1
   7  27  17 663.950 45.4800   1
  -7  17  27 593.520 54.4200   1
 -27   7  17 630.740 50.7700   1
  -9 -19  25 33.7000 43.0500   1
 -25  21  -1 1082.18 81.9600   1
 -21  25  -1 1107.43 90.4200   1
 -25  21   1 1025.68 90.4200   1
 -21  25   1 1045.88 74.0500   1
 -25   1  21 1161.25 67.5900   1
  -1  25  21 988.540 55.1200   1
 -25  -1  21 1019.68 55.6100   1
   1  25  21 969.800 58.5100   1
  -1  21  25 973.830 53.8400   1
   1  21  25 1047.92 63.9400   1
 -21   1  25 960.710 54.0300   1
   7  17  27 614.140 54.4700   1
 -17  -7  27 595.200 50.2600   1
  17   7  27 585.310 55.1400   1
 -21  -1  25 1059.97 57.7600   1
  21   1  25 1032.16 68.1100   1
  27   7  17 663.760 51.9000   1
  -7 -17  27 682.820 56.5100   1
 -27  17   7 574.710 48.1600   1
  -3  23  23 1240.81 61.7700   1
 -23   3  23 1291.37 63.8800   1
   3  23  23 1136.71 62.6700   1
 -23  -3  23 1220.15 72.2100   1
  23   3  23 1322.34 72.0600   1
 -27  17   7 706.690 56.1100   1
 -17  27  -7 755.600 78.3600   1
 -17  27   7 493.180 61.7300   1
 -27  13  13 1269.13 65.9000   1
 -13  27  13 1506.81 72.6800   1
  13  27  13 1359.17 70.4300   1
 -13  13  27 1243.93 66.0600   1
  13  13  27 1270.94 63.1000   1
 -13 -13  27 1302.73 65.8500   1
 -19  -9  25 16.3700 36.9600   1
   9  19  25 -12.750 29.7400   1
 -19   9  25 7.63000 38.1300   1
  -9  19  25 -5.4500 45.9100   1
   9  25  19 3.52000 28.2200   1
  -9  25  19 -59.290 32.1200   1
 -29  15  -1 -7.7300 53.7000   1
 -29  15   1 -6.0400 51.2500   1
 -15  29  -1 -17.170 67.5400   1
 -15  29   1 48.3900 61.8400   1
 -29   1  15 66.9600 36.9400   1
  -1  29  15 7.51000 38.7000   1
   1  29  15 31.5200 41.2100   1
  -1  15  29 131.380 34.1000   1
   1  15  29 109.000 44.8200   1
 -15   1  29 66.2500 43.2500   1
 -22  22  10 620.310 58.5100   1
 -22  10  22 536.940 42.2700   1
  22  10  22 567.150 49.2800   1
 -22 -10  22 472.740 40.2500   1
  10  22  22 461.730 39.6500   1
 -10  22  22 654.130 46.5500   1
 -26  14  14 1301.31 70.7100   1
 -14 -14  26 1471.79 78.7900   1
  14  14  26 1312.62 67.9800   1
 -14  14  26 1373.15 72.6100   1
  14  26  14 1250.12 62.5300   1
 -14  26  14 1370.87 68.0300   1
 -28  12  12 702.370 51.0300   1
 -12  28  12 887.750 61.7900   1
 -28  12  12 649.840 58.8200   1
 -12 -12  28 702.340 49.0300   1
  12  12  28 828.940 59.3500   1
 -12  12  28 699.780 52.0400   1
  12  28  12 710.110 62.7900   1
 -15  27  11 483.850 46.2300   1
 -27  15  11 358.520 42.1100   1
 -27  15  11 336.280 50.3700   1
  -3  15  29 453.730 41.4600   1
  21   3  25 320.320 52.4300   1
 -15  11  27 457.220 47.0100   1
  11  27  15 447.680 46.9800   1
 -11  27  15 348.110 40.6200   1
 -27  11  15 452.800 41.2200   1
  15  11  27 307.120 37.0900   1
 -15 -11  27 465.750 41.9200   1
 -11 -15  27 480.920 51.1900   1
  15  -3  29 411.660 45.6800   1
  -3 -15  29 463.460 45.5000   1
  15   3  29 509.920 43.6200   1
 -15  29   3 284.140 52.4300   1
   3  15  29 364.700 38.5200   1
 -15   3  29 378.980 38.5900   1
 -25  21   3 322.760 41.6500   1
 -21  25   3 238.450 52.2900   1
   3  29  15 380.660 43.6900   1
 -15 -15  25 687.610 53.1700   1
  15  15  25 618.120 49.1300   1
 -15  -3  29 491.370 52.5000   1
  11  15  27 436.990 39.7000   1
 -11  15  27 398.670 39.3700   1
 -29  15  -3 435.330 65.9700   1
 -15  29  -3 435.640 64.6100   1
 -29  15   3 471.140 57.4300   1
 -15  29   3 387.580 64.0100   1
 -29   3  15 465.980 41.5500   1
  -3  29  15 393.100 39.9900   1
 -15  15  25 540.310 49.3400   1
 -21  25  -3 470.040 66.8700   1
 -21  25   3 328.650 72.3100   1
 -25  21   3 365.220 53.5800   1
 -25   3  21 368.550 43.8900   1
  -3  25  21 383.440 39.9200   1
   3  25  21 361.290 44.6100   1
 -25  -3  21 377.930 46.0700   1
 -25  21  -3 519.580 81.0600   1
 -21   3  25 378.080 45.1600   1
   3  21  25 366.040 44.9700   1
  15  25  15 652.650 48.0700   1
  25   3  21 410.560 49.7700   1
 -25  15  15 603.760 56.3100   1
 -21  -3  25 419.920 46.4900   1
 -15  25  15 630.210 54.1900   1
  -3  21  25 385.490 49.1900   1
 -20  24  10 218.710 40.7200   1
 -24  10  20 232.490 47.6700   1
 -10  24  20 303.240 46.1600   1
 -10  20  24 254.330 44.0900   1
 -20  10  24 206.910 35.6900   1
  10  24  20 244.870 45.2900   1
  10  20  24 279.990 43.8500   1
 -20 -10  24 226.310 42.0300   1
  20  10  24 270.270 37.3600   1
  24  10  20 228.440 45.2400   1
 -10 -20  24 391.300 45.5400   1
 -24  20  10 152.220 38.3000   1
 -16  28   6 1012.72 100.280   1
 -28   6  16 1097.87 73.6400   1
   4  24  22 522.210 54.6300   1
  -4  22  24 554.600 56.2700   1
 -22   4  24 532.340 45.8500   1
   4  22  24 517.660 45.5300   1
 -22  -4  24 564.270 52.1100   1
  22   4  24 695.640 64.5600   1
  24   4  22 616.450 62.3200   1
 -24  22   4 344.560 45.3500   1
 -22  24   4 378.670 59.6400   1
 -26  20   0 307.110 58.9300   1
 -20  26   0 530.540 73.8900   1
   0  26  20 299.900 38.7100   1
 -26   0  20 335.920 42.9700   1
   0  20  26 295.580 37.4600   1
 -20   0  26 308.200 48.3000   1
  20   0  26 219.990 39.8900   1
 -20  26   0 315.640 55.1400   1
  -4  32  -6 1483.20 103.610   1
  -6  32  -4 1540.51 117.000   1
 -32   6   4 1657.82 97.3000   1
 -32   4   6 1836.80 109.740   1
   6  32   4 1635.49 114.350   1
  -6  32   4 1577.56 100.790   1
   4  32   6 1662.92 91.1900   1
  -4  32   6 1681.10 89.1200   1
  -4   6  32 1374.30 66.4600   1
   4   6  32 1571.98 90.0000   1
  -6  -4  32 1650.75 94.0500   1
   6   4  32 1625.71 77.8600   1
  16   6  28 1053.43 75.3100   1
  -4  -6  32 1477.11 70.2100   1
   4  -6  32 1458.92 76.0300   1
   6  -4  32 1276.86 83.0300   1
  -6  32   4 1371.34 77.9300   1
   6  32   4 1380.39 80.3100   1
  -4  32   6 1291.52 76.9100   1
 -24  20  10 271.280 43.3100   1
   6  28  16 1066.77 73.3000   1
  -6   4  32 1642.82 74.1000   1
 -16  28   6 863.650 64.9300   1
 -28  16   6 873.800 69.7000   1
  -6 -16  28 994.440 68.3100   1
  28   6  16 1178.27 83.4500   1
 -16  -6  28 1087.53 75.8200   1
 -22  24  -4 493.630 70.9200   1
 -24  22  -4 736.860 78.8800   1
 -22  24   4 570.300 61.9800   1
 -24  22   4 664.450 72.4800   1
 -24   4  22 476.830 43.8000   1
  -4  24  22 558.020 47.4500   1
 -12 -16  26 660.160 55.0400   1
 -16 -12  26 766.530 61.5300   1
  16  12  26 740.810 57.7500   1
  12  16  26 648.500 45.2800   1
 -12  16  26 637.490 45.2400   1
 -16  12  26 687.110 56.3200   1
  12  26  16 718.180 53.3500   1
 -12  26  16 720.670 49.2900   1
 -26  12  16 791.550 59.5400   1
 -16  26  12 582.100 63.2100   1
 -26  16  12 671.710 49.7600   1
  -6  28  16 1135.43 71.3000   1
   6  16  28 1036.88 66.0900   1
 -16  28  -6 1074.33 103.230   1
 -16   6  28 1001.43 65.2400   1
  -6  16  28 1112.57 77.0100   1
 -28  16   6 997.990 88.3200   1
 -24  -4  22 519.940 49.1900   1
 -10 -14  28 117.690 35.4800   1
  20  14  22 -13.000 40.5700   1
 -28  14  10 22.1700 42.8600   1
  14  20  22 8.96000 42.0300   1
  14  22  20 44.4400 35.3900   1
 -20  14  22 35.2100 40.5200   1
  10  28  14 148.640 37.0500   1
   2  20  26 148.930 45.4700   1
 -14  20  22 -20.160 40.3800   1
 -22  14  20 62.5100 32.3100   1
 -14  22  20 -24.150 46.1900   1
 -22  20  14 15.2100 34.0600   1
 -20  22  14 -46.830 48.6300   1
 -14  10  28 76.5600 32.7700   1
 -10  14  28 153.480 33.7800   1
 -30   6  12 632.670 59.4600   1
  -6  30  12 581.380 50.0800   1
   6  30  12 594.240 48.6700   1
  -6  12  30 523.280 46.9100   1
 -12   6  30 588.780 57.8400   1
   6  12  30 542.060 55.7000   1
 -12  -6  30 714.080 62.7100   1
  12   6  30 574.110 54.3000   1
  -6 -12  30 647.700 62.2800   1
  -2  20  26 122.690 46.5900   1
   2  26  20 85.0400 31.9800   1
 -12  30   6 454.690 58.2800   1
  -2  26  20 79.5100 33.0700   1
 -30  12   6 580.340 59.4500   1
 -12  30  -6 555.530 84.7700   1
 -20  26   2 48.4500 39.3500   1
 -26  20   2 47.3800 36.7400   1
 -12  30   6 595.460 56.6200   1
  20   2  26 58.7800 44.4100   1
 -20  -2  26 181.910 34.4300   1
 -28  14  10 153.200 40.0000   1
 -14  28  10 84.9500 38.7800   1
 -28  10  14 92.4200 41.5100   1
 -10  28  14 62.8200 34.4400   1
 -26  -2  20 134.770 40.9900   1
 -26   2  20 80.0600 30.8300   1
 -20  26   2 90.8300 48.5100   1
 -26  20   2 227.300 65.9300   1
 -20  26  -2 214.980 61.1900   1
 -26  20  -2 211.510 81.1000   1
 -20   2  26 112.540 40.2500   1
 -14 -10  28 57.2400 45.7600   1
  10  14  28 152.910 40.3500   1
 -14 -22  20 19.1800 33.4700   1
 -14 -20  22 15.6500 40.4400   1
  22  14  20 34.2200 28.0500   1
  14  10  28 110.250 45.8600   1
 -11  11  29 111.490 47.3100   1
  11  29  11 105.170 37.4700   1
 -19  19  19 2777.32 131.580   1
 -11  29  11 123.550 46.6600   1
 -29  11  11 170.680 37.4900   1
 -29  11  11 19.5900 40.1200   1
 -25  17  13 586.820 57.3500   1
 -17  25  13 415.240 45.6300   1
 -25  13  17 476.850 51.4800   1
 -13  25  17 482.290 56.3100   1
  13  25  17 525.560 49.4800   1
 -17  13  25 496.600 50.5800   1
 -13  17  25 473.940 44.1600   1
  13  17  25 558.630 46.6900   1
  17  13  25 577.710 53.4600   1
 -17 -13  25 544.610 52.9000   1
 -13 -17  25 454.020 46.0000   1
  11  31   1 23.5200 33.6800   1
 -11  31   1 21.4500 39.2900   1
  11  31  -1 30.0700 33.7300   1
 -11  31  -1 -21.460 54.4500   1
   1 -11  31 6.39000 35.8800   1
  -1 -11  31 17.6200 36.1300   1
  11  -1  31 53.3200 43.7500   1
  11   1  31 -60.850 48.2000   1
 -11  -1  31 56.5800 40.6600   1
 -11   1  31 14.4200 39.6200   1
   1  11  31 38.3000 41.1500   1
  -1  11  31 -9.9900 46.8100   1
  -1  31  11 1.56000 45.1600   1
   1  31  11 -69.140 32.2400   1
 -11  31   1 146.060 50.1500   1
 -11  31  -1 -15.160 74.0700   1
 -31  11   1 51.3400 63.5100   1
 -31  11  -1 -21.910 52.9700   1
  19  19  19 2758.16 149.570   1
 -23  23  -5 417.790 82.8400   1
 -23  23   5 508.420 64.9000   1
  -5  23  23 395.520 52.3100   1
 -23   5  23 421.350 42.4700   1
   5  23  23 511.660 50.2600   1
 -23  -5  23 434.830 41.7400   1
  23   5  23 479.680 46.2300   1
 -23  23   5 449.590 56.2500   1
 -11 -11  29 108.940 34.5800   1
  11  11  29 44.3100 40.7300   1
 -16  16  24 -37.790 31.8700   1
  16  16  24 18.1200 29.1900   1
 -16 -16  24 18.2900 31.5000   1
   0   8  32 153.090 35.1200   1
   0  32   8 81.9000 35.6500   1
 -16  24  16 43.5300 41.7900   1
 -24  16  16 -33.410 46.4500   1
  16  24  16 24.5800 33.9200   1
  -8  32   0 25.0400 48.8600   1
   8  32   0 23.2600 59.9300   1
  -8  32   0 133.190 41.6800   1
   8  32   0 148.630 51.9300   1
   0  -8  32 138.330 45.0800   1
   8   0  32 207.050 46.1000   1
  -8   0  32 98.3800 34.0800   1
  -3  31  11 117.620 35.5100   1
  -9  31   7 1110.13 82.8300   1
  -9  31   7 1357.56 85.5400   1
   9  31   7 1477.65 97.6500   1
 -31   7   9 1351.04 93.4900   1
 -31   9   7 1414.46 94.6600   1
  -9  31  -7 1462.25 116.670   1
 -23  21  11 801.190 60.9400   1
  -7  31   9 1338.93 82.7300   1
   7  31   9 1454.99 87.0500   1
 -21  23  11 816.180 71.7100   1
   3  31  11 107.810 33.4900   1
 -31   3  11 91.9300 45.4200   1
   1  19  27 46.9100 31.5900   1
 -19   1  27 18.4800 31.3700   1
 -19  -1  27 14.9500 30.5800   1
  19   1  27 57.4200 35.3300   1
  19  -1  27 62.8000 46.7000   1
 -19  27  -1 94.1700 56.5900   1
 -19  27   1 -8.9700 38.8200   1
 -11  31   3 77.3100 50.7900   1
  11  31   3 125.830 48.4800   1
 -11  31  -3 152.630 43.0800   1
   3 -11  31 122.450 39.4800   1
  11  -3  31 147.120 47.0600   1
  -3 -11  31 131.350 51.1600   1
  11   3  31 67.5500 42.6300   1
 -11  -3  31 126.530 34.3800   1
   3  11  31 201.400 35.7100   1
 -11   3  31 116.720 33.6800   1
  -3  11  31 131.420 42.3200   1
   1  33   1 598.520 73.8000   1
 -11  31   3 183.050 58.4200   1
 -11  31  -3 110.380 55.4200   1
 -31  11   3 117.740 72.5200   1
 -15   5  29 1082.02 72.4600   1
  -5  15  29 1145.12 71.7300   1
   5  29  15 1030.09 65.8900   1
  -5  29  15 994.960 65.7100   1
 -25  -5  21 36.8500 27.8100   1
  15  29   5 790.740 65.2000   1
 -15  29   5 853.970 75.6100   1
 -29  15   5 858.780 73.4200   1
  -5 -15  29 1010.05 73.8000   1
  15   5  29 1025.43 71.2800   1
 -15  -5  29 1144.20 72.1500   1
  -1  33  -1 606.210 78.1200   1
   1  33  -1 463.040 81.5200   1
   9  -7  31 1426.65 88.1600   1
   7  -9  31 1232.94 81.1700   1
  -7  -9  31 1463.97 92.4000   1
  -9  -7  31 1365.36 81.6900   1
   9   7  31 1198.21 74.1300   1
   7   9  31 1459.25 88.8000   1
  -7   9  31 1237.47 82.1000   1
  -9   7  31 1272.63 76.9600   1
  25   5  21 -0.4400 41.8000   1
 -25  21   5 -89.910 50.3100   1
 -21  25   5 63.7700 48.5300   1
   5  25  21 -23.960 30.2400   1
 -25   5  21 13.1600 29.2000   1
  -5  25  21 51.9600 41.3000   1
 -21  25   5 46.2200 44.4400   1
 -25  21   5 -94.160 64.3700   1
 -21  25  -5 -34.410 83.1300   1
 -25  21  -5 116.960 84.6500   1
 -29   9  13 -47.280 39.3100   1
 -29  13   9 -31.410 40.6500   1
  -9 -13  29 10.6700 34.2000   1
 -13  -9  29 -10.060 32.5800   1
  13   9  29 31.5400 40.3100   1
   9  13  29 -37.770 38.3100   1
  -9  13  29 25.1600 33.0900   1
 -13   9  29 -35.600 31.4200   1
   9  29  13 -7.9600 36.1900   1
  -9  29  13 -75.760 42.9600   1
 -29   9  13 36.4100 33.1600   1
 -13  29   9 42.1200 48.8100   1
 -29  13   9 38.0100 36.8300   1
 -11 -21  23 676.170 56.0800   1
  23  11  21 721.100 58.1300   1
  21  11  23 695.100 57.5200   1
 -21 -11  23 683.530 52.4500   1
  11  21  23 732.470 53.3500   1
  11  23  21 683.800 50.8200   1
 -11  21  23 765.680 61.0300   1
 -21  11  23 778.740 61.0000   1
 -23  11  21 737.620 59.3000   1
 -11  23  21 750.020 55.5500   1
  -1  33   1 359.460 73.5100   1
  -1   1  33 488.660 52.6800   1
   1   1  33 471.280 51.9400   1
  -1  -1  33 370.500 42.6600   1
   1  -1  33 421.290 44.1200   1
  -1  33  -1 371.210 55.1700   1
   1  33  -1 483.530 63.8700   1
   1  33   1 313.070 52.5600   1
  -1  33   1 371.180 55.6800   1
  19  17  21 1249.09 81.7800   1
  21  17  19 1160.74 77.9800   1
  17  19  21 1357.31 83.3300   1
  17  21  19 1314.71 80.7500   1
 -17  19  21 1254.53 76.4800   1
 -19  17  21 1199.27 78.5400   1
 -21  17  19 1271.82 77.5900   1
 -17  21  19 1342.38 87.6300   1
 -21  19  17 1213.13 75.7400   1
 -19  21  17 1237.58 76.5900   1
   5  15  29 1070.33 74.4500   1
 -21   5  25 35.2000 43.8300   1
  -5  21  25 40.2800 32.1100   1
   5  21  25 14.0100 30.4600   1
 -15  29   5 1049.58 76.4000   1
 -29  15   5 952.720 86.9500   1
 -15  29  -5 986.720 105.590   1
 -21  -5  25 48.2200 42.9700   1
  21   5  25 37.8100 33.9400   1
 -27  19  -1 34.8700 100.520   1
 -27  19   1 -43.260 51.5500   1
 -19  27  -1 80.1300 55.3500   1
 -19  27   1 -114.31 69.4400   1
 -27   1  19 41.0400 35.8200   1
 -27  -1  19 -28.420 34.0900   1
  -1  27  19 -57.290 39.9500   1
   1  27  19 44.2700 39.3400   1
  -1  19  27 0.61000 43.9200   1
   2  -8  32 392.300 53.0300   1
  -2  -8  32 319.180 41.2700   1
   8  -2  32 312.940 50.0200   1
   8   2  32 311.530 48.6000   1
  -8  -2  32 277.760 51.8300   1
   2   8  32 253.960 38.3700   1
  -8   2  32 268.880 38.6700   1
  -4  26  20 44.6200 40.6900   1
 -26   4  20 -57.570 42.1000   1
 -20  26   4 -6.0700 58.9100   1
 -26  20   4 -62.530 44.6300   1
   2  32   8 257.300 39.5800   1
  26   4  20 1.57000 41.5100   1
  20   4  26 15.4200 41.9300   1
 -20  -4  26 -12.700 31.0200   1
   4  20  26 84.3700 40.1300   1
 -20   4  26 22.6600 31.0400   1
 -26  20  -4 -91.550 72.5200   1
 -26  20   4 -54.880 48.1400   1
 -20  26   4 38.3900 55.6200   1
  -2   8  32 264.250 38.1300   1
   8  32  -2 254.460 64.0500   1
 -32   8   2 352.290 60.1700   1
  -8  32  -2 248.870 73.2800   1
 -26  -4  20 4.94000 34.7800   1
   4  26  20 32.7700 39.0000   1
 -20  26  -4 188.730 85.6100   1
   8  32  -2 205.690 41.0300   1
  -2  32   8 293.520 42.1100   1
  -8  32   2 217.550 60.4600   1
   8  32   2 284.730 51.5500   1
  -8  32   2 335.420 56.2200   1
   8  32   2 314.610 50.5600   1
  -8  32  -2 237.550 51.4000   1
  -4  20  26 -7.2000 31.1900   1
 -14  24  18 183.830 36.6400   1
 -18  14  24 126.880 33.9600   1
 -14  18  24 140.330 34.3200   1
  14  24  18 235.560 39.7300   1
  14  18  24 127.040 43.8400   1
  18  14  24 255.340 42.2100   1
 -18 -14  24 133.370 39.9500   1
 -14 -18  24 197.800 48.8900   1
 -22   6  24 194.310 40.9600   1
  -6  32  -6 2157.60 143.120   1
 -32   6   6 2359.14 150.700   1
   6  32   6 2409.70 149.750   1
  -6  32   6 2191.62 123.160   1
  -6   6  32 2129.52 114.460   1
   6   6  32 2305.12 125.280   1
  -6  -6  32 2243.31 126.000   1
   6  -6  32 2105.53 119.110   1
  -6  24  22 93.7800 42.6800   1
  -6  32   6 1844.49 113.690   1
 -24   6  22 213.500 41.5500   1
 -22  24   6 154.400 55.0000   1
 -24  22   6 114.780 62.8100   1
 -24  22  -6 265.830 79.0700   1
 -22  24  -6 98.3500 77.8800   1
  14   0  30 16.0600 43.9900   1
 -30  14   0 -60.580 65.7400   1
 -14  30   0 76.8100 51.5900   1
   0  30  14 6.10000 30.2300   1
   0  14  30 93.7400 45.7700   1
 -14   0  30 109.840 46.2300   1
  14  30   0 -56.360 42.8800   1
 -14  30   0 -46.680 49.9100   1
 -22  24   6 195.770 49.4200   1
 -24  22   6 104.140 46.2700   1
  22   6  24 158.650 35.8500   1
  24   6  22 202.610 49.3800   1
 -22  -6  24 164.210 44.8400   1
   6  22  24 217.300 42.1100   1
 -24  -6  22 68.7500 29.1400   1
   6  24  22 181.100 40.6500   1
  -6  22  24 130.650 34.2600   1
 -18  24  14 220.490 51.8500   1
 -24  14  18 301.290 49.4100   1
   1  33   3 42.6300 38.3600   1
 -27  17   9 117.890 44.1200   1
  -1  33  -3 83.8000 54.1400   1
 -17  27   9 31.5800 55.0600   1
 -27  17   9 108.900 57.3300   1
 -27  19  -3 93.5400 74.3300   1
 -19  27  -3 188.690 84.8700   1
 -27  19   3 228.860 61.7900   1
 -19  27   3 195.100 50.2800   1
   3  33  -1 47.4500 46.2400   1
   3  33   1 110.060 38.4000   1
  -3  33   1 28.4800 38.9800   1
   1  33  -3 -24.290 51.0000   1
  -1  33   3 26.2500 38.3100   1
   3  33  -1 76.2300 52.6600   1
   3  33   1 77.6900 60.4600   1
  -3  33  -1 4.42000 55.2900   1
 -27  19   3 78.2400 47.0100   1
 -19  27   3 106.370 49.3000   1
   1  33   3 72.4600 43.5900   1
  -3  33  -1 83.5300 50.1900   1
  -3  33   1 29.0800 45.0600   1
   1  33  -3 53.3600 48.4600   1
  -1  33  -3 -14.420 39.7700   1
  -1  33   3 13.9400 59.1900   1
   3  -1  33 38.6100 34.2400   1
 -17   9  27 181.580 47.2200   1
  -9 -17  27 54.2600 44.2700   1
  -9  17  27 32.5400 44.7000   1
   3   1  33 71.0100 34.7300   1
  -3  -1  33 36.0400 34.3000   1
  -3   1  33 -21.000 32.7500   1
  17   9  27 68.3200 33.6400   1
 -27   3  19 152.770 44.3000   1
  -3  27  19 98.1200 42.0800   1
   3  27  19 220.780 47.2900   1
   1   3  33 66.7300 42.0100   1
  -3  19  27 205.940 35.6100   1
 -19   3  27 183.630 46.3000   1
   3  19  27 99.0800 41.2200   1
 -19  -3  27 149.010 46.4700   1
  -9  27  17 93.7600 33.7400   1
   9  27  17 156.870 32.7500   1
  19   3  27 197.610 37.9400   1
 -27   9  17 120.500 33.5200   1
   1  -3  33 -21.730 34.0800   1
  -1  -3  33 104.890 35.5700   1
  -1   3  33 -75.140 47.9400   1
   9  17  27 113.190 40.0300   1
 -17  -9  27 92.0800 32.7200   1
  10  10  30 -7.6000 41.3000   1
 -14  30   2 132.210 50.9000   1
 -14  30  -2 118.480 42.1800   1
  -2 -14  30 138.610 38.8900   1
  14  -2  30 111.940 38.5600   1
  14   2  30 15.0700 43.1500   1
 -14  -2  30 117.990 33.1900   1
   2  14  30 100.190 32.9800   1
  -2  14  30 129.400 42.1800   1
  -2  30  14 148.980 41.8400   1
   2  30  14 117.660 40.2400   1
 -30   2  14 174.030 45.2800   1
 -14  30   2 133.740 59.5300   1
 -30  14   2 207.120 76.5700   1
 -14  30  -2 71.9700 71.8200   1
 -30  14  -2 89.5500 68.9600   1
 -14   2  30 125.110 33.5700   1
 -26  18  10 47.5000 38.3600   1
 -18  26  10 -67.160 36.4400   1
 -26  10  18 -16.210 42.5800   1
 -10  26  18 86.8000 47.7300   1
  10  26  18 51.6600 35.9000   1
 -10  18  26 -95.750 44.1600   1
  10  18  26 105.090 39.2700   1
 -18 -10  26 7.49000 30.9600   1
  18  10  26 47.6100 40.5600   1
 -10 -18  26 6.13000 48.7700   1
 -26  18  10 -75.590 42.5900   1
 -30  10  10 81.7400 46.9400   1
 -10  30  10 -2.3800 45.7500   1
  10  30  10 -1.3300 42.4200   1
 -10  10  30 55.4800 46.0400   1
  14  30   2 46.5600 41.4600   1
 -10 -10  30 30.5000 32.9900   1
   4   8  32 918.130 71.3700   1
 -32   4   8 1223.47 94.0800   1
   8  32   4 1054.24 83.4600   1
   8  28  16 463.330 51.6700   1
   8  32   4 856.840 63.3900   1
  -8   4  32 1036.00 71.2400   1
   4  -8  32 958.730 66.4600   1
  -8  -4  32 981.720 65.3100   1
   8   4  32 911.860 62.6300   1
  -8  32   4 749.410 73.8500   1
 -28  16   8 497.260 53.4000   1
 -16  28   8 451.690 51.2500   1
 -28   8  16 498.580 51.5700   1
  -8  28  16 548.440 48.3300   1
 -16   8  28 474.340 53.5000   1
  -4   8  32 941.500 63.0200   1
 -28  16   8 459.870 53.9900   1
 -16  28   8 341.040 47.1000   1
  -8  32   4 977.570 81.9000   1
  -8  16  28 538.810 51.8900   1
   8  16  28 418.680 47.9700   1
 -32   8   4 945.800 94.9500   1
 -16  -8  28 472.640 45.6500   1
  16   8  28 417.820 54.6400   1
  -8 -16  28 477.510 47.8700   1
  -8  32  -4 1001.35 104.840   1
  -4  -8  32 1007.24 71.5800   1
   8  -4  32 1004.53 68.4300   1
   4  32   8 1045.99 79.2500   1
  -4  32   8 1176.60 82.0200   1
  11   5  31 578.870 49.3500   1
  -5 -11  31 532.130 55.6500   1
  11  -5  31 659.420 66.6200   1
  -3  33  -3 0.92000 39.2000   1
   3  33   3 53.8100 41.3500   1
 -11  -5  31 585.530 58.8400   1
 -11   5  31 586.620 48.8800   1
  -3  33   3 -50.710 53.6400   1
   3  33  -3 -105.62 73.2000   1
 -17  23  17 237.590 38.5100   1
  -3  33   3 27.2100 54.1300   1
   3  33  -3 3.10000 47.0500   1
  17  23  17 146.230 40.8300   1
 -23  17  17 221.200 37.7200   1
  -5  11  31 589.500 59.2500   1
   5  11  31 602.590 59.3300   1
  -3  33  -3 -63.480 53.0700   1
   3  33   3 -59.830 36.4300   1
 -17  17  23 222.510 37.4100   1
  17  17  23 223.970 40.6200   1
 -17 -17  23 154.250 41.7600   1
 -19  11  25 223.960 36.0700   1
  11  19  25 303.010 42.8200   1
 -19 -11  25 262.520 47.3700   1
  19  11  25 284.970 38.4800   1
  25  11  19 238.510 40.8200   1
 -11 -19  25 321.840 53.3900   1
 -25  19  11 150.190 53.2400   1
   3  -3  33 8.69000 34.1900   1
   3   3  33 -4.5000 33.8600   1
  -3   3  33 5.35000 42.3100   1
 -23  23   7 320.100 63.7000   1
 -23   7  23 276.530 36.8300   1
  -7  23  23 201.850 35.6800   1
   7  23  23 289.720 47.3000   1
 -23  -7  23 192.990 39.1500   1
  23   7  23 292.800 45.7200   1
 -23  23   7 181.330 48.9100   1
  15  21  21 15.2300 40.3100   1
 -15  21  21 42.4300 47.6200   1
 -21  15  21 -4.7400 32.1300   1
 -21  21  15 -148.95 48.6200   1
  21  15  21 -1.1800 34.5600   1
  -3  -3  33 -27.840 42.2100   1
 -25  19  11 195.090 40.4500   1
 -19  25  11 162.190 54.8000   1
 -25  11  19 257.420 44.3300   1
 -11  25  19 228.580 37.4700   1
  11  25  19 339.150 42.9900   1
 -11  19  25 249.700 49.1600   1
  11  31   5 444.370 47.5200   1
 -11  31   5 465.300 64.3300   1
   5  31  11 570.100 53.8900   1
  -5  31  11 702.300 65.3800   1
 -31   5  11 522.910 62.4200   1
 -11  31   5 639.930 59.8400   1
 -31  11   5 752.870 83.1100   1
 -11  31  -5 868.040 83.5000   1
 -18  28   0 187.910 55.9600   1
 -18   0  28 150.470 35.0500   1
  18   0  28 198.200 48.8600   1
  -8  30  12 196.320 38.5000   1
 -12  30   8 219.280 52.2300   1
   8  30  12 201.330 45.5100   1
 -30   8  12 236.110 51.1200   1
 -12   8  30 213.010 43.5900   1
  -8 -12  30 237.760 51.7200   1
 -30  12   8 195.010 43.2800   1
 -18  28   0 -66.030 63.2000   1
 -28   0  18 115.530 30.6400   1
   0  28  18 218.420 46.5400   1
   0  18  28 48.8200 40.9100   1
  -8  12  30 161.280 35.3100   1
   8  12  30 206.910 36.3600   1
 -12  -8  30 230.690 38.2700   1
  12   8  30 308.830 51.5100   1
 -30  12   8 147.460 42.6100   1
 -28  18   0 92.7700 66.3400   1
  -6  20  26 168.460 43.0500   1
 -28  18  -2 350.440 77.9200   1
   6  26  20 149.430 40.4300   1
 -18  28  -2 484.330 82.1500   1
 -28  18   2 287.380 56.3100   1
 -18  28   2 342.970 54.6200   1
 -28   2  18 322.580 43.7100   1
  -2  28  18 347.860 51.8600   1
   2  28  18 286.270 37.7300   1
 -18   2  28 374.510 47.6200   1
 -18  -2  28 333.360 50.9600   1
  18   2  28 367.170 51.2200   1
 -26  20   6 123.960 61.7800   1
  18  -2  28 408.580 60.1800   1
   2  18  28 405.070 49.1500   1
 -20  26  -6 210.530 63.5600   1
 -26  20   6 137.760 38.2500   1
  -6  26  20 151.210 47.8500   1
 -20  26   6 145.040 41.1100   1
  26   6  20 242.740 44.0600   1
  20   6  26 134.060 35.8500   1
 -20  -6  26 177.800 46.1000   1
 -18  28   2 308.600 46.1000   1
   6  20  26 80.8000 39.6400   1
 -22  22  12 868.620 73.3000   1
 -12  22  22 854.360 59.9300   1
 -22  12  22 928.410 62.2100   1
  12  22  22 939.460 65.4300   1
  22  12  22 945.850 67.2400   1
 -12 -22  22 828.640 62.8800   1
 -26   6  20 166.380 33.8900   1
  -2  18  28 366.610 47.2700   1
 -20  26   6 228.960 62.6700   1
 -20   6  26 129.640 40.7000   1
 -14  30  -4 746.700 78.0400   1
 -30  14   4 629.550 73.5400   1
 -30   4  14 666.550 58.4900   1
  -4  30  14 518.710 57.9400   1
   4  30  14 615.530 57.9900   1
  -4  14  30 548.770 47.8100   1
 -14   4  30 602.170 49.2100   1
   4  14  30 624.960 58.8200   1
 -14  -4  30 480.370 55.3000   1
  14   4  30 549.400 48.5200   1
  -4 -14  30 681.320 66.2500   1
  14  -4  30 656.770 61.6500   1
 -14  30   4 447.880 49.8500   1
  14  30   4 562.250 56.6600   1
  -5  33  -1 -25.960 49.0800   1
   5  33  -1 115.570 45.2100   1
   1  -5  33 59.4700 49.6000   1
  -1  -5  33 42.5700 49.0600   1
   5  -1  33 -26.990 43.0200   1
   5   1  33 83.8700 35.1300   1
  -5  -1  33 11.6300 46.9700   1
  -5   1  33 10.7500 33.5700   1
   1   5  33 107.050 43.7500   1
  -1   5  33 22.5800 47.4200   1
   1  33   5 75.5300 40.7300   1
  -1  33   5 57.0000 50.4400   1
  -5  33   1 -51.910 45.9900   1
   5  33   1 64.0800 57.5600   1
 -23  19  15 39.6000 33.4700   1
 -15  23  19 -22.880 32.6000   1
 -23  15  19 40.6300 40.4100   1
 -15  19  23 -20.100 40.3800   1
 -19  15  23 -44.060 39.7400   1
  -7  25  21 -18.130 32.7900   1
  15  23  19 18.5000 27.9300   1
  15  19  23 4.96000 30.1500   1
  19  15  23 -68.500 36.0700   1
  -5  33  -1 131.810 64.1000   1
  -1  33  -5 -32.580 54.7800   1
 -15 -19  23 30.1600 40.2300   1
 -19  23  15 -13.950 43.1800   1
 -27   5  19 799.450 64.3900   1
 -25   7  21 -11.460 38.3700   1
 -19  -5  27 605.660 49.8000   1
  19   5  27 613.750 51.4200   1
  27   5  19 693.230 60.3200   1
 -27  19   5 633.260 55.0600   1
   7  25  21 61.3200 38.3100   1
 -21   7  25 23.9000 30.5900   1
 -19  27   5 709.810 70.0800   1
   1  33   5 40.7200 53.3600   1
  -5  27  19 861.660 67.7600   1
   5  27  19 717.610 52.9300   1
  -5  19  27 674.930 52.0300   1
 -19   5  27 646.700 50.7400   1
   5  19  27 783.500 64.3400   1
 -19  27   5 893.610 71.6800   1
 -27  19   5 776.100 68.3300   1
 -19  27  -5 781.370 80.8300   1
  -1  33   5 63.8000 49.1100   1
 -27  19  -5 890.030 87.0500   1
  -5  33   1 -54.730 48.9100   1
  25   7  21 -63.330 46.0300   1
   5  33   1 30.5800 45.8800   1
   5  33  -1 28.4600 70.5200   1
  -7  21  25 1.55000 40.3200   1
   7  21  25 -3.9300 30.6600   1
 -21  -7  25 -18.750 42.6500   1
  21   7  25 -15.050 40.9300   1
  -7 -15  29 944.290 70.8700   1
  15   7  29 807.680 66.3700   1
 -15  -7  29 887.240 69.7100   1
   7  15  29 817.630 62.2300   1
 -15   7  29 958.880 71.2200   1
  -7  15  29 806.920 57.7300   1
   7  29  15 866.070 59.0900   1
  -7  29  15 944.980 64.1900   1
 -29   7  15 853.730 65.3700   1
 -21  25  -7 -1.3200 98.2800   1
 -25  21   7 11.6400 36.0800   1
 -25  21   7 127.950 52.7200   1
 -15  29   7 697.140 70.7700   1
 -29  15   7 715.020 67.3400   1
 -21  25   7 -27.710 40.9600   1
 -21  25   7 69.9400 38.1600   1
 -15  29   7 986.410 72.3000   1
 -29  15   7 785.030 65.2300   1
 -15  29  -7 655.500 77.6600   1
 -24  20  12 765.090 59.1600   1
 -20  24  12 604.670 53.4500   1
 -12  24  20 602.970 56.2100   1
 -24  12  20 577.560 53.4200   1
 -12 -20  24 586.480 61.8000   1
  20  12  24 732.060 59.1000   1
  24  12  20 598.520 48.8200   1
 -20 -12  24 724.080 62.8300   1
  12  20  24 610.860 53.6200   1
  12  24  20 607.680 52.4500   1
 -12  20  24 684.680 57.3900   1
 -20  12  24 700.070 61.5700   1
   9  31   9 548.620 49.6200   1
 -31   9   9 611.230 58.2500   1
  -9  31   9 495.140 50.2300   1
   9   9  31 512.580 57.2100   1
  -9  -9  31 610.490 60.6800   1
   5   3  33 360.920 49.8500   1
  -5  -3  33 234.600 46.2200   1
  -3  -5  33 277.100 47.9400   1
   5  -3  33 294.220 54.7500   1
   3  33   5 151.260 55.8700   1
  -3  33   5 268.130 44.3800   1
   3  33   5 267.750 53.2400   1
  -3  33   5 366.720 64.3600   1
 -15  27  13 564.130 62.2400   1
  -3  33  -5 363.870 75.5100   1
 -27  13  15 375.600 42.2600   1
  -5   3  33 389.880 42.7200   1
   3   5  33 222.050 38.4800   1
  -3   5  33 254.240 46.4700   1
   3  -5  33 376.670 55.7500   1
  -5  33   3 367.730 52.3800   1
 -33   5   3 346.520 71.7300   1
   5  33  -3 436.690 73.0400   1
  -5  33  -3 263.730 81.8900   1
   5  33   3 442.740 54.4300   1
  -5  33  -3 139.230 52.5700   1
  -9   9  31 533.880 47.2100   1
  -5  33   3 392.780 47.3400   1
   5  33   3 193.940 48.6700   1
 -27  15  13 447.480 52.7700   1
 -13 -15  27 397.930 44.1700   1
 -15 -13  27 460.070 55.6400   1
  15  13  27 496.540 50.9400   1
  13  15  27 461.940 52.8500   1
 -13  15  27 415.500 42.1500   1
 -15  13  27 399.480 41.4100   1
  13  27  15 363.920 38.1900   1
 -13  27  15 419.950 57.1700   1
  -4  18  28 1061.34 67.3900   1
   4  28  18 1134.72 74.5600   1
  -4  28  18 1141.44 78.6700   1
 -28   4  18 1201.28 77.5100   1
 -18  28   4 1340.76 98.3700   1
 -28  18   4 1318.08 174.200   1
 -18  28  -4 1227.57 108.850   1
 -28  18  -4 1387.01 105.060   1
  14  12  28 230.570 44.2100   1
 -18   4  28 1152.47 76.0400   1
 -14 -12  28 285.460 39.8500   1
 -12 -14  28 247.520 45.5400   1
  22   8  24 258.940 38.3700   1
  24   8  22 171.210 42.4700   1
 -24  22   8 206.160 54.9500   1
 -22  24   8 214.050 42.1700   1
   6  -8  32 1702.13 103.350   1
  -6  -8  32 1391.14 83.4600   1
   8   6  32 1585.36 94.2200   1
   6   8  32 1500.21 86.8500   1
  -6   8  32 1445.86 85.0600   1
  -8   6  32 1552.54 96.2800   1
   6  32   8 1610.14 103.940   1
 -28  14  12 212.620 38.7300   1
 -32   8   6 1711.63 114.090   1
 -32   6   8 1466.85 102.020   1
   8  32   6 1440.74 91.8800   1
  -8  32   6 1569.52 105.720   1
  -6  32   8 1654.05 102.170   1
 -32  10   0 34.0200 66.8800   1
  20  18  20 1557.99 94.5600   1
  -8  -6  32 1442.02 88.8400   1
 -10  32   0 -15.310 59.7400   1
   0  32  10 157.810 50.0100   1
  -8  32  -6 1732.64 126.680   1
 -28  14  12 269.760 48.7200   1
 -28  12  14 415.140 50.7200   1
 -14  28  12 281.800 41.4300   1
 -12  28  14 346.060 42.5100   1
  12  28  14 300.650 40.5500   1
 -12  14  28 271.380 37.8500   1
 -14  12  28 388.490 41.5000   1
  12  14  28 279.750 44.0400   1
 -22  -8  24 254.430 46.3400   1
   8  22  24 198.570 45.5500   1
   8  24  22 233.510 35.2600   1
  -8  22  24 213.840 43.0800   1
 -22   8  24 238.460 42.9900   1
 -24   8  22 236.570 42.9800   1
  -8  24  22 210.500 44.6400   1
 -24  22   8 256.950 54.8300   1
 -22  24   8 233.040 56.1900   1
   0  10  32 -18.900 32.9400   1
  18  20  20 1573.54 102.200   1
 -18  20  20 1508.01 93.7200   1
 -10   0  32 80.7400 33.7400   1
 -20  18  20 1528.99 91.7900   1
 -20  20  18 1480.28 86.5300   1
  28   4  18 1035.36 73.8300   1
   8  -6  32 1426.81 91.6000   1
  10   0  32 -32.920 49.2400   1
   0 -10  32 68.8600 45.1500   1
 -10  32   0 36.8200 40.1200   1
  10  32   0 23.5900 44.0500   1
  18   4  28 877.740 62.0900   1
 -18  -4  28 1013.10 66.6000   1
   4  18  28 1029.85 66.0800   1
  -8  32   6 1308.27 88.2800   1
 -18  28   4 812.700 63.3700   1
 -28  18   4 798.570 68.1600   1
 -16  14  26 314.790 38.8800   1
  14  16  26 351.510 45.2400   1
  16  14  26 331.330 38.9000   1
 -16 -14  26 352.520 51.7800   1
 -14 -16  26 414.660 51.2900   1
 -14  16  26 372.850 41.0200   1
  10  32   2 96.4800 45.0300   1
 -14  26  16 298.060 41.5300   1
 -10  32   2 -86.310 55.0200   1
   2  32  10 -78.210 46.5800   1
 -26  16  14 318.870 41.8000   1
 -16  26  14 285.870 40.5700   1
 -26  14  16 257.970 37.8200   1
  14  26  16 278.050 35.0300   1
 -10  32   2 -114.78 56.4300   1
   2 -10  32 -35.780 46.0200   1
 -10  32  -2 46.7500 68.1000   1
  -2  32  10 75.4000 43.4000   1
 -32  10   2 -107.64 73.0800   1
  -2  10  32 28.7200 33.3700   1
   2  10  32 98.6100 46.4200   1
 -10  32  -2 5.46000 51.1400   1
  -2 -10  32 66.5300 49.9400   1
  10  -2  32 -26.450 50.2200   1
  10   2  32 143.750 49.8300   1
 -10  -2  32 2.89000 41.4100   1
  11  31   7 543.200 57.1400   1
 -17   1  29 428.540 43.5400   1
   1  17  29 482.040 44.8800   1
 -29  13  11 93.0600 42.0600   1
 -11 -13  29 91.0000 43.5600   1
 -13 -11  29 37.8800 41.1400   1
  13  11  29 83.9800 41.1000   1
  11  13  29 131.320 45.9100   1
 -13  11  29 155.410 34.5200   1
 -11  13  29 118.450 41.0500   1
  11  29  13 88.2500 40.9700   1
 -11  29  13 41.2500 35.5300   1
 -13  29  11 82.0200 36.9500   1
 -29  11  13 127.950 48.8300   1
 -29  13  11 121.610 52.5300   1
 -17  -1  29 419.210 48.6500   1
  -1  17  29 446.810 54.9000   1
  -1  29  17 337.190 39.4200   1
   1  29  17 300.270 38.6800   1
 -29   1  17 368.030 45.9000   1
 -17  29   1 365.170 68.3000   1
 -29  17   1 314.900 60.6500   1
 -29  17  -1 482.810 87.8500   1
 -11  31  -7 481.530 90.8800   1
 -31  11   7 497.730 71.0100   1
 -11  31   7 524.560 54.1200   1
 -31   7  11 550.950 59.5700   1
  -7  31  11 469.960 47.1800   1
   7  31  11 553.260 52.5400   1
  -7  11  31 546.550 57.7100   1
 -11   7  31 535.140 57.4300   1
   7  11  31 570.270 54.8200   1
 -11  -7  31 492.610 46.1500   1
  11   7  31 627.220 56.4100   1
  -7 -11  31 526.810 49.2100   1
  11  -7  31 648.680 58.7400   1
 -11  31   7 421.090 63.7200   1
 -17  29  -1 331.060 62.2700   1
 -31  13  -1 76.0600 54.3100   1
 -31  13   1 -73.020 50.6900   1
 -13  31  -1 57.1000 54.0600   1
 -13  31   1 105.570 69.5800   1
  -1  31  13 -58.880 40.2700   1
   1  31  13 -10.060 31.1600   1
  -1  13  31 -1.3000 32.9900   1
 -13   1  31 -95.130 46.3200   1
   1  13  31 -16.590 32.4000   1
 -13  -1  31 8.11000 31.7000   1
  13   1  31 4.60000 49.5700   1
  13  -1  31 -47.740 44.2200   1
  -1 -13  31 80.7700 37.8700   1
   1 -13  31 -61.800 37.9100   1
  13  31  -1 -8.6100 41.5700   1
 -13  31  -1 100.180 49.3900   1
  13  31   1 69.3900 41.6700   1
 -13  31   1 -35.970 39.7000   1
 -17  29   1 237.730 60.1500   1
 -17  29  -1 380.660 49.4600   1
  17  -1  29 381.810 58.7400   1
  17   1  29 369.620 43.4700   1
 -18  22  18 828.780 64.0300   1
 -14  30   6 726.020 60.2000   1
  14  30   6 676.230 67.5600   1
 -22  18  18 726.350 60.5200   1
 -18  18  22 664.530 58.0800   1
 -30  14   6 756.260 65.7700   1
  18  18  22 890.570 64.3100   1
  18  22  18 797.180 58.9400   1
 -30   6  14 1037.05 76.1000   1
 -14  30  -6 839.870 104.130   1
 -30  14   6 823.440 69.8600   1
 -14  30   6 787.660 66.0600   1
  -6  30  14 832.110 64.9400   1
   6  30  14 942.560 70.0700   1
 -14   6  30 942.370 70.5400   1
  -6  14  30 700.280 53.2700   1
   6  14  30 865.770 58.9800   1
 -14  -6  30 883.670 61.4000   1
  14   6  30 879.950 66.6400   1
  -6 -14  30 897.810 68.9700   1
  13   3  31 -5.6600 42.6100   1
   3  13  31 41.5700 46.0400   1
 -13   3  31 164.300 34.6500   1
  -3  13  31 65.0200 47.3200   1
   3  31  13 88.7900 31.3100   1
  -3  31  13 162.440 36.2800   1
 -19  27  -7 863.130 99.2100   1
 -27  19   7 866.520 80.8000   1
 -19  27   7 793.330 64.6600   1
   7  33   1 70.3500 37.1500   1
  -7  33   1 31.0800 39.9800   1
  -7  33  -1 -16.020 38.4100   1
   7  33  -1 98.4100 36.8700   1
  -1  33   7 61.2100 38.2300   1
 -23  23   9 542.680 51.8700   1
  23   9  23 588.970 49.6800   1
   9  23  23 612.230 48.7100   1
  -9  23  23 648.610 51.5100   1
 -23   9  23 610.690 49.9100   1
 -23  23   9 639.630 69.4200   1
 -29  17  -3 1105.28 104.130   1
  13  -3  31 73.1200 47.1400   1
 -17  29  -3 1050.83 107.120   1
 -13  31   3 178.140 48.2000   1
 -31  13   3 179.450 52.7100   1
 -29  17   3 1137.46 93.5600   1
 -17  29   3 978.430 86.7400   1
   7  33   1 -15.810 66.1000   1
 -31   3  13 124.160 43.0700   1
  13  31   3 121.990 35.9100   1
 -13  -3  31 122.190 42.8600   1
 -13  31   3 93.7000 41.1600   1
 -13 -23  21 770.310 68.8500   1
 -13 -21  23 659.070 60.1500   1
 -19  27   7 535.810 59.9700   1
 -27  19   7 539.800 57.4000   1
 -13  31  -3 37.2400 82.1200   1
  -7  33   1 -3.1900 47.6100   1
  23  13  21 753.480 59.1900   1
  21  13  23 749.750 59.3000   1
  13  21  23 843.970 62.0500   1
  13  23  21 661.710 54.4300   1
 -25  17  15 133.780 36.4100   1
   7  33  -1 149.700 68.7000   1
 -17  25  15 86.6500 48.1200   1
  -7  33  -1 -61.560 73.8400   1
 -13  21  23 779.050 61.9200   1
 -23  13  21 846.340 63.5300   1
 -13  23  21 616.740 50.9500   1
 -21  23  13 824.060 61.3300   1
 -23  21  13 737.420 64.4300   1
 -27  17  11 -102.67 50.8800   1
 -17  27  11 1.54000 47.1400   1
  -3 -13  31 78.3600 51.9700   1
 -21  13  23 666.050 51.8700   1
  17  15  25 100.870 38.7800   1
  15  17  25 59.6600 42.1800   1
 -15  17  25 55.1100 40.4300   1
 -17  15  25 63.1100 39.9200   1
  15  25  17 79.4200 35.7000   1
 -15  25  17 68.7400 42.9200   1
 -25  15  17 118.910 34.6500   1
 -11 -17  27 -8.5800 42.5200   1
   5  -5  33 773.140 58.3300   1
   1  -7  33 15.0300 35.1500   1
   7  -1  33 58.4100 35.9900   1
  -1  -7  33 116.270 36.1300   1
   7   1  33 38.3700 43.8700   1
  -7  -1  33 28.1400 33.4800   1
   1   7  33 48.6000 34.6300   1
  -7   1  33 109.790 47.4300   1
  -1   7  33 26.5600 41.8300   1
  -5  33   5 780.480 68.1300   1
   5  33   5 834.980 73.2800   1
  -5  -5  33 797.730 57.9800   1
   5   5  33 823.050 67.5200   1
  -5   5  33 834.400 59.0400   1
  -5  33   5 847.140 74.9300   1
   5  33   5 783.360 77.3500   1
 -33   5   5 1060.92 99.4700   1
  -5  33  -5 851.100 98.7200   1
  17  11  27 4.66000 40.5500   1
  11  17  27 47.6400 42.7500   1
 -17  11  27 -33.270 31.8200   1
 -11  17  27 14.3000 39.5900   1
  11  27  17 21.1600 29.3300   1
 -11  27  17 13.7200 47.9200   1
 -27  11  17 -10.880 31.3700   1
  17  -3  29 1084.95 83.7000   1
 -17  -3  29 1102.92 74.5100   1
   3  17  29 1072.37 72.3000   1
 -17   3  29 1013.14 73.5000   1
  -3  17  29 980.560 69.2700   1
   3  29  17 1052.57 70.9900   1
  -3  29  17 1172.86 76.1400   1
 -29   3  17 1046.67 72.0600   1
  -7 -19  27 662.160 63.7800   1
  27   7  19 774.760 66.3300   1
  19   7  27 723.680 55.6200   1
 -19  -7  27 709.580 54.5700   1
   7  19  27 688.120 60.8300   1
  -7  19  27 662.020 57.1600   1
 -19   7  27 707.950 58.3300   1
   7  27  19 774.800 63.0300   1
  -7  27  19 845.610 64.1200   1
 -27   7  19 784.720 56.5000   1
 -15 -17  25 88.3700 33.4900   1
 -17 -15  25 53.2600 45.9300   1
 -17 -11  27 10.2100 45.2000   1
  17   3  29 1021.99 72.2100   1
  20   8  26 34.8300 46.2300   1
  -4  32  10 203.940 39.5100   1
  -4  10  32 353.720 40.8200   1
  16  22  20 83.4800 35.9100   1
  20  16  22 142.320 38.8800   1
 -10   4  32 261.940 46.5600   1
  22  16  20 94.7600 41.0300   1
 -10  32  -4 242.860 84.3300   1
 -32  10   4 221.620 74.0200   1
 -10  32   4 291.270 62.0800   1
   4  32  10 262.770 46.4000   1
 -20  26   8 177.730 60.5000   1
 -26  20   8 -4.0700 51.2900   1
 -28  16  10 14.3300 36.4000   1
 -16  28  10 -7.4000 49.8800   1
 -28  10  16 15.6700 39.4400   1
  10  28  16 54.9500 36.2500   1
  26   8  20 83.4800 32.4800   1
 -20  -8  26 61.2700 44.2700   1
   8  20  26 42.9100 39.4200   1
 -20   8  26 44.2200 39.7300   1
  -8  20  26 71.3500 46.6100   1
   8  26  20 47.9300 30.0100   1
  -8  26  20 23.7700 33.6600   1
 -20  26   8 122.710 40.0200   1
 -26  20   8 79.8000 45.2900   1
  -8 -20  26 30.9400 37.5500   1
 -16  10  28 -15.650 31.7400   1
 -10  16  28 -30.540 39.8100   1
  10  16  28 114.240 40.6300   1
 -16 -10  28 52.4700 41.4100   1
  16  10  28 87.5000 41.2400   1
 -10 -16  28 49.4800 42.4400   1
 -28  16  10 18.7300 33.9100   1
 -22  20  16 175.510 51.2100   1
 -20  22  16 9.32000 33.5200   1
 -16  22  20 43.2300 42.2700   1
 -22  16  20 85.5200 34.2000   1
 -16  20  22 14.4300 46.5800   1
 -20  16  22 -9.0700 40.3700   1
  10  32   4 287.400 42.3000   1
 -10  32   4 367.450 55.6700   1
   4 -10  32 332.330 58.9300   1
  10  -4  32 350.200 52.7600   1
 -26   8  20 -29.650 43.1700   1
  -4 -10  32 293.730 41.0900   1
  10   4  32 343.270 48.6400   1
 -10  -4  32 338.390 48.0400   1
   4  10  32 301.810 40.1100   1
 -12  26  18 214.580 37.6200   1
  12  26  18 184.080 43.5100   1
 -18  12  26 94.9400 41.3400   1
 -12  18  26 225.120 43.3400   1
  12  18  26 127.240 43.5300   1
 -18 -12  26 145.930 41.1900   1
  18  12  26 187.540 35.4500   1
 -12 -18  26 150.560 44.8100   1
 -26  18  12 99.4000 37.7200   1
   6  28  18 1532.53 80.4500   1
 -30  12  10 -22.290 32.5600   1
 -10 -12  30 31.6200 34.3600   1
 -12 -10  30 7.16000 41.5700   1
  12  10  30 -63.300 39.3500   1
 -10  12  30 46.9700 46.6100   1
 -12  10  30 -24.490 32.4000   1
 -26  18  12 186.490 38.4700   1
 -10  30  12 27.9700 35.2100   1
 -12  30  10 -34.040 36.1800   1
 -30  10  12 13.0300 43.5700   1
 -30  12  10 -33.510 51.9000   1
  10  30  12 -13.600 36.0800   1
 -18  26  12 224.860 40.3700   1
 -18  28   6 1441.66 94.0900   1
 -28  18   6 1492.21 97.1000   1
  -6 -18  28 1468.01 89.7300   1
  28   6  18 1545.38 83.6300   1
  18   6  28 1548.43 90.1900   1
 -18  -6  28 1637.42 88.6900   1
   6  18  28 1520.55 79.1300   1
 -18   6  28 1533.17 88.0300   1
  -6  18  28 1566.03 89.5800   1
  10  12  30 -30.190 31.8500   1
  -6  28  18 1600.38 97.6700   1
 -28   6  18 1791.26 104.530   1
 -18  28   6 1850.57 120.800   1
 -28  18   6 1573.33 101.220   1
 -18  28  -6 1828.46 116.060   1
 -26  12  18 180.490 35.9300   1
   7  33   3 219.770 40.1600   1
  -7  33  -3 187.140 54.2700   1
  -7  33   3 399.480 63.5700   1
  -7  33   3 234.950 59.3100   1
 -33   7   3 319.750 65.1000   1
  -7  33  -3 376.170 75.2800   1
   7  33   3 467.870 63.2000   1
   3  -7  33 300.380 42.5700   1
   7  -3  33 268.940 41.0900   1
  -3  -7  33 358.840 49.2000   1
   7   3  33 329.530 40.9200   1
  -7  -3  33 294.450 46.5600   1
   3   7  33 325.550 40.3800   1
  -7   3  33 209.310 45.8900   1
  -3   7  33 241.220 50.5400   1
  -9  29  15 239.360 46.4200   1
 -29   9  15 222.270 49.7000   1
 -15  29   9 242.670 42.8500   1
  -9  21  25 132.510 48.1300   1
  -9  25  21 114.720 43.2900   1
 -25   9  21 94.0000 41.0700   1
 -21  25   9 104.980 40.9900   1
 -25  21   9 43.3600 51.4100   1
 -29  15   9 217.050 60.2200   1
  -3  33   7 290.750 44.0600   1
   9  25  21 109.070 31.8200   1
 -21   9  25 58.4900 32.8000   1
   9  21  25 177.220 45.8500   1
 -21  -9  25 124.580 39.9500   1
  25   9  21 60.3600 40.1200   1
  21   9  25 119.400 33.8600   1
 -25  21   9 176.350 48.1700   1
  15   9  29 197.090 49.1900   1
 -21  25   9 158.340 40.6400   1
  -3  33   7 291.710 45.5800   1
 -29  15   9 185.830 50.5300   1
  -9 -15  29 186.750 37.9400   1
   9  29  15 267.090 41.1600   1
 -15  -9  29 246.190 38.0700   1
   9  15  29 279.000 44.4100   1
 -15   9  29 204.730 35.8300   1
  -9  15  29 223.510 36.2000   1
   3  33   7 296.810 50.8300   1
   8  -8  32 1092.78 69.2100   1
  -8  -8  32 915.560 58.9500   1
   8   8  32 1058.33 67.7500   1
  -8   8  32 994.830 65.3000   1
   0  24  24 2468.22 121.650   1
  -8  32   8 1120.32 75.0500   1
 -24   0  24 2452.17 131.410   1
 -32   8   8 1040.19 74.0200   1
 -24  24   0 2412.62 141.030   1
   8  32   8 1226.37 81.8300   1
 -23  25  -1 2010.25 132.370   1
 -25  23  -1 1699.15 122.880   1
 -23  25   1 1675.57 109.710   1
 -25  23   1 1705.03 103.920   1
 -25   1  23 1956.20 102.750   1
  -1  25  23 1764.33 88.1400   1
 -25  -1  23 1845.08 95.3100   1
  23   1  25 1813.72 101.190   1
  13  31   5 410.900 51.5200   1
 -13  31   5 608.930 61.7200   1
  13  -5  31 647.290 65.8000   1
  -5 -13  31 554.640 48.6200   1
  13   5  31 509.620 45.5200   1
 -13  -5  31 564.540 46.9700   1
   5  13  31 497.060 43.5700   1
   1  25  23 1759.41 88.2000   1
  -1  23  25 1918.73 99.3600   1
  17  29   5 1568.00 92.7100   1
 -17  29   5 1508.52 84.4300   1
 -23   1  25 1877.72 100.520   1
 -29  17   5 1501.43 84.5600   1
  -5 -17  29 2291.82 115.400   1
  17   5  29 1962.78 97.6200   1
 -17  -5  29 1764.05 89.9200   1
   5  17  29 1973.23 98.8300   1
 -23  -1  25 1801.06 98.6200   1
 -23  25   1 1532.62 85.9800   1
 -13  31  -5 375.830 66.3600   1
 -31  13   5 403.480 54.6900   1
 -13  31   5 447.320 53.2800   1
 -31   5  13 609.000 60.8700   1
  -5  31  13 536.240 58.1000   1
 -25  19  13 254.970 40.9900   1
 -19  25  13 377.670 51.2900   1
 -25  13  19 218.780 35.8300   1
 -13  25  19 262.610 51.2500   1
 -19  13  25 418.580 51.3700   1
  13  25  19 268.780 40.5600   1
 -13  19  25 455.880 48.7800   1
  13  19  25 287.140 43.2700   1
 -19 -13  25 290.090 44.7100   1
  19  13  25 323.530 38.2800   1
 -13 -19  25 408.840 43.9800   1
   5  31  13 477.380 42.8400   1
  -5  13  31 401.250 53.0100   1
 -13   5  31 447.830 48.9500   1
   1  23  25 1774.72 88.2500   1
 -17   5  29 1885.78 93.6700   1
  -5  17  29 1958.40 95.3600   1
   5  29  17 2087.70 105.020   1
  -5  29  17 2131.30 105.450   1
 -29   5  17 1922.68 97.7700   1
 -17  29   5 2063.12 109.750   1
 -29  17   5 1998.02 162.170   1
 -17  29  -5 1813.93 120.950   1
   0   0  34 1233.63 70.2400   1
 -16  18  24 7.37000 46.6900   1
 -16  24  18 -2.5200 33.1700   1
   0  34   0 1021.83 73.4000   1
  16  24  18 51.8600 34.4800   1
 -24  24   2 1757.69 103.790   1
 -24  24  -2 2046.99 128.870   1
  16   0  30 361.020 56.3900   1
 -16   0  30 295.110 37.7200   1
   0  30  16 283.120 48.9600   1
 -30  16   0 321.310 59.9800   1
 -16  30   0 246.090 76.5500   1
   0  34   0 1315.51 89.8500   1
 -24  16  18 -11.010 32.5200   1
 -18  24  16 78.9100 34.7900   1
 -24  18  16 26.2200 43.1500   1
  24   2  24 1920.17 102.410   1
 -24  -2  24 1930.47 103.140   1
   2  24  24 1903.75 93.4200   1
  -2  24  24 1981.25 102.930   1
 -24   2  24 1859.80 96.7800   1
  16  18  24 -2.9800 29.9300   1
 -16  30   0 253.700 43.4700   1
   0  16  30 263.890 38.3700   1
 -16 -18  24 -27.760 32.3400   1
  18  16  24 -42.630 36.8800   1
  -8  30  14 486.330 53.3000   1
 -30   8  14 390.860 48.7000   1
 -14  30   8 365.060 47.1600   1
 -30  14   8 308.920 55.7100   1
  10  32   6 647.090 63.5400   1
 -32  10   6 648.090 72.1900   1
 -10  32  -6 556.560 71.3200   1
 -22   0  26 984.410 64.8100   1
   0  22  26 981.420 67.2100   1
   0  26  22 1002.79 61.0000   1
  16   2  30 511.150 46.3800   1
 -26   0  22 1012.40 65.0800   1
   2  30  16 606.320 46.6400   1
  -2  30  16 586.700 46.9700   1
 -22  26   0 1048.51 91.9900   1
 -30   2  16 602.080 67.1400   1
 -16  30   2 484.080 58.2100   1
 -32   6  10 648.610 68.3500   1
 -26  22   0 947.820 92.3500   1
   0  34   2 670.010 61.7300   1
   0  34  -2 817.260 75.7200   1
   2  34   0 1049.45 82.3200   1
  -2  34   0 959.600 88.6400   1
  -2  16  30 503.910 55.5200   1
 -16   2  30 499.370 54.5800   1
   2  16  30 655.770 58.6900   1
 -30  16   2 595.420 65.3700   1
 -14  30   8 324.460 46.5200   1
 -30  14   8 359.650 55.3500   1
  -8 -14  30 453.600 58.3200   1
   0  34   2 869.110 69.5100   1
   0   2  34 853.080 56.6800   1
  -2   0  34 785.050 54.3500   1
   0  -2  34 826.200 61.9500   1
   2   0  34 864.630 57.1300   1
   0  34  -2 779.250 57.7000   1
  -2  34   0 698.810 63.6000   1
   2  34   0 778.290 70.0100   1
 -24  22  10 725.180 65.3600   1
 -22  24  10 766.310 58.2700   1
 -10  24  22 912.360 58.4400   1
 -24  10  22 794.870 62.2700   1
 -22  10  24 791.970 63.2500   1
 -10  22  24 721.440 61.9300   1
  10  24  22 708.990 57.8000   1
  14   8  30 424.030 53.7000   1
 -16  30  -2 529.430 70.0400   1
   6  32  10 562.580 53.9300   1
 -10  32   6 653.220 58.1700   1
 -14  -8  30 394.080 50.0300   1
  10  22  24 826.750 57.4100   1
   8  14  30 494.620 43.6600   1
  22  10  24 754.190 53.2300   1
  10  32   6 448.400 47.9100   1
 -10  32   6 532.390 60.0300   1
 -30  16  -2 544.360 79.9600   1
  -8  14  30 380.340 40.6500   1
 -24  22  10 709.240 62.0500   1
 -22  24  10 641.030 54.0800   1
 -22  26   0 679.710 57.3700   1
  -6  10  32 659.480 49.4200   1
 -10   6  32 539.200 45.5200   1
   6  10  32 690.170 60.2900   1
 -10  -6  32 672.790 56.1800   1
  24  10  22 743.240 58.5700   1
  -6 -10  32 533.400 53.1300   1
  10  -6  32 618.620 53.3700   1
   6 -10  32 673.590 55.8800   1
 -16  -2  30 645.100 55.1000   1
 -14   8  30 372.550 40.6800   1
  16  -2  30 579.480 63.0300   1
  -2 -16  30 564.460 52.3200   1
  16  30   2 466.110 55.7500   1
 -16  30   2 468.480 65.4000   1
  -6  32  10 671.280 63.8600   1
   8  30  14 454.200 47.3400   1
  22   0  26 837.930 60.1200   1
  10   6  32 540.530 46.1700   1
   7   5  33 787.030 54.4400   1
  -7  -5  33 817.140 55.5600   1
   5   7  33 892.880 63.1100   1
  -7   5  33 922.270 57.9100   1
  19  19  21 1112.03 69.2100   1
 -19  19  21 1152.60 73.9000   1
 -21  19  19 1130.60 66.2400   1
 -19  21  19 1160.05 71.7200   1
  -5   7  33 964.160 64.7100   1
 -25   3  23 995.420 60.5700   1
  -5  33   7 778.180 66.2900   1
   5  33   7 894.880 73.6100   1
  -7  33   5 1036.48 70.9300   1
   7  33   5 891.320 66.7500   1
 -33   7   5 948.950 86.8700   1
  -7  33  -5 907.330 81.1000   1
 -25  23   3 819.710 64.5700   1
 -23  25   3 871.620 67.8400   1
   9  11  31 64.0800 33.1400   1
  -9  11  31 26.1300 32.0800   1
 -11   9  31 25.2900 40.6700   1
  -9  31  11 87.8700 36.2400   1
  11   9  31 149.230 42.6900   1
   9  31  11 88.2200 39.3000   1
 -11  31   9 215.070 41.6300   1
  11  31   9 80.9000 46.5500   1
 -31   9  11 89.2200 37.9400   1
 -31  11   9 133.210 42.0400   1
 -11  -9  31 168.960 43.8300   1
 -25  23  -3 919.300 84.3300   1
 -23  25  -3 1137.30 89.9800   1
 -25  23   3 1185.53 90.7400   1
 -23  25   3 1019.13 75.6100   1
  -3  25  23 1172.56 74.9300   1
   3  25  23 1029.58 61.2700   1
  -3  23  25 997.540 60.3800   1
 -23   3  25 1156.62 70.5400   1
 -25  -3  23 1014.11 99.4500   1
   3  23  25 972.150 59.1400   1
 -23  -3  25 1116.05 72.2700   1
  23   3  25 1157.07 77.5000   1
  25   3  23 1057.89 75.3600   1
  -9 -11  31 84.5300 34.7200   1
  -5  33   7 707.070 70.3700   1
   7  33   5 743.750 56.8100   1
  -7  33   5 743.210 65.5900   1
   5  -7  33 848.790 69.7800   1
   7  -5  33 939.560 67.4200   1
  -5  -7  33 854.190 62.5400   1
 -26   2  22 644.990 56.4700   1
  -2   2  34 498.840 52.5200   1
 -22  22  14 460.260 54.0600   1
 -22  14  22 563.820 52.2700   1
  14  22  22 593.330 54.3000   1
   2   2  34 449.230 44.1500   1
  22  14  22 515.160 52.8700   1
   2  22  26 640.110 53.0400   1
 -14  22  22 486.120 44.3800   1
 -22   2  26 510.490 49.5300   1
  -2  22  26 705.510 50.3000   1
   2  -2  34 363.680 50.0100   1
  -2  26  22 616.400 54.3500   1
  -2  -2  34 478.070 51.9900   1
 -26  -2  22 559.660 49.8400   1
   2  26  22 674.090 66.9300   1
 -22  -2  26 518.830 54.7500   1
  22   2  26 581.220 61.9500   1
  26   2  22 505.500 57.0700   1
   2  34  -2 437.400 74.2800   1
 -22  26   2 626.380 73.8400   1
 -26  22   2 580.660 64.9800   1
  -2  34   2 362.600 46.4400   1
   2  34   2 349.060 53.6100   1
  -2  34  -2 329.460 45.0400   1
   2  34  -2 450.500 57.2500   1
  -2  34  -2 451.190 63.3100   1
   2  34   2 679.910 73.0600   1
 -22  26   2 493.330 56.4700   1
  -2  34   2 485.760 66.4300   1
 -22  26  -2 634.970 73.1800   1
 -26  22  -2 501.140 68.1700   1
 -26  22   2 426.260 48.5700   1
   0 -12  32 59.7100 46.7500   1
  12   0  32 87.5900 44.6700   1
 -12   0  32 174.160 34.6800   1
   0  12  32 26.4100 47.9600   1
 -24  24   4 783.300 65.1400   1
 -12  32   0 173.390 52.6600   1
 -12  32   0 33.6200 71.0200   1
 -32  12   0 111.620 77.1100   1
   0  32  12 191.710 36.9200   1
 -24  24  -4 777.990 79.1400   1
 -24  24   4 869.900 79.0700   1
  12  32   0 95.4200 42.5700   1
   4  24  24 1028.91 61.0800   1
  -4  24  24 884.480 61.4000   1
 -24   4  24 973.860 60.1800   1
 -24  -4  24 799.330 53.7800   1
  24   4  24 948.630 67.8000   1
 -19  27   9 316.790 46.1100   1
 -27   9  19 81.8200 40.1700   1
  -9  27  19 145.180 35.9100   1
   9  27  19 195.210 40.3900   1
 -19   9  27 246.590 43.3100   1
  21   1  27 113.510 38.4500   1
   9  33   1 8.70000 44.4200   1
 -21  27   1 96.9900 39.1000   1
  21  -1  27 51.4400 47.6900   1
  -9  33  -1 -44.740 38.1300   1
 -21  -1  27 77.7300 33.3100   1
 -21   1  27 100.820 33.1500   1
  -1  21  27 72.9800 33.8900   1
   1  21  27 156.600 41.8000   1
   1  27  21 123.670 41.0700   1
 -27   1  21 194.200 45.0800   1
 -27  -1  21 159.030 38.9400   1
  -1  27  21 81.2300 42.1000   1
 -21  27   1 212.540 56.4000   1
  -1  -9  33 24.6100 44.5800   1
   9  -1  33 -55.240 50.2700   1
   9   1  33 -6.0000 48.5800   1
  -9  -1  33 45.0600 41.8700   1
   1   9  33 74.4800 34.6300   1
  -9   1  33 26.6900 32.5500   1
 -21  27  -1 349.830 62.1800   1
   1  33   9 61.2000 49.3100   1
  -1  33   9 60.3600 49.8800   1
  -9  33   1 -1.0300 47.3900   1
  -9  33  -1 -64.050 65.9100   1
   9  33   1 69.1000 46.5100   1
 -33   9   1 42.6500 65.3400   1
 -27  21   1 202.800 69.4000   1
 -27  21  -1 144.380 72.6000   1
   9  33  -1 68.4100 35.2900   1
  -9  33   1 -123.65 56.5800   1
   9  19  27 184.510 47.1300   1
 -21  17  21 312.320 39.3400   1
 -19  -9  27 127.010 42.2500   1
  19   9  27 163.170 44.2900   1
  -9 -19  27 190.430 40.0300   1
  17  21  21 287.600 41.0500   1
  21  17  21 288.120 41.6400   1
 -17  21  21 229.230 44.7800   1
 -21  21  17 297.930 40.0800   1
 -27  19   9 164.890 58.5000   1
 -27  19   9 115.740 36.8900   1
  -9  19  27 193.220 48.1900   1
 -19  27   9 33.6300 57.4800   1
  -1   9  33 -56.650 41.4300   1
 -30  16   4 1371.84 102.000   1
 -16  30   4 1519.34 92.5500   1
 -30   4  16 1522.01 89.5700   1
  -4  30  16 1356.14 74.1400   1
   4  30  16 1359.06 81.3100   1
 -16  30   4 1030.06 79.4600   1
  16  30   4 1138.13 74.4600   1
   0  34  -4 179.550 71.9700   1
   4  34   0 324.860 67.9100   1
  -4  34   0 375.310 71.0500   1
   0  34   4 209.490 45.8700   1
   0   4  34 281.600 46.2900   1
  -4   0  34 132.420 36.0700   1
   4   0  34 282.390 52.8200   1
   0  -4  34 273.850 47.8700   1
  -4  34   0 189.540 57.8200   1
   4  34   0 192.450 40.9500   1
   0  34   4 143.600 49.3700   1
 -16  30  -4 1564.68 122.100   1
 -12  32   2 -71.270 46.0500   1
  -2 -12  32 61.1700 51.3000   1
  14  24  20 340.220 42.6300   1
  14  20  24 327.470 43.8600   1
  16   4  30 1326.66 78.4900   1
  20  14  24 280.460 48.4400   1
 -14 -20  24 295.710 52.4300   1
  12  -2  32 69.6300 45.8900   1
 -12   2  32 -1.9200 45.9900   1
  -2  32  12 -18.300 47.0100   1
   2  12  32 -13.430 32.1500   1
   2  32  12 54.8500 32.8500   1
 -28  18   8 772.580 57.2000   1
 -12  -2  32 38.8600 41.0700   1
  -2  12  32 7.15000 32.9500   1
  12   2  32 -1.4200 48.3400   1
   8  18  28 1046.38 66.3500   1
 -18  -8  28 1021.32 70.9300   1
  18   8  28 858.550 56.9300   1
   2 -12  32 21.2900 37.7100   1
 -12  32  -2 28.5200 41.5100   1
 -12  32   2 -59.360 55.8500   1
 -32  12   2 8.31000 72.8000   1
  -8 -18  28 1013.90 71.1500   1
 -20  24  14 280.780 54.7100   1
 -18  28   8 648.850 62.9200   1
  12  32   2 -54.710 49.6500   1
 -28  18   8 916.350 66.4500   1
 -18  28   8 931.780 78.1800   1
 -28   8  18 913.130 63.1000   1
  -8  28  18 979.200 60.6200   1
  -4 -16  30 1460.65 88.9000   1
   8  28  18 1030.25 65.4200   1
  -8  18  28 851.580 60.6800   1
   4  16  30 1403.68 74.9300   1
 -18   8  28 1032.68 70.4500   1
 -16  -4  30 1470.12 81.9900   1
 -24  20  14 283.100 49.4400   1
 -24  14  20 282.520 38.4000   1
 -14  24  20 251.930 37.9700   1
 -14  20  24 281.140 46.1500   1
 -20  14  24 303.650 38.8300   1
 -16   4  30 1364.95 73.9700   1
  -4  16  30 1301.16 82.5200   1
  16  -4  30 1510.58 94.0200   1
  20  10  26 52.4000 33.4000   1
 -20 -10  26 74.0800 40.0800   1
  10  20  26 6.47000 45.5300   1
 -20  10  26 -14.590 30.9100   1
 -10  20  26 13.9400 46.6100   1
  10  26  20 45.9300 29.8200   1
 -26  10  20 103.370 32.6200   1
 -20  26  10 -118.30 54.7000   1
 -26  20  10 38.3600 48.9800   1
  -2  34  -4 0.25000 67.1700   1
 -10  26  20 55.7100 48.1000   1
  -2  -4  34 38.4700 43.4000   1
   4   2  34 104.400 43.8000   1
 -14 -14  28 95.1800 34.3300   1
  -4  -2  34 73.6900 49.2700   1
   2   4  34 -54.790 34.1000   1
  -2   4  34 86.5400 43.6900   1
   2  34  -4 9.65000 68.2600   1
  -4   2  34 59.1100 34.9900   1
  -2  34   4 18.5000 60.2800   1
   2  34   4 46.8800 59.8000   1
  -4  34   2 132.110 48.3900   1
   4  34   2 -54.750 55.7700   1
  -4  34  -2 141.440 67.8900   1
   4  34  -2 31.1800 64.6500   1
  14  14  28 159.470 34.4100   1
 -14  14  28 159.230 41.5400   1
 -22  26   4 173.950 56.7000   1
 -26  22   4 226.090 48.1300   1
  -4  22  26 85.1700 41.7400   1
   4  26  22 86.3000 44.6700   1
 -28  14  14 189.040 44.3300   1
 -26   4  22 198.230 34.7200   1
  -4  26  22 127.890 47.7000   1
 -22  26   4 82.0900 47.1300   1
 -26  22   4 255.590 67.4800   1
 -22  26  -4 165.780 85.0800   1
 -26  22  -4 33.7500 75.1400   1
   2  -4  34 -22.550 45.0500   1
   4  -2  34 -12.830 44.2300   1
   4  34  -2 -14.780 47.0000   1
  -4  34  -2 27.2000 38.6800   1
  26   4  22 178.530 46.1300   1
   4  34   2 -31.160 37.0600   1
  22   4  26 122.870 52.0900   1
  -4  34   2 84.0500 39.4500   1
   2  34   4 29.5100 39.3400   1
  -2  34   4 -74.160 54.3900   1
 -22  -4  26 53.3800 43.7600   1
   4  22  26 135.140 33.8300   1
 -22   4  26 142.680 33.8900   1
 -20  26  10 -50.810 39.7400   1
 -26  20  10 21.6000 35.4900   1
 -10 -20  26 74.1000 52.4500   1
 -14  28  14 248.950 53.0100   1
 -23  19  17 134.980 43.1200   1
 -17  23  19 146.750 35.4300   1
 -23  17  19 179.930 49.0100   1
 -17  19  23 210.610 49.7600   1
 -19  17  23 199.040 43.9100   1
  17  23  19 123.870 41.1200   1
  17  19  23 112.710 32.0000   1
  19  17  23 173.840 39.3500   1
 -25   5  23 378.890 40.8600   1
 -23   5  25 478.880 49.2900   1
   5  25  23 387.270 45.9400   1
  -5  23  25 508.030 50.3000   1
   5  23  25 325.560 38.4600   1
 -23  -5  25 422.120 45.4900   1
  23   5  25 438.650 51.4400   1
 -29  17   7 1371.51 83.1000   1
 -17  29   7 1501.56 84.5400   1
  25   5  23 339.270 42.7200   1
 -23  25   5 314.870 59.8100   1
 -25  23   5 348.390 44.8400   1
 -27  15  15 -50.920 47.1000   1
 -15  27  15 91.0300 49.6000   1
 -15  15  27 41.7500 45.8200   1
  15  15  27 57.6800 38.4200   1
 -15 -15  27 38.7000 45.8900   1
 -27  21  -3 14.1000 72.5800   1
 -21  27  -3 -50.110 84.1000   1
 -27  21   3 27.8500 48.6300   1
 -21  27   3 -90.840 66.4500   1
 -27   3  21 -63.220 37.5800   1
  -3  27  21 45.0700 41.3400   1
   3  27  21 -41.880 44.6800   1
  -3  21  27 -59.270 45.0900   1
 -23  23  11 1495.12 92.7000   1
 -11  23  23 1413.42 83.4700   1
 -23  11  23 1271.16 70.5600   1
  11  23  23 1387.50 77.3000   1
  23  11  23 1407.12 80.0400   1
 -23  23  11 1078.87 69.8700   1
 -13  31   7 292.690 54.9000   1
 -31  13   7 327.720 43.8500   1
  -7 -13  31 496.410 46.2500   1
  13   7  31 490.830 50.7500   1
 -13  -7  31 475.150 54.8700   1
   7  13  31 438.670 41.3300   1
  -7  13  31 497.350 55.2300   1
 -13   7  31 481.190 49.6000   1
   7  31  13 362.350 45.5900   1
  -7  31  13 474.580 52.6400   1
 -21   3  27 -76.810 38.2800   1
   3  21  27 34.6300 44.7300   1
 -21  -3  27 74.3300 33.5200   1
  21   3  27 -47.870 49.7200   1
 -27  21   3 -54.370 45.4500   1
 -21  27   3 100.500 55.8000   1
  27   3  21 -55.630 48.0600   1
 -31   7  13 545.920 60.4900   1
 -13  31   7 609.510 63.4700   1
 -31  13   7 495.140 69.5800   1
 -13  31  -7 252.380 79.2800   1
 -33   9   3 124.760 74.3800   1
  -9  33  -3 -1.2500 69.4600   1
   9  33   3 122.350 56.5300   1
  -9  33   3 9.73000 56.9900   1
  -3  33   9 -43.250 44.3300   1
   3  33   9 10.4400 34.6900   1
 -29  13  13 137.390 44.9900   1
 -13  29  13 47.6400 45.8700   1
 -13  13  29 202.520 42.4900   1
  13  13  29 89.1600 45.3600   1
 -13 -13  29 158.310 49.4000   1
 -29  13  13 81.1600 33.9600   1
  -3   9  33 37.1500 40.7800   1
  -9   3  33 47.5400 33.2300   1
   3   9  33 20.4000 42.0900   1
  -9  -3  33 49.5700 33.9100   1
   9   3  33 -29.650 47.6900   1
 -19  23  17 156.850 36.8700   1
  -3  -9  33 -8.1800 34.8500   1
   9  -3  33 -10.430 45.2500   1
   3  -9  33 -47.300 46.6400   1
  -9  33   3 -88.950 49.5500   1
   9  33   3 -8.1300 43.7400   1
 -25  23  -5 282.240 90.8600   1
 -17  29  -7 1638.81 121.340   1
 -29  17   7 1898.25 114.000   1
 -17  29   7 1964.43 103.890   1
 -29   7  17 1788.86 96.3100   1
  -7  29  17 1800.38 94.4000   1
   7  29  17 1681.34 85.2700   1
 -17   7  29 1815.72 95.5200   1
  -7  17  29 1565.88 80.8300   1
   7  17  29 1890.29 97.0200   1
  17   7  29 1518.67 80.4600   1
  -7 -17  29 1855.35 153.320   1
 -23  25  -5 422.950 93.2200   1
 -23  25   5 533.100 59.3800   1
 -25  23   5 521.250 74.1400   1
  -5  25  23 373.720 41.3100   1
 -20  28   0 14.7800 40.0900   1
 -12  32   4 -3.7500 47.5300   1
  12  32   4 34.7700 35.0800   1
 -12  32   4 27.7200 48.4100   1
  -4  32  12 67.2000 34.4500   1
 -28  20   0 25.5100 55.7400   1
 -20  28   0 137.280 70.6700   1
 -28   0  20 94.3500 37.0400   1
   0  28  20 27.1600 46.2000   1
 -12  32  -4 90.7000 72.6100   1
   0  20  28 -49.340 40.1800   1
   4  32  12 37.5900 31.8100   1
 -12  28  16 -13.820 42.6700   1
 -28  12  16 0.23000 32.7400   1
 -16  28  12 79.9100 52.3800   1
 -28  16  12 -91.080 44.4200   1
 -32  12   4 66.9200 61.2400   1
  20   0  28 61.9700 47.0900   1
 -20   0  28 36.4000 40.5100   1
 -28  16  12 63.1300 49.4200   1
  12  -4  32 70.1100 55.5800   1
  -4 -12  32 42.5400 37.0700   1
  12   4  32 20.5700 43.0100   1
  -4  12  32 99.8400 34.4500   1
 -12   4  32 148.000 34.2500   1
 -12  -4  32 62.0800 33.7000   1
   4  12  32 105.250 42.6500   1
 -12  16  28 -1.5300 30.9900   1
 -16  12  28 21.0600 43.6700   1
 -16 -12  28 53.5200 46.2100   1
  16  12  28 -25.430 31.6200   1
  12  16  28 -85.150 30.9900   1
   4 -12  32 77.1600 56.5900   1
 -12 -16  28 -41.900 42.3900   1
  11  21  25 734.820 56.1100   1
  21  11  25 561.690 46.7200   1
  13  17  27 44.8800 30.9100   1
  17  13  27 4.44000 39.8200   1
 -17 -13  27 76.5400 46.8000   1
 -13 -17  27 39.8300 43.0800   1
  25  11  21 670.020 50.0300   1
 -11 -21  25 846.620 69.8900   1
 -25  21  11 518.320 61.8400   1
   7   7  33 821.040 61.0100   1
   7  -7  33 920.730 62.4400   1
  -7  33   7 803.170 67.2100   1
 -15  31   1 160.220 42.6300   1
 -15  31  -1 109.870 59.1100   1
  -1 -15  31 121.130 40.7500   1
  15  -1  31 125.930 53.7800   1
  15   1  31 137.910 50.7500   1
 -15  -1  31 129.030 41.7600   1
 -15   1  31 -19.220 40.8300   1
   1  15  31 116.640 47.0100   1
  -1  15  31 141.470 35.1200   1
  -1  31  15 157.530 47.3800   1
   1  31  15 69.6600 32.6300   1
 -15  31   1 56.2700 50.0800   1
 -15  31  -1 26.5900 77.6800   1
 -31  15   1 1.06000 66.7700   1
 -31  15  -1 15.5900 54.7300   1
 -29  15  11 -13.080 46.1200   1
 -15  29  11 -48.690 37.1300   1
 -29  11  15 -98.430 45.7300   1
  11  29  15 21.2900 35.5200   1
 -15  11  29 -30.580 39.6300   1
 -11  15  29 -2.1400 32.4600   1
  11  15  29 71.1100 39.8300   1
 -15 -11  29 94.6700 34.2700   1
  15  11  29 -55.400 40.4400   1
 -11 -15  29 37.7800 43.0900   1
 -29  15  11 64.0300 42.0400   1
 -33   7   7 1025.60 84.3100   1
 -11  29  15 59.4400 48.0900   1
   7  33   7 986.560 84.9200   1
  -7  33   7 995.970 72.8100   1
  -7   7  33 1033.38 62.7900   1
  -7  -7  33 891.940 67.4700   1
 -25  21  11 771.510 65.2800   1
 -21  25  11 713.290 64.2300   1
 -25  11  21 682.240 49.5500   1
 -27  17  13 24.0000 50.6600   1
 -17  27  13 22.8700 35.4700   1
 -27  13  17 -16.740 46.2800   1
 -13  27  17 45.2200 34.4600   1
  13  27  17 18.2500 40.1000   1
 -17  13  27 2.04000 39.1600   1
 -13  17  27 -6.2600 32.0500   1
 -11  25  21 719.790 51.7300   1
 -21  11  25 639.530 54.3400   1
 -11  21  25 535.980 56.1700   1
  11  25  21 795.050 60.9900   1
 -26  16  16 3.25000 47.6800   1
   4  34   4 -43.370 56.6600   1
  -4  34   4 -50.950 61.0900   1
  -4   4  34 -47.190 42.3200   1
   4   4  34 30.6700 43.7000   1
 -12 -12  30 88.0700 47.7900   1
  12  12  30 31.4000 32.3400   1
 -12  12  30 -37.500 32.3300   1
 -12  30  12 79.0700 37.2100   1
 -30  12  12 19.4800 35.1000   1
 -32   8  10 330.930 47.1700   1
  10  32   8 281.920 48.2900   1
  10   8  32 354.710 51.8700   1
 -10  32   8 255.060 43.5000   1
  -8  32  10 381.100 53.3600   1
   8  32  10 362.150 41.2200   1
 -28  20  -2 202.430 75.8900   1
 -10  -8  32 301.750 40.4200   1
 -20  28  -2 113.550 72.8800   1
 -28  20   2 115.300 68.9500   1
 -20  28   2 102.080 51.4300   1
 -28   2  20 150.270 39.2800   1
  -2  28  20 89.3900 46.8200   1
   2  28  20 138.750 40.8300   1
  -2  20  28 139.990 43.4100   1
   2  20  28 186.920 40.1400   1
 -10   8  32 293.670 38.3700   1
   8  10  32 348.520 47.5300   1
  -6  24  24 559.750 52.8500   1
 -24   6  24 444.070 42.1000   1
   6  24  24 575.570 50.6400   1
  24   6  24 476.560 45.4600   1
  -8  10  32 289.990 46.0200   1
   4  -4  34 77.1900 37.4500   1
  -4  34   4 38.5400 39.1700   1
  -4  -4  34 -4.9500 34.0100   1
   4  34   4 -19.470 45.8800   1
  -8 -10  32 269.480 46.3700   1
  10  -8  32 332.210 64.2600   1
 -10  32   8 79.1300 52.6000   1
 -20   2  28 118.950 34.0000   1
 -20  -2  28 49.3000 45.8800   1
  20   2  28 135.310 39.4500   1
  20  -2  28 116.900 40.9600   1
 -32  10   8 266.250 64.5600   1
 -20  28   2 159.020 52.1700   1
  -4  34  -4 -44.700 77.7700   1
 -16 -16  26 45.6500 40.0300   1
  16  16  26 10.5100 30.3400   1
 -16  16  26 -53.610 39.9100   1
 -16  26  16 -22.810 48.1100   1
 -24  24   6 480.610 69.8000   1
 -24  24   6 462.190 60.7600   1
 -24  24  -6 421.210 84.0100   1
 -30   6  16 1852.73 95.4700   1
   6  34   0 62.2200 48.7100   1
   0  -6  34 97.3900 36.7100   1
   6  30  16 1863.48 101.590   1
  -6  16  30 1806.64 90.1900   1
 -16   6  30 1822.54 97.0300   1
   6  16  30 1745.38 87.5000   1
 -16  -6  30 1687.48 86.9500   1
  16   6  30 1793.45 90.8800   1
  -6 -16  30 1835.15 98.3100   1
 -30  16   6 1334.02 90.5400   1
  16  30   6 1336.45 79.2000   1
   0  34   6 -15.780 38.0500   1
   6  34   0 72.4500 52.6500   1
  -6  34   0 -16.020 39.9200   1
   6   0  34 129.450 37.2500   1
  -6   0  34 29.1200 47.9000   1
   0   6  34 59.4500 42.5600   1
   0  34   6 120.880 40.9500   1
  -6  34   0 97.0900 74.2300   1
  -6  30  16 1936.16 99.1900   1
 -16  30  -6 1708.85 121.370   1
 -30  16   6 1486.94 90.8700   1
 -16  30   6 1945.50 104.920   1
 -21  23  15 113.830 45.0900   1
 -23  21  15 111.180 36.6900   1
   3  31  15 449.510 42.3800   1
  -3  31  15 475.790 44.1900   1
 -15  23  21 168.220 35.6700   1
 -23  15  21 85.1900 41.4800   1
 -15  21  23 166.940 36.1200   1
 -21  15  23 117.910 34.5700   1
  15  23  21 130.680 37.1400   1
  15  21  23 135.410 38.8800   1
  21  15  23 221.380 40.8700   1
   3  15  31 504.080 44.1300   1
 -15   3  31 519.230 45.3600   1
  -3  15  31 416.490 42.5200   1
   9  33   5 378.880 56.0400   1
 -33   9   5 495.140 73.0100   1
  -9  33  -5 272.200 62.6100   1
 -21  27  -5 234.050 64.8000   1
 -27  21   5 142.850 66.3300   1
 -21  27   5 248.920 69.6600   1
 -27   5  21 92.3500 32.2900   1
  -5  27  21 79.8100 49.1900   1
   5  27  21 118.940 33.7700   1
  -5  -9  33 354.860 54.2500   1
  -5  21  27 177.480 35.8200   1
 -21   5  27 128.630 45.7100   1
   5  21  27 209.720 41.8200   1
 -21  -5  27 80.4200 40.5000   1
  21   5  27 129.980 51.6100   1
  27   5  21 149.880 50.3800   1
 -27  21   5 -23.800 36.5200   1
 -21  27   5 201.690 50.3000   1
 -15  31   3 402.150 48.7700   1
   5  -9  33 452.130 47.8300   1
  -9  33   5 172.310 42.2200   1
   9  33   5 318.080 50.7900   1
 -15  31  -3 498.740 70.0600   1
 -31  15   3 479.660 118.930   1
 -15  31   3 475.360 58.9400   1
  15  31   3 411.620 51.1900   1
 -15  -3  31 492.360 44.6300   1
   9  -5  33 390.670 46.0800   1
  15   3  31 458.480 45.3100   1
  -3 -15  31 473.880 61.3600   1
  15  -3  31 370.580 61.1000   1
   9   5  33 404.910 49.3800   1
  -9  -5  33 307.440 46.7600   1
 -27  21  -5 109.570 60.8200   1
   5   9  33 270.100 38.9600   1
  -5   9  33 471.390 50.5200   1
  -9   5  33 313.570 51.4900   1
  -5  33   9 347.980 43.9700   1
   5  33   9 239.970 47.1900   1
  -9  33   5 263.750 57.6100   1
 -30  14  10 31.9500 38.0200   1
  -6  26  22 60.0200 33.7600   1
  10  30  14 24.0900 36.6800   1
 -10  14  30 79.1200 41.2200   1
 -14  10  30 28.1800 40.6300   1
  10  14  30 16.9000 31.3000   1
  14  10  30 116.720 46.6400   1
 -26  18  14 25.1500 49.2000   1
 -18  26  14 51.8100 45.1100   1
 -14  26  18 9.66000 43.0900   1
  14  26  18 95.3200 36.0500   1
   6   2  34 -72.410 34.6400   1
  -2   6  34 -30.960 47.4700   1
  26   6  22 63.3900 43.2700   1
  22   6  26 -6.7100 42.7800   1
 -26   6  22 -30.640 37.2900   1
 -22  -6  26 11.8300 44.3900   1
   6  22  26 -17.840 39.6800   1
  -6  22  26 38.8600 33.3700   1
 -22   6  26 -77.890 31.0600   1
   6  26  22 8.23000 37.6200   1
 -10 -14  30 20.4200 43.5300   1
   6  -2  34 38.3300 36.5000   1
   2  -6  34 23.8700 45.9200   1
  -2  -6  34 -22.920 43.1200   1
  -6  -2  34 118.090 35.0300   1
   2   6  34 -58.560 33.8000   1
  -6   2  34 2.15000 33.7600   1
 -26  14  18 2.48000 45.9900   1
 -14 -10  30 11.3500 47.9600   1
 -30  14  10 -11.910 42.0700   1
 -14  30  10 66.6300 39.3900   1
 -30  10  14 26.4800 42.5000   1
 -10  30  14 -9.0500 43.3900   1
 -22  26  -6 49.3900 63.2600   1
 -18  14  26 36.7100 40.2400   1
 -14  18  26 82.4700 33.3800   1
  14  18  26 92.6400 31.7800   1
  18  14  26 35.1400 38.7900   1
 -14 -18  26 64.4800 42.4800   1
 -26  22   6 -8.6200 64.7300   1
 -22  26   6 21.2500 43.8700   1
 -18 -14  26 10.0600 40.7500   1
 -26  22   6 42.0300 46.6100   1
 -22  26   6 -8.9700 48.6000   1
  -2  34   6 -43.010 48.6200   1
   2  34   6 -6.5700 38.2600   1
   6  34  -2 -106.26 61.3100   1
  -6  34  -2 11.6800 68.2200   1
   6  34   2 19.5800 56.8900   1
  -6  34   2 95.1400 47.4600   1
   2  34   6 35.8700 47.8100   1
  -2  34   6 27.6800 39.9800   1
   6  34   2 -42.940 52.0600   1
  -6  34   2 2.86000 48.6800   1
  -6  34  -2 24.2200 51.4900   1
   6  34  -2 69.5300 53.2900   1
 -20  20  20 818.180 55.0500   1
 -20  -4  28 593.820 54.3100   1
   4  20  28 617.500 53.1500   1
 -20  28  -4 583.030 72.6600   1
 -28  20  -4 637.960 74.4800   1
 -20  28   4 584.490 61.1100   1
 -28  20   4 554.790 61.0600   1
 -20   4  28 491.350 50.9400   1
 -20  28   4 501.710 65.0000   1
 -28  20   4 502.370 49.6000   1
  28   4  20 545.320 55.5500   1
  20   4  28 649.890 57.1200   1
  -4  28  20 566.760 57.2200   1
 -28   4  20 574.620 51.8100   1
   4  28  20 623.770 47.7500   1
  -4  20  28 690.410 55.7300   1
 -23  25   7 141.550 49.3500   1
   7  23  25 271.410 42.7000   1
  -7  23  25 251.730 37.4400   1
 -31  11  11 25.0200 46.9200   1
  11  31  11 55.2100 38.2300   1
 -25  23   7 345.580 66.3200   1
 -11 -11  31 18.0000 47.0800   1
  11  11  31 60.7200 32.8300   1
 -11  11  31 40.1000 32.8000   1
 -23  25   7 389.680 60.3500   1
  -7  25  23 195.430 45.1600   1
 -25   7  23 347.240 45.4300   1
 -19  29   1 336.550 46.1100   1
 -19  29  -1 347.600 49.7200   1
  19  -1  29 420.110 46.6900   1
  19   1  29 338.990 51.5500   1
 -19  -1  29 381.890 51.6700   1
 -19   1  29 493.590 50.0200   1
  -1  19  29 410.380 41.5100   1
   1  19  29 456.940 53.9900   1
  -1  29  19 372.010 51.6000   1
   1  29  19 410.640 41.0900   1
 -19  29   1 335.690 70.4500   1
 -19  29  -1 390.620 64.1800   1
 -29  19   1 456.160 65.3800   1
 -23  -7  25 284.330 44.4900   1
 -29  19  -1 434.370 86.6300   1
 -25  17  17 -30.680 46.6600   1
  17  17  25 89.2900 37.9800   1
 -17  17  25 -1.6700 41.1200   1
 -23   7  25 292.320 44.3100   1
  23   7  25 343.480 48.5600   1
 -11  31  11 32.7800 37.1000   1
   7  25  23 285.370 43.8000   1
  25   7  23 263.170 39.5500   1
 -25  23   7 279.970 50.9500   1
 -22  24  12 1512.33 83.8400   1
  24  12  22 1258.52 71.3900   1
  12  22  24 1321.39 77.0000   1
 -12  22  24 1306.52 79.4000   1
  12  24  22 1512.82 82.0900   1
 -12 -22  24 1315.30 83.8700   1
  22  12  24 1497.71 83.1900   1
 -12  24  22 1586.74 86.6400   1
 -24  12  22 1437.79 80.8900   1
 -24  22  12 1534.21 92.3600   1
 -22  12  24 1495.56 85.6300   1
   6  32  12 232.480 47.6900   1
  -6  12  32 249.220 37.7600   1
  12   6  32 284.340 39.4000   1
  -6 -12  32 252.980 53.4900   1
  12  -6  32 269.200 44.5900   1
 -12  32   6 224.420 59.1500   1
 -12   6  32 228.070 44.6000   1
  12  32   6 225.690 48.3300   1
   6  12  32 219.440 36.7000   1
 -12  -6  32 309.260 51.2100   1
 -12  32  -6 74.0500 75.9100   1
 -32  12   6 259.750 50.2200   1
 -12  32   6 323.140 48.8800   1
 -32   6  12 208.890 47.8600   1
  -6  32  12 360.490 49.6800   1
  -6  -4  34 145.190 50.7700   1
   4  34   6 78.3600 38.5800   1
 -18  28  10 165.900 43.0000   1
  20  18  22 321.320 37.1100   1
  18  20  22 321.750 43.4700   1
 -20  18  22 334.290 39.9900   1
 -18  20  22 230.800 45.0800   1
 -18  22  20 384.860 41.6200   1
 -18 -10  28 246.660 45.2700   1
  -4  -6  34 95.3600 49.1300   1
 -22  18  20 268.790 45.2800   1
   4  -6  34 137.920 52.6100   1
 -20  22  18 377.910 41.8200   1
 -22  20  18 318.640 47.9100   1
 -28  18  10 144.340 52.5000   1
 -10 -18  28 213.850 39.3900   1
  18  10  28 218.490 43.9100   1
   6  -4  34 70.6300 51.5100   1
  -6  34   4 -10.310 61.3300   1
   6  34   4 65.0100 47.3900   1
  -4  34   6 142.510 50.5100   1
  10  18  28 221.660 35.9700   1
 -18  10  28 158.300 34.4600   1
 -10  18  28 128.130 42.3900   1
  10  28  18 198.520 40.4500   1
 -10  28  18 306.650 39.1800   1
  -6  34  -4 131.700 56.4700   1
   4   6  34 137.790 44.0800   1
 -28  10  18 293.780 38.6800   1
 -18  28  10 366.900 54.5300   1
 -28  18  10 78.7100 51.2600   1
   6  34   4 224.150 56.1300   1
  -6  34   4 216.660 65.9800   1
   4  34   6 204.820 51.6600   1
  -4  34   6 221.260 44.1900   1
  -4   6  34 166.920 48.3200   1
  -6   4  34 201.440 37.0700   1
   6   4  34 182.730 37.9100   1
 -29  19  -3 1093.11 88.5100   1
 -19  29  -3 1031.38 97.7500   1
 -29  19   3 932.520 91.1700   1
 -19  29   3 939.420 87.4600   1
 -15   5  31 820.200 59.7900   1
   5  15  31 905.870 62.4800   1
 -15  -5  31 921.980 66.4700   1
  15   5  31 1016.45 68.1500   1
  -5 -15  31 1016.70 65.6000   1
 -29  17   9 740.670 61.2500   1
 -19  29   3 907.150 71.3000   1
 -17  29   9 747.100 66.4600   1
 -29   9  17 747.610 58.2000   1
  -9  29  17 815.880 55.5800   1
   9  29  17 813.250 58.4500   1
 -13  31   9 123.050 41.5000   1
  -9 -13  31 105.500 36.3600   1
 -29  17   9 576.960 57.3300   1
 -17  29   9 664.360 56.0400   1
  15  -5  31 1230.76 81.7400   1
  -9  31  13 147.280 45.2600   1
 -31   9  13 16.9200 49.6200   1
  -5  15  31 1001.45 70.2200   1
 -13  31   9 108.020 40.8600   1
 -31  13   9 47.9700 40.0200   1
  13   9  31 42.4600 46.2300   1
 -13  -9  31 135.560 43.5800   1
   9  13  31 56.9600 32.6400   1
  -9  13  31 114.180 42.5200   1
 -13   9  31 178.560 35.6500   1
   9  31  13 96.1100 38.6100   1
  29   3  19 842.310 60.3300   1
  -9  17  29 845.600 55.1000   1
 -25  19  15 -9.6800 48.5100   1
 -19  25  15 -25.300 43.3500   1
 -29   3  19 948.650 59.4000   1
  -3  29  19 1025.23 70.4600   1
   3  29  19 974.170 63.7600   1
  -3  19  29 1000.71 68.6100   1
 -25  15  19 2.03000 40.2200   1
 -15  25  19 -43.870 40.9900   1
 -19  15  25 2.04000 32.9300   1
 -15  19  25 73.1800 34.1100   1
 -17   9  29 683.660 50.0800   1
  15  19  25 63.9900 38.3500   1
  19  15  25 4.75000 30.4100   1
 -15 -19  25 14.4200 33.2000   1
 -33  11   1 262.660 71.7300   1
 -19   3  29 976.050 60.2100   1
   3  19  29 1131.62 70.0000   1
 -11  33  -1 314.510 60.1600   1
 -11  33   1 198.260 73.7000   1
   1  33  11 492.750 52.5800   1
  -1  33  11 369.690 48.8300   1
  -1  11  33 392.670 42.2000   1
   1  11  33 257.100 37.8100   1
 -11   1  33 292.660 39.1500   1
 -11  -1  33 268.210 51.5400   1
  11   1  33 293.320 48.7000   1
 -15  31  -5 1063.89 109.230   1
 -31  15   5 1008.17 75.2000   1
 -15  31   5 1059.20 79.7500   1
 -31   5  15 1039.25 69.6800   1
 -19  -3  29 1024.61 67.8000   1
  19   3  29 948.600 61.4600   1
  19  -3  29 1029.50 68.3400   1
  15  25  19 -6.2300 34.5800   1
  -5  31  15 931.780 59.7600   1
   5  31  15 961.220 64.2200   1
  11  -1  33 230.020 48.9400   1
  -1 -11  33 204.330 54.6200   1
   1 -11  33 220.180 55.2200   1
  11  33  -1 218.970 52.6200   1
 -11  33  -1 188.370 57.9300   1
 -15  31   5 866.060 62.3100   1
  15  31   5 841.710 59.6600   1
 -11  33   1 211.780 53.6400   1
  11  33   1 234.530 40.7900   1
  11  19  27 7.92000 38.8600   1
 -27  19  11 -14.200 49.5300   1
 -11 -19  27 -34.190 42.8500   1
  19  11  27 7.98000 32.3900   1
 -19 -11  27 -10.710 45.1800   1
 -11  19  27 -27.660 46.4300   1
 -19  11  27 35.4200 32.6200   1
  11  27  19 -17.490 36.6200   1
 -11  27  19 -112.62 47.0400   1
 -27  11  19 31.8400 40.3400   1
 -19  27  11 -44.870 48.4600   1
  -9 -17  29 763.620 56.7400   1
  17   9  29 802.180 55.2900   1
 -17  -9  29 839.080 61.8700   1
   9  17  29 782.410 58.3000   1
 -24  24   8 625.020 64.2500   1
 -24  24   8 718.600 74.0500   1
  -8  24  24 677.230 50.3400   1
 -24   8  24 755.920 52.6100   1
   8  24  24 595.360 56.3600   1
  24   8  24 677.000 51.9500   1
  -9  33   7 338.010 47.2500   1
  -3  33  11 8.80000 43.1300   1
  -9  33   7 428.220 49.3300   1
   9  33   7 278.140 43.8600   1
  -7  33   9 429.220 61.5900   1
   3  33  11 62.3100 43.4400   1
   7  33   9 440.770 52.4500   1
 -33   9   7 514.540 67.8900   1
 -33   7   9 396.510 52.3900   1
   9  33   7 275.660 43.8700   1
 -21   7  27 89.5400 39.5000   1
   7  21  27 142.100 46.2400   1
 -11  33  -3 44.6700 72.2400   1
 -27  21   7 187.450 61.7700   1
 -33  11   3 130.500 64.6700   1
 -11  -3  33 41.5100 33.3800   1
  11   3  33 16.6500 49.2900   1
 -11  33   3 -63.680 46.3800   1
   7  -9  33 487.210 64.5200   1
  21   7  27 116.630 44.1600   1
  -3  11  33 -37.780 41.2100   1
 -11   3  33 -68.580 46.9400   1
   3  11  33 12.1900 40.8700   1
   9  -7  33 414.380 62.8600   1
  -7  -9  33 321.270 41.7400   1
 -21  -7  27 75.8000 41.2900   1
  -9  -7  33 430.130 50.9500   1
   9   7  33 439.880 44.1200   1
   7   9  33 309.760 52.8200   1
  -9   7  33 352.930 47.2500   1
  27   7  21 89.6500 34.7600   1
  -7   9  33 491.280 45.2500   1
  -7  21  27 34.7300 41.6700   1
   7  27  21 -53.780 44.6900   1
  -3 -11  33 27.1100 36.0700   1
  11  -3  33 -6.2500 53.7600   1
   3 -11  33 37.8000 56.2000   1
  11  33   3 49.9600 44.6300   1
 -11  33   3 28.2000 41.2200   1
  -7  27  21 103.300 35.4300   1
 -27   7  21 36.4900 44.2200   1
 -21  27   7 35.8900 60.5500   1
 -27  21   7 45.3300 47.0400   1
 -21  27   7 -5.0900 46.9500   1
   0  14  32 12.6500 41.8800   1
 -26  20  12 212.260 40.1500   1
 -12 -20  26 359.150 51.9800   1
  20   6  28 844.250 69.4900   1
   0 -14  32 -57.680 49.2500   1
  14  32   0 -22.630 34.5700   1
 -16  30   8 867.340 75.9000   1
  20  12  26 298.120 46.0100   1
  -8  30  16 1053.44 66.1500   1
   8  30  16 1222.75 78.2300   1
  -8  16  30 1148.49 68.1700   1
 -26  20  12 334.200 58.6000   1
 -20  26  12 182.220 40.8600   1
 -26  12  20 283.050 45.4100   1
 -12  26  20 287.450 39.6300   1
 -20  12  26 254.480 43.9700   1
 -16   8  30 1203.57 71.3200   1
 -16  -8  30 1185.94 75.8600   1
   6  20  28 731.360 58.8300   1
 -20  28  -6 792.770 104.340   1
 -28  20   6 1054.95 83.6100   1
 -20  28   6 754.600 65.6300   1
 -28   6  20 761.950 54.7500   1
  -6  28  20 1005.19 71.5000   1
 -12  20  26 284.050 50.2100   1
   6  28  20 783.050 59.2200   1
 -20   6  28 790.760 63.3100   1
 -32  14   0 267.740 72.2300   1
 -14  32   0 -54.360 50.8000   1
   0  32  14 -58.580 40.8100   1
  16   8  30 1145.08 69.3900   1
 -14   0  32 4.60000 32.8000   1
  14   0  32 44.5500 51.0600   1
  -6  20  28 822.210 56.3700   1
 -14  32   0 -9.5600 38.4100   1
  12  20  26 252.350 36.5200   1
  -8  34   0 161.750 57.4300   1
   8  34   0 197.920 46.3000   1
   0  -8  34 132.980 37.7700   1
   8   0  34 21.3200 49.9400   1
  -8   0  34 191.800 37.1900   1
  12  26  20 328.670 37.5800   1
   8  16  30 1018.82 63.4800   1
 -20  28   6 647.100 68.0300   1
  -8 -16  30 1277.18 85.6900   1
 -30  16   8 891.320 68.6200   1
   0   8  34 109.700 44.1600   1
   0  34   8 255.170 50.3700   1
  -8  34   0 294.230 79.7900   1
 -28  20   6 668.050 61.3300   1
  28   6  20 830.090 65.3600   1
 -30   8  16 1215.37 82.1100   1
 -16  30   8 1159.63 77.5600   1
 -30  16   8 1042.79 80.3000   1
 -20  -6  28 833.790 62.8700   1
   2   8  34 -28.730 33.5400   1
  -8  -2  34 -73.070 47.3500   1
   8   2  34 9.70000 53.0900   1
   8  -2  34 77.7300 46.3700   1
   2  -8  34 -4.6300 36.1000   1
  -2  -8  34 77.7200 36.2600   1
  -8   2  34 -0.8100 42.6500   1
  -2   8  34 39.2200 48.0500   1
  16  22  22 -37.510 42.0100   1
 -16  22  22 85.7700 34.1100   1
 -22  16  22 101.690 42.6500   1
 -22  22  16 27.9900 45.2100   1
 -32  10  10 -13.390 48.3700   1
 -10  32  10 88.9200 39.1700   1
  10  32  10 10.1900 40.1400   1
  -2 -14  32 63.5400 55.4600   1
 -22  26   8 51.9000 41.4900   1
  14  -2  32 27.7100 53.6900   1
  14   2  32 -109.65 50.1200   1
 -30  18   0 552.770 80.8800   1
 -18  30   0 541.290 90.5800   1
   0  30  18 675.640 51.1300   1
 -26   8  22 49.8100 39.5200   1
   0  18  30 573.650 58.2800   1
  -8  26  22 56.8100 42.8300   1
 -14  -2  32 -37.080 46.5800   1
 -14   2  32 15.4200 46.0000   1
  -8  34  -2 5.32000 55.0100   1
   2  14  32 -20.500 32.7300   1
  -2  14  32 49.2500 41.8100   1
   8  34   2 58.1800 46.0600   1
 -34   8   2 72.0200 54.0000   1
  -2  32  14 -38.440 41.3200   1
 -22  26   8 42.5500 48.2500   1
 -26  22   8 103.400 38.9100   1
  26   8  22 51.1200 33.4100   1
   8  34   2 27.2300 58.2100   1
 -22  -8  26 65.9400 39.2300   1
   8  22  26 87.4500 43.4400   1
 -26  22   8 107.080 53.8500   1
   2  32  14 7.85000 31.7100   1
 -14  32   2 77.9800 50.7900   1
 -18   0  30 607.840 53.9600   1
  -8  34   2 -36.980 49.4300   1
  -8  34  -2 42.2400 40.9100   1
  18  18  24 130.770 32.4400   1
 -18  18  24 114.970 34.7200   1
 -18  24  18 70.9000 34.5200   1
 -32  14   2 48.9300 53.9300   1
 -24  18  18 139.560 35.8400   1
  -8  22  26 206.190 48.9700   1
  22   8  26 96.8500 43.8600   1
   8  26  22 97.7200 39.5600   1
  18   0  30 590.770 51.8200   1
   2  34   8 43.6400 37.8500   1
 -22   8  26 115.480 33.3300   1
  -8  34   2 -17.960 47.6800   1
 -14  32  -2 -18.570 79.6300   1
 -18  30   0 455.870 60.4200   1
 -14  32   2 -60.160 56.5300   1
  -2  34   8 22.1900 53.9700   1
  14  32   2 -10.110 42.0500   1
 -14  32  -2 -2.1700 40.9100   1
   2 -14  32 92.1200 52.6800   1
 -10  10  32 114.290 46.6300   1
  10  10  32 5.98000 33.0900   1
 -10 -10  32 -8.7000 42.3300   1
  -5 -19  29 1467.65 87.9200   1
   1  35   1 1354.61 88.4200   1
  -1  35   1 1276.14 84.4000   1
   1  35  -1 1294.55 78.7600   1
  -1  35  -1 1192.91 75.6700   1
   1  -1  35 1468.88 90.4000   1
   1   1  35 1479.93 82.8200   1
  -1  -1  35 1514.72 88.4400   1
  -1   1  35 1461.23 81.6900   1
   1  35   1 1714.91 122.930   1
  -1  35   1 1938.87 135.390   1
   1  35  -1 1686.20 123.500   1
  -1  35  -1 1738.69 132.090   1
   5  29  19 1562.47 85.1000   1
 -23  23  13 1752.94 96.3800   1
 -13  23  23 1722.51 98.4100   1
 -23  13  23 1632.61 88.7700   1
  13  23  23 1538.35 84.2900   1
  23  13  23 1564.16 92.9800   1
 -19  29  -5 1309.48 100.770   1
 -29  19   5 1763.19 105.370   1
 -19  29   5 1692.93 113.070   1
 -29   5  19 1671.16 91.8700   1
  -5  29  19 1883.51 104.250   1
  -5  19  29 1691.92 90.2800   1
 -19   5  29 1674.57 92.7300   1
   5  19  29 1742.34 92.2800   1
 -19  -5  29 1600.76 88.3200   1
  19   5  29 1670.40 97.9200   1
 -29  19   5 1315.39 80.7500   1
 -19  29   5 1512.90 93.4600   1
  18  -2  30 889.800 62.7800   1
 -18  -2  30 882.270 63.5400   1
  18   2  30 889.950 67.6100   1
  -6   6  34 388.800 48.9200   1
   6   6  34 394.300 43.3900   1
  -6  -6  34 342.560 41.7300   1
   2  18  30 826.330 56.3800   1
 -18   2  30 812.020 56.2600   1
  -2  18  30 803.880 55.9500   1
   6  -6  34 480.830 48.4000   1
   6  34   6 447.640 65.8500   1
  -6  34   6 459.670 52.4600   1
 -18  30   2 668.190 57.9200   1
  -6  34  -6 489.480 70.5900   1
   2  30  18 964.050 69.2500   1
  -2  30  18 912.630 64.9100   1
 -18  30   2 889.110 75.8100   1
 -30  18   2 855.350 76.7500   1
 -18  30  -2 975.240 97.1000   1
 -30  18  -2 898.230 93.5100   1
  -6  34   6 364.210 61.6900   1
   6  34   6 232.680 42.0800   1
  16  24  20 2.25000 41.6700   1
 -20  16  24 -13.610 31.7800   1
 -16  20  24 40.2900 32.7400   1
 -16  24  20 -22.310 32.8900   1
 -24  16  20 -26.670 32.0900   1
 -20  24  16 -99.400 33.8200   1
 -24  20  16 46.5800 34.8500   1
 -12   8  32 143.300 42.7500   1
  12   8  32 92.0000 43.3400   1
   8  12  32 57.0600 34.1500   1
 -12  -8  32 133.180 44.0600   1
 -12  32   8 95.7000 56.7900   1
  16  20  24 -50.810 30.1200   1
  -8  12  32 110.780 34.8000   1
  -8 -12  32 2.01000 49.6600   1
  20  16  24 -40.610 36.6700   1
   8  32  12 123.990 33.0300   1
  -8  32  12 114.210 51.1000   1
 -32   8  12 69.4300 37.7700   1
 -12  32   8 79.2400 41.3200   1
 -32  12   8 65.8500 42.2900   1
 -15  -7  31 922.800 66.2700   1
   7  15  31 947.300 69.3600   1
 -15   7  31 881.290 59.2200   1
  -7  15  31 821.600 65.6700   1
   3  35  -1 996.740 98.2300   1
  -1  35  -3 884.340 98.2800   1
   1  35  -3 817.200 94.5200   1
   7  31  15 936.270 61.0400   1
  -7  31  15 940.400 62.3400   1
 -31   7  15 700.050 54.8400   1
  -3  35  -1 750.610 58.8600   1
  -3  35   1 609.750 68.0400   1
   3  35   1 798.020 71.8500   1
   1  35   3 840.750 61.9000   1
 -25  23   9 902.200 78.1900   1
 -25  23   9 613.140 60.0700   1
 -23  25   9 646.000 62.3200   1
  -3  35   1 724.960 68.3400   1
 -23  25   9 923.350 67.8100   1
  -5  11  33 51.2600 42.0700   1
   3  35  -1 692.080 62.2800   1
 -11   5  33 53.9800 33.6900   1
   5  11  33 37.6700 41.0400   1
 -11  -5  33 99.0800 43.8300   1
  11   5  33 104.120 44.5200   1
  -5 -11  33 -68.680 44.0700   1
  11  -5  33 -31.830 39.6100   1
  -3  35  -1 894.580 89.1400   1
   3  35   1 855.310 84.7100   1
  -7 -15  31 951.190 64.9300   1
  15   7  31 911.720 61.1100   1
   5 -11  33 4.06000 38.8200   1
   1  35   3 888.200 81.9500   1
  -1  35   3 947.010 81.4000   1
 -11  33  -5 191.570 61.8000   1
 -13  25  21 873.470 64.3700   1
 -13  21  25 854.880 67.0500   1
 -21  13  25 819.770 65.2900   1
  13  25  21 797.730 62.7500   1
  13  21  25 748.800 58.5300   1
  21  13  25 669.720 51.6300   1
  -9  25  23 869.850 64.1000   1
  -5  33  11 95.4900 36.2500   1
   5  33  11 61.3100 41.7900   1
 -11  33   5 15.1500 42.8600   1
  -1  -3  35 765.680 55.7400   1
   1  -3  35 774.010 56.9000   1
 -15  31   7 995.920 72.0600   1
 -31  15   7 1030.72 88.7300   1
 -15  31  -7 976.790 90.2100   1
  25   9  23 775.580 61.1300   1
   9  23  25 823.330 59.8200   1
  23   9  25 753.850 55.7000   1
 -15  31   7 852.890 63.3700   1
 -31  15   7 714.800 64.2100   1
 -33  11   5 69.3800 69.7900   1
 -13 -21  25 723.840 57.0300   1
   9  25  23 612.420 47.8600   1
  -9  23  25 845.770 66.5600   1
 -23   9  25 711.290 57.4200   1
 -25   9  23 798.940 64.2400   1
   3  -1  35 791.870 62.6200   1
 -29  15  13 -10.540 41.3800   1
 -13 -15  29 -85.150 48.2600   1
 -15 -13  29 -6.4600 41.1900   1
  15  13  29 -20.890 32.3400   1
  13  15  29 4.50000 45.1100   1
 -13  15  29 108.310 45.6200   1
 -15  13  29 -6.7600 39.3100   1
 -13  29  15 39.7900 35.0700   1
 -15  29  13 14.2800 46.3400   1
 -29  13  15 75.9800 48.9200   1
 -29  15  13 -8.3700 44.3700   1
 -25  13  21 822.950 57.2900   1
 -11  33   5 182.770 42.6900   1
  11  33   5 -3.0800 50.9400   1
 -21  25  13 812.860 65.6900   1
   3   1  35 727.280 64.1700   1
   1   3  35 777.580 55.5500   1
  -3  -1  35 882.370 68.5300   1
  -1   3  35 926.610 60.9600   1
  -3   1  35 832.300 57.9500   1
 -25  21  13 634.040 61.7500   1
  -8  34   4 86.2500 40.7100   1
  -4  32  14 159.130 44.9000   1
 -32  14   4 176.480 64.6500   1
 -14  32  -4 210.740 63.1700   1
  -8  34   4 128.600 57.0800   1
   8  34   4 -0.8400 60.6600   1
  -8  34  -4 82.5100 72.1500   1
 -34   8   4 -22.830 62.6500   1
 -14 -16  28 18.3600 33.4100   1
 -16 -14  28 -73.030 46.1100   1
  16  14  28 21.1300 44.9500   1
 -16  14  28 -0.1000 31.8400   1
   8  34   4 38.4000 45.7700   1
   4  -8  34 -9.2600 37.6500   1
  -4  -8  34 7.50000 44.2300   1
   8   4  34 45.3000 49.8300   1
  -8  -4  34 -2.2400 33.9500   1
   4   8  34 -69.740 47.6900   1
  -4   8  34 30.3200 47.8800   1
  -8   4  34 75.0500 42.6800   1
   4  34   8 117.990 52.7300   1
 -28  16  14 -2.8900 34.2800   1
 -14  16  28 9.65000 40.5200   1
 -14  28  16 82.1200 44.1800   1
 -28  14  16 23.0000 32.4400   1
  14  16  28 47.0500 39.6400   1
 -16  28  14 8.80000 36.0700   1
 -14  32   4 325.410 63.9300   1
  14  32   4 126.390 49.9300   1
 -14  32   4 46.5000 57.5200   1
   4  32  14 226.550 36.0700   1
  -4  34   8 51.6700 40.9600   1
  -4  34   8 40.2100 48.4700   1
  14  -4  32 218.520 52.5800   1
  -4  14  32 143.940 36.3300   1
 -14   4  32 147.030 35.2800   1
   4  14  32 172.530 36.2700   1
 -14  -4  32 257.650 44.8800   1
  14   4  32 186.150 37.6900   1
  -4 -14  32 65.4400 37.9400   1
 -30   4  18 1798.37 101.580   1
  -4 -18  30 1731.30 97.2400   1
  18  -4  30 1672.16 96.0700   1
  18   4  30 1627.17 89.6400   1
 -18  -4  30 1693.15 91.9500   1
   4  18  30 1863.97 100.020   1
 -18   4  30 1578.56 90.2800   1
  -4  18  30 1882.91 103.890   1
   4  30  18 1881.55 98.3100   1
  -4  30  18 1833.30 101.800   1
 -18  30   4 1874.74 109.810   1
 -30  18   4 1873.52 119.820   1
 -18  30  -4 1781.29 117.470   1
 -30  14  12 65.5900 37.5300   1
 -14  30  12 -36.910 46.2100   1
 -30  12  14 29.0700 34.9100   1
 -12  30  14 -41.860 49.8800   1
 -14  12  30 -33.050 45.9100   1
 -12  14  30 -38.750 39.9400   1
  12  14  30 2.77000 31.6500   1
  14  12  30 -86.650 46.2900   1
 -14 -12  30 67.3700 42.1800   1
 -12 -14  30 -27.580 47.4800   1
 -30  14  12 44.5500 34.2200   1
  17  15  27 59.3200 38.8300   1
  -3  35  -3 466.840 77.2100   1
   3  35   3 463.960 67.9100   1
   3  35   3 222.110 42.0100   1
 -17 -15  27 31.1600 41.6300   1
 -15 -17  27 44.6500 48.3200   1
  -3  35   3 278.990 54.3200   1
  -3   3  35 233.450 46.9600   1
   3   3  35 333.250 49.6300   1
  15  17  27 13.9000 37.8600   1
  -3  -3  35 346.740 42.0300   1
   3  -3  35 226.180 39.8700   1
 -27  17  15 104.110 35.9000   1
 -19  21  21 265.760 38.7700   1
 -21  19  21 273.710 38.2100   1
 -21  21  19 248.140 38.7900   1
 -15  17  27 16.6900 32.0300   1
 -17  15  27 -49.200 32.0400   1
 -17  27  15 -52.710 43.6100   1
 -27  15  17 29.0100 32.9300   1
 -15  27  17 96.8900 43.3200   1
   3  35  -3 224.760 58.7200   1
  -8  28  20 531.450 47.0000   1
 -28   8  20 308.790 44.7200   1
 -20  28   8 469.950 52.3800   1
 -28  20   8 476.230 63.4600   1
 -20  28   8 495.270 64.1600   1
 -28  20   8 329.650 51.0800   1
  -8 -20  28 376.510 60.8100   1
  20   8  28 387.460 49.8300   1
 -20  -8  28 408.500 48.6600   1
   8  20  28 296.120 46.1100   1
  -8  20  28 396.210 48.4500   1
 -20   8  28 412.840 48.8100   1
   8  28  20 322.170 44.5100   1
   9   9  33 98.2600 49.9700   1
   7  29  19 1449.69 86.8000   1
  -7  19  29 1340.15 76.3000   1
 -19   7  29 1474.57 85.7400   1
   7  19  29 1424.66 79.3000   1
 -19  -7  29 1329.10 78.2200   1
  19   7  29 1441.20 89.1300   1
  -7 -19  29 1350.75 81.5500   1
 -29  19   7 1085.18 76.6600   1
 -19  29   7 1121.16 80.2200   1
  -5  -1  35 250.530 46.5800   1
  -5   1  35 223.370 47.6900   1
   1   5  35 375.630 43.2200   1
  -1   5  35 168.830 45.6300   1
   1  35   5 334.410 63.1400   1
  -1  35   5 365.390 52.0000   1
   5  35   1 375.720 68.6500   1
  -5  35  -1 355.640 73.6400   1
   5  35  -1 243.380 68.6400   1
 -27  21   9 -122.06 59.8700   1
 -21  27   9 -5.4000 51.2100   1
 -27   9  21 -40.170 31.4000   1
  -9  27  21 -50.250 42.8400   1
   9  27  21 25.8900 31.8600   1
  -9  21  27 105.550 48.3300   1
 -21   9  27 -49.340 32.4300   1
   9  21  27 -76.160 39.0700   1
 -21  -9  27 33.4600 39.7700   1
  21   9  27 -13.100 34.6800   1
  -9 -21  27 -64.610 45.9300   1
 -27  21   9 23.8200 50.7000   1
 -33   9   9 0.79000 58.7000   1
   9  33   9 53.5300 50.6700   1
  -9  33   9 160.470 49.8300   1
  -9   9  33 79.2900 33.7100   1
 -25  25  -1 1925.04 124.110   1
 -25  25   1 2361.09 371.490   1
   1  25  25 1866.02 97.2300   1
 -25   1  25 2008.47 110.930   1
  -1  25  25 2063.50 105.470   1
 -25  -1  25 2073.82 109.150   1
 -19  23  19 284.720 39.8000   1
  25   1  25 2126.26 331.070   1
   9  -9  33 46.5200 51.1700   1
  -9  -9  33 108.910 35.9000   1
  -5  35   1 286.930 65.7700   1
   5   1  35 320.690 41.5200   1
   5  -1  35 345.230 42.2300   1
  -1  -5  35 391.740 51.0300   1
   1  -5  35 338.570 55.7600   1
  -5  35  -1 191.910 41.7600   1
   5  35  -1 310.300 43.6300   1
 -21  27   9 -39.420 54.0500   1
  -5  35   1 219.960 43.9300   1
 -29  17  11 137.240 44.6200   1
   5  35   1 324.850 45.2200   1
 -29  17  11 230.470 42.6800   1
 -17  29  11 222.450 51.7900   1
 -29  11  17 149.130 43.6100   1
 -11  29  17 325.090 78.4400   1
  11  29  17 300.760 47.0400   1
 -17  11  29 200.030 47.9400   1
 -11  17  29 221.300 36.6600   1
  11  17  29 213.910 47.7600   1
 -17 -11  29 179.260 44.5800   1
  17  11  29 276.390 39.2400   1
 -11 -17  29 276.000 48.7500   1
   1  35   5 196.920 57.5700   1
  -1  35   5 184.040 51.0600   1
 -23  19  19 288.270 50.2300   1
 -19  19  23 145.590 35.5900   1
  19  19  23 134.330 32.8000   1
 -11 -13  31 39.7300 48.9100   1
 -13 -11  31 4.08000 33.5600   1
  13  11  31 88.4400 34.2900   1
  11  13  31 -18.090 32.1700   1
 -11  13  31 47.0000 32.8900   1
 -13  11  31 -5.3100 40.3800   1
  11  31  13 -53.360 37.2400   1
 -11  31  13 -0.2300 45.7500   1
 -13  31  11 -36.020 37.5700   1
 -31  11  13 -37.660 34.0600   1
 -31  13  11 -44.180 45.7200   1
 -29  19   7 1514.83 94.8700   1
 -19  29   7 1327.88 94.5400   1
 -29   7  19 1312.94 76.8200   1
 -31  17  -1 511.450 82.3000   1
 -31  17   1 408.780 63.6600   1
 -17  31  -1 501.350 68.3300   1
 -17  31   1 382.320 61.9500   1
  -1  31  17 508.020 45.5000   1
   1  31  17 558.890 57.5700   1
  -1  17  31 497.520 56.7800   1
   1  17  31 489.680 45.1000   1
 -17   1  31 410.160 43.1300   1
 -17  -1  31 504.020 52.6300   1
  17   1  31 453.670 47.0400   1
  17  -1  31 370.450 45.6600   1
 -17  31  -1 307.010 56.9400   1
 -17  31   1 336.200 64.6800   1
  -7  29  19 1380.73 82.3200   1
 -12 -18  28 -46.280 44.8300   1
  18  12  28 86.3700 42.0400   1
 -18 -12  28 76.7500 41.7500   1
  12  18  28 11.9000 31.6400   1
 -12  18  28 71.8600 33.0300   1
 -26  24   0 2096.18 330.350   1
 -24  26   0 2124.58 334.360   1
 -26   0  24 1881.12 100.480   1
   0  26  24 1737.44 95.2700   1
  12  28  18 80.3200 30.8700   1
 -18  12  28 109.100 41.9500   1
  24   0  26 1714.03 95.7400   1
 -24   0  26 1801.43 96.1000   1
   0  24  26 1813.10 95.0900   1
 -24  24  10 1051.13 79.5800   1
 -28  18  12 23.7400 36.8300   1
 -18  28  12 58.2100 38.1600   1
 -28  12  18 65.1900 41.4300   1
 -12  28  18 -0.6700 49.2800   1
 -24  24  10 1346.88 88.0300   1
 -10  24  24 1376.90 85.1100   1
 -28  18  12 58.0700 45.1700   1
 -24  10  24 1155.45 69.5300   1
  10  24  24 1239.25 71.8300   1
  24  10  24 1351.93 78.9600   1
  10  16  30 295.340 39.3100   1
 -16 -10  30 313.470 52.9500   1
  16  10  30 349.330 47.6100   1
 -10 -16  30 303.690 43.0300   1
 -30  16  10 333.970 50.1600   1
 -16  30  10 286.670 46.0100   1
  -8  34  -6 263.300 86.3200   1
 -34   8   6 435.820 79.9300   1
  -8  34   6 206.350 63.5800   1
   6  34   8 375.020 53.4900   1
  -6  34   8 277.090 44.4000   1
  -8   6  34 152.210 35.8800   1
  -6   8  34 242.730 50.1500   1
   6   8  34 134.800 36.4100   1
   8   6  34 254.210 45.9900   1
  -8  -6  34 240.960 46.5300   1
  -6  -8  34 202.140 38.5500   1
   6  -8  34 199.370 50.3900   1
   8  -6  34 207.390 56.9100   1
   8  34   6 148.720 47.9700   1
  -8  34   6 152.640 41.5300   1
  -6  34   8 -6.3200 56.7400   1
 -10  34   0 502.170 75.9300   1
   0  34  10 593.560 57.7100   1
   0  10  34 518.320 52.9700   1
 -10   0  34 621.030 55.3400   1
  10   0  34 567.740 56.1600   1
   0 -10  34 588.060 58.3500   1
  10  34   0 409.970 51.5500   1
 -10  34   0 519.130 52.7300   1
  18  16  26 122.210 44.6800   1
  16  18  26 33.5000 43.4800   1
 -16  18  26 105.700 33.8200   1
 -18  16  26 90.7500 33.6600   1
 -26  16  18 42.4700 32.7400   1
 -16  26  18 28.9600 49.2900   1
 -26  18  16 71.0100 34.4200   1
 -18  26  16 -11.540 44.3400   1
  14  32   6 272.830 41.6500   1
 -14  32   6 337.540 61.5200   1
  14  -6  32 408.520 50.4600   1
  -6 -14  32 325.440 57.7100   1
  14   6  32 440.210 51.6800   1
 -14  -6  32 365.290 42.4100   1
   6  14  32 384.580 54.3800   1
  -6  14  32 293.130 39.4900   1
 -14   6  32 290.250 50.6100   1
   6  32  14 475.100 44.0800   1
  -6  32  14 357.020 43.0500   1
 -32   6  14 375.520 58.2000   1
 -14  32   6 509.770 65.4800   1
 -32  14   6 233.180 60.0900   1
 -14  32  -6 157.530 89.0900   1
   8  34   6 222.310 52.9300   1
  14  22  24 978.260 61.7100   1
  14  24  22 983.450 69.1300   1
 -14  22  24 1126.26 76.1300   1
 -22  14  24 1077.41 71.2700   1
 -24  14  22 1104.04 71.9100   1
 -14  24  22 982.080 71.7200   1
 -24  22  14 1078.35 69.7900   1
 -22  24  14 1061.66 79.5000   1
 -24  26   2 1077.59 79.2600   1
  26   2  24 1461.53 93.8000   1
  24   2  26 1379.46 89.5600   1
 -24  -2  26 1269.33 77.9100   1
   2  24  26 1215.39 71.0600   1
 -24   2  26 1303.81 75.7600   1
 -26  -2  24 1311.18 79.3200   1
  -2  24  26 1434.57 83.7100   1
   2  26  24 1260.06 76.6900   1
  -2  26  24 1153.11 69.6200   1
 -26   2  24 1246.75 77.1100   1
 -24  26   2 1193.29 87.9000   1
 -26  24   2 1535.98 113.380   1
 -24  26  -2 1186.68 103.440   1
 -26  24  -2 1174.55 103.260   1
 -30  16  10 292.090 62.2300   1
 -16  30  10 267.360 54.8300   1
 -30  10  16 424.560 50.4100   1
 -10  30  16 356.300 42.6000   1
  10  30  16 330.370 37.8800   1
 -16  10  30 290.220 51.5200   1
 -10  16  30 426.550 43.2300   1
 -17  21  23 8.77000 33.1700   1
  -3  -5  35 115.430 50.4900   1
   5  -3  35 -12.680 51.6600   1
 -19  27  13 16.9600 46.3100   1
 -27  13  19 62.9300 32.6500   1
 -13  27  19 54.8100 34.8400   1
 -17  31   3 669.870 66.1300   1
  17  -3  31 872.800 64.2000   1
  -3 -17  31 920.290 71.6300   1
  17   3  31 914.200 67.8400   1
 -17  -3  31 926.830 69.4300   1
   3  17  31 1077.09 74.8900   1
 -17   3  31 916.110 65.2000   1
  -3  17  31 987.480 62.7800   1
   3  31  17 920.330 60.0900   1
  -3  31  17 881.620 59.2300   1
 -17  31   3 971.330 76.1700   1
 -31  17   3 1138.98 100.890   1
 -17  31  -3 989.270 106.450   1
   5  35   3 129.440 64.2300   1
  -1  23  27 733.250 62.3900   1
 -23   1  27 852.740 62.6900   1
 -23  -1  27 786.980 60.3000   1
  -5  35  -3 -106.06 55.5200   1
 -23  27  -1 757.480 90.2900   1
 -27  23   1 784.400 85.7600   1
  -3  35   5 98.0900 41.4400   1
 -13  -1  33 286.940 52.5900   1
  13   1  33 265.020 49.5400   1
  -5  35   3 31.7000 50.0500   1
   3  35   5 -11.270 47.2700   1
 -19  13  27 43.0600 44.9800   1
  -3  35  -5 12.2800 80.2800   1
  23   1  27 733.560 64.9000   1
  23  -1  27 718.960 66.4500   1
 -23  27   1 652.880 65.5500   1
 -23  27   1 869.910 76.3500   1
  -5  35   3 135.980 60.1600   1
   3  35   5 47.8900 52.4000   1
 -13   1  33 269.690 39.4600   1
  -1  27  23 762.010 59.1500   1
 -27   1  23 744.500 60.9400   1
   1  27  23 906.680 64.2700   1
  17  21  23 -7.6000 36.4200   1
  17  23  21 18.1500 28.3100   1
 -21  17  23 4.52000 41.0300   1
  -3  35   5 35.7000 44.2800   1
 -23  17  21 -16.720 41.6500   1
 -17  23  21 79.0400 34.0400   1
 -23  21  17 -18.750 48.2900   1
 -21  23  17 -21.000 34.6300   1
   1  23  27 888.630 62.8300   1
  -3   5  35 67.5000 48.8000   1
  -5   3  35 33.9700 34.4800   1
   3   5  35 79.0500 35.8000   1
   5   3  35 -10.470 43.0600   1
  -5  -3  35 -10.550 34.1500   1
 -13  33   1 67.3300 52.4300   1
  13  33   1 174.880 50.7200   1
 -13  33  -1 149.390 60.7600   1
   1 -13  33 275.210 60.2400   1
  -1 -13  33 256.680 57.9200   1
  13  -1  33 328.300 56.9200   1
   3  -5  35 -56.890 44.9200   1
   5  35   3 73.0700 47.6900   1
 -25  25   3 1245.33 101.010   1
 -25  25  -3 1236.59 106.210   1
  -7  11  33 83.8200 42.3500   1
  11  -7  33 187.550 60.0700   1
 -27  19  13 98.5800 51.4600   1
 -13 -19  27 31.2800 36.1000   1
  19  13  27 20.1500 46.3300   1
  13  19  27 -30.260 31.4500   1
 -11   7  33 82.6000 34.3500   1
  -1  13  33 325.290 40.7200   1
   1  13  33 186.250 49.8100   1
  -1  33  13 328.210 48.4100   1
   1  33  13 271.860 39.2500   1
 -13  33   1 278.620 57.0200   1
 -13  33  -1 309.530 75.7800   1
 -33  13   1 265.710 72.2900   1
 -33  13  -1 323.470 64.1700   1
   7 -11  33 -55.570 59.6700   1
  -7 -11  33 86.5100 36.6000   1
  11   7  33 27.1900 33.9600   1
 -11  -7  33 -5.9800 42.0500   1
   7  11  33 49.1400 33.2100   1
  -7  33  11 25.6000 46.0500   1
   7  33  11 10.7000 40.6500   1
 -33   7  11 133.000 40.9800   1
 -27  23  -1 728.610 76.3700   1
 -25   3  25 1240.08 79.6000   1
   3  25  25 961.750 61.2400   1
 -25  -3  25 1175.83 77.6700   1
  25   3  25 1197.62 82.9300   1
 -11  33   7 182.690 51.7500   1
  -3  25  25 1093.59 66.7000   1
 -11  33   7 83.2500 43.4200   1
  11  33   7 22.8500 45.5200   1
 -33  11   7 -73.100 55.5400   1
 -18   6  30 2013.61 106.450   1
  18   6  30 2122.12 329.570   1
  10  34   2 274.580 49.6900   1
 -10  34   2 308.720 46.4900   1
 -26  22  10 362.420 64.2100   1
 -22  26  10 639.490 65.0400   1
 -26  10  22 428.620 42.9000   1
 -22  10  26 490.570 44.8300   1
 -10  22  26 443.160 49.9000   1
  10  26  22 489.390 43.8300   1
  10  22  26 523.670 50.0200   1
  10   2  34 154.710 46.0300   1
 -10  -2  34 225.010 45.9400   1
   2  10  34 314.840 40.1200   1
 -10   2  34 337.070 48.0100   1
  -2  10  34 360.970 54.0500   1
   2  34  10 392.100 57.2200   1
 -18  -6  30 2013.15 106.240   1
 -10  34  -2 117.370 59.4000   1
 -10  34   2 297.560 73.4000   1
 -10  34  -2 468.560 66.6000   1
   2 -10  34 354.970 53.0000   1
  -2 -10  34 293.450 42.2400   1
  -6 -18  30 2201.84 341.940   1
 -22  26  10 402.750 55.5900   1
 -10  26  22 428.330 50.8700   1
 -26  22  10 304.070 44.5800   1
  10  -2  34 209.760 55.6600   1
  -6  18  30 1979.41 105.280   1
  22  10  26 490.870 46.8100   1
 -10 -22  26 541.080 52.0800   1
   6  18  30 2083.45 322.150   1
  -2  34  10 408.730 52.9300   1
 -30  18   6 2004.86 130.030   1
   6  30  18 2152.85 332.560   1
  -6  30  18 2411.32 374.370   1
 -30   6  18 2014.21 108.940   1
 -18  30  -6 2047.06 143.950   1
 -30  18   6 1655.53 100.370   1
 -18  30   6 1607.54 92.0600   1
 -18  30   6 2225.03 346.200   1
  -9 -15  31 362.530 45.0400   1
  15   9  31 359.680 47.4700   1
   9  15  31 441.240 54.1400   1
 -15   9  31 350.230 47.2800   1
  -9  15  31 357.690 52.5600   1
   9  31  15 320.480 44.3000   1
  23   3  27 235.590 55.0400   1
 -31   9  15 438.190 52.4400   1
 -15  31   9 345.800 47.2100   1
 -31  15   9 232.500 56.0200   1
 -15  -9  31 378.530 43.5800   1
  13  33   3 10.3500 34.4400   1
 -13  33   3 6.52000 49.7300   1
   3 -13  33 70.7900 57.1400   1
  13  -3  33 107.510 55.6600   1
   3  33  13 77.2200 34.8600   1
  -3 -13  33 24.5900 37.8000   1
  13   3  33 110.090 52.3000   1
 -13  -3  33 19.0300 33.2500   1
 -27  23   3 300.660 75.9800   1
   3  13  33 -67.890 33.4300   1
 -27  23  -3 338.320 90.7800   1
 -23  27  -3 295.370 83.3500   1
 -23  27   3 272.400 55.4900   1
 -27   3  23 404.980 61.3100   1
  -9  31  15 289.920 41.6100   1
  -3  27  23 250.660 45.1900   1
   3  27  23 301.760 39.3100   1
  -3  23  27 285.720 38.2800   1
 -23   3  27 292.690 39.1500   1
   3  23  27 239.360 36.7900   1
 -23  -3  27 232.600 48.1700   1
 -13   3  33 34.7200 41.0800   1
  -3  13  33 16.0200 42.9000   1
  -3  33  13 74.7400 42.4700   1
 -23  27   3 322.780 59.2300   1
 -13  33   3 117.660 59.5700   1
 -13  33  -3 -82.740 69.8800   1
 -33  13   3 36.9500 66.3500   1
 -27  23   3 190.490 41.8800   1
  27   3  23 278.740 50.7500   1
 -15  31   9 403.820 57.4500   1
 -31  15   9 294.570 55.3700   1
  10  12  32 -24.900 40.9000   1
 -10  12  32 58.6100 41.7700   1
 -12  10  32 48.2900 33.6200   1
  10  32  12 -6.4200 31.4500   1
 -10  32  12 27.1200 46.2900   1
 -12  32  10 2.47000 38.0800   1
 -32  10  12 -26.040 46.6000   1
 -32  12  10 -90.960 49.0500   1
  22   0  28 171.060 40.3800   1
 -12 -10  32 25.2700 35.0300   1
 -28  22   0 235.020 62.8800   1
 -10 -12  32 -13.600 42.8000   1
 -22  28   0 213.600 81.7800   1
 -24  26   4 414.950 62.1100   1
 -26  24   4 373.110 45.7100   1
  26   4  24 490.130 56.3000   1
  24   4  26 528.180 61.1200   1
 -24  -4  26 577.140 57.1700   1
   4  24  26 517.610 45.3500   1
   4  26  24 466.460 43.5000   1
  -4  24  26 504.490 56.0200   1
 -24   4  26 420.750 48.6100   1
  -4  26  24 524.880 47.1200   1
 -26   4  24 387.860 47.5700   1
 -24  26   4 434.260 68.1100   1
 -26  24   4 625.410 81.1900   1
 -24  26  -4 398.420 82.9900   1
 -26  24  -4 557.570 94.5200   1
   0  28  22 258.570 44.9500   1
   0  22  28 196.700 44.0700   1
 -22   0  28 148.630 41.1300   1
  12  10  32 8.39000 41.9200   1
 -26  20  14 118.990 38.0500   1
  14  26  20 96.5700 38.9400   1
 -28  22   2 192.530 69.8900   1
 -28  22  -2 -30.000 84.0800   1
  -4 -10  34 1.59000 35.2800   1
 -14  26  20 113.030 44.4700   1
 -26  14  20 109.590 42.9900   1
  -4  10  34 27.5800 42.4600   1
 -20  26  14 128.750 54.6300   1
 -14 -20  26 80.9300 45.5900   1
  20  14  26 94.2900 46.7900   1
  14  20  26 106.220 45.4200   1
 -14  20  26 154.480 50.3400   1
 -20  14  26 126.520 49.5000   1
   4 -10  34 25.0700 39.8400   1
  10  -4  34 28.8500 39.3100   1
  10   4  34 132.290 44.4900   1
 -10  -4  34 30.0400 34.8000   1
   4  10  34 0.46000 42.1900   1
 -10   4  34 -27.750 33.1400   1
  10  34   4 62.7600 36.6800   1
 -10  34   4 -12.520 39.3000   1
   4  34  10 16.0300 43.1700   1
   2  22  28 45.6600 46.3900   1
 -22  28   2 -14.000 54.3900   1
 -22  28  -2 -51.130 59.7600   1
  28   2  22 34.2800 46.7200   1
  22  -2  28 -87.990 39.6900   1
  22   2  28 37.6800 47.4400   1
 -22  -2  28 -39.640 40.2800   1
 -22   2  28 -96.950 40.1500   1
  -2  22  28 8.21000 31.7600   1
   2  28  22 123.210 34.1200   1
  -2  28  22 51.8500 42.1100   1
 -28   2  22 -7.9000 38.1200   1
 -10  34  -4 -78.780 71.6100   1
 -34  10   4 -46.970 62.9300   1
 -10  34   4 -2.8400 45.1900   1
  -4  34  10 92.2400 45.9400   1
 -22  28   2 -173.13 74.1900   1
 -23  25  11 1078.20 82.0900   1
 -25  23  11 1168.79 79.1800   1
 -11 -23  25 1428.10 85.9100   1
  23  11  25 1336.65 78.0200   1
  11  23  25 1360.18 76.8500   1
   1  35   7 236.220 44.1900   1
  -7   1  35 228.980 52.2300   1
   1   7  35 278.110 40.2800   1
  -7  -1  35 317.680 41.3300   1
   7   1  35 316.250 54.5600   1
  -1  -7  35 252.360 40.9800   1
   1  -7  35 178.970 39.5900   1
   7  35  -1 212.160 60.9500   1
  -7  35  -1 356.470 59.5200   1
  -7  35   1 303.220 56.1300   1
   7  35   1 134.150 48.5400   1
 -11  23  25 1326.28 81.0100   1
 -23  11  25 1531.28 91.0300   1
 -11  25  23 1479.43 90.0500   1
   5  -5  35 37.2800 36.3900   1
 -23  25  11 1514.29 88.4400   1
 -25  23  11 1626.48 98.2400   1
  19  17  25 45.0300 32.0600   1
  17  19  25 66.4200 31.5400   1
 -19  17  25 46.6700 41.0200   1
 -17  19  25 21.9300 32.8400   1
 -17  25  19 79.3300 35.8600   1
  -1  35   7 401.040 56.5500   1
   5  35   5 14.7500 37.2200   1
 -17  31  -5 1630.39 112.620   1
 -31  17   5 1709.37 108.580   1
 -17  31   5 1807.06 106.830   1
 -31   5  17 1684.56 101.720   1
 -25  11  23 1359.72 77.9600   1
 -25  17  19 -59.180 40.9700   1
  -5  31  17 1809.37 99.7800   1
   5  31  17 1384.71 78.9100   1
  -5  17  31 1522.96 87.4300   1
 -25  19  17 21.7100 33.6200   1
   5  35   5 49.8600 50.6400   1
  -5  35   5 -35.330 55.6100   1
 -17   5  31 1773.18 97.5500   1
   7  35   1 257.820 65.2100   1
  -7  35  -1 337.900 61.0200   1
  -7  35   1 278.280 65.9500   1
  -1  35   7 225.230 57.5600   1
  -5  35  -5 85.7400 58.8400   1
   1  35   7 305.930 59.3300   1
   5  17  31 1597.42 90.9600   1
  17   5  31 1720.90 96.9500   1
  -5 -17  31 1565.35 95.7400   1
  17  -5  31 1358.93 84.8500   1
 -17  31   5 1415.26 93.8100   1
  11  25  23 1309.37 74.6500   1
 -17  -5  31 1557.98 90.6100   1
  -1   7  35 112.030 49.8100   1
 -19  25  17 70.7200 35.6400   1
 -25  25   5 380.190 55.1500   1
  25   5  25 431.710 53.7200   1
   5  25  25 460.410 43.4300   1
  -5  25  25 490.600 56.5300   1
 -25   5  25 427.490 49.1300   1
 -25  25   5 370.060 74.0100   1
 -25  25  -5 419.990 84.6800   1
   7  -1  35 228.910 48.3900   1
  -5  35   5 4.19000 44.5600   1
  -5   5  35 54.2300 41.5500   1
   5   5  35 36.2900 42.2600   1
  -5  -5  35 4.33000 34.9100   1
   7  35  -1 353.570 70.2900   1
   0 -16  32 59.7800 58.5300   1
 -16  32   0 13.3800 40.5700   1
  16   0  32 32.5900 47.6700   1
 -16   0  32 60.7100 40.9800   1
   0  16  32 15.6600 34.0000   1
   0  32  16 43.8900 41.0900   1
 -16  32   0 -7.5000 53.8500   1
 -32  16   0 53.8100 55.9600   1
 -23  23  15 692.030 66.2400   1
 -15  23  23 599.490 59.9400   1
 -23  15  23 685.340 52.0100   1
  15  23  23 751.140 53.4400   1
  -3  35   7 10.9000 38.8900   1
   3  35   7 15.1300 48.0600   1
  -7  35   3 -71.500 39.1700   1
   7  35   3 -112.70 37.1900   1
   3  -7  35 69.2400 46.6300   1
 -29  19   9 570.410 52.2500   1
  -9 -19  29 587.840 59.8000   1
  19   9  29 591.500 61.1200   1
 -19  -9  29 622.060 51.4700   1
   9  19  29 633.550 49.2100   1
 -19   9  29 560.830 46.7200   1
  -9  19  29 556.310 47.3100   1
   9  29  19 657.040 59.0200   1
  -9  29  19 564.390 48.4100   1
 -29   9  19 661.200 51.9300   1
 -19  29   9 530.720 63.1500   1
 -29  19   9 665.580 60.4100   1
   7  -3  35 35.4300 38.1200   1
  -3  -7  35 108.330 36.6000   1
   7   3  35 117.280 45.4500   1
  -7  -3  35 -22.790 42.7300   1
   3   7  35 0.77000 34.6100   1
  -7   3  35 53.5700 34.3300   1
  -3   7  35 41.0700 41.5000   1
  -3  35   7 9.16000 55.6400   1
   3  35   7 73.2200 49.7800   1
  -7  35   3 -170.49 59.1700   1
   7  35   3 -24.390 45.4300   1
  -7  35  -3 7.70000 71.1300   1
 -13  -5  33 48.8800 35.0100   1
 -23  27   5 44.0000 48.0800   1
 -27  23   5 -21.770 51.2200   1
  27   5  23 -28.380 49.6600   1
  23   5  27 40.3800 51.0900   1
 -23  -5  27 12.1800 39.4400   1
   5  23  27 40.1200 31.9400   1
 -23   5  27 -23.580 32.0200   1
  -5  23  27 57.2000 40.9000   1
   5  27  23 11.2500 30.9500   1
 -27   5  23 51.6000 31.7800   1
  -5  27  23 -112.49 32.6400   1
 -23  27   5 4.71000 45.9600   1
 -27  23   5 -97.910 64.2300   1
 -23  27  -5 4.71000 60.9600   1
 -27  23  -5 117.360 62.2900   1
  13  33   5 113.930 45.9800   1
 -13  33   5 -36.340 48.2100   1
 -21  29   1 -154.92 57.6700   1
  21  -1  29 -98.930 47.6000   1
  21   1  29 43.2700 38.5400   1
 -21  -1  29 -47.160 45.4200   1
   1  21  29 74.4000 32.6200   1
 -21   1  29 24.0200 45.4200   1
  -1  21  29 5.78000 40.2200   1
  -1  29  21 -64.390 40.2200   1
   1  29  21 -12.010 32.0200   1
 -21  29   1 -19.720 51.5500   1
 -29  21   1 -115.97 55.4500   1
 -21  29  -1 11.4900 58.3500   1
 -29  21  -1 16.3800 82.2700   1
   5 -13  33 109.530 44.0800   1
  13  -5  33 -13.970 41.6000   1
  -5 -13  33 -26.830 44.9800   1
  13   5  33 68.1300 43.7600   1
   5  13  33 -56.890 41.4300   1
 -13   5  33 -24.070 33.8800   1
  -5  13  33 50.7700 48.7900   1
   5  33  13 -2.0800 39.4000   1
  -5  33  13 65.4500 44.0700   1
 -13  33   5 -157.08 57.9000   1
 -33  13   5 92.6400 51.0300   1
 -13  33  -5 -48.930 59.5400   1
  -4  22  28 113.370 47.7900   1
  14   8  32 166.170 37.4200   1
 -14  -8  32 306.540 48.1700   1
   8  14  32 174.150 48.0700   1
  -8  14  32 162.380 36.1700   1
 -22  20  20 172.960 43.5700   1
 -20  22  20 101.020 34.8500   1
  22   4  28 51.2600 51.6200   1
 -22  -4  28 71.9700 41.8300   1
   4  22  28 -6.0300 45.7700   1
 -22   4  28 1.06000 31.3300   1
 -28  22  -4 97.2200 62.2200   1
 -20  20  22 89.3900 34.0800   1
 -16   2  32 175.420 48.7400   1
  -8  34   8 164.300 57.8500   1
  -8   8  34 60.3000 42.5900   1
   8   8  34 108.590 35.6000   1
  -8 -14  32 119.360 53.2900   1
 -14  32   8 188.350 42.5300   1
  -8  -8  34 148.450 50.9000   1
 -14   8  32 201.160 37.9100   1
 -22  28   4 94.8900 49.8000   1
   8  32  14 147.140 46.1800   1
 -32  16  -2 114.170 73.7800   1
 -28  20  10 56.2000 50.8700   1
 -20  28  10 -79.970 49.0800   1
 -28  10  20 113.810 47.6800   1
 -10  28  20 -11.970 42.7800   1
  10  28  20 71.6200 39.6600   1
 -20  10  28 77.6000 33.5500   1
 -10  20  28 57.6800 46.7900   1
 -32  16   2 150.760 78.6200   1
 -16  32  -2 181.190 60.6000   1
  -2  32  16 145.290 36.1700   1
   2  32  16 111.600 42.0200   1
 -16  32   2 -31.020 41.1900   1
  -8  32  14 164.630 38.1500   1
 -28  22   4 25.7000 47.3300   1
  28   4  22 -28.770 43.6000   1
 -32   8  14 182.790 46.8100   1
   8  -8  34 169.850 52.2400   1
 -14  32   8 120.920 53.0200   1
 -32  14   8 250.580 59.2100   1
  -2 -16  32 151.940 50.7500   1
  16  -2  32 176.770 50.2600   1
  16   2  32 256.690 41.4100   1
  10  20  28 13.3500 33.1300   1
 -20 -10  28 38.5800 41.2600   1
  -4  28  22 -45.510 41.3500   1
 -22  28  -4 66.7500 62.1400   1
 -28  22   4 -48.740 69.4000   1
 -22  28   4 103.770 61.0600   1
 -28   4  22 -55.340 44.2000   1
  -2  16  32 35.5900 48.3100   1
  20  10  28 -2.0800 33.4800   1
 -10 -20  28 74.0200 38.6600   1
 -28  20  10 11.7900 35.6000   1
 -20  28  10 14.9200 48.8800   1
   2  16  32 109.960 48.1800   1
   4  28  22 68.6100 32.9900   1
  -8  34   8 42.2500 50.5900   1
   8  34   8 62.4100 52.0100   1
 -16  32   2 81.9600 64.4800   1
  18   8  30 1477.78 87.3500   1
  -8 -18  30 1295.40 91.8700   1
 -30  18   8 1029.10 79.2600   1
 -18  30   8 1022.84 81.0100   1
   8  18  30 1308.64 87.1300   1
 -18  30   8 1281.34 90.6200   1
  -8  18  30 1328.97 76.0700   1
 -30  18   8 1445.02 99.5400   1
 -30   8  18 1403.35 83.9800   1
  -8  30  18 1317.97 80.5500   1
 -18   8  30 1322.01 75.9700   1
   8  30  18 1379.92 81.5700   1
 -18  -8  30 1266.94 83.8400   1
 -24  26  -6 85.8800 62.4900   1
 -24  26   6 234.230 61.3400   1
 -26  24   6 244.060 68.9300   1
  -6  26  24 154.430 44.1400   1
 -26   6  24 162.290 34.7400   1
 -24   6  26 130.320 46.4800   1
  -6  24  26 219.750 37.7300   1
   6  26  24 110.830 32.9000   1
   6  24  26 155.120 33.7600   1
  26   6  24 89.7400 50.5000   1
  24   6  26 197.510 46.6500   1
 -24  26   6 136.000 55.9600   1
 -26  24   6 160.480 39.6200   1
  29   3  21 137.140 50.7900   1
 -21  29   3 -36.380 56.6300   1
  -3  29  21 113.140 51.6700   1
  15  25  21 279.080 43.0000   1
 -21  15  25 241.580 45.9700   1
  21  15  25 227.070 42.5200   1
 -15  21  25 279.320 52.0200   1
 -25  15  21 127.380 52.2700   1
 -21  25  15 307.220 51.9800   1
 -25  21  15 227.330 45.6200   1
 -21  11  27 56.0200 34.2400   1
  11  21  27 73.9600 35.4400   1
  21  11  27 179.340 50.9800   1
 -11  21  27 145.430 48.9000   1
 -29  15  15 218.260 60.3900   1
 -15  29  15 187.840 55.3800   1
 -15  15  29 180.700 43.6500   1
  15  15  29 216.330 48.0500   1
 -15 -15  29 148.280 49.3800   1
 -33  11   9 60.8700 43.6300   1
 -33   9  11 -17.580 47.8600   1
 -11  33   9 -56.970 38.5400   1
 -11 -21  27 139.350 44.9200   1
 -27  21  11 117.170 55.5300   1
 -21  27  11 46.5300 49.4700   1
  -9  33  11 -108.60 52.2100   1
   9  33  11 -26.760 41.5700   1
 -11   9  33 -6.3500 46.6300   1
  -9  11  33 18.1500 33.4300   1
   9  11  33 -4.2000 33.4900   1
  11   9  33 -11.090 47.8000   1
 -11  -9  33 -55.280 34.2700   1
  -9 -11  33 -41.690 35.0200   1
  11  -9  33 84.8500 46.1700   1
 -11  33   9 110.040 59.3600   1
 -27  21  11 186.890 57.1000   1
 -29  21  -3 275.910 64.5700   1
 -21  29  -3 70.1800 79.3800   1
 -29  21   3 198.710 61.1700   1
 -21  29   3 213.000 62.4700   1
 -29   3  21 216.360 52.5800   1
  15  21  25 254.730 38.2100   1
   3  29  21 195.080 52.0300   1
  -3  21  29 233.100 37.6000   1
 -21   3  29 289.430 46.3300   1
   3  21  29 185.980 44.2500   1
 -21  -3  29 323.310 48.7700   1
  21   3  29 244.880 55.5200   1
 -21  27  11 134.370 46.0000   1
 -27  11  21 112.630 50.9500   1
 -11  27  21 58.3100 45.4100   1
  11  27  21 186.770 44.1000   1
  -6 -10  34 -63.680 43.3100   1
  10  -6  34 -20.640 56.8000   1
  -6  34  10 83.9000 39.8300   1
   6  34  10 -18.680 48.6000   1
 -10  34   6 12.3200 42.5900   1
 -14  14  30 -3.4400 32.1300   1
 -34  10   6 -1.0700 68.8000   1
 -10  34  -6 -127.52 72.1800   1
  14  14  30 79.0800 47.2700   1
 -18  22  22 -15.870 32.9300   1
 -30  14  14 33.1700 35.6100   1
 -14  30  14 51.4600 37.1300   1
  10  34   6 83.7200 47.8200   1
 -10  34   6 23.5400 40.3700   1
   6 -10  34 80.1300 58.7500   1
 -22  18  22 -55.590 45.3700   1
 -22  22  18 -20.970 33.8600   1
  -6  10  34 42.8400 43.3700   1
 -14 -14  30 101.970 46.8000   1
 -30  14  14 -0.3300 48.1700   1
 -10   6  34 67.1200 48.5000   1
   6  10  34 20.2900 41.2500   1
 -10  -6  34 -84.480 47.9500   1
  10   6  34 -84.490 49.2900   1
 -16   4  32 619.350 52.5600   1
  -4  16  32 573.150 51.4400   1
   4  32  16 575.560 50.9900   1
  -4  32  16 523.740 49.9400   1
 -16  32   4 574.280 81.0700   1
 -32  16   4 613.570 70.6900   1
 -16  32  -4 570.310 96.0800   1
 -24  24  12 1709.39 108.580   1
   0  36   0 2065.26 144.070   1
   0   0  36 2072.14 231.990   1
   0  36   0 1620.57 104.100   1
 -24  24  12 1573.04 105.480   1
  24  12  24 1840.10 121.100   1
 -16 -16  28 300.550 55.0500   1
  16  16  28 214.280 47.6600   1
  12  24  24 1852.34 112.560   1
 -24  12  24 2047.61 123.820   1
 -12  24  24 1906.24 113.880   1
 -16  16  28 238.250 44.6000   1
 -16  28  16 240.750 40.9200   1
 -28  16  16 352.920 133.280   1
 -16  32   4 431.910 52.1400   1
  16  -4  32 536.340 55.6300   1
  -4 -16  32 607.520 57.0500   1
  16   4  32 576.980 52.7100   1
 -16  -4  32 500.940 54.5200   1
   4  16  32 518.910 54.4400   1
   7  31  17 1386.05 87.9700   1
 -31  17   7 1256.46 91.8000   1
 -17  31   7 1277.62 96.9900   1
 -17  31   7 1485.27 100.430   1
 -31   7  17 1499.90 101.270   1
  -7  31  17 1452.83 98.0400   1
 -31  17   7 1391.76 99.2800   1
   7  25  25 331.920 45.9700   1
 -17   7  31 1597.79 98.1900   1
   7  17  31 1562.82 98.8700   1
 -17  -7  31 1346.18 87.4500   1
  17   7  31 1344.26 90.7000   1
  -7 -17  31 1589.46 102.670   1
   5  -7  35 20.8900 47.7900   1
   7  -5  35 131.450 57.1700   1
  -5  -7  35 -102.00 49.2800   1
   5   7  35 72.1700 45.3700   1
  25   7  25 314.770 55.6900   1
  -7  17  31 1513.30 99.1200   1
 -25  25   7 228.550 53.1300   1
 -25  25   7 45.8000 63.4500   1
  -7  25  25 273.410 39.8400   1
   7   5  35 -0.8400 43.8000   1
  -7  -5  35 -10.050 42.5100   1
 -25   7  25 332.480 41.1100   1
 -13 -13  31 41.8300 35.6700   1
  13  13  31 72.9800 36.3500   1
 -13  13  31 34.7700 41.0800   1
 -13  31  13 27.4500 51.7300   1
 -31  13  13 -1.3400 51.3700   1
   5  35   7 60.6400 55.8900   1
  -5  35   7 77.2900 50.3800   1
  -7  35   5 -5.8300 39.5600   1
   7  35   5 -7.6000 45.9800   1
  -5   7  35 9.03000 42.3500   1
  -7   5  35 17.5300 34.7500   1
  -5  35   7 46.9800 50.0300   1
   5  35   7 -33.680 46.6400   1
  -7  35   5 46.0700 45.7700   1
   7  35   5 -40.320 59.5900   1
  -7  35  -5 -44.300 72.7800   1
  13  17  29 42.1500 40.3700   1
 -29  17  13 150.360 52.7100   1
 -17  29  13 301.880 44.6100   1
 -29  13  17 117.390 46.5600   1
 -13  29  17 155.340 50.4700   1
 -17  13  29 193.110 45.8000   1
 -13  17  29 155.930 41.7600   1
  17  13  29 101.700 45.4200   1
 -17 -13  29 207.340 55.1800   1
 -13 -17  29 268.110 49.4100   1
 -29  17  13 102.250 40.0200   1
  -2  36   0 1847.53 132.020   1
   2  36   0 1566.99 114.500   1
   0  36  -2 1568.21 122.670   1
  12  34   0 775.520 63.7100   1
   0 -12  34 909.040 74.6700   1
  12   0  34 888.760 71.9200   1
 -12   0  34 964.660 76.6100   1
   0  12  34 876.690 64.1100   1
   0  34  12 833.520 63.7700   1
  20   0  30 280.400 52.0700   1
 -12  34   0 959.650 86.4300   1
 -30  16  12 148.540 49.2500   1
  16  12  30 152.880 42.6100   1
 -16 -12  30 140.870 53.7900   1
  12  16  30 140.310 41.2000   1
 -12  16  30 64.3500 42.4100   1
 -16  12  30 86.4900 35.4200   1
 -24  20  18 57.0300 45.1200   1
 -20  24  18 43.0300 35.1300   1
 -24  18  20 -36.110 33.0900   1
 -18  24  20 83.1000 36.0700   1
 -12  30  16 26.7700 45.4500   1
 -20  18  24 -34.520 41.0400   1
 -20   0  30 164.320 50.9300   1
  18  20  24 27.7000 30.4800   1
  20  18  24 49.1200 32.0200   1
   0  36   2 1232.21 93.7500   1
 -30  12  16 209.910 48.6600   1
 -12 -16  30 68.6300 52.9500   1
 -34  12   0 953.480 91.1700   1
 -20  30   0 272.200 81.4900   1
   0  20  30 216.660 47.6000   1
 -16  30  12 204.680 58.8900   1
   0  30  20 165.100 42.8900   1
 -30  16  12 147.980 59.0700   1
   0  36   2 1547.83 112.200   1
 -20  30   0 265.660 55.6000   1
   2   0  36 1526.64 99.1900   1
   2  36   0 1200.72 83.5600   1
  -2  36   0 1175.07 82.1600   1
   0  36  -2 1224.71 95.1800   1
 -12  34   0 650.350 59.4500   1
   0  -2  36 1387.26 89.0500   1
   0   2  36 1508.41 94.1000   1
  -2   0  36 1331.55 92.6100   1
 -18  20  24 28.3100 42.3700   1
 -12  26  22 750.140 64.2700   1
 -26  12  22 870.540 68.7000   1
 -26  22  12 856.800 67.5500   1
 -22  26  12 833.210 73.3200   1
 -14 -18  28 130.520 42.5200   1
  18  14  28 174.970 43.9500   1
  14  18  28 120.630 44.2400   1
 -14  18  28 137.570 40.3700   1
 -18  14  28 180.160 49.4200   1
 -14  28  18 150.760 43.3500   1
 -28  14  18 65.7700 48.3000   1
 -18  28  14 46.7200 47.4300   1
 -34  12   2 818.600 91.3700   1
 -12  34  -2 636.900 96.2500   1
 -12  34   2 497.850 63.4000   1
  -2  34  12 695.590 63.8000   1
   2  36  -2 1290.85 102.490   1
  -2  36  -2 958.010 88.7100   1
   2  36   2 1026.83 86.9000   1
  -2  36   2 1024.11 97.8200   1
  -2   2  36 1006.18 70.9400   1
   2   2  36 1315.87 92.0100   1
   2  34  12 526.990 50.1100   1
  -2  12  34 659.920 64.8400   1
   2  12  34 614.550 57.9300   1
 -12   2  34 602.660 52.9100   1
 -12  -2  34 589.180 52.1900   1
  12   2  34 501.700 56.5700   1
  12  -2  34 576.200 66.4900   1
  -2 -12  34 650.810 64.0300   1
  -2  -2  36 1142.51 77.0500   1
   2  -2  36 980.670 70.2100   1
  -2  36  -2 1002.54 80.8900   1
   2  36  -2 804.520 74.2800   1
  -2  36   2 961.110 78.3300   1
   2  36   2 1011.73 79.4600   1
   2 -12  34 637.500 65.7800   1
 -12  34  -2 530.740 57.4300   1
 -28  18  14 193.070 48.7300   1
  12  34   2 585.370 64.9200   1
 -12  34   2 483.020 53.7800   1
 -20  30  -2 376.710 79.5800   1
 -22  28   6 155.490 54.8900   1
 -28  22   6 173.740 47.5200   1
  28   6  22 198.800 54.4100   1
  22   6  28 139.080 50.1100   1
 -22  -6  28 139.710 41.2800   1
   6  22  28 209.630 56.2800   1
 -22   6  28 93.3100 36.7200   1
  -6  22  28 126.480 40.0100   1
   6  28  22 141.800 46.8200   1
  -6  28  22 101.410 38.1700   1
 -30  20  -2 305.420 66.0600   1
 -28   6  22 243.400 43.4800   1
 -22  28   6 101.330 70.3400   1
 -28  22   6 183.910 74.9600   1
 -22  28  -6 14.1500 91.0500   1
 -20  30   2 363.330 56.0300   1
  20  -2  30 523.090 65.8100   1
  20   2  30 346.030 45.5900   1
 -20  -2  30 436.630 51.6000   1
   2  20  30 396.990 54.8900   1
 -20   2  30 330.110 53.2800   1
  -2  20  30 345.760 41.8900   1
   2  30  20 510.450 53.1000   1
  -2  30  20 374.230 48.9500   1
 -20  30   2 434.150 74.9300   1
 -30  20   2 331.050 75.5600   1
 -26  22  12 609.720 56.3200   1
 -12 -22  26 674.860 66.1000   1
  22  12  26 811.810 66.8100   1
  12  22  26 753.470 61.8300   1
  12  26  22 804.680 64.1400   1
 -12  22  26 811.050 66.7700   1
 -22  12  26 844.530 67.2600   1
 -31  15  11 10.8600 38.8000   1
 -11  15  31 10.8000 41.6700   1
 -15  11  31 100.010 36.7600   1
  11  15  31 28.7200 41.1200   1
 -29  21   5 518.360 53.6200   1
  15  11  31 -22.500 47.1700   1
 -15 -11  31 6.62000 34.9400   1
  -1  35   9 818.990 72.1600   1
  21   5  29 537.720 58.7900   1
  -9  35   1 584.430 76.0900   1
 -21  -5  29 820.190 70.8600   1
  -9  35  -1 658.850 74.9500   1
   5  21  29 560.980 49.9200   1
 -21   5  29 684.340 60.6000   1
  -5  21  29 705.210 61.3200   1
   5  29  21 705.080 59.9800   1
  -5  29  21 590.280 56.7200   1
 -29   5  21 587.220 56.0300   1
 -21  29   5 687.230 67.3600   1
 -29  21   5 652.230 77.2800   1
 -21  29  -5 598.740 99.0500   1
  -9  35  -1 437.540 51.2800   1
   9  35  -1 497.740 60.3500   1
 -21  29   5 472.760 67.9000   1
 -33  13   7 72.4100 64.8000   1
  -7  23  27 53.3400 34.6300   1
 -13  33   7 -56.700 53.2000   1
  -7  33  13 26.5800 35.8700   1
  -7 -13  33 -46.480 36.5000   1
 -27  17  17 299.420 48.9500   1
 -17  27  17 458.020 59.3500   1
 -17  17  27 314.510 46.6400   1
  17  17  27 280.290 38.9100   1
   7  33  13 8.82000 40.3800   1
 -13   7  33 171.350 54.8700   1
  -7  13  33 -21.770 48.0400   1
   7  13  33 6.34000 46.7300   1
 -13  -7  33 115.670 47.2100   1
  13   7  33 -25.920 34.1100   1
  13  -7  33 28.6300 60.0000   1
 -23  27   7 -38.690 47.5000   1
   1  35   9 672.180 66.2900   1
 -13  33   7 -1.0000 57.2400   1
  13  33   7 -24.720 45.1300   1
  27   7  23 -32.860 41.7300   1
 -27  23   7 -54.520 46.3800   1
  23   7  27 35.2000 44.1900   1
   7  23  27 43.7500 39.6200   1
 -27  23   7 -67.980 64.9600   1
 -23  27   7 -35.430 45.3300   1
 -27   7  23 -25.470 43.8700   1
  -7  27  23 -50.890 42.4900   1
   7  27  23 -55.120 37.7800   1
 -23   7  27 -36.620 32.5500   1
 -11 -15  31 116.400 54.6900   1
   9  35   1 540.480 60.1500   1
  -9  35   1 478.870 54.0700   1
 -15  31  11 109.810 51.6800   1
 -31  11  15 44.0000 36.3400   1
 -11  31  15 33.8900 36.4400   1
  11  31  15 -0.3100 30.5300   1
   9   1  35 781.960 67.1000   1
  -9  -1  35 704.180 62.4300   1
  -9   1  35 630.160 53.6100   1
   1   9  35 653.080 75.5700   1
  -1   9  35 679.760 65.4100   1
   1  -9  35 730.470 60.7200   1
  -1  -9  35 653.240 56.9600   1
   9  -1  35 643.400 66.9100   1
   4  36   0 697.780 82.9400   1
  -4  36   0 800.040 96.1800   1
   0  36   4 673.760 74.4100   1
  -4   0  36 779.110 69.8600   1
   0  -4  36 591.630 64.8500   1
   4   0  36 683.380 57.0100   1
   4  36   0 653.640 68.1800   1
  -4  36   0 681.900 61.1600   1
 -12 -12  32 54.6900 36.5600   1
  12  12  32 -12.790 33.7100   1
 -12  12  32 38.6200 41.8600   1
 -12  32  12 102.850 49.6300   1
 -32  12  12 93.9300 56.5600   1
   0  36   4 587.040 63.1600   1
   0   4  36 753.120 59.5800   1
   0  36  -4 748.280 89.8400   1
  -9  35  -3 194.970 88.2100   1
 -27  15  19 139.930 47.4300   1
   9  35   3 171.260 54.4800   1
  -3  35   9 208.160 59.6100   1
   3  35   9 253.020 50.4300   1
  -9  35   3 333.390 74.6600   1
  -9  35   3 100.570 43.9300   1
 -15  27  19 20.3100 44.9900   1
 -35   9   3 427.100 83.8600   1
   3  -9  35 211.130 52.6300   1
 -19  27  15 -6.1800 45.6000   1
  -9  -3  35 295.840 48.1800   1
   9   3  35 182.340 46.4800   1
  -3  -9  35 260.620 41.3200   1
 -27  19  15 97.8000 39.5700   1
  19  15  27 69.3000 41.0700   1
  15  19  27 24.4400 32.8700   1
 -15  33  -1 155.090 77.9700   1
 -33  15   1 -44.180 66.5100   1
   9  -3  35 155.950 45.9100   1
  -9   3  35 329.410 53.4700   1
 -33  15  -1 17.7100 71.2600   1
   1  33  15 123.050 47.4300   1
  -1  33  15 -23.290 41.8500   1
  -1  15  33 118.880 40.4200   1
   1  15  33 21.3200 41.9300   1
 -15   1  33 89.7400 36.5600   1
 -15  33   1 39.0400 74.0000   1
  15   1  33 10.8100 52.5200   1
  15  -1  33 68.9000 48.6600   1
  -1 -15  33 29.3300 49.9300   1
   1 -15  33 -26.670 50.9400   1
 -15  33   1 4.18000 55.6600   1
   3   9  35 236.450 46.5000   1
 -15  19  27 15.1200 33.0700   1
 -15  33  -1 160.750 64.8400   1
 -19  15  27 33.4300 41.7500   1
  -3   9  35 161.370 51.5800   1
 -15  -1  33 16.8100 41.4600   1
  -4  30  20 1088.36 81.4500   1
 -30   4  20 989.490 73.8800   1
   4  30  20 1139.79 79.2900   1
 -24  22  16 262.810 49.2400   1
 -22  24  16 339.500 51.9900   1
   4  34  12 93.7400 45.4400   1
 -12  34   4 117.370 62.2700   1
 -34  12   4 200.990 81.4500   1
 -12  34   4 83.3600 43.0900   1
  12  34   4 197.520 55.9500   1
 -20  30  -4 1239.37 103.660   1
 -30  20   4 1202.06 94.2500   1
 -20  30   4 1115.62 114.920   1
  -4  34  12 235.280 48.9300   1
 -12  34  -4 149.030 61.8800   1
 -20  30   4 883.900 81.2000   1
  26   8  24 232.250 47.1800   1
 -26  24   8 183.360 48.9800   1
 -24  26   8 218.830 64.5300   1
   4  20  30 1037.23 75.5400   1
  20   4  30 1028.86 81.4000   1
 -26   8  24 114.670 50.3900   1
 -24   8  26 282.990 51.7500   1
  -8  24  26 163.240 55.9900   1
  -8  26  24 249.850 46.2500   1
  12  -4  34 219.590 54.2300   1
   4 -12  34 246.700 45.4100   1
 -20   4  30 1100.21 77.9600   1
  -4  20  30 1070.12 76.5500   1
  16  -6  32 649.170 72.1500   1
  -6 -16  32 833.160 71.5300   1
  16   6  32 987.840 78.6000   1
 -24  26   8 260.880 48.6300   1
   6  16  32 704.830 56.3700   1
 -16   6  32 745.000 63.7100   1
  -6  16  32 872.940 63.6800   1
   6  32  16 905.960 65.4000   1
 -16  -6  32 829.870 71.8200   1
  -6  32  16 829.500 68.4900   1
 -16  32   6 786.270 77.0700   1
 -32  16   6 769.600 79.9500   1
  -4 -12  34 153.010 44.7100   1
  12   4  34 42.8300 45.3900   1
 -20  -4  30 1074.35 74.6400   1
 -12  -4  34 172.730 44.7100   1
 -26  24   8 239.310 68.8500   1
 -16  32  -6 1025.65 95.1100   1
  16  22  24 243.580 36.0100   1
  16  24  22 276.740 47.2900   1
 -22  16  24 384.440 50.0400   1
  -2  36   4 399.530 63.3900   1
 -16  22  24 194.970 59.0000   1
 -24  16  22 291.040 40.7200   1
 -16  24  22 332.480 53.6300   1
  -4  12  34 194.080 54.0300   1
 -12   4  34 149.650 52.2600   1
  24   8  26 200.860 54.5100   1
   4  12  34 151.680 42.0900   1
   8  26  24 216.330 52.6600   1
  -2  36  -4 353.180 77.4400   1
   4  36  -2 403.890 82.9300   1
  -4  36  -2 464.260 94.3500   1
   4  36   2 379.470 58.2800   1
  -4  36   2 461.770 69.0000   1
   2  36   4 541.150 61.6000   1
  -2  36   4 411.450 55.1100   1
  -2   4  36 422.880 52.5700   1
  -4   2  36 588.000 52.1800   1
   2   4  36 414.800 45.5600   1
  -4  -2  36 550.680 50.8400   1
   4   2  36 512.570 49.3300   1
  -2  -4  36 659.340 65.6500   1
   2  -4  36 510.960 56.7400   1
   4  -2  36 254.190 55.3500   1
  -4  36  -2 354.070 63.0800   1
  -4  36   2 364.730 48.9200   1
   4  36   2 414.830 49.0600   1
   2  36   4 294.820 52.8800   1
   8  10  34 -30.540 33.6600   1
 -10   8  34 53.5500 34.5200   1
  -8  10  34 -21.620 47.7100   1
   8  34  10 31.0800 42.1200   1
  -8  34  10 29.9100 48.8000   1
 -10  34   8 -64.500 38.8100   1
  14  10  32 -49.260 47.3300   1
 -14 -10  32 -19.410 42.7300   1
 -10 -14  32 -7.7000 44.6200   1
 -32  14  10 -3.4800 40.8000   1
 -14  32  10 -33.800 39.1800   1
 -32  10  14 -11.910 35.7400   1
  10  14  32 -8.9700 47.4400   1
 -34  10   8 54.2200 55.5000   1
 -14  32  10 -3.1800 41.0600   1
 -10  32  14 -27.660 35.3900   1
 -10  34   8 -52.160 50.0700   1
 -14  10  32 -31.400 47.1200   1
  10  -8  34 -75.490 41.5100   1
 -10  14  32 4.41000 34.0600   1
   8 -10  34 -31.500 41.1100   1
  -8 -10  34 -50.600 42.9800   1
 -10  -8  34 -43.890 49.2000   1
  10   8  34 47.9200 34.9700   1
  10  32  14 -47.930 38.1000   1
  -7  -7  35 24.9900 35.9000   1
   7  -7  35 22.1000 48.5900   1
 -21  21  21 -65.100 32.3000   1
 -19  29  11 99.0000 51.7700   1
 -29  19  11 237.990 47.7400   1
 -11 -19  29 248.760 43.0100   1
  19  11  29 196.260 54.1500   1
 -19 -11  29 146.500 42.0600   1
  11  19  29 52.6900 46.5800   1
 -11  19  29 125.690 46.6800   1
 -19  11  29 160.680 63.0700   1
  11  29  19 212.060 51.7700   1
 -11  29  19 249.230 40.1800   1
 -29  11  19 230.370 37.7100   1
 -19  29  11 172.800 49.2500   1
 -29  19  11 132.780 47.2100   1
 -25  23  13 1435.12 94.1400   1
   3 -15  33 72.9500 44.6600   1
  -3 -15  33 21.8500 39.1000   1
  15  -3  33 -65.370 39.4900   1
  23  13  25 1216.22 81.5400   1
  13  23  25 1389.92 91.1300   1
  13  25  23 1359.17 89.1700   1
 -13  23  25 1326.79 85.2900   1
 -23  13  25 1586.04 103.360   1
 -13  25  23 1423.73 90.3600   1
 -25  13  23 1493.21 93.6100   1
 -23  25  13 1352.35 94.0800   1
  15   3  33 -91.060 44.8900   1
 -15  -3  33 -4.3800 41.7700   1
   3  15  33 6.52000 41.4400   1
 -15   3  33 -79.900 41.1300   1
  -3  33  15 18.6000 35.5200   1
   3  33  15 40.9800 42.1500   1
 -15  33   3 -57.630 71.7800   1
 -33  15   3 -41.860 53.1100   1
 -15  33  -3 -40.910 58.3300   1
 -15  33   3 14.8600 56.3100   1
 -19  31   1 280.980 46.0700   1
  19  -1  31 473.040 58.1400   1
  19   1  31 346.690 59.2000   1
 -19  -1  31 341.760 48.8600   1
 -19   1  31 361.430 54.8400   1
  -1  19  31 379.880 48.9200   1
   1  19  31 313.530 46.9700   1
  -1  31  19 326.510 40.4500   1
   1  31  19 399.800 50.5600   1
 -19  31   1 291.010 59.5100   1
 -19  31  -1 402.110 67.6000   1
 -31  19   1 379.040 65.8300   1
 -31  19  -1 442.530 82.8500   1
  -7   7  35 42.1200 49.1000   1
   7   7  35 -13.680 49.2200   1
  -7  35   7 -2.4700 41.5700   1
   7  35   7 -3.5800 50.5800   1
  -7  35   7 20.9100 48.8700   1
   7  35   7 128.030 43.6300   1
 -30  10  18 535.710 60.3800   1
 -18 -10  30 573.950 58.0900   1
 -10  30  18 573.300 52.0200   1
  10  18  30 542.150 49.1400   1
  18  18  26 252.440 48.7300   1
 -30  18  10 600.700 67.7800   1
 -18  30  10 475.570 67.4000   1
 -18  18  26 270.070 51.2700   1
  18  10  30 579.400 57.5700   1
 -18  30  10 473.950 66.5800   1
 -30  18  10 453.730 55.9700   1
 -26  18  18 229.420 45.6400   1
 -18  26  18 213.680 56.2000   1
  10  30  18 525.500 48.2400   1
 -18  10  30 345.790 47.9800   1
 -10  18  30 466.970 45.5600   1
 -10 -18  30 571.060 54.7400   1
 -20  28  12 -17.390 49.1900   1
 -28  12  20 -24.560 32.8000   1
 -12  28  20 -47.990 42.3100   1
 -28  20  12 20.8400 38.3200   1
  -4  36  -4 61.0700 58.1200   1
 -28  20  12 -47.440 35.7000   1
  12  28  20 -63.260 43.9200   1
  -4  36   4 124.090 52.3400   1
   4  36   4 94.7500 57.2800   1
  -4  36   4 91.6200 65.3700   1
   4  36   4 79.2000 55.6600   1
 -12  20  28 -155.24 46.9200   1
  12  20  28 5.07000 39.9100   1
 -12 -20  28 53.1000 37.8100   1
  -4   4  36 138.990 48.4800   1
   4   4  36 8.81000 43.2600   1
  -4  -4  36 88.4300 46.4400   1
   4  -4  36 135.990 43.7500   1
 -20  12  28 -23.110 40.3500   1
  20  12  28 6.73000 48.0300   1
 -21   7  29 464.040 46.3400   1
  -7  21  29 537.480 49.4000   1
   7  21  29 487.880 46.4200   1
  -9  17  31 876.890 71.4300   1
  -7  29  21 571.850 50.9100   1
 -29   7  21 574.950 59.7400   1
 -19  31   3 985.700 84.6400   1
 -31  19   3 910.170 91.0000   1
 -21  -7  29 581.610 61.8400   1
  21   7  29 651.880 61.8100   1
  -7 -21  29 535.880 67.9000   1
 -29  21   7 408.390 61.4900   1
 -21  29   7 455.970 64.8600   1
  -5  35   9 40.9200 41.3000   1
   9  35   5 71.5500 39.6100   1
  -9  35   5 18.6300 39.6100   1
   5  -9  35 -126.23 56.2200   1
   9  -5  35 42.8700 49.7000   1
 -19  31  -3 802.310 96.9700   1
 -31  19  -3 976.990 90.3500   1
 -25  25   9 490.960 59.0400   1
  25   9  25 603.050 60.4200   1
   9  25  25 588.220 55.8100   1
 -25   9  25 552.450 49.8800   1
  -9  25  25 636.980 63.9300   1
 -25  25   9 592.620 70.0300   1
   3  31  19 754.520 58.3800   1
  -3  19  31 863.570 63.4000   1
 -19   3  31 799.840 65.9700   1
   3  19  31 891.400 65.0800   1
  -3  31  19 915.870 70.1000   1
  19   3  31 720.310 60.2600   1
  19  -3  31 842.990 79.1400   1
  -3 -19  31 721.800 64.9000   1
 -19  31   3 719.760 64.1300   1
  -5  -9  35 -13.770 45.0400   1
 -19  -3  31 958.210 72.9400   1
  -9  35  -5 -14.250 55.9500   1
  -9  35   5 -4.6600 56.5700   1
  -5  35   9 144.550 65.6300   1
   5  35   9 -9.6700 51.2000   1
  -9   5  35 33.3300 34.2200   1
  -5   9  35 63.6900 35.6500   1
   5   9  35 11.1800 33.8900   1
  -9  -5  35 -34.760 34.0600   1
   9   5  35 51.2800 36.4800   1
 -29  21   7 567.680 78.8500   1
 -11 -11  33 199.480 48.9500   1
  11  11  33 170.510 44.2500   1
 -11  11  33 166.980 44.0900   1
 -11  33  11 256.530 53.4000   1
 -33  11  11 202.140 59.9900   1
 -21  23  19 -16.790 34.3100   1
 -23  21  19 44.1200 48.7400   1
 -19  23  21 18.7200 32.5200   1
 -23  19  21 -1.4200 46.7300   1
 -19  21  23 -53.110 41.0400   1
 -21  19  23 34.5100 47.6600   1
 -17  31   9 485.830 54.2400   1
 -31  17   9 444.360 56.2300   1
  -9 -17  31 669.850 64.6300   1
  17   9  31 693.780 57.3000   1
 -17  -9  31 673.520 57.0700   1
   9  17  31 676.740 59.2300   1
 -21  29   7 625.310 63.3100   1
 -17   9  31 651.330 63.7200   1
   9  31  17 735.370 61.7500   1
  -9  31  17 750.780 64.4400   1
 -31   9  17 612.910 60.1400   1
 -17  31   9 680.010 63.6200   1
 -31  17   9 718.290 72.4700   1
   7  29  21 564.070 56.0200   1
  -8  28  22 69.9600 35.2900   1
   8  28  22 10.9200 41.8200   1
  -8  22  28 -2.2900 41.7100   1
 -22   8  28 -5.5700 32.5500   1
   8  22  28 18.1500 39.4900   1
  22   8  28 44.4000 50.7300   1
  -8 -22  28 85.4200 43.1000   1
 -28  22   8 -30.540 37.4700   1
 -22  28   8 -79.340 53.4600   1
 -20  26  16 -68.500 35.6200   1
 -26  16  20 12.6100 33.8300   1
 -28  22   8 -56.860 61.2900   1
 -26  20  16 -38.110 50.4300   1
 -16  20  26 -80.240 41.7500   1
 -20  16  26 -30.430 41.6400   1
  16  20  26 -19.430 38.7600   1
  20  16  26 32.0800 45.2700   1
 -28   8  22 31.4500 33.0100   1
 -22  28   8 28.1200 60.8700   1
 -16  26  20 -22.710 50.5100   1
   6  36   0 383.640 61.6500   1
  -6  36   0 464.650 79.1000   1
   0  36   6 314.320 59.7300   1
   0   6  36 494.340 54.2400   1
  -6   0  36 488.670 54.7200   1
   6   0  36 563.090 57.9100   1
   0  -6  36 517.650 50.6900   1
  -6  36   0 303.490 60.1400   1
   6  36   0 369.470 46.8000   1
   0  36   6 397.810 49.7600   1
   6  20  30 1227.86 84.2200   1
 -12  34  -6 -36.980 75.7300   1
 -34  12   6 35.1500 62.8800   1
 -12  34   6 45.7100 54.5400   1
   6  34  12 61.9600 34.9200   1
  -6  34  12 23.2400 44.6300   1
  -6  12  34 110.870 39.3200   1
 -12   6  34 72.9000 36.1500   1
   6  12  34 -2.7400 40.9800   1
 -12  -6  34 -19.990 43.1400   1
  12   6  34 109.680 51.6900   1
  -6 -12  34 81.7300 47.0000   1
  12  -6  34 -33.180 52.4200   1
   6 -12  34 20.6400 59.6900   1
  12  34   6 128.230 49.8400   1
 -12  34   6 120.620 45.1900   1
 -20  30  -6 1335.34 109.730   1
 -30  20   6 1256.59 92.8600   1
 -20  30   6 1483.41 113.830   1
 -30   6  20 1301.34 85.0200   1
  -6  30  20 1334.14 92.4300   1
   6  30  20 1255.19 89.0500   1
  -6  20  30 1204.92 82.3800   1
 -20   6  30 1244.49 81.4700   1
 -20  -6  30 1321.36 89.8400   1
  20   6  30 1305.32 86.1700   1
  -6 -20  30 1200.88 84.1100   1
 -30  20   6 964.730 78.6300   1
  -6  36  -2 278.800 62.2000   1
   6  36   2 19.8800 69.7800   1
  -6  36   2 266.180 56.7000   1
  -2  36   6 310.660 59.0400   1
   2  36   6 194.710 61.4300   1
  -6   2  36 292.450 47.8500   1
  -2   6  36 213.680 59.7900   1
   2   6  36 209.160 49.2500   1
  -6  -2  36 227.620 50.7600   1
   6   2  36 246.630 54.2400   1
  -2  -6  36 167.190 45.7300   1
   2  -6  36 194.550 55.6200   1
   6  -2  36 224.840 45.9300   1
  -6  36   2 120.670 54.3400   1
   6  36   2 186.910 61.9400   1
  -2  36   6 339.270 61.5300   1
   2  36   6 257.720 44.1800   1
  -9 -13  33 37.7800 36.4600   1
 -13  33   9 18.0300 41.7700   1
 -33   9  13 -11.460 46.2400   1
   9  33  13 14.5000 45.9300   1
 -15  -5  33 79.1800 36.6800   1
  -5  15  33 169.410 57.0800   1
 -15   5  33 155.300 48.9800   1
  -5 -15  33 105.020 56.6800   1
   5  15  33 105.630 37.7500   1
  15  -5  33 129.400 46.8900   1
 -13  -9  33 -71.350 49.8200   1
  13   9  33 -134.29 48.2700   1
   9  13  33 -28.540 46.1600   1
  -9  13  33 -21.040 43.0800   1
 -13   9  33 -25.550 33.1700   1
  15   5  33 119.310 40.7200   1
 -23  27   9 84.0400 58.2000   1
 -27  23   9 -3.0100 60.7800   1
 -23  27   9 220.160 67.3200   1
 -33  13   9 -53.370 42.2900   1
 -13  33   9 16.4500 50.5400   1
 -27  23   9 42.3900 47.1600   1
 -27  13  21 20.6200 33.0600   1
 -13 -21  27 161.590 54.0500   1
 -27  21  13 136.350 58.0800   1
  13  21  27 138.910 51.6100   1
 -23   9  27 133.720 39.3700   1
  13  27  21 120.960 44.0700   1
  -9  27  23 69.1100 44.6700   1
  -9  23  27 13.9100 48.4500   1
 -33  15   5 159.610 69.4500   1
 -15  33  -5 151.890 80.6100   1
 -27   9  23 115.690 37.8100   1
 -21  27  13 207.940 64.2500   1
  21  13  27 200.310 57.7300   1
 -15  33   5 44.6000 58.4500   1
 -13  27  21 76.1800 45.2900   1
  -5  33  15 69.7100 37.5000   1
 -21  13  27 80.9500 43.9800   1
 -13  21  27 155.090 49.2700   1
   5  33  15 144.420 48.1200   1
 -15  33   5 53.7300 68.3200   1
 -27  21  13 85.9500 42.2400   1
  -9 -23  27 75.7800 51.7700   1
  23   9  27 146.580 43.4200   1
   9  23  27 55.0100 41.6700   1
   9  27  23 134.380 44.7300   1
 -16  32   8 262.530 55.6900   1
 -32  16   8 632.030 78.5400   1
  -8 -16  32 559.180 61.0300   1
  16   8  32 476.980 48.5800   1
 -16  -8  32 468.580 59.5800   1
  -8  32  16 495.750 61.7500   1
   8  16  32 433.470 45.5600   1
 -16   8  32 541.150 54.8000   1
  -8  16  32 532.760 48.4100   1
   8  32  16 606.910 61.1700   1
 -32   8  16 489.430 61.2300   1
 -16  32   8 573.350 60.3400   1
  -1  35  11 1181.30 82.4400   1
 -11  35   1 1184.97 93.7300   1
 -11  35  -1 1523.06 119.720   1
 -35  11   1 1250.98 104.990   1
   5  19  31 1377.22 89.7800   1
 -19  25  19 137.610 41.8600   1
 -19   5  31 1395.73 88.2400   1
  -5  19  31 1525.63 97.6100   1
   5  31  19 1506.02 100.790   1
  -5  31  19 1560.04 103.230   1
 -31  19   5 1682.41 126.840   1
 -19  31  -5 1463.74 130.520   1
 -19  31   5 1477.91 104.350   1
 -11  35   1 947.290 78.7800   1
 -23  17  23 224.550 42.9500   1
 -17  23  23 247.830 51.7100   1
 -23  23  17 181.170 54.1500   1
 -11   1  35 1177.50 83.2200   1
  -1  11  35 1298.05 91.2700   1
   1  35  11 1245.75 84.4300   1
  11  35   1 897.900 68.2300   1
 -11  35  -1 1034.20 77.5900   1
   1 -11  35 1190.67 82.2100   1
 -19  19  25 180.570 55.9700   1
  11  -1  35 1125.18 82.4600   1
  11   1  35 1258.83 83.5800   1
 -11  -1  35 1157.61 81.4000   1
   1  11  35 1144.98 76.3300   1
  19  19  25 183.150 49.6700   1
 -19  31   5 1250.45 86.6600   1
  -5 -19  31 1434.85 99.5400   1
  19   5  31 1498.98 99.2600   1
 -19  -5  31 1419.84 90.9600   1
 -25  19  19 85.8100 37.4100   1
  -1 -11  35 1034.78 74.0900   1
   4   6  36 -56.140 49.0100   1
 -24  24  14 1354.29 94.3200   1
 -14  24  24 1302.41 84.4600   1
 -24  14  24 1295.95 87.5100   1
  14  24  24 1239.42 83.2800   1
 -18  32   0 228.780 55.0100   1
   4  -6  36 -21.330 47.4900   1
  -6  36  -4 74.7700 72.0900   1
   4  36   6 32.3300 38.5800   1
 -32  18   0 171.660 77.4900   1
 -18  32   0 69.1700 72.1200   1
   0  32  18 140.890 47.0600   1
   0  18  32 139.580 48.3700   1
 -18   0  32 218.740 54.5800   1
  18   0  32 249.270 42.9400   1
  -4  36   6 59.9900 41.0600   1
   6  36   4 -61.790 36.5800   1
  -6  36   4 40.0700 51.0000   1
   6  -4  36 18.0400 53.6600   1
  -4  -6  36 154.030 51.3100   1
  -6  -4  36 21.0300 34.9000   1
   6   4  36 -69.020 42.3800   1
  -6   4  36 -3.7600 34.0300   1
   4  36   6 0.11000 41.0200   1
  -4  36   6 87.6200 56.6700   1
  -6  36   4 -32.630 63.1100   1
   6  36   4 12.0300 54.1800   1
 -14  30  16 338.430 56.3400   1
  24  10  26 691.820 58.3600   1
  10  24  26 732.450 56.8400   1
  10  26  24 821.770 64.7800   1
   0  26  26 822.090 69.0000   1
 -24  26  10 621.860 60.9200   1
 -26   0  26 956.870 77.9500   1
 -26  24  10 681.440 69.8500   1
 -10  26  24 692.660 61.6000   1
 -10  24  26 868.300 68.7100   1
 -24  10  26 757.240 63.5300   1
 -14   0  34 701.960 65.8200   1
 -26  10  24 724.180 57.6400   1
 -26  26   0 715.340 99.0700   1
 -26  24  10 542.720 54.7300   1
 -30  16  14 197.340 47.8600   1
 -32  18  -2 454.570 81.9100   1
 -32  18   2 400.710 86.5700   1
 -18  32  -2 481.630 72.0500   1
 -18  32   2 276.290 82.3400   1
   2  32  18 346.880 42.0800   1
  -2  32  18 274.260 40.3100   1
  -2  18  32 243.460 46.1400   1
 -18   2  32 292.190 40.8100   1
   2  18  32 321.900 41.2700   1
 -18  -2  32 323.600 54.1400   1
  18   2  32 395.720 55.3800   1
 -14  34   0 603.570 56.9500   1
  -2 -18  32 363.830 50.8500   1
 -18  32   2 275.530 46.9000   1
 -24  26  10 643.600 65.1100   1
 -10 -24  26 630.760 73.5000   1
 -14 -16  30 187.100 59.5500   1
 -16 -14  30 257.540 54.6900   1
  26   0  26 863.190 68.4500   1
 -30  16  14 236.060 41.7300   1
 -30  14  16 263.810 41.7300   1
   0 -14  34 723.640 70.1200   1
  14   0  34 821.050 75.2200   1
  16  14  30 197.980 47.1400   1
  14  16  30 170.360 55.3100   1
 -14  16  30 175.120 49.7700   1
 -16  14  30 248.870 50.2400   1
 -16  30  14 241.440 51.3100   1
   0  14  34 704.730 56.7300   1
   0  34  14 643.980 60.9100   1
 -14  34   0 781.010 96.4600   1
 -34  14   0 791.360 82.8600   1
  18  -2  32 305.850 47.2600   1
  -7  35   9 -40.840 56.8500   1
  -9  35   7 56.6400 41.4500   1
   7  -9  35 84.0900 43.6100   1
   9  -7  35 61.7700 42.0900   1
  -7  -9  35 -12.480 35.4200   1
  -9  -7  35 3.54000 43.0600   1
   9   7  35 58.4400 43.6400   1
   7   9  35 32.1900 42.7800   1
  -9   7  35 90.3600 44.5300   1
  -7   9  35 33.8700 43.0200   1
  -7  35   9 49.9400 39.9900   1
   7  35   9 106.480 50.8900   1
  -9  35   7 146.080 58.7500   1
 -21  25  17 56.5600 37.7000   1
 -25  21  17 -15.250 35.2200   1
 -25  17  21 -64.360 41.5300   1
 -17  25  21 52.7200 49.0400   1
 -29  15  17 466.050 49.1100   1
 -17  21  25 14.4500 43.1600   1
 -21  17  25 -2.2200 33.4400   1
  17  21  25 34.7400 31.3400   1
 -13 -15  31 65.4500 45.9600   1
 -15 -13  31 68.4200 37.1400   1
  15  13  31 113.540 51.3900   1
   1  25  27 584.790 55.9800   1
  25   1  27 593.750 56.5300   1
  13  15  31 42.4600 34.5300   1
 -13  15  31 6.24000 32.2300   1
 -15  13  31 -27.520 40.2900   1
 -13  31  15 25.1800 37.7600   1
 -31  13  15 84.1000 46.5400   1
 -31  15  13 -36.770 45.8300   1
  27   1  25 509.570 52.3000   1
  25  -1  27 581.830 64.1400   1
   3  11  35 651.900 114.640   1
 -11   3  35 639.580 54.5500   1
  -3  11  35 622.080 53.2400   1
   3  35  11 770.550 72.0800   1
  -3  35  11 601.430 61.3600   1
 -11  35   3 728.590 71.3900   1
 -11  35  -3 626.390 85.6900   1
 -35  11   3 702.390 87.1900   1
  11  35   3 601.900 61.5400   1
 -11  35   3 499.380 62.9600   1
   3 -11  35 652.000 59.1000   1
  11  -3  35 701.420 66.8600   1
  -3 -11  35 693.970 59.2000   1
  11   3  35 622.290 54.5900   1
 -11  -3  35 575.330 51.9600   1
  -1  25  27 637.450 52.8600   1
  -1  27  25 701.510 61.2700   1
 -27   1  25 745.270 62.4500   1
   1  27  25 651.820 59.0100   1
 -25  27   1 776.960 96.1300   1
 -27  25   1 504.690 82.9600   1
 -27  25  -1 385.790 90.5700   1
 -25  27  -1 730.550 92.3700   1
 -29  17  15 357.940 46.5500   1
 -15 -17  29 407.540 47.5800   1
  17  15  29 397.280 49.5900   1
  15  17  29 441.890 50.7500   1
 -15  17  29 357.560 48.3400   1
 -17  15  29 515.090 53.9400   1
 -15  29  17 375.910 44.9900   1
 -17  29  15 337.900 44.6800   1
 -25   1  27 828.160 69.0000   1
 -29  17  15 535.360 58.9700   1
 -10  34  10 114.110 52.2000   1
 -34  10  10 189.780 53.8800   1
 -14  34   2 280.170 48.2600   1
  -2  26  26 652.270 62.6700   1
 -26   2  26 576.850 50.6100   1
 -26  26   2 507.910 80.2100   1
  14   2  34 371.850 58.8400   1
  14  -2  34 327.210 54.9400   1
 -14  -2  34 356.570 49.7800   1
 -26  26  -2 586.370 88.4200   1
 -14   2  34 373.900 43.7300   1
  -2 -14  34 331.350 47.0200   1
   2 -14  34 440.480 53.0800   1
  -2  14  34 410.310 57.4800   1
 -14  34   2 277.580 80.1800   1
 -14  34  -2 460.400 70.3400   1
 -34  14   2 437.860 87.2700   1
 -10  10  34 225.400 50.0600   1
  22  14  26 421.600 52.0100   1
  14  26  22 461.350 45.6000   1
  14  22  26 449.910 45.3200   1
  10  10  34 113.450 39.7400   1
  10 -10  34 140.830 49.5400   1
 -22  14  26 425.430 51.2400   1
 -14  22  26 378.590 43.4600   1
 -14  26  22 358.140 44.0800   1
   2  14  34 326.880 53.7700   1
   2  34  14 310.760 49.4800   1
  -2  34  14 411.790 52.1300   1
 -10 -10  34 155.900 51.4400   1
 -26  14  22 452.170 53.0500   1
 -26  22  14 544.130 60.8600   1
 -22  26  14 438.400 59.0800   1
  26   2  26 593.700 62.6500   1
   2  26  26 565.700 59.3300   1
   0  -8  36 646.050 56.5100   1
  24   0  28 305.730 45.0300   1
 -24   0  28 348.620 41.7700   1
   0  24  28 285.300 38.6700   1
   0  28  24 250.440 38.2100   1
  -8  36   0 618.980 57.8400   1
 -24  28   0 155.140 65.3200   1
   8  36   0 553.270 53.6400   1
   0  36   8 505.850 53.9100   1
 -28  24   0 382.080 86.6600   1
  -8  36   0 689.860 87.2600   1
   0  36   8 769.320 71.9900   1
   0   8  36 692.420 65.4700   1
  -8   0  36 684.360 56.4000   1
   8   0  36 523.200 58.0600   1
  -7  33  15 72.3800 51.8800   1
 -29  21   9 55.9500 55.4300   1
   7  33  15 132.400 51.7400   1
 -21  29   9 52.7100 56.3000   1
 -29   9  21 248.840 45.3300   1
  -9  29  21 134.610 41.5800   1
   9  29  21 161.160 48.0200   1
 -29  21   9 134.360 57.9000   1
 -21  29   9 164.580 48.6800   1
  -7  15  33 24.1900 48.7100   1
 -15   7  33 94.5200 38.2600   1
   7  15  33 110.040 38.3500   1
 -15  33   7 195.620 64.8900   1
 -33  15   7 79.5000 58.8000   1
  -7 -15  33 67.0900 40.0900   1
 -27  25  -3 321.400 83.1500   1
 -25  27  -3 319.920 67.5400   1
 -27  25   3 437.660 73.7300   1
 -25  27   3 211.750 82.3100   1
  -3  27  25 391.840 49.9200   1
 -15  33   7 63.6400 50.9900   1
  15  -7  33 107.710 60.2800   1
 -15  -7  33 175.120 45.9000   1
  -9  21  29 84.2400 44.6200   1
 -21   9  29 195.340 46.4400   1
   9  21  29 170.360 43.8000   1
  21   9  29 215.130 57.1200   1
  -9 -21  29 109.600 52.7800   1
  15   7  33 41.5300 44.5400   1
  -3  25  27 299.950 40.1400   1
 -27   3  25 288.330 45.8800   1
   3  27  25 292.490 49.7300   1
 -25   3  27 328.090 47.2900   1
   3  25  27 216.840 53.4200   1
  25   3  27 205.550 58.2400   1
  27   3  25 216.880 52.5400   1
 -25  27   3 193.440 65.2400   1
 -27  25   3 245.580 44.5300   1
 -28  16  18 543.040 52.1900   1
   2  28  24 110.110 44.7100   1
 -28   2  24 175.880 38.2000   1
 -24  28   2 203.740 69.1800   1
 -28  24   2 60.4300 67.5700   1
 -24  28  -2 308.640 66.1500   1
 -28  24  -2 139.490 75.8100   1
  18  16  28 541.330 59.8900   1
  -2   8  36 475.990 54.5000   1
 -12  34   8 136.830 48.2700   1
 -18  32   4 676.180 69.7600   1
  18  -4  32 893.170 82.2500   1
  -4 -18  32 1101.73 91.1700   1
  18   4  32 749.380 67.9100   1
 -18  -4  32 942.880 74.0900   1
   4  18  32 913.160 71.9600   1
 -18   4  32 878.020 67.3300   1
  -4  18  32 807.480 67.7800   1
   4  32  18 977.790 78.6200   1
 -34  12   8 129.340 60.4400   1
   8  34  12 153.200 86.3400   1
 -28  18  16 522.500 56.9200   1
 -18  28  16 515.090 63.8200   1
  -4  32  18 857.240 74.4900   1
 -18  32   4 919.960 95.2600   1
 -32  18   4 921.800 86.1200   1
 -18  32  -4 778.250 85.8200   1
  -8  36  -2 432.350 52.7400   1
 -24   2  28 127.650 44.2900   1
 -20  -8  30 791.050 68.2600   1
 -30  20   8 844.190 76.1900   1
 -20  30   8 718.560 74.4000   1
  20   8  30 746.170 62.3600   1
  -8 -20  30 866.010 70.6300   1
 -30  20   8 618.170 64.0600   1
 -20  30   8 602.910 58.3000   1
  -2  36   8 342.360 62.2800   1
   2  36   8 338.540 48.0100   1
 -20   8  30 812.640 62.3700   1
   8  36   2 319.630 45.9900   1
  -8  36   2 348.330 49.5500   1
   2  -8  36 387.400 48.6700   1
 -32  14  12 -20.060 38.0000   1
 -32  12  14 43.6000 46.3100   1
  -8  34  12 31.1300 37.2700   1
 -12   8  34 28.0100 48.4000   1
 -16  18  28 485.430 47.6100   1
  16  18  28 511.560 54.2200   1
  -8  12  34 150.020 48.5500   1
   8  12  34 135.220 52.0400   1
 -12  32  14 90.1300 40.0500   1
 -12  14  32 -28.710 41.4100   1
 -12  -8  34 119.650 54.7200   1
 -30   8  20 811.110 62.0800   1
  12   8  34 158.090 53.4100   1
 -14  12  32 46.0500 32.7900   1
  12  14  32 74.1500 41.5100   1
  14  12  32 -17.680 34.1800   1
 -14 -12  32 84.0600 46.1400   1
 -12 -14  32 23.6100 37.1800   1
 -24  28   2 155.810 53.2000   1
  24  -2  28 153.990 48.2300   1
  28   2  24 207.520 50.9100   1
  24   2  28 114.710 50.3300   1
 -24  -2  28 224.420 44.2100   1
   2  24  28 119.380 36.5000   1
  -2  24  28 272.930 45.2200   1
  -2  28  24 200.610 37.7500   1
  -2  -8  36 416.540 46.3700   1
   8  -2  36 465.640 57.1300   1
   8   2  36 386.950 46.4800   1
  -8  -2  36 395.720 51.7700   1
   2   8  36 473.440 48.1500   1
  -8   2  36 457.010 58.4200   1
   8  20  30 902.570 75.8100   1
   2  36   8 385.520 56.4100   1
  -2  36   8 511.950 55.9000   1
  -8  36   2 390.680 60.1800   1
  -8  36  -2 497.790 80.8300   1
  -8 -12  34 94.9900 48.5800   1
  12  -8  34 122.500 49.1800   1
   8 -12  34 124.200 49.7100   1
 -18  16  28 551.800 51.2500   1
 -12  34   8 144.260 54.8800   1
  12  34   8 40.4900 53.7700   1
 -16  28  18 548.670 58.6500   1
  -8  30  20 844.490 69.8300   1
   8  30  20 731.860 63.2700   1
  -8  20  30 777.930 61.7400   1
  14  34   4 54.4900 44.7300   1
 -14  34   4 144.580 45.7600   1
 -22  28  10 0.65000 38.6800   1
 -26  26  -4 150.060 65.5000   1
 -26  26   4 353.110 69.3900   1
 -28  22  10 72.6000 46.3000   1
 -22  28  10 20.2900 42.7000   1
   4  34  14 112.750 43.8900   1
 -22  20  22 71.2500 47.9800   1
 -20  22  22 8.41000 42.8600   1
 -22  22  20 40.4900 42.7900   1
 -28  22  10 41.5600 53.3900   1
 -26  26   4 118.880 48.3500   1
 -34  14   4 119.060 55.5000   1
 -14  34   4 103.060 71.8800   1
 -14  34  -4 156.580 63.3800   1
  -4  34  14 191.740 39.3500   1
 -22  10  28 71.8500 33.6700   1
  18  12  30 321.720 56.0300   1
 -12 -18  30 311.130 52.2600   1
 -30  18  12 187.700 53.2800   1
 -28  10  22 -2.6900 46.2300   1
  -6   6  36 43.1400 48.4400   1
   6   6  36 19.3600 35.6600   1
  -6  -6  36 22.3800 43.9500   1
   6  -6  36 31.4500 38.8900   1
   6  36   6 24.7700 50.2300   1
   6  36   6 70.2100 54.4400   1
 -26   4  26 226.870 45.1200   1
 -10  28  22 46.2000 49.4300   1
  -4  26  26 259.250 40.0000   1
   4  26  26 158.710 44.4200   1
  26   4  26 213.330 50.3700   1
  10  28  22 -75.980 38.2200   1
 -14   4  34 8.61000 34.3300   1
  -6  36   6 -108.32 62.9500   1
 -10  22  28 -102.46 47.8600   1
 -10 -22  28 -38.720 55.8100   1
 -12  18  30 176.910 39.6800   1
  12  18  30 335.590 41.7300   1
  -6  36   6 -12.560 48.9700   1
  22  10  28 -47.270 35.0800   1
 -18  12  30 293.740 46.5200   1
 -12  30  18 232.130 40.1900   1
  10  22  28 4.99000 31.8800   1
  -4  14  34 151.890 47.6700   1
 -30  12  18 299.760 48.3800   1
 -18  30  12 361.080 49.7700   1
 -18 -12  30 284.340 42.2100   1
  14   4  34 110.450 52.4900   1
 -14  -4  34 44.1500 35.3300   1
   4  14  34 36.8700 34.3500   1
 -30  18  12 349.960 63.1100   1
  14  -4  34 204.930 44.7900   1
   4 -14  34 94.5800 45.6000   1
  -4 -14  34 43.4100 40.0500   1
 -19  29  13 94.7700 49.8800   1
 -29  13  19 203.550 44.5800   1
 -13  29  19 227.320 48.3000   1
 -19  13  29 255.460 51.1600   1
  13  19  29 143.790 37.7700   1
  19  13  29 244.170 39.8500   1
 -13 -19  29 227.710 42.4100   1
 -29  19  13 85.4100 45.9700   1
   1  37  -1 1339.99 113.420   1
  -1  37  -1 1412.13 128.400   1
  -1  37   1 1779.96 157.500   1
   1  37   1 1579.37 136.670   1
  -1   1  37 1502.28 117.150   1
   1   1  37 1275.20 90.6100   1
  -1  -1  37 1268.39 86.9600   1
 -11  35   5 177.250 46.3000   1
  11  35   5 167.110 42.6100   1
   1  -1  37 1359.90 92.0100   1
  -1  37  -1 1419.56 117.300   1
  -1  37   1 1143.64 84.7600   1
   1  37   1 1056.78 80.6200   1
   5 -11  35 211.060 62.1100   1
  11  -5  35 217.490 53.7300   1
  -5 -11  35 186.760 48.9600   1
  11   5  35 298.210 41.8600   1
 -11  -5  35 225.560 40.4200   1
   5  11  35 370.370 43.9300   1
 -11   5  35 210.290 45.4500   1
  -5  11  35 279.300 40.8700   1
   5  35  11 175.020 41.5800   1
  -5  35  11 196.600 49.5600   1
 -11  35   5 180.110 49.2700   1
 -35  11   5 77.0600 77.2700   1
 -11  35  -5 158.160 62.8100   1
 -29  19  13 170.540 52.3500   1
 -19  31   7 948.360 74.5400   1
  -7 -19  31 1407.18 105.080   1
  19   7  31 1292.86 88.9800   1
 -19  -7  31 1272.51 91.7700   1
   7  19  31 1158.84 80.2600   1
 -19   7  31 1265.82 85.8300   1
  -7  19  31 1383.62 97.8000   1
   7  31  19 1432.86 113.830   1
  -7  31  19 1306.20 95.5700   1
 -31   7  19 1327.59 90.7500   1
 -19  31   7 1366.52 100.050   1
 -31  19   7 1147.98 96.7600   1
 -17  31  11 290.740 56.1000   1
 -31  17  11 198.470 40.1400   1
 -11 -17  31 180.390 49.9400   1
  17  11  31 310.190 42.5500   1
 -17 -11  31 245.710 41.0900   1
  11  17  31 286.590 51.8100   1
 -11  17  31 194.870 49.2300   1
 -17  11  31 233.600 37.9300   1
 -11  31  17 222.810 39.9200   1
 -31  11  17 283.980 41.1600   1
 -17  31  11 304.410 63.0000   1
 -31  17  11 224.360 46.7500   1
 -25  25  11 1456.89 112.300   1
 -11  25  25 1311.65 88.5600   1
 -25  11  25 1359.90 94.4700   1
  11  25  25 1584.62 120.450   1
 -29  23  -1 5.52000 72.4500   1
 -29  23   1 5.12000 78.0700   1
 -23  29  -1 143.080 62.1000   1
 -23  29   1 -66.720 55.1400   1
   1  29  23 62.4500 33.7300   1
  -1  29  23 25.3900 32.8600   1
  -1  23  29 -33.470 50.8200   1
 -23   1  29 62.7700 40.7900   1
 -23  -1  29 5.49000 46.3900   1
  23   1  29 28.2700 38.1800   1
  23  -1  29 2.25000 48.0800   1
  29   1  23 5.50000 38.5800   1
 -31  19   7 945.260 84.1000   1
   1  37  -1 1265.32 100.960   1
   4  28  24 26.1000 40.3500   1
 -24  28   4 69.1800 47.9500   1
 -20  24  20 -43.690 33.3100   1
 -28  24  -4 -97.150 61.4200   1
 -24  28  -4 12.8500 62.9700   1
 -28  24   4 3.02000 62.6500   1
 -24  28   4 34.6500 51.4400   1
 -28   4  24 42.1300 39.6700   1
  -4  28  24 55.9600 34.8300   1
  -4  24  28 39.3700 41.1300   1
 -24   4  28 122.460 49.0600   1
   4  24  28 -43.300 31.4900   1
 -24  20  20 12.0100 42.6600   1
 -20  20  24 -56.250 46.6600   1
  -4  36   8 82.5500 41.7400   1
   8  -4  36 -12.910 48.0500   1
  -4  -8  36 125.990 39.9300   1
   8   4  36 138.140 39.9900   1
  -8  -4  36 55.0200 50.4800   1
   4   8  36 185.920 52.4000   1
  -4   8  36 124.350 37.2300   1
  -8   4  36 117.470 38.0200   1
  -4  36   8 71.1400 43.0600   1
   4  36   8 86.0100 51.5500   1
  -8  36   4 164.930 61.3400   1
  -8  36  -4 116.850 59.5600   1
   4  36   8 126.950 41.8500   1
  24   4  28 32.9700 51.0400   1
  28   4  24 -2.8300 46.1200   1
  -8  36   4 83.7200 43.0400   1
   8  36   4 82.8200 54.1000   1
   4  -8  36 54.5200 54.6100   1
 -28  24   4 78.3500 55.0300   1
   3  37  -1 824.860 99.5300   1
  -1  37  -3 942.290 88.9400   1
  -1  37   3 714.270 63.4000   1
   1  37   3 579.580 57.2700   1
   3  37   1 749.220 71.7000   1
   1  37  -3 775.960 86.6900   1
  -3  37   1 680.280 62.6200   1
   3  37  -1 790.310 67.0900   1
  -3  37  -1 904.870 83.7100   1
 -17  33   1 -19.080 73.0100   1
 -17  33  -1 31.6000 122.290   1
 -33  17  -1 -92.680 69.9800   1
 -23  29   3 -74.000 47.2000   1
 -17  33   1 15.8700 56.5600   1
 -23  29   3 20.7000 50.1200   1
 -29  23   3 -84.980 75.4700   1
  -1  37   3 737.330 73.6000   1
 -23  29  -3 -72.910 75.6900   1
   1  37   3 817.460 95.5200   1
 -27  19  17 313.940 43.6300   1
 -19  27  17 425.190 54.7600   1
 -27  17  19 306.720 41.7600   1
 -17  27  19 214.930 53.8600   1
 -29  23  -3 -15.200 59.7100   1
   1  33  17 -32.730 33.6700   1
  -1  33  17 -67.510 41.3700   1
 -33  17   1 73.3900 71.0200   1
  -3  37   1 905.420 84.9100   1
  -3  37  -1 945.530 110.090   1
   3  37   1 935.340 107.880   1
 -25  15  23 605.780 54.2100   1
 -15  25  23 695.380 58.2000   1
   1  -3  37 735.220 66.5100   1
   3  -1  37 908.750 77.8200   1
  -1  -3  37 768.110 72.5200   1
   3   1  37 709.870 59.7900   1
  -3  -1  37 806.980 63.9700   1
  -1   3  37 836.000 65.3600   1
  -3   1  37 786.510 68.4300   1
   1   3  37 619.340 61.1300   1
 -17  19  27 403.200 45.5500   1
 -19  17  27 324.340 41.8300   1
  17  19  27 350.660 48.8700   1
  19  17  27 249.470 39.0200   1
 -27  11  23 461.770 58.5100   1
 -11  27  23 658.570 56.8800   1
 -27  23  11 317.340 53.9300   1
 -23  27  11 344.800 48.0300   1
 -23  27  11 614.750 67.5300   1
   1 -17  33 15.8400 42.2900   1
 -15  23  25 610.800 54.4600   1
  -1 -17  33 -39.580 41.5700   1
  17  -1  33 -52.130 39.0000   1
  17   1  33 -4.7300 37.8300   1
 -17  -1  33 54.0500 34.7200   1
 -17   1  33 101.160 36.3800   1
 -25  27   5 89.7200 57.2100   1
 -27  25   5 107.970 40.3800   1
  27   5  25 94.7700 45.8400   1
  29   3  23 23.1400 45.5700   1
  23   3  29 -25.400 53.4800   1
 -23  -3  29 29.4600 39.9000   1
   3  23  29 -62.760 45.4900   1
  -3  23  29 -7.0200 32.7900   1
 -23   3  29 -27.150 40.0400   1
   3  29  23 9.06000 45.9400   1
  -3  29  23 39.4500 34.4600   1
 -27  23  11 486.200 55.9100   1
 -25  23  15 619.890 62.8000   1
 -23  25  15 564.760 62.4500   1
 -33  13  11 171.720 55.4400   1
 -33  11  13 212.570 58.1100   1
 -13  33  11 78.1900 50.5500   1
 -11  33  13 203.300 41.5400   1
 -13  11  33 58.8800 47.9800   1
 -11  13  33 225.130 39.3400   1
  11  13  33 230.250 50.7700   1
  13  11  33 201.860 38.7700   1
 -13 -11  33 273.070 54.5600   1
 -11 -13  33 225.760 40.6400   1
  11  23  27 466.200 52.5200   1
   1  17  33 -11.160 33.8000   1
  -1  17  33 69.5900 42.5400   1
 -23  15  25 570.000 62.7900   1
  11  27  23 492.740 52.3300   1
  15  23  25 554.240 55.4300   1
   5  25  27 93.0800 33.9400   1
  -5  25  27 69.6900 42.2400   1
 -25   5  27 76.2200 34.2300   1
   5  27  25 156.790 43.8800   1
  -5  27  25 73.8200 47.3300   1
 -27   5  25 155.490 44.4100   1
 -25  27   5 54.2900 70.5300   1
 -27  25   5 -88.410 62.1500   1
 -25  27  -5 54.4000 65.1400   1
 -27  25  -5 39.2600 63.3600   1
  15  25  23 594.110 56.4900   1
 -11  23  27 462.640 47.7400   1
 -23  11  27 521.710 50.2300   1
  23  11  27 551.760 58.4700   1
 -11 -23  27 536.840 69.8900   1
  25   5  27 101.550 53.9400   1
  16  10  32 103.820 37.7200   1
 -10 -16  32 79.0900 38.8200   1
 -16  32  10 105.390 52.5900   1
  20  14  28 76.0100 35.4700   1
  14  20  28 -18.700 31.8200   1
 -28  20  14 38.7800 37.1700   1
 -20  28  14 23.6900 48.4300   1
 -28  20  14 128.020 50.3700   1
 -28  14  20 -47.200 42.1000   1
 -14  28  20 22.7300 44.4600   1
 -20  14  28 12.6300 46.8800   1
 -14  20  28 130.760 50.0200   1
 -32  16  10 63.1500 53.5500   1
 -16  32  10 40.1200 41.8500   1
 -32  10  16 88.9200 37.4000   1
 -10  32  16 27.3000 51.4900   1
  10  32  16 96.9000 33.4200   1
 -10  16  32 130.470 38.0000   1
 -16  10  32 99.8400 35.5500   1
  10  16  32 146.980 38.2100   1
 -16 -10  32 94.6500 51.4700   1
 -22   0  30 -40.330 39.8900   1
  -6 -18  32 1118.13 82.7900   1
  18   6  32 1117.28 80.0200   1
 -18  -6  32 1094.47 82.9100   1
   6  18  32 1111.53 81.3000   1
  -6  18  32 1209.84 82.5800   1
  18  -6  32 1036.95 82.8600   1
  22   0  30 -41.540 54.9900   1
 -30  22   0 -16.210 56.3300   1
 -18   6  32 1145.36 83.5000   1
   0  22  30 23.2200 32.7000   1
   0  30  22 29.0400 32.9700   1
 -22  30   0 194.810 86.2200   1
 -18  22  24 -40.350 47.0200   1
 -22  18  24 18.8900 33.7700   1
 -24  22  18 146.540 53.4300   1
 -22  24  18 90.4000 37.0300   1
 -18  24  22 93.5100 49.8700   1
 -24  18  22 52.3200 34.9400   1
  -6  32  18 1137.88 87.1800   1
 -18  32   6 1103.60 95.6200   1
   6  32  18 1131.30 88.3700   1
 -18  32   6 868.190 81.7800   1
 -18  32  -6 1037.38 113.920   1
 -32  18   6 1170.70 93.8600   1
  -9  35   9 83.8000 58.1300   1
 -17  33  -3 53.1100 88.7900   1
 -33  17   3 35.7100 54.2100   1
 -17  33   3 128.830 66.7000   1
  -9  35   9 84.1400 57.1800   1
  -3  37   3 234.310 44.6600   1
  -3  37   3 494.330 80.4600   1
   3  37   3 319.440 76.4400   1
  -3  37  -3 434.870 68.9500   1
 -17  33   3 75.2900 51.7900   1
   3  37   3 324.250 47.4800   1
   3  33  17 170.200 46.8100   1
  -3  33  17 123.040 37.7100   1
  17  -3  33 179.590 45.0300   1
  -3 -17  33 124.250 54.0100   1
   3  17  33 132.810 45.5500   1
  17   3  33 145.440 41.8200   1
 -17  -3  33 88.9100 36.3700   1
   9  -9  35 132.140 45.1600   1
   9   9  35 92.6800 50.8900   1
  -9  -9  35 185.670 47.7300   1
   3  -3  37 417.590 47.8400   1
 -17   3  33 85.5700 43.5700   1
   3   3  37 359.750 51.6800   1
  -3   3  37 440.880 47.0600   1
  -3  17  33 122.590 38.4600   1
  -9   9  35 99.8700 44.1100   1
  -3  -3  37 334.390 57.1200   1
  14   6  34 -21.150 44.2100   1
  -6 -14  34 0.15000 46.8500   1
  14  -6  34 -46.340 62.1000   1
 -14  34   6 17.3200 49.4700   1
  14  34   6 -7.6700 44.2000   1
 -22  30  -2 295.140 77.4200   1
 -30  22   2 159.780 72.7000   1
 -22  30   2 -19.330 73.8200   1
  -2  30  22 -8.3100 33.1500   1
   2  30  22 44.3200 40.7400   1
 -22  30   2 60.7200 52.7300   1
  22  -2  30 21.6400 49.0900   1
  30   2  22 137.010 55.2100   1
 -22  -2  30 190.120 45.3000   1
   2  22  30 95.7700 34.6500   1
  22   2  30 82.6200 48.4400   1
  -2  22  30 79.2100 48.8300   1
 -26  26   6 111.870 50.4300   1
  26   6  26 69.0400 38.0000   1
   6  26  26 45.8800 32.2800   1
  -6  26  26 88.9700 35.6200   1
 -26   6  26 68.2000 41.0200   1
 -26  26   6 196.940 69.8100   1
 -14  34  -6 -172.61 85.6400   1
 -34  14   6 73.2300 72.4300   1
 -14  34   6 77.4900 67.4600   1
  -6  34  14 -3.3100 44.3900   1
   6  34  14 25.9200 40.3800   1
 -14   6  34 -42.730 47.0200   1
  -6  14  34 -63.140 33.2800   1
 -30  22  -2 142.160 62.2100   1
 -22   2  30 95.3100 34.9200   1
   6  14  34 3.79000 34.6500   1
 -14  -6  34 8.95000 34.6900   1
  11  35   7 129.260 49.6600   1
 -11  35   7 211.290 45.6600   1
   7 -11  35 153.980 47.2600   1
  11  -7  35 211.900 46.9800   1
  -7 -11  35 194.900 40.7400   1
  11   7  35 266.990 48.1600   1
 -11  -7  35 137.180 46.9400   1
   7  11  35 158.470 42.0800   1
 -11   7  35 171.280 39.9200   1
  -7  11  35 185.180 37.9900   1
  -7  35  11 165.220 42.7600   1
  13   1  35 1210.04 89.0200   1
 -13  -1  35 1368.76 92.0500   1
 -33  15   9 13.1200 43.9700   1
 -15  33   9 46.6900 42.5000   1
 -33   9  15 -112.82 35.2900   1
  -9  33  15 -53.650 51.0300   1
   9  33  15 -7.5400 32.4200   1
 -15   9  33 -38.400 47.1000   1
   9  15  33 23.6000 34.0900   1
 -15  -9  33 68.3400 36.0400   1
  15   9  33 15.2100 34.6000   1
  -9 -15  33 -27.570 37.0200   1
 -35  13   1 1321.26 114.100   1
 -13  35  -1 1273.39 113.150   1
 -13  35   1 1332.33 118.950   1
 -23  29  -5 -0.7300 89.5300   1
  -1  35  13 1284.82 92.8800   1
  -1  13  35 1295.90 94.6100   1
   1  13  35 1242.98 84.8700   1
 -13   1  35 1178.88 89.5700   1
 -23  -5  29 97.4400 35.7100   1
  23   5  29 163.690 50.2100   1
 -29  23   5 72.8900 40.1600   1
 -27  21  15 -50.510 52.2100   1
 -29  23   5 98.6500 70.0500   1
 -23  29   5 150.240 61.6800   1
 -29   5  23 98.6100 34.7600   1
 -13  35  -1 999.400 86.1500   1
   1 -13  35 1063.16 80.2900   1
  -1 -13  35 1216.91 86.6900   1
  13  -1  35 1468.22 117.580   1
  -5  29  23 44.0000 33.6300   1
   5  29  23 59.5400 33.7200   1
 -23   5  29 135.670 43.9800   1
  -5  23  29 74.9200 47.6500   1
   5  23  29 115.690 48.5600   1
   1  35  13 1416.00 112.190   1
 -23  29   5 44.6400 49.1500   1
 -35  11   7 150.060 54.4400   1
 -11  35   7 230.380 47.9900   1
   7  35  11 176.210 49.2400   1
 -13  35   1 938.450 81.3600   1
  21  15  27 38.6500 41.6000   1
 -21  15  27 -21.750 47.4200   1
 -15  21  27 -15.120 41.8600   1
 -15  27  21 -17.600 34.4800   1
 -27  15  21 -52.290 47.6100   1
 -21  27  15 -48.160 36.9700   1
  -9  15  33 -1.0800 46.5800   1
 -15  33   9 -18.210 39.7900   1
   5  37  -1 311.550 61.3800   1
   5  37   1 349.090 60.5700   1
  -5  37  -1 381.430 65.1600   1
  -5  37   1 544.470 85.1100   1
  -1  37   5 392.910 63.1400   1
   1  37   5 264.540 51.2000   1
  -5   1  37 380.390 57.3200   1
  -1   5  37 469.790 54.8500   1
   1   5  37 388.710 46.0900   1
  -5  -1  37 421.410 47.0300   1
   5   1  37 489.880 61.8900   1
   5  -1  37 509.270 51.8200   1
  -1  -5  37 385.730 46.6200   1
   1  -5  37 465.350 57.4400   1
  -5  37  -1 151.130 55.7900   1
   5  37  -1 345.070 62.3000   1
  -5  37   1 363.640 63.7900   1
   5  37   1 253.840 45.6900   1
   1  37   5 283.780 53.3200   1
  -1  37   5 328.500 46.5400   1
   8   6  36 -28.560 34.5300   1
  -6  -8  36 -41.000 51.2100   1
   6  -8  36 -21.610 39.8800   1
   8  -6  36 35.9500 39.1800   1
 -10  36   0 1444.96 128.850   1
   0  36  10 1299.26 91.3700   1
   0  10  36 1343.55 96.8300   1
 -10   0  36 1349.44 94.1700   1
  10   0  36 1269.88 92.0400   1
   0 -10  36 1083.53 79.3400   1
  10  36   0 1023.55 83.7600   1
 -10  36   0 982.330 86.0800   1
  -6  24  28 -29.610 32.8000   1
   6  24  28 -17.060 38.9500   1
  24   6  28 -49.550 51.2600   1
 -28  24   6 92.9100 53.6000   1
 -24  28   6 50.8700 48.1100   1
 -26  24  12 1213.60 88.3400   1
 -24  26  12 1228.16 94.1200   1
 -26  12  24 1332.22 91.1500   1
 -12  26  24 1261.47 86.1500   1
 -24  12  26 1171.01 84.9000   1
 -12  24  26 1173.93 81.3400   1
  12  26  24 1239.60 90.1700   1
  12  24  26 1212.23 85.6400   1
 -26  24  12 943.610 78.8800   1
  -6  28  24 85.0400 43.8600   1
 -28  24   6 36.3100 56.0900   1
 -24  28   6 -26.370 46.7600   1
 -28   6  24 55.2600 39.8600   1
   6  28  24 -12.460 31.8600   1
 -24   6  28 44.8400 47.0900   1
  -8   6  36 -12.630 42.5200   1
  -6   8  36 77.3500 36.6700   1
   6   8  36 26.8200 34.8400   1
  -8  -6  36 75.6200 45.0200   1
   8  36   6 18.6600 37.7000   1
  -8  36   6 82.9800 41.8400   1
  -6  36   8 -60.380 56.4500   1
  -8  36   6 -20.250 55.8800   1
   6  36   8 16.1400 47.6800   1
  -6  36   8 -48.480 50.7900   1
   6  36   8 85.6300 48.5000   1
  22   4  30 301.630 52.4000   1
 -20  10  30 309.980 46.7900   1
  10  20  30 298.030 46.9500   1
 -34  12  10 449.550 56.9900   1
 -22  30   4 91.3700 52.2600   1
 -22  30  -4 143.390 66.0800   1
 -22  -4  30 256.030 53.6600   1
   4  22  30 303.380 39.7400   1
 -22   4  30 284.300 40.2000   1
  -4  22  30 319.480 41.2100   1
   4  30  22 301.400 40.2900   1
 -22  30   4 300.560 76.6200   1
 -30  22   4 232.220 74.2500   1
 -10 -20  30 238.460 59.7400   1
 -30  20  10 278.530 48.6500   1
 -20  30  10 191.880 46.2300   1
 -30  20  10 203.940 49.5600   1
 -26  18  20 128.600 51.2100   1
 -18  26  20 103.280 46.8200   1
  18  20  26 82.0400 40.7800   1
 -10  20  30 144.400 39.4400   1
 -34  10  12 323.560 58.2200   1
 -12  34  10 383.130 49.2200   1
 -10  34  12 368.380 55.6300   1
 -12  10  34 412.860 46.2500   1
 -10  12  34 306.180 49.1900   1
  10  12  34 466.990 58.7100   1
  12  10  34 458.970 55.0800   1
  -4  30  22 224.760 38.6100   1
  20  18  26 11.0900 45.7600   1
 -12  34  10 242.480 46.6300   1
  12 -10  34 367.530 55.6200   1
 -10 -12  34 388.540 53.7500   1
 -12 -10  34 415.420 59.7300   1
 -20  30  10 146.890 52.7100   1
  20  10  30 230.720 40.3100   1
 -30  10  20 257.210 38.8900   1
 -20  18  26 104.790 37.5800   1
 -18  20  26 41.2000 34.4400   1
 -10  30  20 222.970 40.2800   1
  10  30  20 273.800 50.0400   1
 -10  36   2 691.190 77.0800   1
   2 -10  36 920.330 72.5800   1
  -2 -10  36 798.690 65.2800   1
  10  36   2 654.110 66.1300   1
  10  -2  36 963.370 82.6600   1
  10   2  36 733.010 61.6200   1
 -10  -2  36 875.100 72.0000   1
   2  10  36 926.180 68.6800   1
  -2  10  36 817.900 64.3800   1
  -2  36  10 902.040 71.2300   1
   2  36  10 1028.11 83.8100   1
 -10   2  36 1000.00 72.9100   1
 -20  26  18 83.5200 36.8100   1
 -26  20  18 57.3400 45.1900   1
 -10  36  -2 914.270 96.7200   1
 -10  36   2 727.910 74.6100   1
 -21  31   1 139.760 59.7400   1
   1  31  21 187.550 44.0800   1
  -1  31  21 184.290 37.3800   1
 -29  21  11 -4.1200 51.3700   1
 -31  19   9 691.630 76.1300   1
 -21  29  11 -10.180 49.5400   1
 -19  31   9 727.030 81.5500   1
   9  31  19 614.280 62.0000   1
 -31   9  19 724.230 65.2100   1
 -21  31   1 141.170 60.9700   1
  -9  31  19 767.780 66.9100   1
 -29  21  11 1.89000 40.8500   1
 -21  29  11 8.09000 50.9200   1
 -31  19   9 560.390 62.1500   1
 -19  31   9 471.610 67.6200   1
 -31  21  -1 110.230 77.4800   1
 -31  21   1 185.560 60.8300   1
 -21  31  -1 225.790 62.5300   1
  -7  25  27 4.55000 33.2200   1
   7  27  25 49.4900 32.6300   1
   7  25  27 16.0700 39.5200   1
  25   7  27 47.9400 37.2900   1
  27   7  25 70.8800 46.5800   1
 -27  25   7 72.5600 39.8100   1
 -25  27   7 -28.300 54.0400   1
  -9  19  31 570.020 58.5900   1
 -19   9  31 748.860 63.8300   1
 -19  -9  31 710.690 65.6400   1
  19   9  31 622.450 62.3000   1
  -9 -19  31 630.450 66.4700   1
  -1  21  31 147.880 38.4100   1
   1  21  31 92.2900 41.1300   1
 -21   1  31 94.6700 36.1100   1
 -21  -1  31 206.410 39.2300   1
  21   1  31 188.660 42.0200   1
  -5 -17  33 410.330 58.2000   1
  17  -5  33 474.820 69.9800   1
 -17  33   5 264.940 46.3200   1
  -5   3  37 215.080 39.1900   1
  -3   5  37 98.2700 50.9100   1
 -17  33   5 475.000 80.1500   1
 -33  17   5 430.850 76.1000   1
 -17  33  -5 643.620 81.3300   1
   3   5  37 135.390 53.4500   1
   5   3  37 191.120 46.9700   1
  -5  -3  37 121.550 46.1800   1
  -3  -5  37 132.070 39.6700   1
   5  -3  37 110.210 54.7900   1
   3  -5  37 46.5500 46.4900   1
  -5  37   3 126.570 59.1200   1
   5  37   3 82.0700 56.0200   1
  -3  37   5 139.020 42.1800   1
 -13  35  -3 705.280 82.5900   1
 -35  13   3 679.450 88.9800   1
 -13  35   3 638.670 85.9300   1
   3  35  13 851.390 71.8500   1
  -3  35  13 693.700 70.5300   1
  -3  13  35 609.770 54.7000   1
 -13   3  35 610.040 54.5700   1
   3  13  35 675.730 66.9300   1
 -13  -3  35 561.070 52.5200   1
  13   3  35 606.330 61.5700   1
  -3 -13  35 663.810 60.5200   1
  13  -3  35 581.310 57.5100   1
   3 -13  35 725.770 65.5300   1
  13  35   3 485.430 59.4400   1
 -13  35   3 507.650 63.1900   1
   3  37   5 113.780 49.8600   1
  11  29  21 -26.120 38.9200   1
  -5  33  17 408.940 57.4200   1
   5  33  17 361.550 54.2200   1
 -29  11  21 -34.270 32.3800   1
  21  -1  31 202.660 43.6100   1
 -11  29  21 76.2700 50.4000   1
 -21  11  29 -11.370 33.1800   1
 -11  21  29 -94.120 48.7100   1
  11  21  29 -30.620 46.7200   1
  21  11  29 29.8300 48.5000   1
 -11 -21  29 44.5700 55.7100   1
  -5  17  33 389.400 56.7700   1
 -17   5  33 410.560 52.7100   1
   5  17  33 529.300 60.4800   1
 -25  27   7 125.630 50.2400   1
 -27  25   7 112.750 69.4100   1
 -17  -5  33 409.760 52.6200   1
  17   5  33 332.850 52.5200   1
   9  19  31 629.880 54.7000   1
  -7  27  25 27.7900 34.3900   1
 -27   7  25 4.22000 40.4400   1
 -25   7  27 87.8600 41.5600   1
  -5  37  -3 258.460 85.1300   1
   5  37   3 79.0200 60.9600   1
  -5  37   3 47.9500 60.4900   1
   3  37   5 101.840 57.4400   1
  -3  37   5 65.7300 46.8900   1
 -24  16  24 531.960 61.0300   1
 -16  24  24 480.130 48.9700   1
 -24  24  16 593.390 62.5800   1
 -31  15  15 78.6800 54.7900   1
 -15  31  15 197.540 55.9800   1
 -21  31   3 379.450 62.3900   1
  21  -3  31 386.560 50.6000   1
  21   3  31 448.290 63.0500   1
 -21  -3  31 408.260 53.3600   1
 -21   3  31 483.800 47.7600   1
   3  21  31 354.030 53.7300   1
   3  31  21 504.690 53.6800   1
 -15  15  31 220.650 45.5500   1
 -21  31   3 329.630 59.2200   1
 -31  21   3 527.730 68.4000   1
 -21  31  -3 288.850 67.0300   1
 -15 -15  31 114.340 47.4200   1
  15  15  31 129.230 50.9800   1
 -31  21  -3 503.330 86.1300   1
  -3  31  21 389.050 50.8900   1
 -21  21  23 119.580 50.7300   1
 -23  21  21 40.5700 50.0600   1
 -21  23  21 119.660 45.1600   1
  -3  21  31 361.000 48.8600   1
 -18  32   8 461.320 61.5100   1
   4  36  10 431.170 57.4400   1
 -22  28  12 155.010 52.2200   1
 -28  22  12 8.84000 37.2900   1
  22  12  28 166.710 54.6200   1
  12  22  28 163.540 50.9800   1
 -22  12  28 45.4800 34.3100   1
 -12  22  28 143.510 47.0400   1
 -10  36  -4 261.820 65.2200   1
 -10  36   4 369.060 56.2500   1
  -4  36  10 479.310 61.1800   1
  -4  10  36 389.670 45.8400   1
 -10   4  36 346.140 55.8900   1
   4  10  36 391.430 56.3100   1
 -10  -4  36 423.050 47.7200   1
  10   4  36 414.000 47.8900   1
  -4 -10  36 357.080 45.5200   1
  10  -4  36 326.610 47.3000   1
   4 -10  36 367.740 57.4800   1
  10  36   4 331.480 59.3000   1
 -10  36   4 324.920 56.7600   1
 -16  34   0 186.100 46.1000   1
   0 -16  34 182.210 45.3400   1
  16   0  34 196.210 42.3700   1
 -16   0  34 170.350 47.4700   1
   0  16  34 116.100 38.5100   1
   0  34  16 129.670 46.5900   1
 -16  34   0 168.910 61.5800   1
 -34  16   0 270.200 74.6200   1
  16  16  30 560.400 52.1400   1
 -16  16  30 597.860 53.3200   1
 -16  30  16 626.480 57.8900   1
 -30  16  16 686.100 66.3500   1
  12  28  22 163.720 44.2200   1
 -12  28  22 139.240 39.5500   1
 -28  12  22 224.970 38.2900   1
 -28  22  12 280.190 46.3500   1
 -22  28  12 91.7700 59.1400   1
 -32  18   8 599.280 64.8500   1
 -18  32   8 759.240 69.8100   1
 -32   8  18 771.230 72.3500   1
  -8  32  18 671.070 68.2400   1
   8  32  18 731.150 63.6300   1
 -18   8  32 719.590 63.5900   1
  -8  18  32 682.550 63.6600   1
   8  18  32 814.030 67.6300   1
 -18  -8  32 734.620 66.4700   1
  18   8  32 635.140 62.7000   1
  -8 -18  32 715.370 63.8300   1
 -32  18   8 648.110 66.0400   1
 -26   8  26 261.920 39.3900   1
 -16   2  34 -49.100 34.8700   1
   2  16  34 -17.310 42.3100   1
  -2  16  34 11.8400 42.5100   1
  -2  34  16 67.1600 36.7000   1
  -2 -16  34 48.2600 41.4500   1
 -16  34   2 75.0500 42.4600   1
 -16  -2  34 -92.890 48.8600   1
   2 -16  34 -50.950 44.7400   1
  -8 -14  34 38.3500 53.9400   1
  14  -8  34 90.9800 57.1300   1
 -14  34   8 6.02000 57.7900   1
  14  34   8 3.41000 46.2800   1
  -8  14  34 89.2300 36.7000   1
 -14  34   8 75.1900 53.3100   1
  16   2  34 54.6700 46.3000   1
  16  -2  34 57.4300 41.9400   1
 -16  34   2 92.8200 54.7000   1
 -16  34  -2 19.8700 73.4600   1
 -26  26   8 129.820 42.1000   1
  26   8  26 172.330 56.1800   1
   8  26  26 124.090 47.7900   1
 -34  16   2 48.8300 55.2800   1
  -8  26  26 198.990 51.1300   1
 -26  26   8 178.630 58.3300   1
  16  22  26 48.7600 32.9700   1
 -26  22  16 77.6300 38.5200   1
 -22  26  16 111.980 39.3900   1
 -16  26  22 50.3300 34.7300   1
 -26  16  22 83.8500 35.7300   1
 -16  22  26 56.5300 34.9500   1
 -22  16  26 70.2600 48.6000   1
 -14 -14  32 -2.4000 44.4500   1
  14  14  32 23.3700 34.0300   1
 -14  14  32 35.9700 41.1900   1
 -14  32  14 -43.240 36.3200   1
 -32  14  14 -36.500 37.5300   1
  14   8  34 58.8100 36.5100   1
 -14  -8  34 81.4200 37.3800   1
   8  14  34 3.77000 33.9200   1
 -14   8  34 -38.170 33.7600   1
  -8  34  14 -34.160 51.6300   1
   8  34  14 -12.010 41.4000   1
 -34  14   8 4.13000 58.3400   1
 -17  17  29 977.020 75.1700   1
  17  17  29 877.660 66.7300   1
 -29   7  23 24.2400 39.8300   1
 -23  29   7 106.650 69.8500   1
 -17  13  31 234.590 44.3500   1
 -29  23   7 87.7300 68.5200   1
  -7  -1  37 398.720 51.8900   1
 -23  23  19 83.1000 44.6500   1
 -19  23  23 179.130 50.1800   1
 -13  35   5 165.430 46.3200   1
 -23  19  23 103.570 36.7500   1
 -13  31  17 172.920 41.9400   1
 -31  13  17 175.930 47.1400   1
 -17  31  13 329.610 47.2500   1
 -31  17  13 130.040 41.4000   1
  -7  37   1 214.710 78.4100   1
 -25  13  25 1497.99 115.510   1
 -13  25  25 1320.72 89.2200   1
  13  25  25 1431.09 112.550   1
 -25  25  13 1052.87 84.1500   1
  13  17  31 241.720 38.3800   1
 -17 -13  31 203.580 47.1900   1
 -23   7  29 49.3500 33.6400   1
 -23  29   7 205.680 57.8000   1
 -29  23   7 54.2300 38.4500   1
  -7 -23  29 66.3600 43.2000   1
  23   7  29 50.1400 45.3800   1
   7  23  29 96.0000 41.7900   1
  17  13  31 127.560 38.9000   1
 -13  -5  35 153.580 41.0000   1
  13  35   5 236.740 50.0200   1
 -13 -17  31 151.240 57.6000   1
   1  37   7 447.380 71.4100   1
  -7  37  -1 465.520 68.9500   1
  -5  37   5 -79.600 54.4700   1
   5  37   5 -8.5500 37.6400   1
   5  -5  37 103.480 40.4700   1
 -13  35   5 359.090 74.0100   1
  -5  35  13 215.660 41.5900   1
  -5  13  35 303.810 41.9100   1
 -13   5  35 226.180 40.1000   1
   5  13  35 233.570 48.1600   1
  -5  -5  37 7.35000 49.9000   1
   5   5  37 67.9400 37.3900   1
  -5   5  37 78.7000 48.8600   1
  -5  37   5 50.5800 46.0500   1
   5  37   5 63.9200 55.9300   1
  13   5  35 294.510 49.9400   1
  -5 -13  35 370.440 61.3700   1
  13  -5  35 268.860 57.1400   1
   5 -13  35 298.150 64.6000   1
 -35  13   5 309.800 72.9400   1
 -13  35  -5 109.630 63.7800   1
   5  35  13 306.900 49.2600   1
  -5  37  -5 59.5100 59.6000   1
 -13  17  31 155.880 51.4300   1
  -7  23  29 4.96000 33.8700   1
   7  29  23 64.4600 46.2800   1
  -7  29  23 78.6700 35.7000   1
 -29  17  17 803.350 65.5200   1
 -25  25  13 1382.28 100.430   1
 -17  29  17 798.160 69.8900   1
  -1  37   7 391.860 52.4100   1
  -1   7  37 256.270 53.2600   1
  -7   1  37 335.810 51.5600   1
   1   7  37 436.000 47.7500   1
   7   1  37 434.130 48.1000   1
  -1  -7  37 407.640 47.7200   1
   7  -1  37 421.760 61.6700   1
   1  -7  37 495.920 51.5900   1
  -7  37  -1 308.330 48.5000   1
   7  37   1 292.960 58.0800   1
  -7  37   1 346.230 48.6600   1
   1  37   7 310.530 55.3900   1
  -1  37   7 272.500 45.8100   1
 -30  22   6 343.300 47.8900   1
 -22  30   6 267.680 62.0200   1
 -30  18  14 390.250 48.9700   1
 -18  30  14 370.860 55.8100   1
 -30  14  18 499.180 56.1100   1
 -30   6  22 406.480 50.3200   1
 -14  30  18 385.390 58.8000   1
 -18  14  30 502.590 48.6700   1
 -14  18  30 484.750 48.2600   1
  14  18  30 492.520 53.7800   1
  18  14  30 472.460 54.5800   1
 -14 -18  30 448.270 56.8600   1
 -30  18  14 325.310 51.7600   1
 -22  30  -6 207.680 69.0000   1
 -30  22   6 312.590 66.6500   1
 -22  30   6 497.190 61.6100   1
  -6  30  22 406.170 45.8600   1
   6  30  22 516.540 58.8000   1
  -6  22  30 380.000 49.8900   1
 -22   6  30 336.550 42.1700   1
   6  22  30 451.910 46.0500   1
 -22  -6  30 408.820 57.4200   1
  22   6  30 479.410 50.7200   1
  -6 -22  30 294.680 57.3800   1
   8  36   8 53.8500 48.7200   1
  -8  36   8 160.190 53.4600   1
   8  -8  36 129.330 54.5600   1
  -8  -8  36 78.1100 37.0000   1
  20   0  32 224.430 43.3200   1
  -8  28  24 34.5500 43.1900   1
 -28   8  24 26.6400 32.4200   1
   8   8  36 38.5500 35.4000   1
  -8   8  36 24.4900 34.3700   1
  -8  36   8 48.7800 50.9200   1
 -32  12  16 -109.38 49.0500   1
 -28  24   8 -25.810 52.7200   1
  24   8  28 -30.520 43.4100   1
 -24  28   8 -119.40 55.6900   1
   8  24  28 2.67000 39.0700   1
 -16 -12  32 -42.990 50.6200   1
  -8  24  28 -157.26 40.9100   1
 -12  32  16 94.8900 46.8500   1
 -16  12  32 -33.520 46.4000   1
 -12  16  32 11.5100 32.8800   1
  12  16  32 139.180 50.6800   1
  16  12  32 16.6600 43.5400   1
   0  20  32 256.020 50.2200   1
 -12 -16  32 -25.510 46.6200   1
 -24   8  28 22.1700 40.3600   1
 -32  20   0 164.880 74.6000   1
 -20  32   0 181.780 89.1900   1
   0  32  20 138.420 37.1900   1
 -20   0  32 104.010 37.3900   1
 -28  24   8 54.3300 67.8400   1
 -32  16  12 113.740 60.5300   1
   8  28  24 -52.810 39.4900   1
 -24  28   8 -71.290 46.7300   1
 -16  32  12 67.3200 49.9500   1
 -11  35   9 334.810 48.8000   1
  -9  35  11 500.980 53.7500   1
 -21  31   5 471.520 61.6900   1
  -5 -21  31 683.250 70.1600   1
  21   5  31 678.200 59.8400   1
 -21  -5  31 561.360 58.2700   1
   5  21  31 625.930 62.8400   1
 -17  33   7 374.200 49.8400   1
  -3  37   7 99.9800 42.0000   1
 -29  19  15 371.590 47.5100   1
 -19  29  15 400.560 61.1300   1
 -29  19  15 276.160 44.2400   1
 -21   5  31 787.530 62.4900   1
   5  31  21 697.860 66.6100   1
 -11  35   9 265.530 61.3000   1
 -35  11   9 448.340 74.4400   1
  -5  31  21 807.610 68.1100   1
 -31  21   5 882.280 82.1100   1
 -21  31  -5 497.110 91.4300   1
   7  33  17 384.470 50.0700   1
  -7  33  17 516.820 57.8900   1
 -33  17   7 412.980 74.4900   1
 -17  33   7 444.570 65.9400   1
 -19  25  21 -21.040 41.9200   1
 -25  19  21 -12.060 34.2800   1
  -5  21  31 701.370 56.9800   1
 -21  31   5 698.610 71.0200   1
   3  37   7 200.920 45.8700   1
  -3  37   7 5.45000 41.5500   1
   3  37   7 154.690 51.8600   1
 -25  21  19 -31.200 35.0600   1
 -21  25  19 -29.290 34.6400   1
 -19  21  25 -6.5200 33.7500   1
 -21  19  25 44.3000 34.0400   1
 -23  27  13 475.650 60.6900   1
 -27  23  13 565.900 64.4500   1
 -13  27  23 531.820 57.4300   1
 -11   9  35 346.080 50.0700   1
  -9  11  35 438.670 46.9300   1
   9  11  35 356.390 44.1100   1
  11   9  35 386.760 58.0600   1
  -7 -17  33 265.150 59.9700   1
   7  17  33 274.500 52.3900   1
 -17   7  33 423.670 45.5700   1
  17  -7  33 426.640 57.6600   1
  -9 -11  35 410.800 54.7700   1
   9 -11  35 437.220 55.7300   1
 -29  15  19 471.170 55.9000   1
 -15  29  19 416.360 47.7500   1
 -33  13  13 269.640 69.3600   1
 -13 -13  33 197.890 48.5000   1
  13  13  33 148.880 47.2100   1
 -13  13  33 230.310 38.7900   1
 -13  33  13 319.450 46.5500   1
 -19  15  29 389.570 43.9100   1
 -15  19  29 451.450 46.6200   1
  15  19  29 424.900 57.1600   1
  19  15  29 429.160 56.9600   1
  11  -9  35 274.050 59.4000   1
  17   7  33 433.780 48.6200   1
 -23  27  13 349.670 56.6500   1
 -27  23  13 381.250 55.9000   1
  23  13  27 567.400 64.4800   1
  13  23  27 560.290 50.5500   1
  13  27  23 516.630 53.4500   1
 -23  13  27 584.630 52.9500   1
 -17  -7  33 466.260 55.5000   1
  -7  37  -3 76.9800 58.2400   1
  -7  37   3 160.300 65.6500   1
 -13  23  27 572.060 52.4300   1
 -27  13  23 467.070 48.0900   1
  -3   7  37 91.2000 45.5800   1
  -7   3  37 121.450 37.8700   1
   3   7  37 173.710 48.8500   1
  -7  -3  37 109.590 37.1000   1
   7   3  37 157.920 41.4000   1
  -3  -7  37 104.920 37.9700   1
   7  -3  37 106.980 40.9800   1
   3  -7  37 119.800 55.9600   1
   7  37   3 190.460 41.6600   1
 -11  -9  35 409.310 53.4000   1
  -7  17  33 442.750 52.8000   1
  20   2  32 307.640 45.0100   1
  20  -2  32 304.950 47.4400   1
 -20  32   2 193.150 52.9200   1
 -34  16   4 -167.39 64.8300   1
 -16  34  -4 -59.340 87.5200   1
  -4 -16  34 -154.04 55.5000   1
  16   4  34 14.7600 36.3500   1
 -16  -4  34 22.2800 43.1400   1
   4  16  34 -109.66 47.9400   1
  -2  20  32 331.900 41.5900   1
 -32  20  -2 363.770 68.2800   1
 -32  20   2 337.770 85.7200   1
  16  -4  34 -96.990 51.5500   1
 -20  32  -2 202.510 78.6300   1
 -20  32   2 220.930 80.8800   1
 -20  -2  32 193.890 38.4500   1
   2  32  20 246.630 44.8500   1
 -16  34   4 21.8600 50.6300   1
  -2  32  20 304.080 40.5200   1
 -20   2  32 266.850 46.9800   1
   2  20  32 456.260 52.7300   1
 -16   4  34 46.3400 34.8800   1
   4  34  16 -30.540 46.8400   1
  -4  16  34 3.31000 43.2700   1
  -4  34  16 -35.060 43.6900   1
 -16  34   4 15.1000 62.8800   1
  -6  36  10 98.7800 42.6700   1
  10  36   6 103.200 48.4000   1
 -10  36   6 67.6700 40.9600   1
   6 -10  36 331.390 49.1700   1
  10  -6  36 139.840 55.1700   1
  -6 -10  36 145.910 60.1400   1
  10   6  36 129.070 39.7500   1
 -10  -6  36 216.900 40.7300   1
 -10   6  36 132.270 39.0200   1
  -6  10  36 64.7700 36.3700   1
   6  36  10 124.400 55.8600   1
 -18  18  28 857.910 73.9000   1
 -10  36   6 151.130 51.1000   1
   6  10  36 187.810 45.6200   1
  -6  36  10 30.6000 56.2800   1
 -28  18  18 729.470 66.5200   1
 -18  28  18 947.460 80.1700   1
  18  18  28 739.600 64.5400   1
 -11  15  33 92.5900 48.7400   1
 -11  33  15 116.720 54.5000   1
 -15  33  11 133.760 52.0000   1
 -33  11  15 66.5900 54.3700   1
 -33  15  11 5.73000 40.5700   1
 -27  25   9 153.710 56.8100   1
 -25  27   9 218.280 49.6600   1
 -27   9  25 215.490 45.7200   1
  -9  27  25 193.090 46.3900   1
  -9  25  27 251.090 48.0600   1
 -25   9  27 172.170 52.1600   1
   9  27  25 293.770 40.7700   1
   9  25  27 226.770 44.4300   1
  25   9  27 262.090 50.4600   1
 -27  25   9 201.000 42.6900   1
 -25  27   9 94.2200 48.8700   1
 -15  33  11 122.850 59.5500   1
 -11 -15  33 6.76000 45.3800   1
  15  11  33 -90.640 49.6900   1
 -15 -11  33 97.8300 37.6900   1
  11  15  33 112.720 35.3500   1
 -15  11  33 1.76000 32.9700   1
  16  20  28 269.080 47.0700   1
 -16  28  20 275.970 43.2500   1
 -28  16  20 273.800 42.5700   1
 -28  20  16 268.750 43.4600   1
 -20  32   4 541.540 60.1700   1
   4  32  20 597.190 60.8900   1
 -20  32  -4 806.000 103.570   1
 -20  28  16 260.290 43.8100   1
 -20  16  28 201.820 46.2000   1
 -16  20  28 300.760 48.9000   1
 -32  20   4 658.540 87.2000   1
 -20  32   4 806.790 91.0800   1
  20  16  28 322.870 54.6000   1
  -4  32  20 583.560 61.9200   1
 -12   0  36 1576.45 117.970   1
  20  -4  32 592.940 63.7200   1
  -4 -20  32 651.740 65.9600   1
  20   4  32 612.290 65.3400   1
   0  36  12 1724.34 128.930   1
 -12  36   0 1859.25 154.580   1
  -4  20  32 715.160 68.2600   1
 -20  -4  32 576.740 62.6100   1
   4  20  32 666.340 60.7500   1
 -20   4  32 567.160 59.9400   1
   0  12  36 1671.52 126.350   1
  12   0  36 1744.03 130.030   1
   0 -12  36 1632.86 121.940   1
 -12  36   0 1238.19 104.730   1
  -7  -5  37 -20.160 43.3100   1
   5   7  37 -42.280 35.4600   1
  -5   7  37 30.0900 34.6300   1
  -7   5  37 -14.740 43.0700   1
 -13   7  35 176.230 44.1200   1
 -11  31  19 249.360 41.0700   1
 -19  11  31 270.330 47.5700   1
 -11  19  31 178.610 38.0100   1
  11  19  31 175.400 50.1100   1
  19  11  31 340.340 51.8400   1
 -11 -19  31 279.220 46.9700   1
 -31  19  11 164.880 40.1100   1
 -19  31  11 169.480 44.6600   1
 -23  25  17 227.730 42.3900   1
 -25  23  17 168.350 53.1700   1
 -25  17  23 158.210 44.1900   1
 -17  25  23 168.670 38.2000   1
   5  -7  37 109.530 39.7900   1
 -23  17  25 142.680 49.0400   1
   7  -5  37 -37.080 48.0800   1
  -5  -7  37 9.26000 44.0500   1
   7   5  37 131.730 37.9900   1
   7  13  35 304.220 43.3300   1
 -17  23  25 187.370 38.0400   1
   7 -13  35 249.860 50.4200   1
  13  -7  35 267.530 50.4000   1
  -7 -13  35 134.000 40.4400   1
  13   7  35 214.230 52.9100   1
 -13  -7  35 299.780 50.9300   1
  -7  13  35 220.000 46.3300   1
 -31  19  11 203.610 61.8300   1
 -19  31  11 222.670 45.6800   1
 -31  11  19 317.460 54.5100   1
 -13  35   7 273.510 48.7700   1
  13  35   7 233.910 50.8300   1
  -7  37   5 -40.270 45.3300   1
   5  37   7 -9.1000 40.9100   1
 -35  13   7 197.120 76.1600   1
   5  37   7 43.5600 39.1200   1
 -13  35   7 231.810 59.0800   1
   7  35  13 201.660 45.9400   1
  -7  35  13 200.450 49.3100   1
  -5  37   7 -1.5900 41.1300   1
  -7  37  -5 -59.590 72.6000   1
   7  37   5 10.9200 52.5700   1
  -7  37   5 9.25000 39.7700   1
  -5  37   7 -27.360 49.6200   1
  12   2  36 1227.42 94.9100   1
  12  -2  36 1163.12 97.3700   1
  -2 -12  36 1094.78 88.4700   1
   2 -12  36 1160.35 93.6000   1
  12  36   2 899.760 87.8300   1
 -12  36   2 976.180 89.9900   1
 -12  30  20 107.450 45.4400   1
 -12  20  30 115.660 36.0600   1
 -20  30  12 61.1300 50.9200   1
 -30  20  12 83.3600 57.3200   1
 -20  12  30 161.210 49.7500   1
 -34  12  12 791.330 81.6300   1
 -12  34  12 670.400 71.0300   1
  20  12  30 166.720 46.5800   1
 -20  30  12 142.740 41.5300   1
 -30  20  12 135.760 46.1300   1
 -12 -20  30 103.270 48.8800   1
  12  20  30 60.0500 33.5800   1
 -36  12   2 1357.23 121.830   1
 -12  36  -2 1380.16 119.650   1
 -30  12  20 143.530 43.6600   1
 -12  36   2 1379.16 125.810   1
 -12  12  34 625.040 67.3500   1
  12  12  34 574.740 62.2000   1
 -12 -12  34 610.880 71.1900   1
  -2  36  12 1320.57 105.970   1
   2  36  12 1301.43 106.810   1
  -2  12  36 1254.93 95.5600   1
   2  12  36 1146.99 88.8800   1
 -12   2  36 1229.29 97.7600   1
 -12  -2  36 1174.03 91.0800   1
   0  38   0 1203.42 168.480   1
   0   0  38 917.270 76.0400   1
   0  38   0 846.750 83.7900   1
 -26  24  14 871.180 76.9200   1
 -24  26  14 934.720 85.0800   1
 -16  34   6 -49.710 57.5300   1
  16  -6  34 178.180 47.3900   1
  -6 -16  34 26.1200 39.5000   1
  16   6  34 47.9100 37.4500   1
 -16  -6  34 20.2800 44.1700   1
   6  16  34 85.0700 49.6600   1
 -16   6  34 101.690 44.2900   1
  -6  16  34 87.5300 35.9000   1
   6  34  16 8.84000 40.8400   1
  -6  34  16 34.4400 45.6700   1
 -16  34   6 -4.9100 67.2000   1
 -34  16   6 159.720 67.1100   1
 -16  34  -6 0.51000 76.3600   1
  18  10  32 196.710 53.8300   1
 -32  18  10 249.630 49.2200   1
 -18  32  10 139.160 62.5500   1
 -32  10  18 303.360 52.0200   1
 -10  32  18 216.050 53.5300   1
 -18  10  32 272.940 41.2800   1
 -10  18  32 281.550 47.4300   1
  10  18  32 194.880 37.7100   1
 -18 -10  32 233.860 54.2200   1
 -10 -18  32 287.790 54.7800   1
 -18  32  10 150.970 53.0700   1
  -8  30  22 222.420 40.2500   1
 -30   8  22 229.560 45.8900   1
 -22  30   8 131.360 48.0300   1
 -30  22   8 76.3100 56.7100   1
   0  38   2 580.480 67.4900   1
 -22  30   8 128.410 41.1700   1
 -30  22   8 146.130 49.4800   1
  -8 -22  30 212.830 53.8600   1
  22   8  30 197.840 41.2200   1
   8  22  30 222.300 44.0500   1
  -8  22  30 193.910 37.9400   1
 -22   8  30 159.730 36.3600   1
   8  30  22 299.330 47.3500   1
  14  24  26 782.180 73.5800   1
  14  26  24 827.200 72.8100   1
 -14  24  26 709.270 63.5600   1
 -24  14  26 859.710 76.0400   1
 -14  26  24 786.820 72.3300   1
 -26  14  24 884.760 77.5000   1
   0  38  -2 861.950 107.400   1
   2  38   0 720.890 91.0000   1
  -2  38   0 795.270 88.6100   1
   0  38   2 813.210 83.5800   1
  -2   0  38 778.330 67.6900   1
   0   2  38 721.620 74.7100   1
   0  -2  38 668.160 72.3900   1
   2   0  38 779.950 73.2200   1
  -2  38   0 557.260 70.4500   1
   2  38   0 603.170 61.5300   1
 -15  35   1 519.000 64.4800   1
 -29  23   9 -123.96 53.5800   1
 -23  29   9 -64.400 42.4200   1
 -29   9  23 -85.140 45.0100   1
  -9  29  23 -104.98 48.7900   1
  -9  23  29 43.6600 46.9400   1
 -23   9  29 4.34000 32.7300   1
   9  23  29 39.1500 32.2200   1
  13  21  29 -42.950 32.7500   1
  21  13  29 29.0300 35.0100   1
 -29  21  13 -4.7800 46.0600   1
 -21  29  13 -43.670 39.8500   1
 -35  15   1 628.820 79.8200   1
  -7  21  31 623.790 67.3700   1
 -21  -7  31 577.160 67.3700   1
  21   7  31 550.110 62.4400   1
  -7 -21  31 564.980 61.1200   1
 -31  21   7 452.650 66.1300   1
 -21  31   7 446.730 54.2600   1
  23   9  29 10.9900 45.6600   1
  -9 -23  29 53.8000 57.9300   1
 -29  23   9 4.17000 37.2400   1
 -23  29   9 30.4800 38.2600   1
 -19  33   1 161.190 45.4100   1
  -1 -19  33 221.720 64.5700   1
  19  -1  33 22.8600 56.7400   1
 -33  19  -1 67.7300 82.9900   1
 -15  35  -1 802.820 87.4700   1
 -21  31   7 581.490 84.2700   1
 -15  35   1 622.830 77.0900   1
   9  29  23 -44.970 38.6800   1
   1  35  15 702.750 72.7500   1
  -1  35  15 663.020 66.8600   1
  -1  15  35 528.280 65.3100   1
   7  21  31 634.050 63.2400   1
 -31   7  21 613.280 66.9200   1
  19  19  27 370.130 51.5700   1
  19   1  33 95.6800 55.1100   1
 -19  -1  33 133.690 44.3900   1
   1  19  33 60.9500 35.7300   1
 -27  19  19 344.770 81.6900   1
 -19   1  33 36.7300 48.9300   1
  -1  19  33 155.560 49.3900   1
  -1  33  19 95.7500 34.8400   1
   1  33  19 98.8100 42.3400   1
 -19  33   1 195.930 72.6500   1
 -19  33  -1 91.6100 75.1100   1
 -33  19   1 25.3500 57.4500   1
 -19  27  19 382.040 54.7700   1
  -7  31  21 507.880 59.1700   1
   7  31  21 610.490 61.4500   1
 -21   7  31 647.650 64.1300   1
 -19  19  27 440.370 55.2100   1
  -9  37  -1 708.370 91.5400   1
  -9  37   1 895.990 105.080   1
  -1  37   9 915.960 80.5700   1
   1  37   9 842.400 76.4200   1
  -1   9  37 763.000 71.3100   1
  -9   1  37 687.190 62.4900   1
   1   9  37 876.670 76.9900   1
  -9  -1  37 713.830 69.0600   1
   9   1  37 766.750 68.1600   1
   9  -1  37 740.790 77.8100   1
  -1  -9  37 807.960 71.2000   1
   1  -9  37 820.070 72.5700   1
  -9  37  -1 447.030 71.5600   1
  -9  37   1 623.260 73.9700   1
   9  37   1 669.490 75.0400   1
   1  37   9 556.830 59.7200   1
  -1  37   9 547.060 59.7900   1
 -15   1  35 547.190 60.3100   1
 -29  21  13 46.6500 54.7000   1
 -29  13  21 -42.090 42.2900   1
 -13  29  21 -4.9300 35.6600   1
 -31  21   7 494.080 63.2500   1
 -21  13  29 24.7800 40.6200   1
 -13  21  29 -2.2700 47.4400   1
   1  15  35 513.910 52.9800   1
 -15  -1  35 660.270 66.6200   1
  15   1  35 503.190 66.6500   1
  15  -1  35 653.910 69.5900   1
  -1 -15  35 543.370 59.8400   1
   1 -15  35 646.200 66.2800   1
 -21  29  13 -99.990 49.6200   1
 -10  14  34 264.080 41.2500   1
  10  14  34 276.450 41.4800   1
  14  10  34 285.980 56.4500   1
 -14 -10  34 217.690 41.7600   1
 -10 -14  34 172.480 56.1700   1
 -14  34  10 221.950 46.5500   1
 -26  26  10 368.880 49.5700   1
  10  26  26 468.670 49.5900   1
 -26  10  26 462.900 55.3400   1
 -10  26  26 422.050 48.2800   1
 -26  26  10 399.960 55.9300   1
 -22  22  22 282.700 55.0100   1
 -34  14  10 252.100 50.0600   1
 -14  34  10 281.490 49.6800   1
 -10  34  14 193.900 50.7300   1
 -14  10  34 223.170 51.7200   1
   2  38  -2 669.610 89.3800   1
  -2  38  -2 576.280 95.9400   1
   2  38   2 527.910 70.6100   1
  -2  38   2 547.450 87.5800   1
  -2   2  38 482.210 58.3600   1
  -2  -2  38 498.680 63.8400   1
   2   2  38 505.820 53.5500   1
   2  -2  38 347.300 47.1900   1
  -2  38   2 336.370 57.3300   1
   2  38   2 404.780 66.5900   1
  12   4  36 569.690 57.6000   1
   4 -12  36 774.350 83.3400   1
 -12  36   4 382.860 67.8400   1
  12  36   4 486.820 66.4900   1
   4  12  36 633.490 64.4300   1
 -12   4  36 534.380 53.9800   1
  -4  12  36 588.290 61.9600   1
   4  36  12 591.280 69.2200   1
  12  -4  36 683.820 66.0900   1
  -4 -12  36 572.240 65.3900   1
  -4  36  12 643.400 72.2800   1
 -12  36   4 842.620 96.9500   1
 -36  12   4 627.880 95.9100   1
 -12  36  -4 534.820 75.7800   1
 -12  -4  36 686.680 63.1300   1
 -35  15   3 211.730 73.8500   1
 -15  35  -3 196.760 78.5000   1
 -15  35   3 247.030 56.4300   1
 -19  33   3 342.580 50.6700   1
   3  37   9 334.990 56.9400   1
  -9  37   3 260.740 63.9500   1
   3  37   9 319.070 56.3800   1
  -3  37   9 338.240 50.9400   1
  -9  37   3 369.490 71.3100   1
 -33  19   3 313.100 63.4100   1
 -19  33  -3 410.050 85.1200   1
 -33  17   9 129.620 65.7600   1
  -9  37  -3 264.900 62.7700   1
 -17  33   9 135.080 59.4100   1
   9  33  17 129.030 35.0900   1
  -9  33  17 145.940 47.8600   1
 -17  33   9 161.530 48.0000   1
  -3  37   9 404.010 65.9700   1
   3  33  19 248.810 46.1700   1
  -3  33  19 256.720 48.0900   1
 -19  33   3 184.250 69.3700   1
 -15  35   3 274.360 57.7700   1
   9  37   3 305.950 54.8200   1
  19  -3  33 330.000 59.0700   1
  -3 -19  33 263.300 56.5100   1
 -15  -3  35 249.530 41.3600   1
  -3  35  15 246.720 41.6500   1
 -19   3  33 291.850 54.3400   1
   3  -9  37 371.440 57.1800   1
  27  -1  27 277.880 55.0400   1
  27   1  27 271.120 46.6300   1
  -1  27  27 333.090 42.5100   1
   1  27  27 343.520 43.0900   1
 -27  21  17 74.9700 46.5500   1
 -21  27  17 99.7600 38.2600   1
   9  -3  37 353.430 49.5200   1
  -3  -9  37 245.650 44.2500   1
 -27  27  -1 246.210 63.9400   1
   3   9  37 231.950 40.9700   1
  -9   3  37 327.230 56.9700   1
  -3   9  37 343.040 45.2800   1
 -27  17  21 50.8900 35.5700   1
 -17  27  21 -21.360 42.6800   1
 -17  21  27 142.680 50.4000   1
 -21  17  27 65.1000 42.6400   1
 -27  27   1 281.610 65.2700   1
  -3  19  33 246.220 39.4400   1
   3  19  33 346.380 44.6600   1
 -19  -3  33 267.990 49.6100   1
  19   3  33 380.560 55.8400   1
  -9 -17  33 37.1600 56.7100   1
  17   9  33 205.350 47.2500   1
 -17  -9  33 70.3700 44.3800   1
   9  17  33 101.240 48.1800   1
  -9  17  33 256.380 40.4000   1
  17  21  27 39.0700 40.6700   1
   3  35  15 196.820 53.1200   1
   9   3  37 193.490 40.5900   1
  -3  15  35 259.360 41.7900   1
 -15   3  35 215.860 47.2700   1
   3  15  35 174.420 46.1500   1
  15   3  35 246.860 57.8600   1
  15  -3  35 135.770 43.9000   1
  -3 -15  35 272.740 55.7900   1
   3 -15  35 288.450 66.9700   1
 -17   9  33 81.3600 42.7900   1
 -10  28  24 189.350 39.3300   1
  10  28  24 126.750 47.2600   1
 -24  10  28 225.460 46.5000   1
 -10  24  28 328.660 50.8200   1
  10  24  28 283.050 40.8600   1
  24  10  28 93.8800 37.5400   1
 -22  20  24 41.1000 35.0400   1
 -10 -24  28 138.090 52.4100   1
 -20  22  24 56.0900 43.8300   1
 -24  20  22 147.640 37.6400   1
 -20  24  22 184.280 52.3400   1
 -24  22  20 59.1200 49.8900   1
 -22  24  20 149.910 45.5400   1
 -28  24  10 99.3900 47.9700   1
 -24  28  10 100.840 41.4100   1
 -28  26   0 507.520 74.4100   1
   0  28  26 338.040 43.3700   1
 -26   0  28 366.710 50.7300   1
   0  26  28 330.170 53.3400   1
  26   0  28 240.640 53.1600   1
  28   0  26 344.020 62.7300   1
 -20  -6  32 776.690 72.7100   1
  20   6  32 837.590 76.8500   1
  -6 -20  32 751.860 77.0700   1
 -20  32   6 615.470 63.0700   1
 -10  36   8 231.510 58.0600   1
  -8  36  10 273.450 47.4400   1
 -10   8  36 320.090 56.5400   1
  -8  10  36 203.590 39.5700   1
   8  10  36 166.910 38.5100   1
  10   8  36 132.600 38.2800   1
 -10  -8  36 230.330 41.4700   1
  -8 -10  36 206.840 42.0400   1
  10  -8  36 424.060 70.1300   1
   8 -10  36 177.600 57.2300   1
 -10  36   8 407.030 60.2000   1
  -8  36  10 240.170 46.2800   1
 -20  32  -6 774.390 93.4800   1
 -32  20   6 815.190 91.6900   1
 -20  32   6 561.410 67.1600   1
  -6  32  20 820.860 77.9300   1
   6  32  20 796.950 72.1100   1
  -6  20  32 723.080 63.5800   1
 -20   6  32 922.350 82.3800   1
   6  20  32 788.660 68.0700   1
   0  38   4 189.470 51.1200   1
  -4  38   0 402.760 59.2700   1
   4  38   0 209.200 53.3900   1
   0  -4  38 372.130 54.9800   1
   4   0  38 297.230 44.1800   1
   0   4  38 295.260 44.3700   1
  -4   0  38 311.310 44.4100   1
   0  38   4 386.230 77.0800   1
  -4  38   0 355.350 76.5400   1
   4  38   0 249.300 72.5700   1
 -24  28  10 182.590 59.1800   1
 -28  24  10 147.020 46.2000   1
 -28  10  24 208.190 45.8300   1
  26   2  28 81.5700 40.1900   1
  28   2  26 147.250 49.2000   1
 -26   2  28 66.7100 41.5700   1
  -2  38   4 227.420 52.2400   1
   2  26  28 59.6300 46.5000   1
  -2  26  28 87.6800 47.5000   1
   2  28  26 172.780 36.1900   1
  22  14  28 30.7800 34.9900   1
  14  22  28 -39.870 40.4800   1
 -14  22  28 -5.4000 34.3000   1
  -2  38   4 196.640 52.4700   1
   2  38   4 110.330 48.8100   1
   4  38   2 137.360 42.5500   1
 -22  14  28 -27.600 41.4500   1
 -14  28  22 -60.440 49.7400   1
 -28  14  22 -15.720 42.4100   1
 -22  28  14 84.2800 40.1000   1
 -28  22  14 68.9200 48.8900   1
  -2  28  26 191.260 37.2200   1
   2  -4  38 126.780 53.7300   1
  -2  -4  38 167.060 40.1000   1
   4   2  38 164.500 46.9800   1
  -4  -2  38 151.650 52.6200   1
   2   4  38 242.490 56.4000   1
  -2   4  38 211.300 40.3600   1
  -4   2  38 117.140 45.2500   1
 -28  22  14 -27.440 45.6700   1
   4  -2  38 231.460 49.6700   1
  -4  38   2 169.420 56.1400   1
   4  38   2 187.750 68.8700   1
  -4  38  -2 184.030 59.8200   1
  -4  38   2 132.900 57.9800   1
  -2  38  -4 177.370 60.3900   1
  26  -2  28 123.360 43.3300   1
   2  38   4 56.8100 62.6500   1
 -26  28  -2 306.640 81.4300   1
 -28  26   2 275.430 60.6400   1
 -26  28   2 131.280 71.7600   1
 -28  26  -2 141.000 63.9900   1
 -11  35  11 635.680 66.4900   1
 -11  35  11 821.420 83.9700   1
 -29  25  -1 207.470 64.2200   1
 -25  29  -1 320.210 89.4700   1
 -25  29   1 219.810 84.6900   1
  -1  29  25 239.690 50.5400   1
 -27  27  -3 132.750 62.9200   1
 -27  27   3 44.7500 53.1200   1
  -3  27  27 54.5700 41.8500   1
   3  27  27 -4.7100 40.3000   1
  27   3  27 72.3400 38.8000   1
 -29  25   1 271.580 62.2800   1
   7  -7  37 -13.260 55.3100   1
  -7  -7  37 -15.730 44.2600   1
   7   7  37 -16.640 43.8800   1
  -7  37   7 -46.160 49.5800   1
  -7  37   7 -5.6800 40.4000   1
   7  37   7 9.15000 48.0500   1
  11 -11  35 821.900 87.5000   1
 -11 -11  35 807.820 75.5500   1
   1  29  25 109.130 42.1500   1
 -25   1  29 85.8500 47.8400   1
   1  25  29 165.790 35.8900   1
  -7   7  37 68.0100 35.0900   1
 -25  -1  29 180.240 43.7700   1
  25   1  29 217.000 43.6300   1
  29   1  25 129.160 55.5400   1
  25  -1  29 114.270 49.7800   1
  11  11  35 704.860 63.6500   1
 -11  11  35 715.290 69.9000   1
 -27   3  27 31.9900 40.0800   1
  -1  25  29 112.180 34.9700   1
 -13  -9  35 410.430 56.8800   1
  13   9  35 465.680 57.2500   1
  -9 -13  35 401.310 50.2100   1
  13  -9  35 448.110 59.0300   1
   9 -13  35 545.420 65.4000   1
 -13  35   9 294.610 58.2300   1
  13  35   9 417.810 60.0600   1
   9  -5  37 165.020 58.8100   1
   5  -9  37 144.870 43.0900   1
   9  37   5 149.310 49.4700   1
  -9  37   5 78.5800 51.1800   1
   5  37   9 116.300 41.3000   1
  -5  37   9 100.120 41.9700   1
   5  19  33 646.470 59.5900   1
 -19   5  33 499.440 57.1500   1
  -5  19  33 614.740 67.0200   1
   5  33  19 605.650 57.8100   1
  -5  33  19 520.260 64.0900   1
 -19  33   5 502.500 81.3500   1
 -15  35  -5 -234.47 87.2000   1
 -35  15   5 -28.460 78.1600   1
 -15  35   5 40.1000 59.1000   1
  -5  35  15 -54.790 52.1400   1
   5  35  15 51.0800 41.9000   1
  -5  15  35 52.6800 44.6700   1
 -15   5  35 65.8900 34.8700   1
   5  15  35 -7.6000 49.8200   1
 -15  -5  35 125.200 37.3000   1
  15   5  35 5.87000 45.7400   1
  -5 -15  35 41.1000 49.0700   1
  15  -5  35 75.1100 62.8300   1
   5 -15  35 64.1200 46.2100   1
 -15  35   5 67.3200 42.7100   1
 -33  19   5 636.960 75.9900   1
 -19  33  -5 529.040 101.380   1
 -35  13   9 445.620 61.6800   1
 -13  35   9 443.100 57.6500   1
  -9  35  13 506.910 63.5000   1
 -13   9  35 543.490 54.7200   1
  -9  13  35 484.140 57.6500   1
 -25  27  11 659.710 78.9700   1
 -27  25  11 653.620 66.5700   1
 -27  11  25 495.960 51.7600   1
 -11  27  25 440.510 49.6000   1
 -25  11  27 582.490 61.5100   1
 -11  25  27 528.000 53.4200   1
  11  27  25 644.510 63.1200   1
  11  25  27 527.100 56.7800   1
 -27  25  11 415.810 64.6100   1
 -25  27  11 394.650 52.0000   1
 -25  29   3 -50.760 40.4400   1
  29   3  25 -1.3600 53.2500   1
   3  25  29 118.350 34.1800   1
 -25   3  29 -32.330 32.4300   1
  -3  25  29 39.4000 33.4500   1
   3  29  25 59.8800 33.2700   1
  -3  29  25 -15.720 46.8300   1
 -25  29   3 -38.090 73.2900   1
 -29  25   3 74.1100 56.9400   1
 -25  29  -3 -185.46 85.2200   1
 -29  25  -3 -157.74 74.0400   1
 -25  15  25 706.930 67.8300   1
 -15  25  25 589.150 65.9400   1
 -25  25  15 710.140 71.6800   1
 -17  31  15 422.230 51.5300   1
   9  13  35 416.900 47.7600   1
 -31  15  17 508.050 54.7600   1
 -15  31  17 408.370 62.3500   1
 -17  15  31 366.430 51.4100   1
 -15  17  31 412.200 53.1400   1
  15  17  31 431.390 59.4800   1
  17  15  31 457.650 50.2900   1
 -31  17  15 367.160 62.0100   1
 -19  33   5 423.780 62.1200   1
  19  -5  33 615.710 65.3700   1
  -5 -19  33 714.250 77.5700   1
  19   5  33 523.430 55.5300   1
 -19  -5  33 580.350 67.7000   1
  -9  37  -5 71.7700 74.8700   1
  -9  37   5 58.2000 57.6700   1
   5  37   9 21.1600 57.7100   1
  -5  37   9 95.1000 44.0200   1
  -5   9  37 75.6400 35.5800   1
  -9   5  37 23.2500 35.0700   1
   5   9  37 34.9700 35.4000   1
  -9  -5  37 122.010 45.6100   1
   9   5  37 136.430 46.3600   1
  -5  -9  37 75.0600 46.4600   1
 -34  16   8 15.8800 56.7500   1
 -16  34   8 -20.290 56.5600   1
  -8  34  16 -37.870 35.8800   1
   8  34  16 -22.870 40.5900   1
  -8  16  34 23.0500 33.6500   1
 -16   8  34 -54.670 42.2700   1
   8  16  34 15.0500 47.3400   1
 -16  -8  34 -31.920 42.7400   1
  16   8  34 44.2000 50.7600   1
  -8 -16  34 -10.360 39.8000   1
  16  -8  34 -174.08 67.8200   1
 -16  34   8 -32.250 41.0500   1
   4   4  38 61.2100 36.4600   1
  -4   4  38 -33.080 42.7000   1
  -4  38   4 -79.230 55.7300   1
   4  38   4 -64.260 61.1600   1
  -4  38  -4 5.46000 71.0500   1
 -20  20  26 27.3300 42.2600   1
 -26  20  20 3.67000 43.2200   1
 -20  26  20 53.1900 45.4800   1
 -28  26  -4 -15.030 76.5400   1
 -26  28  -4 141.610 79.4900   1
 -26  28   4 -161.60 63.0900   1
 -30  24   0 -66.890 57.2800   1
 -24  30   0 17.5400 72.8900   1
   0  30  24 81.3700 47.7300   1
   0  24  30 78.1900 47.8700   1
 -24   0  30 68.3000 40.8500   1
  24   0  30 84.8700 56.2700   1
 -28  26   4 47.5500 51.8300   1
 -28   4  26 -18.310 39.2900   1
 -14 -16  32 83.3300 38.8100   1
 -16 -14  32 36.0200 45.9900   1
  16  14  32 47.1800 49.6400   1
 -14  16  32 4.35000 33.3200   1
 -16  14  32 85.8100 34.0600   1
 -14  32  16 -32.680 37.4300   1
 -16  32  14 -5.3900 54.2900   1
 -32  14  16 105.940 47.2200   1
 -32  16  14 110.890 49.0200   1
  -4  28  26 11.9900 34.0100   1
 -28  26   4 -2.8100 38.4600   1
 -26  28   4 -26.040 49.1500   1
  26   4  28 48.8300 45.7900   1
   4  28  26 -25.270 39.8200   1
 -26   4  28 11.3300 46.1000   1
 -24  18  24 134.590 50.1100   1
 -18  24  24 220.970 39.7600   1
  -4  26  28 12.9400 33.3000   1
   4  26  28 -25.880 39.7800   1
  28   4  26 34.0800 45.5700   1
  -4  38   4 113.800 51.2400   1
   4  38   4 10.7900 54.9700   1
   4  -4  38 -58.500 37.8400   1
  -4  -4  38 69.2300 44.4800   1
  12   6  36 285.960 44.0600   1
 -24  24  18 175.280 48.7600   1
  12  -6  36 489.610 66.9900   1
   6 -12  36 406.680 55.1600   1
  -6  12  36 360.510 57.9700   1
  12  36   6 293.480 52.3300   1
 -12   6  36 332.620 51.6000   1
  -6 -12  36 450.440 59.6800   1
   6  36  12 433.830 57.8700   1
 -12  36   6 277.790 63.2500   1
  -6  36  12 283.870 45.7200   1
 -12  36   6 224.840 45.7500   1
   6  12  36 442.540 60.0500   1
 -12  -6  36 341.440 46.2100   1
  18  16  30 687.520 62.8000   1
 -34  18   0 38.9600 58.8700   1
 -18  34   0 -53.730 57.8300   1
   0  34  18 116.610 48.1900   1
   0  18  34 18.3500 43.1000   1
 -18   0  34 -49.740 34.3400   1
  18   0  34 81.8800 48.7600   1
   0 -18  34 27.3200 60.9200   1
  24  -2  30 24.4300 49.4300   1
  -6   0  38 106.620 37.5200   1
   0  38   6 284.790 53.0600   1
   0   6  38 212.730 40.6200   1
   6   0  38 92.0400 53.8200   1
 -30  18  16 749.450 72.9700   1
   0  -6  38 220.110 42.6300   1
   6  38   0 221.720 45.0200   1
  -6  38   0 148.110 57.2200   1
 -30  18  16 622.590 67.1100   1
  -6  38   0 239.120 45.0700   1
  16  18  30 933.230 80.6000   1
   0  38   6 74.2700 49.3400   1
 -18  16  30 739.940 69.5900   1
 -16  18  30 875.180 80.0800   1
 -30  24  -2 8.10000 76.3900   1
 -24  30  -2 22.9500 75.7300   1
 -30  24   2 100.010 58.5700   1
 -24  30   2 127.100 56.8100   1
 -18  30  16 845.990 83.1100   1
 -16  30  18 874.420 75.0200   1
  -2  24  30 3.48000 39.8100   1
   2  24  30 26.7000 39.4000   1
 -24   2  30 44.4100 33.8100   1
 -24  -2  30 45.0800 46.5800   1
  24   2  30 -40.320 46.3200   1
 -30  16  18 874.840 74.3900   1
 -24  30   2 -40.950 40.1300   1
   2  30  24 110.440 41.8200   1
  -2  30  24 126.990 42.4100   1
 -31   9  21 245.550 47.5800   1
 -21  31   9 253.430 50.5600   1
  21   9  31 139.900 47.4300   1
   9  21  31 249.490 39.7500   1
  -9  21  31 271.880 41.4300   1
 -21   9  31 215.310 45.9300   1
   9  31  21 216.760 43.6500   1
 -31  21   9 236.700 51.6300   1
 -31  21   9 23.4300 52.8400   1
 -21  31   9 208.510 51.4700   1
 -15  27  23 147.480 51.7100   1
  -9 -21  31 314.880 56.7100   1
  -9  31  21 257.160 41.5100   1
 -27  15  23 63.9800 42.5800   1
 -23  15  27 60.3000 35.3500   1
 -27   5  27 5.67000 40.2400   1
 -13 -15  33 61.0100 47.3500   1
  15  23  27 164.400 42.1900   1
 -23  27  15 124.590 41.4700   1
  15  13  33 88.7200 43.9400   1
 -27  23  15 91.2200 41.8600   1
   5  27  27 5.19000 38.4000   1
 -27  27   5 -125.55 45.4800   1
 -13  15  33 -70.450 40.4600   1
 -15  23  27 199.160 38.9900   1
 -15  13  33 -6.3100 47.2200   1
  13  15  33 53.0800 49.9600   1
 -13  33  15 53.0900 52.9800   1
 -27  23  15 88.7500 39.4300   1
  27   5  27 21.2900 38.0500   1
 -15  33  13 75.0000 41.7600   1
 -33  13  15 12.5900 37.6200   1
 -33  15  13 22.4100 51.1500   1
 -27  27   5 10.6100 61.1900   1
  -5  27  27 20.8500 48.2600   1
 -22  30  10 -2.4200 48.2900   1
 -18   2  34 24.2500 34.5400   1
 -30  22  10 -39.810 45.2400   1
 -22  18  26 66.4700 48.5500   1
 -18  22  26 -49.940 42.4600   1
  -2  38   6 113.650 55.9800   1
 -26  18  22 -20.410 42.7600   1
   2  38   6 145.310 50.3400   1
   6  38   2 58.2200 48.1600   1
  -6  38   2 111.560 42.4300   1
   6  -2  38 156.300 40.1600   1
  -2  -6  38 84.3900 38.0700   1
   6   2  38 131.140 39.4600   1
  -6  -2  38 -13.480 44.2700   1
   2   6  38 187.940 47.5100   1
  -6   2  38 100.770 45.0600   1
  -2   6  38 177.130 50.9900   1
   2  38   6 -3.5800 55.2300   1
  -2  38   6 -11.270 55.0800   1
  -6  38   2 89.2100 54.2200   1
  -6  38  -2 -4.0000 81.1600   1
 -22  26  18 40.7200 36.6100   1
 -10 -22  30 94.0300 40.8900   1
 -34  18   2 -41.540 69.2400   1
 -18  34  -2 6.53000 59.4600   1
 -18  34   2 -52.260 52.1600   1
  -2  34  18 -41.820 34.8500   1
   2  34  18 92.0700 34.7300   1
  -2  18  34 -3.5800 42.7900   1
   2  18  34 -43.490 33.5300   1
 -18  -2  34 45.4300 42.3800   1
 -18  26  22 -94.070 43.5400   1
  18   2  34 83.7400 47.4900   1
  18  -2  34 49.9700 57.1000   1
  -2 -18  34 38.7400 52.1000   1
 -18  34   2 9.71000 48.8800   1
 -26  22  18 -10.240 35.8000   1
 -30  22  10 21.6800 42.9900   1
 -22  30  10 272.470 67.0700   1
 -30  10  22 50.5200 33.1000   1
 -10  30  22 84.8700 44.3200   1
  10  30  22 -22.470 39.1600   1
 -22  10  30 61.2100 41.3900   1
 -10  22  30 24.6800 42.7000   1
  10  22  30 -84.030 40.0500   1
  22  10  30 2.03000 35.9800   1
 -32  20   8 352.330 65.5600   1
   8  20  32 557.210 59.7500   1
 -20   8  32 510.440 62.2100   1
  -8  20  32 516.070 58.3700   1
   8  32  20 459.340 54.0000   1
  -8  32  20 546.830 64.4300   1
 -20  32   8 395.870 65.6100   1
  20   8  32 682.040 72.7700   1
 -20  32   8 352.300 64.1800   1
 -32  20   8 457.640 66.5500   1
  -8 -20  32 555.340 72.1800   1
 -20  -8  32 503.580 64.1800   1
 -23  -1  31 16.7500 32.8700   1
 -19  13  31 262.680 40.3100   1
 -19  17  29 842.300 70.9500   1
 -29  23  11 54.1600 42.9600   1
 -13  19  31 197.930 38.0800   1
  13  19  31 177.230 37.6400   1
 -11  37  -1 1269.54 113.890   1
 -11  37   1 1241.70 116.140   1
  -1  37  11 1042.83 86.0500   1
   1  37  11 1260.73 101.630   1
 -13 -19  31 167.020 43.2900   1
 -31  19  13 127.960 38.9600   1
 -23  29  11 38.7700 49.6700   1
 -29  19  17 735.950 76.9200   1
 -19  29  17 891.510 80.5500   1
 -29  17  19 910.920 76.3300   1
 -17  29  19 700.480 69.5000   1
 -17  19  29 988.620 79.6800   1
  17  19  29 802.260 73.2900   1
  19  17  29 809.350 69.4800   1
 -29  23  11 24.2600 45.7500   1
  23  -1  31 40.0200 40.0600   1
  23   1  31 7.81000 38.3300   1
 -23  29  11 -22.700 51.9300   1
 -23   1  31 -30.740 40.7500   1
  -1  23  31 27.4000 32.7600   1
   1  23  31 11.5100 32.0400   1
  -1  31  23 -4.2700 40.6000   1
   1  31  23 -29.120 45.7500   1
 -23  31   1 -115.57 55.0200   1
 -31  23   1 -164.95 69.3300   1
 -23  31  -1 149.380 61.6100   1
 -31  23  -1 -40.050 82.4600   1
  23  11  29 -44.100 43.7300   1
  11  23  29 182.710 47.9900   1
 -23  11  29 46.3700 32.9500   1
 -11  23  29 48.5000 43.5700   1
  11  37   1 964.040 86.9500   1
 -11  37  -1 807.760 76.1900   1
  19  13  31 320.760 51.7400   1
 -31  19  13 218.120 46.0100   1
 -19  31  13 186.990 53.8700   1
 -31  13  19 184.750 46.9000   1
  11   1  37 1199.22 93.8600   1
  11  -1  37 1179.16 97.1500   1
  -1 -11  37 1280.93 100.050   1
 -29  11  23 120.030 34.4600   1
 -11  29  23 -19.310 34.3100   1
  11  29  23 33.8500 39.2300   1
   1 -11  37 1151.17 91.9900   1
 -29  25   5 126.740 56.2500   1
 -25  29  -5 -30.610 78.6500   1
 -25  29   5 103.140 64.7100   1
 -29  25   5 120.690 52.1000   1
 -29   5  25 53.3300 39.8300   1
  -5  29  25 102.700 43.4500   1
   5  29  25 104.700 47.4900   1
  -5  25  29 109.130 48.3500   1
 -25   5  29 43.9200 32.7300   1
   5  25  29 78.7400 33.2700   1
  25   5  29 25.8000 45.8700   1
 -25  29   5 78.9500 47.0400   1
   1  11  37 1191.89 98.8400   1
  -1  11  37 1164.43 90.2900   1
 -11   1  37 1212.81 99.9000   1
 -11  -1  37 1269.98 99.5600   1
   0 -14  36 1014.16 85.3600   1
 -14  36   0 805.010 82.1900   1
 -12  18  32 119.460 43.2700   1
 -18  12  32 64.1000 34.1000   1
 -12  32  18 160.020 47.7300   1
 -32  12  18 73.4100 36.6100   1
 -18  32  12 36.0000 41.5900   1
 -32  18  12 188.700 45.7800   1
 -24  30  -4 14.4000 61.8100   1
 -30  24   4 -121.05 66.1100   1
 -24  30   4 43.0900 50.7100   1
   4  30  24 42.0000 40.2800   1
   4  24  30 37.3900 45.3700   1
   0  14  36 923.680 83.3800   1
 -14   0  36 1007.40 81.1800   1
 -14  36   0 1217.57 110.440   1
 -24  30   4 -21.650 46.9600   1
  -4  24  30 15.7200 32.8900   1
   0  36  14 1126.14 95.0100   1
 -18  32  12 -74.540 40.4600   1
 -12 -18  32 88.2700 48.6400   1
 -24   4  30 4.62000 39.8900   1
  -4  30  24 27.9300 41.1400   1
  18  12  32 162.740 46.6700   1
  12  18  32 194.270 44.7400   1
  24   4  30 93.5400 48.1900   1
  14   0  36 1188.89 102.360   1
 -34  18   4 192.890 80.9700   1
 -18  34   4 152.250 53.0100   1
  -4  34  18 131.100 50.4700   1
   4  34  18 208.130 38.0300   1
  -4  18  34 140.100 40.4100   1
 -18   4  34 84.4200 36.1500   1
 -18  -4  34 154.640 38.4900   1
  18   4  34 119.390 47.7700   1
  -4 -18  34 161.720 44.1000   1
  18  -4  34 115.080 45.0700   1
 -18  34   4 122.570 60.7000   1
   6  38   4 57.3800 38.3100   1
  -6  38   4 -73.190 39.9600   1
  -6  28  26 45.7200 33.9500   1
 -10  36  10 657.410 72.2500   1
   4  38   6 -17.130 53.5000   1
  -4  38   6 13.4800 39.5300   1
 -34  12  14 433.930 61.8700   1
 -10  36  10 446.960 63.9900   1
 -18  34  -4 218.720 68.1200   1
 -14  34  12 526.070 66.2500   1
 -12 -14  34 407.130 59.1000   1
 -30  20  14 218.360 43.9600   1
 -14  12  34 430.850 48.1900   1
  14  12  34 510.120 53.6300   1
 -14 -12  34 485.260 54.9300   1
  12  14  34 376.760 53.2600   1
 -12  14  34 424.110 48.1800   1
 -34  14  12 485.590 59.2700   1
 -14  20  30 188.790 37.8200   1
 -20  14  30 219.560 45.3200   1
 -14  30  20 240.740 49.4100   1
 -30  14  20 217.070 53.4100   1
 -12  34  14 511.450 62.6900   1
 -26  26  12 661.960 73.4300   1
 -26  12  26 746.390 73.3500   1
 -12  26  26 763.170 71.3300   1
  12  26  26 655.340 59.2200   1
 -26  26  12 522.810 68.4100   1
 -30  20  14 115.550 53.7400   1
  20  14  30 192.990 53.0700   1
   4  18  34 261.180 40.9300   1
  14  20  30 207.250 45.6400   1
 -20  30  14 180.840 52.3100   1
 -28   6  26 22.3400 32.6000   1
  -6  26  28 6.94000 34.1500   1
 -26   6  28 100.730 35.2900   1
   6  28  26 45.2100 38.8600   1
   6  26  28 31.7600 31.9300   1
  26   6  28 55.2200 46.0400   1
  -6  38  -4 -44.950 58.2000   1
   4  38   6 -0.6200 55.0900   1
  -6  38   4 -163.94 57.8400   1
  -4  38   6 -126.63 54.1600   1
  -4   6  38 5.55000 43.6100   1
  -6   4  38 -40.430 41.9100   1
   4   6  38 -13.090 35.4200   1
  -6  -4  38 15.1400 51.4000   1
   6   4  38 5.10000 44.1900   1
  -4  -6  38 -58.650 36.7000   1
   4  -6  38 83.1800 47.4000   1
   6  -4  38 21.0300 53.2800   1
 -10  10  36 632.670 59.2300   1
  10  10  36 639.700 65.3700   1
 -26  28   6 18.6200 59.2100   1
  10 -10  36 863.720 91.9300   1
 -10 -10  36 592.370 59.4100   1
  14   2  36 791.430 75.6700   1
 -14  36   2 553.930 66.2200   1
 -14  -2  36 767.040 67.8500   1
 -28  26   6 34.0900 37.2800   1
 -26  28   6 -116.39 55.5300   1
   2  14  36 850.390 71.3100   1
 -14   2  36 779.320 71.9100   1
   2 -14  36 973.850 89.0400   1
  14  -2  36 843.990 74.5400   1
  -2 -14  36 859.480 81.4600   1
  -2  14  36 934.630 76.6900   1
  -2  36  14 744.540 77.0500   1
   2  36  14 845.890 77.7400   1
 -14  36   2 804.740 83.2300   1
 -14  36  -2 1038.03 101.050   1
 -36  14   2 908.080 94.9000   1
 -28  26   6 -24.640 62.6700   1
 -17  33  11 -84.060 40.7600   1
 -23  31   3 -60.920 37.8500   1
  11  37   3 517.340 56.9600   1
 -11  37   3 552.660 69.4800   1
 -19  33   7 495.000 63.6000   1
 -15  35   7 -41.120 49.5900   1
   7  37   9 103.010 40.5000   1
  -7  37   9 92.3600 50.9200   1
  -9  37   7 56.4300 41.5700   1
   9  37   7 142.340 41.8700   1
;
_shelx_hkl_checksum              27639
_shelx_fab_checksum              713
_shelx_fab_file
;
    2    2    2   -702.02      0.00
    1    3    3    175.33      0.00
    2    2    4     84.28      0.00
    3    3    3   -352.17      0.00
    1    1    5   -168.87      0.00
    1    3    5     69.48      0.00
    0    0    6    123.45      0.00
    0    2    6    -62.43      0.00
    3    3    5   -135.34      0.00
    4    4    4     37.38      0.00
    1    1    7     66.83      0.00
    1    5    5    145.67      0.00
    0    4    6    -48.71      0.00
    2    4    6      3.61      0.00
    3    5    5     -7.22      0.00
    1    3    7    -69.91      0.00
    0    0    8    158.33      0.00
    3    3    7     85.23      0.00
    0    2    8      2.06      0.00
    4    4    6      0.80      0.00
    2    2    8     16.96      0.00
    0    6    6    150.31      0.00
    1    5    7     36.94      0.00
    5    5    5    -11.29      0.00
    2    6    6    -45.55      0.00
    0    4    8    -65.77      0.00
    3    5    7    -31.39      0.00
    1    1    9     74.80      0.00
    2    4    8     14.00      0.00
    4    6    6    -73.52      0.00
    1    3    9    -71.24      0.00
    4    4    8     61.27      0.00
    5    5    7     14.93      0.00
    1    7    7    -51.74      0.00
    3    3    9    -47.87      0.00
    0    6    8     14.60      0.00
    0    0   10     10.19      0.00
    2    6    8    -24.10      0.00
    0    2   10     53.01      0.00
    1    5    9    -18.38      0.00
    3    7    7   -104.87      0.00
    2    2   10    -13.65      0.00
    6    6    6    -11.45      0.00
    3    5    9     49.58      0.00
    0    4   10    -26.04      0.00
    4    6    8     12.87      0.00
    2    4   10    -11.72      0.00
    1    1   11     29.25      0.00
    5    7    7     -6.87      0.00
    0    8    8     71.62      0.00
    1    3   11     25.68      0.00
    1    7    9     -7.66      0.00
    5    5    9     74.98      0.00
    4    4   10     46.83      0.00
    2    8    8    -32.58      0.00
    0    6   10    -76.69      0.00
    6    6    8     27.18      0.00
    3    3   11    -50.23      0.00
    3    7    9      4.96      0.00
    2    6   10     -6.77      0.00
    4    8    8     17.80      0.00
    0    0   12     11.02      0.00
    7    7    7     -0.55      0.00
    1    5   11    -26.26      0.00
    0    2   12      5.87      0.00
    4    6   10     63.84      0.00
    2    2   12    -17.74      0.00
    5    7    9     26.68      0.00
    3    5   11     14.80      0.00
    0    4   12     25.26      0.00
    1    9    9     40.54      0.00
    0    8   10     19.57      0.00
    6    8    8    -11.44      0.00
    2    4   12    -23.48      0.00
    2    8   10     -2.53      0.00
    1    1   13    -38.50      0.00
    1    7   11    -13.01      0.00
    5    5   11     57.22      0.00
    3    9    9     -5.14      0.00
    6    6   10     -7.86      0.00
    4    4   12      3.16      0.00
    1    3   13     -3.49      0.00
    3    7   11     15.42      0.00
    7    7    9    -25.63      0.00
    4    8   10    -18.82      0.00
    0    6   12     10.73      0.00
    2    6   12     12.77      0.00
    5    9    9    -28.51      0.00
    3    3   13     -3.01      0.00
    8    8    8    -26.16      0.00
    1    5   13     13.44      0.00
    5    7   11    -18.80      0.00
    0    0   14      3.58      0.00
    4    6   12     17.93      0.00
    6    8   10    -23.27      0.00
    0    2   14    -22.63      0.00
    0   10   10     97.51      0.00
    3    5   13     -1.30      0.00
    1    9   11     32.44      0.00
    2   10   10      3.34      0.00
    2    2   14      1.41      0.00
    0    8   12    -15.99      0.00
    3    9   11    -16.82      0.00
    7    9    9    -11.08      0.00
    2    8   12     -0.67      0.00
    0    4   14     14.60      0.00
    6    6   12     -9.69      0.00
    4   10   10    -26.29      0.00
    2    4   14    -10.61      0.00
    1    7   13     -9.12      0.00
    7    7   11     -7.31      0.00
    5    5   13     -4.72      0.00
    4    8   12    -13.82      0.00
    3    7   13    -17.08      0.00
    5    9   11     -9.20      0.00
    1    1   15     12.49      0.00
    8    8   10     18.08      0.00
    4    4   14    -14.15      0.00
    0    6   14     33.57      0.00
    1    3   15      2.20      0.00
    2    6   14     -9.53      0.00
    6   10   10    -16.71      0.00
    1   11   11      0.29      0.00
    5    7   13    -15.74      0.00
    9    9    9     19.64      0.00
    3    3   15     18.70      0.00
    6    8   12    -17.00      0.00
    0   10   12      5.54      0.00
    4    6   14    -25.48      0.00
    2   10   12     -2.68      0.00
    1    5   15     37.94      0.00
    3   11   11    -27.68      0.00
    7    9   11      4.43      0.00
    1    9   13     -4.68      0.00
    0    0   16    -14.74      0.00
    3    5   15      2.82      0.00
    3    9   13     11.20      0.00
    0    8   14      2.17      0.00
    0    2   16     -8.13      0.00
    4   10   12     -2.05      0.00
    2    8   14     -9.81      0.00
    2    2   16    -12.02      0.00
    8   10   10     36.64      0.00
    5   11   11     -0.19      0.00
    7    7   13     -4.67      0.00
    6    6   14      1.65      0.00
    8    8   12     25.28      0.00
    0    4   16     12.49      0.00
    1    7   15      6.39      0.00
    5    5   15    -31.59      0.00
    5    9   13     13.73      0.00
    2    4   16     20.95      0.00
    4    8   14     -2.46      0.00
    6   10   12     10.44      0.00
    3    7   15    -20.00      0.00
    9    9   11     11.55      0.00
    4    4   16     -4.16      0.00
    0   12   12     12.40      0.00
    1   11   13     -3.81      0.00
    1    1   17     -7.89      0.00
    7   11   11     -3.32      0.00
    0    6   16     29.60      0.00
    2   12   12    -12.34      0.00
    2    6   16      0.90      0.00
    6    8   14     10.32      0.00
    0   10   14    -29.25      0.00
    7    9   13      8.32      0.00
    5    7   15      7.71      0.00
    1    3   17     -6.00      0.00
    3   11   13      4.12      0.00
    2   10   14     -3.42      0.00
   10   10   10     17.32      0.00
    4   12   12      8.13      0.00
    1    9   15    -14.26      0.00
    3    3   17     -8.81      0.00
    4    6   16    -13.26      0.00
    8   10   12     -7.10      0.00
    4   10   14     18.05      0.00
    1    5   17     12.15      0.00
    5   11   13      8.15      0.00
    3    9   15     12.44      0.00
    0    8   16    -10.35      0.00
    9   11   11      0.47      0.00
    3    5   17     -6.93      0.00
    7    7   15      6.55      0.00
    2    8   16     -6.39      0.00
    0    0   18     -0.05      0.00
    8    8   14     -2.85      0.00
    6   12   12      0.20      0.00
    6    6   16     -3.32      0.00
    0    2   18     10.71      0.00
    9    9   13     -9.51      0.00
    5    9   15     23.99      0.00
    6   10   14      1.76      0.00
    2    2   18     -2.38      0.00
    4    8   16     15.34      0.00
    5    5   17     -4.77      0.00
    7   11   13    -14.45      0.00
    1   13   13      5.79      0.00
    1    7   17      0.28      0.00
    0    4   18      7.75      0.00
    0   12   14     -4.65      0.00
    2    4   18     -4.35      0.00
    2   12   14     -3.09      0.00
   10   10   12     -2.41      0.00
    1   11   15    -17.22      0.00
    3    7   17     -1.04      0.00
    3   13   13     -0.80      0.00
    8   12   12      1.94      0.00
    7    9   15     -2.99      0.00
    3   11   15      6.36      0.00
    4    4   18     -8.42      0.00
    6    8   16      3.75      0.00
    4   12   14     -0.74      0.00
    0   10   16     -7.19      0.00
    8   10   14     -2.05      0.00
    2   10   16      1.27      0.00
    0    6   18    -12.30      0.00
    1    1   19      1.59      0.00
   11   11   11      4.91      0.00
    5    7   17     11.13      0.00
    5   13   13      8.97      0.00
    2    6   18     -9.52      0.00
    1    9   17     12.95      0.00
    1    3   19      1.39      0.00
    5   11   15      3.58      0.00
    9   11   13     -1.71      0.00
    4   10   16     17.70      0.00
    6   12   14     -4.19      0.00
    4    6   18      6.52      0.00
    3    3   19    -18.05      0.00
    3    9   17      2.41      0.00
    8    8   16     -6.96      0.00
    7    7   17     -3.81      0.00
    1    5   19     -4.69      0.00
    7   13   13     -3.63      0.00
    9    9   15    -10.24      0.00
   10   12   12     -0.34      0.00
    0    8   18    -10.00      0.00
    6   10   16      6.73      0.00
    0   14   14     21.72      0.00
    2    8   18     -0.37      0.00
    3    5   19      8.07      0.00
    5    9   17      6.11      0.00
    7   11   15      4.69      0.00
    1   13   15     -0.62      0.00
   10   10   14     -5.14      0.00
    2   14   14     -4.89      0.00
    6    6   18     -6.28      0.00
    0   12   16     -0.14      0.00
    0    0   20      8.56      0.00
    3   13   15     -4.79      0.00
    8   12   14     -0.94      0.00
    4    8   18     -4.62      0.00
    0    2   20      2.12      0.00
    2   12   16      3.29      0.00
    2    2   20     -1.27      0.00
    4   14   14     -3.26      0.00
    5    5   19     15.34      0.00
    1   11   17     -0.91      0.00
    1    7   19    -12.38      0.00
   11   11   13     -3.42      0.00
    4   12   16     13.86      0.00
    0    4   20     -1.75      0.00
    7    9   17     -6.04      0.00
    3    7   19      0.78      0.00
    3   11   17      9.08      0.00
    5   13   15     -1.80      0.00
    9   13   13      0.82      0.00
    2    4   20    -11.94      0.00
    8   10   16      0.11      0.00
    0   10   18     -0.42      0.00
    6    8   18     -8.50      0.00
    9   11   15      0.16      0.00
    2   10   18     -8.99      0.00
    6   14   14    -16.38      0.00
    4    4   20      7.70      0.00
   12   12   12      0.21      0.00
    5   11   17     -0.24      0.00
    5    7   19     -3.18      0.00
    0    6   20    -11.43      0.00
    6   12   16     -5.45      0.00
    4   10   18     -8.10      0.00
   10   12   14     -1.06      0.00
    2    6   20      0.01      0.00
    1    9   19      4.47      0.00
    7   13   15     -3.98      0.00
    1    1   21      3.66      0.00
    1    3   21     -2.62      0.00
    3    9   19     -2.95      0.00
    9    9   17     -1.45      0.00
    1   15   15     12.88      0.00
    4    6   20      6.71      0.00
    0   14   16      4.81      0.00
    8    8   18      2.88      0.00
    2   14   16      3.59      0.00
    8   14   14      8.62      0.00
   10   10   16     -5.62      0.00
    7   11   17      2.82      0.00
    1   13   17      6.27      0.00
    7    7   19     -2.51      0.00
   11   13   13     -1.63      0.00
    3    3   21      3.45      0.00
    3   15   15     -4.53      0.00
    6   10   18     -3.74      0.00
    0    8   20      2.26      0.00
    8   12   16      2.70      0.00
    3   13   17      0.88      0.00
    5    9   19     -3.47      0.00
    1    5   21     -5.82      0.00
   11   11   15    -12.07      0.00
    2    8   20      2.70      0.00
    4   14   16     -2.62      0.00
    0   12   18     -5.88      0.00
    6    6   20      8.94      0.00
    2   12   18    -10.35      0.00
    3    5   21      2.64      0.00
    5   15   15     -7.58      0.00
    9   13   15      8.56      0.00
    4    8   20     -7.11      0.00
    1   11   19      4.19      0.00
    5   13   17     -5.54      0.00
   12   12   14     -1.47      0.00
    0    0   22     30.66      0.00
    4   12   18     -3.09      0.00
    6   14   16     -0.50      0.00
    0    2   22      8.29      0.00
    8   10   18      2.21      0.00
    1    7   21      1.34      0.00
    9   11   17     -3.95      0.00
    7    9   19     -0.19      0.00
    3   11   19     -4.37      0.00
    5    5   21     14.69      0.00
    2    2   22      1.28      0.00
   10   14   14      2.12      0.00
    3    7   21     -2.12      0.00
    7   15   15     -4.31      0.00
    0    4   22      6.36      0.00
    6    8   20     -2.74      0.00
    0   10   20      8.36      0.00
   10   12   16     -5.10      0.00
    6   12   18     -2.94      0.00
    2    4   22      1.38      0.00
    2   10   20      3.88      0.00
    7   13   17     -2.55      0.00
   13   13   13     -2.15      0.00
    5   11   19     -2.68      0.00
    0   16   16     25.85      0.00
   11   13   15      0.31      0.00
    5    7   21      4.26      0.00
    1   15   17      8.06      0.00
    8   14   16      3.08      0.00
    2   16   16    -24.41      0.00
    4   10   20     -0.17      0.00
    4    4   22      5.44      0.00
    0    6   22     -0.04      0.00
    0   14   18      2.33      0.00
    1    9   21      9.06      0.00
    9    9   19     12.48      0.00
    3   15   17      7.42      0.00
    2    6   22     12.06      0.00
    2   14   18    -20.89      0.00
   10   10   18      2.20      0.00
    8    8   20      3.57      0.00
    4   16   16      4.12      0.00
   11   11   17     -3.70      0.00
    1   13   19     -4.63      0.00
    1    1   23     -8.63      0.00
    7   11   19     -2.97      0.00
    3    9   21      4.61      0.00
    9   15   15     -2.54      0.00
    8   12   18     -0.36      0.00
    6   10   20     -1.52      0.00
    4    6   22      2.12      0.00
    4   14   18      7.07      0.00
   12   14   14      2.93      0.00
    7    7   21     -4.14      0.00
    3   13   19      6.09      0.00
    9   13   17     -3.68      0.00
    1    3   23     -1.07      0.00
    5   15   17     -5.80      0.00
    0   12   20     14.21      0.00
   12   12   16     -5.21      0.00
    5    9   21      0.44      0.00
    3    3   23      3.22      0.00
    0    8   22     -3.85      0.00
    2   12   20      0.09      0.00
    6   16   16     -1.43      0.00
    2    8   22     -0.21      0.00
   10   14   16      7.05      0.00
    1    5   23      1.61      0.00
    5   13   19     -1.18      0.00
    6   14   18     -2.50      0.00
    6    6   22      4.51      0.00
    4   12   20      8.40      0.00
    3    5   23     -1.70      0.00
   13   13   15      3.65      0.00
    9   11   19     -8.79      0.00
    1   11   21      7.38      0.00
    7   15   17      0.40      0.00
    4    8   22      2.22      0.00
    8   10   20      0.53      0.00
   10   12   18      2.36      0.00
    3   11   21     -6.55      0.00
    7    9   21     -0.70      0.00
   11   15   15      7.97      0.00
    8   16   16     -0.73      0.00
    0    0   24     -3.90      0.00
    1   17   17     -5.24      0.00
    5    5   23     -3.31      0.00
   11   13   17      1.56      0.00
    1    7   23     -0.80      0.00
    7   13   19     -4.40      0.00
    6   12   20     -3.98      0.00
    0    2   24      2.94      0.00
    0   16   18     -2.77      0.00
    2    2   24     -5.13      0.00
    0   10   22      5.01      0.00
    2   16   18      1.24      0.00
    8   14   18      2.28      0.00
    6    8   22     -2.59      0.00
    1   15   19      3.82      0.00
    3    7   23     -6.10      0.00
    5   11   21    -11.61      0.00
    3   17   17      0.98      0.00
    2   10   22      0.41      0.00
   14   14   14      1.28      0.00
    0    4   24     -1.24      0.00
    9   15   17      9.97      0.00
    3   15   19      8.13      0.00
   12   14   16      6.07      0.00
    2    4   24     -1.08      0.00
    4   16   18     -8.13      0.00
    0   14   20     -6.51      0.00
    2   14   20     -4.60      0.00
    4   10   22      0.82      0.00
   10   10   20      9.67      0.00
    5   17   17     -5.43      0.00
   11   11   19      4.41      0.00
    5    7   23     -1.80      0.00
    9    9   21     -8.49      0.00
    8   12   20      6.65      0.00
    4    4   24    -10.96      0.00
    1   13   21      2.61      0.00
    1    9   23     -4.80      0.00
    9   13   19     -9.12      0.00
    5   15   19      1.24      0.00
    7   11   21    -10.20      0.00
   10   16   16     13.98      0.00
    4   14   20     -1.14      0.00
    0    6   24     -0.39      0.00
    8    8   22     -0.48      0.00
   12   12   18      2.75      0.00
    6   16   18      2.95      0.00
    2    6   24     -6.90      0.00
   13   15   15     -1.80      0.00
    3   13   21     -5.03      0.00
    3    9   23     -5.44      0.00
   10   14   18     -1.48      0.00
    6   10   22      0.12      0.00
   13   13   17      1.05      0.00
    7   17   17     -2.76      0.00
    1    1   25     -2.61      0.00
    7    7   23     -5.80      0.00
    0   12   22      4.96      0.00
    4    6   24      5.71      0.00
    2   12   22     -0.63      0.00
    6   14   20      2.07      0.00
    1    3   25     -5.83      0.00
    7   15   19      2.60      0.00
    5   13   21     -7.85      0.00
    5    9   23      5.28      0.00
   11   15   17    -17.74      0.00
    0    8   24     -5.20      0.00
    9   11   21      7.85      0.00
    3    3   25     -0.84      0.00
   10   12   20      9.07      0.00
    8   16   18      4.96      0.00
    4   12   22     -4.31      0.00
    2    8   24      4.08      0.00
    8   10   22      6.23      0.00
    6    6   24     -1.97      0.00
    0   18   18     10.06      0.00
   14   14   16      3.54      0.00
    1   11   23      0.58      0.00
    1   17   19     -1.32      0.00
   11   13   19      1.29      0.00
    1    5   25      3.74      0.00
    2   18   18     -1.52      0.00
    0   16   20      1.57      0.00
   12   16   16     17.24      0.00
    4    8   24     -4.17      0.00
    7    9   23     -1.56      0.00
    7   13   21     11.56      0.00
    3   17   19     -6.26      0.00
    3   11   23      1.10      0.00
    9   17   17     -1.76      0.00
    3    5   25     -1.34      0.00
    2   16   20     -5.82      0.00
    8   14   20      7.07      0.00
    6   12   22      4.66      0.00
   12   14   18      4.88      0.00
    4   18   18      1.62      0.00
    1   15   21     -7.91      0.00
    9   15   19      5.15      0.00
    4   16   20      3.63      0.00
    1    7   25      2.67      0.00
    3   15   21     11.27      0.00
    5   11   23     -3.04      0.00
    5   17   19      0.43      0.00
   15   15   15     -4.60      0.00
    5    5   25     -9.33      0.00
    0    0   26     -9.88      0.00
    0   10   24     -3.53      0.00
    6    8   24      0.28      0.00
   10   16   18      6.21      0.00
    0   14   22     -1.44      0.00
    0    2   26      0.86      0.00
    2   10   24      0.32      0.00
   11   11   21      6.42      0.00
   13   15   17      5.22      0.00
    3    7   25     -2.60      0.00
   10   10   22      1.67      0.00
    2   14   22     -1.75      0.00
    2    2   26      3.86      0.00
    6   18   18     -0.36      0.00
   12   12   20      3.77      0.00
    5   15   21     11.63      0.00
    9   13   21      4.39      0.00
    9    9   23      2.29      0.00
    4   10   24     -1.28      0.00
    0    4   26      1.74      0.00
    8   12   22      6.75      0.00
    6   16   20      6.93      0.00
    4   14   22      3.47      0.00
    2    4   26      4.29      0.00
   10   14   20      0.92      0.00
    5    7   25     -1.26      0.00
   13   13   19      5.19      0.00
    1   13   23     -3.47      0.00
    7   17   19     -0.59      0.00
    7   11   23      5.61      0.00
   11   17   17     -6.69      0.00
    8    8   24      2.98      0.00
   11   15   19     -5.01      0.00
    3   13   23     -1.02      0.00
    1    9   25     -1.13      0.00
   14   16   16     -9.06      0.00
    4    4   26      2.92      0.00
    6   10   24     -0.82      0.00
    0    6   26      6.24      0.00
    8   18   18      3.87      0.00
    7   15   21      5.94      0.00
    3    9   25     -2.31      0.00
    2    6   26      3.38      0.00
    6   14   22      0.78      0.00
   14   14   18    -10.76      0.00
    8   16   20      1.24      0.00
    0   12   24     -5.19      0.00
    5   13   23      3.20      0.00
    1   19   19      2.94      0.00
    7    7   25      0.13      0.00
   12   16   18     -5.49      0.00
    2   12   24     -3.86      0.00
    0   18   20     -5.44      0.00
   10   12   22     -1.26      0.00
    4    6   26     -4.35      0.00
    2   18   20      0.20      0.00
    1    1   27      1.51      0.00
   11   13   21     -2.29      0.00
    9   17   19     -2.62      0.00
    3   19   19      7.80      0.00
    9   11   23     -1.77      0.00
    1   17   21     -6.74      0.00
    5    9   25      0.49      0.00
    4   12   24      0.76      0.00
    3   17   21      4.04      0.00
   15   15   17     -8.43      0.00
    1    3   27      2.46      0.00
    0   16   22     -3.95      0.00
   12   14   20     -3.14      0.00
    4   18   20      6.83      0.00
    0    8   26      2.47      0.00
    8   10   24      2.07      0.00
    8   14   22     -3.01      0.00
    2    8   26      0.54      0.00
    2   16   22     -6.17      0.00
   13   17   17    -11.11      0.00
    5   19   19      6.92      0.00
    7   13   23     -2.48      0.00
    3    3   27     -1.98      0.00
    1   11   25      0.23      0.00
    9   15   21     -6.76      0.00
   10   18   18     -2.97      0.00
    6    6   26     -0.33      0.00
    1   15   23      1.72      0.00
    1    5   27      4.74      0.00
    3   11   25      2.70      0.00
    5   17   21      7.41      0.00
    7    9   25     -8.07      0.00
   13   15   19     -5.02      0.00
    4   16   22      8.33      0.00
    6   12   24      1.02      0.00
    4    8   26      1.85      0.00
   10   16   20     -8.09      0.00
    6   18   20     -2.89      0.00
    3    5   27      1.00      0.00
    3   15   23      5.28      0.00
   16   16   16      3.38      0.00
    7   19   19     -6.42      0.00
   11   17   19     -5.69      0.00
   11   11   23     -3.39      0.00
    5   11   25      4.17      0.00
   12   12   22     -9.81      0.00
    0   14   24      6.32      0.00
    6   16   22      0.53      0.00
    0   10   26     -8.29      0.00
   14   16   18    -10.66      0.00
    6    8   26      3.82      0.00
    2   14   24     -0.16      0.00
   10   10   24     -8.29      0.00
    1    7   27     -4.19      0.00
    7   17   21     -4.62      0.00
   13   13   21     -5.29      0.00
    5   15   23     -5.87      0.00
    9   13   23     -7.14      0.00
    5    5   27     -1.19      0.00
   10   14   22     -5.81      0.00
    2   10   26      3.46      0.00
    0    0   28     18.43      0.00
    8   12   24     -0.56      0.00
   11   15   21     -0.85      0.00
    9    9   25     -0.92      0.00
    3    7   27      4.84      0.00
    0    2   28     -5.48      0.00
    8   18   20     -9.70      0.00
    4   14   24     -0.58      0.00
   14   14   20     -7.47      0.00
    2    2   28      8.05      0.00
    4   10   26      3.36      0.00
   12   18   18     -5.48      0.00
    1   13   25      0.13      0.00
    7   11   25     -1.01      0.00
    0   20   20     -0.95      0.00
   12   16   20     -0.68      0.00
    0    4   28    -17.02      0.00
    3   13   25      0.23      0.00
    9   19   19     -1.24      0.00
    1   19   21      2.25      0.00
    7   15   23    -12.60      0.00
   15   17   17     -6.94      0.00
    5    7   27      5.02      0.00
    2    4   28     -2.56      0.00
    8   16   22     -1.20      0.00
    2   20   20      2.21      0.00
    8    8   26     12.62      0.00
    0   18   22      3.40      0.00
    6   14   24      1.16      0.00
    9   17   21     -5.13      0.00
    3   19   21      0.33      0.00
    1    9   27     -1.50      0.00
   15   15   19      4.48      0.00
    2   18   22      2.34      0.00
    6   10   26      9.76      0.00
    4   20   20     -5.77      0.00
    4    4   28      3.75      0.00
    1   17   23      1.29      0.00
   13   17   19      1.89      0.00
    3    9   27     -2.03      0.00
   11   13   23     -3.90      0.00
    5   13   25     -0.40      0.00
    0    6   28      2.84      0.00
    0   12   26     -4.03      0.00
   10   12   24     -1.85      0.00
    2    6   28      0.65      0.00
    4   18   22     -4.29      0.00
   12   14   22     -6.28      0.00
    2   12   26      1.65      0.00
   10   18   20     -2.42      0.00
    3   17   23     15.58      0.00
    7    7   27     -1.18      0.00
    5   19   21    -11.51      0.00
    9   11   25     -0.84      0.00
    0   16   24     -1.24      0.00
    5    9   27      0.81      0.00
    9   15   23     -8.70      0.00
   13   15   21     -1.98      0.00
    4   12   26      7.16      0.00
    4    6   28     -6.30      0.00
    2   16   24      2.41      0.00
    6   20   20     -1.66      0.00
   16   16   18     10.45      0.00
    8   14   24     -1.38      0.00
    8   10   26      3.50      0.00
   10   16   22     -4.51      0.00
    5   17   23     -8.45      0.00
    1    1   29      0.13      0.00
   11   19   19     -3.02      0.00
    7   13   25      2.97      0.00
    6   18   22     -0.90      0.00
   14   18   18      8.90      0.00
    4   16   24     -9.21      0.00
    0    8   28      0.28      0.00
   11   17   21      0.81      0.00
    7   19   21      1.83      0.00
    1   11   27     -0.48      0.00
    1   15   25      6.29      0.00
    1    3   29     -0.22      0.00
   14   16   20      7.08      0.00
    2    8   28      4.20      0.00
    6    6   28      0.55      0.00
    6   12   26     -2.31      0.00
    3   11   27     -0.78      0.00
    3   15   25     -2.95      0.00
    3    3   29     -1.19      0.00
    7    9   27     -0.20      0.00
    4    8   28     -1.78      0.00
    8   20   20      8.97      0.00
   12   12   24     -0.33      0.00
    7   17   23     -6.32      0.00
   13   13   23     -2.36      0.00
   17   17   17     14.04      0.00
    1    5   29     -1.37      0.00
   11   11   25      0.85      0.00
    6   16   24      1.32      0.00
   12   18   20      7.23      0.00
    8   18   22     -1.91      0.00
   10   14   24     -0.24      0.00
    0   14   26     -5.87      0.00
   15   17   19      8.58      0.00
   11   15   23      1.33      0.00
    9   13   25     -2.94      0.00
    3    5   29      2.89      0.00
    5   15   25     -3.10      0.00
    5   11   27      2.82      0.00
    2   14   26      2.60      0.00
   10   10   26     -3.46      0.00
   14   14   22      8.72      0.00
    9   19   21      1.52      0.00
    1   21   21      4.46      0.00
   12   16   22      5.96      0.00
    0   20   22     10.19      0.00
    0   10   28      0.44      0.00
    8   12   26      2.71      0.00
    6    8   28     -6.46      0.00
    2   10   28     -4.76      0.00
    2   20   22      1.03      0.00
    4   14   26     -4.76      0.00
    1   19   23      4.87      0.00
    1    7   29     -2.23      0.00
   15   15   21      8.90      0.00
    3   21   21    -12.14      0.00
   13   19   19      2.79      0.00
    5    5   29      0.28      0.00
    9    9   27    -10.41      0.00
    8   16   24      3.72      0.00
    9   17   23     -1.68      0.00
    7   11   27     -2.23      0.00
    7   15   25     -5.10      0.00
    1   13   27     -0.77      0.00
   13   17   21     13.69      0.00
    3    7   29     -1.60      0.00
    3   19   23    -14.81      0.00
   10   20   20      4.77      0.00
    0    0   30    -11.47      0.00
    4   20   22      0.28      0.00
    0   18   24      2.32      0.00
    4   10   28     -0.44      0.00
    2   18   24     -2.82      0.00
   16   18   18      4.57      0.00
    0    2   30      1.92      0.00
    3   13   27      2.23      0.00
    5   21   21     -8.34      0.00
    6   14   26     -0.14      0.00
    2    2   30      6.30      0.00
   10   18   22      2.05      0.00
   16   16   20      1.44      0.00
    8    8   28      1.01      0.00
    5    7   29     -2.42      0.00
   11   13   25      3.14      0.00
    5   19   23      0.06      0.00
    1   17   25     -1.20      0.00
    0    4   30     -4.62      0.00
    4   18   24     -0.09      0.00
   12   14   24      6.91      0.00
   14   18   20      7.25      0.00
    2    4   30     -2.27      0.00
    6   10   28     -3.51      0.00
    6   20   22     -2.56      0.00
   10   12   26      0.86      0.00
    1    9   29      5.51      0.00
   11   19   21      5.90      0.00
    3   17   25     -3.70      0.00
   13   15   23      5.63      0.00
    5   13   27      3.98      0.00
    0   12   28      3.12      0.00
    9   11   27     -3.43      0.00
    3    9   29     -3.59      0.00
    9   15   25      6.74      0.00
    7   21   21      7.09      0.00
    4    4   30      3.67      0.00
   10   16   24      1.55      0.00
    0   16   26      3.66      0.00
    2   12   28      5.58      0.00
    8   14   26      0.70      0.00
    2   16   26     -1.48      0.00
   14   16   22      0.94      0.00
    0    6   30     -6.17      0.00
    6   18   24     -3.28      0.00
    7   19   23      7.48      0.00
   11   17   23      5.66      0.00
    7    7   29      0.25      0.00
   17   17   19     -1.27      0.00
    5   17   25      8.67      0.00
    2    6   30      4.58      0.00
    4   12   28    -13.43      0.00
   12   20   20      1.19      0.00
    7   13   27     -6.14      0.00
   15   19   19     -0.39      0.00
    5    9   29     -2.73      0.00
    8   10   28      3.00      0.00
    8   20   22      1.04      0.00
    4   16   26    -11.49      0.00
   12   18   22      4.55      0.00
    4    6   30      7.26      0.00
    1   15   27      2.42      0.00
   15   17   21      1.93      0.00
    3   15   27     -1.12      0.00
    1    1   31      3.67      0.00
    9   21   21     10.84      0.00
   13   13   25      2.43      0.00
    1   11   29      0.54      0.00
    7   17   25     12.15      0.00
   12   12   26      5.18      0.00
    8   18   24      6.78      0.00
    0    8   30     12.32      0.00
    6   12   28      4.02      0.00
    2    8   30     -0.40      0.00
    0   22   22     -5.47      0.00
    6   16   26     -2.05      0.00
   14   14   24     -1.31      0.00
    1    3   31     -1.03      0.00
   13   19   21      1.52      0.00
    9   19   23     -1.65      0.00
    1   21   23     -0.76      0.00
    7    9   29      0.79      0.00
   11   15   25      6.48      0.00
    3   11   29      4.53      0.00
   11   11   27     -3.23      0.00
    2   22   22     -0.27      0.00
   10   14   26      4.35      0.00
    6    6   30      3.44      0.00
   18   18   18      0.20      0.00
   12   16   24      1.58      0.00
    0   20   24     -9.11      0.00
    3   21   23      3.33      0.00
    3    3   31     -0.36      0.00
    9   13   27     -0.19      0.00
   15   15   23      4.38      0.00
    5   15   27     -3.05      0.00
    4    8   30     -2.74      0.00
   16   18   20     -0.55      0.00
    2   20   24     -3.77      0.00
    0   14   28     -4.77      0.00
   10   20   22      8.88      0.00
    4   22   22      1.47      0.00
    2   14   28      0.31      0.00
   10   10   28     -4.43      0.00
   13   17   23     -4.40      0.00
    1    5   31     -4.07      0.00
    5   11   29     -0.15      0.00
    1   19   25     -7.39      0.00
    4   20   24      6.64      0.00
    8   12   28     -2.49      0.00
    3    5   31      1.93      0.00
    5   21   23      7.44      0.00
    3   19   25      6.33      0.00
    9   17   25      8.98      0.00
    4   14   28      4.28      0.00
   14   20   20     -5.05      0.00
    8   16   26      1.34      0.00
   16   16   22      0.66      0.00
   10   18   24     -1.27      0.00
    0   10   30    -15.83      0.00
    0   18   26     -7.98      0.00
    6    8   30     -0.09      0.00
    7   15   27      2.31      0.00
   11   21   21     -0.30      0.00
    9    9   29     -3.24      0.00
   14   18   22      2.11      0.00
    6   22   22      1.35      0.00
    2   18   26     -6.41      0.00
    2   10   30      1.94      0.00
    1    7   31     -0.62      0.00
    7   11   29     -1.81      0.00
   11   19   23     -1.83      0.00
   17   19   19     -5.06      0.00
    5   19   25     -6.84      0.00
    5    5   31      0.71      0.00
    1   13   29      3.59      0.00
    6   20   24     -0.11      0.00
    4   18   26     -0.69      0.00
    4   10   30      2.56      0.00
    6   14   28     -2.43      0.00
   12   14   26      3.69      0.00
    3   13   29      3.64      0.00
   13   15   25     -0.12      0.00
    7   21   23      5.51      0.00
    1   17   27      8.05      0.00
    3    7   31      0.39      0.00
   11   13   27     -0.37      0.00
   17   17   21     -2.64      0.00
    0    0   32    -11.62      0.00
    3   17   27      8.29      0.00
   15   19   21     -6.48      0.00
   12   20   22     -5.87      0.00
   10   12   28      4.51      0.00
    8    8   30      7.14      0.00
    0    2   32      4.51      0.00
   14   16   24     -1.38      0.00
    2    2   32     -2.10      0.00
   10   16   26      3.96      0.00
    8   22   22      3.63      0.00
    7   19   25      0.35      0.00
    5    7   31      0.11      0.00
    5   13   29      2.08      0.00
    9   15   27     -6.90      0.00
   11   17   25     -0.41      0.00
    6   10   30      0.56      0.00
    6   18   26      5.43      0.00
    0   16   28     11.29      0.00
    0    4   32     -0.53      0.00
    8   20   24    -12.94      0.00
    5   17   27      3.91      0.00
    1    9   31      2.39      0.00
   15   17   23     -5.65      0.00
    9   11   29     -4.39      0.00
    2   16   28      1.15      0.00
    2    4   32      0.53      0.00
    0   12   30     -5.46      0.00
   12   18   24     -0.45      0.00
    8   14   28      2.72      0.00
    2   12   30    -10.25      0.00
   18   18   20     -8.19      0.00
    3    9   31      2.38      0.00
    9   21   23      0.28      0.00
   13   21   21     -0.67      0.00
    4   16   28     -2.70      0.00
    4    4   32     -9.58      0.00
   16   20   20    -14.56      0.00
    7   13   29      7.09      0.00
    1   23   23      0.39      0.00
    7    7   31      5.25      0.00
   13   19   23     -6.61      0.00
    4   12   30      0.79      0.00
    0   22   24     -2.50      0.00
    0    6   32      1.82      0.00
   16   18   22     -3.27      0.00
    2   22   24     -1.09      0.00
    2    6   32     -7.62      0.00
    8   18   26     -1.16      0.00
    8   10   30     -1.30      0.00
    3   23   23      1.76      0.00
    5    9   31     -1.43      0.00
    9   19   25      2.19      0.00
    7   17   27     -1.17      0.00
    1   15   29     -5.20      0.00
    1   21   25      2.14      0.00
   13   13   27      1.85      0.00
   10   22   22     -0.43      0.00
   14   14   26     -4.16      0.00
   12   12   28      4.73      0.00
   11   15   27     -1.93      0.00
    3   15   29     -2.94      0.00
    3   21   25      2.63      0.00
   15   15   25      1.72      0.00
   10   20   24     -3.29      0.00
    6   16   28      2.11      0.00
    4   22   24     -0.29      0.00
    0   20   26     -7.39      0.00
    4    6   32      3.68      0.00
   12   16   26      4.45      0.00
   10   14   28      1.28      0.00
   14   20   22     -6.69      0.00
    2   20   26     -5.55      0.00
    6   12   30     -3.65      0.00
   11   11   29     -1.62      0.00
   19   19   19    -16.08      0.00
   13   17   25     -4.93      0.00
    1   11   31      8.54      0.00
    5   23   23     -3.51      0.00
   16   16   24    -16.23      0.00
    0    8   32     -7.91      0.00
    3   11   31      0.28      0.00
    7    9   31      1.58      0.00
   11   21   23     -3.52      0.00
    1   19   27     12.98      0.00
    1    1   33     -1.09      0.00
    5   15   29     -0.48      0.00
    5   21   25      6.89      0.00
    9   13   29     -4.87      0.00
   17   19   21     -3.86      0.00
    2    8   32      1.51      0.00
    4   20   26      3.90      0.00
   14   18   24     -4.19      0.00
    6   22   24     -3.77      0.00
    6    6   32     -2.52      0.00
    0   14   30    -14.50      0.00
    1    3   33     -2.72      0.00
    9   17   27      1.51      0.00
    3   19   27      1.22      0.00
   10   10   30      7.12      0.00
    2   14   30     -7.94      0.00
   10   18   26      2.13      0.00
    4    8   32     -2.63      0.00
    8   16   28      1.76      0.00
    5   11   31     -4.96      0.00
    3    3   33     14.40      0.00
   17   17   23      6.23      0.00
   11   19   25     -3.75      0.00
    7   23   23      1.62      0.00
   15   21   21     -4.02      0.00
    0   18   28     -6.16      0.00
    8   12   30      4.84      0.00
    6   20   26      3.20      0.00
    2   18   28      0.33      0.00
   12   22   22     -1.13      0.00
    4   14   30     -3.85      0.00
    1    5   33     -1.37      0.00
   15   19   23    -19.94      0.00
    7   21   25      7.66      0.00
    5   19   27     -2.54      0.00
    7   15   29     -3.43      0.00
   12   20   24      0.75      0.00
    9    9   31     -0.54      0.00
    3    5   33     -7.52      0.00
   13   15   27     -5.42      0.00
    4   18   28     -2.85      0.00
   12   14   28     -8.56      0.00
    8   22   24     -2.11      0.00
    6    8   32      1.02      0.00
    0   10   32     10.96      0.00
   18   20   20      2.29      0.00
   14   16   26      1.84      0.00
    2   10   32     -8.91      0.00
    7   11   31     -0.36      0.00
    1   17   29     -4.84      0.00
   11   13   29     -0.75      0.00
    1   13   31     14.11      0.00
   18   18   22      7.17      0.00
    6   14   30      2.97      0.00
    3   13   31      1.79      0.00
    7   19   27     -4.48      0.00
    1    7   33     -2.56      0.00
    9   23   23     -7.89      0.00
    3   17   29     -1.62      0.00
   13   21   23      4.49      0.00
   15   17   25     -3.75      0.00
   11   17   27     -6.55      0.00
    5    5   33     -2.38      0.00
    8   20   26      2.92      0.00
    4   10   32     -0.85      0.00
   16   20   22     10.71      0.00
   10   16   28      3.73      0.00
   12   18   26     -1.86      0.00
    6   18   28      2.48      0.00
   10   12   30      7.79      0.00
    3    7   33     -2.57      0.00
    9   15   29      3.27      0.00
    9   21   25     -3.98      0.00
    8    8   32     -0.37      0.00
    0   24   24      3.07      0.00
    1   23   25     -0.12      0.00
    5   13   31     -1.41      0.00
    5   17   29      0.80      0.00
   13   19   25     -1.34      0.00
    0    0   34     -5.55      0.00
   16   18   24      1.16      0.00
    2   24   24      4.95      0.00
    0   16   30     -9.55      0.00
    8   14   30      2.69      0.00
    6   10   32     -2.38      0.00
    0   22   26      2.08      0.00
    2   16   30      3.05      0.00
    0    2   34      2.78      0.00
   10   22   24     -8.56      0.00
    5    7   33     -1.83      0.00
   19   19   21      3.34      0.00
    3   23   25      0.51      0.00
    9   11   31     -1.38      0.00
    2   22   26      3.60      0.00
    2    2   34     -4.37      0.00
   14   22   22      3.26      0.00
    0   12   32     -5.36      0.00
    4   24   24    -11.45      0.00
    9   19   27     -5.06      0.00
    1   21   27      3.41      0.00
    1    9   33     -3.85      0.00
   17   21   21      2.32      0.00
    4   16   30      0.07      0.00
    0    4   34     10.99      0.00
    2   12   32     -1.35      0.00
   14   20   24      2.48      0.00
    8   18   28     -2.96      0.00
   10   20   26    -11.15      0.00
    2    4   34     -2.00      0.00
   14   14   28      9.77      0.00
    4   22   26     -3.24      0.00
   17   19   23      1.16      0.00
    5   23   25     -6.18      0.00
    7   17   29      0.68      0.00
   15   15   27     -9.82      0.00
    3   21   27     15.38      0.00
   11   23   23     -3.84      0.00
    7   13   31      1.44      0.00
    3    9   33      8.98      0.00
   13   13   29     -6.66      0.00
    0   20   28     -9.06      0.00
    4   12   32      9.78      0.00
   12   16   28      7.06      0.00
   11   21   25      2.67      0.00
   13   17   27     -0.52      0.00
    7    7   33      3.05      0.00
    1   15   31      3.82      0.00
   11   15   29     -9.76      0.00
   16   16   26      0.65      0.00
    4    4   34      6.05      0.00
   12   12   30     -4.64      0.00
    8   10   32      0.99      0.00
    2   20   28      0.24      0.00
    6   24   24     -3.39      0.00
    6   16   30      2.30      0.00
    0    6   34      3.75      0.00
   15   21   23     -7.31      0.00
    3   15   31     -2.50      0.00
    5    9   33      1.21      0.00
    5   21   27     -5.64      0.00
   10   14   30      3.63      0.00
    6   22   26     -4.54      0.00
   14   18   26     -1.10      0.00
    2    6   34     14.54      0.00
   20   20   20      0.32      0.00
    4   20   28     -0.98      0.00
    7   23   25     -2.75      0.00
   11   11   31     11.30      0.00
    1   19   29      0.00      0.00
   17   17   25      7.06      0.00
   12   22   24      0.43      0.00
    6   12   32      0.21      0.00
    4    6   34      0.30      0.00
   10   18   28      0.09      0.00
   18   20   22      5.28      0.00
    3   19   29     -2.85      0.00
    5   15   31     -1.28      0.00
    9   17   29     -5.67      0.00
    9   13   31     -5.22      0.00
   15   19   25     -3.80      0.00
    1   11   33      0.96      0.00
   11   19   27     -3.02      0.00
    8   24   24      5.11      0.00
    7    9   33     -2.55      0.00
    3   11   33     -1.94      0.00
    7   21   27      3.47      0.00
    0   14   32      2.28      0.00
   12   20   26      2.81      0.00
    6   20   28     -5.13      0.00
    8   16   30     -0.82      0.00
    0    8   34     10.67      0.00
    2    8   34    -10.21      0.00
   16   22   22      5.82      0.00
   10   10   32     -3.16      0.00
    2   14   32     16.12      0.00
    8   22   26     -3.00      0.00
    0   18   30     -1.02      0.00
   18   18   24      2.70      0.00
    5   19   29     -2.55      0.00
    1    1   35     -5.71      0.00
   13   23   23     -1.10      0.00
    2   18   30      1.70      0.00
    6    6   34     -3.20      0.00
   16   20   24      3.49      0.00
    8   12   32      3.15      0.00
    7   15   31      2.86      0.00
    1    3   35      6.56      0.00
    9   23   25      9.96      0.00
    5   11   33     -7.06      0.00
   13   21   25      7.36      0.00
   13   15   29     -7.23      0.00
    4    8   34      9.00      0.00
    4   14   32      3.28      0.00
   14   16   28     -2.30      0.00
    4   18   30      0.45      0.00
   12   14   30      5.56      0.00
   15   17   27     -1.16      0.00
    3    3   35      2.55      0.00
   19   21   21      4.51      0.00
    8   20   28     -5.17      0.00
    9    9   33      2.35      0.00
    7   19   29      2.69      0.00
    1    5   35      2.19      0.00
    9   21   27      4.82      0.00
    1   25   25      2.01      0.00
   19   19   23     -2.70      0.00
   11   17   29     -4.23      0.00
   11   13   31      1.70      0.00
    1   17   31      0.35      0.00
   12   18   28     -1.69      0.00
    0   24   26      4.50      0.00
   10   24   24     -4.42      0.00
   10   16   30      0.65      0.00
    6    8   34     -2.47      0.00
    0   10   34      0.87      0.00
   16   18   26      3.96      0.00
    6   14   32     -0.94      0.00
   14   22   24      6.86      0.00
    2   24   26     -1.20      0.00
   17   21   23     -4.42      0.00
    3    5   35     -2.43      0.00
   13   19   27     14.62      0.00
    3   17   31      3.96      0.00
    1   23   27     -0.06      0.00
    1   13   33     -8.81      0.00
    3   25   25      2.65      0.00
    7   11   33     -0.80      0.00
    6   18   30     -1.89      0.00
    2   10   34     -4.92      0.00
   10   22   26      5.19      0.00
    9   15   31     -5.02      0.00
    3   23   27      1.78      0.00
    3   13   33     -4.03      0.00
   10   12   32     -4.66      0.00
    0   22   28      0.87      0.00
    4   24   26      0.39      0.00
   14   20   26      1.16      0.00
    2   22   28    -12.40      0.00
    4   10   34     -3.93      0.00
   11   23   25     -1.32      0.00
    1    7   35      1.63      0.00
    5    5   35     -4.93      0.00
   17   19   25      6.19      0.00
    5   17   31      3.02      0.00
    5   25   25     -0.33      0.00
    0   16   32      3.21      0.00
   15   23   23     -1.41      0.00
    3    7   35     -4.43      0.00
    9   19   29     -0.67      0.00
    5   13   33     -3.87      0.00
    5   23   27     -0.06      0.00
    1   21   29      2.90      0.00
    4   22   28     -4.56      0.00
    8   14   32      0.74      0.00
   20   20   22     -2.02      0.00
    2   16   32      4.56      0.00
    8    8   34     -6.71      0.00
   10   20   28      2.21      0.00
    8   18   30      0.44      0.00
    6   24   26      2.77      0.00
    3   21   29      2.71      0.00
   15   21   25     -0.59      0.00
   11   21   27     -1.35      0.00
   15   15   29     -8.30      0.00
    9   11   33      0.46      0.00
    6   10   34     -8.85      0.00
   14   14   30     -1.25      0.00
   18   22   22      6.32      0.00
    4   16   32      0.67      0.00
   12   24   24     -3.25      0.00
    0    0   36     -4.58      0.00
   16   16   28      6.60      0.00
    7   17   31     -1.65      0.00
    7   25   25      2.92      0.00
    5    7   35      4.12      0.00
   13   13   31     11.53      0.00
   13   17   29      2.83      0.00
    0    2   36     -2.18      0.00
    0   12   34     -5.84      0.00
    0   20   30     -0.45      0.00
   12   16   30      0.14      0.00
   18   20   24      5.85      0.00
   12   22   26      1.42      0.00
   14   18   28     -1.53      0.00
    2   12   34      2.56      0.00
    2    2   36     -0.31      0.00
    2   20   30     -1.96      0.00
    6   22   28      2.65      0.00
   11   15   31      2.84      0.00
    5   21   29     -1.62      0.00
    1    9   35      3.87      0.00
    7   13   33     -2.23      0.00
    7   23   27      2.32      0.00
   17   17   27      1.67      0.00
    0    4   36      1.72      0.00
   12   12   32    -10.92      0.00
    3    9   35      5.29      0.00
   15   19   27      2.81      0.00
    1   15   33    -11.57      0.00
    4   20   30     -2.86      0.00
   16   22   24      2.86      0.00
    4   12   34     -2.57      0.00
    8   24   26     -2.52      0.00
    6   16   32     -0.96      0.00
    2    4   36     -1.40      0.00
    8   10   34      1.27      0.00
   10   14   32      2.72      0.00
    7    7   35      4.70      0.00
   21   21   21      3.97      0.00
   11   19   29      1.45      0.00
   13   23   25     -1.68      0.00
    3   15   33     -8.71      0.00
    1   19   31      3.82      0.00
   10   18   30      1.63      0.00
   18   18   26      4.08      0.00
   12   20   28     -5.17      0.00
    4    4   36     -6.17      0.00
    7   21   29      2.17      0.00
    9   17   31     -0.96      0.00
    3   19   31     -0.10      0.00
    5    9   35      7.09      0.00
    9   25   25     -1.87      0.00
   11   11   33      4.60      0.00
   19   21   23     -5.34      0.00
    8   22   28      3.64      0.00
   16   20   26      3.69      0.00
    0    6   36      1.82      0.00
    6   20   30     -4.52      0.00
    6   12   34      6.22      0.00
    2    6   36     -3.28      0.00
    9   13   33     -8.40      0.00
    5   15   33     -0.27      0.00
    9   23   27    -10.39      0.00
   13   21   27     -0.71      0.00
    8   16   32     -4.49      0.00
    1   11   35     -2.10      0.00
    5   19   31     -1.88      0.00
   19   19   25    -11.26      0.00
   17   23   23      3.97      0.00
    4    6   36     -1.06      0.00
   14   24   24      1.13      0.00
    0   18   32      5.00      0.00
   14   16   30      3.26      0.00
   10   24   26     -2.11      0.00
    0   26   26     -5.04      0.00
    0   14   34      9.73      0.00
    2   18   32      1.47      0.00
    7    9   35     13.26      0.00
   17   21   25      7.57      0.00
   15   17   29      3.11      0.00
   13   15   31     -2.50      0.00
    1   25   27     -4.47      0.00
    3   11   35      5.52      0.00
   10   10   34     -3.59      0.00
    2   14   34     -1.87      0.00
    2   26   26     -5.05      0.00
   14   22   26     -0.17      0.00
    0    8   36     -5.74      0.00
    0   24   28     -6.68      0.00
    7   15   33      6.27      0.00
    9   21   29      0.50      0.00
    3   25   27     -0.07      0.00
   16   18   28     -2.68      0.00
    2   24   28     -2.32      0.00
    2    8   36     -0.80      0.00
    8   12   34      4.72      0.00
    4   18   32      1.53      0.00
    8   20   30     -1.59      0.00
   12   14   32     -1.82      0.00
    4   14   34      6.11      0.00
   10   22   28     -1.54      0.00
    4   26   26      5.72      0.00
   20   22   22      8.84      0.00
   12   18   30     -1.75      0.00
    6    6   36    -19.33      0.00
   13   19   29      0.23      0.00
    1    1   37     -0.82      0.00
    5   11   35     -0.09      0.00
    7   19   31      1.36      0.00
   11   17   31      2.04      0.00
   11   25   25     13.86      0.00
    1   23   29     -1.51      0.00
    4   24   28     10.13      0.00
   20   20   24      2.11      0.00
    4    8   36      4.29      0.00
    1    3   37     -2.00      0.00
    1   17   33     -3.59      0.00
    3   23   29      0.16      0.00
   17   19   27      1.37      0.00
   15   23   25     -1.40      0.00
   11   23   27      3.33      0.00
    5   25   27      7.33      0.00
   11   13   33     -0.79      0.00
   10   16   32     -1.95      0.00
   14   20   28      0.84      0.00
    0   22   30     -1.23      0.00
    6   18   32      2.03      0.00
   18   22   24     -0.32      0.00
    9    9   35     -1.50      0.00
    3   17   33      7.98      0.00
    3    3   37     -1.50      0.00
    6   14   34      0.78      0.00
    2   22   30     -4.60      0.00
    6   26   26      1.34      0.00
    7   11   35      2.69      0.00
    1   13   35      6.30      0.00
    9   15   33     -3.17      0.00
    5   23   29      3.51      0.00
   15   21   27      0.59      0.00
    1    5   37      2.08      0.00
    6    8   36     -3.53      0.00
    0   10   36     -2.91      0.00
    6   24   28    -12.08      0.00
   12   24   26      6.80      0.00
    4   22   30      5.83      0.00
   10   20   30      3.20      0.00
   10   12   34      1.35      0.00
   18   20   26      5.93      0.00
    2   10   36      0.74      0.00
    1   21   31      4.36      0.00
   11   21   29      1.22      0.00
    9   19   31     -0.89      0.00
    7   25   27      0.59      0.00
    5   17   33      1.76      0.00
    3    5   37     -3.51      0.00
    3   13   35      1.17      0.00
   16   24   24      2.73      0.00
   15   15   31      6.00      0.00
    3   21   31     -3.00      0.00
   21   21   23      8.28      0.00
    8   18   32      4.52      0.00
    4   10   36      5.13      0.00
   12   22   28      4.45      0.00
    0   16   34     -7.15      0.00
   16   16   30     -2.90      0.00
    8   26   26      8.84      0.00
    2   16   34     -6.15      0.00
    8   14   34     -4.10      0.00
   16   22   26      4.68      0.00
   14   14   32      7.09      0.00
   17   17   29      2.99      0.00
    7   23   29      2.82      0.00
   13   17   31      2.69      0.00
    1    7   37     -3.07      0.00
   19   23   23      0.00      0.00
    5   13   35      0.09      0.00
   13   25   25      0.69      0.00
    5    5   37     14.96      0.00
    6   22   30      2.34      0.00
   14   18   30      0.14      0.00
    8    8   36      4.82      0.00
    0   20   32      2.15      0.00
    8   24   28      0.50      0.00
   12   16   32     -4.15      0.00
    9   11   35     -2.04      0.00
    5   21   31      4.87      0.00
    7   17   33     -1.64      0.00
    3    7   37     -0.42      0.00
   15   19   29      3.36      0.00
   19   21   25     -9.77      0.00
   13   23   27      1.87      0.00
   13   13   33     -2.36      0.00
    2   20   32     -3.79      0.00
    4   16   34     -6.70      0.00
    6   10   36     -2.89      0.00
   18   18   28     -7.48      0.00
   11   15   33      0.16      0.00
    9   25   27      0.38      0.00
   16   20   28      0.72      0.00
    4   20   32      2.06      0.00
    0   12   36      1.35      0.00
    5    7   37      0.32      0.00
    7   13   35      0.01      0.00
   11   19   31     -0.02      0.00
   17   23   25      2.99      0.00
    2   12   36     -0.95      0.00
   12   20   30      3.78      0.00
   12   12   34      0.31      0.00
    0    0   38     -2.83      0.00
   14   24   26      2.30      0.00
    6   16   34      2.07      0.00
   10   18   32      3.90      0.00
    8   22   30      0.90      0.00
    0    2   38     -0.05      0.00
    1   15   35      4.08      0.00
    9   23   29     -8.96      0.00
   13   21   29      2.33      0.00
    7   21   31      3.72      0.00
    1   19   33     -5.16      0.00
   19   19   27     -7.63      0.00
    1    9   37     -2.80      0.00
   10   14   34      6.70      0.00
   10   26   26     -7.86      0.00
   22   22   22      5.65      0.00
    2    2   38     -0.83      0.00
    4   12   36      5.58      0.00
    3   15   35      4.19      0.00
    3   19   33     -3.35      0.00
    3    9   37     -2.62      0.00
    9   17   33      3.83      0.00
    1   27   27     -2.68      0.00
   17   21   27      3.62      0.00
   10   24   28      2.93      0.00
   20   22   24     -7.42      0.00
    0   26   28      4.11      0.00
    6   20   32      4.25      0.00
    8   10   36     -4.79      0.00
    0    4   38     -2.17      0.00
    2   26   28      4.99      0.00
    2    4   38     -0.42      0.00
   14   22   28     -6.92      0.00
   11   11   35     -0.91      0.00
    1   25   29      4.21      0.00
    3   27   27      7.49      0.00
    7    7   37      1.55      0.00
    9   13   35     -2.20      0.00
    5    9   37     -5.18      0.00
    5   19   33     -3.03      0.00
    5   15   35     -3.68      0.00
   11   25   27      2.76      0.00
    3   25   29      1.09      0.00
   15   25   25     -3.45      0.00
   15   17   31      5.54      0.00
    8   16   34      2.16      0.00
    4    4   38     -1.52      0.00
   20   20   26     -0.09      0.00
    4   26   28    -18.28      0.00
    0   24   30     -4.51      0.00
   14   16   32      4.08      0.00
   18   24   24     -5.77      0.00
    6   12   36     -0.10      0.00
   16   18   30      3.85      0.00
    0   18   34      7.64      0.00
    2   24   30      5.18      0.00
    0    6   38     -5.12      0.00
    9   21   31      2.63      0.00
   15   23   27     -8.83      0.00
    5   27   27     -4.05      0.00
   13   15   33     -3.96      0.00
   10   22   30     -1.41      0.00
    2   18   34     -5.35      0.00
   18   22   26      4.71      0.00
    2    6   38     -0.10      0.00
    8   20   32      0.28      0.00
    1   23   31     -3.47      0.00
   13   19   31      2.19      0.00
   17   19   29     -0.77      0.00
   11   23   29     -1.13      0.00
    1   11   37     -2.71      0.00
    5   25   29     -8.44      0.00
    0   14   36     -3.93      0.00
   12   18   32      2.28      0.00
    4   24   30      0.75      0.00
    4   18   34     -8.25      0.00
    4    6   38      3.26      0.00
    6   26   28      1.87      0.00
   10   10   36      0.36      0.00
   12   14   34      3.84      0.00
   14   20   30      1.54      0.00
   12   26   26     -4.45      0.00
    2   14   36      2.02      0.00
   11   17   33      4.07      0.00
    3   23   31      7.67      0.00
    3   11   37    -15.05      0.00
    7   19   33     -0.28      0.00
    7   15   35    -12.59      0.00
    7    9   37     -0.17      0.00
    1    1    1    -56.45      0.00
    0    0    2   -231.11      0.00
    0    2    2    189.36      0.00
    1    1    3    -80.02      0.00
    0    0    4     56.24      0.00
    0    2    4    -29.66      0.00
    0    4    4    530.32      0.00
    2    4    4     18.20      0.00
    2    2    6   -124.95      0.00
   21   23   23    -10.02      0.00
   21   21   25     -7.17      0.00
   19   23   25     -7.58      0.00
   16   24   26     -8.26      0.00
    7   27   27      3.95      0.00
   18   20   28     -8.19      0.00
   12   24   28     -1.55      0.00
   15   21   29    -11.60      0.00
    7   25   29     13.72      0.00
    6   24   30      4.98      0.00
    5   23   31     -9.31      0.00
    0   22   32     -3.85      0.00
    2   22   32      2.07      0.00
   10   16   34     -8.25      0.00
    6   18   34      2.86      0.00
   11   13   35     -0.11      0.00
    1   17   35      5.89      0.00
    8   12   36      0.89      0.00
    4   14   36     -2.36      0.00
    5   11   37     -0.06      0.00
    6    6   38    -10.36      0.00
    0    8   38      3.16      0.00
    2    8   38      2.74      0.00
    0    0    0      0.00      0.00
loop_
  _platon_squeeze_void_nr
  _platon_squeeze_void_average_x
  _platon_squeeze_void_average_y
  _platon_squeeze_void_average_z
  _platon_squeeze_void_volume
  _platon_squeeze_void_count_electrons
  _platon_squeeze_void_content
   1  0.298 -0.009 -0.006     16961      2296 ' '
loop_
  _platon_missing_refln_index_h
  _platon_missing_refln_index_k
  _platon_missing_refln_index_l
  _platon_missing_refln_theta
    1    1    1     1.183
    0    0    2     1.366
    0    2    2     1.931
    1    1    3     2.265
    0    0    4     2.732
    0    2    4     3.055
    0    4    4     3.865
    2    4    4     4.100
    2    2    6     4.533
_platon_squeeze_void_probe_radius                  1.20
_platon_squeeze_details
)
TITL 2015ncs0106_xp in Fm-3m #225
CELL   29.8250   29.8250   29.8250     90.00     90.00     90.00
SPGR Fm-3m
C101 0.599 0.396 0.104 !       2.48 eA-3
Q102 0.551 0.451 0.051 !       2.26 eA-3
Q103 0.250 0.086 0.251 !       2.07 eA-3
C104 0.500 0.498 0.234 !       1.48 eA-3
Q105 0.970 0.030 0.030 !       1.38 eA-3
C106 0.355 0.357 0.143 !       1.30 eA-3
C107 0.612 0.378 0.122 !       1.25 eA-3
C108 0.236 0.267 0.233 !       1.24 eA-3
C109 0.500 0.494 0.197 !       1.16 eA-3
Q110 0.711 0.209 0.070 !       1.08 eA-3
Q111 0.890 0.195-0.001 !       0.72 eA-3
Q112 0.611 0.499 0.078 !       0.70 eA-3
C113 0.022 0.027 0.233 !       0.70 eA-3
C114 0.283 0.294 0.206 !       0.66 eA-3
C115 0.961 0.266 0.045 !       0.66 eA-3
Q116 0.640 0.498 0.047 !       0.61 eA-3
C117 0.626 0.298 0.123 !       0.60 eA-3
C118 0.250 0.253 0.188 !       0.59 eA-3
C119 0.850 0.351 0.014 !       0.55 eA-3
Q120 0.244 0.027 0.235 !       0.50 eA-3
)
;
_shelx_shelxl_version_number     2014/7
_olex2_submission_special_instructions 'No special instructions were received'
loop_
_space_group_symop_operation_xyz
'x, y, z'
'-y, x, z'
'-x, -y, z'
'y, -x, z'
'x, -z, y'
'x, -y, -z'
'x, z, -y'
'z, y, -x'
'-x, y, -z'
'-z, y, x'
'z, x, y'
'y, z, x'
'-y, -z, x'
'z, -x, -y'
'-y, z, -x'
'-z, -x, y'
'-z, x, -y'
'y, -z, -x'
'y, x, -z'
'-y, -x, -z'
'-x, z, y'
'-x, -z, -y'
'z, -y, x'
'-z, -y, -x'
'x, y+1/2, z+1/2'
'-y, x+1/2, z+1/2'
'-x, -y+1/2, z+1/2'
'y, -x+1/2, z+1/2'
'x, -z+1/2, y+1/2'
'x, -y+1/2, -z+1/2'
'x, z+1/2, -y+1/2'
'z, y+1/2, -x+1/2'
'-x, y+1/2, -z+1/2'
'-z, y+1/2, x+1/2'
'z, x+1/2, y+1/2'
'y, z+1/2, x+1/2'
'-y, -z+1/2, x+1/2'
'z, -x+1/2, -y+1/2'
'-y, z+1/2, -x+1/2'
'-z, -x+1/2, y+1/2'
'-z, x+1/2, -y+1/2'
'y, -z+1/2, -x+1/2'
'y, x+1/2, -z+1/2'
'-y, -x+1/2, -z+1/2'
'-x, z+1/2, y+1/2'
'-x, -z+1/2, -y+1/2'
'z, -y+1/2, x+1/2'
'-z, -y+1/2, -x+1/2'
'x+1/2, y, z+1/2'
'-y+1/2, x, z+1/2'
'-x+1/2, -y, z+1/2'
'y+1/2, -x, z+1/2'
'x+1/2, -z, y+1/2'
'x+1/2, -y, -z+1/2'
'x+1/2, z, -y+1/2'
'z+1/2, y, -x+1/2'
'-x+1/2, y, -z+1/2'
'-z+1/2, y, x+1/2'
'z+1/2, x, y+1/2'
'y+1/2, z, x+1/2'
'-y+1/2, -z, x+1/2'
'z+1/2, -x, -y+1/2'
'-y+1/2, z, -x+1/2'
'-z+1/2, -x, y+1/2'
'-z+1/2, x, -y+1/2'
'y+1/2, -z, -x+1/2'
'y+1/2, x, -z+1/2'
'-y+1/2, -x, -z+1/2'
'-x+1/2, z, y+1/2'
'-x+1/2, -z, -y+1/2'
'z+1/2, -y, x+1/2'
'-z+1/2, -y, -x+1/2'
'x+1/2, y+1/2, z'
'-y+1/2, x+1/2, z'
'-x+1/2, -y+1/2, z'
'y+1/2, -x+1/2, z'
'x+1/2, -z+1/2, y'
'x+1/2, -y+1/2, -z'
'x+1/2, z+1/2, -y'
'z+1/2, y+1/2, -x'
'-x+1/2, y+1/2, -z'
'-z+1/2, y+1/2, x'
'z+1/2, x+1/2, y'
'y+1/2, z+1/2, x'
'-y+1/2, -z+1/2, x'
'z+1/2, -x+1/2, -y'
'-y+1/2, z+1/2, -x'
'-z+1/2, -x+1/2, y'
'-z+1/2, x+1/2, -y'
'y+1/2, -z+1/2, -x'
'y+1/2, x+1/2, -z'
'-y+1/2, -x+1/2, -z'
'-x+1/2, z+1/2, y'
'-x+1/2, -z+1/2, -y'
'z+1/2, -y+1/2, x'
'-z+1/2, -y+1/2, -x'
'-x, -y, -z'
'y, -x, -z'
'x, y, -z'
'-y, x, -z'
'-x, z, -y'
'-x, y, z'
'-x, -z, y'
'-z, -y, x'
'x, -y, z'
'z, -y, -x'
'-z, -x, -y'
'-y, -z, -x'
'y, z, -x'
'-z, x, y'
'y, -z, x'
'z, x, -y'
'z, -x, y'
'-y, z, x'
'-y, -x, z'
'y, x, z'
'x, -z, -y'
'x, z, y'
'-z, y, -x'
'z, y, x'
'-x, -y+1/2, -z+1/2'
'y, -x+1/2, -z+1/2'
'x, y+1/2, -z+1/2'
'-y, x+1/2, -z+1/2'
'-x, z+1/2, -y+1/2'
'-x, y+1/2, z+1/2'
'-x, -z+1/2, y+1/2'
'-z, -y+1/2, x+1/2'
'x, -y+1/2, z+1/2'
'z, -y+1/2, -x+1/2'
'-z, -x+1/2, -y+1/2'
'-y, -z+1/2, -x+1/2'
'y, z+1/2, -x+1/2'
'-z, x+1/2, y+1/2'
'y, -z+1/2, x+1/2'
'z, x+1/2, -y+1/2'
'z, -x+1/2, y+1/2'
'-y, z+1/2, x+1/2'
'-y, -x+1/2, z+1/2'
'y, x+1/2, z+1/2'
'x, -z+1/2, -y+1/2'
'x, z+1/2, y+1/2'
'-z, y+1/2, -x+1/2'
'z, y+1/2, x+1/2'
'-x+1/2, -y, -z+1/2'
'y+1/2, -x, -z+1/2'
'x+1/2, y, -z+1/2'
'-y+1/2, x, -z+1/2'
'-x+1/2, z, -y+1/2'
'-x+1/2, y, z+1/2'
'-x+1/2, -z, y+1/2'
'-z+1/2, -y, x+1/2'
'x+1/2, -y, z+1/2'
'z+1/2, -y, -x+1/2'
'-z+1/2, -x, -y+1/2'
'-y+1/2, -z, -x+1/2'
'y+1/2, z, -x+1/2'
'-z+1/2, x, y+1/2'
'y+1/2, -z, x+1/2'
'z+1/2, x, -y+1/2'
'z+1/2, -x, y+1/2'
'-y+1/2, z, x+1/2'
'-y+1/2, -x, z+1/2'
'y+1/2, x, z+1/2'
'x+1/2, -z, -y+1/2'
'x+1/2, z, y+1/2'
'-z+1/2, y, -x+1/2'
'z+1/2, y, x+1/2'
'-x+1/2, -y+1/2, -z'
'y+1/2, -x+1/2, -z'
'x+1/2, y+1/2, -z'
'-y+1/2, x+1/2, -z'
'-x+1/2, z+1/2, -y'
'-x+1/2, y+1/2, z'
'-x+1/2, -z+1/2, y'
'-z+1/2, -y+1/2, x'
'x+1/2, -y+1/2, z'
'z+1/2, -y+1/2, -x'
'-z+1/2, -x+1/2, -y'
'-y+1/2, -z+1/2, -x'
'y+1/2, z+1/2, -x'
'-z+1/2, x+1/2, y'
'y+1/2, -z+1/2, x'
'z+1/2, x+1/2, -y'
'z+1/2, -x+1/2, y'
'-y+1/2, z+1/2, x'
'-y+1/2, -x+1/2, z'
'y+1/2, x+1/2, z'
'x+1/2, -z+1/2, -y'
'x+1/2, z+1/2, y'
'-z+1/2, y+1/2, -x'
'z+1/2, y+1/2, x'
loop_
_atom_site_label
_atom_site_type_symbol
_atom_site_fract_x
_atom_site_fract_y
_atom_site_fract_z
_atom_site_U_iso_or_equiv
_atom_site_adp_type
_atom_site_occupancy
_atom_site_site_symmetry_order
_atom_site_calc_flag
_atom_site_refinement_flags_posn
_atom_site_refinement_flags_adp
_atom_site_refinement_flags_occupancy
_atom_site_disorder_assembly
_atom_site_disorder_group
Hf1 Hf 0.5000 0.08228(2) 0.5000 0.03470(16) Uani 1 8 d S T P . .
O1 O 0.56380(19) 0.11901(17) 0.5000 0.0793(15) Uani 1 2 d S T P . .
O2 O 0.5402(2) 0.0402(2) 0.5402(2) 0.074(3) Uani 1 6 d S T P . .
C1 C 0.6042(3) 0.1042(3) 0.5000 0.080(3) Uiso 1 4 d S T P . .
C2 C 0.6406(4) 0.1406(4) 0.5000 0.116(5) Uiso 1 4 d DS T P . .
C5 C 0.7039(5) 0.2039(5) 0.5000 0.212(12) Uiso 1 4 d DS T P . .
Br1 Br 0.7655(4) 0.2345(4) 0.4259(2) 0.363(10) Uani 0.5 2 d DS T P . .
C4A C 0.6610(4) 0.2174(4) 0.4859(5) 0.151(7) Uiso 0.5 1 d D . . A -1
H4A H 0.6551 0.2466 0.4767 0.182 Uiso 0.5 1 calc R . . A -1
C3A C 0.6272(4) 0.1840(3) 0.4867(5) 0.119(5) Uiso 0.5 1 d D . . A -1
H3A H 0.5977 0.1903 0.4788 0.142 Uiso 0.5 1 calc R . . A -1
C6 C 0.7391(4) 0.2391(4) 0.4841(5) 0.27(2) Uiso 0.5 2 d DS T P A .
loop_
_atom_site_aniso_label
_atom_site_aniso_U_11
_atom_site_aniso_U_22
_atom_site_aniso_U_33
_atom_site_aniso_U_23
_atom_site_aniso_U_13
_atom_site_aniso_U_12
Hf1 0.0426(2) 0.0190(2) 0.0426(2) 0.000 0.000 0.000
O1 0.080(3) 0.058(3) 0.100(4) 0.000 0.000 -0.038(3)
O2 0.074(3) 0.074(3) 0.074(3) 0.037(3) 0.037(3) 0.037(3)
Br1 0.408(16) 0.408(16) 0.273(6) -0.078(7) 0.078(7) -0.252(16)
loop_
_atom_type_symbol
_atom_type_description
_atom_type_scat_dispersion_real
_atom_type_scat_dispersion_imag
_atom_type_scat_source
C C 0.0033 0.0016 'International Tables Vol C Tables 4.2.6.8 and 6.1.1.4'
H H 0.0000 0.0000 'International Tables Vol C Tables 4.2.6.8 and 6.1.1.4'
Br Br -0.2901 2.4595 'International Tables Vol C Tables 4.2.6.8 and 6.1.1.4'
Hf Hf -0.5830 6.1852 'International Tables Vol C Tables 4.2.6.8 and 6.1.1.4'
O O 0.0106 0.0060 'International Tables Vol C Tables 4.2.6.8 and 6.1.1.4'
loop_
_geom_angle_atom_site_label_1
_geom_angle_atom_site_label_2
_geom_angle_atom_site_label_3
_geom_angle
_geom_angle_site_symmetry_1
_geom_angle_site_symmetry_3
Hf1 Hf1 Hf1 60.0 125_645 74_545
Hf1 Hf1 Hf1 60.0 29 170_556
Hf1 Hf1 Hf1 60.0 125_645 170_556
Hf1 Hf1 Hf1 60.0 74_545 29
Hf1 Hf1 Hf1 90.0 125_645 29
Hf1 Hf1 Hf1 90.0 74_545 170_556
O1 Hf1 Hf1 110.66(10) 8_556 74_545
O1 Hf1 Hf1 110.66(10) 102_655 29
O1 Hf1 Hf1 110.66(10) 10_655 74_545
O1 Hf1 Hf1 110.66(10) 8_556 170_556
O1 Hf1 Hf1 74.93(16) 10_655 29
O1 Hf1 Hf1 74.93(16) . 170_556
O1 Hf1 Hf1 74.93(16) 8_556 125_645
O1 Hf1 Hf1 164.93(16) . 74_545
O1 Hf1 Hf1 110.66(10) 102_655 125_645
O1 Hf1 Hf1 110.66(10) 10_655 170_556
O1 Hf1 Hf1 110.66(10) . 29
O1 Hf1 Hf1 74.93(16) 102_655 74_545
O1 Hf1 Hf1 164.93(16) 8_556 29
O1 Hf1 Hf1 164.93(16) 10_655 125_645
O1 Hf1 Hf1 164.93(16) 102_655 170_556
O1 Hf1 Hf1 110.66(10) . 125_645
O1 Hf1 O1 75.58(14) 10_655 .
O1 Hf1 O1 120.1(3) 102_655 .
O1 Hf1 O1 75.58(14) 8_556 .
O1 Hf1 O1 120.1(3) 10_655 8_556
O1 Hf1 O1 75.58(14) 8_556 102_655
O1 Hf1 O1 75.58(14) 10_655 102_655
O2 Hf1 Hf1 88.9(2) . 125_645
O2 Hf1 Hf1 34.64(13) 74_545 29
O2 Hf1 Hf1 88.9(2) 99_556 74_545
O2 Hf1 Hf1 34.64(13) 172_546 74_545
O2 Hf1 Hf1 34.64(13) . 29
O2 Hf1 Hf1 34.64(13) 74_545 74_545
O2 Hf1 Hf1 88.9(2) 74_545 170_556
O2 Hf1 Hf1 88.9(2) 99_556 29
O2 Hf1 Hf1 34.64(13) . 170_556
O2 Hf1 Hf1 88.9(2) 172_546 170_556
O2 Hf1 Hf1 34.64(13) 99_556 125_645
O2 Hf1 Hf1 88.9(2) 74_545 125_645
O2 Hf1 Hf1 88.9(2) . 74_545
O2 Hf1 Hf1 88.9(2) 172_546 29
O2 Hf1 Hf1 34.64(13) 172_546 125_645
O2 Hf1 Hf1 34.64(13) 99_556 170_556
O2 Hf1 O1 78.8(2) 74_545 10_655
O2 Hf1 O1 78.8(2) 172_546 8_556
O2 Hf1 O1 78.8(2) 99_556 8_556
O2 Hf1 O1 78.7(2) 99_556 .
O2 Hf1 O1 142.13(6) 74_545 8_556
O2 Hf1 O1 78.8(2) 74_545 102_655
O2 Hf1 O1 142.13(6) 74_545 .
O2 Hf1 O1 142.13(6) 172_546 .
O2 Hf1 O1 78.8(2) 172_546 102_655
O2 Hf1 O1 142.13(6) 99_556 10_655
O2 Hf1 O1 142.13(6) 99_556 102_655
O2 Hf1 O1 142.13(6) . 102_655
O2 Hf1 O1 142.13(6) . 8_556
O2 Hf1 O1 78.7(2) . 10_655
O2 Hf1 O1 78.7(2) . .
O2 Hf1 O1 142.13(6) 172_546 10_655
O2 Hf1 O2 69.2(3) 172_546 99_556
O2 Hf1 O2 69.2(3) 99_556 .
O2 Hf1 O2 106.9(5) 74_545 99_556
O2 Hf1 O2 106.9(5) 172_546 .
O2 Hf1 O2 69.2(3) 74_545 .
O2 Hf1 O2 69.2(3) 172_546 74_545
C1 O1 Hf1 130.0(6) . .
Hf1 O2 Hf1 110.7(3) . 170_556
Hf1 O2 Hf1 110.7(3) 29 170_556
Hf1 O2 Hf1 110.7(3) . 29
O1 C1 O1 130.2(11) . 91_546
O1 C1 C2 114.9(6) 91_546 .
O1 C1 C2 114.9(6) . .
C3A C2 C1 116.6(7) . .
C4A C5 C6 109.2(7) . .
C4A C5 C6 120.7(8) . 99_556
C6 Br1 C6 28.0(9) 75_655 .
C5 C4A C3A 116.2(11) . .
C2 C3A C4A 116.5(10) . .
C5 C6 Br1 120.4(5) . .
C5 C6 Br1 120.4(5) . 75_655
C6 C6 C5 117(2) 169_656 .
C6 C6 Br1 119(2) 169_656 .
loop_
_geom_bond_atom_site_label_1
_geom_bond_atom_site_label_2
_geom_bond_distance
_geom_bond_site_symmetry_2
Hf1 Hf1 3.4706(5) 170_556
Hf1 Hf1 3.4706(5) 74_545
Hf1 Hf1 3.4706(5) 29
Hf1 Hf1 3.4706(5) 125_645
Hf1 O1 2.196(5) 8_556
Hf1 O1 2.196(5) 102_655
Hf1 O1 2.196(5) 10_655
Hf1 O1 2.196(5) .
Hf1 O2 2.109(3) .
Hf1 O2 2.109(3) 74_545
Hf1 O2 2.109(3) 99_556
Hf1 O2 2.109(3) 172_546
O1 C1 1.284(8) .
O2 Hf1 2.109(3) 29
O2 Hf1 2.109(3) 170_556
C1 O1 1.284(8) 91_546
C1 C2 1.536(19) .
C2 C3A 1.411(8) .
C5 C4A 1.405(9) .
C5 C6 1.557(17) .
C5 C6 1.557(17) 99_556
Br1 Br1 1.31(3) 75_655
Br1 C6 1.911(16) 75_655
Br1 C6 1.911(16) .
C4A C3A 1.416(9) .
C6 Br1 1.911(16) 75_655
C6 C6 1.32(2) 169_656
loop_
_platon_squeeze_void_nr
_platon_squeeze_void_average_x
_platon_squeeze_void_average_y
_platon_squeeze_void_average_z
_platon_squeeze_void_volume
_platon_squeeze_void_count_electrons
_platon_squeeze_void_content
1 0.298 -0.009 -0.006 16961 2296 ' '
