#------------------------------------------------------------------------------
#$Date: 2015-09-06 01:32:58 +0300 (Sun, 06 Sep 2015) $
#$Revision: 154625 $
#$URL: svn://www.crystallography.net/cod/cif/4/12/41/4124176.cif $
#------------------------------------------------------------------------------
#
# This file is available in the Crystallography Open Database (COD),
# http://www.crystallography.net/
#
# All data on this site have been placed in the public domain by the
# contributors.
#
data_4124176
loop_
_publ_author_name
'Marshall, Ross J.'
'Griffin, Sarah L.'
'Wilson, Claire'
'Forgan, Ross S.'
_publ_section_title
;
 Single-Crystal to Single-Crystal Mechanical Contraction of Metal-Organic
 Frameworks through Stereoselective Postsynthetic Bromination.
;
_journal_issue                   30
_journal_name_full               'Journal of the American Chemical Society'
_journal_page_first              9527
_journal_page_last               9530
_journal_paper_doi               10.1021/jacs.5b05434
_journal_volume                  137
_journal_year                    2015
_chemical_formula_moiety         'Hf6 O4(OH)4 (C16H8O4)6'
_chemical_formula_sum            'C96 H52 Hf6 O32'
_chemical_formula_weight         2788.31
_space_group_crystal_system      cubic
_space_group_IT_number           225
_space_group_name_Hall           '-F 4 2 3'
_space_group_name_H-M_alt        'F m -3 m'
_symmetry_space_group_name_Hall  '-F 4 2 3'
_symmetry_space_group_name_H-M   'F m -3 m'
_atom_sites_solution_hydrogens   geom
_atom_sites_solution_primary     iterative
_audit_creation_date             2015-04-22
_audit_creation_method
;
Olex2 1.2
(compiled 2015.01.26 svn.r3150 for OlexSys, GUI svn.r4998)
;
_cell_angle_alpha                90
_cell_angle_beta                 90
_cell_angle_gamma                90
_cell_formula_units_Z            4
_cell_length_a                   30.1107(12)
_cell_length_b                   30.1107(12)
_cell_length_c                   30.1107(12)
_cell_measurement_reflns_used    21604
_cell_measurement_temperature    100
_cell_measurement_theta_max      27.5
_cell_measurement_theta_min      2.3
_cell_volume                     27300.0(19)
_computing_cell_refinement
;
CrystalClear-SM Expert 3.1 b27 (Rigaku, 20112)
;
_computing_data_collection
;
CrystalClear-SM Expert 3.1 b27 (Rigaku, 20112)
;
_computing_data_reduction
;
CrystalClear-SM Expert 3.1 b27 (Rigaku, 20112)
;
_computing_molecular_graphics    'Olex2 (Dolomanov et al., 2009)'
_computing_publication_material  'Olex2 (Dolomanov et al., 2009)'
_computing_structure_refinement  'ShelXL (Sheldrick, 2008)'
_computing_structure_solution
;
Superflip (Palatinus & Chapuis, 2007;Palatinus & van der Lee, 2008;
Palatinus et al., 2012)
;
_diffrn_ambient_temperature      100
_diffrn_detector                 CCD
_diffrn_detector_area_resol_mean 28.5714
_diffrn_measured_fraction_theta_full 0.995
_diffrn_measured_fraction_theta_max 0.996
_diffrn_measurement_details
;
scan:
    Number of images: 225
               Slice: -39.5000 - 73.0000
         Image width: 0.5000
            Exp time: 20.0000
       Rotation axis: Omega
               Omega: 0.0000
               Kappa: 40.0000
                 Phi: -17.0000
                 XTD: 44.9831
              2theta: -17.1677
scan:
    Number of images: 61
               Slice: -65.0000 - -34.5000
         Image width: 0.5000
            Exp time: 20.0000
       Rotation axis: Omega
               Omega: 0.0000
               Kappa: 24.0000
                 Phi: 16.0000
                 XTD: 44.9831
              2theta: -17.1677
;
_diffrn_measurement_device       'four-circle \k diffractometer'
_diffrn_measurement_device_type  'Rigaku Saturn724+ (2x2 bin mode)'
_diffrn_measurement_method       'profile data from \w-scans'
_diffrn_measurement_specimen_support MiTeGen
_diffrn_orient_matrix_type       d*Trek
_diffrn_orient_matrix_UB_11      -0.019115
_diffrn_orient_matrix_UB_12      0.027009
_diffrn_orient_matrix_UB_13      0.002840
_diffrn_orient_matrix_UB_21      0.026798
_diffrn_orient_matrix_UB_22      0.019322
_diffrn_orient_matrix_UB_23      -0.003390
_diffrn_orient_matrix_UB_31      -0.004410
_diffrn_orient_matrix_UB_32      0.000341
_diffrn_orient_matrix_UB_33      -0.032915
_diffrn_radiation_monochromator  Mirrors
_diffrn_radiation_type           MoK\a
_diffrn_radiation_wavelength     0.71073
_diffrn_reflns_av_R_equivalents  0.0339
_diffrn_reflns_av_unetI/netI     0.0119
_diffrn_reflns_laue_measured_fraction_full 0.995
_diffrn_reflns_laue_measured_fraction_max 0.996
_diffrn_reflns_limit_h_max       29
_diffrn_reflns_limit_h_min       -36
_diffrn_reflns_limit_k_max       22
_diffrn_reflns_limit_k_min       -39
_diffrn_reflns_limit_l_max       15
_diffrn_reflns_limit_l_min       -39
_diffrn_reflns_number            23032
_diffrn_reflns_point_group_measured_fraction_full 0.995
_diffrn_reflns_point_group_measured_fraction_max 0.996
_diffrn_reflns_theta_full        25.242
_diffrn_reflns_theta_max         27.473
_diffrn_reflns_theta_min         2.343
_diffrn_source                   'Rotating Anode'
_diffrn_source_current           55.0
_diffrn_source_power             2.475
_diffrn_source_voltage           45.0
_diffrn_standards_number         0
_exptl_absorpt_coefficient_mu    2.300
_exptl_absorpt_correction_T_max  1.000
_exptl_absorpt_correction_T_min  0.705
_exptl_absorpt_correction_type   multi-scan
_exptl_absorpt_process_details
'CrystalClear-SM Expert 3.1 b27 (Rigaku, 20112)'
_exptl_crystal_colour            Colorless
_exptl_crystal_density_diffrn    0.678
_exptl_crystal_density_method    "'not measured'"
_exptl_crystal_description       Block
_exptl_crystal_F_000             5264
_exptl_crystal_size_max          0.03
_exptl_crystal_size_mid          0.02
_exptl_crystal_size_min          0.02
_refine_diff_density_max         0.908
_refine_diff_density_min         -1.081
_refine_diff_density_rms         0.100
_refine_ls_extinction_method     none
_refine_ls_goodness_of_fit_ref   1.092
_refine_ls_hydrogen_treatment    constr
_refine_ls_matrix_type           full
_refine_ls_number_parameters     27
_refine_ls_number_reflns         1601
_refine_ls_number_restraints     22
_refine_ls_restrained_S_all      1.122
_refine_ls_R_factor_all          0.0491
_refine_ls_R_factor_gt           0.0462
_refine_ls_shift/su_max          0.000
_refine_ls_shift/su_mean         0.000
_refine_ls_structure_factor_coef Fsqd
_refine_ls_weighting_details
'w=1/[\s^2^(Fo^2^)+(0.0725P)^2^+190.3025P] where P=(Fo^2^+2Fc^2^)/3'
_refine_ls_weighting_scheme      calc
_refine_ls_wR_factor_gt          0.1276
_refine_ls_wR_factor_ref         0.1308
_reflns_Friedel_coverage         0.000
_reflns_number_gt                1495
_reflns_number_total             1601
_reflns_threshold_expression     'I > 2\s(I)'
_cod_data_source_file            ja5b05434_si_002.cif
_cod_data_source_block           2
_cod_depositor_comments
;
The following automatic conversions were performed:

'_exptl_absorpt_correction_type' value 'Multi-scan' changed to
'multi-scan' according to
/usr/data/users/saulius/crontab/automatic-downloads/rss-feeds/ACS/lib/dictionaries/cif_core.dic
dictionary named 'cif_core.dic' version 2.4.2 from 2011-04-26.

Automatic conversion script
Id: cif_fix_values 3271 2015-04-21 07:52:19Z andrius 

 Adding full bibliography for 4124172--4124178.cif.
;
_cod_original_cell_volume        27300(3)
_cod_database_code               4124176
_shelx_space_group_comment
;
The symmetry employed for this shelxl refinement is uniquely defined
by the following loop, which should always be used as a source of
symmetry information in preference to the above space-group names.
They are only intended as comments.
;
_olex2_refinement_description
;
1. Fixed Uiso
 At 1.2 times of:
  All C(H) groups
2. Restrained distances
 C1-C2
 1.48 with sigma of 0.01
 C3-C2 = C4-C3 = C5-C4
 1.39 with sigma of 0.01
 C6-C5
 1.434 with sigma of 0.02
 C6-C6_$1
 1.181 with sigma of 0.02
 C2-C4 \\sim C3-C5
 with sigma of 0.02
3. Restrained planarity
 C2, C3, C4, C5
 with sigma of 0.1
4. Uiso/Uaniso restraints and constraints
C1 \\sim C2 \\sim C3 \\sim C4 \\sim C5 \\sim C6: within 1.7A with sigma of 0.04
and sigma for terminal atoms of 0.08
: with sigma of 0.1 and sigma for terminal atoms of 0.2
5. Rigid body (RIGU) restrains
 All non-hydrogen atoms
 with sigma for 1-2 distances of 0.004 and sigma for 1-3 distances of 0.004
6.a Aromatic/amide H refined with riding coordinates:
 C3(H3), C4(H4)
;
_shelx_res_file
;
    2015ncs0069_sq_trans.res created by SHELXL-2014/7

TITL 2015ncs0069 in Fm-3m
rem SIMU 0.04 0.08 1.7 C2 C3 C4 C5 C6
CELL 0.71073 30.1107 30.1107 30.1107 90 90 90
ZERR 4 0.00121 0.00121 0.00121 0 0 0
LATT 4
SYMM -Y,+X,+Z
SYMM -X,-Y,+Z
SYMM +Y,-X,+Z
SYMM +X,-Z,+Y
SYMM +X,-Y,-Z
SYMM +X,+Z,-Y
SYMM +Z,+Y,-X
SYMM -X,+Y,-Z
SYMM -Z,+Y,+X
SYMM +Z,+X,+Y
SYMM +Y,+Z,+X
SYMM -Y,-Z,+X
SYMM +Z,-X,-Y
SYMM -Y,+Z,-X
SYMM -Z,-X,+Y
SYMM -Z,+X,-Y
SYMM +Y,-Z,-X
SYMM +Y,+X,-Z
SYMM -Y,-X,-Z
SYMM -X,+Z,+Y
SYMM -X,-Z,-Y
SYMM +Z,-Y,+X
SYMM -Z,-Y,-X
SFAC C H Hf O
UNIT 384 208 24 128
EQIV $1 1-Y,1-X,1-Z
DFIX 1.48 0.01 C1 C2
DFIX 1.39 0.01 C3 C2 C4 C3 C5 C4
DFIX 1.434 C6 C5
DFIX 1.181 C6 C6_$1
SADI C2 C4 C3 C5
FLAT C2 > C5
SIMU 0.04 0.08 1.7 C1 C2 C3 C4 C5 C6
RIGU
ISOR $c

L.S. 20 0 20
PLAN  20
ABIN
fmap 2 53
acta
OMIT 2 2 6
OMIT 4 10 10
REM <olex2.extras>
REM <HklSrc "%.\\2015ncs0069_sq.hkl">
REM </olex2.extras>

WGHT    0.072500  190.302505
FVAR       0.04851
HF2   3    0.500000    0.081371    0.500000    10.12500    0.06851    0.01732 =
         0.06851    0.00000    0.00000    0.00000
O1    4    0.561673    0.118780    0.500000    10.50000    0.14201    0.06849 =
         0.19908    0.00000    0.00000   -0.07197
O2    4    0.539321    0.039321    0.460679    10.16667    0.08253    0.08253 =
         0.08253   -0.02773   -0.02773    0.02773
C1    1    0.601860    0.101860    0.500000    10.25000    0.18419
C2    1    0.636831    0.136831    0.500000    10.25000    0.37859
C3    1    0.681712    0.123114    0.500000    10.50000    0.44100
AFIX  43
H3    2    0.689346    0.093187    0.500000    10.50000   -1.20000
AFIX   0
C4    1    0.714416    0.156527    0.500000    10.50000    0.59469
AFIX  43
H4    2    0.744366    0.148980    0.500000    10.50000   -1.20000
AFIX   0
C5    1    0.701451    0.201451    0.500000    10.25000    0.65199
C6    1    0.736031    0.236031    0.500000    10.25000    0.67404
HKLF 4

REM  2015ncs0069 in Fm-3m
REM R1 =  0.0462 for    1495 Fo > 4sig(Fo)  and  0.0491 for all    1601 data
REM     27 parameters refined using     22 restraints

END

WGHT      0.0728    189.5388

REM Highest difference peak  0.908,  deepest hole -1.081,  1-sigma level  0.100
Q1    1   0.5000  0.0611  0.4794  10.50000  0.05    0.91
Q2    1   0.5000  0.1027  0.5127  10.50000  0.05    0.51
Q3    1   0.5555  0.0555  0.4585  10.50000  0.05    0.45
Q4    1   0.6796  0.1192  0.5215  11.00000  0.05    0.42
Q5    1   0.6801  0.1201  0.5100  11.00000  0.05    0.40
Q6    1   0.6411  0.1411  0.4863  10.50000  0.05    0.38
Q7    1   0.7009  0.0991  0.5000  10.50000  0.05    0.37
Q8    1   0.5802  0.1275  0.5000  10.50000  0.05    0.36
Q9    1   0.5587  0.1413  0.5000  10.50000  0.05    0.34
Q10   1   0.7387  0.1350  0.4861  11.00000  0.05    0.27
Q11   1   0.7207  0.1589  0.5343  11.00000  0.05    0.23
Q12   1   0.7359  0.2359  0.4666  10.50000  0.05    0.23
Q13   1   0.7175  0.2586  0.4613  11.00000  0.05    0.23
Q14   1   0.5708  0.1414  0.5344  11.00000  0.05    0.21
Q15   1   0.6595  0.0727  0.5000  10.50000  0.05    0.20
Q16   1   0.5559  0.1015  0.4832  11.00000  0.05    0.19
Q17   1   0.6975  0.1975  0.4678  10.50000  0.05    0.19
Q18   1   0.5554  0.1355  0.5554  10.50000  0.05    0.19
Q19   1   0.5640  0.1237  0.5640  10.50000  0.05    0.17
Q20   1   0.5643  0.1569  0.5373  11.00000  0.05    0.17
;
_shelx_res_checksum              35029
_shelx_hkl_file
;
   2  -2  -2 2478.35   34.17
   3  -3   1  582.80   10.97
  -3  -3   1  577.61   10.22
   3   3  -1  599.15   10.42
  -3  -3  -1  596.06   10.06
   3   3   1  608.87   10.64
   3  -3  -1  580.74   11.04
  -1  -3  -3  578.21    9.77
   1   3   3  621.91   10.59
  -3  -1  -3  609.78    9.87
   1  -3  -3  582.36    9.68
   3   1   3  614.82   10.07
  -1   3   3  588.30    9.79
  -3   1  -3  621.95   10.39
  -3  -3   1  614.46   13.55
   3   3  -1  634.74   14.03
  -3  -3  -3  528.02    8.78
   3   3   3  552.26    9.51
   3  -3  -3  535.71    8.81
  -3   3   3  547.10    8.96
   3   3  -3  530.75   10.77
   4   0   0 1405.42   21.82
   0  -4   0 1461.30   21.55
   4   0   0 1423.33   26.24
   0  -4   2  463.73    8.56
   0   4  -2  466.69    8.42
  -4  -2   0  475.19    8.35
  -2  -4   0  460.29    8.11
   4   2   0  482.54    8.52
   2  -4   0  465.49    8.34
   2   4   0  439.83    7.74
  -2   4   0  434.49    7.87
   0  -4  -2  464.24    8.08
   0   4   2  489.10    8.67
  -4   0  -2  493.25    8.74
   4   0   2  476.68    8.49
   0   2   4  478.29    8.05
  -2   0  -4  479.35    8.05
   0  -4   2  491.21   11.00
   0   4  -2  497.10   12.09
  -4  -2   0  475.20   11.66
   4   2  -2  218.28    5.00
  -2  -4   2  218.03    5.52
  -2   4  -2  206.06    4.77
   2   4  -2  215.50    5.49
  -2  -4  -2  214.31    4.95
  -4  -2  -2  214.65    4.55
   4   2   2  225.20    4.84
   2  -4  -2  221.41    4.68
  -2   4   2  229.46    4.90
  -2  -2  -4  218.24    4.84
   2   2   4  229.54    4.67
   2  -2  -4  211.60    4.35
   4  -2  -2  219.02    4.74
  -4  -2   2  227.76    5.80
   4   2  -2  227.39    6.85
  -2  -4   2  236.86    7.25
  -2   4  -2  230.63   10.81
   2   4  -2  228.54    7.70
  -4  -4   0   41.98    2.20
   4   4   0   42.07    2.12
   4  -4   0   37.63    2.60
   0  -4  -4   40.13    2.02
   0   4   4   39.56    1.95
  -4   0  -4   40.00    1.84
   4   0   4   39.77    1.80
  -4  -4   0   43.33    4.26
  -4   4  -2   39.41    2.01
  -4  -4   2   40.54    2.44
   4   4  -2   40.50    2.25
  -4  -4  -2   43.84    2.16
   4   4   2   42.43    1.92
  -2  -4  -4   42.99    2.13
   4  -4  -2   41.64    1.93
  -4  -2  -4   43.23    2.04
   2   4   4   42.56    1.90
   2  -4  -4   40.34    1.83
   4   2   4   44.66    2.02
  -4   4   2   40.26    1.71
  -2   4   4   42.87    1.92
  -4  -4   2   44.72    4.38
   4   4  -2   43.02    5.22
  -4  -4  -4  520.44    8.68
   4   4   4  554.11    9.06
   4  -4  -4  543.09    9.04
  -4   4   4  538.92    9.17
   4   4  -4  573.86   12.03
  -5  -1   1  368.86    6.98
   5   1  -1  378.83    7.28
   1  -5   1  379.94    7.10
  -1  -5   1  382.53    7.01
   1   5  -1  383.35    7.29
  -1   5  -1  378.56    7.39
  -5  -1  -1  386.80    7.08
  -1  -5  -1  387.99    7.11
   1  -5  -1  375.28    6.84
   1   5   1  387.47    7.23
   5   1   1  405.83    7.52
  -1   5   1  376.02    6.96
  -1  -1  -5  372.87    6.72
   1   1   5  382.60    6.89
  -5  -1   1  389.94    9.03
   5   1  -1  399.42   10.53
  -5   1  -1  391.41   10.24
  -1  -5   1  403.73   10.03
  -1   5  -3   37.17    2.14
   1   5  -3   35.59    2.22
  -5  -3   1   36.45    2.16
   3  -5   1   38.48    2.10
  -3  -5   1   40.17    2.06
   5   3  -1   38.63    2.08
   3   5  -1   37.93    1.93
  -3   5  -1   37.00    1.93
  -5  -3  -1   36.48    1.99
  -3  -5  -1   36.68    1.90
   5   3   1   34.89    1.75
   3   5   1   38.83    1.89
   3  -5  -1   37.50    1.88
  -1  -5  -3   34.70    1.80
  -3   5   1   37.76    1.79
   1  -5  -3   36.46    1.97
   1   5   3   37.47    1.81
  -5  -1  -3   37.36    1.85
  -1   5   3   38.54    1.95
   5   1   3   38.65    1.82
   5  -3  -1   37.48    2.19
  -1  -3  -5   38.28    1.82
  -5   1  -3   38.76    1.78
   1  -3  -5   37.41    1.94
  -3  -1  -5   37.05    1.89
   1   3   5   38.32    1.77
  -1   3   5   35.49    1.69
   3   1   5   38.80    1.89
   5  -1   3   36.25    1.69
  -5   3   1   38.36    2.07
  -1  -5   3   37.12    3.65
  -1   5  -3   39.41    4.21
   1   5  -3   38.19    4.45
  -5  -3   1   38.67    4.42
  -3  -5   1   39.97    4.49
   5   3  -1   38.87    4.26
  -3   5  -3  409.10    7.78
   5   3  -3  418.06    7.84
  -3  -5  -3  405.72    7.21
  -5  -3  -3  421.27    7.45
   3   5   3  445.73    7.90
   5   3   3  422.19    7.56
   3  -5  -3  413.36    7.26
  -3  -3  -5  425.78    7.51
  -3   5   3  427.74    7.58
   3   3   5  411.25    7.15
   3  -3  -5  405.60    6.86
   5  -3  -3  411.61    7.32
  -3   3   5  422.03    7.27
  -3  -5   3  413.58    9.69
   5   3  -3  453.99   10.03
  -3   5  -3  426.35   10.34
   3   5  -3  446.11   11.37
   5  -5   1  394.58    7.29
  -5  -5   1  398.96    7.36
   5   5  -1  405.91    7.17
  -5  -5  -1  418.15    7.49
  -5   5  -1  408.15    7.44
   5   5   1  416.06    7.38
   5  -5  -1  396.86    7.11
  -1  -5  -5  409.85    7.29
  -5   5   1  410.71    7.30
   1  -5  -5  409.60    6.98
   1   5   5  417.64    7.67
  -5  -1  -5  426.32    7.32
  -1   5   5  424.56    7.37
   5   1   5  434.99    7.39
  -5   1  -5  420.14    7.20
  -5  -5   1  444.21   11.31
  -5  -5   3 1437.26   21.16
   5   5  -3 1488.67   21.88
  -5  -5  -3 1462.46   21.00
   5   5   3 1555.34   22.48
  -3  -5  -5 1448.15   20.62
  -5  -3  -5 1455.47   20.87
   5  -5  -3 1478.22   21.24
   3   5   5 1517.73   21.85
   5   3   5 1520.17   21.70
   3  -5  -5 1500.27   21.57
  -5   5   3 1439.84   20.79
  -3   5   5 1497.42   21.66
   5  -3  -5 1478.39   21.16
   3   5  -5 1445.19   23.30
  -5  -5   3 1497.51   24.00
  -5   5  -3 1513.35   27.28
   5   5  -3 1499.52   26.93
  -5  -5  -5 1949.11   27.27
   5   5   5 2065.82   29.28
   5  -5  -5 1906.06   26.52
  -5   5   5 1995.71   27.69
   5   5  -5 2012.78   31.95
  -6   0   0 2546.53   35.40
   0  -6   0 2590.04   35.71
   6   0   0 2497.74   34.68
   0   6   0 2578.79   36.02
  -6   0   0 2521.94   38.92
   6   0   0 2536.62   39.65
   0  -6   2    9.97    1.87
   0   6  -2    9.46    1.48
  -6  -2   0    7.28    1.73
  -2  -6   0    8.52    1.53
   2  -6   0    9.53    1.61
   2   6   0    9.74    1.50
  -2   6   0   10.64    1.53
   0  -6  -2    8.30    1.44
  -6   0  -2    9.76    1.38
   0   6   2    7.69    1.61
   6   0   2    9.52    1.33
   0  -2  -6   11.69    1.62
   0   2   6   11.60    1.59
  -2   0  -6   10.37    1.65
   0   6  -2   10.51    3.93
   2  -6   2   50.47    2.42
   6   2  -2   50.28    2.34
  -2  -6   2   54.06    2.56
   2   6  -2   51.51    2.42
  -2   6  -2   52.67    2.29
  -6  -2  -2   53.12    2.20
   2  -6  -2   52.39    2.08
   2   6   2   53.19    2.38
   6   2   2   56.08    2.19
  -2   6   2   56.58    2.22
  -6   2  -2   50.91    2.24
  -2  -2  -6   56.53    2.09
   2   2   6   52.37    2.15
   2  -2  -6   54.12    2.24
  -6  -2   2   49.64    3.11
   6   2  -2   56.99    5.03
  -2  -6   2   52.44    5.49
   2  -6   2   54.39    4.65
   2   6  -2   55.84    5.09
   0   6  -4  472.31    8.56
  -6  -4   0  487.88    8.52
  -4  -6   0  456.22    7.91
   4  -6   0  466.80    8.12
   6  -4   0  477.19    8.48
   6   4   0  486.78    8.61
   4   6   0  495.51    8.96
  -4   6   0  476.33    8.21
   0  -6  -4  477.50    8.20
   0   6   4  486.84    8.60
  -6   0  -4  492.42    8.25
   0  -4  -6  484.29    8.07
   6   0   4  479.68    7.99
   0   4   6  481.73    8.52
  -4   0  -6  495.18    8.32
   0   6  -4  472.86   12.06
  -6  -4   0  497.30   11.63
  -2   6  -4  693.27   11.73
   4  -6   2  712.97   12.21
   2   6  -4  708.50   12.29
  -6  -4   2  719.52   11.60
  -4  -6   2  716.32   11.92
   6   4  -2  731.65   11.82
   4   6  -2  732.73   11.70
  -4   6  -2  706.65   11.39
  -4  -6  -2  718.02   11.39
  -6  -4  -2  725.38   11.35
   4   6   2  759.82   12.45
   6   4   2  715.89   11.32
   4  -6  -2  733.85   11.41
  -2  -6  -4  698.22   10.95
  -6  -2  -4  738.77   11.50
   2   6   4  750.16   12.07
   2  -6  -4  741.88   11.59
  -4   6   2  727.72   11.52
   6   2   4  755.74   11.68
  -2  -4  -6  714.33   11.45
  -2   6   4  735.60   11.72
   6  -4  -2  719.12   11.27
  -4  -2  -6  723.42   11.09
   2   4   6  733.71   11.47
   2  -4  -6  730.17   11.24
   4   2   6  744.41   11.89
  -6   2  -4  740.41   11.51
  -2   4   6  743.98   11.64
  -6   4   2  751.43   11.86
  -2   6  -4  741.68   15.38
  -6  -4   2  732.82   14.58
   2   6  -4  752.38   15.51
  -4  -6   2  726.18   15.17
   4  -6   2  779.48   18.43
   6   4  -2  745.65   16.57
   4   6  -2  761.59   16.87
   6   4  -4 1257.57   18.97
   4   6  -4 1224.01   18.83
  -4  -6  -4 1234.45   17.96
  -6  -4  -4 1247.65   18.36
   4   6   4 1287.27   18.94
   6   4   4 1285.27   18.65
  -4  -4  -6 1217.74   17.56
   4  -6  -4 1265.05   18.21
   4   4   6 1267.53   18.60
  -4   6   4 1260.63   18.26
   6  -4  -4 1241.44   17.91
   4  -4  -6 1268.91   18.19
  -4   4   6 1269.54   18.35
  -4  -6   4 1328.10   21.66
  -4   6  -4 1302.02   22.20
   6   4  -4 1266.28   22.15
   4   6  -4 1253.12   23.13
  -6  -6   0  582.88    9.88
   6  -6   0  565.08    9.44
   6   6   0  597.84    9.98
  -6   6   0  578.32    9.59
   0  -6  -6  582.73    9.34
   0   6   6  564.98    9.24
  -6   0  -6  579.60    9.34
   6   0   6  584.57    9.59
  -6  -6   0  592.88   12.50
  -6  -6   2 1208.73   17.89
   6   6  -2 1213.25   17.94
  -6   6  -2 1228.55   18.44
  -6  -6  -2 1218.15   17.93
   6   6   2 1254.44   18.47
   6  -6  -2 1196.25   17.49
  -2  -6  -6 1206.89   17.75
  -6  -2  -6 1213.21   17.70
   2  -6  -6 1210.31   17.51
   2   6   6 1249.92   18.42
  -6   6   2 1219.55   18.08
   6   2   6 1251.94   18.25
  -2   6   6 1249.93   18.46
  -6   2  -6 1266.93   18.24
  -6  -6   2 1235.60   21.72
   6   6  -2 1264.31   22.88
   6   6  -4 2588.55   36.06
  -6  -6  -4 2589.71   35.54
   6   6   4 2686.31   37.12
  -4  -6  -6 2618.38   35.85
  -6  -4  -6 2619.11   35.70
   6  -6  -4 2582.18   35.67
   4   6   6 2750.58   38.10
   6   4   6 2666.90   36.72
   4  -6  -6 2688.16   36.73
  -6   6   4 2674.98   36.63
  -4   6   6 2766.73   37.84
   6  -4  -6 2681.77   36.47
  -6  -6   4 2696.14   39.09
   4   6  -6 2665.06   40.32
  -6   6  -4 2592.27   40.63
   6   6  -4 2615.91   42.62
   6   6  -6 3601.93   50.28
  -6  -6  -6 3628.09   48.92
   6   6   6 3741.68   50.81
   6  -6  -6 3555.05   47.80
  -6   6   6 3702.57   50.08
   6   6  -6 3856.75   55.47
  -7  -1   1  840.12   13.29
   7  -1  -1  840.25   13.32
   7   1  -1  869.20   13.69
  -1  -7   1  831.49   12.98
   1  -7   1  842.65   13.14
  -7   1  -1  816.45   13.54
   1   7  -1  849.76   13.72
  -7  -1  -1  833.76   12.91
  -1   7  -1  865.68   13.75
  -1  -7  -1  836.90   13.02
   1  -7  -1  828.41   12.69
   1   7   1  852.35   13.31
   7   1   1  868.31   13.54
  -1   7   1  840.72   13.49
   7  -1   1  871.04   14.82
  -1  -1  -7  842.67   12.96
  -7  -1   1  880.20   16.51
   7  -1  -1  850.47   16.65
  -7   1  -1  804.59   16.23
   7   1  -1  846.81   17.26
  -7  -1  -1  855.76   17.20
  -1  -7   1  844.33   15.71
   1  -7   3   54.38    2.67
  -1  -7   3   55.05    2.46
  -7  -3   1   57.53    2.52
  -1   7  -3   55.27    2.28
   1   7  -3   56.84    2.50
   3  -7   1   57.17    2.22
  -3  -7   1   55.31    2.56
   7   3  -1   59.16    2.42
   3   7  -1   58.64    2.33
  -7  -3  -1   57.13    2.33
  -3  -7  -1   55.29    2.25
  -3   7  -1   54.94    2.24
   3  -7  -1   57.26    2.32
   7   3   1   59.93    2.31
   3   7   1   63.46    2.37
  -1  -7  -3   55.22    2.20
  -3   7   1   58.71    2.28
   1  -7  -3   58.40    2.22
  -7  -1  -3   59.71    2.25
   1   7   3   56.82    2.19
  -1   7   3   57.80    2.17
  -7   1  -3   53.33    2.03
   7   1   3   58.65    2.18
  -1  -3  -7   55.76    2.15
   7  -1   3   57.29    2.06
  -3  -1  -7   58.61    2.11
   1  -3  -7   54.38    2.05
   7  -3  -1   55.68    2.27
  -1   3   7   57.45    2.11
   3   1   7   58.22    2.21
   7   1  -3   53.11    3.06
   1  -7   3   59.40    4.72
  -1  -7   3   66.03    4.76
  -7  -3   1   57.56    4.65
   1   7  -3   63.31    5.39
  -1   7  -3   59.10    4.91
   7   3  -1   67.66    4.96
  -3  -7   1   62.92    5.00
   7  -3   1   57.28    6.38
  -7  -3  -1   56.48    4.55
  -3  -7   3   33.21    2.22
   7   3  -3   38.66    2.05
  -3   7  -3   39.99    2.14
   3   7  -3   38.41    2.04
  -3  -7  -3   42.86    2.35
  -7  -3  -3   39.10    2.09
   3  -7  -3   39.06    2.04
   3   7   3   40.09    2.21
   7   3   3   46.35    1.98
  -3   7   3   44.56    1.92
  -3  -3  -7   41.19    1.95
   3   3   7   43.26    1.91
  -7   3  -3   48.09    2.61
   3  -3  -7   41.37    1.86
   7  -3  -3   43.77    1.91
   3  -7   3   46.00    3.55
   7   3  -3   41.17    4.22
  -3  -7   3   50.53    5.51
   3   7  -3   51.30    4.78
  -3   7  -3   48.01    4.10
  -1   7  -5  438.82    8.38
   1   7  -5  438.97    8.28
  -7  -5   1  443.23    7.81
   5  -7   1  421.24    7.49
  -5  -7   1  439.41    7.72
   7   5  -1  442.00    7.90
   5   7  -1  448.59    8.25
  -7  -5  -1  442.34    7.74
  -5  -7  -1  434.35    7.55
  -5   7  -1  422.63    7.52
   5  -7  -1  422.59    7.40
   7   5   1  447.68    8.16
   5   7   1  443.31    7.81
  -7   5  -1  463.53    8.65
   7  -5  -1  443.01    7.72
  -5   7   1  449.73    8.04
  -1  -7  -5  441.49    7.66
   1  -7  -5  435.64    7.43
  -7  -1  -5  449.23    7.60
   1   7   5  441.92    7.81
  -1   7   5  452.23    7.79
   1  -5  -7  435.47    7.72
  -7   1  -5  457.62    7.74
   7   1   5  452.59    7.92
  -5  -1  -7  458.93    7.86
   1   5   7  469.77    8.26
  -7   5   1  446.10    7.58
  -1   5   7  450.07    7.90
  -5   1  -7  449.25    7.52
   5   1   7  445.17    7.74
   7  -1   5  443.56    7.94
  -1   7  -5  449.79   10.51
   1   7  -5  465.33   11.07
  -7  -5   1  462.36   11.61
  -7  -5   3 1157.28   17.42
  -5  -7   3 1178.72   17.73
   3   7  -5 1149.33   18.35
   7   5  -3 1149.03   17.48
  -5   7  -3 1161.25   18.11
   5   7  -3 1192.93   17.84
  -7  -5  -3 1170.80   17.23
  -5  -7  -3 1150.66   16.88
   5   7   3 1244.68   18.34
   7   5   3 1193.53   18.06
  -3  -7  -5 1174.03   17.14
   5  -7  -3 1156.25   16.97
  -7  -3  -5 1194.93   17.58
   3  -7  -5 1166.77   16.84
  -3  -5  -7 1182.20   17.28
   7   3   5 1162.12   16.97
  -5  -3  -7 1172.11   17.00
  -5   7   3 1177.37   17.31
   7  -5  -3 1177.42   17.26
  -3   7   5 1185.65   17.61
   3   5   7 1163.48   17.01
   3  -5  -7 1181.89   17.09
   5   3   7 1193.95   17.74
  -3   5   7 1207.07   17.83
  -7   3  -5 1203.78   17.49
   5  -3  -7 1203.82   17.44
  -7   5   3 1205.34   17.59
   7   3  -5 1210.22   19.11
  -7  -5   3 1197.37   20.17
  -3   7  -5 1199.56   21.20
  -5  -7   3 1181.94   20.86
   3   7  -5 1238.34   23.24
   7   5  -3 1207.04   21.82
   5   7  -3 1212.48   23.57
   7   5  -5 2294.35   32.55
   5   7  -5 2334.27   33.42
  -5  -7  -5 2340.85   32.25
  -7  -5  -5 2364.31   32.51
   5   7   5 2422.04   33.56
  -5  -5  -7 2335.41   32.10
   7   5   5 2427.13   33.95
   5  -7  -5 2375.77   32.70
   5   5   7 2367.15   32.80
  -5   7   5 2324.98   32.51
   7  -5  -5 2351.93   32.36
   5  -5  -7 2401.92   32.90
  -5   5   7 2363.21   32.55
  -5   7  -5 2469.30   37.58
   7   5  -5 2424.82   37.54
   5   7  -5 2407.07   37.45
   7  -7   1  749.27   12.09
  -7  -7   1  779.43   12.27
  -7  -7  -1  806.13   12.47
   7   7  -1  801.38   12.82
   7  -7  -1  765.98   11.93
   7   7   1  798.08   12.67
  -7   7  -1  796.66   12.54
  -1  -7  -7  758.65   11.67
   1  -7  -7  802.73   12.44
  -7   7   1  764.33   11.86
  -7  -1  -7  772.57   11.94
   1   7   7  771.17   12.05
  -1   7   7  795.27   12.63
  -7   1  -7  773.23   11.81
   7   1   7  798.27   12.43
  -7  -7   1  794.94   16.09
  -7  -7   3 1636.62   23.82
  -7   7  -3 1671.63   24.30
   7   7  -3 1666.55   23.95
  -7  -7  -3 1664.45   23.54
   7   7   3 1756.28   25.25
   7  -7  -3 1714.60   24.27
  -3  -7  -7 1658.88   23.50
  -7  -3  -7 1655.08   23.39
   3  -7  -7 1697.48   23.82
   3   7   7 1665.84   24.05
   7   3   7 1714.17   24.19
  -7   7   3 1694.82   23.98
  -3   7   7 1746.21   24.86
  -7   3  -7 1710.23   24.05
   3   7  -7 1755.32   28.04
  -7  -7   3 1681.97   27.04
   7   7  -3 1708.49   28.41
   7   7  -5 2733.10   38.47
  -7  -7  -5 2808.86   38.34
  -5  -7  -7 2765.31   37.75
  -7  -5  -7 2834.27   38.65
   7   7   5 2797.62   38.56
   5   7   7 2913.29   40.33
   7  -7  -5 2726.70   37.46
   7   5   7 2832.65   38.81
   5  -7  -7 2728.37   37.19
   7  -5  -7 2729.99   37.26
  -5   7   7 2857.93   39.15
  -7   7   5 2830.38   38.73
   7   5  -7 2847.39   41.12
   5   7  -7 2795.19   41.44
  -7   7  -5 2871.70   43.38
   7   7  -5 2820.67   43.72
   7   7  -7 3646.63   55.43
  -7  -7  -7 3557.82   47.60
   7   7   7 3587.00   48.44
   7  -7  -7 3598.61   53.61
  -7   7   7 3599.88   53.81
   7   7  -7 3592.84   52.25
  -8   0   0 3405.73   46.61
   0  -8   0 3266.03   44.31
   8   0   0 3386.29   46.01
   0   8   0 3499.61   47.70
  -8   0   0 3328.79   48.40
   8   0   0 3479.03   51.94
   8   0  -2  372.75    7.00
   0  -8   2  377.61    6.88
  -8  -2   0  377.35    6.97
   0   8  -2  379.72    7.38
  -2  -8   0  387.71    7.01
   2  -8   0  384.28    6.95
   8   2   0  392.63    7.25
   2   8   0  394.61    7.59
  -8   0  -2  391.03    6.92
  -2   8   0  379.30    7.05
   0  -8  -2  374.71    6.78
   0   8   2  390.77    7.01
   8   0   2  392.76    6.99
   0  -2  -8  390.55    6.95
  -2   0  -8  398.80    6.80
   8   0  -2  382.93    9.10
  -8  -2   0  408.29   10.20
   8  -2   0  398.86   10.53
   0  -8   2  401.31   10.39
  -8   0  -2  407.86    9.99
   2  -8   2  175.37    4.02
   8   2  -2  178.47    4.06
  -2  -8   2  183.48    4.28
   2   8  -2  174.02    4.09
  -2   8  -2  186.43    4.39
  -8  -2  -2  186.13    4.13
  -2  -8  -2  176.36    4.06
   2  -8  -2  186.35    4.07
  -8   2  -2  192.64    5.02
   2   8   2  176.03    4.14
   8   2   2  183.72    4.10
  -2   8   2  189.18    4.48
  -2  -2  -8  181.48    3.86
   8  -2   2  185.65    4.28
   2  -2  -8  191.17    4.21
   2   2   8  181.44    4.07
  -8  -2   2  179.86    5.14
   8   2  -2  192.02    6.93
  -2  -8   2  177.02    6.90
  -8   2  -2  178.13    6.57
   2  -8   2  180.17    6.88
   0   8  -4   22.39    1.80
  -8  -4   0   21.01    1.94
  -4  -8   0   22.40    1.85
   4  -8   0   20.86    1.74
   8   4   0   21.60    1.62
   4   8   0   15.71    1.64
  -4   8   0   23.13    1.70
   0  -8  -4   17.34    1.63
  -8   0  -4   21.25    1.60
   0   8   4   20.09    1.64
   8   0   4   22.01    1.51
   0  -4  -8   22.28    1.65
   0   4   8   22.61    1.57
  -4   0  -8   19.57    1.70
   8  -4   0   21.77    2.60
   0  -8   4   22.74    3.10
   0   8  -4   25.24    4.01
  -8  -4   0   18.38    4.36
  -2  -8   4   80.07    2.88
  -8  -4   2   81.52    2.93
   4  -8   2   80.49    2.76
  -2   8  -4   76.79    2.63
   2   8  -4   76.48    2.66
  -4  -8   2   76.08    2.90
   8   4  -2   78.69    2.73
  -4   8  -2   79.82    2.75
  -8  -4  -2   80.88    2.56
  -4  -8  -2   75.18    2.55
   4  -8  -2   77.19    2.57
   4   8   2   79.46    2.59
  -2  -8  -4   76.02    2.54
   8   4   2   78.35    2.49
  -8  -2  -4   81.06    2.60
   2  -8  -4   75.02    2.57
   2   8   4   82.90    2.62
  -4   8   2   79.83    2.44
  -2   8   4   76.71    2.61
   8   2   4   83.36    2.50
  -8   2  -4   78.12    2.47
  -2  -4  -8   75.99    2.45
  -4  -2  -8   82.29    2.53
   8  -4  -2   75.05    2.27
   2  -4  -8   78.23    2.59
   2   4   8   81.30    2.47
   4   2   8   83.31    2.64
  -2   4   8   79.95    2.57
   2  -8   4   86.36    3.77
   8   2  -4   83.15    4.02
  -2  -8   4   88.09    4.62
  -8  -4   2   81.78    4.94
  -4  -8   2   80.50    6.35
   2   8  -4   88.71    5.37
  -2   8  -4   81.49    5.24
   4  -8   2   85.81    5.35
   8   4  -2   78.59    5.26
  -4  -8   4  561.13    9.68
   8   4  -4  541.87    9.48
  -4   8  -4  565.76    9.81
   4   8  -4  561.03    9.94
  -4  -8  -4  573.32    9.38
  -8  -4  -4  563.86    9.14
   4  -8  -4  566.41    9.18
   4   8   4  572.65    9.70
   8   4   4  571.63    9.51
  -4   8   4  595.21    9.63
  -4  -4  -8  578.67    9.41
   4   4   8  577.16    9.66
   4  -4  -8  580.68    9.34
   8  -4  -4  564.45    9.26
  -8   4  -4  583.85    9.60
  -4  -8   4  564.28   11.49
   8   4  -4  603.57   12.92
   4   8  -4  591.50   14.40
  -4   8  -4  616.57   13.73
   0   8  -6  199.78    4.97
  -8  -6   0  215.04    4.67
  -6  -8   0  203.06    4.46
   8  -6   0  206.55    6.00
   6  -8   0  206.55    4.44
   6   8   0  212.74    4.78
   8   6   0  211.29    4.72
  -6   8   0  220.05    4.87
   0  -8  -6  216.97    4.52
  -8   0  -6  215.95    4.48
   0   8   6  224.18    4.74
   0  -6  -8  220.29    4.47
  -6   0  -8  217.63    4.35
   0   6   8  225.23    4.93
   8   0   6  218.83    4.56
   0   8  -6  233.49    7.44
  -8  -6   0  227.25    8.16
  -6  -8   0  217.85    7.66
   2   8  -6  660.36   11.38
   6  -8   2  646.52   10.54
  -8  -6   2  683.87   11.09
  -6  -8   2  658.60   10.62
   8   6  -2  688.38   11.13
   6   8  -2  702.70   11.34
  -6   8  -2  673.76   10.95
  -8  -6  -2  671.98   10.82
  -8   6  -2  645.39   10.40
  -6  -8  -2  640.90   10.25
   6   8   2  669.33   10.81
   6  -8  -2  656.17   10.58
   8   6   2  702.63   11.47
  -2  -8  -6  677.31   11.18
   8  -6  -2  677.38   10.86
  -8  -2  -6  676.26   10.74
   2  -8  -6  685.06   10.82
  -6   8   2  690.76   11.14
   2   8   6  705.25   11.24
  -2  -6  -8  676.05   11.12
  -6  -2  -8  690.08   10.87
  -2   8   6  694.19   10.94
   2  -6  -8  670.06   10.57
   8   2   6  683.70   10.87
   2   6   8  686.14   10.84
  -8   2  -6  678.45   10.73
   6   2   8  674.93   10.80
  -2   6   8  696.60   11.22
  -8   6   2  688.10   10.91
  -6   2  -8  668.63   10.33
  -2   8  -6  662.24   13.41
   2   8  -6  698.55   15.11
  -8  -6   2  678.26   13.81
   6  -8   2  713.17   14.81
   8   6  -2  727.52   14.95
  -6  -8   4 1412.91   20.86
   4   8  -6 1455.02   21.73
  -6   8  -4 1396.00   20.83
   8   6  -4 1415.64   20.84
   6   8  -4 1415.83   20.86
  -6  -8  -4 1455.06   20.76
  -8  -6  -4 1387.81   19.86
  -4  -8  -6 1419.45   20.35
   6   8   4 1472.23   21.65
  -8  -4  -6 1441.37   20.75
   8   6   4 1485.97   21.64
   6  -8  -4 1449.48   20.88
   4   8   6 1459.96   21.10
   4  -8  -6 1429.50   20.25
  -4  -6  -8 1464.42   21.04
  -6  -4  -8 1465.50   20.85
   8   4   6 1483.46   21.23
   8  -6  -4 1424.41   20.56
   4   6   8 1386.69   20.40
  -6   8   4 1481.75   21.30
   4  -6  -8 1413.77   20.02
  -4   8   6 1464.84   21.03
   6   4   8 1485.45   21.27
   6  -4  -8 1457.47   20.66
  -4   6   8 1456.73   21.13
   8  -4  -6 1439.30   20.54
  -8   4  -6 1483.54   21.14
   8   4  -6 1471.19   23.10
  -8  -6   4 1453.70   22.64
  -4   8  -6 1486.83   25.70
  -6  -8   4 1478.35   23.79
   4   8  -6 1485.20   26.02
   8   6  -4 1492.44   25.91
   6   8  -4 1485.74   26.25
   8   6  -6 2706.55   38.03
   6   8  -6 2680.08   37.42
  -6  -8  -6 2705.29   36.95
  -8  -6  -6 2681.70   36.70
  -6  -6  -8 2679.20   36.61
   6   8   6 2696.43   37.01
   8   6   6 2710.69   37.14
   6  -8  -6 2704.60   36.89
   6   6   8 2730.95   37.87
   8  -6  -6 2774.98   37.89
   6  -6  -8 2718.70   37.07
  -6   8   6 2751.77   37.65
  -6   8  -6 2714.62   41.14
   8   6  -6 2785.91   42.53
   6   8  -6 2672.35   42.02
  -8  -8   0   23.12    1.84
   8  -8   0   22.25    1.61
   8   8   0   28.10    1.80
  -8   8   0   25.95    1.49
   0  -8  -8   23.73    1.77
  -8   0  -8   25.53    1.56
   0   8   8   25.40    1.63
   8   0   8   27.96    1.65
  -8  -8   0   24.42    4.51
  -8  -8   2  246.08    5.15
   8   8  -2  252.06    5.39
  -8  -8  -2  242.60    4.85
  -8   8  -2  231.23    4.87
   8  -8  -2  235.82    4.85
   8   8   2  259.51    5.63
  -2  -8  -8  237.62    4.65
   2  -8  -8  245.77    4.84
  -8  -2  -8  247.33    4.85
   2   8   8  246.96    5.22
  -8   8   2  246.77    5.03
  -2   8   8  264.68    5.20
   8   2   8  245.66    5.17
  -8   2  -8  237.74    4.73
   2   8  -8  252.11    6.95
  -8  -8   2  262.24    8.15
  -8  -8   4 1098.09   16.32
  -8   8  -4 1086.91   16.37
   8   8  -4 1086.14   16.63
  -8  -8  -4 1098.45   16.19
   8   8   4 1070.86   16.13
  -4  -8  -8 1073.71   15.69
   8  -8  -4 1068.24   15.80
  -8  -4  -8 1100.35   16.11
   4  -8  -8 1094.84   15.94
   4   8   8 1100.72   16.20
   8   4   8 1117.04   16.45
  -4   8   8 1104.77   16.29
  -8   8   4 1122.86   16.49
   8  -4  -8 1061.12   15.49
  -8   4  -8 1087.35   15.75
   4   8  -8 1103.34   19.14
  -8  -8   4 1141.38   19.15
   6   8  -8 2296.37   32.40
   8   8  -6 2350.41   33.41
  -8  -8  -6 2476.61   33.77
  -8  -6  -8 2416.56   32.94
   8   8   6 2472.96   34.17
   8  -8  -6 2432.38   33.30
   6   8   8 2419.39   33.42
   6  -8  -8 2399.57   32.74
   8   6   8 2473.25   34.07
   8  -6  -8 2411.23   32.79
  -6   8   8 2534.67   34.97
  -8   8   6 2474.80   33.93
   8   6  -8 2321.55   34.90
   6   8  -8 2469.62   38.37
  -8   8  -6 2511.84   38.24
   8   8  -6 2410.23   38.67
   8   8  -8 2212.02   31.43
  -8  -8  -8 2234.48   30.71
   8   8   8 2249.85   31.21
   8  -8  -8 2329.27   31.93
  -8   8   8 2197.44   30.16
   8   8  -8 2292.63   37.41
   9  -1  -1 1970.88   27.89
  -9   1  -1 2082.22   29.49
  -1  -9   1 2012.03   28.27
   1  -9   1 2026.80   28.46
   9   1  -1 2053.86   28.88
  -9  -1  -1 2112.26   29.57
   1   9  -1 2061.88   29.52
  -1  -9  -1 2015.40   28.20
  -1   9  -1 2116.77   29.92
   1  -9  -1 2068.20   28.87
   1   9   1 1995.22   28.54
   9   1   1 2147.91   30.26
  -1   9   1 2143.03   30.23
   9  -1   1 2017.28   28.26
  -1  -1  -9 2017.71   27.96
  -9  -1   1 2064.27   32.09
  -9   1  -1 2070.76   33.10
   9  -1  -1 1971.59   31.22
  -9  -1  -1 2054.42   33.11
   9   1  -1 2056.57   33.28
  -1  -9   1 2098.81   32.71
   9   1  -3   82.49    2.70
   1  -9   3   85.17    2.83
  -1  -9   3   82.92    2.81
  -9  -3   1   91.14    3.00
   3  -9   1   86.31    2.68
  -3  -9   1   86.10    2.98
  -1   9  -3   88.82    2.88
   1   9  -3   92.47    3.15
  -9  -3  -1   85.89    2.62
   9   3  -1   85.46    2.97
   3   9  -1   82.80    2.66
  -3  -9  -1   90.53    2.95
   3  -9  -1   90.22    2.83
  -3   9  -1   92.90    2.81
   3   9   1   92.61    3.01
  -1  -9  -3   90.46    2.73
   9   3   1   88.73    2.74
  -9  -1  -3   93.58    2.72
   1  -9  -3   89.39    2.72
  -9   1  -3   89.91    2.68
  -3   9   1   88.05    2.70
   1   9   3   96.14    2.88
  -1   9   3   90.68    2.74
   9   1   3   90.91    2.61
   9  -1   3   95.05    2.76
  -1  -3  -9   94.94    2.72
   1  -3  -9   95.63    2.71
  -3  -1  -9   95.08    2.83
   1   3   9   95.03    2.81
   9  -3  -1   88.25    3.77
   9   1  -3   87.12    5.02
  -9  -3   1   96.37    5.43
   1  -9   3   91.40    5.81
  -1  -9   3   98.20    5.49
  -9  -3  -1   95.35    5.97
   9   3  -1  103.62    5.38
  -3  -9   1   94.62    6.03
   3  -9   3    7.91    1.82
  -3  -9   3    7.16    1.71
   9   3  -3    6.33    1.41
   3   9  -3    5.74    1.54
  -3   9  -3    7.82    1.63
  -9  -3  -3    5.92    1.60
  -3  -9  -3    7.02    1.61
   3   9   3    8.41    1.53
   9   3   3    6.70    1.23
  -3   9   3    7.54    1.56
   3   3   9    7.76    1.34
   3  -3  -9    8.50    1.45
   3  -9   3    7.55    3.62
  -3  -9   3    4.68    4.90
   3   9  -3    5.59    4.21
  -1   9  -5   20.58    1.76
   1   9  -5   19.04    1.79
  -9  -5   1   18.94    1.73
   5  -9   1   19.34    1.56
  -5  -9   1   15.75    1.99
  -9  -5  -1   17.72    1.63
   9   5  -1   21.99    1.85
  -5  -9  -1   17.09    1.80
   5   9  -1   19.91    1.68
   5  -9  -1   20.18    1.70
  -5   9  -1   22.64    1.61
   5   9   1   21.37    1.74
   9   5   1   19.32    1.82
  -1  -9  -5   16.75    1.92
   1  -9  -5   18.33    1.63
  -5   9   1   17.33    1.55
  -9  -1  -5   17.91    1.66
   1   9   5   20.17    1.60
  -1   9   5   19.14    1.59
  -9   1  -5   20.21    1.53
  -1  -5  -9   19.21    1.61
   9   1   5   18.16    1.50
   1  -5  -9   19.86    1.65
  -5  -1  -9   18.37    1.50
   1   5   9   20.47    1.56
   9  -1   5   21.49    1.43
  -1   5   9   21.62    1.56
  -5   1  -9   19.79    1.74
   5   1   9   17.91    1.64
  -1  -9   5   18.23    3.10
  -9  -5   1   18.46    4.20
   1   9  -5   11.64    3.91
  -1   9  -5   15.98    4.42
  -5  -9   1   17.61    4.36
  -9  -5  -1   19.42    4.76
  -5  -9   3  270.22    5.61
  -3   9  -5  261.96    5.88
   3   9  -5  270.62    5.65
   9   5  -3  272.38    5.99
   5   9  -3  270.75    5.52
  -5   9  -3  259.79    5.37
  -9  -5  -3  262.21    5.22
  -5  -9  -3  260.89    5.09
   5  -9  -3  266.13    5.39
   5   9   3  283.53    5.69
  -9  -3  -5  270.26    5.33
   9   5   3  272.52    5.30
   3  -9  -5  266.01    5.01
   3   9   5  280.99    5.83
  -5   9   3  272.84    5.47
   9   3   5  263.76    5.21
  -3   9   5  278.99    5.94
  -3  -5  -9  278.55    5.20
  -5  -3  -9  263.10    5.08
   9  -5  -3  265.27    5.24
  -9   3  -5  269.40    5.28
   3  -5  -9  264.90    5.07
   3   5   9  276.09    5.41
   5   3   9  277.39    5.75
   5  -3  -9  275.36    5.23
  -3   5   9  274.99    5.54
  -3  -9   5  261.52    6.53
  -9  -5   3  265.59    7.07
   9   3  -5  272.50    7.68
   5  -9   3  264.59    7.43
  -5  -9   3  254.11    7.94
   3   9  -5  284.90    9.16
   9   5  -3  287.07    9.24
  -3   9  -5  267.58    8.37
   5   9  -3  296.44    8.87
   9   5  -5  907.54   14.45
  -5   9  -5  842.42   13.77
   5   9  -5  871.62   14.41
  -5  -9  -5  891.53   13.51
  -9  -5  -5  888.01   13.45
   5  -9  -5  879.62   13.24
   5   9   5  920.36   13.98
   9   5   5  947.10   14.53
  -5  -5  -9  912.69   13.63
  -5   9   5  909.98   13.70
   5   5   9  897.90   13.96
   5  -5  -9  883.03   13.14
   9  -5  -5  892.56   13.49
  -5  -9   5  881.93   16.04
   9   5  -5  944.57   19.63
   5   9  -5  928.45   18.97
  -5   9  -5  904.99   17.96
  -1   9  -7   28.05    1.96
   1   9  -7   27.42    2.01
   7  -9   1   27.94    1.77
  -9  -7   1   28.43    2.15
  -7  -9   1   31.67    2.03
  -9  -7  -1   26.09    1.81
  -7  -9  -1   28.07    1.91
   9   7  -1   28.75    1.95
   7   9  -1   30.68    1.88
   7  -9  -1   25.45    1.65
   9  -7  -1   26.01    1.60
   7   9   1   28.98    1.83
   9   7   1   28.83    1.77
  -7   9  -1   30.09    1.61
  -1  -9  -7   30.75    2.04
  -9   7  -1   28.46    1.58
  -7   9   1   30.15    1.63
   1  -9  -7   29.13    2.02
  -9  -1  -7   26.52    1.78
  -1  -7  -9   27.10    1.99
   1   9   7   27.18    1.72
   1  -7  -9   26.99    1.70
  -1   9   7   27.75    1.67
  -9   1  -7   27.56    1.71
  -7  -1  -9   26.24    1.62
   1   7   9   28.80    1.70
  -9   7   1   24.80    1.38
   9   1   7   28.17    1.71
  -1   7   9   27.70    1.64
  -7   1  -9   27.57    1.59
   7   1   9   26.23    1.54
   9  -1   7   25.60    1.56
  -1   9  -7   32.15    3.37
   1   9  -7   30.05    3.65
  -9  -7   1   15.76    4.44
  -7  -9   1   27.40    4.48
  -9  -7  -1   30.33    4.30
  -9  -7   3  415.38    7.53
   3   9  -7  393.59    7.98
  -7  -9   3  404.45    7.26
   9   7  -3  419.16    7.65
   7   9  -3  407.16    7.31
  -9   7  -3  399.99    7.39
  -7   9  -3  392.25    7.32
  -7  -9  -3  407.57    7.03
  -9  -7  -3  410.25    7.28
   7  -9  -3  413.12    7.14
   7   9   3  427.82    7.91
   9   7   3  425.70    7.69
  -3  -9  -7  385.87    6.76
  -9  -3  -7  409.54    7.17
   9  -7  -3  390.63    6.88
   3  -9  -7  408.96    7.06
  -3  -7  -9  418.14    7.22
   3   9   7  415.92    7.77
  -7  -3  -9  410.83    7.29
  -7   9   3  422.10    7.44
   3  -7  -9  392.20    6.78
   9   3   7  409.97    7.26
  -3   9   7  413.34    7.21
   3   7   9  425.30    7.47
  -9   3  -7  399.53    6.93
   7   3   9  410.46    7.19
  -3   7   9  421.27    7.85
  -9   7   3  412.49    7.16
  -7   3  -9  400.62    6.93
  -3   9  -7  401.31   10.02
  -9  -7   3  401.44    9.52
   3   9  -7  437.78   11.46
   9   7  -3  436.19   12.05
   7   9  -3  422.16   11.06
  -7   9  -5 1314.90   19.66
   9   7  -5 1345.17   20.08
   7   9  -5 1400.15   20.50
  -9  -7  -5 1389.58   19.86
  -7  -9  -5 1350.10   19.27
  -9  -5  -7 1344.00   19.12
   7   9   5 1400.73   20.30
   9   7   5 1414.45   20.46
   7  -9  -5 1360.57   19.45
  -5  -7  -9 1314.85   18.69
  -7  -5  -9 1358.01   19.32
   5  -9  -7 1396.71   19.97
   5   9   7 1364.86   19.73
   9   5   7 1389.22   20.27
   9  -7  -5 1377.18   19.64
   5   7   9 1375.11   19.88
   5  -7  -9 1389.18   19.57
   7   5   9 1389.23   19.99
  -7   9   5 1396.88   20.00
  -5   9   7 1373.78   19.87
   7  -5  -9 1393.22   19.76
   9  -5  -7 1372.76   19.70
  -5   7   9 1381.24   19.99
   9   5  -7 1430.68   23.90
  -5   9  -7 1434.20   25.05
   5   9  -7 1403.65   25.21
   9   7  -5 1383.56   25.02
   7   9  -5 1408.91   25.75
   9   7  -7 2136.04   30.32
   7   9  -7 2101.47   29.77
  -7  -9  -7 2103.78   29.20
  -9  -7  -7 2167.15   29.75
  -7  -7  -9 2143.86   29.69
   7   9   7 2142.30   29.89
   7  -9  -7 2180.66   29.95
   9   7   7 2131.66   29.59
   7   7   9 2149.45   30.02
   9  -7  -7 2184.04   30.03
   7  -7  -9 2127.58   29.20
  -7   9   7 2189.38   30.25
   7   7  -9 2086.94   32.58
  -7   9  -7 2095.67   32.44
   9   7  -7 2103.90   33.87
   7   9  -7 2143.23   34.95
   9  -9   1  128.69    3.53
  -9  -9   1  135.19    3.47
  -9  -9  -1  137.74    3.42
   9  -9  -1  126.61    3.28
   9   9  -1  131.11    3.51
   9   9   1  142.95    3.96
  -9   9  -1  126.58    3.44
  -1  -9  -9  130.45    3.19
   1  -9  -9  130.30    3.19
  -9   9   1  134.47    3.35
  -9  -1  -9  132.79    3.17
   1   9   9  130.48    3.40
  -9   1  -9  130.57    3.12
  -1   9   9  135.76    3.42
   9   1   9  136.39    3.36
   1   9  -9  141.84    5.02
  -9  -9   1  133.09    6.27
  -9  -9  -1  140.41    6.01
  -9  -9   3   19.51    1.93
   9   9  -3   25.38    1.92
  -9   9  -3   26.04    1.56
  -9  -9  -3   23.30    1.79
   9   9   3   24.67    1.76
   9  -9  -3   23.60    1.64
  -3  -9  -9   22.69    1.69
  -9  -3  -9   26.39    1.88
   3  -9  -9   23.25    1.71
   3   9   9   25.06    1.70
  -9   9   3   25.15    1.47
  -3   9   9   25.21    1.75
   9   3   9   25.04    2.10
  -9   3  -9   24.32    1.51
   3   9  -9   23.97    3.00
  -9  -9   3   26.07    4.40
   9   9  -3   28.34    4.05
  -9   9  -5  558.16    9.66
   9   9  -5  576.80    9.84
  -9  -9  -5  570.72    9.35
   9   9   5  622.04   10.40
  -5  -9  -9  587.96    9.42
  -9  -5  -9  596.19    9.49
   9  -9  -5  606.43    9.83
   5  -9  -9  590.63    9.51
   5   9   9  578.29    9.81
   9   5   9  604.11    9.87
  -5   9   9  601.40   10.12
  -9   9   5  600.38    9.87
   9  -5  -9  573.15    9.03
  -9  -9   5  608.43   11.39
   5   9  -9  592.97   12.70
   7   9  -9 1072.43   17.14
   9   9  -7 1049.51   16.27
  -9  -9  -7 1055.52   15.78
  -7  -9  -9 1060.22   15.47
  -9  -7  -9 1025.90   15.36
   9   9   7 1088.15   16.36
   9  -9  -7 1076.60   15.86
   7   9   9 1085.23   16.06
   7  -9  -9 1072.50   15.65
   9   7   9 1051.87   15.85
   9  -7  -9 1085.26   15.87
  -7   9   9 1098.41   16.39
  -9   9   7 1081.22   16.04
   9   7  -9 1044.57   18.46
   7   9  -9 1063.37   20.99
  -9   9  -7 1143.28   20.96
   9   9  -7 1095.52   22.50
   9   9  -9  247.54    5.75
  -9  -9  -9  239.76    5.24
   9   9   9  254.21    5.81
   9  -9  -9  250.80    5.12
   9   9  -9  228.50    7.70
 -10   0   0 4215.79   57.35
   0 -10   0 4253.57   57.04
  10   0   0 4416.53   58.83
   0  10   0 4341.96   58.15
 -10   0   0 4275.63   60.70
  10   0   0 4412.41   63.45
  10   0  -2 1586.33   22.97
 -10  -2   0 1541.91   22.27
   0 -10   2 1549.96   22.15
  -2 -10   0 1553.95   22.13
   2 -10   0 1588.87   22.65
   0  10  -2 1573.74   23.14
 -10   0  -2 1583.40   22.66
  10   2   0 1632.31   23.41
   0 -10  -2 1558.50   22.25
   2  10   0 1619.32   23.80
  -2  10   0 1655.31   24.16
   0  10   2 1613.99   23.12
  10   0   2 1654.76   23.51
   0  -2 -10 1579.94   22.30
  -2   0 -10 1612.31   22.69
  10   0  -2 1584.32   26.04
 -10  -2   0 1578.95   26.35
 -10   0  -2 1575.72   26.62
  10  -2   0 1615.32   27.62
   0 -10   2 1580.79   26.00
   2 -10   2  854.03   13.17
  -2 -10   2  859.74   13.22
  10   2  -2  896.65   14.14
   2  10  -2  890.31   14.47
 -10   2  -2  888.28   14.49
  -2  10  -2  916.49   14.59
 -10  -2  -2  882.38   13.39
  -2 -10  -2  832.54   12.69
   2 -10  -2  843.49   12.90
   2  10   2  893.64   13.94
  10   2   2  889.27   13.69
  -2  10   2  871.40   13.51
  10  -2   2  933.34   14.72
  -2  -2 -10  872.75   13.00
   2  -2 -10  867.06   13.10
 -10  -2   2  891.56   15.07
  10  -2  -2  858.37   15.68
 -10   2  -2  839.97   16.76
  10   2  -2  873.86   17.21
  -2 -10   2  855.95   16.36
   2 -10   2  855.36   16.35
 -10  -2  -2  867.87   16.65
   0 -10   4   95.44    3.07
 -10  -4   0   95.73    2.98
   0  10  -4   89.03    2.83
   4 -10   0   96.27    2.77
  10   4   0   95.81    2.77
   4  10   0   98.62    3.26
  -4  10   0   94.58    2.87
   0 -10  -4   96.48    2.78
 -10   0  -4   96.61    2.72
   0  10   4   99.01    2.95
  10   0   4   96.83    2.66
   0  -4 -10   96.01    2.67
  -4   0 -10   99.66    2.70
   0   4  10  100.98    2.73
  10   0  -4  102.96    3.64
   0 -10   4  106.45    5.12
  10  -4   0   95.41    4.70
 -10  -4   0   93.83    5.63
   0  10  -4   97.38    5.10
   2 -10   4   37.85    2.40
  -2 -10   4   40.99    2.25
 -10  -4   2   40.79    2.37
  10   2  -4   39.79    1.99
   4 -10   2   38.97    2.14
  -4 -10   2   35.77    2.14
  -2  10  -4   41.18    2.21
   2  10  -4   40.18    2.08
  10   4  -2   44.06    2.17
   4  10  -2   40.95    2.06
 -10  -4  -2   38.57    2.06
  -4  10  -2   39.96    1.91
  -4 -10  -2   40.98    2.07
   4 -10  -2   38.54    1.85
  -2 -10  -4   40.62    2.02
 -10  -2  -4   43.62    1.90
   4  10   2   40.19    2.02
   2 -10  -4   36.48    1.91
  10   4   2   39.87    1.86
  -4  10   2   40.12    1.83
   2  10   4   44.74    2.03
 -10   2  -4   40.33    1.85
  -2  10   4   42.94    2.12
  10   2   4   40.58    1.91
  -2  -4 -10   40.73    1.97
  -4  -2 -10   41.76    2.12
   2  -4 -10   43.48    1.94
  10  -4  -2   40.15    1.81
   2   4  10   40.56    1.87
  10  -2   4   40.04    1.72
   4   2  10   46.21    1.90
   2 -10   4   43.11    4.02
  10   2  -4   46.83    3.82
 -10  -4   2   47.44    4.73
  -2 -10   4   51.02    4.98
  -4 -10   2   32.72    4.60
  10   4  -2   41.46    4.48
   4 -10   2   46.69    4.40
   2  10  -4   47.17    5.03
 -10  -4  -2   43.33    4.24
  -4 -10   4   59.04    2.52
  10   4  -4   56.83    2.42
   4  10  -4   61.78    2.45
  -4  10  -4   61.33    2.30
 -10  -4  -4   61.52    2.37
  -4 -10  -4   60.34    2.34
   4 -10  -4   61.70    2.23
   4  10   4   62.04    2.38
  10   4   4   61.05    2.31
  -4  10   4   65.31    2.42
 -10   4  -4   57.86    2.02
  -4  -4 -10   58.90    2.19
   4   4  10   56.21    2.07
   4  -4 -10   54.99    2.24
  10  -4  -4   59.53    2.04
   4 -10   4   60.93    3.72
  -4 -10   4   73.67    5.61
  10   4  -4   54.17    4.54
   4  10  -4   61.90    5.26
 -10   4  -4   58.49    4.17
   0  10  -6    6.95    1.54
 -10  -6   0    9.11    1.54
  -6 -10   0   10.10    1.60
   6 -10   0    8.79    1.50
  10   6   0    7.27    1.33
   6  10   0    6.57    1.46
  -6  10   0    7.95    1.32
   0 -10  -6    8.12    1.49
 -10   0  -6    8.21    1.21
   0  10   6   10.87    1.66
   0  -6 -10    8.78    1.50
  10   0   6    7.31    1.22
  -6   0 -10    6.72    1.33
   0   6  10    7.82    1.33
   0  10  -6    5.39    4.26
 -10  -6   0   14.15    4.31
  -6 -10   0    6.84    3.82
 -10  -6   2   14.08    1.68
  -2  10  -6   15.15    1.65
   6 -10   2   14.99    1.47
   2  10  -6   16.13    1.70
  -6 -10   2   16.99    1.87
  10   6  -2   16.28    1.79
   6  10  -2   15.25    1.62
 -10  -6  -2   15.82    1.86
  -6 -10  -2   20.30    1.80
  -6  10  -2   15.76    1.32
   6 -10  -2   15.96    1.43
   6  10   2   19.49    1.66
  10   6   2   15.01    1.51
  -2 -10  -6   16.33    1.65
 -10  -2  -6   15.68    1.60
   2 -10  -6   15.24    1.77
  10  -6  -2   15.35    1.35
  -6  10   2   18.25    1.58
   2  10   6   17.85    1.56
  -2  10   6   17.74    1.71
  -2  -6 -10   14.76    1.53
 -10   2  -6   17.22    1.45
  10   2   6   15.51    1.32
  -6  -2 -10   16.45    1.51
   2  -6 -10   12.71    1.53
   2   6  10   12.16    1.42
  -2   6  10   15.67    1.46
   6   2  10   17.52    1.61
  -6   2 -10   16.81    1.47
 -10  -6   2   12.63    4.85
   2  10  -6   13.30    3.85
  -2  10  -6   15.36    4.23
  -6 -10   2   20.48    4.60
   6 -10   2   14.11    3.25
  10   6  -2   17.29    4.43
  10   4  -6  324.86    6.87
  -4  10  -6  310.47    6.35
   4  10  -6  308.51    7.04
  10   6  -4  309.79    6.17
   6  10  -4  327.06    6.28
  -6  10  -4  331.06    6.47
 -10  -6  -4  318.88    5.88
  -6 -10  -4  300.96    5.65
   6 -10  -4  323.74    5.90
 -10  -4  -6  328.78    6.07
   6  10   4  331.81    6.37
  10   6   4  329.62    6.20
   4 -10  -6  315.48    5.67
   4  10   6  312.54    6.42
  10   4   6  319.74    6.19
  -4  -6 -10  324.74    5.80
  -6  10   4  330.88    6.18
  -6  -4 -10  326.72    5.77
  -4  10   6  329.68    6.04
  10  -6  -4  314.99    5.89
   4  -6 -10  330.95    5.83
   4   6  10  316.72    6.03
 -10   4  -6  321.81    5.91
   6   4  10  315.59    5.95
   6  -4 -10  324.52    5.82
  10  -4  -6  324.43    5.88
  -4   6  10  344.10    6.38
 -10  -6   4  328.59    7.19
  10   4  -6  338.86    8.69
  -6 -10   4  334.32    8.73
   4  10  -6  315.19    9.77
  -4  10  -6  345.97   10.42
  10   6  -4  333.60   10.30
   6  10  -4  335.10    9.94
  10   6  -6  951.75   15.12
  -6  10  -6  969.67   15.40
   6  10  -6  946.86   14.84
  -6 -10  -6  972.05   14.65
 -10  -6  -6  958.38   14.27
   6 -10  -6  969.85   14.40
   6  10   6  964.89   14.73
  10   6   6  985.22   15.06
  -6  -6 -10  947.64   14.04
  -6  10   6  981.71   14.59
   6   6  10  996.24   15.24
  10  -6  -6  949.78   14.08
   6  -6 -10  976.98   14.32
  -6 -10   6  937.08   15.37
  10   6  -6  982.55   19.40
   6  10  -6  977.98   19.38
  -6  10  -6 1010.44   19.34
   0  10  -8  188.86    5.12
  10  -8   0  185.35    4.30
 -10  -8   0  187.58    4.12
  -8 -10   0  177.09    4.05
   8 -10   0  171.78    3.99
  10   8   0  193.53    4.32
   8  10   0  186.22    4.28
  -8  10   0  184.08    4.17
   0 -10  -8  170.18    3.74
   0  -8 -10  181.01    3.89
 -10   0  -8  186.63    4.10
   0  10   8  190.74    4.25
 -10   8   0  181.26    4.09
  -8   0 -10  187.86    4.11
   0   8  10  190.72    4.18
  10   0   8  184.09    4.06
   0  10  -8  191.27    7.10
 -10  -8   0  177.52    6.96
  -8 -10   0  176.35    6.71
  -2  10  -8   24.16    2.11
   8 -10   2   24.25    1.78
   2  10  -8   24.60    1.97
 -10  -8   2   30.09    1.96
  -8 -10   2   22.74    1.89
 -10  -8  -2   24.89    1.84
  10   8  -2   25.65    1.78
  -8 -10  -2   23.74    1.83
   8  10  -2   26.00    1.81
   8 -10  -2   22.69    1.64
  -8  10  -2   24.57    1.48
  10   8   2   30.07    1.81
  10  -8  -2   24.42    1.59
   8  10   2   27.65    1.96
 -10   8  -2   24.35    1.56
  -2 -10  -8   27.97    2.00
   2 -10  -8   24.81    1.74
 -10  -2  -8   27.15    1.80
  -2  -8 -10   21.32    1.71
  -8  10   2   25.11    1.57
   2  10   8   23.94    1.68
   2  -8 -10   24.66    1.70
  -8  -2 -10   26.19    1.66
  -2  10   8   25.48    1.64
 -10   2  -8   27.13    1.70
   2   8  10   29.85    1.77
  10   2   8   28.51    1.57
  -2   8  10   25.09    1.64
 -10   8   2   24.82    1.52
  -8   2 -10   27.70    1.85
   8   2  10   27.30    1.60
  -2  10  -8   23.47    3.20
   2  10  -8   30.96    3.74
 -10  -8   2   23.16    4.21
  -8 -10   2   22.00    4.59
 -10  -8   4  147.35    3.80
  -8 -10   4  166.18    4.05
   4  10  -8  168.84    4.59
 -10   8  -4  155.41    3.96
  10   8  -4  163.73    4.08
   8  10  -4  157.65    3.90
  -8  10  -4  161.72    4.17
 -10  -8  -4  159.06    3.66
  -8 -10  -4  158.89    3.67
   8 -10  -4  159.54    3.63
   8  10   4  168.26    4.15
  -4 -10  -8  156.52    3.69
  10   8   4  163.47    3.95
 -10  -4  -8  168.40    3.73
  10  -8  -4  159.21    3.72
   4 -10  -8  159.96    3.56
  -4  -8 -10  161.25    3.79
  -8  -4 -10  163.16    3.68
   4  -8 -10  167.98    3.73
  10   4   8  168.78    3.90
  -8  10   4  164.71    3.68
   4   8  10  166.33    4.05
  -4  10   8  174.25    4.00
   8   4  10  161.92    3.71
 -10   4  -8  170.38    3.83
  -4   8  10  163.69    3.65
   8  -4 -10  160.82    3.54
 -10   8   4  158.74    3.65
  10  -4  -8  157.99    3.45
  -8   4 -10  163.98    3.74
 -10  -8   4  163.97    5.75
  -4  10  -8  158.42    5.56
  -8 -10   4  171.11    6.28
   4  10  -8  161.09    6.32
  10   8  -4  171.71    6.74
   8  10  -4  175.56    7.00
  10   6  -8  792.33   13.07
   6  10  -8  785.81   12.97
  -8  10  -6  751.35   12.26
  10   8  -6  791.57   13.06
   8  10  -6  812.05   13.24
 -10  -8  -6  790.42   12.38
  -8 -10  -6  794.16   12.31
  -6 -10  -8  805.35   12.48
 -10  -6  -8  774.26   11.83
   8 -10  -6  771.52   11.84
   8  10   6  822.90   13.26
  -6  -8 -10  803.95   12.44
  10   8   6  821.22   12.80
  -8  -6 -10  797.78   12.33
   6 -10  -8  790.41   11.99
   6  10   8  804.50   12.69
  10  -8  -6  816.97   12.67
  10   6   8  814.34   12.77
   6  -8 -10  799.89   12.10
   6   8  10  791.43   12.49
   8   6  10  800.73   12.77
  -8  10   6  802.18   12.40
  -6  10   8  837.66   13.42
   8  -6 -10  813.45   12.22
  10  -6  -8  817.66   12.34
  -6   8  10  775.31   12.10
  -8 -10   6  779.46   13.16
  10   6  -8  772.54   15.70
  -6  10  -8  806.96   16.50
   6  10  -8  812.17   17.07
  10   8  -6  783.15   16.51
   8  10  -6  796.23   17.99
  10   8  -8  568.46   10.77
   8  10  -8  562.49   10.98
 -10  -8  -8  569.08   10.21
  -8 -10  -8  572.08   10.14
  -8  -8 -10  548.71    9.69
   8 -10  -8  580.36   10.09
   8  10   8  575.04   10.27
  10   8   8  564.99   10.22
   8   8  10  564.00   10.23
  10  -8  -8  566.70    9.93
   8  -8 -10  566.37    9.78
  -8  10   8  562.08   10.15
   8   8 -10  541.43   13.10
  -8  10  -8  589.95   14.58
  10   8  -8  545.41   13.55
   8  10  -8  563.26   14.03
  10 -10   0 1708.00   24.23
 -10 -10   0 1801.48   25.50
  10  10   0 1851.33   26.05
   0 -10 -10 1738.46   24.10
 -10  10   0 1791.93   25.27
 -10   0 -10 1852.50   25.91
   0  10  10 1837.96   26.07
  10   0  10 1793.35   25.27
   0  10 -10 1866.83   29.63
 -10 -10   0 1846.34   29.61
 -10 -10   2 1077.38   16.37
 -10 -10  -2 1047.36   15.66
  10  10  -2 1073.62   16.14
  10 -10  -2 1021.84   15.34
  10  10   2 1073.69   16.40
 -10  10  -2 1033.21   15.57
  -2 -10 -10 1070.30   15.90
   2 -10 -10 1056.47   15.62
 -10  -2 -10 1067.50   15.65
   2  10  10 1069.66   16.26
 -10  10   2 1041.30   15.58
 -10   2 -10 1045.95   15.31
  -2  10  10 1060.12   15.65
  10   2  10 1047.05   15.48
   2  10 -10 1079.27   19.49
 -10 -10   2 1058.05   19.03
 -10 -10   4  148.41    3.82
  10  10  -4  148.50    4.24
 -10  10  -4  148.16    3.73
 -10 -10  -4  149.45    3.57
  10 -10  -4  142.60    3.59
  10  10   4  147.23    3.70
  -4 -10 -10  146.80    3.57
 -10  -4 -10  142.27    3.45
   4 -10 -10  145.22    3.62
   4  10  10  147.68    3.58
  10   4  10  148.76    3.71
 -10  10   4  150.19    3.65
  -4  10  10  152.76    3.93
 -10   4 -10  148.14    3.49
  10  -4 -10  150.44    3.52
   4  10 -10  153.05    6.09
 -10 -10   4  136.15    5.63
  10  10  -4  144.59    6.16
   6  10 -10   21.31    1.97
 -10  10  -6   21.03    1.56
  10  10  -6   22.55    1.90
 -10 -10  -6   18.06    1.88
  -6 -10 -10   21.72    1.74
 -10  -6 -10   21.98    1.93
  10  10   6   19.65    1.66
  10 -10  -6   18.23    1.63
   6 -10 -10   23.29    1.81
   6  10  10   19.62    1.61
  10   6  10   17.38    1.62
  10  -6 -10   17.72    1.54
  -6  10  10   19.45    1.51
 -10  10   6   19.37    1.51
 -10 -10   6   22.35    2.59
  10   6 -10   14.80    2.32
   6  10 -10   21.89    3.92
  10  10  -6   18.29    4.06
  10   8 -10    0.50    1.68
  10  10  -8   -0.04    1.55
 -10 -10  -8   -1.51    1.39
  -8 -10 -10   -2.37    1.39
 -10  -8 -10    2.31    1.58
  10  10   8    3.18    1.41
   8  10  10    0.29    1.27
  10   8  10    1.28    1.23
  10  -8 -10    0.14    1.16
  -8  10  10   -1.48    1.10
 -10 -10 -10  368.89    7.50
  10 -10 -10  341.75    7.02
 -11   1  -1 2510.83   34.96
 -11  -1  -1 2497.16   34.55
  -1 -11   1 2396.05   33.13
   1 -11   1 2447.30   33.70
  11  -1  -1 2587.10   35.81
  11   1  -1 2535.10   35.13
  -1 -11  -1 2522.17   34.76
   1 -11  -1 2504.32   34.48
  -1  11  -1 2558.65   35.82
   1  11   1 2593.49   36.58
  -1  11   1 2566.83   35.66
  11   1   1 2572.48   35.87
  11  -1   1 2449.22   33.73
  -1  -1 -11 2510.37   34.48
 -11  -1   1 2464.87   35.91
 -11   1  -1 2564.77   38.98
 -11  -1  -1 2479.62   37.98
  11  -1  -1 2580.83   40.58
  11   1  -1 2632.86   41.45
  -1 -11   1 2529.96   38.25
  11  -1  -3  840.46   13.44
 -11  -3   1  824.70   13.06
   1 -11   3  820.88   12.85
  -1 -11   3  795.52   12.39
  11   1  -3  839.50   13.47
  11  -3  -1  882.58   15.10
   3 -11   1  825.86   12.80
  -3 -11   1  795.29   12.26
 -11  -3  -1  833.23   12.96
   1  11  -3  859.46   13.58
  -1  11  -3  853.52   13.85
  11   3  -1  840.00   13.03
  -3 -11  -1  834.41   13.04
   3 -11  -1  833.59   12.89
   3  11  -1  813.21   13.18
 -11  -1  -3  816.21   12.69
  -3  11  -1  844.64   13.53
  -1 -11  -3  820.53   12.59
   1 -11  -3  816.66   12.57
   3  11   1  857.34   13.49
  11   3   1  857.18   13.42
  -3  11   1  847.74   13.04
   1  11   3  853.28   13.47
  -1  11   3  845.73   13.15
  11   1   3  844.69   13.13
  11  -1   3  841.68   12.95
  -1  -3 -11  838.29   12.64
  -3  -1 -11  829.97   12.44
   1  -3 -11  840.74   12.79
  11  -1  -3  838.08   15.92
 -11  -3   1  837.25   16.23
  11  -3  -1  804.38   15.86
  11   1  -3  835.33   16.68
  -1 -11   3  849.56   16.56
   1 -11   3  817.98   16.11
 -11  -3  -1  845.17   16.91
 -11   1  -3  827.72   16.30
  -3 -11   1  800.05   15.43
  11   3  -1  889.65   17.17
 -11  -1  -3  842.13   16.25
   3 -11   3  280.44    5.61
  -3 -11   3  284.24    5.55
  11   3  -3  288.12    6.05
   3  11  -3  293.84    6.31
  -3  11  -3  288.51    6.16
 -11  -3  -3  283.50    5.44
  -3 -11  -3  274.84    5.23
   3 -11  -3  270.23    5.16
 -11   3  -3  292.62    6.35
   3  11   3  294.20    5.93
  11   3   3  292.63    5.84
  -3  11   3  283.14    5.62
  -3  -3 -11  277.51    5.18
   3  -3 -11  290.86    5.37
   3   3  11  284.13    5.65
 -11   3  -3  277.69    8.37
  -3 -11   3  283.10    8.82
   3 -11   3  270.24    8.10
  11   3  -3  296.77    8.60
 -11  -5   1   84.33    2.86
  -1  11  -5   82.17    2.69
   1  11  -5   77.45    2.63
   5 -11   1   77.75    2.66
  -5 -11   1   81.51    2.89
 -11  -5  -1   76.90    2.51
  -5 -11  -1   83.39    2.68
   5 -11  -1   82.54    2.65
  11   5  -1   83.24    2.59
   5  11  -1   81.47    2.77
  -5  11  -1   87.61    2.79
   5  11   1   73.99    2.51
  11   5   1   84.62    2.66
  -1 -11  -5   84.01    2.64
   1 -11  -5   79.19    2.70
 -11  -1  -5   77.34    2.38
  -5  11   1   81.17    2.55
 -11   1  -5   79.81    2.40
   1  11   5   85.76    2.62
  -1  11   5   83.65    2.67
  11   1   5   82.26    2.53
  -1  -5 -11   83.82    2.69
   1  -5 -11   85.93    2.52
  -5  -1 -11   87.13    2.54
  11  -1   5   82.83    2.40
   1   5  11   79.74    2.73
  -5   1 -11   85.93    2.65
  -1   5  11   84.29    2.61
  11  -5  -1   74.63    3.09
  11   1  -5   86.16    3.78
   1 -11   5   78.40    3.76
  -1 -11   5   82.21    4.30
 -11  -5   1   87.92    5.23
 -11  -5  -1   86.61    5.37
   1  11  -5   97.01    5.69
  -5 -11   1   86.88    5.41
  -1  11  -5   82.68    4.82
  -3 -11   5   -0.75    1.72
  11   3  -5    1.54    1.32
  -5 -11   3   -0.18    1.60
   5  11  -3   -0.72    1.40
  -5 -11  -3    2.10    1.51
  -3 -11  -5    1.25    1.82
   3 -11  -5   -0.13    1.35
   5  11   3    3.16    1.41
   3  11   5   -2.17    1.56
  -5  11   3    0.50    1.11
  -3  -5 -11    2.57    1.64
  -5  -3 -11   -1.04    1.34
   3  -5 -11    0.19    1.36
   5   3  11    1.44    1.22
   5  -3 -11    0.25    1.27
 -11  -5   3    2.36    2.77
  -3 -11   5    2.09    3.17
  11   3  -5    1.37    3.75
  -5 -11   3    0.69    4.10
  11   5  -3    0.15    3.72
  -5 -11   5  152.49    4.11
  11   5  -5  166.19    4.04
  -5  11  -5  161.10    4.19
   5  11  -5  164.77    4.61
 -11  -5  -5  158.65    3.69
  -5 -11  -5  164.12    3.82
   5 -11  -5  165.33    3.74
   5  11   5  164.87    4.13
  11   5   5  168.81    4.07
  -5  11   5  163.92    4.09
  -5  -5 -11  157.12    3.53
 -11   5  -5  162.85    3.73
   5   5  11  165.82    3.90
   5  -5 -11  162.96    3.54
  11  -5  -5  160.17    3.66
  -5 -11   5  169.99    5.88
  11   5  -5  177.28    7.04
   5  11  -5  175.12    7.23
   1  11  -7  125.09    3.42
  -1  11  -7  124.27    3.74
 -11  -7   1  130.00    3.44
   7 -11   1  130.01    3.35
  -7 -11   1  126.49    3.35
 -11  -7  -1  129.77    3.31
  -7 -11  -1  127.53    3.28
   7 -11  -1  132.13    3.30
  11   7  -1  132.65    3.45
   7  11  -1  130.51    3.51
  11  -7  -1  123.32    3.24
   7  11   1  138.00    3.80
  11   7   1  128.42    3.40
  -7  11  -1  137.86    3.57
  -1 -11  -7  134.06    3.38
   1 -11  -7  127.95    3.21
  -7  11   1  130.99    3.35
 -11  -1  -7  128.79    3.13
 -11   1  -7  134.07    3.23
   1  11   7  134.96    3.74
  -1  11   7  139.55    3.72
  -1  -7 -11  129.28    3.21
   1  -7 -11  133.53    3.30
  -7  -1 -11  134.29    3.21
  11   1   7  132.75    3.36
   1   7  11  137.52    3.49
  -7   1 -11  134.94    3.15
  -1   7  11  133.43    3.36
  11  -1   7  129.02    3.17
   1  11  -7  136.69    6.46
 -11  -7   1  122.72    6.52
  -1  11  -7  147.72    6.53
  11  -7   1  120.49    6.22
  -7 -11   1  129.87    5.98
 -11  -7  -1  116.93    5.79
 -11  -7   3   -0.01    1.90
   7  11  -3    0.94    1.46
  -3 -11  -7    2.43    1.45
  11   7   3    0.84    1.26
 -11  -3  -7    2.66    1.26
   3 -11  -7   -0.19    1.39
   3  11   7   -0.97    1.35
  -3  -7 -11    1.82    1.45
  -3  11   7    1.37    1.27
  11   3   7    2.21    1.38
   3  -7 -11   -1.25    1.63
   3   7  11    1.25    1.27
  -3   7  11    1.42    1.27
  11   3  -7   -1.02    2.22
 -11  -7   3   -0.23    3.48
  -7 -11   5  248.51    5.33
 -11   7  -5  252.74    5.56
  11   5  -7  270.88    5.74
  -5  11  -7  250.42    6.05
   5  11  -7  246.05    5.98
  11   7  -5  260.30    5.82
   7  11  -5  251.52    5.69
  -7  11  -5  256.59    5.60
  -7 -11  -5  249.08    4.94
 -11  -7  -5  268.15    5.36
  -5 -11  -7  254.77    5.08
 -11  -5  -7  256.43    4.96
   7 -11  -5  260.94    5.03
   7  11   5  265.20    5.43
   5 -11  -7  257.29    5.00
  11   7   5  266.05    5.55
   5  11   7  262.62    5.43
  -5  -7 -11  258.69    4.98
  -7  -5 -11  256.11    5.04
  11   5   7  263.52    5.32
  11  -7  -5  257.42    5.09
  -7  11   5  260.65    5.35
  -5  11   7  270.77    5.60
   5  -7 -11  238.79    4.62
   5   7  11  263.11    5.42
   7   5  11  256.86    5.32
 -11   5  -7  252.71    4.91
   7  -5 -11  253.87    4.90
  11  -5  -7  260.40    5.13
  -7 -11   5  256.73    7.13
  11   5  -7  255.36    7.66
   5  11  -7  255.43    9.00
  -5  11  -7  264.42    8.56
  11   7  -5  261.56    8.24
   7  11  -5  263.76    8.21
  -7  11  -7  454.73    9.09
  11   7  -7  471.01    9.03
   7  11  -7  454.23    9.17
  -7 -11  -7  471.50    8.54
 -11  -7  -7  457.95    8.26
   7 -11  -7  490.48    8.77
   7  11   7  468.53    9.03
  -7  -7 -11  454.90    8.32
  11   7   7  481.59    9.07
  11  -7  -7  475.08    8.72
   7   7  11  478.17    8.82
  -7  11   7  473.58    8.81
  11   7  -7  486.39   12.22
   7  11  -7  473.43   13.05
  -7  11  -7  500.25   12.64
  -1  11  -9 1367.48   20.56
   1  11  -9 1369.47   21.17
   9 -11   1 1318.20   19.60
 -11  -9   1 1344.29   19.71
  -9 -11   1 1344.95   19.69
 -11  -9  -1 1370.64   19.84
  -9 -11  -1 1392.76   20.27
  11  -9  -1 1353.30   19.86
   9 -11  -1 1359.39   19.68
  11   9  -1 1339.59   19.55
   9  11  -1 1404.14   21.08
   9  11   1 1395.02   20.63
  11   9   1 1425.46   20.73
  -9  11  -1 1346.28   19.57
  -1 -11  -9 1341.92   19.19
   1 -11  -9 1336.75   19.12
  -9  11   1 1327.66   19.28
 -11   9  -1 1292.17   18.83
  -1  -9 -11 1367.46   19.52
 -11  -1  -9 1387.88   19.77
   1  -9 -11 1308.21   18.73
 -11   1  -9 1306.19   18.69
   1  11   9 1393.98   20.16
  -9  -1 -11 1372.36   19.53
  -1  11   9 1372.42   19.97
  -9   1 -11 1324.30   18.82
   1   9  11 1338.54   19.64
 -11   9   1 1305.85   19.58
  -1   9  11 1350.79   19.45
  11   1   9 1372.64   19.83
   9   1  11 1391.08   20.14
  -1  11  -9 1364.63   25.01
   1  11  -9 1376.81   24.50
 -11  -9   1 1355.79   23.42
  -9 -11   1 1362.02   23.03
 -11  -9  -1 1346.76   22.85
  -9 -11  -1 1357.41   22.84
  -3  11  -9  449.86    8.81
   3  11  -9  448.46    8.98
 -11  -9   3  452.75    7.98
  -9 -11   3  457.34    8.06
  11   9  -3  463.09    8.30
   9  11  -3  458.41    8.34
 -11  -9  -3  452.65    7.73
  -9 -11  -3  450.80    7.81
  -9  11  -3  443.47    7.87
 -11   9  -3  454.52    8.11
   9 -11  -3  486.14    8.15
   9  11   3  478.59    8.63
  11  -9  -3  454.39    8.05
  11   9   3  472.31    8.22
  -3 -11  -9  438.22    7.38
 -11  -3  -9  473.71    7.99
   3 -11  -9  458.48    7.86
  -3  -9 -11  445.97    7.76
   3  11   9  479.61    8.33
   3  -9 -11  465.77    7.82
  -9  11   3  468.46    8.17
  -3  11   9  477.51    8.26
   3   9  11  461.94    8.10
 -11   3  -9  472.09    7.87
  11   3   9  460.93    8.00
  -3   9  11  461.14    8.19
  -9   3 -11  487.52    8.16
   9   3  11  458.89    8.09
 -11   9   3  447.86    7.77
  -3  11  -9  479.75   11.09
 -11  -9   3  448.53   10.26
   3  11  -9  487.33   12.74
  -9 -11   3  462.92   10.78
  -9 -11   5    4.10    1.80
   5  11  -9    1.53    1.57
  11   9  -5    1.63    1.42
   9  11  -5    2.12    1.48
  -9 -11  -5    2.29    1.53
  -5 -11  -9    3.23    1.52
   9  11   5    3.02    1.37
  11   9   5    2.25    1.34
  -5  -9 -11    2.30    1.52
   5 -11  -9    2.76    1.35
  -9  -5 -11    4.63    1.70
   5  11   9    0.33    1.35
  11   5   9    1.64    1.40
  -5  11   9    3.64    1.25
   9   5  11    5.79    1.28
   9  -5 -11    2.43    1.47
  -5   9  11    0.23    1.22
  -9   5 -11    3.20    1.21
 -11  -9   5    3.00    3.21
  -9 -11   5    6.69    3.34
   5  11  -9    3.38    3.60
  11   9  -5   -3.25    3.71
   9  11  -5    0.89    3.66
 -11   9  -7   25.89    1.72
  11   7  -9   28.11    2.00
   7  11  -9   20.94    1.75
  -9  11  -7   26.30    1.72
  11   9  -7   27.10    1.86
   9  11  -7   24.65    1.95
  -9 -11  -7   27.77    1.85
 -11  -9  -7   25.78    1.79
  -7 -11  -9   26.23    1.85
 -11  -7  -9   24.69    1.86
  -7  -9 -11   27.11    1.98
  -9  -7 -11   22.98    1.74
   9 -11  -7   27.14    1.76
   9  11   7   26.15    1.77
  11   9   7   22.90    1.62
   7 -11  -9   24.56    1.81
   7  11   9   25.89    1.71
  11  -9  -7   26.95    1.71
  11   7   9   24.55    1.68
   7  -9 -11   21.43    1.62
   7   9  11   26.95    1.73
   9   7  11   23.23    1.69
  11  -7  -9   24.40    1.64
   9  -7 -11   20.36    1.68
  -7  11   9   25.06    1.65
  -9  11   7   25.49    1.63
  -7   9  11   25.43    1.57
   9   7 -11   24.42    2.67
   7   9 -11   21.45    3.20
  11   7  -9   24.36    3.55
  -7  11  -9   27.56    3.35
   7  11  -9   29.60    4.06
  11   9  -7   16.97    4.01
   9  11  -7   25.71    4.10
  -9  11  -9   77.13    2.91
 -11  -9  -9   79.11    2.58
  -9 -11  -9   79.67    2.61
  -9  -9 -11   72.61    2.57
   9 -11  -9   80.69    2.50
  11   9   9   77.73    2.65
  11  -9  -9   80.00    2.44
   9  -9 -11   79.59    2.55
  -9  11   9   80.39    2.52
  -9  11  -9   87.39    4.79
  11 -11   1 2113.69   32.87
 -11 -11   1 2134.27   33.07
 -11 -11  -1 2156.61   33.22
  11 -11  -1 2172.79   36.12
  11  11  -1 2192.23   36.94
  11  11   1 2165.66   33.68
 -11  11  -1 2163.40   33.48
  -1 -11 -11 2197.14   36.48
   1 -11 -11 2118.90   32.35
 -11  -1 -11 2278.83   37.73
 -11  11   1 2048.95   31.78
 -11   1 -11 2169.79   33.06
   1  11  11 2180.38   36.52
  -1  11  11 2149.32   33.09
  11   1  11 2174.82   36.28
  -1  11 -11 2338.79   42.92
   1  11 -11 2222.11   40.61
 -11 -11   1 2177.95   39.55
 -11 -11  -1 2161.41   36.31
 -11 -11   3 1077.73   17.71
 -11 -11  -3 1048.31   17.04
  11  11  -3 1071.58   17.86
  11 -11  -3 1040.74   16.94
  11  11   3 1058.72   17.70
  -3 -11 -11 1103.61   17.91
   3 -11 -11 1072.44   17.20
 -11  -3 -11 1075.51   17.39
   3  11  11 1014.44   16.99
 -11  11   3 1046.01   17.02
 -11   3 -11 1098.17   17.54
  -3  11  11 1052.09   17.08
  11   3  11 1052.62   17.18
  -3  11 -11 1021.25   19.13
   3  11 -11 1125.21   21.90
 -11 -11   3 1057.15   20.25
  11  11  -5  251.99    5.74
 -11  11  -5  261.02    5.89
 -11 -11  -5  247.27    5.16
  11 -11  -5  260.63    5.42
  11  11   5  261.51    5.75
  -5 -11 -11  245.23    5.02
 -11  -5 -11  255.46    5.35
   5 -11 -11  267.67    5.35
  11   5  11  253.41    5.44
  -5  11  11  265.36    5.67
 -11  11   5  269.50    5.69
 -11   5 -11  278.96    5.58
  11  -5 -11  272.41    5.39
 -11 -11   5  269.04    7.25
   5  11 -11  256.41    8.79
 -11  11  -7  132.64    3.96
 -11 -11  -7  137.33    3.59
  -7 -11 -11  133.22    3.49
 -11  -7 -11  130.49    3.48
  11 -11  -7  132.08    3.51
   7 -11 -11  142.74    3.62
  11   7  11  135.94    3.76
  11  -7 -11  130.53    3.40
  -7  11  11  132.47    3.64
 -11  11   7  138.76    3.81
 -11  11  -9  549.11   11.22
 -11 -11  -9  539.28   10.32
 -11  -9 -11  540.33   10.32
  -9 -11 -11  532.10    9.92
  11 -11  -9  557.90   10.49
   9 -11 -11  541.34   10.23
  11  -9 -11  526.15    9.90
  -9  11  11  540.38   10.43
 -11  11  -9  576.82   14.55
 -11 -11 -11 1103.34   20.89
  11 -11 -11 1131.22   21.28
 -12   0   0 2855.24   39.50
   0 -12   0 2675.01   36.35
  12   0   0 2726.43   37.30
   0  12   0 2892.57   39.88
 -12   0   0 2850.28   41.81
  12   0   0 2863.29   43.47
 -12  -2   0 1644.40   23.61
   0 -12   2 1664.86   23.58
  12   0  -2 1694.50   24.07
 -12   0  -2 1693.73   23.97
  -2 -12   0 1647.71   23.36
   2 -12   0 1667.85   23.52
   0  12  -2 1700.30   24.69
   0 -12  -2 1633.52   22.94
  12   2   0 1666.77   23.89
   2  12   0 1712.40   24.66
  12  -2   0 1697.36   24.42
   0  12   2 1747.29   24.86
  12   0   2 1691.35   24.24
   0  -2 -12 1714.79   24.00
  -2   0 -12 1737.72   24.26
 -12  -2   0 1681.88   27.22
  12   0  -2 1695.86   28.35
 -12   0  -2 1691.33   28.39
   0 -12   2 1711.10   28.01
  12  -2   0 1675.65   27.71
  12  -2  -2 1117.18   16.96
   2 -12   2 1083.87   16.09
 -12   2  -2 1073.21   16.14
  -2 -12   2 1056.04   15.81
  12   2  -2 1101.00   16.66
 -12  -2  -2 1066.03   15.94
   2  12  -2 1132.18   17.19
  -2  12  -2 1084.23   16.38
  -2 -12  -2 1062.18   15.73
   2 -12  -2 1086.87   16.02
   2  12   2 1082.78   16.48
  12   2   2 1119.29   16.67
  -2  12   2 1101.65   16.69
  12  -2   2 1079.16   16.27
  -2  -2 -12 1077.64   15.65
   2  -2 -12 1037.23   15.08
 -12   2  -2 1079.70   19.21
  12  -2  -2 1079.31   19.91
  12   2  -2 1081.29   19.66
  -2 -12   2 1050.99   19.03
 -12  -2  -2 1067.28   19.76
   2 -12   2 1074.15   19.24
  12   0  -4  398.00    7.49
   0 -12   4  384.05    6.96
 -12  -4   0  383.92    6.92
   0  12  -4  380.44    7.31
  -4 -12   0  377.95    6.91
   4 -12   0  397.55    7.03
  12   4   0  399.12    7.24
   4  12   0  386.11    7.40
   0 -12  -4  379.39    6.68
 -12   0  -4  393.70    6.92
  -4  12   0  411.17    7.71
   0  12   4  402.01    7.43
  12   0   4  404.02    7.15
  -4   0 -12  404.16    6.84
  12   0  -4  391.17    9.26
   0 -12   4  399.77   10.10
 -12  -4   0  382.88    9.75
  12  -4   0  376.91    9.69
 -12  -4   2  250.81    5.32
   2 -12   4  245.56    5.07
  12   2  -4  269.03    5.73
   4 -12   2  247.57    5.04
  -4 -12   2  258.77    5.38
   2  12  -4  256.25    5.89
  -2  12  -4  269.23    5.76
  12   4  -2  260.71    5.44
 -12  -4  -2  262.73    5.18
  -4 -12  -2  256.52    5.13
   4  12  -2  252.17    5.35
   4 -12  -2  256.19    5.08
  -4  12  -2  265.43    5.49
 -12  -2  -4  248.62    5.14
  -2 -12  -4  241.90    4.87
   2 -12  -4  245.98    4.84
 -12   2  -4  266.43    5.30
   4  12   2  260.51    5.56
  12   4   2  260.14    5.21
  -4  12   2  247.69    5.16
   2  12   4  258.48    5.64
  -2  12   4  259.27    5.41
  12   2   4  262.03    5.33
  -2  -4 -12  250.49    4.87
  -4  -2 -12  249.06    4.69
   2  -4 -12  256.98    4.85
  12  -2   4  256.02    5.14
  12  -4  -2  245.22    4.88
   2   4  12  253.16    5.04
  12  -4  -2  260.47    6.67
 -12  -4   2  261.45    7.08
  12   2  -4  274.34    8.61
   2 -12   4  263.40    7.88
  -2 -12   4  273.32    8.07
  -4 -12   2  262.14    8.42
 -12  -4  -2  267.31    7.94
   4 -12   2  268.30    7.95
  12   4  -2  251.77    8.17
 -12   2  -4  262.52    7.88
   4 -12   4   14.59    1.74
  -4 -12   4   14.73    1.91
  12   4  -4   15.55    1.56
   4  12  -4   15.66    1.90
  -4  12  -4   19.21    1.76
 -12  -4  -4   14.15    1.45
  -4 -12  -4   13.30    1.69
   4 -12  -4   12.51    1.49
 -12   4  -4   15.41    1.41
   4  12   4   14.02    1.56
  12   4   4   17.72    1.64
  -4  12   4   17.94    1.48
  -4  -4 -12   18.94    1.65
   4  -4 -12   15.26    1.56
   4   4  12   17.49    1.49
   4 -12   4   15.89    3.27
  -4 -12   4   14.33    4.12
  12   4  -4   21.66    4.02
   0  12  -6  170.66    4.27
 -12  -6   0  165.87    3.93
  -6 -12   0  166.37    3.84
   6 -12   0  166.33    3.75
  12   6   0  171.43    3.97
   6  12   0  178.30    4.09
   0 -12  -6  163.17    3.81
  -6  12   0  171.00    4.00
 -12   0  -6  167.48    3.78
   0  12   6  171.42    3.95
   0  -6 -12  163.19    3.57
  12   0   6  169.76    4.07
  -6   0 -12  180.31    3.90
   0   6  12  176.54    3.98
   0 -12   6  166.57    4.52
  12  -6   0  160.69    6.02
 -12  -6   0  173.19    7.36
   0  12  -6  170.71    6.68
  -6 -12   0  178.01    6.53
 -12  -6   2   76.32    2.87
   6 -12   2   70.77    2.43
  -6 -12   2   78.83    2.72
  -2  12  -6   73.49    2.72
   2  12  -6   70.75    2.59
 -12  -6  -2   73.13    2.48
  12   6  -2   73.78    2.46
  -6 -12  -2   77.58    2.74
   6  12  -2   75.22    2.62
   6 -12  -2   71.61    2.38
  -6  12  -2   77.48    2.54
   6  12   2   76.22    2.59
  -2 -12  -6   70.65    2.46
  12   6   2   71.93    2.41
 -12  -2  -6   76.02    2.40
   2 -12  -6   73.64    2.62
  -6  12   2   77.49    2.53
 -12   2  -6   75.42    2.36
  12  -6  -2   71.84    2.43
   2  12   6   73.32    2.50
  -2  12   6   72.91    2.43
  12   2   6   73.39    2.36
  -2  -6 -12   74.19    2.44
   2  -6 -12   68.14    2.35
  -6  -2 -12   68.77    2.48
   2   6  12   72.64    2.39
  -6   2 -12   80.00    2.43
  -2   6  12   75.86    2.42
   6   2  12   70.91    2.30
  -2 -12   6   82.77    3.84
  12   2  -6   77.75    3.90
 -12  -6   2   65.07    4.64
  -6 -12   2   70.98    5.95
   2  12  -6   82.98    5.07
  -2  12  -6   86.81    4.84
 -12  -6  -2   73.67    5.04
  12   6  -2   76.32    4.80
  12   4  -6   12.48    1.64
  -6 -12   4   13.50    1.95
  -4  12  -6   11.32    1.49
   4  12  -6   15.53    1.69
  12   6  -4   16.15    1.58
   6  12  -4   10.96    1.62
  -6  12  -4   16.16    1.67
 -12  -6  -4   14.84    1.80
  -6 -12  -4   13.95    1.72
  -4 -12  -6   16.44    1.78
   6 -12  -4   15.18    1.54
 -12  -4  -6   17.06    1.56
   4 -12  -6   15.85    1.56
   6  12   4   15.35    1.60
  12   6   4   14.27    1.45
   4  12   6   13.21    1.57
  -6  12   4   15.98    1.61
  12   4   6   15.14    1.53
  -4  12   6   15.34    1.49
 -12   4  -6   13.54    1.28
  -4  -6 -12   12.58    1.60
  -6  -4 -12   11.23    1.56
  12  -6  -4   15.06    1.38
   4  -6 -12   17.27    1.59
   4   6  12   15.28    1.46
   6   4  12   12.83    1.63
   6  -4 -12   15.96    1.56
 -12  -6   4   16.35    2.79
  -4 -12   6   17.96    3.00
  12   4  -6   13.37    3.45
  -6 -12   4   13.93    4.67
  12   6  -4   14.48    3.95
   4  12  -6   15.85    3.99
  -4  12  -6   10.48    3.59
  12   6  -6  214.46    5.08
  -6  12  -6  205.16    5.06
   6  12  -6  210.41    5.36
  -6 -12  -6  199.55    4.48
 -12  -6  -6  202.82    4.45
   6 -12  -6  205.65    4.47
   6  12   6  207.27    4.62
  12   6   6  215.35    4.83
  -6  -6 -12  195.88    4.30
  -6  12   6  211.31    4.57
  12  -6  -6  203.25    4.50
   6  -6 -12  202.72    4.50
 -12   6  -6  199.86    4.47
   6   6  12  202.59    4.78
  -6 -12   6  198.62    6.00
  12   6  -6  207.78    7.38
   6  12  -6  198.10    8.25
   0  12  -8  905.86   14.82
   8 -12   0  966.67   14.76
  -8 -12   0  944.66   14.23
  12   8   0  966.44   14.97
   8  12   0  952.77   15.21
  -8  12   0  911.72   14.04
   0 -12  -8  942.13   14.20
 -12   0  -8  933.14   13.86
   0  12   8  964.58   14.98
   0  -8 -12  961.50   14.35
  -8   0 -12  952.05   14.06
   0   8  12  956.72   14.71
  12   0   8  957.12   14.51
   0  12  -8  964.48   19.55
 -12  -8   0  941.52   17.53
  -8 -12   0  920.77   16.89
   8 -12   2  565.64    9.59
  -2  12  -8  559.86   10.03
 -12  -8   2  569.69    9.44
   2  12  -8  549.67   10.40
  -8 -12   2  583.83    9.78
  -8 -12  -2  585.48    9.53
  12   8  -2  591.09   10.20
   8  12  -2  575.67   10.36
   8 -12  -2  573.12    9.60
  -8  12  -2  594.91   10.09
   8  12   2  591.76    9.94
  12   8   2  599.77   10.05
  -2 -12  -8  585.03    9.49
   2 -12  -8  558.70    9.11
 -12  -2  -8  577.16    9.29
  -8  12   2  577.81    9.62
   2  12   8  580.66    9.99
 -12   2  -8  574.04    9.34
  -2  12   8  588.61   10.07
   2  -8 -12  584.54    9.43
  -8  -2 -12  545.12    8.88
  12   2   8  571.76    9.55
   2   8  12  541.32    9.05
  -8   2 -12  576.24    9.16
  -2   8  12  577.51    9.65
   8   2  12  580.15    9.67
 -12  -8   2  572.57   12.45
   2  12  -8  572.10   14.42
  -2  12  -8  588.14   13.78
  -8 -12   2  584.41   12.84
   8 -12   2  572.44   12.22
 -12  -8  -2  591.10   12.54
  -8 -12   4   41.29    2.31
  -4  12  -8   43.55    2.16
   4  12  -8   43.92    2.22
  12   8  -4   46.90    2.15
   8  12  -4   48.34    3.94
 -12   8  -4   43.48    1.92
  -8  12  -4   46.56    2.05
 -12  -8  -4   42.92    2.03
  -8 -12  -4   50.37    2.40
   8 -12  -4   47.39    2.17
  -4 -12  -8   40.75    2.16
   8  12   4   44.86    2.09
 -12  -4  -8   43.62    1.94
  12   8   4   47.96    2.11
   4 -12  -8   44.59    2.03
  12  -8  -4   44.13    1.95
   4  12   8   47.12    2.12
  -4  -8 -12   43.38    2.05
  -8  -4 -12   42.94    2.12
  -8  12   4   45.18    1.98
  12   4   8   46.66    1.97
   4  -8 -12   45.18    2.01
  -4  12   8   45.59    2.12
 -12   4  -8   43.60    1.88
   4   8  12   45.99    2.03
   8   4  12   45.06    1.94
   8  -4 -12   43.27    1.90
  -4   8  12   46.54    1.96
  -8   4 -12   45.14    1.97
  12   4  -8   39.81    3.30
 -12  -8   4   48.30    3.86
  -8 -12   4   39.63    4.60
   4  12  -8   35.58    4.92
  -4  12  -8   43.23    4.51
 -12   8  -6   36.97    2.02
  12   6  -8   39.05    2.12
  -6  12  -8   36.64    2.14
   6  12  -8   41.03    2.16
  12   8  -6   39.35    2.07
  -8  12  -6   38.48    1.95
   8  12  -6   38.08    2.04
  -8 -12  -6   40.12    2.08
 -12  -8  -6   41.94    2.17
  -6 -12  -8   44.80    2.13
 -12  -6  -8   36.00    1.91
   8 -12  -6   36.70    1.93
   8  12   6   35.05    1.90
   6 -12  -8   35.24    1.85
  12   8   6   40.33    2.10
  -6  -8 -12   34.86    1.92
  -8  -6 -12   40.76    1.99
   6  12   8   37.29    1.96
  12   6   8   36.31    1.81
  12  -8  -6   35.98    1.74
   6  -8 -12   36.86    1.85
  -8  12   6   40.25    1.90
  -6  12   8   39.91    1.86
   6   8  12   36.20    1.81
   8   6  12   36.48    1.84
   8  -6 -12   36.09    1.77
  12  -6  -8   37.46    1.79
 -12   6  -8   34.46    1.70
  -8 -12   6   35.06    3.49
  12   6  -8   40.94    4.17
   6  12  -8   24.98    4.23
  12   8  -6   33.16    4.31
  -6  12  -8   41.88    4.27
   8  12  -6   33.55    4.28
  12   8  -8    3.86    1.46
  -8 -12  -8   -0.32    1.46
  -8  -8 -12   -0.69    1.43
  12   8   8   -0.11    1.41
   8  -8 -12    0.83    1.24
   8   8  12    2.28    1.37
   0  12 -10 2042.88   32.77
  12 -10   0 1937.96   30.20
 -12 -10   0 2025.64   31.17
  10 -12   0 2048.93   31.72
 -10 -12   0 2024.36   31.06
  12  10   0 2051.54   31.70
  10  12   0 2020.45   31.70
   0 -12 -10 2051.76   31.46
 -10  12   0 2027.97   31.41
   0 -10 -12 2036.52   31.02
 -12   0 -10 2065.71   31.62
   0  12  10 2003.80   31.26
 -10   0 -12 2062.09   31.45
 -12  10   0 1992.42   30.78
   0  10  12 1974.61   30.88
  12   0  10 1977.75   30.51
   0  12 -10 2073.39   37.68
 -12 -10   0 2014.10   34.53
 -10 -12   0 2078.62   35.47
  10 -12   2 1400.51   22.48
  -2  12 -10 1365.58   23.45
   2  12 -10 1380.88   23.63
 -12 -10   2 1442.38   22.98
 -10 -12   2 1451.14   23.00
 -12 -10  -2 1416.09   22.39
 -10 -12  -2 1450.28   22.89
  12  10  -2 1456.09   23.31
  10  12  -2 1424.27   22.92
  10 -12  -2 1426.00   22.45
  12 -10  -2 1407.93   22.45
  12  10   2 1460.33   23.84
  10  12   2 1451.24   23.28
 -10  12  -2 1435.75   22.85
  -2 -12 -10 1431.96   22.36
 -12  10  -2 1455.67   23.20
   2 -12 -10 1398.77   21.91
 -12  -2 -10 1467.41   22.91
  -2 -10 -12 1426.40   22.44
   2 -10 -12 1422.79   22.31
 -10  12   2 1429.83   22.64
 -10  -2 -12 1362.56   21.41
   2  12  10 1402.62   22.49
 -12   2 -10 1465.42   22.97
  -2  12  10 1438.64   23.14
 -10   2 -12 1461.51   22.78
  -2  10  12 1429.10   22.85
  12   2  10 1461.32   23.21
 -12  10   2 1464.13   23.17
  10   2  12 1394.64   22.24
  -2  12 -10 1468.33   28.43
   2  12 -10 1466.03   28.41
 -12 -10   2 1411.61   25.80
  10 -12   2 1432.06   26.91
 -10 -12   2 1403.18   26.26
 -12 -10  -2 1453.67   25.84
 -12 -10   4  462.07    8.76
  -4  12 -10  460.72    9.68
 -10 -12   4  451.86    8.45
  12  10  -4  451.04    8.54
  10  12  -4  439.19    8.81
 -12 -10  -4  438.72    8.15
 -10 -12  -4  450.74    8.27
 -10  12  -4  443.89    8.38
 -12  10  -4  451.26    8.61
  10 -12  -4  440.81    8.16
  12 -10  -4  441.29    8.32
  12  10   4  455.49    8.75
  10  12   4  457.10    8.86
 -12  -4 -10  456.98    8.45
   4 -12 -10  461.24    8.48
  -4 -10 -12  458.27    8.41
 -10  -4 -12  450.89    8.25
   4 -10 -12  454.03    8.18
 -10  12   4  450.56    8.38
  -4  12  10  435.01    8.19
  12   4  10  448.20    8.33
 -12   4 -10  466.72    8.43
  10   4  12  456.09    8.90
 -10   4 -12  459.74    8.21
  -4  10  12  464.92    8.93
 -12  10   4  434.91    8.26
  10  -4 -12  464.01    8.41
   4  10 -12  434.45    9.97
 -12 -10   4  444.29   10.15
  -4  12 -10  479.17   12.26
 -10 -12   4  439.97   10.57
   4  12 -10  460.47   13.17
  -6  12 -10   84.98    3.38
 -12  10  -6   82.37    2.88
  12  10  -6   86.05    2.92
 -10  12  -6   82.25    2.84
 -12 -10  -6   84.37    2.68
 -10 -12  -6   91.00    2.79
  -6 -12 -10   86.97    2.67
  10 -12  -6   91.04    2.70
 -12  -6 -10   87.53    2.66
  12  10   6   93.84    2.91
  -6 -10 -12   87.27    2.72
  12 -10  -6   90.78    2.72
 -10  -6 -12   87.22    2.68
   6 -12 -10   84.23    2.67
   6 -10 -12   89.96    2.66
  12   6  10   85.56    2.59
  10   6  12   87.31    2.75
  -6  12  10   88.95    2.88
 -10  12   6   93.32    2.92
  10  -6 -12   87.03    2.65
  12  -6 -10   88.27    2.52
 -12   6 -10   90.87    2.64
  -6  10  12   86.28    2.84
 -10 -12   6   84.47    4.02
  -6  12 -10   90.47    4.87
  -8  12 -10  196.66    5.42
 -12  10  -8  177.55    5.08
 -10  12  -8  188.22    5.09
 -10 -12  -8  176.79    4.22
 -12 -10  -8  184.68    4.46
  -8 -12 -10  182.55    4.33
 -12  -8 -10  179.90    4.25
  -8 -10 -12  184.97    4.35
 -10  -8 -12  187.14    4.42
  10 -12  -8  183.23    4.35
   8 -12 -10  181.33    4.32
  12 -10  -8  194.80    4.53
   8 -10 -12  194.45    4.52
  12   8  10  184.88    4.71
  12  -8 -10  192.55    4.33
  10  -8 -12  184.19    4.36
  -8  12  10  181.60    4.59
 -10  12   8  182.58    4.69
  -8  12 -10  194.76    7.45
 -12  10  -8  218.42    8.62
 -10  12 -10  694.35   13.77
 -12 -10 -10  688.48   12.71
 -10 -12 -10  677.94   12.39
 -10 -10 -12  693.82   12.75
  10 -12 -10  712.25   12.93
  12 -10 -10  739.21   13.60
  10 -10 -12  731.36   13.19
 -10  12  10  700.92   12.88
 -10  12 -10  756.40   18.39
  12 -12   0 1872.76   29.04
 -12 -12   0 2029.24   31.39
   0 -12 -12 2015.40   30.82
 -12  12   0 1970.66   30.57
 -12   0 -12 1986.29   30.41
   0  12 -12 1955.71   34.15
 -12 -12   0 2011.31   34.52
 -12 -12   2 1481.95   25.16
 -12 -12  -2 1485.46   25.48
  12 -12  -2 1553.95   26.79
 -12  12  -2 1520.91   26.07
  -2 -12 -12 1555.49   26.27
   2 -12 -12 1495.70   25.13
 -12  -2 -12 1513.53   25.77
 -12   2 -12 1541.44   26.02
 -12  12   2 1552.74   26.46
  12   2  12 1492.43   25.69
  -2  12 -12 1418.28   27.69
   2  12 -12 1524.52   29.96
 -12 -12   2 1494.63   28.51
 -12 -12  -2 1454.28   27.42
 -12 -12   4  630.09   11.86
 -12 -12  -4  634.33   11.74
 -12  12  -4  638.65   12.23
  12 -12  -4  596.57   11.51
  -4 -12 -12  628.86   11.83
 -12  -4 -12  652.02   12.05
   4 -12 -12  651.23   11.85
 -12   4 -12  663.66   12.21
  -4  12  12  601.83   11.61
 -12  12   4  622.80   11.66
  12   4  12  626.30   11.81
  12  -4 -12  641.16   11.77
  -4  12 -12  697.19   16.90
 -12 -12   4  644.22   14.20
 -12  12  -6  282.84    6.75
 -12 -12  -6  276.97    6.04
  12 -12  -6  289.58    6.10
  -6 -12 -12  275.99    5.93
 -12  -6 -12  282.92    6.09
   6 -12 -12  280.32    5.90
  12   6  12  258.29    6.00
  -6  12  12  269.39    6.16
  12  -6 -12  285.62    6.00
 -12   6 -12  300.22    6.24
 -12  12   6  285.73    6.27
  -6  12 -12  294.33    8.25
 -12 -12   6  308.05    7.70
 -12  12  -8  427.65    9.35
 -12 -12  -8  409.36    8.26
  -8 -12 -12  422.73    8.17
 -12  -8 -12  421.81    8.25
  12 -12  -8  442.98    9.01
   8 -12 -12  426.71    8.31
  12  -8 -12  435.59    8.35
  -8  12  12  420.28    8.51
 -12  12   8  414.20    8.33
  -8  12 -12  415.94   10.62
 -12  12 -10  950.92   19.39
 -12 -12 -10  956.46   18.28
 -10 -12 -12  945.81   18.07
 -12 -10 -12  970.05   18.52
  12 -12 -10  989.54   18.92
  10 -12 -12  911.26   17.31
  12 -10 -12  981.41   18.59
 -10  12 -12  963.49   21.64
 -12  12 -10 1046.80   24.66
 -12 -12 -12 1099.91   20.77
  12 -12 -12 1068.60   20.32
 -12  12 -12 1133.83   25.52
 -13   1  -1 1806.45   25.82
 -13  -1  -1 1769.26   25.10
   1 -13   1 1789.50   25.02
   1 -13  -1 1806.73   25.30
  13  -1  -1 1870.67   26.32
  13   1  -1 1849.21   26.07
   1  13  -1 1843.47   26.58
  -1  13  -1 1802.80   25.86
   1  13   1 1836.86   26.22
  -1  13   1 1808.90   26.09
  13   1   1 1789.61   25.62
  13  -1   1 1776.58   25.39
  -1  -1 -13 1784.33   24.91
   1  -1 -13 1801.90   25.15
 -13  -1   1 1866.37   28.03
 -13   1  -1 1863.62   29.12
 -13  -1  -1 1855.95   29.89
  13  -1  -1 1799.28   30.07
  13   1  -1 1798.94   29.84
  -1 -13   1 1760.30   28.13
 -13  -3   1  662.84   11.07
   1 -13   3  652.48   10.48
  13  -1  -3  675.46   10.99
  -1 -13   3  654.33   10.52
  13   1  -3  678.30   10.97
 -13  -3  -1  662.16   10.80
   3 -13   1  657.41   10.46
  -3 -13   1  645.56   10.43
  -3 -13  -1  646.95   10.46
 -13   1  -3  672.77   10.72
   3 -13  -1  675.02   10.69
   1  13  -3  692.46   11.72
  -1  13  -3  673.60   11.17
  13  -3  -1  685.16   11.29
 -13  -1  -3  668.62   10.65
  13   3  -1  680.86   11.09
  -1 -13  -3  652.48   10.31
   3  13  -1  669.44   10.95
   1 -13  -3  641.20   10.27
  -3  13  -1  681.21   11.29
   3  13   1  686.55   11.62
  13   3   1  661.63   10.74
  -3  13   1  690.77   11.19
  -1  13   3  684.38   11.35
  13   1   3  688.93   11.02
  13  -1   3  667.61   10.72
  -1  -3 -13  672.91   10.47
   1  -3 -13  629.92    9.91
  -3  -1 -13  634.57    9.85
  -3   1 -13  678.40   10.71
 -13  -3   1  649.65   12.59
  13  -1  -3  689.28   14.75
  13   1  -3  655.18   13.88
 -13  -3  -1  669.41   13.99
  13  -3  -1  685.11   14.57
   1 -13   3  669.45   13.81
  -1 -13   3  644.40   13.56
 -13   1  -3  665.29   14.43
 -13  -1  -3  689.34   15.03
  -3 -13   1  654.10   13.17
  13   3  -1  697.42   14.28
   3 -13   3  218.41    4.65
  -3 -13   3  207.16    4.46
  13   3  -3  220.55    4.76
 -13   3  -3  217.80    4.84
   3  13  -3  217.48    5.08
  -3  13  -3  219.34    5.09
 -13  -3  -3  219.21    4.61
  -3 -13  -3  209.52    4.50
   3 -13  -3  212.62    4.37
   3  13   3  218.40    4.86
  13   3   3  222.26    4.71
  -3  13   3  220.66    4.77
  -3  -3 -13  223.40    4.55
   3  -3 -13  218.56    4.46
  13  -3  -3  226.88    6.68
 -13   3  -3  200.08    6.49
  -3 -13   3  189.85    6.98
   3 -13   3  219.70    7.49
  13   3  -3  221.34    7.63
 -13  -3  -3  235.17    7.65
  -1 -13   5  157.03    3.96
  13   1  -5  168.69    4.23
 -13  -5   1  163.71    3.96
   5 -13   1  159.77    3.68
  -5 -13   1  167.30    3.89
 -13  -5  -1  161.72    3.75
   1  13  -5  171.64    4.30
  -1  13  -5  167.86    4.30
  -5 -13  -1  162.86    3.91
   5 -13  -1  167.31    3.89
  13   5  -1  178.23    4.17
   5  13  -1  171.82    4.43
  -5  13  -1  157.02    4.00
   5  13   1  163.33    3.95
  -1 -13  -5  167.85    3.77
 -13  -1  -5  166.53    3.75
  13   5   1  180.17    4.19
   1 -13  -5  156.78    3.61
 -13   1  -5  165.48    3.81
  -5  13   1  170.41    4.26
   1  13   5  169.11    4.22
  -1  13   5  176.07    4.08
  13   1   5  170.12    3.88
  -1  -5 -13  165.95    3.68
   1  -5 -13  166.28    3.64
  13  -1   5  163.65    3.89
  -5  -1 -13  165.61    3.63
  -5   1 -13  168.28    3.80
   1   5  13  172.37    4.10
  13  -1  -5  183.63    5.34
  13   1  -5  165.19    5.62
   1 -13   5  158.82    5.47
  -1 -13   5  166.78    5.83
  13  -5  -1  175.85    6.20
 -13  -5   1  155.10    6.24
 -13  -5  -1  180.01    6.96
  -5 -13   1  168.21    6.59
  -3 -13   5   18.35    1.97
   5 -13   3   21.66    1.75
  13   3  -5   21.74    1.91
  -5 -13   3   20.25    1.94
   3  13  -5   19.47    1.76
  -3  13  -5   21.11    1.67
  13   5  -3   18.44    1.58
   5  13  -3   19.84    1.74
 -13  -5  -3   19.89    1.80
  -5  13  -3   17.33    1.71
  -5 -13  -3   16.22    1.72
   5 -13  -3   18.58    1.56
 -13  -3  -5   23.16    1.58
  -3 -13  -5   17.75    1.74
   3 -13  -5   22.73    1.75
   5  13   3   23.53    1.77
 -13   3  -5   20.16    1.53
  13   5   3   21.90    1.68
   3  13   5   23.14    1.74
  -5  13   3   19.33    1.71
  -3  13   5   23.79    1.78
  13   3   5   22.77    1.49
  -3  -5 -13   21.08    1.84
  -5  -3 -13   20.18    1.67
  13  -5  -3   20.63    1.43
   3  -5 -13   22.03    1.64
   3   5  13   15.59    1.48
   5  -3 -13   21.33    1.64
   5   3  13   19.66    1.66
 -13  -5   3   16.44    3.20
   3 -13   5   16.07    2.59
  -3 -13   5   14.79    3.70
  13   3  -5   21.86    4.31
   5 -13   3   24.36    3.73
  -5 -13   3   18.35    4.22
  13   5  -3   23.04    3.90
 -13   3  -5   26.85    3.45
 -13  -5  -3   22.34    3.94
  -5 -13   5   54.16    2.44
  13   5  -5   60.38    2.37
   5  13  -5   55.29    2.53
  -5  13  -5   55.31    2.33
 -13  -5  -5   54.42    2.15
  -5 -13  -5   49.24    2.24
   5 -13  -5   48.48    2.07
   5  13   5   59.59    2.40
  13   5   5   59.07    2.20
 -13   5  -5   58.21    2.26
  -5  13   5   53.06    2.25
  -5  -5 -13   57.13    2.18
   5  -5 -13   56.40    2.29
  13  -5  -5   50.78    1.95
   5   5  13   54.05    2.10
   5 -13   5   64.21    3.32
  -5 -13   5   56.21    4.39
  13   5  -5   62.06    4.78
 -13   5  -5   56.18    4.29
   5  13  -5   55.39    4.47
 -13  -7   1  367.93    7.13
  -1  13  -7  361.42    7.73
   1  13  -7  351.99    7.54
   7 -13   1  369.01    7.22
  -7 -13   1  351.87    6.93
 -13  -7  -1  363.65    6.97
  -7 -13  -1  351.76    6.81
   7 -13  -1  365.65    6.96
  13   7  -1  382.47    7.49
   7  13  -1  370.65    7.57
  13   7   1  371.92    7.40
   7  13   1  350.90    7.24
  -7  13  -1  368.24    7.45
  -1 -13  -7  370.95    7.02
   1 -13  -7  356.39    6.83
 -13  -1  -7  359.66    6.76
  -7  13   1  357.42    6.95
 -13   1  -7  364.72    6.97
   1  13   7  363.74    7.19
  -1  13   7  371.21    7.62
  -1  -7 -13  360.05    6.77
   1  -7 -13  371.60    7.03
  -7  -1 -13  364.30    6.75
  13   1   7  362.84    7.11
  -7   1 -13  362.47    6.77
   1   7  13  361.27    7.41
  13  -1   7  372.20    7.22
  -1   7  13  357.75    7.00
  13  -7  -1  341.93    8.36
 -13  -7   1  375.29    9.85
 -13  -7  -1  358.81    9.75
  -1  13  -7  378.85   11.02
  -7 -13   1  362.34    9.75
   1  13  -7  373.95   11.25
 -13  -7   3   51.39    2.59
  13   3  -7   56.03    2.44
   7 -13   3   55.93    2.47
  -7 -13   3   56.55    2.49
  -3  13  -7   52.30    2.34
   3  13  -7   57.18    2.47
  13   7  -3   55.60    2.26
 -13  -7  -3   55.38    2.22
   7  13  -3   55.52    2.34
  -7 -13  -3   52.18    2.24
  -7  13  -3   54.94    2.22
   7 -13  -3   53.15    2.09
  -3 -13  -7   57.20    2.33
 -13  -3  -7   57.66    2.33
   7  13   3   53.27    2.25
  13   7   3   56.89    2.21
   3 -13  -7   57.05    2.39
  13  -7  -3   51.09    1.93
   3  13   7   53.27    2.25
  -7  13   3   60.16    2.27
 -13   3  -7   55.53    2.08
  -3  13   7   61.18    2.43
  -3  -7 -13   56.09    2.25
  13   3   7   60.91    2.25
  -7  -3 -13   60.95    2.25
   3  -7 -13   62.59    2.25
   3   7  13   56.03    2.25
  -7   3 -13   57.19    2.14
   7   3  13   58.19    2.22
   7  -3 -13   54.54    2.10
  -3   7  13   55.13    2.25
 -13  -7   3   55.67    4.01
  13   3  -7   51.72    4.04
   7 -13   3   54.28    4.19
  -7 -13   3   70.29    5.11
   3  13  -7   47.43    4.58
  -3  13  -7   61.98    4.72
  13   7  -3   59.17    4.62
 -13  -7  -3   59.45    5.06
  -7 -13   5   45.77    2.43
  13   5  -7   48.23    2.25
 -13   7  -5   40.88    2.04
  -5  13  -7   40.90    2.18
   5  13  -7   47.25    2.25
  13   7  -5   43.01    2.23
   7  13  -5   41.57    2.28
  -7  13  -5   45.36    2.07
 -13  -7  -5   40.15    1.97
  -7 -13  -5   46.12    2.16
  -5 -13  -7   43.22    2.16
 -13  -5  -7   48.25    2.23
   7 -13  -5   44.28    1.97
   5 -13  -7   39.80    1.93
   7  13   5   39.91    2.57
  13   7   5   43.72    1.98
   5  13   7   40.02    1.99
  -5  -7 -13   41.18    2.01
  13   5   7   40.24    1.87
  -7  -5 -13   35.55    1.93
  -7  13   5   41.83    1.98
  -5  13   7   44.11    1.96
  13  -7  -5   38.69    1.82
 -13   5  -7   44.57    1.91
   5  -7 -13   42.26    1.98
   5   7  13   45.67    1.98
   7  -5 -13   37.89    1.86
   7   5  13   40.51    1.87
  13  -5  -7   41.34    1.87
  -5 -13   7   38.94    2.80
  -7 -13   5   37.13    3.96
  13   5  -7   42.26    4.22
   5  13  -7   34.38    4.32
  -5  13  -7   38.34    3.96
   7  13  -5   38.52    4.20
  13   7  -7   71.92    2.71
  -7  13  -7   65.64    2.62
  -7 -13  -7   67.18    2.45
 -13  -7  -7   69.00    2.41
   7 -13  -7   64.36    2.26
  13   7   7   70.95    2.54
  -7  -7 -13   67.34    2.40
  -7  13   7   66.28    2.46
  13  -7  -7   65.05    2.21
   7  -7 -13   65.72    2.26
   7   7  13   66.51    2.31
 -13   7  -7   62.07    2.09
  -7 -13   7   63.32    3.16
  13   7  -7   63.05    4.80
   7  13  -7   71.93    5.01
  -1  13  -9 1059.34   18.47
   1  13  -9 1080.23   18.85
   9 -13   1 1030.51   16.85
 -13  -9   1 1100.52   18.00
  -9 -13   1 1075.88   17.56
  13  -9  -1 1099.53   18.59
 -13  -9  -1 1094.52   17.73
  -9 -13  -1 1065.35   17.48
   9 -13  -1 1116.25   18.04
  13   9  -1 1105.44   18.42
   9  13  -1 1053.64   17.63
  13   9   1 1099.73   18.18
   9  13   1 1073.80   18.00
  -9  13  -1 1093.94   17.97
  -1 -13  -9 1119.03   17.98
   1 -13  -9 1106.42   17.79
  -9  13   1 1052.14   17.38
 -13  -1  -9 1128.90   18.10
 -13   1  -9 1074.43   17.39
  -1  -9 -13 1079.04   17.32
   1  -9 -13 1075.15   17.08
   1  13   9 1081.33   17.85
  -1  13   9 1081.27   18.05
  -9  -1 -13 1104.21   17.94
  -9   1 -13 1036.64   16.70
   1   9  13 1067.42   17.69
  13   1   9 1067.95   17.39
  -1   9  13 1034.36   17.52
 -13  -9   1 1053.61   20.25
   1  13  -9 1122.67   24.13
  -1  13  -9 1124.79   24.45
  -9 -13   1 1084.12   20.78
 -13  -9  -1 1081.94   20.64
  -9 -13  -1 1015.34   19.84
 -13  -9   3  414.20    8.24
  -3  13  -9  407.02    8.51
  -9 -13   3  405.10    7.72
   3  13  -9  403.53    8.84
 -13  -9  -3  410.44    7.81
  13   9  -3  424.83    8.23
  -9 -13  -3  411.58    7.69
   9 -13  -3  412.40    7.79
  -9  13  -3  430.38    8.49
  13  -9  -3  391.38    7.60
   9  13   3  391.34    8.09
  13   9   3  420.00    7.95
  -3 -13  -9  432.25    8.10
   3 -13  -9  400.99    7.47
 -13  -3  -9  406.79    7.58
  -3  -9 -13  416.80    7.70
  -9  13   3  413.45    7.96
  -9  -3 -13  415.73    7.77
 -13   3  -9  427.92    8.08
   3  -9 -13  426.21    7.92
  -3  13   9  425.00    8.27
  13   3   9  403.45    7.78
  -9   3 -13  383.94    7.09
  -3   9  13  405.56    7.94
   9   3  13  410.40    7.92
  13   3  -9  428.41    9.21
   9 -13   3  419.22   10.32
 -13  -9   3  417.60   10.26
  -9 -13   3  430.19   10.93
   3  13  -9  414.37   11.90
  -3  13  -9  425.65   13.01
 -13  -9  -3  426.22   10.43
  13   5  -9   24.66    1.90
  -9 -13   5   25.63    2.03
  -5  13  -9   26.02    1.81
  13   9  -5   28.85    1.84
 -13   9  -5   25.94    1.60
  -9  13  -5   29.92    1.60
 -13  -9  -5   28.86    1.88
  -9 -13  -5   25.95    1.86
   9 -13  -5   26.46    1.77
  -5 -13  -9   30.67    1.88
 -13  -5  -9   28.70    1.78
  13   9   5   27.32    1.72
   5 -13  -9   28.56    1.77
  13  -9  -5   29.88    1.65
  -5  -9 -13   29.48    1.86
  -9  -5 -13   27.02    1.78
   5  -9 -13   25.62    1.71
  13   5   9   29.37    1.65
  -9  13   5   28.53    1.60
  -5  13   9   27.62    1.66
 -13   5  -9   28.90    1.65
   9   5  13   25.25    1.71
   9  -5 -13   27.38    1.65
  13  -5  -9   27.14    1.65
  -5   9  13   26.82    1.64
  -9   5 -13   25.70    1.63
 -13  -9   5   29.13    2.96
  -9 -13   5   27.38    3.89
  -5  13  -9   32.01    4.04
   5  13  -9   32.10    4.30
  13   7  -9    3.83    1.50
  -7  13  -9    1.31    1.34
  13   9  -7    4.10    1.51
  -9 -13  -7    1.92    1.51
 -13  -9  -7    3.79    1.45
  -7 -13  -9    5.26    1.54
 -13  -7  -9    6.45    1.42
   9 -13  -7    3.86    1.42
   7 -13  -9    3.28    1.29
  -7  -9 -13    3.70    1.50
  -9  -7 -13    4.03    1.39
  13   9   7    3.90    1.28
  13  -9  -7    4.30    1.27
  13   7   9    4.45    1.25
   7  -9 -13    2.06    1.48
  -9  13   7    5.84    1.32
  -7  13   9    2.89    1.36
  13  -7  -9    2.93    1.09
   9  -7 -13    5.50    1.31
 -13   7  -9    3.10    1.10
  -9 -13   7    4.14    2.29
  -9  13  -9  126.53    3.92
  -9 -13  -9  130.64    3.55
 -13  -9  -9  132.71    3.51
   9 -13  -9  130.69    3.51
  -9  -9 -13  128.86    3.53
  13  -9  -9  130.28    3.45
   9  -9 -13  133.45    3.43
  -9  13   9  124.72    3.57
  -9  13  -9  138.55    6.16
  -1  13 -11 1568.27   28.29
  11 -13   1 1601.26   27.30
 -13 -11   1 1567.58   26.64
 -11 -13   1 1598.56   27.21
  13 -11  -1 1592.05   27.59
 -13 -11  -1 1571.31   26.69
 -11 -13  -1 1589.30   27.02
  11 -13  -1 1564.43   26.73
  13  11  -1 1578.99   27.50
  13  11   1 1562.86   27.02
  -1 -13 -11 1577.35   26.70
 -11  13  -1 1621.25   30.14
   1 -13 -11 1645.33   30.29
  -1 -11 -13 1614.64   27.16
 -13  -1 -11 1682.87   30.87
   1 -11 -13 1622.56   29.81
 -11  13   1 1538.19   26.36
 -13   1 -11 1671.55   30.73
 -11  -1 -13 1658.85   30.62
 -13  11  -1 1530.46   26.23
 -11   1 -13 1554.73   26.27
  13   1  11 1605.66   27.38
  -1  13 -11 1530.76   30.58
   1  13 -11 1645.15   35.53
 -13 -11   1 1588.78   30.04
 -11 -13   1 1613.81   30.88
 -13 -11  -1 1602.93   30.48
 -11 -13  -1 1607.09   30.49
  -3  13 -11  827.95   16.21
 -13 -11   3  849.35   15.62
 -11 -13   3  813.22   14.60
 -13 -11  -3  834.14   14.95
 -11 -13  -3  840.65   15.07
  13  11  -3  793.32   15.02
  11 -13  -3  839.24   15.14
  13 -11  -3  814.19   15.05
 -11  13  -3  776.40   14.36
  13  11   3  827.81   15.17
 -13  11  -3  824.97   15.10
  -3 -13 -11  816.73   14.48
   3 -13 -11  832.73   14.79
 -13  -3 -11  822.11   14.73
  -3 -11 -13  784.55   13.93
   3 -11 -13  836.28   14.68
 -11  -3 -13  795.91   14.18
 -11  13   3  830.79   15.14
 -13   3 -11  857.82   15.30
 -11   3 -13  800.48   14.30
  13   3  11  802.02   14.63
  11   3  13  794.36   14.66
 -13  11   3  816.26   14.63
   3  11 -13  776.67   16.90
  -3  13 -11  844.97   19.58
 -13 -11   3  817.12   17.22
   3  13 -11  822.95   19.98
 -11 -13   3  823.77   17.91
 -13 -11  -3  835.88   17.76
  -5  13 -11  245.57    6.74
 -11 -13   5  245.13    5.82
 -11  13  -5  255.18    5.89
 -13  11  -5  243.49    5.75
 -13 -11  -5  249.55    5.60
 -11 -13  -5  252.08    5.62
  11 -13  -5  253.37    5.66
  13 -11  -5  254.33    5.58
  -5 -13 -11  252.08    5.69
 -13  -5 -11  254.50    5.52
  -5 -11 -13  250.35    5.44
   5 -13 -11  262.07    5.58
 -11  -5 -13  242.54    5.31
   5 -11 -13  260.13    5.53
  13   5  11  252.06    5.64
 -11  13   5  250.52    5.55
 -13   5 -11  263.73    5.66
  -5  13  11  241.67    5.76
  11   5  13  239.90    5.71
 -11   5 -13  259.91    5.57
  11  -5 -13  256.60    5.58
  13  -5 -11  251.75    5.37
 -13 -11   5  243.19    6.86
 -11 -13   5  224.73    6.99
  -5  13 -11  259.22    9.50
  -7  13 -11  179.44    5.24
 -13  11  -7  176.40    4.77
 -11  13  -7  164.44    4.37
 -11 -13  -7  178.37    4.39
 -13 -11  -7  171.15    4.18
  -7 -13 -11  177.55    4.21
 -13  -7 -11  174.10    4.14
  11 -13  -7  176.80    4.25
  -7 -11 -13  182.39    4.32
 -11  -7 -13  171.20    4.06
  13 -11  -7  188.30    4.38
   7 -13 -11  189.71    4.40
   7 -11 -13  171.78    4.05
  13   7  11  170.74    4.60
  13  -7 -11  163.52    4.00
  11  -7 -13  186.10    4.38
  -7  13  11  170.24    4.46
 -11  13   7  188.82    4.68
 -13   7 -11  173.61    4.17
  -7  11  13  169.47    4.48
 -11   7 -13  187.23    4.44
  -7  13 -11  176.89    6.80
  -9  13 -11  507.11   11.63
 -13  11  -9  480.81   11.06
 -11  13  -9  485.89   10.89
 -13 -11  -9  467.37    9.61
 -11 -13  -9  483.03    9.94
  -9 -13 -11  493.34   10.21
 -13  -9 -11  485.32    9.96
  -9 -11 -13  472.30    9.57
 -11  -9 -13  493.96   10.15
  11 -13  -9  479.47    9.99
   9 -13 -11  495.60   10.10
  13 -11  -9  485.44    9.88
   9 -11 -13  499.01   10.21
  13  -9 -11  469.65    9.66
  11  -9 -13  491.96   10.09
  -9  13  11  475.71   10.27
 -11  13   9  492.39   10.48
  -9  13 -11  495.06   13.71
 -11  13 -11  890.07   18.50
 -11 -13 -11  910.26   17.40
 -13 -11 -11  927.10   17.82
 -11 -11 -13  904.17   17.36
  11 -13 -11  933.02   17.84
  13 -11 -11  945.58   18.26
  11 -11 -13  949.74   18.07
 -11  13  11  868.79   17.10
 -11  13 -11  980.45   24.06
 -13 -13   1 1604.41   27.17
  13 -13  -1 1697.22   31.69
 -13 -13  -1 1612.67   27.25
  -1 -13 -13 1648.53   30.23
   1 -13 -13 1668.40   30.57
 -13  13  -1 1616.96   27.71
 -13  -1 -13 1646.77   30.24
 -13   1 -13 1643.66   30.29
 -13  13   1 1624.08   30.40
  13   1  13 1532.10   26.16
  -1  13 -13 1561.58   30.38
   1  13 -13 1566.68   31.33
 -13 -13   1 1662.68   33.79
 -13 -13  -1 1625.66   32.65
 -13 -13   3  910.53   16.51
 -13 -13  -3  906.26   16.20
  13 -13  -3  913.65   16.39
 -13  13  -3  908.90   16.69
  -3 -13 -13  906.79   16.13
   3 -13 -13  883.15   15.47
 -13  -3 -13  884.49   15.71
 -13   3 -13  908.42   16.06
 -13  13   3  857.33   15.58
  13   3  13  858.86   15.70
  -3  13 -13  882.57   19.48
 -13 -13   3  905.18   18.86
 -13 -13  -3  912.28   19.00
 -13 -13   5  322.08    7.49
 -13 -13  -5  325.46    7.18
 -13  13  -5  330.07    7.60
  13 -13  -5  329.18    7.39
  -5 -13 -13  319.53    6.91
 -13  -5 -13  316.92    7.04
   5 -13 -13  323.33    7.19
 -13   5 -13  340.40    7.45
  13   5  13  296.68    6.84
 -13  13   5  330.08    7.34
  13  -5 -13  322.78    7.00
  -5  13 -13  335.32   10.49
 -13 -13   5  335.61    9.11
 -13  13  -7  237.25    6.06
 -13 -13  -7  257.05    5.97
  -7 -13 -13  246.79    5.58
  13 -13  -7  258.51    5.92
 -13  -7 -13  238.05    5.55
   7 -13 -13  259.37    5.93
  13  -7 -13  242.83    5.59
 -13   7 -13  265.19    6.06
 -13  13   7  233.41    5.74
  -7  13 -13  236.89    8.26
 -13  13  -9  481.92   10.88
 -13 -13  -9  512.80   10.49
  -9 -13 -13  501.91   10.21
 -13  -9 -13  489.91   10.11
  13 -13  -9  452.23    9.56
   9 -13 -13  504.14   10.23
  13  -9 -13  506.81   10.45
 -13   9 -13  496.42   10.26
  -9  13 -13  470.68   12.68
 -13  13 -11  823.28   21.48
 -13 -13 -11  819.13   20.38
 -11 -13 -13  826.47   20.71
 -13 -11 -13  829.66   20.66
  13 -13 -11  851.51   21.35
  11 -13 -13  789.41   19.71
  13 -11 -13  805.54   20.16
 -11  13 -13  839.70   23.78
 -13  13 -11  856.61   25.16
 -13 -13 -13  676.53   17.11
  13 -13 -13  667.78   16.88
 -13  13 -13  734.65   22.55
   0 -14   0 2112.49   29.35
   0  14   0 2144.02   30.47
  14   0   0 2186.08   30.68
 -14   0   0 2001.53   29.51
 -14  -2   0 1199.08   17.90
   0 -14   2 1190.99   17.81
 -14   0  -2 1181.50   17.48
   2 -14   0 1184.44   17.30
  -2 -14   0 1161.85   17.20
  14   0  -2 1237.91   18.40
   0 -14  -2 1170.77   17.13
   0  14  -2 1186.84   17.60
  14   2   0 1188.49   17.44
   2  14   0 1204.90   17.96
  -2  14   0 1184.16   17.96
  14  -2   0 1207.03   18.11
   0  14   2 1262.26   18.94
  14   0   2 1194.94   17.64
   0  -2 -14 1212.53   17.71
  -2   0 -14 1221.40   17.86
 -14  -2   0 1231.74   22.05
 -14   0  -2 1166.66   20.94
  14   0  -2 1191.46   21.83
   0 -14   2 1219.38   21.45
  14  -2   0 1241.96   21.87
 -14   2  -2  559.99    9.66
  -2 -14   2  549.28    9.15
   2 -14   2  567.10    9.35
 -14  -2  -2  569.86    9.68
  14  -2  -2  580.10    9.80
  14   2  -2  555.00    9.33
  -2 -14  -2  559.75    9.28
   2  14  -2  586.63   10.56
  -2  14  -2  575.43    9.96
   2  14   2  569.72    9.94
  -2  14   2  582.55    9.84
  14   2   2  558.59    9.15
  14  -2   2  598.58   10.11
  -2  -2 -14  561.13    9.00
   2  -2 -14  584.83    9.25
 -14   2  -2  590.17   12.11
  14  -2  -2  572.03   12.83
 -14  -2  -2  597.67   13.35
  -2 -14   2  531.67   11.93
   2 -14   2  609.51   12.76
  14   2  -2  594.45   13.70
   0 -14   4  269.39    5.55
  14   0  -4  270.72    5.57
 -14  -4   0  266.46    5.60
  -4 -14   0  269.81    5.43
   4 -14   0  253.59    5.01
   0  14  -4  269.76    5.93
 -14   0  -4  272.40    5.47
   0 -14  -4  256.94    5.00
  14   4   0  273.80    5.60
   4  14   0  270.49    5.78
  -4  14   0  269.82    5.81
   0  14   4  267.26    5.50
  14   0   4  254.11    5.00
  -4   0 -14  268.27    5.28
  14   0  -4  283.42    8.05
 -14  -4   0  285.43    8.20
   0 -14   4  289.71    8.39
 -14   0  -4  273.57    7.89
  14  -4   0  259.82    7.66
  14  -2  -4   88.33    3.06
   2 -14   4   80.22    3.34
  -2 -14   4   80.25    2.85
   4 -14   2   87.90    2.92
  -4 -14   2   83.46    2.79
  14   2  -4   92.14    2.87
  14  -4  -2   85.22    2.91
 -14  -4  -2   85.44    2.77
   2  14  -4   84.48    2.83
  -2  14  -4   89.07    2.98
  14   4  -2   89.31    2.76
  -4 -14  -2   84.49    2.86
   4 -14  -2   84.06    2.66
   4  14  -2   85.38    2.74
 -14  -2  -4   86.25    2.68
 -14   2  -4   87.36    2.67
  -2 -14  -4   85.53    2.66
  -4  14  -2   90.92    3.01
   2 -14  -4   85.93    2.73
   4  14   2   93.05    3.04
  14   4   2   89.12    2.81
   2  14   4   90.67    2.74
  -4  14   2   87.62    2.73
  -2  14   4   90.91    2.85
  14   2   4   87.82    2.63
  -2  -4 -14   89.79    2.68
  -4  -2 -14   90.15    2.65
  14  -2   4   85.04    2.81
   2  -4 -14   89.14    2.68
   4  -2 -14   86.92    2.63
 -14  -4   2   92.93    4.22
  14  -2  -4   90.20    4.13
  14  -4  -2   87.91    4.61
   2 -14   4   84.37    4.76
  -2 -14   4   86.53    5.06
  14   2  -4   87.47    5.08
 -14   2  -4   86.64    5.04
 -14  -4  -2   91.86    5.33
  -4 -14   2   86.82    5.42
   4 -14   2   85.42    4.73
  14   4  -2  101.98    5.64
 -14  -2  -4   87.50    4.89
   4 -14   4   14.24    1.72
  -4 -14   4   15.04    1.91
  14   4  -4   14.78    1.49
   4  14  -4   16.73    1.67
  -4  14  -4   14.16    1.51
 -14  -4  -4   15.18    1.67
  -4 -14  -4   18.30    1.77
   4 -14  -4   15.77    1.76
   4  14   4   14.64    1.61
  14   4   4   14.57    1.38
  -4  14   4   15.89    1.51
  -4  -4 -14   15.14    1.76
   4  -4 -14   14.74    1.52
   4   4  14   11.24    1.54
 -14   4  -4   16.93    3.17
   4 -14   4   15.68    3.28
  -4 -14   4    9.82    3.76
  14   4  -4   18.05    4.54
 -14  -6   0  148.98    3.78
   0  14  -6  138.19    3.97
  -6 -14   0  138.42    3.60
   6 -14   0  140.83    3.53
  14   6   0  145.26    3.77
   6  14   0  138.03    3.84
   0 -14  -6  137.64    3.48
 -14   0  -6  140.41    3.61
  -6  14   0  136.78    3.82
   0  14   6  142.18    3.66
   0  -6 -14  144.41    3.52
  14   0   6  138.96    3.64
  -6   0 -14  142.96    3.52
   0   6  14  129.71    3.53
  14   0  -6  141.88    5.00
   0 -14   6  139.17    5.08
 -14  -6   0  133.91    6.11
  14  -6   0  133.18    5.67
  -6 -14   0  142.73    6.03
 -14  -6   2   22.48    2.09
  14   2  -6   23.88    1.74
   6 -14   2   22.50    1.92
  -6 -14   2   16.13    1.87
  -2  14  -6   19.55    1.66
   2  14  -6   18.34    1.75
 -14  -6  -2   22.75    1.72
  -6 -14  -2   19.47    1.83
  14   6  -2   17.98    1.74
   6 -14  -2   19.33    1.80
   6  14  -2   24.05    1.81
  -6  14  -2   24.14    1.78
  -2 -14  -6   24.11    1.80
 -14  -2  -6   20.94    1.50
   2 -14  -6   25.16    1.77
   6  14   2   21.03    1.66
  14   6   2   24.51    1.75
 -14   2  -6   23.00    1.61
  -6  14   2   23.39    1.79
   2  14   6   25.71    1.75
  -2  14   6   22.26    1.66
  14   2   6   23.50    1.48
  -2  -6 -14   21.85    1.72
  -6  -2 -14   24.24    1.66
   2  -6 -14   22.68    1.70
  -6   2 -14   25.03    1.68
   2   6  14   23.16    1.60
  14  -2   6   20.83    1.38
   2 -14   6   24.62    2.86
  14  -6  -2   22.20    2.44
  -2 -14   6   20.38    3.10
 -14  -6   2   18.69    3.60
  14   2  -6   16.92    3.25
  -6 -14   2   32.86    4.52
 -14  -6  -2   18.90    4.15
   6 -14   2   19.92    3.47
   2  14  -6   20.42    4.08
   6 -14   4   78.53    2.77
  14   4  -6   81.20    2.75
   4  14  -6   76.06    2.79
  -4  14  -6   77.32    2.81
  14   6  -4   77.46    2.66
   6  14  -4   73.50    2.81
  -6  14  -4   76.08    2.96
 -14  -6  -4   76.40    2.55
  -6 -14  -4   78.49    2.78
   6 -14  -4   73.22    2.45
  -4 -14  -6   72.19    2.54
 -14  -4  -6   80.76    2.66
   4 -14  -6   76.33    2.52
   6  14   4   65.65    2.49
  14   6   4   81.08    2.65
 -14   4  -6   77.09    2.50
   4  14   6   73.66    2.52
  -6  14   4   75.27    2.55
  -4  14   6   75.71    2.59
  14   4   6   73.96    2.41
  -4  -6 -14   75.57    2.53
  -6  -4 -14   73.63    2.57
  14  -6  -4   75.47    2.56
   4  -6 -14   71.72    2.39
   4   6  14   72.95    2.53
   6  -4 -14   74.61    2.44
   6   4  14   69.55    2.47
  -4 -14   6   77.12    4.31
   6 -14   4   74.82    4.25
  14   4  -6   79.46    4.94
  -6 -14   4   85.55    5.30
  14   6  -4   77.66    5.05
   4  14  -6   71.88    5.03
 -14   4  -6   73.88    4.59
  14   6  -6  243.12    5.43
  -6  14  -6  236.50    5.62
 -14  -6  -6  213.92    4.67
  -6 -14  -6  242.87    5.11
   6 -14  -6  228.61    4.79
  14   6   6  238.32    5.23
 -14   6  -6  232.64    5.10
  -6  -6 -14  240.46    5.05
  -6  14   6  231.71    5.39
  14  -6  -6  236.74    5.14
   6  -6 -14  242.29    4.96
  -6 -14   6  228.86    6.74
  14   6  -6  230.95    7.79
 -14   6  -6  242.01    8.04
   6  14  -6  241.37    8.79
   0  14  -8  428.11    9.06
 -14  -8   0  444.88    8.44
  -8 -14   0  424.40    7.93
   8 -14   0  441.55    8.19
  14   8   0  457.40    8.66
   0 -14  -8  442.29    8.06
  -8  14   0  439.72    8.38
 -14   0  -8  456.21    8.44
   0  14   8  437.07    8.81
   0  -8 -14  444.12    8.06
  -8   0 -14  449.60    8.27
  14   0   8  436.42    8.24
  14  -8   0  417.58   11.37
 -14  -8   0  447.25   11.13
   0  14  -8  457.58   13.36
  -8 -14   0  466.41   11.36
 -14  -8   2  188.28    4.46
   8 -14   2  183.82    4.41
  -2  14  -8  177.06    4.65
  -8 -14   2  179.46    4.23
   2  14  -8  173.86    4.92
 -14  -8  -2  186.10    4.31
  -8 -14  -2  185.54    4.25
   8 -14  -2  192.09    4.40
  14   8  -2  188.67    4.62
  -8  14  -2  187.49    4.62
  14   8   2  184.95    4.42
  -2 -14  -8  188.57    4.22
   2 -14  -8  179.63    4.06
 -14  -2  -8  189.62    4.35
 -14   2  -8  178.93    4.18
  -8  14   2  183.32    4.47
  -2  14   8  187.20    4.46
  -2  -8 -14  169.01    3.94
   2  -8 -14  183.03    4.05
  -8  -2 -14  183.70    4.09
  14   2   8  184.55    4.46
  -8   2 -14  187.98    4.27
  -2   8  14  179.14    4.47
  14   2  -8  187.88    5.87
 -14  -8   2  170.02    6.27
  -8 -14   2  187.57    7.21
   8 -14   2  186.42    6.66
   2  14  -8  185.97    7.88
  -2  14  -8  193.72    7.27
 -14  -8  -2  194.73    7.09
  -8 -14  -4   -0.12    1.50
  -4 -14  -8    3.14    1.53
   4 -14  -8    3.54    1.38
  14   8   4    3.68    1.29
  -8  14   4    1.58    1.12
  -4  -8 -14    0.54    1.46
  -8  -4 -14    5.16    1.37
  -4  14   8    0.82    1.46
  14   4   8    4.30    1.34
   4  -8 -14    2.30    1.39
   8  -4 -14   -1.24    1.29
   8   4  14    1.65    1.20
 -14  -8   4    1.83    2.90
  14   4  -8    5.14    2.98
  -8 -14   4   -1.68    3.94
  14   8  -4   -4.32    3.39
  14   6  -8   89.24    3.30
 -14   8  -6   90.47    3.17
  -6  14  -8   93.03    3.32
  14   8  -6   89.19    3.10
  -8  14  -6   86.80    3.21
 -14  -8  -6   89.61    2.79
  -8 -14  -6   88.41    2.84
  -6 -14  -8   87.35    2.79
 -14  -6  -8   94.30    2.94
   8 -14  -6   91.58    2.78
   6 -14  -8   89.05    2.81
  14   8   6   97.32    3.29
  -6  -8 -14   89.19    2.79
  -8  -6 -14   89.78    2.76
  14   6   8   84.31    2.88
  14  -8  -6   88.02    2.72
  -8  14   6   93.89    3.09
  -6  14   8   94.01    3.06
 -14   6  -8   95.12    2.92
   6  -8 -14   82.90    2.58
 -14   8  -6   84.81    2.75
   8  -6 -14   93.70    2.76
  14  -6  -8   88.43    2.68
  -8 -14   6   81.54    4.34
  -6  14  -8   90.52    5.01
  14   8  -8   34.69    2.16
  -8  14  -8   33.27    1.99
  -8 -14  -8   33.18    1.98
 -14  -8  -8   34.03    1.89
   8 -14  -8   32.66    1.78
  -8  -8 -14   34.76    1.91
  14   8   8   33.82    1.81
  14  -8  -8   33.97    1.78
   8  -8 -14   32.72    1.80
  -8  14   8   34.31    1.89
 -14   8  -8   31.10    1.70
 -14 -10   0  974.62   17.26
  10 -14   0  974.92   17.55
 -10 -14   0  992.70   17.43
  14  10   0  984.03   17.76
   0 -14 -10  981.37   17.05
 -10  14   0  913.86   16.47
 -14   0 -10  994.50   17.36
   0 -10 -14  963.11   16.70
 -10   0 -14  957.58   16.76
  14   0  10  977.24   17.35
   0  14 -10  980.65   22.32
 -14 -10   0  972.80   20.44
  -2  14 -10  580.47   12.09
 -14 -10   2  613.54   11.63
 -10 -14   2  607.14   11.54
 -14 -10  -2  618.79   11.58
 -10 -14  -2  606.28   11.25
  10 -14  -2  632.85   11.75
  14 -10  -2  576.80   11.03
  14  10  -2  599.04   11.84
  14  10   2  616.36   11.96
 -10  14  -2  600.70   11.64
  -2 -14 -10  610.25   11.17
   2 -14 -10  607.05   11.32
 -14  -2 -10  607.11   11.29
 -10  14   2  629.22   12.03
  -2 -10 -14  600.04   11.03
 -14   2 -10  625.69   11.56
   2 -10 -14  618.04   11.38
 -10  -2 -14  586.05   10.85
 -10   2 -14  606.21   11.32
  14   2  10  616.41   11.58
 -14 -10   2  598.91   13.89
   2  14 -10  598.72   16.19
  -2  14 -10  605.82   16.17
 -10 -14   2  618.01   14.52
  10 -14   2  599.67   14.52
 -14 -10  -2  629.41   14.39
 -14 -10   4  117.93    3.56
 -10 -14   4  114.71    3.45
  -4  14 -10  117.10    4.15
  14  10  -4  116.37    3.46
 -14 -10  -4  118.79    3.32
 -10 -14  -4  120.93    3.47
 -10  14  -4  111.02    3.33
  10 -14  -4  119.82    3.33
  14 -10  -4  116.36    3.33
  -4 -14 -10  119.27    3.25
  14  10   4  114.52    3.55
 -14  -4 -10  116.90    3.24
   4 -14 -10  117.33    3.23
  -4 -10 -14  114.98    3.24
 -10  -4 -14  120.73    3.32
   4 -10 -14  126.35    3.33
 -14   4 -10  121.84    3.27
 -10  14   4  111.97    3.24
  -4  14  10  108.91    3.38
  14   4  10  116.61    3.39
 -10   4 -14  114.03    3.15
  10   4  14  114.97    3.37
  10  -4 -14  120.30    3.18
 -14 -10   4  115.64    5.10
 -10 -14   4  122.23    5.87
  -4  14 -10  121.59    6.12
  14   6 -10    3.53    1.56
 -14 -10  -6    5.67    1.52
 -10 -14  -6    3.33    1.53
  10 -14  -6    6.01    1.42
  -6 -14 -10    3.70    1.57
 -14  -6 -10    4.52    1.40
   6 -14 -10    6.56    1.58
  14 -10  -6    5.74    1.35
  -6 -10 -14    3.55    1.67
 -10  -6 -14    7.60    1.49
   6 -10 -14    6.32    1.45
  14   6  10    2.85    1.23
 -10  14   6    6.19    1.31
 -14   6 -10    6.48    1.20
  -6  14  10    8.48    1.31
  10  -6 -14    3.11    1.54
  14  -6 -10    5.44    1.14
 -10   6 -14    4.96    1.29
 -10 -14   6    0.93    3.10
 -14  10  -8   39.96    2.16
  -8  14 -10   37.36    2.27
 -10  14  -8   40.07    2.15
 -10 -14  -8   38.10    2.08
 -14 -10  -8   37.22    2.14
  -8 -14 -10   37.75    2.09
 -14  -8 -10   40.72    2.12
  10 -14  -8   43.50    1.97
   8 -14 -10   37.23    1.91
  -8 -10 -14   35.33    1.92
 -10  -8 -14   41.29    2.06
  14 -10  -8   41.11    1.92
   8 -10 -14   38.68    1.93
  14  -8 -10   42.25    1.96
  10  -8 -14   39.98    1.90
 -10  14   8   38.12    1.83
  -8  14  10   36.31    1.81
 -14   8 -10   41.60    1.89
  -8  14 -10   38.76    4.32
 -10  14 -10  280.20    7.25
 -10 -14 -10  281.74    6.33
 -14 -10 -10  302.28    6.86
 -10 -10 -14  292.58    6.55
  10 -14 -10  305.19    6.91
  14 -10 -10  283.16    6.28
  10 -10 -14  295.50    6.42
 -10  14  10  281.76    6.57
 -10  14 -10  308.77   10.05
  14 -12   0 1523.03   26.69
  12 -14   0 1468.16   25.37
 -14 -12   0 1487.63   25.37
 -12 -14   0 1507.99   25.67
   0 -14 -12 1500.45   25.49
   0 -12 -14 1466.79   24.84
 -12  14   0 1470.85   25.38
 -14   0 -12 1398.16   23.82
 -12   0 -14 1533.60   26.03
   0  14 -12 1471.48   30.53
 -14 -12   0 1430.08   27.93
 -12 -14   0 1470.69   28.26
 -14 -12   2 1036.98   18.35
 -12 -14   2 1053.98   18.52
 -14 -12  -2 1043.90   18.37
 -12 -14  -2 1037.65   18.33
  14 -12  -2 1043.43   18.59
  12 -14  -2 1095.80   19.27
 -12  14  -2 1023.51   18.30
  -2 -14 -12 1035.43   18.01
   2 -14 -12 1074.57   18.57
  -2 -12 -14 1053.50   18.41
 -14  -2 -12 1104.33   19.25
   2 -12 -14 1049.82   18.18
 -14  12  -2 1046.23   18.73
 -12  -2 -14 1071.16   18.71
 -14   2 -12 1127.62   19.61
 -12  14   2 1049.62   18.57
 -12   2 -14 1028.55   17.94
 -14  12   2 1020.34   18.24
  14   2  12 1049.26   18.54
  12   2  14 1033.56   18.46
  -2  14 -12 1088.53   24.56
 -14 -12   2 1049.95   21.18
 -12 -14   2 1013.09   20.84
 -14 -12  -2 1019.61   20.83
 -12 -14  -2 1025.33   20.77
 -14 -12   4  391.26    8.25
 -12 -14   4  376.01    7.66
 -14 -12  -4  381.11    7.73
 -12 -14  -4  373.53    7.53
  12 -14  -4  387.82    7.89
 -12  14  -4  373.59    8.01
  14 -12  -4  365.86    7.93
 -14  12  -4  374.35    8.00
  -4 -14 -12  378.96    7.67
 -14  -4 -12  376.22    7.54
   4 -14 -12  393.61    7.81
  -4 -12 -14  369.77    7.44
 -12  -4 -14  371.29    7.45
   4 -12 -14  390.86    7.74
 -14   4 -12  401.57    7.97
 -12  14   4  383.48    7.96
 -12   4 -14  381.82    7.63
  14   4  12  357.72    7.73
  12  -4 -14  392.49    7.79
 -14 -12   4  374.96    9.50
 -12 -14   4  370.97    9.76
  -4  14 -12  404.34   11.79
  -6  14 -12  135.41    4.62
 -12  14  -6  138.32    4.18
 -14  12  -6  135.58    4.15
 -14 -12  -6  134.42    3.69
 -12 -14  -6  136.41    3.68
  12 -14  -6  141.12    3.79
  -6 -14 -12  137.70    3.73
  14 -12  -6  135.71    3.87
 -14  -6 -12  143.92    3.93
  -6 -12 -14  132.98    3.66
   6 -14 -12  141.94    3.95
 -12  -6 -14  140.39    3.81
   6 -12 -14  131.75    3.54
 -14   6 -12  127.69    3.58
 -12  14   6  128.10    3.73
  12  -6 -14  132.08    3.49
  14  -6 -12  134.67    3.54
 -12   6 -14  137.23    3.73
 -14 -12   6  151.95    5.15
  -6  14 -12  131.17    5.96
  -8  14 -12  206.21    6.44
 -14  12  -8  213.04    5.73
 -12  14  -8  206.73    5.92
 -14 -12  -8  202.79    4.92
 -12 -14  -8  215.94    5.18
  -8 -14 -12  223.20    5.34
 -14  -8 -12  208.76    5.08
  12 -14  -8  199.60    4.96
  -8 -12 -14  206.21    4.88
 -12  -8 -14  217.47    5.21
  14 -12  -8  222.22    5.36
   8 -14 -12  228.38    5.50
   8 -12 -14  217.08    5.15
  12  -8 -14  221.02    5.23
  14  -8 -12  207.94    5.05
 -14   8 -12  225.85    5.47
 -12  14   8  198.23    5.09
 -12   8 -14  206.29    5.03
  -8  14 -12  230.20    9.00
 -10  14 -12  499.98   14.29
 -14  12 -10  565.94   15.41
 -12  14 -10  539.99   14.70
 -12 -14 -10  520.30   13.36
 -14 -12 -10  538.75   13.92
 -10 -14 -12  524.62   13.44
 -14 -10 -12  517.62   13.46
 -10 -12 -14  532.99   13.80
 -12 -10 -14  545.43   13.99
  12 -14 -10  523.65   13.61
  10 -14 -12  551.67   14.12
  14 -12 -10  537.60   14.03
  10 -12 -14  531.11   13.67
  14 -10 -12  526.96   13.71
  12 -10 -14  550.52   14.14
 -12  14  10  497.16   13.10
 -10  14 -12  528.85   17.57
 -12  14 -12  641.70   17.75
 -12 -14 -12  670.13   17.05
 -14 -12 -12  662.80   16.73
 -12 -12 -14  665.04   16.85
  12 -14 -12  665.53   16.80
  14 -12 -12  689.77   17.51
  12 -12 -14  669.66   16.87
 -14  12 -12  704.28   21.18
 -12  14 -12  719.33   22.67
  14 -14   0  884.90   17.48
 -14 -14   0  880.13   17.11
   0 -14 -14  862.76   16.55
 -14   0 -14  879.83   17.07
 -14  14   0  852.67   16.73
 -14 -14   0  849.07   19.35
 -14 -14   2  562.79   11.37
 -14 -14  -2  562.27   11.42
  14 -14  -2  580.86   12.01
  -2 -14 -14  569.02   11.44
   2 -14 -14  585.40   11.78
 -14  14  -2  527.08   11.03
 -14  -2 -14  566.60   11.40
 -14   2 -14  582.43   11.88
 -14  14   2  518.14   10.86
  14   2  14  523.25   10.89
 -14 -14   2  560.53   13.72
 -14 -14  -2  577.04   14.00
 -14 -14   4  142.90    4.08
 -14 -14  -4  128.81    3.59
  14 -14  -4  140.86    4.25
 -14  14  -4  137.39    4.17
  -4 -14 -14  140.87    3.76
 -14  -4 -14  146.10    3.94
   4 -14 -14  137.79    3.84
 -14   4 -14  133.71    3.69
 -14  14   4  133.09    3.88
  14  -4 -14  138.61    3.62
  -4  14 -14  135.69    6.33
 -14 -14   4  135.07    5.95
 -14 -14  -6   28.39    1.95
  14 -14  -6   31.63    1.82
  -6 -14 -14   25.36    1.87
 -14  -6 -14   34.03    1.91
   6 -14 -14   27.56    1.79
 -14   6 -14   28.44    1.79
  14  -6 -14   31.57    1.85
 -14  14   6   29.33    1.72
 -14 -14   6   26.55    3.16
  -6  14 -14   32.13    3.57
 -14  14  -8   83.38    3.30
 -14 -14  -8   85.57    3.13
  -8 -14 -14   82.23    3.04
  14 -14  -8   86.45    3.12
 -14  -8 -14   84.14    3.09
   8 -14 -14   84.16    3.08
  14  -8 -14   86.83    3.07
 -14   8 -14   88.27    3.37
  -8  14 -14   77.30    5.12
 -14  14 -10  279.44    8.49
 -14 -14 -10  279.21    7.78
 -10 -14 -14  268.20    7.40
 -14 -10 -14  291.26    7.96
  14 -14 -10  277.64    7.82
  10 -14 -14  271.36    7.55
  14 -10 -14  290.42    8.04
 -14  10 -14  261.98    7.62
 -10  14 -14  274.93   11.53
 -14  14 -12  363.70   11.52
 -14 -14 -12  395.20   11.08
 -12 -14 -14  386.13   11.01
 -14 -12 -14  399.92   11.22
  14 -14 -12  381.31   10.82
  12 -14 -14  391.75   11.07
  14 -12 -14  400.79   11.21
 -12  14 -14  387.32   14.61
 -14  14 -14  211.84    8.04
 -14 -14 -14  230.99    7.09
  14 -14 -14  241.74    7.52
 -14  14 -14  240.10   11.22
 -15  -1  -1 1241.04   20.32
  -1 -15   1 1203.00   19.48
   1 -15   1 1222.49   19.75
   1 -15  -1 1207.84   19.41
  -1 -15  -1 1233.40   19.79
  15   1  -1 1227.65   20.09
  15  -1  -1 1185.93   19.50
   1  15  -1 1213.95   20.29
  -1  15  -1 1245.01   20.76
   1  15   1 1226.71   20.50
  -1  15   1 1197.90   19.62
  15   1   1 1221.14   19.93
  15  -1   1 1180.61   19.31
  -1  -1 -15 1213.57   19.18
   1  -1 -15 1220.52   19.55
 -15   1  -1 1250.69   21.96
 -15  -1  -1 1211.52   22.28
  15  -1  -1 1229.63   23.51
  15   1  -1 1243.06   23.45
  -1 -15   1 1182.76   22.36
   1 -15   1 1246.20   22.88
 -15  -3   1  250.24    5.66
  -1 -15   3  244.93    5.25
   1 -15   3  230.58    5.19
 -15  -3  -1  250.01    5.53
  15  -1  -3  254.82    5.59
   3 -15   1  249.04    5.39
  -3 -15   1  238.82    5.14
 -15   1  -3  252.13    5.49
  15   1  -3  248.87    5.55
 -15  -1  -3  256.99    5.45
  -3 -15  -1  247.73    5.37
   3 -15  -1  245.36    5.24
  -1  15  -3  255.42    5.95
   1  15  -3  258.95    6.10
  -1 -15  -3  246.41    5.20
   1 -15  -3  243.95    5.24
  15   3  -1  255.51    5.61
   3  15  -1  252.11    6.22
  15  -3  -1  246.87    5.59
  -3  15  -1  251.07    5.73
   3  15   1  261.55    6.27
  15   3   1  245.47    5.31
  -3  15   1  252.25    5.62
   1  15   3  272.15    5.98
  -1  15   3  249.74    5.70
  15   1   3  254.91    5.57
  15  -1   3  251.99    5.55
  -1  -3 -15  259.32    5.38
   1  -3 -15  254.54    5.21
  -3  -1 -15  254.61    5.27
  -3   1 -15  242.57    5.05
 -15  -3   1  268.33    7.20
 -15  -3  -1  250.82    8.11
 -15   1  -3  253.51    8.28
  15  -1  -3  247.63    7.85
   1 -15   3  249.83    7.91
  -1 -15   3  245.09    7.93
 -15  -1  -3  249.21    8.25
  15   1  -3  253.05    9.03
  15  -3  -1  251.03    8.39
  -3 -15   1  259.09    8.17
   3 -15   3    2.26    1.47
   3  15  -3    0.97    1.44
  -3 -15  -3    1.31    1.52
   3  15   3    1.56    1.38
  -3  -3 -15   -0.34    1.33
   3  -3 -15    1.68    1.35
  -3 -15   3   -0.22    3.93
   1 -15   5    6.15    1.76
  -1 -15   5    6.69    1.75
  15  -1  -5    7.15    1.29
 -15  -5   1    8.66    1.78
  15   1  -5    6.60    1.31
 -15  -5  -1    7.46    1.40
   5 -15   1    9.40    1.72
  -5 -15   1    6.61    1.59
   1  15  -5    7.13    1.49
  -5 -15  -1    7.93    1.65
  -1  15  -5    7.69    1.44
   5 -15  -1    6.78    1.48
  15   5  -1    9.76    1.36
 -15  -1  -5    7.29    1.21
   5  15  -1   10.81    1.60
 -15   1  -5    8.55    1.35
  -1 -15  -5    8.03    1.57
   1 -15  -5    7.02    1.51
   5  15   1    7.37    1.49
  -5  15  -1    3.86    1.46
  15   5   1    8.83    1.61
  -5  15   1    6.42    1.31
   1  15   5    6.66    1.44
  -1  15   5    4.62    1.38
  15   1   5    7.36    1.26
  -1  -5 -15    8.25    1.53
   1  -5 -15    8.09    1.52
  15  -1   5    9.23    1.17
  -5  -1 -15    6.32    1.43
  -5   1 -15   11.19    1.49
  15  -1  -5    5.99    3.09
   1 -15   5    3.16    3.70
 -15  -5   1    7.50    4.06
  -1 -15   5    0.85    3.24
  15   1  -5    7.87    3.29
 -15  -5  -1   -5.64    4.07
  -5 -15   1    1.80    3.92
 -15   1  -5   11.44    3.72
 -15  -1  -5    5.22    3.20
  15  -5  -3  117.86    3.62
  -3 -15   5  110.92    3.32
   5 -15   3  120.59    3.36
  -5 -15   3  111.00    3.26
  15   3  -5  118.90    3.50
   3  15  -5  110.69    3.65
 -15  -5  -3  109.06    3.15
  -3  15  -5  107.55    3.59
  15   5  -3  119.73    3.45
  -5 -15  -3  112.07    3.16
   5 -15  -3  106.67    3.00
 -15  -3  -5  111.12    3.01
  -5  15  -3  114.40    3.53
  -3 -15  -5  111.28    3.19
 -15   3  -5  111.65    3.34
   3 -15  -5  107.74    3.01
  15   5   3  115.37    3.44
   3  15   5  112.44    3.62
  -5  15   3  113.45    3.40
  -3  15   5  115.48    3.39
  15   3   5  107.03    3.13
  -3  -5 -15  113.04    3.04
  -5  -3 -15  114.21    3.15
   3  -5 -15  116.41    3.04
  15  -5  -3  104.45    3.02
   5  -3 -15  112.15    2.97
  15  -3  -5  107.76    3.78
 -15  -5   3  121.59    4.33
  15  -5  -3  121.43    4.77
   3 -15   5  114.59    5.10
  -3 -15   5  121.23    5.45
  15   3  -5  109.05    5.45
  -5 -15   3  111.59    5.90
   5 -15   3  112.67    5.53
 -15   3  -5  107.75    5.58
 -15  -5  -3  113.42    5.91
  15   5  -3  101.81    5.34
  -5 -15   5  466.29    8.87
  15   5  -5  483.17    9.45
  -5  15  -5  467.86    9.47
 -15  -5  -5  479.96    8.68
  -5 -15  -5  467.49    8.67
   5 -15  -5  476.34    8.70
 -15   5  -5  490.60   10.00
  15   5   5  481.73    9.17
  -5  15   5  469.99    9.06
  -5  -5 -15  464.38    8.44
   5  -5 -15  475.80    8.62
  15  -5  -5  463.19    8.57
   5 -15   5  433.72   10.77
 -15   5  -5  452.24   11.13
  -5 -15   5  480.84   11.07
  15   5  -5  470.39   12.22
  15   1  -7   21.47    1.75
 -15  -7   1   22.00    1.78
   7 -15   1   17.64    1.59
 -15  -7  -1   20.79    1.72
  -7 -15   1   24.29    1.93
  -1  15  -7   19.83    1.80
   1  15  -7   17.77    1.68
  -7 -15  -1   17.51    1.79
   7 -15  -1   17.56    1.56
  15   7  -1   19.63    1.75
  15   7   1   22.40    1.60
  -1 -15  -7   24.88    2.00
   1 -15  -7   17.75    1.67
  -7  15  -1   18.77    1.65
 -15  -1  -7   21.87    1.49
 -15   1  -7   21.46    1.59
  -7  15   1   19.65    1.63
  -1  15   7   20.09    1.64
  -1  -7 -15   20.10    1.70
   1  -7 -15   18.85    1.68
  15   1   7   20.06    1.54
  -7  -1 -15   19.37    1.61
  -7   1 -15   15.03    1.54
  15  -1   7   19.60    1.38
  -1 -15   7   17.85    2.29
  15   1  -7   23.48    3.25
 -15  -7   1   16.05    4.00
  15  -7  -1   16.27    3.30
 -15  -7  -1   18.53    4.22
  -7 -15   1   16.82    4.14
   1  15  -7   17.63    3.57
   7 -15   3   84.46    2.88
  15   3  -7   81.52    2.84
  -7 -15   3   70.78    2.65
  -3  15  -7   77.25    2.84
 -15  -7  -3   76.26    2.67
  15   7  -3   80.14    2.66
  -7 -15  -3   79.78    2.68
   7 -15  -3   79.33    2.52
  -7  15  -3   79.00    2.83
  -3 -15  -7   77.24    2.59
 -15  -3  -7   79.34    2.50
   3 -15  -7   78.13    2.58
  15   7   3   79.14    2.57
 -15   3  -7   78.70    2.53
  15  -7  -3   74.46    2.48
  -7  15   3   75.48    2.66
  -3  15   7   70.68    2.64
  -3  -7 -15   83.24    2.72
  15   3   7   77.00    2.71
  -7  -3 -15   78.55    2.60
   3  -7 -15   79.54    2.53
  -7   3 -15   79.09    2.58
   7  -3 -15   74.16    2.53
  -3 -15   7   71.73    3.51
 -15  -7   3   80.05    4.27
  15   3  -7   80.17    4.75
   7 -15   3   72.32    4.51
  -7 -15   3   84.72    5.47
 -15  -7  -3   71.37    4.95
   3  15  -7   77.75    4.99
  15   7  -3   74.95    4.68
  -7 -15   5  414.18    8.55
  15   5  -7  423.43    8.92
  -5  15  -7  399.81    8.80
  15   7  -5  416.95    8.52
  -7  15  -5  414.18    8.83
 -15  -7  -5  416.41    8.32
  -7 -15  -5  404.78    7.96
   7 -15  -5  393.24    7.96
  -5 -15  -7  415.93    8.26
   5 -15  -7  415.77    8.19
  15   7   5  432.98    8.73
 -15   5  -7  419.64    8.46
  -7  15   5  409.27    8.60
  15   5   7  423.70    8.54
  -5  15   7  434.27    9.04
  -5  -7 -15  415.93    8.38
  -7  -5 -15  418.40    8.21
  15  -7  -5  408.02    8.14
   5  -7 -15  421.22    8.09
   7  -5 -15  414.67    8.07
  15  -5  -7  412.09    8.25
  -5 -15   7  432.80    9.89
  -7 -15   5  444.12   10.90
 -15   5  -7  402.14   11.25
  15   7  -7  461.26    9.60
  -7  15  -7  471.32   10.03
 -15  -7  -7  473.49    9.26
  -7 -15  -7  470.42    9.12
   7 -15  -7  462.76    9.01
  15   7   7  478.25    9.74
  -7  -7 -15  465.48    8.96
 -15   7  -7  474.31    9.51
  -7  15   7  475.70    9.55
  15  -7  -7  461.91    9.13
   7  -7 -15  477.57    9.03
  -7 -15   7  470.30   10.39
 -15   7  -7  456.19   13.30
   9 -15   1  252.93    5.70
  -1  15  -9  223.42    6.34
  -9 -15   1  233.93    5.28
 -15  -9  -1  237.10    5.40
  -9 -15  -1  246.47    5.48
   9 -15  -1  253.77    5.76
  15   9  -1  241.41    5.75
  15   9   1  235.88    5.61
  -1 -15  -9  240.50    5.32
  -9  15  -1  253.47    6.03
   1 -15  -9  247.80    5.44
 -15  -1  -9  239.76    5.31
 -15   1  -9  243.62    5.43
  -9  15   1  241.09    5.70
  -1  -9 -15  243.20    5.31
   1  -9 -15  238.51    5.17
  -9  -1 -15  234.62    5.25
  -9   1 -15  239.21    5.33
  15   1   9  231.67    5.36
  15  -1   9  245.72    5.70
  15  -9  -1  219.55    6.96
 -15  -9   1  245.22    9.12
 -15  -9  -1  240.73    8.15
  -9 -15   1  237.36    8.33
   1  15  -9  256.80    9.51
  -1  15  -9  246.78    9.04
  -9 -15  -1  238.07    7.82
   9 -15   3   10.03    1.69
 -15  -9   3    9.64    1.76
  -9 -15   3    6.75    1.94
  -3  15  -9   12.45    1.56
 -15  -9  -3   10.91    1.72
  -9 -15  -3   10.24    1.58
  15   9  -3    9.99    1.48
   9 -15  -3   11.52    1.55
  -9  15  -3   12.10    1.39
  15  -9  -3    9.71    1.24
  -3 -15  -9    9.17    1.61
 -15  -3  -9   12.03    1.43
  15   9   3   10.77    1.42
   3 -15  -9    9.62    1.52
 -15   3  -9   10.61    1.35
  -9  15   3    9.12    1.25
  -3  -9 -15    9.83    1.58
  -9  -3 -15   10.77    1.49
   3  -9 -15   13.38    1.51
  15   3   9   12.94    1.49
  -9   3 -15   11.40    1.54
   9   3  15    9.96    1.34
   9  -3 -15   13.16    1.51
 -15  -9   3   14.06    3.36
  -9 -15   3   16.18    4.11
   3  15  -9    8.40    3.97
  -3  15  -9   12.17    3.42
 -15  -9  -3   11.81    3.92
  -9 -15   5   81.39    3.11
  15   5  -9   81.07    2.89
  -5  15  -9   78.82    3.30
  15   9  -5   83.46    2.88
 -15  -9  -5   83.86    2.73
  -9  15  -5   83.75    2.94
  -9 -15  -5   76.70    2.66
   9 -15  -5   88.63    2.83
  -5 -15  -9   78.85    2.71
 -15  -5  -9   85.43    2.81
   5 -15  -9   83.77    2.75
  15   9   5   81.55    2.78
  15  -9  -5   76.58    2.61
  -5  -9 -15   83.21    2.71
  -9  -5 -15   84.64    2.71
 -15   5  -9   84.96    2.67
  -9  15   5   84.02    2.93
  15   5   9   79.89    2.79
   5  -9 -15   81.46    2.69
  -5  15   9   77.71    2.91
   9  -5 -15   80.36    2.54
  15  -5  -9   86.34    2.69
  -9   5 -15   87.47    2.76
 -15  -9   5   84.78    3.81
  -9 -15   5   74.63    4.62
  -5  15  -9   77.39    4.97
 -15   9  -7  129.88    4.12
  -7  15  -9  130.43    4.21
  -9  15  -7  131.56    3.93
 -15  -9  -7  133.00    3.50
  -9 -15  -7  131.72    3.56
  -7 -15  -9  135.48    3.66
 -15  -7  -9  140.28    3.85
   9 -15  -7  131.46    3.60
   7 -15  -9  128.08    3.36
  15   9   7  129.35    3.88
  -7  -9 -15  132.54    3.45
  -9  -7 -15  131.37    3.45
  15  -9  -7  131.59    3.48
  15   7   9  124.34    3.79
   7  -9 -15  136.68    3.53
 -15   7  -9  138.20    3.70
  -9  15   7  137.01    3.83
  -7  15   9  128.36    3.87
  15  -7  -9  131.99    3.60
   9  -7 -15  133.07    3.51
 -15   9  -7  132.40    3.75
  -9 -15   7  133.06    4.92
  -7  15  -9  137.75    6.14
  -9  15  -9    3.40    1.29
 -15  -9  -9    1.61    1.44
  -9 -15  -9    4.19    1.54
   9 -15  -9    5.41    1.38
  -9  -9 -15    0.99    1.54
  15  -9  -9    2.25    1.07
   9  -9 -15    5.95    1.40
  -9  15   9    3.37    1.40
  15 -11  -1  717.67   14.00
  11 -15   1  737.48   13.60
 -15 -11   1  723.12   13.31
 -11 -15   1  735.59   13.65
 -15 -11  -1  723.68   13.25
 -11 -15  -1  736.07   13.82
  11 -15  -1  709.12   13.02
  -1 -15 -11  704.70   12.75
   1 -15 -11  737.97   13.35
 -11  15  -1  712.60   13.41
 -15  -1 -11  734.87   13.28
 -15   1 -11  754.94   13.80
 -11  15   1  728.74   13.42
  -1 -11 -15  749.15   13.51
   1 -11 -15  724.89   13.14
 -11  -1 -15  722.45   13.11
 -11   1 -15  741.05   13.53
  15   1  11  692.85   12.87
 -15 -11   1  714.54   15.75
   1  15 -11  743.66   18.29
  -1  15 -11  765.31   19.50
 -15 -11  -1  720.97   16.09
 -11 -15  -1  738.99   16.25
  11 -15   1  693.02   15.91
 -15 -11   3  239.69    5.55
 -11 -15   3  257.74    5.87
 -15 -11  -3  243.61    5.48
  11 -15  -3  231.31    5.21
  15 -11  -3  244.54    5.85
 -11  15  -3  252.28    6.08
  -3 -15 -11  246.65    5.41
 -15  -3 -11  244.94    5.42
   3 -15 -11  234.51    5.12
   3 -11 -15  250.29    5.46
 -15   3 -11  255.11    5.78
 -11  -3 -15  240.84    5.37
 -11  15   3  233.89    5.44
 -11   3 -15  240.30    5.24
  15   3  11  231.44    5.36
 -15 -11   3  243.54    7.54
 -11 -15   3  261.00    8.27
  -3  15 -11  253.78    9.44
 -15 -11  -3  238.38    7.88
 -11 -15   5   14.74    1.95
  -5  15 -11   11.36    1.71
 -15 -11  -5   15.22    1.67
 -11 -15  -5    9.91    1.67
 -11  15  -5   12.88    1.36
  11 -15  -5   11.33    1.35
  -5 -15 -11   12.66    1.78
  15 -11  -5   12.40    1.34
 -15  -5 -11   14.40    1.66
   5 -15 -11   14.74    1.58
  -5 -11 -15   10.79    1.67
 -11  -5 -15   13.24    1.72
   5 -11 -15   15.30    1.62
 -15   5 -11   14.45    1.43
 -11  15   5   13.73    1.29
  15   5  11   14.05    1.54
 -11   5 -15   13.35    1.63
  11  -5 -15   14.34    1.49
  15  -5 -11   12.15    1.46
 -15 -11   5    8.73    2.84
 -11 -15   5    8.38    3.68
  -5  15 -11   11.73    3.91
  -7  15 -11    0.79    1.44
 -11  15  -7    3.25    1.22
 -15 -11  -7    2.55    1.47
 -11 -15  -7    0.82    1.57
  -7 -15 -11    2.60    1.58
  11 -15  -7    3.01    1.25
 -15  -7 -11    1.97    1.38
   7 -15 -11    5.48    1.42
  -7 -11 -15   -0.51    1.50
 -11  -7 -15    0.93    1.47
 -11  15   7    4.92    1.17
  15  -7 -11    3.16    1.32
  11  -7 -15    3.58    1.31
 -11   7 -15    1.54    1.29
 -11 -15   7    0.76    2.56
  -9  15 -11   83.58    3.46
 -11  15  -9   83.30    3.06
 -15 -11  -9   89.68    2.93
 -11 -15  -9   86.37    2.88
  -9 -15 -11   81.94    2.76
 -15  -9 -11   84.71    2.83
  11 -15  -9   86.09    2.87
   9 -15 -11   91.27    2.98
  -9 -11 -15   80.91    2.76
 -11  -9 -15   84.47    2.82
  15 -11  -9   88.46    2.88
   9 -11 -15   86.86    2.77
  15  -9 -11   79.61    2.56
  11  -9 -15   85.14    2.73
 -11  15   9   84.82    3.14
 -15   9 -11   85.86    2.96
  -9  15 -11   87.99    5.39
 -11  15 -11  299.64    9.19
 -11 -15 -11  309.71    8.41
 -15 -11 -11  311.71    8.52
 -11 -11 -15  297.97    8.23
  11 -15 -11  302.40    8.31
  15 -11 -11  297.85    8.29
  11 -11 -15  321.01    8.72
 -11  15  11  276.02    7.94
 -15  11 -11  339.84   14.26
 -11  15 -11  316.57   11.76
  13 -15   1  658.68   14.27
  15 -13  -1  634.22   13.31
 -15 -13   1  638.50   12.86
 -13 -15   1  647.49   13.08
 -15 -13  -1  646.22   12.93
  13 -15  -1  654.09   13.60
 -13 -15  -1  658.90   13.35
  -1 -15 -13  648.60   12.70
   1 -15 -13  656.44   12.97
  -1 -13 -15  643.50   12.63
 -13  15  -1  609.53   12.53
   1 -13 -15  635.28   12.51
 -15  -1 -13  647.40   12.92
 -15   1 -13  628.48   12.68
 -13  -1 -15  652.24   13.02
 -13  15   1  623.88   12.74
 -13   1 -15  658.85   13.13
 -15  13  -1  627.28   13.22
 -15  13   1  626.47   12.86
  15   1  13  600.98   12.28
  -1  15 -13  603.10   17.75
 -15 -13   1  647.53   15.28
 -13 -15   1  621.24   15.27
 -15 -13  -1  614.04   14.96
  13 -15   1  610.03   15.44
 -13 -15  -1  606.92   15.03
 -15 -13   3  232.70    5.79
 -13 -15   3  233.33    5.91
 -15 -13  -3  216.96    5.31
 -13 -15  -3  227.43    5.34
  13 -15  -3  231.50    5.59
  15 -13  -3  223.23    5.67
 -13  15  -3  234.28    5.96
  -3 -15 -13  230.00    5.55
   3 -15 -13  227.64    5.50
 -15  -3 -13  235.65    5.53
  -3 -13 -15  230.28    5.43
 -15  13  -3  222.02    5.67
   3 -13 -15  245.29    5.85
 -13  -3 -15  237.59    5.49
 -15   3 -13  227.22    5.40
 -13  15   3  224.70    5.61
 -13   3 -15  229.45    5.47
  15   3  13  222.19    5.57
 -15  13   3  220.15    5.49
 -15 -13   3  233.31    7.74
  -3  15 -13  233.07    9.62
 -13 -15   3  237.68    8.10
 -15 -13  -3  229.06    7.82
 -13 -15  -3  228.54   11.17
 -13 -15   5   27.51    2.16
 -15 -13  -5   20.30    1.77
 -13 -15  -5   23.76    1.77
  13 -15  -5   22.61    1.53
 -13  15  -5   24.01    1.61
  15 -13  -5   21.56    1.63
 -15  13  -5   24.24    1.61
  -5 -15 -13   23.87    1.85
 -15  -5 -13   25.50    1.71
  -5 -13 -15   23.07    1.88
   5 -15 -13   21.41    1.70
 -13  -5 -15   24.39    1.72
   5 -13 -15   23.78    1.76
 -15   5 -13   21.44    1.66
 -13  15   5   23.92    1.58
 -13   5 -15   21.59    1.71
  13  -5 -15   25.23    1.64
  15  -5 -13   24.46    1.65
 -15 -13   5   28.68    3.62
 -13 -15   5   18.74    3.41
  -5  15 -13   21.33    4.00
 -13  15  -7   11.63    1.35
 -15  13  -7   12.16    1.38
 -15 -13  -7   20.26    1.77
 -13 -15  -7   12.47    1.66
  13 -15  -7   16.77    1.63
  -7 -15 -13   17.75    1.74
  15 -13  -7   15.40    1.55
 -15  -7 -13   11.94    1.59
  -7 -13 -15   13.83    1.69
 -13  -7 -15   13.60    1.63
   7 -15 -13   12.27    1.57
   7 -13 -15   15.63    1.61
 -15   7 -13   10.93    1.46
  15  -7 -13   11.23    1.59
  13  -7 -15   14.57    1.50
 -13  15   7   11.51    1.27
 -13   7 -15   10.93    1.39
 -13 -15   7   10.55    2.76
  -7  15 -13   12.69    3.84
  -9  15 -13  103.26    4.11
 -15  13  -9  107.11    4.25
 -13  15  -9  108.48    4.18
 -13 -15  -9  117.55    3.88
 -15 -13  -9  120.75    3.96
  -9 -15 -13  123.77    4.00
 -15  -9 -13  116.91    3.90
  13 -15  -9  115.94    3.83
  -9 -13 -15  114.50    3.83
 -13  -9 -15  119.53    3.94
  15 -13  -9  130.52    4.25
   9 -15 -13  120.26    3.88
   9 -13 -15  116.35    3.75
  15  -9 -13  118.61    4.03
  13  -9 -15  113.08    3.69
 -15   9 -13  122.72    4.02
 -13  15   9  107.04    3.80
 -13   9 -15  120.97    4.01
  -9  15 -13  119.20    6.47
 -11  15 -13  297.71    9.17
 -15  13 -11  279.01    9.12
 -13  15 -11  286.82    9.22
 -13 -15 -11  303.64    8.28
 -15 -13 -11  306.48    8.34
 -11 -15 -13  309.53    8.93
 -15 -11 -13  306.16    8.39
 -11 -13 -15  291.60    8.01
 -13 -11 -15  308.73    8.94
  13 -15 -11  296.07    8.29
  11 -15 -13  300.38    8.20
  15 -13 -11  307.74    9.05
  11 -13 -15  289.41    8.46
  15 -11 -13  308.03    9.05
  13 -11 -15  286.15    7.92
 -15  11 -13  306.61    9.02
 -11  15 -13  321.17   12.61
 -15  13 -13  278.41    9.38
 -13  15 -13  255.40    8.49
 -13 -15 -13  300.84    8.77
 -15 -13 -13  287.39    8.41
 -13 -13 -15  292.55    8.47
  13 -15 -13  300.19    9.00
  15 -13 -13  284.76    8.33
  13 -13 -15  280.39    8.19
 -15  13 -13  296.63   12.70
 -13  15 -13  284.62   12.71
  15 -15  -1  259.93    7.73
 -15 -15   1  277.82    7.81
 -15 -15  -1  265.90    7.55
  -1 -15 -15  265.41    7.35
   1 -15 -15  264.77    7.36
 -15  -1 -15  263.23    7.45
 -15   1 -15  267.11    7.46
 -15  15  -1  244.84    7.22
 -15  15   1  249.22    7.35
 -15 -15   1  233.11    8.92
 -15 -15  -1  243.28    9.17
 -15 -15   3   37.96    2.28
 -15 -15  -3   38.38    2.20
  15 -15  -3   43.96    2.18
  -3 -15 -15   39.13    2.19
 -15  15  -3   38.06    2.00
   3 -15 -15   36.89    2.08
 -15  -3 -15   40.35    2.10
 -15   3 -15   39.54    2.10
 -15  15   3   37.29    1.91
  -3  15 -15   39.86    3.75
 -15 -15   3   47.45    4.62
 -15 -15  -3   44.19    4.71
 -15 -15   5   15.03    1.98
 -15 -15  -5   12.10    1.70
  15 -15  -5   13.82    1.44
 -15  15  -5   11.24    1.37
  -5 -15 -15    9.87    1.69
 -15  -5 -15   14.72    1.62
   5 -15 -15   18.78    1.78
 -15   5 -15   13.19    1.42
 -15  15   5   10.90    1.33
  15  -5 -15   14.22    1.43
 -15 -15   5   16.93    3.54
  -5  15 -15    9.65    2.91
 -15 -15  -7   22.53    1.87
 -15  15  -7   17.59    1.58
  15 -15  -7   18.86    1.65
  -7 -15 -15   16.46    1.79
 -15  -7 -15   20.41    1.75
   7 -15 -15   18.76    1.70
 -15   7 -15   20.77    1.74
  15  -7 -15   18.44    1.55
 -15  15   7   16.28    1.55
 -15 -15   7   15.82    2.72
  -7  15 -15   13.11    3.56
  -9 -15 -15    1.09    1.62
  15 -15  -9    5.12    1.36
 -15  -9 -15    2.95    1.54
   9 -15 -15    6.05    1.62
  15  -9 -15    4.18    1.54
 -15   9 -15    6.15    1.36
 -15  15 -11   71.61    3.35
 -15 -15 -11   79.57    3.16
 -11 -15 -15   76.60    3.04
 -15 -11 -15   85.52    3.28
  15 -15 -11   84.11    3.23
  11 -15 -15   87.49    3.37
  15 -11 -15   82.10    3.17
 -15  11 -15   83.32    3.27
 -11  15 -15   78.57    5.35
 -15  15 -13   90.92    4.37
 -15 -15 -13  102.08    3.82
 -13 -15 -15   99.59    3.75
 -15 -13 -15   98.62    3.66
  15 -15 -13   90.50    3.42
  13 -15 -15   99.05    3.81
  15 -13 -15  102.16    3.79
 -15  13 -15   98.54    6.32
 -13  15 -15  101.00    6.68
 -15  15 -15   15.26    2.10
 -15 -15 -15   18.75    1.97
  15 -15 -15   15.24    1.64
   0 -16   0  957.47   15.81
   0  16   0  974.05   17.22
  16   0   0  998.22   16.92
   0   0 -16  954.71   15.33
 -16  -2   0  413.72    7.98
 -16   0  -2  422.03    8.37
   0 -16   2  420.88    8.00
   2 -16   0  418.09    7.96
  -2 -16   0  404.73    7.59
  16   0  -2  412.07    7.97
   0 -16  -2  428.31    7.98
   0  16  -2  419.99    8.71
   2  16   0  407.66    8.53
  16   2   0  407.21    8.00
  -2  16   0  424.59    8.42
   0  16   2  431.75    8.68
  16  -2   0  409.70    8.10
  16   0   2  382.66    7.48
   0  -2 -16  395.36    7.31
  -2   0 -16  404.25    7.70
 -16  -2   0  406.49    9.55
 -16   0  -2  394.25   10.01
  16   0  -2  426.65   11.53
   0 -16   2  390.42   10.61
   2 -16   2   89.67    2.88
  -2 -16   2   86.96    2.89
 -16  -2  -2   94.97    2.92
  16  -2  -2   86.57    2.93
  -2 -16  -2   89.42    2.83
   2 -16  -2   86.07    2.73
  16   2  -2   87.73    2.88
   2  16  -2   89.75    3.15
  -2  16  -2   86.51    3.07
   2  16   2   86.37    2.99
  -2  16   2   90.26    3.11
  16   2   2   82.60    2.74
  16  -2   2   84.96    2.74
  -2  -2 -16   90.69    2.72
   2  -2 -16   87.21    2.62
 -16   2  -2   89.23    3.90
 -16  -2  -2   97.86    5.36
  16  -2  -2   89.07    4.92
  -2 -16   2   90.17    5.28
   2 -16   2   86.45    5.31
  16   2  -2   84.76    4.82
   0 -16   4    0.36    1.59
  -4 -16   0    2.44    1.77
   4 -16   0    2.33    1.44
   0  16  -4    3.08    1.45
   0 -16  -4    2.10    1.48
  -4  16   0    1.71    1.34
   0  16   4    1.45    1.33
   0  -4 -16    3.79    1.49
  -4   0 -16    5.80    1.46
 -16  -4   0    4.30    3.94
  16   0  -4    3.68    3.80
   0 -16   4    3.31    3.58
  -4 -16   0    4.47    3.64
   2 -16   4   58.54    2.62
  -2 -16   4   54.79    2.45
  16  -2  -4   58.55    2.36
   4 -16   2   54.24    2.30
  -4 -16   2   59.98    2.48
 -16  -4  -2   57.75    2.24
  16   2  -4   58.04    2.35
 -16   2  -4   56.62    2.26
  16  -4  -2   60.91    2.43
  -4 -16  -2   56.28    2.48
   4 -16  -2   60.15    2.31
   2  16  -4   55.53    2.55
  -2  16  -4   57.30    2.45
  16   4  -2   57.60    2.22
  -2 -16  -4   57.05    2.37
   2 -16  -4   55.21    2.24
  -4  16  -2   60.68    2.38
  16   4   2   60.03    2.27
  -4  16   2   57.86    2.27
  -2  16   4   56.08    2.41
  16   2   4   55.15    2.09
  -2  -4 -16   58.39    2.22
  -4  -2 -16   56.88    2.20
  16  -2   4   56.97    2.18
   2  -4 -16   63.11    2.30
   4  -2 -16   56.93    2.20
  -4   2 -16   61.29    2.27
 -16  -4   2   47.99    3.13
  16  -2  -4   59.24    4.52
   2 -16   4   49.91    4.16
 -16   2  -4   57.96    4.57
  -2 -16   4   62.41    4.72
  16  -4  -2   60.17    4.38
 -16  -4  -2   59.92    5.34
  16   2  -4   59.32    4.98
  -4 -16   2   55.65    4.83
 -16  -2  -4   54.52    4.47
   4 -16   2   53.53    4.48
  16   4  -2   66.64    4.89
  16  -4  -4  495.02    9.57
   4 -16   4  482.56    8.93
  -4 -16   4  492.30    9.23
  16   4  -4  509.80    9.57
 -16  -4  -4  501.84    9.02
  -4  16  -4  481.24    9.53
  -4 -16  -4  496.13    9.06
   4 -16  -4  488.74    8.75
  16   4   4  515.58    9.61
  -4  16   4  475.48    9.23
  -4  -4 -16  504.45    9.08
   4  -4 -16  491.20    8.64
 -16   4  -4  485.93   10.96
  16  -4  -4  522.46   12.15
   4 -16   4  509.35   12.02
  -4 -16   4  482.41   11.71
  16   4  -4  482.19   12.27
 -16  -4  -4  497.30   12.33
  16   0  -6   40.55    2.15
 -16  -6   0   36.31    2.00
   6 -16   0   36.37    2.11
  -6 -16   0   39.20    2.15
   0  16  -6   37.78    2.17
 -16   0  -6   36.14    1.83
   0 -16  -6   36.20    2.01
  16   6   0   37.97    2.02
  -6  16   0   38.12    1.90
   0  -6 -16   40.78    2.03
  16   0   6   34.90    1.70
  -6   0 -16   38.26    1.94
   0 -16   6   40.38    3.45
  16   0  -6   36.97    3.62
 -16  -6   0   35.62    4.90
  16  -6   0   41.98    3.84
  -6 -16   0   45.77    4.49
 -16  -6   2  184.79    4.66
  16   2  -6  195.49    5.02
   6 -16   2  174.91    4.37
  -6 -16   2  190.81    4.61
 -16  -6  -2  186.90    4.68
  -2  16  -6  175.57    4.80
  -6 -16  -2  187.80    4.63
   6 -16  -2  180.36    4.32
  16   6  -2  183.22    4.69
 -16  -2  -6  188.51    4.49
  -2 -16  -6  180.18    4.27
   2 -16  -6  182.84    4.40
 -16   2  -6  186.86    4.45
  -6  16  -2  185.97    5.00
  16   6   2  185.89    4.72
  -6  16   2  183.42    4.88
  -2  16   6  178.65    4.66
  16   2   6  191.56    4.63
  -2  -6 -16  186.12    4.43
  -6  -2 -16  178.50    4.16
   2  -6 -16  177.59    4.10
  -6   2 -16  181.15    4.34
  16  -2   6  181.16    4.62
   6  -2 -16  185.60    4.35
  16  -2  -6  185.18    6.34
   2 -16   6  165.21    5.94
 -16  -6   2  186.41    6.34
  -2 -16   6  169.55    5.90
  16  -6  -2  172.47    6.49
  16   2  -6  191.48    7.10
 -16  -6  -2  196.61    7.40
  -6 -16   2  190.57    7.24
   6 -16   2  182.58    6.71
 -16   2  -6  191.07    6.94
  -4 -16   6  739.03   13.69
   6 -16   4  728.46   13.67
  -6 -16   4  753.00   14.04
  16   4  -6  798.99   14.99
  16   6  -4  750.05   13.98
  -4  16  -6  747.76   14.68
 -16  -6  -4  751.08   13.58
  -6 -16  -4  707.30   12.80
  -6  16  -4  730.35   13.96
   6 -16  -4  772.94   14.02
 -16  -4  -6  761.36   13.90
  -4 -16  -6  746.58   13.39
   4 -16  -6  782.31   14.04
 -16   4  -6  765.52   14.22
  16   6   4  765.08   14.17
  -6  16   4  741.12   13.96
  -4  16   6  730.02   13.96
  16   4   6  730.97   13.56
  -4  -6 -16  726.31   13.28
  -6  -4 -16  739.84   13.28
  16  -6  -4  692.91   12.69
   4  -6 -16  738.03   13.25
   6  -4 -16  772.97   13.72
   4 -16   6  712.72   15.53
  -4 -16   6  754.29   15.95
   6 -16   4  677.10   15.52
  -6 -16   4  715.86   15.85
  16   4  -6  724.03   16.75
 -16   4  -6  756.52   17.64
  16   6  -4  698.97   16.14
 -16  -6  -4  740.82   16.49
  -6 -16   6 1105.19   19.43
  16   6  -6 1129.09   20.32
  -6  16  -6 1072.72   19.66
 -16  -6  -6 1143.53   19.79
   6 -16  -6 1130.77   19.57
 -16   6  -6 1179.16   20.52
  16   6   6 1120.14   19.85
  -6  16   6 1099.27   19.69
  -6  -6 -16 1082.58   18.63
   6  -6 -16 1122.24   19.26
  16  -6  -6 1127.48   19.70
 -16   6  -6 1124.87   22.82
  -6 -16   6 1143.14   22.08
 -16  -8   0   12.20    1.81
   8 -16   0    5.57    1.36
  -8 -16   0    6.50    1.66
  16   8   0    8.34    1.40
   0 -16  -8    6.42    1.53
 -16   0  -8    7.85    1.37
  -8  16   0    4.18    1.20
   0  -8 -16    3.05    1.38
  -8   0 -16    3.33    1.57
  16   0   8    7.29    1.24
  16   0  -8    8.35    2.27
 -16  -8   0    9.60    4.12
  -8 -16   0    6.01    3.76
   0  16  -8    4.30    3.80
  16   2  -8   25.55    1.89
 -16  -8   2   26.24    1.93
   8 -16   2   31.54    2.03
  -8 -16   2   28.17    2.00
  -2  16  -8   26.88    1.84
 -16  -8  -2   24.61    1.79
  -8 -16  -2   23.40    1.89
   8 -16  -2   26.42    1.69
  16   8  -2   28.82    1.83
  -8  16  -2   24.75    1.60
  -2 -16  -8   26.13    1.85
   2 -16  -8   25.85    1.83
 -16  -2  -8   27.44    1.65
  16   8   2   27.46    1.73
 -16   2  -8   27.25    1.67
  -8  16   2   28.34    1.66
  -2  -8 -16   24.91    1.80
   2  -8 -16   30.14    1.85
  -8  -2 -16   31.85    1.93
  16   2   8   30.54    1.74
  -8   2 -16   27.57    1.71
  16  -8  -2   27.81    2.89
  16   2  -8   27.89    3.38
 -16  -8   2   31.45    4.45
  -8 -16   2   25.34    5.00
 -16  -8  -2   21.27    4.30
   8 -16   2   30.19    3.65
   2  16  -8   25.91    3.86
  -8 -16   4  358.88    7.69
  16   4  -8  363.33    8.13
  -4  16  -8  345.50    7.94
 -16  -8  -4  349.01    7.09
  16   8  -4  364.55    7.71
  -8 -16  -4  359.48    7.39
  -8  16  -4  369.65    8.21
   8 -16  -4  364.42    7.59
  -4 -16  -8  347.26    7.19
 -16  -4  -8  338.40    6.99
   4 -16  -8  342.88    7.10
  16   8   4  358.71    7.69
 -16   4  -8  367.67    7.63
  16  -8  -4  347.83    7.36
  -8  16   4  362.99    8.16
  -4  -8 -16  345.98    6.88
  -4  16   8  330.01    7.17
  -8  -4 -16  347.63    7.01
  16   4   8  344.58    7.47
   4  -8 -16  364.75    7.20
   8  -4 -16  362.58    7.28
  -8   4 -16  348.64    7.06
 -16  -8   4  337.00    7.93
   8 -16   4  358.02    9.17
  -8 -16   4  343.45    9.80
 -16  -8  -4  374.73   10.04
  -8 -16   6  674.51   12.65
  16   6  -8  686.29   13.35
  -6  16  -8  689.90   13.42
  16   8  -6  678.33   13.00
  -8  16  -6  674.71   13.04
 -16  -8  -6  697.84   12.80
  -8 -16  -6  684.78   12.73
 -16  -6  -8  705.73   12.90
   8 -16  -6  701.04   12.87
   6 -16  -8  680.71   12.41
  16   8   6  703.34   13.39
 -16   6  -8  695.25   12.84
  -6  -8 -16  694.86   12.49
  -8  -6 -16  685.28   12.44
  16   6   8  689.78   12.99
  -8  16   6  674.50   12.87
  16  -8  -6  707.80   13.00
  -6  16   8  675.97   12.96
   6  -8 -16  712.63   12.83
   8  -6 -16  685.75   12.29
  16  -6  -8  709.93   12.95
  -8 -16   6  703.06   15.13
 -16   6  -8  705.02   16.56
  -8  16  -8  444.26   10.20
 -16  -8  -8  449.99    9.37
  -8 -16  -8  453.44    9.44
   8 -16  -8  451.23    9.39
  -8  -8 -16  457.07    9.55
  16   8   8  432.64    9.69
 -16   8  -8  471.23    9.99
  16  -8  -8  454.51    9.55
  -8  16   8  443.81    9.62
   8  -8 -16  458.23    9.47
 -16 -10   0  238.39    5.57
  10 -16   0  229.10    5.31
 -10 -16   0  234.77    5.45
   0 -16 -10  238.12    5.38
 -10  16   0  222.41    5.53
 -16   0 -10  229.67    5.22
   0 -10 -16  238.25    5.14
 -10   0 -16  232.44    5.29
  16   0  10  233.24    5.80
 -16 -10   0  209.44    7.43
  16 -10   0  216.99    8.20
   0  16 -10  230.82    9.92
 -10 -16   0  239.67    7.91
  10 -16   2   75.83    2.80
 -16 -10   2   76.14    2.84
 -10 -16   2   72.25    2.84
 -16 -10  -2   71.10    2.58
 -10 -16  -2   72.65    2.73
  10 -16  -2   76.01    2.65
  -2 -16 -10   71.86    2.62
 -10  16  -2   74.38    2.93
   2 -16 -10   80.80    2.72
 -16  -2 -10   74.87    2.63
 -16   2 -10   69.25    2.48
 -10  16   2   75.31    2.71
  -2 -10 -16   75.95    2.61
   2 -10 -16   71.54    2.52
 -10  -2 -16   70.27    2.50
 -10   2 -16   68.81    2.48
  16   2  10   73.08    2.66
 -16 -10   2   63.59    4.72
 -10 -16   2   72.32    5.22
 -16 -10  -2   80.67    5.72
  -2  16 -10   81.50    5.44
 -10 -16  -2   79.85    5.10
  16   4 -10   22.07    2.08
 -10 -16   4   20.82    1.90
 -16 -10  -4   22.55    1.79
 -10 -16  -4   16.85    1.72
  10 -16  -4   24.03    1.78
 -10  16  -4   20.24    1.55
  -4 -16 -10   24.15    1.87
  16 -10  -4   20.71    1.54
 -16  -4 -10   24.01    1.81
   4 -16 -10   23.39    1.81
  -4 -10 -16   22.96    1.80
 -16   4 -10   26.81    1.76
 -10  16   4   21.45    1.49
 -10  -4 -16   17.15    1.59
   4 -10 -16   22.30    1.75
  16   4  10   20.15    1.64
 -10   4 -16   22.80    1.63
  10  -4 -16   21.91    1.63
 -16 -10   4   21.52    3.05
 -10 -16   4   21.50    3.98
  -4  16 -10   23.91    4.10
 -16 -10  -4   23.43    4.25
 -10 -16   6  162.20    4.42
  -6  16 -10  158.48    4.90
 -10  16  -6  158.99    4.54
 -16 -10  -6  165.26    4.35
 -10 -16  -6  162.41    4.27
  10 -16  -6  170.64    4.40
  -6 -16 -10  162.21    4.15
 -16  -6 -10  167.11    4.32
   6 -16 -10  166.52    4.33
  16 -10  -6  169.22    4.38
  -6 -10 -16  159.49    4.08
 -10  -6 -16  166.27    4.30
 -16   6 -10  169.20    4.46
   6 -10 -16  158.47    4.03
  16   6  10  161.37    4.47
 -10  16   6  154.29    4.36
  10  -6 -16  163.64    4.13
  16  -6 -10  153.50    3.86
 -10   6 -16  162.60    4.13
 -10 -16   6  183.68    6.53
  -6  16 -10  158.25    6.96
 -16  10  -8   67.77    2.84
  -8  16 -10   62.95    2.75
 -10  16  -8   60.18    2.63
 -16 -10  -8   77.47    3.62
 -10 -16  -8   71.86    2.64
  -8 -16 -10   69.40    2.60
 -16  -8 -10   71.97    2.73
  10 -16  -8   61.66    2.34
   8 -16 -10   73.69    2.58
  -8 -10 -16   73.28    2.65
 -10  -8 -16   66.35    2.47
  16 -10  -8   73.12    2.55
   8 -10 -16   72.05    2.51
 -16   8 -10   71.01    2.60
  16  -8 -10   71.64    2.54
  10  -8 -16   67.28    2.47
 -10  16   8   65.81    2.64
 -16  10  -8   67.29    2.94
 -10  16 -10    8.19    1.39
 -16 -10 -10    4.63    1.51
 -10 -16 -10    5.73    1.62
  10 -16 -10    5.93    1.40
 -10 -10 -16    4.54    1.53
  16 -10 -10    7.52    1.24
  10 -10 -16    5.52    1.44
 -10  16  10    3.17    1.25
 -16  10 -10    7.25    1.37
  12 -16   0  430.14    9.27
 -16 -12   0  409.04    8.79
 -12 -16   0  416.57    8.89
   0 -16 -12  399.76    8.34
 -16   0 -12  418.34    8.87
 -12  16   0  411.10    9.07
   0 -12 -16  413.81    8.82
 -12   0 -16  402.95    8.59
  16 -12   0  371.16   12.63
 -16 -12   0  396.36   11.07
 -12 -16   0  385.20   10.86
 -16 -12   2  206.29    5.22
 -12 -16   2  198.18    5.01
  16 -12  -2  203.79    5.59
 -16 -12  -2  194.85    4.91
 -12 -16  -2  194.98    4.91
  12 -16  -2  198.37    5.06
  -2 -16 -12  205.40    4.98
 -12  16  -2  193.06    5.12
   2 -16 -12  185.82    4.65
 -16  -2 -12  196.16    4.88
  -2 -12 -16  193.97    4.78
 -16   2 -12  202.99    5.05
   2 -12 -16  200.80    4.86
 -12  16   2  174.82    4.74
 -12  -2 -16  197.75    4.81
 -12   2 -16  194.18    4.85
  16   2  12  178.38    4.73
 -16 -12   2  212.73    7.63
  12 -16   2  194.95    7.83
  -2  16 -12  186.24    7.93
 -16 -12  -2  195.06    7.37
 -12 -16  -2  179.56    6.86
 -16 -12   4    5.29    1.75
 -12 -16   4   -0.08    1.79
 -16 -12  -4    5.61    1.51
 -12 -16  -4    6.75    1.62
  12 -16  -4    4.51    1.37
 -12  16  -4    5.03    1.14
  -4 -16 -12    1.69    1.59
 -16  -4 -12    2.50    1.54
   4 -16 -12    0.45    1.40
  -4 -12 -16    6.55    1.57
 -12  -4 -16    2.97    1.38
   4 -12 -16    2.37    1.46
 -16   4 -12    5.24    1.33
 -12  16   4    3.90    1.25
  16   4  12    5.21    1.21
 -12   4 -16    6.52    1.45
  12  -4 -16    5.95    1.36
 -16 -12   4   10.47    3.41
 -12 -16   4    3.40    3.92
 -16 -12  -4    1.89    3.93
 -16 -12  -6   16.72    1.75
 -12 -16  -6   19.08    1.86
 -12  16  -6   15.58    1.49
 -16  12  -6   17.84    1.50
  12 -16  -6   18.83    1.68
  -6 -16 -12   17.50    1.72
 -16  -6 -12   22.30    1.76
  16 -12  -6   16.06    1.45
   6 -16 -12   18.11    1.69
  -6 -12 -16   17.63    1.88
 -12  -6 -16   19.85    1.70
   6 -12 -16   21.65    1.75
 -16   6 -12   20.00    1.65
 -12  16   6   15.88    1.39
  12  -6 -16   16.24    1.66
 -12   6 -16   19.82    1.75
 -16 -12   6   20.97    2.70
 -12 -16   6   20.21    3.50
  -6  16 -12   15.69    3.62
  -8  16 -12    1.26    1.43
 -16 -12  -8    0.68    1.50
 -12 -16  -8    0.73    1.47
  -8 -16 -12    2.68    1.59
 -16  -8 -12    0.64    1.42
  12 -16  -8    0.00    1.37
   8 -16 -12   -2.38    1.39
  -8 -12 -16   -4.95    1.54
 -12  -8 -16    0.40    1.45
 -12  16   8    0.91    1.27
 -16  12 -10   80.31    3.59
 -10  16 -12   73.90    3.71
 -12  16 -10   79.91    3.60
 -12 -16 -10   76.53    3.01
 -16 -12 -10   78.44    3.00
 -10 -16 -12   78.80    3.04
 -16 -10 -12   81.67    3.12
  12 -16 -10   80.46    3.06
 -10 -12 -16   81.71    3.10
 -12 -10 -16   81.19    2.99
  10 -16 -12   83.29    3.03
  16 -12 -10   86.99    3.13
  10 -12 -16   88.88    3.20
  16 -10 -12   76.98    2.83
  12 -10 -16   82.61    3.01
 -16  10 -12   81.87    3.10
 -12  16  10   73.18    2.94
 -16  12 -10   84.74    3.25
 -10  16 -12   90.42    5.53
 -16  12 -12  186.51    6.69
 -12  16 -12  178.72    6.61
 -16 -12 -12  187.03    5.78
 -12 -16 -12  198.32    6.21
 -12 -12 -16  195.07    5.99
  12 -16 -12  204.20    6.35
  16 -12 -12  191.17    5.86
  12 -12 -16  184.29    5.78
 -16  12 -12  185.46    5.97
  14 -16   0  271.13    7.94
 -16 -14   0  287.41    8.15
 -14 -16   0  284.82    7.99
   0 -16 -14  282.33    7.77
   0 -14 -16  285.38    7.81
 -16   0 -14  276.71    7.82
 -14  16   0  252.14    7.40
 -14   0 -16  279.78    7.89
 -16  14   0  267.59    7.77
 -16 -14   0  262.80    9.69
 -14 -16   0  271.83    9.80
 -16 -14   2  124.54    4.21
 -14 -16   2  125.33    4.18
  16 -14  -2  113.29    4.08
 -16 -14  -2  113.70    3.84
  14 -16  -2  120.14    4.33
 -14 -16  -2  117.65    3.93
  -2 -16 -14  113.29    3.76
   2 -16 -14  119.14    4.08
 -14  16  -2  114.99    4.19
  -2 -14 -16  117.90    3.84
 -16  -2 -14  121.72    4.11
   2 -14 -16  117.20    3.79
 -14  -2 -16  122.36    4.03
 -16   2 -14  117.54    3.96
 -14   2 -16  116.15    3.87
 -16  14  -2  110.11    3.95
 -14  16   2  111.80    3.98
  16   2  14  103.14    3.66
 -16  14   2  106.61    4.04
 -16 -14   2  111.88    5.95
 -14 -16   2  118.60    6.45
 -16 -14  -2  107.09    5.96
 -14 -16  -2  116.05    6.38
 -16 -14   4   -0.22    1.90
 -14 -16   4   -0.16    1.58
 -16 -14  -4    0.87    1.68
 -14 -16  -4    1.22    1.44
  -4 -16 -14    1.50    1.53
 -16  -4 -14    1.56    1.38
   4 -16 -14    1.36    1.63
  -4 -14 -16    4.09    1.61
 -14  -4 -16    2.70    1.37
   4 -14 -16    0.34    1.46
 -16   4 -14    0.93    1.17
 -14   4 -16    0.99    1.25
  14  -4 -16    1.18    1.30
  -4  14 -16    4.44    2.21
 -16 -14   4    0.21    3.32
 -14 -16   4   -4.01    4.19
  -4  16 -14   -5.22    3.51
 -16 -14  -4   -5.20    3.59
 -14 -16  -4   -3.46    3.84
 -16 -14  -6   41.89    2.27
 -14 -16  -6   39.88    2.15
 -14  16  -6   34.12    2.04
  14 -16  -6   39.54    2.09
  16 -14  -6   37.83    1.96
 -16  14  -6   36.76    2.34
  -6 -16 -14   41.22    2.27
 -16  -6 -14   42.35    2.17
  -6 -14 -16   38.71    2.20
   6 -16 -14   43.16    2.28
 -14  -6 -16   40.14    2.11
   6 -14 -16   39.34    2.09
 -16   6 -14   37.11    1.89
 -14   6 -16   40.55    2.14
 -14  16   6   34.14    1.88
  16  -6 -14   40.74    1.98
  14  -6 -16   40.54    2.04
  -6  14 -16   32.44    2.85
 -16 -14   6   31.99    3.16
 -14 -16   6   36.42    3.68
  -6  16 -14   38.12    4.58
 -14  16  -8    4.84    1.23
 -16 -14  -8    6.90    1.58
 -14 -16  -8    2.83    1.61
  14 -16  -8    5.30    1.27
  -8 -16 -14    6.47    1.64
 -16  -8 -14    5.05    1.50
  16 -14  -8    5.71    1.34
  -8 -14 -16    7.84    1.67
 -14  -8 -16    4.51    1.64
   8 -16 -14    6.37    1.48
   8 -14 -16    6.89    1.53
  16  -8 -14    5.44    1.31
 -16   8 -14    3.54    1.34
  14  -8 -16    6.33    1.34
 -14   8 -16    4.16    1.33
 -14  16   8    3.66    1.29
  -8  14 -16    6.95    2.18
 -16  14 -10   28.91    2.07
 -14  16 -10   28.72    1.94
 -14 -16 -10   31.37    2.12
 -16 -14 -10   24.69    1.94
 -10 -16 -14   27.21    1.94
 -16 -10 -14   28.07    1.99
  14 -16 -10   30.97    1.89
 -10 -14 -16   27.08    2.03
 -14 -10 -16   31.35    2.07
  16 -14 -10   29.64    1.96
  10 -16 -14   27.95    1.92
  10 -14 -16   29.70    1.99
  16 -10 -14   31.88    1.95
  14 -10 -16   33.94    1.96
 -16  10 -14   29.34    1.89
 -14  10 -16   29.99    1.85
 -14  16  10   27.56    1.86
 -10  14 -16   26.17    4.01
 -10  16 -14   28.88    4.29
 -16  14 -12   90.08    4.04
 -14  16 -12   90.37    4.19
 -16 -14 -12  102.74    3.82
 -14 -16 -12  100.47    3.75
 -12 -16 -14   98.41    3.63
 -16 -12 -14  106.23    3.93
 -12 -14 -16  104.08    3.81
 -14 -12 -16  106.68    3.89
  14 -16 -12  100.92    3.77
  12 -16 -14   98.16    3.63
  16 -14 -12  107.54    3.94
  12 -14 -16   94.43    3.50
  16 -12 -14  100.61    3.78
  14 -12 -16  100.41    3.71
 -16  12 -14   92.35    3.51
 -12  14 -16   90.37    5.43
 -12  16 -14  100.11    6.50
 -16  14 -14   46.98    2.83
 -14  16 -14   46.59    2.80
 -14 -16 -14   47.44    2.40
 -16 -14 -14   52.54    2.58
 -14 -14 -16   46.87    2.40
  14 -16 -14   47.70    2.35
  16 -14 -14   46.77    2.32
  14 -14 -16   46.87    2.31
 -14  14 -16   46.04    4.48
 -14  16 -14   50.84    4.52
 -16 -16   0   36.22    2.15
   0 -16 -16   35.16    2.07
 -16   0 -16   32.00    2.04
 -16  16   0   29.30    1.90
 -16 -16   0   18.56    4.43
 -16 -16   2   -1.54    1.68
 -16 -16  -2   -1.66    1.63
  -2 -16 -16   -0.62    1.54
   2 -16 -16    0.51    1.64
 -16  -2 -16   -0.53    1.33
 -16   2 -16    1.98    1.32
 -16 -16   2    6.05    4.18
 -16 -16  -2    2.09    4.22
 -16 -16   4  105.47    3.99
 -16 -16  -4   88.44    3.40
  16 -16  -4  102.53    3.95
  -4 -16 -16   95.41    3.52
 -16  16  -4   91.11    3.75
   4 -16 -16   98.35    3.67
 -16  -4 -16  101.23    3.62
 -16   4 -16   98.17    3.56
 -16  16   4   94.17    3.80
  16  -4 -16   99.31    3.50
 -16 -16   4   98.18    5.42
 -16 -16  -4   88.24    5.52
 -16 -16  -6  223.05    6.75
  16 -16  -6  219.81    6.77
 -16  16  -6  209.26    6.86
  -6 -16 -16  215.64    6.56
 -16  -6 -16  219.70    6.72
   6 -16 -16  232.60    6.92
 -16   6 -16  228.42    7.01
  16  -6 -16  225.47    6.99
 -16  16   6  200.78    6.52
 -16 -16   6  221.77    7.75
  -6  16 -16  193.21   10.05
 -16 -16  -8  129.89    4.40
 -16  16  -8  113.65    4.38
  16 -16  -8  124.72    4.48
  -8 -16 -16  121.41    4.10
 -16  -8 -16  117.55    4.09
   8 -16 -16  134.67    4.44
  16  -8 -16  126.29    4.17
 -16   8 -16  122.55    4.30
  -8  16 -16  124.39    7.34
 -16  16 -10    8.80    1.38
 -16 -16 -10   13.51    1.85
 -10 -16 -16    6.34    1.74
 -16 -10 -16    6.51    1.68
  16 -16 -10   10.81    1.60
  10 -16 -16    6.58    1.57
  16 -10 -16    8.43    1.76
 -16  10 -16   13.98    1.68
 -10  16 -16   10.21    3.80
 -16  16 -12    3.82    1.42
 -16 -16 -12   -0.59    1.70
 -12 -16 -16    0.11    1.56
 -16 -12 -16    0.10    1.59
  16 -16 -12    5.56    1.58
  12 -16 -16    4.78    1.63
  16 -12 -16    3.83    1.59
 -16 -16 -14   -0.21    1.52
 -14 -16 -16   -2.78    1.80
 -16 -14 -16    0.59    1.64
  16 -16 -14    1.29    1.40
  14 -16 -16   -0.13    1.42
  16 -14 -16    0.11    1.50
 -16 -16 -16   51.79    2.66
  16 -16 -16   45.95    2.67
 -17  -1  -1  259.76    6.08
  -1 -17   1  254.38    5.72
   1 -17   1  249.33    5.67
   1 -17  -1  258.57    5.92
  -1 -17  -1  245.10    5.12
  17   1  -1  241.69    5.66
  17  -1  -1  235.97    5.55
  -1  17  -1  242.51    5.98
  -1  17   1  242.41    5.88
  17   1   1  242.00    5.65
  17  -1   1  242.97    6.00
  -1  -1 -17  245.29    5.43
   1  -1 -17  234.06    5.13
  -1   1 -17  228.49    4.93
 -17  -1  -1  240.08    6.85
  -1 -17   1  234.76    7.58
  17  -1  -1  248.66    8.05
   1 -17   1  242.92    7.87
   1 -17   3    1.00    1.51
  -1 -17   3   -1.20    1.61
  -3 -17   1    0.84    1.57
   3 -17   1   -1.71    1.43
  -3 -17  -1   -0.45    1.41
   3 -17  -1    3.17    1.44
   1 -17  -3    1.83    1.42
  -1  17  -3    1.96    1.38
  -3  17  -1    1.56    1.29
  17   3   1    0.47    1.25
  -1  17   3    1.56    1.32
  -1  -3 -17    4.43    1.44
  -3  -1 -17    2.26    1.42
   1  -3 -17    3.84    1.43
  -3   1 -17    0.38    1.42
   3  -1 -17   -0.85    1.43
 -17  -3  -1   -3.05    3.33
  -1 -17   3    8.88    3.87
   1 -17   3    0.48    3.55
  17   1  -3    2.28    3.13
  -3 -17   1    3.30    3.76
   3 -17   3  210.66    5.02
  -3 -17   3  203.85    4.88
 -17  -3  -3  208.55    4.94
  17  -3  -3  205.33    5.08
  17   3  -3  216.19    5.22
  -3 -17  -3  201.66    4.76
   3 -17  -3  199.68    4.66
  -3  17  -3  205.42    5.39
  -3  17   3  199.66    5.32
  17   3   3  218.08    5.19
  -3  -3 -17  200.03    4.55
   3  -3 -17  212.77    4.77
 -17   3  -3  205.26    5.89
  17  -3  -3  215.59    7.97
 -17  -3  -3  214.72    7.60
  -3 -17   3  203.69    7.42
   3 -17   3  210.82    7.54
  17   3  -3  205.41    7.22
   1 -17   5  220.30    5.22
 -17  -5   1  230.11    5.46
  -1 -17   5  216.49    5.10
 -17  -5  -1  214.08    4.99
  17   1  -5  221.53    5.68
   5 -17   1  216.37    5.11
  -5 -17   1  213.96    4.94
  -5 -17  -1  206.90    4.89
   5 -17  -1  220.34    5.04
  -1  17  -5  205.55    5.41
 -17   1  -5  225.52    5.26
 -17  -1  -5  216.09    5.12
  -1 -17  -5  212.91    4.82
   1 -17  -5  214.32    4.92
  17   5  -1  217.23    5.18
  -5  17  -1  224.52    5.64
  17   5   1  224.99    5.36
  -5  17   1  222.32    5.66
  -1  -5 -17  216.36    4.73
  17  -1   5  197.65    4.89
   1  -5 -17  221.16    4.92
  -5  -1 -17  212.53    4.75
  -5   1 -17  212.46    4.81
 -17  -5   1  216.00    6.81
   1 -17   5  213.10    6.88
  -1 -17   5  215.46    7.17
  17  -1  -5  217.32    7.44
 -17  -5  -1  228.03    7.92
  17   1  -5  208.60    7.37
 -17   1  -5  218.48    7.73
 -17  -1  -5  220.88    7.54
  17  -5  -1  220.00    7.44
  -5 -17   1  211.23    7.33
   5 -17   1  222.93    7.27
   3 -17   5  696.33   13.13
  -3 -17   5  667.69   12.35
  17  -3  -5  682.00   13.24
   5 -17   3  698.83   13.03
  -5 -17   3  672.59   12.37
  17  -5  -3  702.83   13.34
  17   3  -5  709.35   13.29
 -17  -5  -3  709.24   13.06
 -17   3  -5  698.38   13.10
  -5 -17  -3  692.86   12.59
  -3  17  -5  658.42   13.10
  17   5  -3  708.05   13.39
 -17  -3  -5  724.56   13.24
   5 -17  -3  689.55   12.69
  -3 -17  -5  699.10   12.64
  -5  17  -3  658.15   12.67
   3 -17  -5  689.93   12.75
  17   5   3  698.32   13.14
  -5  17   3  670.91   12.84
  -3  17   5  669.43   12.71
  17   3   5  679.45   12.73
  -3  -5 -17  674.31   12.20
  -5  -3 -17  676.19   12.34
   3  -5 -17  684.09   12.30
  17  -5  -3  643.18   12.31
   5  -3 -17  672.28   12.01
  -5   3 -17  695.67   12.63
  17  -3  -5  684.62   15.47
   3 -17   5  700.88   15.15
  17  -5  -3  702.01   16.19
  -3 -17   5  675.78   15.22
 -17   3  -5  677.15   15.81
  -5 -17   3  680.52   15.46
  17   3  -5  683.39   16.13
 -17  -5  -3  694.78   15.66
 -17  -3  -5  683.97   15.61
  17   5  -3  645.28   15.00
  -5 -17   5 1396.90   24.12
  17   5  -5 1375.12   24.01
 -17  -5  -5 1359.55   23.38
  -5  17  -5 1326.80   23.73
  -5 -17  -5 1390.75   23.79
   5 -17  -5 1388.43   23.77
  17   5   5 1325.33   23.11
  -5  17   5 1332.52   23.34
  -5  -5 -17 1370.68   23.22
   5  -5 -17 1409.38   23.86
  17  -5  -5 1350.28   23.53
  17  -5  -5 1411.59   26.89
 -17   5  -5 1389.89   26.05
   5 -17   5 1419.19   26.64
  -5 -17   5 1387.77   26.95
 -17  -5  -5 1354.41   26.60
  17  -1  -7  173.51    4.80
  17   1  -7  170.47    4.53
 -17  -7   1  173.22    4.49
 -17  -7  -1  165.93    4.25
   7 -17   1  174.16    4.34
  -7 -17   1  157.92    4.12
   7 -17  -1  178.36    4.52
  17   7  -1  166.22    4.43
 -17  -1  -7  170.14    4.21
  -1 -17  -7  167.95    4.08
 -17   1  -7  154.08    4.02
   1 -17  -7  171.34    4.09
  17   7   1  178.67    4.69
  -7  17  -1  162.97    4.48
  -7  17   1  155.42    4.24
   1  -7 -17  167.57    4.07
  17   1   7  167.43    4.22
  -7  -1 -17  165.18    3.92
  -7   1 -17  171.77    4.16
  17  -1   7  173.35    4.54
   1 -17   7  169.05    4.80
  -1 -17   7  166.21    5.26
  17  -1  -7  174.42    5.88
 -17  -7   1  171.64    6.64
 -17  -7  -1  161.17    6.74
  17  -7  -1  164.47    6.82
  -7 -17   1  192.22    7.24
   7 -17   1  173.30    6.28
  -7 -17  -1  156.79    6.34
   7 -17   3  597.38   11.44
  17   3  -7  579.61   11.28
  -7 -17   3  595.74   11.23
 -17  -7  -3  575.93   10.99
  -3  17  -7  560.20   11.89
  -7 -17  -3  569.35   10.88
   7 -17  -3  597.90   11.23
  17   7  -3  607.99   11.70
 -17  -3  -7  610.65   11.35
  -7  17  -3  575.51   11.47
  -3 -17  -7  595.82   11.05
   3 -17  -7  566.10   10.54
 -17   3  -7  573.27   11.01
  17   7   3  595.46   11.58
  -7  17   3  594.09   11.52
  17   3   7  588.39   11.27
  -3  -7 -17  597.04   10.94
  -7  -3 -17  594.51   11.04
   3  -7 -17  598.37   11.22
  -7   3 -17  582.11   10.73
   7  -3 -17  594.33   10.84
 -17  -7   3  571.03   12.10
  -3 -17   7  594.56   13.01
  17  -7  -3  579.13   13.51
   7 -17   3  578.14   13.75
  -7 -17   3  584.68   13.95
 -17  -7  -3  597.51   14.23
 -17   3  -7  585.73   14.37
  -7 -17   5 1269.83   24.15
  17   5  -7 1250.87   24.09
  17   7  -5 1243.86   23.80
  -5  17  -7 1200.75   23.73
 -17  -7  -5 1247.14   23.43
  -7 -17  -5 1219.40   22.94
  -7  17  -5 1191.45   23.25
 -17  -5  -7 1238.16   23.24
   7 -17  -5 1220.84   22.87
  -5 -17  -7 1238.64   23.22
   5 -17  -7 1217.51   22.81
 -17   5  -7 1217.42   23.13
  17   7   5 1243.80   23.79
  -7  17   5 1225.24   23.80
  -5  17   7 1159.11   22.08
  17   5   7 1210.84   23.08
  -5  -7 -17 1238.69   22.94
  -7  -5 -17 1201.01   22.47
  17  -7  -5 1194.20   22.83
   5  -7 -17 1209.58   22.53
   7  -5 -17 1202.90   22.36
  17  -5  -7 1227.41   22.95
   7 -17   5 1253.23   25.32
  -5 -17   7 1216.91   24.65
  -7 -17   5 1182.89   24.96
 -17   5  -7 1256.30   27.92
 -17  -7  -5 1250.10   26.48
  17   7  -7 1165.95   22.79
  -7  17  -7 1209.88   23.57
 -17  -7  -7 1295.91   24.22
  -7 -17  -7 1186.65   22.13
   7 -17  -7 1264.73   23.68
 -17   7  -7 1286.55   24.34
  17   7   7 1187.21   22.76
  -7  -7 -17 1251.56   23.43
  -7  17   7 1156.07   22.24
  17  -7  -7 1289.08   24.48
   7  -7 -17 1253.98   23.34
  -7 -17   7 1229.87   25.24
 -17  -9   1    0.86    1.52
   9 -17   1    1.87    1.51
  -9 -17   1    0.28    1.55
  -9 -17  -1   -2.14    1.48
  17   9  -1    1.16    1.40
  -1 -17  -9    2.23    1.50
   1 -17  -9    4.92    1.55
  -9  17  -1    1.32    1.11
  -9  17   1    3.22    1.15
  -1  -9 -17    1.94    1.47
   1  -9 -17    0.16    1.47
  -9  -1 -17    2.87    1.41
  -9   1 -17    4.46    1.38
  17   1   9    1.92    1.16
 -17  -9   1    4.24    4.24
 -17  -9  -1    5.92    4.11
  -9 -17   1   -8.16    3.95
   1  17  -9   -1.76    3.74
  -9 -17  -1    6.45    3.91
  -1  17  -9    7.53    3.53
 -17  -9   3  144.34    4.18
   9 -17   3  145.43    4.17
  17   3  -9  140.78    4.31
  -9 -17   3  134.69    3.80
 -17  -9  -3  138.44    3.82
  -9 -17  -3  131.80    3.72
   9 -17  -3  140.04    3.90
  -9  17  -3  132.03    4.01
  -3 -17  -9  133.43    3.67
 -17  -3  -9  143.79    3.92
   3 -17  -9  145.20    3.89
  17   9   3  133.53    3.93
 -17   3  -9  142.82    3.83
  -9  17   3  137.24    4.05
  -3  -9 -17  146.38    4.03
  -9  -3 -17  136.59    3.65
   3  -9 -17  140.80    3.78
  17   3   9  136.11    3.96
  -9   3 -17  144.62    3.79
   9  -3 -17  142.58    3.70
 -17  -9   3  140.43    5.59
   9 -17   3  150.04    6.65
  -9 -17   3  137.80    6.39
 -17  -9  -3  131.79    6.36
  -9 -17   5  527.07   10.91
  17   5  -9  534.13   11.64
 -17  -9  -5  569.13   11.58
  -9 -17  -5  544.74   11.02
  -9  17  -5  530.56   11.51
   9 -17  -5  529.73   10.91
  -5 -17  -9  519.81   10.48
 -17  -5  -9  576.49   11.64
   5 -17  -9  537.90   10.94
 -17   5  -9  558.15   11.64
  17  -9  -5  553.65   11.38
  -5  -9 -17  542.62   10.98
  -9  -5 -17  536.58   10.75
  -9  17   5  516.09   10.93
  17   5   9  523.43   11.07
   5  -9 -17  550.25   11.07
   9  -5 -17  536.23   10.78
  -9   5 -17  551.68   11.22
  17  -5  -9  570.80   11.59
  -9 -17   5  557.64   13.53
 -17  -9  -5  549.62   13.61
  -9  17  -7  564.30   12.16
 -17  -9  -7  602.41   12.16
  -9 -17  -7  600.46   12.06
 -17  -7  -9  602.10   12.07
  -7 -17  -9  605.97   12.23
   9 -17  -7  591.21   11.92
   7 -17  -9  581.04   11.71
  -7  -9 -17  619.75   12.53
  -9  -7 -17  597.98   11.94
 -17   7  -9  606.90   12.62
  17  -9  -7  611.68   12.32
  -9  17   7  581.27   12.12
   7  -9 -17  598.18   11.89
   9  -7 -17  610.14   12.05
  17  -7  -9  616.04   12.43
  -9 -17   7  606.45   13.90
 -17   7  -9  610.19   16.44
  -9  17  -9  200.10    6.41
 -17  -9  -9  199.97    5.80
  -9 -17  -9  202.37    5.92
   9 -17  -9  201.01    5.83
  -9  -9 -17  200.45    5.85
  17  -9  -9  204.06    6.14
 -17   9  -9  194.81    5.95
   9  -9 -17  205.31    5.82
 -17 -11   1   93.72    3.14
  11 -17   1   94.14    3.21
 -11 -17   1   88.74    3.06
 -17 -11  -1   91.60    3.12
  11 -17  -1   77.32    2.64
 -11 -17  -1   89.72    2.95
  -1 -17 -11   85.41    2.78
   1 -17 -11   86.74    2.84
 -11  17  -1   84.61    3.04
 -17  -1 -11   89.29    3.00
 -17   1 -11   92.56    3.06
 -11  17   1   84.27    2.96
  -1 -11 -17   89.43    2.87
   1 -11 -17   83.46    2.77
 -11  -1 -17   83.82    2.73
 -11   1 -17   86.16    2.88
  17   1  11   80.32    2.97
  17 -11  -1   74.27    4.54
 -17 -11   1   82.53    5.43
 -17 -11  -1   72.18    5.38
 -11 -17   1   80.01    5.57
  -1  17 -11   77.26    5.56
 -11 -17  -1   90.71    5.51
  11 -17   1   84.72    4.75
 -17 -11   3    5.85    1.69
 -11 -17   3   -0.65    1.64
 -17 -11  -3   -1.92    1.45
 -11 -17  -3   -1.02    1.42
 -11  17  -3    3.33    1.19
  -3 -17 -11    2.88    1.54
 -17  -3 -11    0.69    1.47
   3 -17 -11   -3.03    1.61
  -3 -11 -17   -0.14    1.54
 -11  17   3    2.35    1.18
   3 -11 -17   -0.60    1.45
 -11  -3 -17    0.57    1.36
 -11   3 -17    3.68    1.33
  17   3  11    2.47    1.11
  11  -3 -17    1.26    1.51
 -17 -11   3   -3.25    3.28
 -11 -17   3    7.54    3.76
 -17 -11  -3    2.04    4.13
 -11 -17   5  121.02    3.77
 -17 -11  -5  125.50    3.55
 -11 -17  -5  124.27    3.58
  11 -17  -5  126.11    3.61
 -11  17  -5  117.62    3.68
  -5 -17 -11  138.09    3.76
 -17  -5 -11  126.76    3.58
  17 -11  -5  120.65    3.70
   5 -17 -11  126.72    3.65
  -5 -11 -17  116.96    3.35
 -17   5 -11  123.21    3.54
 -11  -5 -17  126.61    3.52
   5 -11 -17  117.78    3.32
 -11  17   5  117.78    3.67
  17   5  11  109.27    3.52
 -11   5 -17  130.93    3.70
  11  -5 -17  129.10    3.50
  17  -5 -11  125.70    3.49
 -17 -11   5  122.97    4.64
 -11 -17   5  136.90    5.99
  -5  17 -11  125.06    6.55
 -17 -11  -5  117.30    5.71
 -11  17  -7  134.28    4.63
 -17 -11  -7  139.46    4.42
 -11 -17  -7  135.62    4.30
  11 -17  -7  134.01    4.36
  -7 -17 -11  150.40    4.70
 -17  -7 -11  134.31    4.25
   7 -17 -11  141.23    4.44
  17 -11  -7  131.00    4.42
  -7 -11 -17  143.59    4.42
 -11  -7 -17  145.66    4.59
   7 -11 -17  142.33    4.45
 -17   7 -11  150.11    4.89
 -17  11  -7  153.90    4.96
 -11  17   7  131.38    4.36
  11  -7 -17  149.93    4.54
  17  -7 -11  127.37    4.06
 -11   7 -17  152.91    4.63
 -11 -17   7  141.95    5.65
  -7  17 -11  143.20    7.30
  -9  17 -11   13.03    1.58
 -11  17  -9    7.82    1.34
 -17 -11  -9    9.36    1.58
 -11 -17  -9   11.05    1.63
  -9 -17 -11    9.68    1.70
 -17  -9 -11    7.64    1.70
  11 -17  -9    8.31    1.52
   9 -17 -11    7.57    1.49
  -9 -11 -17    9.33    1.64
 -11  -9 -17    3.63    1.47
  17 -11  -9   10.99    1.44
   9 -11 -17   10.39    1.57
  17  -9 -11    9.10    1.42
 -17   9 -11    8.92    1.42
  11  -9 -17   10.23    1.61
 -11  17   9    7.89    1.32
 -17  11  -9   12.06    1.43
 -17  11 -11   40.67    2.58
 -11  17 -11   35.10    2.28
 -17 -11 -11   36.92    2.16
 -11 -17 -11   38.83    2.21
  11 -17 -11   39.44    2.11
 -11 -11 -17   38.46    2.13
  17 -11 -11   38.04    2.22
  11 -11 -17   42.68    2.17
 -17  11 -11   40.14    2.24
  13 -17   1  138.19    4.78
 -17 -13   1  141.29    4.51
 -13 -17   1  135.60    4.46
 -17 -13  -1  140.88    4.53
  13 -17  -1  135.60    4.43
 -13 -17  -1  129.55    4.19
  -1 -17 -13  141.70    4.39
   1 -17 -13  135.20    4.33
 -17  -1 -13  135.11    4.45
 -13  17  -1  139.28    4.76
 -17   1 -13  142.10    4.59
  -1 -13 -17  136.21    4.37
   1 -13 -17  136.26    4.29
 -13  17   1  135.05    4.91
 -13  -1 -17  134.78    4.36
 -13   1 -17  135.94    4.45
  17   1  13  121.74    4.25
 -17 -13   1  132.61    6.58
 -13 -17   1  140.63    6.98
 -17 -13  -1  146.93    7.21
  13 -17   1  135.45    7.07
 -17 -13   3    3.90    1.73
 -13 -17   3    2.74    1.92
 -17 -13  -3    3.69    1.55
 -13 -17  -3    2.86    1.62
  13 -17  -3    6.22    1.48
  -3 -17 -13    4.64    1.45
 -13  17  -3    4.76    1.24
   3 -17 -13    5.00    1.50
 -17  -3 -13    4.13    1.35
  -3 -13 -17    5.29    1.56
   3 -13 -17    2.97    1.54
 -17   3 -13    3.29    1.21
 -13  -3 -17    0.50    1.40
 -13   3 -17    5.14    1.35
  17   3  13    4.34    1.20
 -17 -13   3    1.07    3.69
 -13 -17   3    1.63    3.71
 -17 -13  -3   10.39    4.14
 -13 -17  -3   -4.62    3.59
 -13 -17   5   56.26    2.71
 -17 -13  -5   49.80    2.52
 -13 -17  -5   51.83    2.49
  13 -17  -5   50.52    2.39
  17 -13  -5   49.91    2.28
 -13  17  -5   46.43    2.31
  -5 -17 -13   54.84    2.54
 -17  -5 -13   49.43    2.28
   5 -17 -13   49.12    2.35
  -5 -13 -17   50.21    2.41
 -13  -5 -17   50.92    2.36
   5 -13 -17   51.17    2.37
 -17   5 -13   49.89    2.29
 -13  17   5   44.56    2.18
 -13   5 -17   45.56    2.14
  13  -5 -17   51.67    2.29
  17  -5 -13   44.78    2.08
 -17 -13   5   55.24    3.57
 -13 -17   5   50.86    4.41
  -5  17 -13   53.41    5.06
 -17 -13  -5   44.17    4.67
 -17 -13  -7   57.74    2.59
 -13 -17  -7   56.61    2.74
 -13  17  -7   52.73    2.71
 -17  13  -7   57.28    2.74
  13 -17  -7   62.69    2.59
  -7 -17 -13   57.52    2.59
 -17  -7 -13   63.76    2.70
  17 -13  -7   56.02    2.40
   7 -17 -13   61.81    2.58
  -7 -13 -17   61.19    2.66
 -13  -7 -17   62.52    2.64
   7 -13 -17   58.64    2.45
 -17   7 -13   61.64    2.65
 -13  17   7   56.45    2.60
  17  -7 -13   57.10    2.36
  13  -7 -17   59.27    2.45
 -13   7 -17   61.06    2.61
 -17  13  -7   59.55    2.63
 -13 -17   7   64.02    4.00
  -7  17 -13   59.68    5.19
 -13  17  -9    1.20    1.21
 -17 -13  -9    2.86    1.56
 -13 -17  -9   -0.51    1.60
  -9 -17 -13   -0.17    1.62
 -17  -9 -13   -1.60    1.51
  13 -17  -9   -1.29    1.47
  -9 -13 -17    2.05    1.60
   9 -17 -13    1.61    1.44
 -13  -9 -17   -1.67    1.50
   9 -13 -17    0.79    1.46
  17  -9 -13    0.51    1.19
  13  -9 -17    0.25    1.37
 -17   9 -13    0.37    1.27
 -13  17   9   -1.06    1.28
 -13   9 -17    1.36    1.43
 -17  13 -11   55.59    3.08
 -13  17 -11   56.26    3.00
 -13 -17 -11   57.99    2.70
 -17 -13 -11   51.92    2.45
 -11 -17 -13   53.51    2.49
 -17 -11 -13   50.70    2.60
  13 -17 -11   57.21    2.58
 -11 -13 -17   54.55    2.59
 -13 -11 -17   53.59    2.58
  11 -17 -13   64.20    2.77
  17 -13 -11   62.11    2.65
  11 -13 -17   50.83    2.42
  17 -11 -13   52.18    2.33
  13 -11 -17   56.01    2.47
 -17  11 -13   55.43    2.55
 -17  13 -11   61.25    2.67
 -11  17 -13   62.29    5.18
 -17  13 -13   62.50    3.40
 -13  17 -13   54.64    3.05
 -17 -13 -13   71.55    3.02
 -13 -17 -13   67.35    2.97
 -13 -13 -17   57.15    2.60
  13 -17 -13   65.87    2.80
  17 -13 -13   70.17    3.07
  13 -13 -17   68.75    2.81
 -17  13 -13   67.11    3.09
 -17 -15   1   18.77    1.93
 -15 -17   1   17.80    2.08
 -17 -15  -1   19.19    1.92
 -15 -17  -1   16.29    1.88
  -1 -17 -15   24.03    1.93
   1 -17 -15   15.26    1.77
  -1 -15 -17   20.80    1.86
   1 -15 -17   21.27    1.90
 -17  -1 -15   18.73    1.67
 -17   1 -15   16.96    1.60
 -15  17  -1   16.00    1.43
 -15  -1 -17   19.18    1.70
 -15   1 -17   20.23    1.65
 -15  17   1   15.60    1.48
 -17 -15   1   16.74    4.09
 -15 -17   1   12.08    4.16
 -17 -15  -1   19.75    4.74
 -15 -17  -1   11.20    4.24
 -17 -15   3   19.10    2.00
 -15 -17   3   17.19    1.97
 -17 -15  -3   15.99    1.86
  17 -15  -3   19.45    1.66
 -15 -17  -3   19.23    1.92
  15 -17  -3   20.85    1.78
  -3 -17 -15   21.98    1.90
   3 -17 -15   24.75    1.80
 -15  17  -3   20.98    1.54
 -17  -3 -15   25.00    1.83
  -3 -15 -17   22.62    1.89
   3 -15 -17   21.84    1.82
 -15  -3 -17   23.10    1.80
 -17   3 -15   25.37    1.76
 -15   3 -17   18.55    1.65
 -15  17   3   18.74    1.50
 -17 -15   3   15.93    4.53
 -15 -17   3   33.04    4.61
 -17 -15  -3   19.87    4.44
 -15 -17  -3   27.75    4.57
 -15 -17   5  168.14    5.61
 -17 -15  -5  161.04    5.20
 -15 -17  -5  173.56    5.60
  15 -17  -5  181.93    5.89
  17 -15  -5  170.58    5.72
 -15  17  -5  155.83    5.39
  -5 -17 -15  175.55    5.50
 -17  -5 -15  170.23    5.45
  -5 -15 -17  169.65    5.41
   5 -17 -15  178.43    5.59
 -17  15  -5  158.62    5.57
 -15  -5 -17  165.66    5.25
   5 -15 -17  172.04    5.36
 -17   5 -15  165.16    5.59
 -15   5 -17  172.10    5.58
 -15  17   5  158.95    5.50
  15  -5 -17  185.95    5.75
  17  -5 -15  169.02    5.37
 -17 -15   5  177.85    7.01
 -15 -17   5  174.59    7.17
  -5  17 -15  154.98    8.45
 -17 -15  -5  162.91    7.39
 -17 -15  -7  185.36    5.80
 -15 -17  -7  192.18    5.95
 -15  17  -7  162.77    5.77
  15 -17  -7  172.10    5.82
 -17  15  -7  160.02    5.53
  17 -15  -7  190.86    6.26
  -7 -17 -15  185.93    5.83
 -17  -7 -15  181.67    5.77
  -7 -15 -17  186.11    5.84
   7 -17 -15  181.45    5.64
 -15  -7 -17  177.28    5.67
   7 -15 -17  183.48    5.75
 -17   7 -15  174.94    5.81
 -15   7 -17  172.22    5.57
  15  -7 -17  177.58    5.52
  17  -7 -15  178.31    5.62
 -15  17   7  166.04    5.55
 -15 -17   7  188.12    6.75
  -7  15 -17  148.16    7.57
  -7  17 -15  158.63    8.39
 -17  15  -9   39.94    2.21
 -15  17  -9   36.44    2.20
 -17 -15  -9   39.81    2.22
 -15 -17  -9   44.18    2.53
  15 -17  -9   43.13    2.33
  -9 -17 -15   38.02    2.32
 -17  -9 -15   40.36    2.21
  17 -15  -9   42.26    2.40
  -9 -15 -17   37.63    2.36
 -15  -9 -17   42.42    2.34
   9 -17 -15   38.25    2.11
   9 -15 -17   41.10    2.25
  17  -9 -15   41.61    2.21
  15  -9 -17   40.57    2.13
 -17   9 -15   45.04    2.31
 -15   9 -17   45.02    2.29
 -15  17   9   36.35    2.00
  -9  15 -17   36.18    3.63
  -9  17 -15   44.79    4.95
 -15  17 -11    0.82    1.30
 -15 -17 -11   -3.72    1.64
 -17 -15 -11    2.11    1.66
 -11 -17 -15    0.05    1.69
 -17 -11 -15   -1.28    1.70
 -15 -11 -17    1.68    1.57
  15 -17 -11    1.87    1.35
  17 -15 -11   -0.09    1.46
  11 -17 -15   -2.01    1.45
  11 -15 -17    3.85    1.51
  17 -11 -15    1.94    1.34
  15 -11 -17    0.71    1.37
 -17  11 -15   -0.50    1.23
 -15  11 -17   -0.65    1.36
 -15 -17 -13    2.51    1.72
 -17 -15 -13    7.41    1.71
 -13 -17 -15    3.17    1.79
 -17 -13 -15    4.96    1.69
 -15 -13 -17    5.44    1.52
 -13 -15 -17    2.37    1.73
  15 -17 -13    3.45    1.50
  13 -17 -15    2.70    1.51
  17 -15 -13    3.69    1.39
  13 -15 -17    7.66    1.56
  17 -13 -15    6.96    1.56
  15 -13 -17    4.44    1.48
 -17  13 -15    3.37    1.46
 -15 -17 -15    9.27    1.81
 -17 -15 -15    6.75    1.61
 -15 -15 -17    9.92    1.92
  15 -17 -15   12.29    1.74
  17 -15 -15   10.28    1.53
  15 -15 -17   12.85    1.65
  17 -17  -1   38.98    2.55
 -17 -17   1   37.50    2.35
 -17 -17  -1   42.17    2.46
  -1 -17 -17   39.44    2.27
   1 -17 -17   39.19    2.28
 -17  -1 -17   37.34    2.14
 -17   1 -17   34.52    2.01
 -17  17  -1   35.59    2.00
 -17  17   1   36.70    2.12
 -17 -17  -1   51.80    5.45
 -17 -17   3  178.79    5.76
  17 -17  -3  187.40    6.17
 -17 -17  -3  178.55    5.64
  -3 -17 -17  177.34    5.54
   3 -17 -17  192.34    5.93
 -17  -3 -17  181.42    5.76
 -17  17  -3  171.27    5.94
 -17   3 -17  191.19    6.06
 -17  17   3  171.57    5.72
 -17 -17   3  199.89    7.97
 -17 -17  -3  166.82    7.80
 -17 -17  -5  449.49   12.90
  17 -17  -5  441.53   13.16
  -5 -17 -17  428.30   12.36
 -17  17  -5  402.08   12.23
 -17  -5 -17  451.22   13.07
   5 -17 -17  412.47   11.86
 -17   5 -17  428.75   12.71
  17  -5 -17  433.27   12.51
 -17 -17   5  408.78   13.30
 -17 -17  -5  417.99   13.89
 -17 -17  -7  427.71   12.28
  17 -17  -7  459.36   13.37
 -17  17  -7  379.85   11.63
  -7 -17 -17  450.66   12.95
 -17  -7 -17  411.01   11.89
   7 -17 -17  438.69   12.65
 -17   7 -17  419.36   12.34
  17  -7 -17  444.40   12.83
 -17 -17   7  461.80   14.12
  -7  17 -17  391.93   15.30
 -17 -17  -9  205.71    6.49
 -17  17  -9  180.23    6.58
  17 -17  -9  201.13    6.61
  -9 -17 -17  196.25    6.12
 -17  -9 -17  188.52    6.13
   9 -17 -17  216.34    6.74
  17  -9 -17  204.70    6.47
 -17   9 -17  209.34    6.86
  -9  17 -17  192.44   10.29
 -17  17 -11   46.93    2.95
 -17 -17 -11   63.74    3.13
 -11 -17 -17   59.53    2.97
 -17 -11 -17   57.36    2.98
  17 -17 -11   56.69    2.87
  11 -17 -17   54.09    2.75
  17 -11 -17   56.42    2.73
 -17  11 -17   59.69    2.95
 -11  17 -17   48.51    5.04
 -17 -17 -13   39.01    2.38
 -13 -17 -17   29.64    2.29
 -17 -13 -17   34.13    2.12
  17 -17 -13   32.44    2.06
  13 -17 -17   35.84    2.30
  17 -13 -17   32.72    2.20
 -17  13 -17   36.10    2.16
 -17 -17 -15   86.81    3.55
 -15 -17 -17   88.23    3.53
 -17 -15 -17   87.91    3.60
  17 -17 -15   94.78    3.80
  15 -17 -17   86.20    3.46
  17 -15 -17   89.61    3.51
 -17  15 -17   92.21    4.01
 -17 -17 -17  188.68    8.82
  17 -17 -17  205.04    9.74
   0 -18   0  200.24    4.90
  18   0   0  178.16    4.89
   0   0 -18  174.24    4.17
 -18   0  -2   31.70    1.97
   0 -18   2   36.60    2.07
  -2 -18   0   31.70    2.01
   2 -18   0   32.80    1.98
   0 -18  -2   30.73    1.98
  18   0  -2   30.77    1.76
  18   2   0   31.28    1.71
  -2  18   0   34.99    1.95
  18  -2   0   29.48    1.84
  18   0   2   29.72    1.77
   0  -2 -18   26.49    1.81
  -2   0 -18   30.26    1.87
 -18  -2   0   29.99    2.88
 -18   0  -2   32.47    3.16
   0 -18   2   33.79    4.11
  18   0  -2   23.99    3.63
  -2 -18   0   29.45    4.28
 -18  -2  -2    9.76    1.56
  -2 -18   2    7.78    1.68
   2 -18   2    9.78    1.59
  -2 -18  -2   10.37    1.65
   2 -18  -2   13.18    1.61
  18   2  -2    9.98    1.37
  18  -2  -2   10.64    1.35
  -2  18  -2   10.78    1.48
  18   2   2   10.64    1.18
  18  -2   2   11.89    1.27
  -2  -2 -18   11.38    1.75
   2  -2 -18    9.59    1.58
 -18  -2  -2    9.79    3.42
  -2 -18   2   -2.55    4.18
   2 -18   2    4.70    3.49
  18   2  -2   16.60    3.31
 -18  -4   0  128.64    3.72
   0 -18   4  122.26    3.55
  -4 -18   0  126.92    3.53
   4 -18   0  126.69    3.56
 -18   0  -4  122.59    3.52
  18   0  -4  135.66    4.01
   0 -18  -4  123.44    3.37
  18   4   0  132.99    3.78
  -4  18   0  121.96    3.59
  18   0   4  121.20    3.60
   0  -4 -18  122.45    3.22
  -4   0 -18  135.18    3.46
 -18  -4   0  121.93    5.16
   0 -18   4  123.48    5.81
 -18   0  -4  135.75    6.22
  18   0  -4  116.07    5.73
  -4 -18   0  134.49    6.15
   2 -18   4  324.55    7.02
  -2 -18   4  319.92    7.05
   4 -18   2  320.63    6.79
 -18   2  -4  311.98    6.91
  -4 -18   2  314.71    6.59
 -18  -4  -2  318.36    6.86
  18  -2  -4  322.38    7.09
 -18  -2  -4  309.88    6.63
  18   2  -4  308.68    6.91
  -4 -18  -2  307.61    6.37
   4 -18  -2  308.92    6.48
  -2 -18  -4  309.36    6.65
   2 -18  -4  308.90    6.53
  18   4  -2  330.04    7.09
  18  -4  -2  328.91    7.39
  -4  18  -2  299.39    6.89
  18   4   2  326.17    7.12
  -4  18   2  297.69    6.81
  18   2   4  293.81    6.47
  -2  -4 -18  317.81    6.60
  -4  -2 -18  313.72    6.70
  18  -2   4  307.26    6.88
   2  -4 -18  314.55    6.45
   4  -2 -18  308.44    6.25
  -4   2 -18  322.28    6.76
 -18   2  -4  321.44    8.97
 -18  -4  -2  310.02    9.19
  -2 -18   4  321.57    9.24
   2 -18   4  316.18    9.25
  18  -2  -4  308.85    9.12
 -18  -2  -4  315.01    9.43
  -4 -18   2  312.12    9.15
  18   2  -4  320.25    9.81
  18  -4  -2  304.71    9.99
   4 -18   2  320.57    9.20
   4 -18   4  891.26   15.97
  -4 -18   4  906.23   16.35
  18  -4  -4  957.87   17.58
 -18  -4  -4  949.70   16.89
  18   4  -4  931.18   16.83
  -4 -18  -4  951.68   16.87
   4 -18  -4  897.97   15.95
  -4  18  -4  903.11   17.19
  -4  18   4  867.28   16.50
  18   4   4  938.03   17.05
  -4  -4 -18  916.18   16.05
   4  -4 -18  925.06   16.14
  18  -4  -4  882.33   19.53
   4 -18   4  905.87   19.26
  -4 -18   4  919.15   19.29
 -18  -4  -4  907.93   19.55
  18   4  -4  847.93   19.27
 -18  -6   0  322.51    7.02
  18   0  -6  341.11    7.38
  -6 -18   0  321.78    6.82
   6 -18   0  324.88    6.83
 -18   0  -6  329.40    7.35
   0 -18  -6  310.73    6.87
  18   6   0  310.63    6.93
  -6  18   0  314.69    7.14
   0  -6 -18  327.13    6.72
  18   0   6  307.90    7.05
  -6   0 -18  307.19    6.62
   0 -18   6  345.26    8.85
 -18  -6   0  294.14    8.87
  18   0  -6  291.81    9.36
 -18   0  -6  341.11    9.92
  -6 -18   0  324.61   12.90
  -2 -18   6  561.04   11.74
  18  -2  -6  594.40   12.73
   6 -18   2  556.94   11.33
  -6 -18   2  536.80   10.98
  18   2  -6  553.89   11.77
 -18  -6  -2  564.57   11.43
  -6 -18  -2  552.42   11.14
   6 -18  -2  552.34   11.29
 -18   2  -6  553.34   11.43
 -18  -2  -6  566.38   11.53
  18   6  -2  564.37   11.76
  -2 -18  -6  563.80   11.33
   2 -18  -6  554.06   11.18
  -6  18  -2  541.06   11.77
  18   6   2  578.44   12.03
  -6  18   2  532.30   11.21
  18   2   6  553.03   11.57
  -2  -6 -18  559.52   11.23
   2  -6 -18  560.98   11.18
  -6  -2 -18  539.74   10.91
  -6   2 -18  558.29   11.33
  18  -2   6  541.35   11.32
   6  -2 -18  549.82   11.12
 -18  -6   2  557.25   12.89
   2 -18   6  546.32   12.91
  -2 -18   6  533.82   12.74
  18  -2  -6  569.14   14.55
  18   2  -6  533.61   14.53
 -18  -6  -2  566.84   14.60
  18  -6  -2  536.90   14.21
 -18   2  -6  567.40   15.01
  -6 -18   2  543.83   13.50
   6 -18   2  558.12   14.05
 -18  -2  -6  548.42   13.84
  -4 -18   6 1241.83   23.70
   6 -18   4 1306.59   24.78
  -6 -18   4 1236.92   23.63
  18  -6  -4 1338.36   25.56
  18   4  -6 1214.70   23.39
 -18  -6  -4 1216.64   22.95
  18   6  -4 1230.00   23.54
  -4  18  -6 1162.30   22.77
  -6 -18  -4 1269.64   23.92
 -18   4  -6 1283.46   24.61
 -18  -4  -6 1261.39   23.72
   6 -18  -4 1222.11   22.98
  -4 -18  -6 1231.15   23.19
  -6  18  -4 1211.78   23.50
   4 -18  -6 1223.38   22.97
  18   6   4 1260.57   23.99
  -6  18   4 1176.21   22.63
  18   4   6 1193.02   22.89
  -4  -6 -18 1263.28   23.68
  -6  -4 -18 1214.53   22.54
  18  -6  -4 1201.76   23.23
   4  -6 -18 1231.65   23.05
   6  -4 -18 1279.25   23.91
  -6   4 -18 1252.98   23.41
  18  -4  -6 1181.77   24.70
   4 -18   6 1286.51   25.74
  18  -6  -4 1242.96   26.51
  -4 -18   6 1211.22   24.89
   6 -18   4 1267.57   26.63
 -18   4  -6 1249.78   27.43
  -6 -18   4 1178.65   24.75
 -18  -6  -4 1241.42   26.79
 -18  -4  -6 1225.29   25.92
  -6 -18   6 1682.11   41.10
  18   6  -6 1639.38   40.30
  -6  18  -6 1529.41   29.23
 -18  -6  -6 1616.07   29.92
  -6 -18  -6 1596.41   29.43
   6 -18  -6 1622.83   39.41
  18   6   6 1558.86   29.10
  -6  -6 -18 1624.89   39.39
   6  -6 -18 1651.21   39.98
  18  -6  -6 1594.47   29.80
  -6 -18   6 1597.34   31.79
 -18  -6  -6 1613.48   32.66
  18   0  -8  126.94    4.14
 -18  -8   0  118.78    3.52
   8 -18   0  118.17    3.47
  -8 -18   0  113.28    3.45
  18   8   0  110.56    3.55
   0 -18  -8  126.58    3.53
 -18   0  -8  118.39    3.45
  -8  18   0  112.67    3.52
   0  -8 -18  121.28    3.38
  -8   0 -18  122.40    3.38
  18   0   8  122.04    3.84
 -18  -8   0  133.73    6.45
  -8 -18   0  121.05    6.02
 -18  -8   2  265.26    6.28
  18   2  -8  267.96    6.56
   8 -18   2  286.93    6.66
  -8 -18   2  258.26    6.12
 -18  -8  -2  266.70    6.17
  -8 -18  -2  258.51    6.09
   8 -18  -2  287.27    6.76
  18   8  -2  261.79    6.37
 -18  -2  -8  280.18    6.54
  -2 -18  -8  285.24    6.47
   2 -18  -8  266.73    6.15
 -18   2  -8  273.79    6.55
  -8  18  -2  264.72    6.53
  18   8   2  276.10    6.75
  -8  18   2  263.16    6.43
  -2  -8 -18  268.68    6.13
   2  -8 -18  281.76    6.43
  -8  -2 -18  270.81    6.15
  18   2   8  272.93    6.56
  -8   2 -18  269.08    6.15
  18  -2  -8  267.36    7.58
 -18  -8   2  279.03    8.65
  18  -8  -2  262.02    8.73
 -18  -8  -2  273.40    8.95
  -8 -18   2  286.99    9.21
   8 -18   2  259.35    8.45
  18   4  -8  793.51   16.11
 -18  -8  -4  804.94   15.66
  -8 -18  -4  801.84   15.72
  18   8  -4  749.79   15.47
   8 -18  -4  778.37   15.28
  -8  18  -4  724.25   15.08
 -18  -4  -8  787.52   15.53
  -4 -18  -8  774.99   15.25
   4 -18  -8  769.63   15.02
 -18   4  -8  795.66   15.68
  18   8   4  746.38   15.06
  18  -8  -4  810.43   16.33
  -8  18   4  738.83   14.73
  -4  -8 -18  777.32   15.07
  -8  -4 -18  788.47   15.41
  18   4   8  738.83   14.68
   4  -8 -18  799.66   15.44
   8  -4 -18  811.26   15.61
  -8   4 -18  802.27   15.57
  -4 -18   8  824.77   16.86
 -18  -8   4  847.60   17.21
  18  -8  -4  737.45   16.38
   8 -18   4  803.33   17.99
  -8 -18   4  781.33   18.12
 -18  -8  -4  795.39   18.31
 -18   4  -8  777.38   18.99
  -6  18  -8 1054.81   21.45
 -18  -8  -6 1176.86   22.25
  -8  18  -6 1042.33   20.66
  -8 -18  -6 1156.78   21.92
 -18  -6  -8 1183.10   22.30
   8 -18  -6 1126.50   21.16
  -6 -18  -8 1167.20   21.91
   6 -18  -8 1182.00   22.22
 -18   6  -8 1163.68   22.26
  18   8   6 1071.93   21.03
  -6  -8 -18 1205.68   22.70
  18   6   8 1110.82   21.36
  -8  -6 -18 1137.02   21.36
  -8  18   6 1071.52   20.89
  18  -8  -6 1122.97   21.33
   6  -8 -18 1137.42   21.34
   8  -6 -18 1151.87   21.54
  18  -6  -8 1163.47   21.91
  -6 -18   8 1103.50   21.91
  -8 -18   6 1141.57   23.66
 -18   6  -8 1187.93   26.82
 -18  -8  -6 1125.50   23.98
  -8  18  -8  736.08   19.16
 -18  -8  -8  780.55   19.65
  -8 -18  -8  752.70   18.87
   8 -18  -8  809.72   20.25
 -18   8  -8  822.90   20.86
  -8  -8 -18  780.21   19.56
  18  -8  -8  786.47   19.70
   8  -8 -18  792.25   19.83
  -8 -18   8  747.30   19.44
 -18 -10   0    4.10    1.69
  10 -18   0    4.54    1.48
 -10 -18   0    3.19    1.58
   0 -18 -10    4.24    1.71
 -18   0 -10    6.05    1.37
   0 -10 -18    4.00    1.54
 -10   0 -18    2.97    1.39
 -18 -10   0   13.52    4.43
 -10 -18   0    7.40    4.64
  18   2 -10   14.04    1.73
 -18 -10   2   16.57    1.82
  10 -18   2   15.48    1.81
 -10 -18   2   18.37    1.93
 -18 -10  -2   16.29    1.69
 -10 -18  -2   19.14    1.82
  10 -18  -2   14.84    1.54
  -2 -18 -10   17.30    1.81
 -18  -2 -10   17.18    1.63
   2 -18 -10   14.68    1.63
 -10  18  -2   13.80    1.52
 -18   2 -10   17.74    1.52
 -10  18   2   13.92    1.37
  -2 -10 -18   16.33    1.71
   2 -10 -18   19.44    1.75
 -10  -2 -18   14.60    1.61
 -10   2 -18   15.20    1.54
  18   2  10   14.64    1.39
 -18 -10   2   14.64    3.57
  18 -10  -2   12.35    2.96
 -10 -18   2   12.49    4.07
  10 -18   2   18.71    3.68
 -18 -10  -2   19.00    4.36
 -10 -18  -2   11.85    4.06
  -2  18 -10   15.91    3.61
 -10 -18   4  229.06    6.77
 -18 -10  -4  228.22    6.52
 -10 -18  -4  230.77    6.71
 -10  18  -4  203.17    6.42
  18 -10  -4  229.29    7.01
  -4 -18 -10  217.79    6.27
 -18  -4 -10  240.23    6.85
   4 -18 -10  228.32    6.54
 -18   4 -10  241.88    7.05
  -4 -10 -18  228.62    6.58
 -10  18   4  224.25    6.72
 -10  -4 -18  218.33    6.19
   4 -10 -18  229.17    6.49
  18   4  10  214.66    6.41
 -10   4 -18  224.58    6.51
  10  -4 -18  223.32    6.26
 -18 -10   4  214.60    7.25
  10 -18   4  216.41    8.27
 -10 -18   4  228.18    8.65
 -18 -10  -4  225.81    8.77
 -10 -18   6  432.24   11.63
 -18 -10  -6  436.05   11.52
 -10 -18  -6  417.32   10.99
 -10  18  -6  407.63   11.47
  10 -18  -6  403.16   10.71
 -18  -6 -10  428.15   11.26
  -6 -18 -10  447.84   11.68
   6 -18 -10  422.67   11.09
  18 -10  -6  409.78   11.19
 -18   6 -10  457.35   12.23
  -6 -10 -18  443.04   11.60
 -10  -6 -18  418.55   11.03
 -10  18   6  392.15   10.76
   6 -10 -18  419.79   10.91
  10  -6 -18  452.90   11.75
  18  -6 -10  415.40   10.99
 -10   6 -18  418.25   11.03
 -10 -18   6  437.27   12.92
 -18 -10  -6  440.34   13.63
 -18  10  -8  225.80    7.06
 -10  18  -8  214.05    6.71
 -18 -10  -8  231.46    6.68
 -10 -18  -8  231.72    6.52
  -8 -18 -10  223.43    6.45
 -18  -8 -10  228.65    6.63
  10 -18  -8  244.91    6.99
   8 -18 -10  234.98    6.74
  -8 -10 -18  222.83    6.30
 -10  -8 -18  237.52    6.67
  18 -10  -8  233.71    6.99
 -18   8 -10  246.88    7.33
   8 -10 -18  245.62    6.99
 -10  18   8  208.83    6.33
  18  -8 -10  248.75    7.27
  10  -8 -18  229.43    6.44
 -10 -18   8  221.75    7.08
 -18   8 -10  234.74    9.78
 -18  10 -10   15.84    1.81
 -10  18 -10   14.27    1.56
 -10 -18 -10   15.15    1.83
 -18 -10 -10   19.19    1.91
  10 -18 -10   19.68    1.89
 -10 -10 -18   18.34    1.99
  18 -10 -10   16.78    1.52
 -18  10 -10   18.66    1.55
  10 -10 -18   18.47    1.70
 -18 -12   0   90.50    3.40
  12 -18   0   82.80    3.33
 -12 -18   0   91.77    3.40
   0 -18 -12   87.41    3.14
 -18   0 -12   83.23    3.24
 -12  18   0   84.30    3.35
   0 -12 -18   82.75    3.02
 -12   0 -18   87.54    3.21
 -18 -12   0   73.43    5.20
  12 -18   2   18.22    1.91
 -18 -12   2   15.97    1.90
 -12 -18   2   17.86    1.97
 -18 -12  -2   12.95    1.68
 -12 -18  -2   18.33    1.88
  12 -18  -2   19.71    1.73
  -2 -18 -12   17.88    1.81
   2 -18 -12   14.49    1.70
 -18  -2 -12   15.50    1.51
 -12  18  -2   14.51    1.45
 -18   2 -12   15.52    1.57
  -2 -12 -18   18.13    1.82
 -12  18   2   16.01    1.54
   2 -12 -18   11.06    1.52
 -12  -2 -18   18.12    1.62
 -12   2 -18   12.40    1.56
  18   2  12   13.71    1.36
 -18 -12   2   15.86    3.99
 -12 -18   2   26.79    4.95
 -18 -12  -2    9.71    4.29
  -2  18 -12   10.44    3.82
 -12 -18  -2   15.28    4.28
 -12 -18   4   38.92    2.43
 -18 -12  -4   40.28    2.20
 -12 -18  -4   37.29    2.14
  12 -18  -4   41.81    2.20
  18 -12  -4   39.53    2.08
 -12  18  -4   35.35    1.98
  -4 -18 -12   39.15    2.34
 -18  -4 -12   43.03    2.16
   4 -18 -12   34.75    2.06
 -18   4 -12   42.50    2.09
  -4 -12 -18   37.75    2.26
 -12  -4 -18   39.41    2.11
   4 -12 -18   40.88    2.11
 -12  18   4   36.88    1.93
  18   4  12   30.96    1.80
 -12   4 -18   36.10    2.05
  12  -4 -18   39.11    2.02
 -18 -12   4   46.01    3.92
 -12 -18   4   35.46    4.49
  -4  18 -12   35.82    4.62
 -18 -12  -4   40.93    4.84
 -12 -18   6  121.50    4.18
 -18 -12  -6  127.05    4.20
 -12 -18  -6  130.58    5.82
  12 -18  -6  122.97    4.07
 -12  18  -6  115.55    4.22
  -6 -18 -12  123.11    4.01
 -18  -6 -12  130.18    4.24
  18 -12  -6  129.68    4.42
   6 -18 -12  126.06    4.04
  -6 -12 -18  131.89    4.22
 -12  -6 -18  127.17    4.11
 -18   6 -12  134.54    4.61
   6 -12 -18  122.18    3.90
 -12  18   6  112.38    4.02
  12  -6 -18  135.89    4.21
 -12   6 -18  130.10    4.28
  18  -6 -12  131.31    4.29
 -12 -18   6  105.52    5.18
  -6  18 -12  124.29    6.90
 -18 -12  -6  137.28    6.62
 -12  18  -8   43.26    2.43
 -18 -12  -8   46.25    2.36
 -12 -18  -8   45.31    2.41
  12 -18  -8   46.10    2.24
  -8 -18 -12   48.37    2.41
 -18  -8 -12   54.09    2.54
   8 -18 -12   46.52    2.31
  18 -12  -8   51.26    2.34
  -8 -12 -18   47.16    2.41
 -12  -8 -18   48.54    2.34
   8 -12 -18   50.45    2.47
 -18   8 -12   48.19    2.30
 -18  12  -8   46.22    2.58
  18  -8 -12   46.90    2.14
  12  -8 -18   47.67    2.28
 -12  18   8   39.85    2.05
 -12   8 -18   49.77    2.33
 -12 -18   8   50.99    3.35
  -8  18 -12   40.54    4.48
 -12  18 -10    5.42    1.31
 -18 -12 -10    2.73    1.57
 -12 -18 -10    4.30    1.65
 -10 -18 -12    6.62    1.59
  12 -18 -10    6.59    1.43
  10 -18 -12    6.41    1.49
 -10 -12 -18    6.56    1.55
 -12 -10 -18    9.04    1.82
  18 -12 -10    7.86    1.49
  10 -12 -18    6.97    1.40
  18 -10 -12    7.90    1.37
  12 -10 -18    3.33    1.43
 -18  10 -12    6.62    1.36
 -18  12 -12   51.92    3.04
 -12  18 -12   45.70    2.81
 -12 -18 -12   53.45    2.64
 -18 -12 -12   49.07    2.41
  12 -18 -12   60.69    2.79
 -12 -12 -18   52.54    2.56
  18 -12 -12   59.48    2.65
  12 -12 -18   51.69    2.45
 -18  12 -12   53.01    2.47
  14 -18   0   31.94    2.05
 -18 -14   0   36.69    2.21
 -14 -18   0   33.15    2.25
   0 -18 -14   34.84    2.12
 -18   0 -14   29.45    2.00
   0 -14 -18   39.09    2.17
 -14  18   0   28.14    1.89
 -14   0 -18   31.27    2.02
 -18 -14   0   20.98    4.55
 -14 -18   0   25.93    4.98
  14 -18   0   27.57    3.61
 -18 -14   2    0.05    1.84
 -14 -18   2    0.67    1.83
 -18 -14  -2    2.54    1.56
  14 -18  -2    1.49    1.35
 -14 -18  -2   -0.08    1.62
  -2 -18 -14    5.37    1.60
   2 -18 -14    2.36    1.53
 -18  -2 -14    1.31    1.45
  -2 -14 -18    0.27    1.48
 -18   2 -14    0.59    1.39
   2 -14 -18    2.04    1.44
 -14  -2 -18   -1.87    1.38
 -14   2 -18   -2.55    1.35
 -18 -14   2   15.01    4.19
 -14 -18   2    9.34    4.07
 -18 -14  -2   -6.50    4.73
 -14 -18  -2    5.56    4.40
 -18 -14   4   70.65    3.10
 -14 -18   4   72.69    3.17
 -18 -14  -4   70.50    3.03
 -14 -18  -4   80.79    3.25
  18 -14  -4   75.02    3.17
  14 -18  -4   75.90    3.04
  -4 -18 -14   76.96    3.06
 -14  18  -4   65.49    2.96
 -18  -4 -14   75.09    2.96
   4 -18 -14   76.68    3.02
 -14  -4 -18   76.23    3.06
   4 -14 -18   68.57    2.83
 -18   4 -14   73.92    2.95
 -14  18   4   64.71    3.04
 -14   4 -18   74.86    2.94
  14  -4 -18   77.01    2.94
  18  -4 -14   66.64    2.67
 -18 -14   4   71.88    4.69
 -14 -18   4   62.25    4.78
  -4  18 -14   57.50    5.16
 -18 -14  -4   71.95    5.54
 -14 -18  -4   70.06    5.37
 -18 -14  -6  170.48    5.55
 -14 -18  -6  168.19    5.52
  14 -18  -6  177.64    5.89
  18 -14  -6  170.77    5.76
 -14  18  -6  170.11    5.86
  -6 -18 -14  168.39    5.32
 -18  -6 -14  166.09    5.28
   6 -18 -14  182.29    5.68
  -6 -14 -18  163.51    5.24
 -14  -6 -18  170.01    5.48
   6 -14 -18  164.48    5.10
 -18   6 -14  176.94    5.87
 -14  18   6  150.82    5.35
 -14   6 -18  174.54    5.45
  14  -6 -18  169.84    5.33
  18  -6 -14  168.02    5.35
 -18 -14   6  174.71    6.14
 -14 -18   6  165.66    6.58
  -6  18 -14  148.75    8.94
 -18 -14  -6  160.13    7.30
 -18 -14  -8   77.59    3.12
 -14 -18  -8   78.00    3.26
 -14  18  -8   62.36    3.06
 -18  14  -8   66.17    3.10
  14 -18  -8   74.83    2.94
  -8 -18 -14   75.77    3.12
 -18  -8 -14   76.33    3.06
  18 -14  -8   73.72    3.07
   8 -18 -14   74.32    2.91
  -8 -14 -18   83.71    3.36
 -14  -8 -18   70.27    2.99
   8 -14 -18   69.60    2.92
 -18   8 -14   72.98    2.99
  18  -8 -14   72.99    2.82
  14  -8 -18   72.53    2.87
 -14  18   8   61.63    2.85
 -14   8 -18   81.06    3.12
 -18  14  -8   78.56    3.20
  -8  18 -14   74.04    5.66
 -14  18 -10    0.43    1.25
 -18 -14 -10    3.41    1.60
 -14 -18 -10   -3.00    1.76
 -10 -18 -14    1.99    1.74
 -18 -10 -14   -2.66    1.72
  14 -18 -10    0.06    1.48
 -10 -14 -18   -5.26    1.66
 -14 -10 -18    0.69    1.59
  18 -14 -10    1.43    1.40
  10 -14 -18   -0.85    1.52
  18 -10 -14   -0.70    1.28
  14 -10 -18   -0.58    1.38
 -14  10 -18   -0.38    1.46
 -18  14 -12   11.97    1.69
 -14  18 -12   11.59    1.67
 -18 -14 -12   13.92    1.82
 -14 -18 -12   13.43    1.73
 -18 -12 -14   17.55    1.86
 -12 -18 -14   17.69    2.08
  14 -18 -12   14.99    1.66
 -14 -12 -18   10.98    1.78
 -12 -14 -18   11.19    1.84
  12 -18 -14   13.82    1.78
  18 -14 -12   17.05    1.80
  12 -14 -18   16.30    1.74
  18 -12 -14   13.96    1.70
  14 -12 -18   12.30    1.77
 -18  12 -14   15.11    1.76
 -18  14 -12   12.52    1.62
 -14 -18 -14    0.79    1.72
 -18 -14 -14    1.43    1.67
 -14 -14 -18   -2.82    1.71
  14 -18 -14    4.05    1.46
  18 -14 -14    0.10    1.33
  14 -14 -18    1.68    1.63
  16 -18   0   15.90    1.99
 -18 -16   0   12.41    1.76
 -16 -18   0    8.98    1.68
   0 -18 -16   16.27    1.85
   0 -16 -18   12.85    1.77
 -18   0 -16   14.91    1.60
 -16  18   0   12.13    1.38
 -18 -16   0   20.25    4.99
 -16 -18   0    5.17    4.17
  18 -16  -2   59.49    2.91
 -18 -16   2   56.02    2.80
 -16 -18   2   61.21    2.91
  16 -18  -2   58.66    2.71
 -18 -16  -2   57.42    2.75
 -16 -18  -2   57.35    2.67
  -2 -18 -16   65.91    2.84
   2 -18 -16   60.43    2.63
  -2 -16 -18   63.31    2.80
 -18  -2 -16   60.36    3.16
   2 -16 -18   60.82    2.74
 -16  -2 -18   58.94    2.61
 -18   2 -16   58.08    2.67
 -16  18  -2   52.38    2.44
 -16   2 -18   52.97    2.43
 -16  18   2   56.75    2.58
 -18 -16   2   62.50    5.21
 -16 -18   2   68.75    5.37
 -18 -16  -2   64.72    5.29
 -16 -18  -2   56.43    5.60
 -18 -16   4  264.60    8.39
 -16 -18   4  277.42    8.49
 -18 -16  -4  249.18    7.63
 -16 -18  -4  263.08    8.11
  18 -16  -4  262.35    8.51
  16 -18  -4  275.98    8.77
  -4 -18 -16  267.69    8.18
 -18  -4 -16  266.77    8.21
   4 -18 -16  262.46    7.93
  -4 -16 -18  264.00    7.95
 -16  18  -4  230.01    7.56
   4 -16 -18  255.21    7.74
 -16  -4 -18  260.66    8.00
 -18   4 -16  253.04    7.88
 -16   4 -18  249.19    7.80
 -16  18   4  245.16    8.10
  16  -4 -18  264.86    8.11
  18  -4 -16  268.51    8.18
 -18 -16   4  250.10    9.23
 -16 -18   4  257.82    9.65
 -18 -16  -4  221.49    8.98
 -16 -18  -4  256.21    9.83
 -18 -16  -6  415.90   12.14
 -16 -18  -6  405.19   11.85
  16 -18  -6  430.76   12.66
  18 -16  -6  428.05   12.84
 -16  18  -6  356.58   11.07
 -18  -6 -16  411.10   11.98
  -6 -16 -18  407.35   11.71
   6 -18 -16  414.08   12.01
 -18  16  -6  384.39   11.81
 -16  -6 -18  420.66   12.24
   6 -16 -18  409.84   11.82
 -18   6 -16  412.46   12.26
 -16   6 -18  396.33   11.72
  16  -6 -18  424.24   12.23
  18  -6 -16  389.85   11.39
 -18 -16   6  389.60   12.07
 -16 -18   6  393.75   12.67
 -18 -16  -6  407.50   13.71
 -18 -16  -8  264.49    8.19
 -16 -18  -8  278.37    8.59
 -16  18  -8  225.52    7.71
  16 -18  -8  275.00    8.75
  18 -16  -8  270.70    8.51
  -8 -18 -16  267.47    8.16
 -18  -8 -16  262.14    8.04
  -8 -16 -18  257.46    7.75
 -16  -8 -18  251.01    7.66
   8 -18 -16  283.20    8.49
   8 -16 -18  266.08    8.07
 -18   8 -16  273.00    8.64
  18  -8 -16  272.81    8.33
  16  -8 -18  262.24    7.99
 -16   8 -18  250.45    8.07
 -16  18   8  225.94    7.67
  -8  16 -18  230.46   10.25
  -8  18 -16  225.22   10.86
 -18  16 -10   68.43    3.97
 -16  18 -10   65.96    3.34
 -18 -16 -10   76.93    3.47
 -16 -18 -10   75.54    3.46
 -10 -18 -16   71.47    3.41
  16 -18 -10   80.78    3.63
 -18 -10 -16   74.04    3.36
  18 -16 -10   78.81    3.54
 -10 -16 -18   75.07    3.43
 -16 -10 -18   77.87    3.53
  10 -18 -16   79.27    3.47
  10 -16 -18   79.02    3.43
  18 -10 -16   79.08    3.37
  16 -10 -18   76.44    3.33
 -18  10 -16   88.18    3.79
 -16  10 -18   78.39    3.55
 -10  16 -18   64.25    5.59
 -10  18 -16   74.19    6.11
 -16 -18 -12   23.83    2.12
 -18 -16 -12   24.76    1.97
 -12 -18 -16   18.95    2.01
 -18 -12 -16   22.58    2.14
 -12 -16 -18   18.88    1.89
 -16 -12 -18   18.11    1.95
  16 -18 -12   18.53    1.77
  18 -16 -12   21.39    1.89
  12 -18 -16   24.04    2.06
  12 -16 -18   23.76    1.97
  18 -12 -16   22.83    1.82
  16 -12 -18   17.80    1.87
 -18  12 -16   18.95    1.80
 -16  12 -18   23.10    1.89
 -16 -18 -14   38.44    2.41
 -18 -16 -14   36.21    2.35
 -18 -14 -16   31.63    2.21
 -14 -18 -16   31.36    2.09
 -16 -14 -18   31.63    2.23
 -14 -16 -18   38.09    2.48
  16 -18 -14   35.97    2.18
  14 -18 -16   36.39    2.27
  18 -16 -14   39.05    2.34
  14 -16 -18   34.05    2.15
  18 -14 -16   36.19    2.33
  16 -14 -18   33.20    2.21
 -18  14 -16   30.92    2.00
 -16  14 -18   33.23    2.13
 -18 -16 -16  122.29    6.03
 -16 -18 -16  119.81    6.01
 -16 -16 -18  117.75    5.77
  16 -18 -16  131.17    6.43
  18 -16 -16  117.89    5.93
  16 -16 -18  124.10    6.08
 -18  16 -16  133.76    6.78
 -18 -18   0  153.56    5.22
   0 -18 -18  149.85    5.02
 -18   0 -18  150.08    5.08
 -18  18   0  134.33    4.93
 -18 -18   0  146.22    7.63
  18 -18  -2  257.66    8.50
 -18 -18   2  248.11    7.84
 -18 -18  -2  243.11    7.52
  -2 -18 -18  243.85    7.42
   2 -18 -18  246.54    7.54
 -18  -2 -18  250.00    7.73
 -18   2 -18  253.76    8.02
 -18  18  -2  216.06    7.22
 -18  18   2  233.67    7.80
 -18 -18   2  256.24   10.01
 -18 -18  -2  265.80   10.50
 -18 -18   4  524.87   17.75
  18 -18  -4  505.21   17.24
 -18 -18  -4  514.89   17.16
  -4 -18 -18  526.14   17.52
   4 -18 -18  527.19   17.64
 -18  -4 -18  496.31   16.63
 -18  18  -4  445.52   15.58
 -18   4 -18  514.62   17.31
  18  -4 -18  513.97   17.18
 -18 -18   4  485.86   17.79
 -18 -18  -4  516.78   19.02
 -18 -18  -6  671.90   19.88
  18 -18  -6  658.18   19.64
  -6 -18 -18  576.20   19.31
 -18  -6 -18  668.25   19.76
 -18  18  -6  581.08   19.90
   6 -18 -18  654.27   19.25
 -18   6 -18  662.94   19.75
  18  -6 -18  656.65   19.39
 -18 -18   6  667.33   20.70
 -18 -18  -6  599.93   21.88
 -18 -18  -8  465.83   15.61
  18 -18  -8  465.82   16.10
  -8 -18 -18  466.45   15.79
 -18  -8 -18  465.33   15.70
   8 -18 -18  451.92   15.15
 -18   8 -18  465.81   15.99
  18  -8 -18  480.44   16.15
 -18 -18 -10  193.01    6.55
  18 -18 -10  208.79    7.18
 -10 -18 -18  203.71    6.62
 -18 -10 -18  203.19    6.78
  10 -18 -18  198.62    6.57
  18 -10 -18  209.31    6.86
 -18  10 -18  204.70    7.15
 -18 -18 -12   85.45    3.56
 -12 -18 -18   86.43    3.55
 -18 -12 -18   91.21    3.67
  18 -18 -12   93.61    3.89
  12 -18 -18   96.27    3.75
  18 -12 -18   89.07    3.47
 -18  12 -18   88.65    3.75
 -18 -18 -14   88.82    4.58
 -18 -14 -18   91.71    4.86
 -14 -18 -18   98.03    4.97
  18 -18 -14  101.34    5.28
  14 -18 -18   94.14    4.86
  18 -14 -18   99.65    5.05
 -18  14 -18   91.47    4.95
 -18 -18 -16  193.82    9.35
 -18 -16 -18  171.22    8.35
 -16 -18 -18  198.16    9.57
  18 -18 -16  185.97    8.95
  16 -18 -18  191.47    9.18
  18 -16 -18  191.82    9.23
 -18  16 -18  187.61    9.36
 -18 -18 -18  260.45   10.60
  18 -18 -18  273.81   10.96
  -1 -19   1   44.99    2.25
   1 -19   1   42.66    2.18
   1 -19  -1   48.09    2.27
  -1 -19  -1   41.81    2.18
  19   1  -1   39.29    2.20
  19  -1  -1   38.92    2.04
  19   1   1   39.89    2.12
  19  -1   1   38.55    2.00
  -1  -1 -19   40.75    2.02
   1  -1 -19   39.31    1.94
  -1   1 -19   42.48    2.07
 -19  -1  -1   35.27    2.97
  -1 -19   1   25.95    4.09
   1 -19   1   35.55    4.32
 -19   1  -3   42.52    2.13
 -19  -3  -1   38.10    2.15
   1 -19   3   39.11    2.19
  -1 -19   3   37.32    2.19
 -19  -1  -3   40.86    2.14
  -3 -19   1   38.34    2.17
   3 -19   1   37.55    2.20
  -3 -19  -1   43.19    2.20
   3 -19  -1   34.56    2.00
   1 -19  -3   38.51    2.07
  -1 -19  -3   37.90    2.09
  19  -1  -3   39.45    1.93
  19   1  -3   36.43    1.93
  19   3  -1   41.70    2.09
  19   3   1   40.54    1.97
  19  -3  -1   41.46    2.01
  19   1   3   38.20    1.82
  19  -1   3   40.61    1.85
  -1  -3 -19   44.40    2.12
   1  -3 -19   34.28    1.97
  -3  -1 -19   39.99    1.93
  -3   1 -19   41.71    1.99
   3  -1 -19   44.28    2.09
 -19  -3   1   43.14    2.80
 -19   1  -3   37.02    3.64
 -19  -3  -1   39.41    3.73
 -19  -1  -3   45.42    4.09
   1 -19   3   41.77    4.30
  -1 -19   3   29.99    4.26
  19  -1  -3   36.19    3.87
  -3 -19   1   41.72    4.39
  19   1  -3   36.92    3.89
   3 -19   1   36.99    4.30
   3 -19   3  279.14    6.57
  -3 -19   3  266.59    6.12
 -19  -3  -3  292.86    6.86
  -3 -19  -3  268.91    6.23
   3 -19  -3  295.57    6.65
  19  -3  -3  290.30    7.04
  19   3  -3  291.18    6.89
  19   3   3  290.48    6.93
  -3  -3 -19  283.84    6.31
   3  -3 -19  271.20    6.10
 -19  -3  -3  271.59    9.18
  -3 -19   3  282.39    9.03
   3 -19   3  277.99    9.23
  19  -3  -3  290.20    9.59
  19   3  -3  262.83    8.78
   1 -19   5  292.93    6.93
  -1 -19   5  299.72    7.08
 -19  -5  -1  286.70    6.73
   5 -19   1  313.81    7.03
  -5 -19   1  299.83    6.75
  19  -1  -5  313.21    7.48
  19   1  -5  301.09    7.02
 -19   1  -5  307.35    7.17
   5 -19  -1  314.09    7.07
  -5 -19  -1  296.74    6.79
 -19  -1  -5  305.69    7.07
   1 -19  -5  287.35    6.47
  -1 -19  -5  304.11    6.88
  19   5  -1  292.85    6.88
  -5  19  -1  288.51    7.22
  19   5   1  303.52    7.32
  -5  19   1  282.41    6.69
  19   1   5  308.05    7.26
  -1  -5 -19  297.01    6.68
  19  -1   5  292.79    6.99
   1  -5 -19  303.28    6.62
  -5  -1 -19  296.97    6.71
  -5   1 -19  308.53    6.84
   5  -1 -19  291.38    6.58
 -19  -5   1  314.93    8.63
   1 -19   5  295.83    8.70
  -1 -19   5  294.87    8.79
 -19  -5  -1  295.99    8.94
 -19   1  -5  333.29   10.56
  19  -1  -5  319.02    9.86
  19   1  -5  293.73   10.15
 -19  -1  -5  310.05    9.79
  -5 -19   1  296.78    9.36
   5 -19   1  271.04    8.28
  19  -5  -1  298.79    9.28
  -5 -19  -1  293.26    8.81
   3 -19   5  674.48   13.70
  -3 -19   5  676.85   13.55
   5 -19   3  654.49   13.22
  -5 -19   3  691.17   13.83
  19  -3  -5  710.07   14.55
 -19   3  -5  691.00   14.15
 -19  -5  -3  688.34   13.92
  19   3  -5  693.43   14.48
 -19  -3  -5  707.51   14.06
  -5 -19  -3  693.40   13.61
   5 -19  -3  686.34   13.65
  19  -5  -3  723.03   15.04
  19   5  -3  717.28   14.60
  -3 -19  -5  673.52   13.36
   3 -19  -5  675.36   13.42
  -5  19  -3  637.86   13.24
  19   5   3  678.48   14.02
  19   3   5  640.23   13.08
  -3  -5 -19  679.62   13.34
  -5  -3 -19  665.08   12.95
   3  -5 -19  698.86   13.70
  19  -5  -3  676.73   13.65
   5  -3 -19  700.77   13.67
  -5   3 -19  680.06   13.35
 -19   3  -5  704.10   17.07
   3 -19   5  704.77   16.46
  -3 -19   5  687.08   16.48
  19  -3  -5  650.91   16.47
  19  -5  -3  640.37   16.66
  -5 -19   3  657.58   15.95
 -19  -5  -3  729.83   17.70
   5 -19   3  650.28   15.67
 -19  -3  -5  682.40   16.58
  -5 -19   5 1191.83   22.67
  19  -5  -5 1236.86   23.99
  19   5  -5 1213.90   23.27
 -19  -5  -5 1203.25   22.81
  -5 -19  -5 1215.89   22.85
   5 -19  -5 1179.34   22.09
  19   5   5 1149.75   22.06
  -5  -5 -19 1218.99   22.74
   5  -5 -19 1205.41   22.66
  19  -5  -5 1165.56   22.18
  19  -5  -5 1182.09   25.86
   5 -19   5 1208.71   25.20
  -5 -19   5 1182.77   25.30
 -19  -5  -5 1223.28   26.05
 -19  -7   1  311.11    7.10
  19  -1  -7  301.70    7.48
 -19  -7  -1  295.01    6.74
  19   1  -7  304.11    7.35
   7 -19   1  294.39    6.69
  -7 -19   1  302.21    6.93
   7 -19  -1  309.62    7.01
  -7 -19  -1  302.70    6.92
 -19   1  -7  297.56    6.81
 -19  -1  -7  306.13    6.97
  -1 -19  -7  297.06    6.74
   1 -19  -7  273.15    6.32
  19   7  -1  294.79    7.04
  19   7   1  305.60    7.03
  -7  19  -1  283.19    6.82
  -7  19   1  297.06    7.46
  -1  -7 -19  287.62    6.42
   1  -7 -19  303.42    6.65
  19   1   7  292.20    6.83
  -7  -1 -19  293.68    6.51
  -7   1 -19  286.26    6.40
  19  -1   7  280.05    6.65
   1 -19   7  309.30    8.07
  -1 -19   7  302.95    8.18
 -19  -7   1  302.62    8.55
  19  -1  -7  302.34    9.28
 -19  -7  -1  280.73    8.90
  -7 -19   1  313.81    9.51
 -19   1  -7  302.03    9.86
 -19  -1  -7  296.73    9.20
  19  -7  -1  261.75    8.80
   7 -19   1  299.32    9.01
  -7 -19  -1  300.19    9.15
  19  -3  -7  692.54   14.69
   7 -19   3  679.37   13.89
  -7 -19   3  649.03   13.08
  19   3  -7  669.96   14.19
 -19  -7  -3  683.71   13.80
  -7 -19  -3  666.70   13.28
   7 -19  -3  668.80   13.38
  19   7  -3  634.79   13.04
 -19  -3  -7  651.63   12.97
 -19   3  -7  663.27   13.46
  -3 -19  -7  643.37   12.67
   3 -19  -7  643.04   12.75
  -7  19  -3  610.69   12.91
  19   7   3  652.27   13.47
  -7  19   3  617.85   12.97
  19   3   7  611.94   12.48
  -3  -7 -19  657.43   12.87
  -7  -3 -19  651.70   12.97
   3  -7 -19  675.49   13.25
  -7   3 -19  669.74   13.32
   7  -3 -19  666.03   13.16
 -19  -7   3  619.84   13.18
   3 -19   7  692.15   14.59
  19  -3  -7  621.68   14.74
  -3 -19   7  683.08   15.81
  19  -7  -3  619.38   15.93
   7 -19   3  686.73   16.61
  -7 -19   3  645.56   15.75
 -19  -7  -3  653.83   15.92
 -19   3  -7  670.76   16.87
 -19  -3  -7  643.85   15.85
  -7 -19   5 1192.95   22.70
  19   5  -7 1134.85   22.06
 -19  -7  -5 1173.55   30.95
  19   7  -5 1106.16   21.56
  -7 -19  -5 1215.18   22.91
 -19   5  -7 1255.97   23.86
 -19  -5  -7 1190.77   22.61
   7 -19  -5 1229.41   23.11
  -7  19  -5 1124.05   22.34
  -5 -19  -7 1223.09   23.01
   5 -19  -7 1155.10   21.72
  19   7   5 1126.06   21.69
  19   5   7 1162.13   22.53
  -5  -7 -19 1186.45   22.19
  -7  -5 -19 1188.58   22.34
  19  -7  -5 1155.53   22.26
   5  -7 -19 1171.13   21.83
   7  -5 -19 1184.43   22.40
  19  -5  -7 1131.91   21.36
  -7   5 -19 1167.12   21.84
  19  -5  -7 1079.37   22.02
  19  -7  -5 1084.77   23.07
  -5 -19   7 1171.91   23.95
  -7 -19   5 1213.57   25.49
 -19   5  -7 1195.58   27.04
 -19  -7  -5 1170.59   25.20
 -19  -5  -7 1181.85   25.29
  -7  19  -7 1025.69   26.31
 -19  -7  -7 1201.24   31.64
  -7 -19  -7 1189.48   31.22
   7 -19  -7 1210.18   31.89
  19   7   7 1076.63   26.99
  -7  -7 -19 1121.68   27.48
  19  -7  -7 1142.26   30.30
   7  -7 -19 1136.32   27.90
  -7 -19   7 1162.47   32.30
  19   1  -9   40.55    2.29
 -19  -9   1   35.68    2.21
   9 -19   1   43.91    2.26
 -19  -9  -1   38.12    2.15
  -9 -19   1   38.06    2.29
   9 -19  -1   39.87    2.15
  -9 -19  -1   37.16    2.20
  -1 -19  -9   44.56    2.27
 -19  -1  -9   38.92    2.07
   1 -19  -9   45.67    2.26
 -19   1  -9   43.05    2.14
  -9  19  -1   41.04    2.19
  -9  19   1   39.85    2.08
  -1  -9 -19   39.50    2.20
   1  -9 -19   40.37    2.15
  -9  -1 -19   46.47    2.25
  -9   1 -19   37.05    2.01
  19   1   9   41.76    2.09
  19  -1   9   41.38    2.04
 -19  -9   1   48.45    4.40
 -19  -9  -1   40.07    4.78
  -9 -19   1   37.10    4.66
  19  -9  -1   39.40    3.82
  -9 -19  -1   43.97    4.77
   9 -19   1   43.09    4.20
  19   3  -9  214.45    6.70
  -9 -19   3  214.89    6.40
 -19  -9  -3  217.14    6.36
  -9 -19  -3  208.76    6.09
   9 -19  -3  225.49    6.62
 -19  -3  -9  231.36    6.62
  -3 -19  -9  219.28    6.24
   3 -19  -9  218.65    6.24
  -9  19  -3  223.99    7.02
 -19   3  -9  214.71    6.37
  -9  19   3  202.27    6.34
  -3  -9 -19  216.21    6.06
  -9  -3 -19  218.09    6.23
   3  -9 -19  217.91    6.15
  19   3   9  210.00    6.28
  -9   3 -19  220.00    6.35
   9  -3 -19  222.37    6.30
 -19  -9   3  226.95    7.68
  19  -9  -3  217.28    8.45
   9 -19   3  217.25    8.14
  -9 -19   3  239.61    9.06
 -19  -9  -3  226.26    9.03
 -19   3  -9  225.24    8.56
  -9 -19   5  549.36   14.56
 -19  -9  -5  568.52   14.65
  -9 -19  -5  532.20   13.64
   9 -19  -5  574.29   14.93
  -9  19  -5  510.54   13.87
 -19  -5  -9  542.50   14.06
  -5 -19  -9  586.49   15.11
   5 -19  -9  568.50   14.61
 -19   5  -9  568.53   14.84
  19  -9  -5  551.74   14.46
  -5  -9 -19  573.21   14.55
  -9  -5 -19  574.61   14.69
  19   5   9  499.75   13.36
   5  -9 -19  566.19   14.52
   9  -5 -19  553.92   14.14
  -9   5 -19  573.65   14.73
  19  -5  -9  592.98   15.20
  -9 -19   5  573.62   16.70
 -19   5  -9  553.71   17.28
 -19  -9  -5  537.54   16.06
 -19  -9  -7  545.22   14.09
  -9  19  -7  503.59   13.83
  -9 -19  -7  534.82   13.66
 -19  -7  -9  559.00   14.40
  -7 -19  -9  505.35   12.96
   9 -19  -7  542.61   14.01
   7 -19  -9  590.71   15.06
 -19   7  -9  549.87   14.44
  -7  -9 -19  540.65   13.86
  19  -9  -7  548.46   14.43
  -9  -7 -19  535.22   13.78
   7  -9 -19  551.13   14.04
  19  -7  -9  549.27   14.44
   9  -7 -19  529.37   13.66
  -9 -19   7  582.78   16.84
 -19   7  -9  525.09   16.72
 -19   9  -9  172.81    6.03
 -19  -9  -9  176.66    5.55
  -9 -19  -9  175.42    5.65
   9 -19  -9  193.37    6.10
 -19   9  -9  189.80    6.26
  -9  -9 -19  175.71    5.55
  19  -9  -9  186.14    6.02
   9  -9 -19  172.86    5.30
 -19 -11   1   28.62    2.05
  11 -19   1   25.72    1.83
 -19 -11  -1   23.62    1.90
 -11 -19   1   26.11    2.09
  11 -19  -1   21.56    1.78
 -11 -19  -1   21.09    1.85
  -1 -19 -11   25.54    1.91
   1 -19 -11   26.32    1.86
 -19  -1 -11   23.74    1.67
 -19   1 -11   25.42    1.79
 -11  19  -1   20.08    1.54
 -11  19   1   21.44    1.71
  -1 -11 -19   26.54    1.95
   1 -11 -19   19.75    1.78
 -11  -1 -19   21.05    1.75
 -11   1 -19   23.43    1.75
  19   1  11   19.02    1.58
 -19 -11   1   22.57    4.17
 -19 -11  -1   15.92    4.77
 -11 -19   1   22.70    4.75
  19 -11  -1   20.16    3.28
  11 -19   1   21.88    3.46
 -11 -19  -1   19.83    4.39
 -19 -11   3   13.98    1.87
 -11 -19   3   10.50    1.74
 -19 -11  -3   11.86    1.76
 -11 -19  -3   17.65    2.03
  11 -19  -3   11.89    1.47
  -3 -19 -11   14.84    1.79
 -19  -3 -11   13.42    1.51
   3 -19 -11    8.79    1.72
 -11  19  -3   11.32    1.36
 -19   3 -11   13.27    1.46
  -3 -11 -19   16.06    1.69
 -11  19   3   13.83    1.47
   3 -11 -19    8.90    1.72
 -11  -3 -19   13.23    1.51
 -11   3 -19   11.15    1.52
  19   3  11   11.76    1.47
  11  -3 -19   11.10    1.53
  19 -11  -3   10.95    2.61
 -19 -11   3    9.32    3.21
  11 -19   3   16.35    3.09
 -11 -19   3   12.81    3.98
 -19 -11  -3    7.81    4.27
 -11 -19  -3    8.19    3.91
  -3  19 -11   14.08    3.81
 -11 -19   5  138.18    4.64
 -19 -11  -5  142.12    4.58
 -11 -19  -5  136.96    4.46
  11 -19  -5  139.97    4.46
 -11  19  -5  124.15    4.51
  -5 -19 -11  135.36    4.50
 -19  -5 -11  144.18    4.58
  19 -11  -5  135.33    4.50
   5 -19 -11  131.65    4.24
 -19   5 -11  147.86    5.00
  -5 -11 -19  137.42    4.36
 -11  -5 -19  143.73    4.48
 -11  19   5  121.94    4.26
   5 -11 -19  140.89    4.38
 -11   5 -19  140.99    4.50
  11  -5 -19  144.88    4.49
  19  -5 -11  133.95    4.31
 -11 -19   5  150.91    6.69
 -19 -11  -5  156.26    7.27
 -19 -11  -7  133.05    4.55
 -11 -19  -7  139.51    4.63
 -11  19  -7  116.15    4.51
  11 -19  -7  134.67    4.67
 -19  -7 -11  134.52    4.59
   7 -19 -11  135.08    4.47
  19 -11  -7  134.86    4.60
  -7 -11 -19  139.25    4.59
 -19   7 -11  137.17    4.66
 -11  -7 -19  144.51    4.67
   7 -11 -19  134.15    4.42
 -11  19   7  118.79    4.39
  19  -7 -11  133.30    4.65
  11  -7 -19  139.49    4.45
 -11   7 -19  130.89    4.49
 -11 -19   7  130.73    5.85
 -11  19  -9   11.98    1.48
 -19 -11  -9   13.04    1.67
 -11 -19  -9   11.75    1.65
 -19  -9 -11   12.37    1.64
  -9 -19 -11    7.05    1.70
  11 -19  -9   14.30    1.60
   9 -19 -11   13.55    1.65
  -9 -11 -19   13.27    1.80
 -11  -9 -19    6.80    1.78
  19 -11  -9   11.47    1.45
 -19   9 -11   13.56    1.60
   9 -11 -19   12.14    1.62
  19  -9 -11   10.39    1.52
  11  -9 -19    9.92    1.70
 -19  11 -11   22.21    1.90
 -19 -11 -11   23.29    1.91
 -11 -19 -11   19.64    1.94
  11 -19 -11   22.66    1.85
 -11 -11 -19   25.25    1.97
  19 -11 -11   20.81    1.72
 -19  11 -11   21.69    1.69
  11 -11 -19   26.60    1.87
  13 -19   1   30.78    2.10
 -19 -13   1   26.81    2.21
 -13 -19   1   24.86    1.99
 -19 -13  -1   32.23    2.16
  13 -19  -1   26.79    1.96
 -13 -19  -1   30.64    2.61
  -1 -19 -13   31.81    2.20
   1 -19 -13   24.02    1.91
 -19  -1 -13   24.85    1.87
 -19   1 -13   24.83    1.86
 -13  19  -1   22.29    1.71
  -1 -13 -19   30.63    2.03
   1 -13 -19   28.93    2.03
 -13  19   1   25.56    1.82
 -13  -1 -19   24.55    1.85
 -13   1 -19   30.21    1.92
  19   1  13   19.93    1.64
 -19 -13   1   29.91    4.62
 -19 -13  -1   37.07    4.89
 -13 -19   1   19.01    4.73
  13 -19   1   23.55    3.80
 -13 -19  -1   28.36    4.41
 -19 -13   3    2.43    1.81
 -13 -19   3    6.23    1.69
 -19 -13  -3    4.09    1.61
 -13 -19  -3    4.64    1.70
  13 -19  -3    6.73    1.54
  -3 -19 -13    7.05    1.69
   3 -19 -13    8.59    1.64
 -13  19  -3    6.08    1.25
 -19   3 -13    5.78    1.43
   3 -13 -19    7.14    1.50
 -13  -3 -19    6.89    1.55
 -13  19   3    5.41    1.34
 -13   3 -19    6.30    1.42
  13  -3 -19   10.30    1.52
 -19 -13   3   11.00    3.78
 -13 -19   3   -0.39    4.19
 -19 -13  -3    1.38    3.98
 -13 -19  -3    3.03    4.05
 -13 -19   5   92.88    3.71
 -19 -13  -5   91.83    3.52
 -13 -19  -5   96.98    3.57
  13 -19  -5   94.13    3.53
  19 -13  -5   96.82    3.91
 -13  19  -5   88.89    3.83
  -5 -19 -13   88.67    3.33
 -19  -5 -13   92.47    3.45
   5 -19 -13   92.30    3.38
  -5 -13 -19   89.97    3.38
 -19   5 -13   98.45    3.71
 -13  -5 -19  103.08    3.68
   5 -13 -19   89.90    3.35
 -13  19   5   78.82    3.31
 -13   5 -19   97.10    3.62
  13  -5 -19   95.56    3.45
  19  -5 -13   90.40    3.36
 -19 -13   5   87.25    4.51
 -13 -19   5   92.54    5.42
  -5  19 -13   86.89    6.25
 -19 -13  -5  100.08    6.13
 -19 -13  -7   82.96    3.26
 -13 -19  -7   85.50    3.35
  13 -19  -7   81.27    3.11
  -7 -19 -13   81.89    3.26
 -19  -7 -13   84.12    3.22
   7 -19 -13   88.76    3.42
  -7 -13 -19   76.60    3.08
 -13  -7 -19   92.62    3.40
 -19   7 -13   87.55    3.33
   7 -13 -19   82.82    3.19
 -13  19   7   73.20    3.30
  19  -7 -13   84.00    3.24
  13  -7 -19   86.15    3.19
 -13   7 -19   86.31    3.26
 -13 -19   7   73.99    4.33
  -7  19 -13   76.45    5.76
 -13  19  -9    4.00    1.35
 -19 -13  -9    4.65    1.75
 -13 -19  -9    4.91    1.56
  -9 -19 -13    1.68    1.54
 -19  -9 -13   -0.20    1.61
  13 -19  -9    5.33    1.60
   9 -19 -13    1.80    1.56
  -9 -13 -19    2.29    1.53
 -13  -9 -19    2.23    1.63
   9 -13 -19    2.38    1.51
  19  -9 -13    2.94    1.25
  13  -9 -19    3.21    1.43
 -13   9 -19    4.43    1.54
 -19  13 -11   24.08    2.23
 -13  19 -11   20.40    1.86
 -19 -13 -11   29.58    2.10
 -13 -19 -11   29.60    2.15
 -11 -19 -13   23.35    1.90
 -19 -11 -13   26.88    2.13
  13 -19 -11   26.66    1.91
  11 -19 -13   30.99    2.08
 -11 -13 -19   26.38    2.08
 -13 -11 -19   21.36    1.99
  19 -13 -11   24.27    1.72
  11 -13 -19   33.26    2.15
  19 -11 -13   27.10    1.90
  13 -11 -19   23.76    1.85
 -19  11 -13   25.89    1.99
 -19  13 -11   24.04    1.77
 -13 -19 -13   29.38    2.33
 -19 -13 -13   28.10    2.14
  13 -19 -13   25.74    1.99
 -13 -13 -19   27.28    2.15
  19 -13 -13   26.17    1.88
  13 -13 -19   24.23    2.03
 -19  13 -13   26.14    1.96
 -19 -15   1    3.66    1.75
  15 -19  -1    1.15    1.42
 -15 -19   1    2.50    1.84
 -19 -15  -1    2.00    1.66
 -15 -19  -1    7.49    1.93
  -1 -19 -15    8.38    1.73
   1 -19 -15    4.12    1.62
 -19  -1 -15    3.63    1.62
 -19   1 -15    3.77    1.46
  -1 -15 -19   -0.28    1.65
   1 -15 -19    1.84    1.60
 -15  -1 -19    3.47    1.50
 -15   1 -19    5.60    1.75
 -19 -15   1   -1.68    3.97
 -15 -19   1    4.07    4.13
 -19 -15  -1    1.04    4.53
 -15 -19  -1    0.34    4.27
 -19 -15   3   57.59    2.93
 -15 -19   3   64.12    3.06
  19 -15  -3   62.44    3.25
 -19 -15  -3   58.80    2.80
 -15 -19  -3   62.04    2.90
  15 -19  -3   68.02    2.93
  -3 -19 -15   66.15    2.92
   3 -19 -15   65.15    2.86
 -19  -3 -15   66.93    2.99
 -15  19  -3   56.82    2.78
  -3 -15 -19   61.76    2.81
   3 -15 -19   64.63    2.87
 -19   3 -15   66.26    2.88
 -15  -3 -19   63.49    2.86
 -15   3 -19   64.60    2.77
 -15  19   3   58.60    2.75
  15  -3 -19   60.32    2.65
 -19 -15   3   70.47    5.00
 -15 -19   3   63.98    5.50
 -19 -15  -3   78.58    5.84
 -15 -19  -3   55.66    5.10
 -15 -19   5  225.87    7.31
 -19 -15  -5  218.72    6.88
 -15 -19  -5  218.80    7.07
  19 -15  -5  208.22    6.96
  15 -19  -5  219.59    7.26
  -5 -19 -15  219.09    6.94
 -15  19  -5  194.77    6.82
 -19  -5 -15  222.28    7.12
   5 -19 -15  219.01    6.87
  -5 -15 -19  220.09    6.83
 -15  -5 -19  204.76    6.38
   5 -15 -19  227.40    7.09
 -19   5 -15  213.13    6.91
 -15   5 -19  219.47    6.96
  15  -5 -19  225.90    7.02
  19  -5 -15  214.81    6.82
 -19 -15   5  215.75    7.86
 -15 -19   5  204.67    7.92
 -19 -15  -5  214.75    8.78
 -15 -19  -5  238.70    9.40
 -19 -15  -7  201.95    6.50
 -15 -19  -7  202.58    6.49
  15 -19  -7  212.40    6.85
  19 -15  -7  209.25    7.06
 -15  19  -7  186.76    6.69
  -7 -19 -15  193.84    6.24
 -19  -7 -15  216.93    6.88
   7 -19 -15  196.58    6.18
  -7 -15 -19  206.55    6.53
 -15  -7 -19  201.35    6.35
   7 -15 -19  209.95    6.73
 -19   7 -15  211.87    7.03
 -15   7 -19  199.01    6.56
  15  -7 -19  207.48    6.49
  19  -7 -15  210.06    6.63
 -15 -19   7  192.19    7.11
  -7  19 -15  181.92   10.12
 -19 -15  -7  198.82    8.30
 -19 -15  -9   58.55    2.98
 -15 -19  -9   59.21    3.01
 -15  19  -9   53.85    2.92
 -19  15  -9   57.85    2.99
  15 -19  -9   57.48    2.79
  -9 -19 -15   55.07    2.95
 -19  -9 -15   53.77    2.80
  19 -15  -9   64.59    3.20
   9 -19 -15   65.14    3.05
  -9 -15 -19   56.92    2.91
 -15  -9 -19   62.79    2.99
   9 -15 -19   69.05    3.12
 -19   9 -15   60.53    2.92
  19  -9 -15   62.37    2.88
  15  -9 -19   63.27    2.97
 -15   9 -19   58.01    2.85
 -19  15  -9   65.74    3.24
 -15  19   9   54.96    2.87
  -9  19 -15   58.38    5.89
 -19 -15 -11    2.28    1.72
 -15 -19 -11    7.91    1.94
 -11 -19 -15    2.21    1.61
 -19 -11 -15    4.08    1.58
  15 -19 -11    3.73    1.59
 -11 -15 -19    3.31    1.73
  11 -19 -15    7.42    1.75
 -15 -11 -19    6.17    1.73
  19 -15 -11    6.08    1.50
  11 -15 -19   10.33    1.73
  19 -11 -15    2.68    1.39
  15 -11 -19    8.94    1.73
 -19  11 -15    4.57    1.55
 -15  11 -19    3.09    1.52
 -19 -15 -13    3.58    1.74
 -15 -19 -13   -0.12    1.75
 -19 -13 -15   -2.77    1.74
 -13 -19 -15    5.42    1.65
 -13 -15 -19    0.24    1.60
 -15 -13 -19    1.99    1.59
  15 -19 -13    3.33    1.51
  13 -19 -15    2.42    1.57
  19 -15 -13    2.68    1.39
  13 -15 -19    1.18    1.44
  15 -13 -19    3.47    1.57
 -19  13 -15   -0.77    1.43
 -15  13 -19    1.31    1.50
 -15 -19 -15   25.71    2.33
 -19 -15 -15   29.65    2.31
 -15 -15 -19   26.28    2.32
  15 -19 -15   37.62    2.59
  19 -15 -15   29.08    2.25
  15 -15 -19   29.26    2.30
 -19  15 -15   28.25    2.24
  17 -19  -1  121.01    4.94
 -19 -17   1  117.70    4.27
 -17 -19   1  125.40    4.49
 -19 -17  -1  114.54    4.22
 -17 -19  -1  118.16    4.31
  -1 -19 -17  111.37    4.02
   1 -19 -17  117.27    4.08
  -1 -17 -19  123.53    4.30
   1 -17 -19  115.94    4.10
 -19  -1 -17  118.18    4.22
 -19   1 -17  119.21    4.22
 -17  -1 -19  114.43    4.10
 -17   1 -19  115.82    4.21
 -17  19  -1  109.33    4.19
 -17  19   1  103.39    4.02
 -19 -17   1  116.40    6.65
 -17 -19   1  141.93    7.27
 -19 -17  -1  127.84    7.07
 -17 -19  -1  123.05    6.73
 -19 -17   3  287.93    8.97
 -17 -19   3  270.48    8.32
  19 -17  -3  286.00    9.24
  17 -19  -3  268.65    8.65
 -19 -17  -3  291.51    8.81
 -17 -19  -3  297.17    8.99
  -3 -19 -17  272.47    8.40
   3 -19 -17  302.38    8.97
  -3 -17 -19  282.23    8.61
 -19  -3 -17  280.13    8.51
   3 -17 -19  275.48    8.23
 -17  -3 -19  265.27    8.16
 -17  19  -3  251.07    8.18
 -19   3 -17  296.52    9.10
 -17   3 -19  283.44    8.75
  17  -3 -19  274.59    8.29
 -19 -17   3  286.35   10.26
 -17 -19   3  256.78    9.77
 -19 -17  -3  277.15   10.56
 -17 -19  -3  268.23   10.39
 -17 -19   5  508.81   17.33
 -19 -17  -5  488.19   16.41
 -17 -19  -5  513.01   17.20
  19 -17  -5  483.51   16.70
  17 -19  -5  504.80   17.08
  -5 -19 -17  507.15   16.97
 -19  -5 -17  515.64   17.30
   5 -19 -17  478.24   15.97
  -5 -17 -19  477.63   15.88
 -17  -5 -19  492.14   16.51
   5 -17 -19  507.50   16.83
 -19   5 -17  539.38   18.28
 -17   5 -19  487.70   16.49
  17  -5 -19  509.12   17.07
 -17  19   5  440.88   15.27
  19  -5 -17  503.51   16.92
 -19 -17   5  462.90   16.51
 -17 -19   5  511.56   18.68
 -19 -17  -5  472.16   17.91
 -17 -19  -5  511.35   19.00
 -19 -17  -7  497.39   16.69
 -17 -19  -7  480.63   16.31
  17 -19  -7  485.09   16.50
  19 -17  -7  475.83   16.33
  -7 -19 -17  490.61   16.38
 -19  -7 -17  459.43   15.42
  -7 -17 -19  465.39   15.58
   7 -19 -17  475.70   15.85
 -17  -7 -19  447.80   15.00
   7 -17 -19  474.76   15.93
 -19   7 -17  494.68   16.99
 -17   7 -19  459.03   15.66
  17  -7 -19  472.13   15.89
  19  -7 -17  479.82   16.09
 -17 -19   7  488.13   17.13
 -19 -17  -7  451.91   17.11
 -19 -17  -9  240.14    8.49
 -17 -19  -9  243.84    8.71
  17 -19  -9  246.19    8.05
  19 -17  -9  229.72    7.83
  -9 -19 -17  245.90    8.63
 -19  -9 -17  249.99    8.03
  -9 -17 -19  236.49    8.29
 -17  -9 -19  241.16    8.63
   9 -19 -17  243.58    7.84
   9 -17 -19  235.98    8.36
 -19   9 -17  253.27    9.15
  17  -9 -19  235.39    8.41
  19  -9 -17  245.75    8.75
 -17   9 -19  247.37    8.99
 -19 -17 -11   85.95    3.59
 -17 -19 -11   84.27    3.51
 -11 -19 -17   90.53    3.64
  17 -19 -11   82.84    3.52
 -19 -11 -17   81.62    3.38
  19 -17 -11   90.22    3.79
 -11 -17 -19   80.55    3.31
 -17 -11 -19   90.61    3.67
  11 -19 -17   84.66    3.44
  11 -17 -19   83.05    3.42
  19 -11 -17   90.11    3.53
  17 -11 -19   88.11    3.53
 -19  11 -17   86.24    3.57
 -17  11 -19   92.99    3.73
 -19 -17 -13   53.46    3.28
 -17 -19 -13   51.02    3.27
 -19 -13 -17   51.19    3.25
 -13 -19 -17   48.40    3.20
 -13 -17 -19   56.12    3.38
 -17 -13 -19   54.33    3.34
  17 -19 -13   56.48    3.38
  19 -17 -13   56.06    3.34
  13 -19 -17   51.27    3.13
  13 -17 -19   43.93    2.82
  19 -13 -17   44.74    2.80
  17 -13 -19   57.80    3.34
 -19  13 -17   48.01    3.00
 -17  13 -19   60.13    4.49
 -19  17 -13   57.97    3.44
 -17 -19 -15   90.11    4.72
 -19 -17 -15  101.49    5.27
 -19 -15 -17  111.15    5.56
 -15 -19 -17   99.52    5.08
 -15 -17 -19   95.03    4.86
 -17 -15 -19  108.80    5.47
  17 -19 -15   95.59    4.90
  15 -19 -17  100.46    5.12
  19 -17 -15  109.18    5.50
  15 -17 -19  102.65    5.19
  19 -15 -17  107.59    5.45
  17 -15 -19   98.54    5.09
 -19  15 -17  104.12    5.71
 -17  15 -19  105.23    5.49
 -19  17 -15  106.53    5.70
 -17 -19 -17  202.42    9.68
 -19 -17 -17  195.54    9.36
 -17 -17 -19  198.39    9.51
  17 -19 -17  189.49    9.20
  19 -17 -17  202.72    9.95
  17 -17 -19  200.41    9.65
 -19  17 -17  206.59   10.37
 -19 -19   1  109.36    4.50
 -19 -19  -1  110.21    4.49
  -1 -19 -19  111.84    4.49
   1 -19 -19  118.17    4.61
 -19  -1 -19  106.40    4.44
 -19   1 -19  120.74    4.79
 -19 -19   1  120.62    6.85
 -19 -19  -1  109.11    6.75
 -19 -19   3  250.57    8.10
  19 -19  -3  261.99    8.95
 -19 -19  -3  269.83    8.66
  -3 -19 -19  249.85    7.90
   3 -19 -19  264.12    8.41
 -19  -3 -19  260.32    8.38
 -19   3 -19  249.64    8.33
  19  -3 -19  259.10    8.32
 -19 -19   3  263.56   10.42
 -19 -19  -3  236.89    9.83
  19 -19  -5  474.69   21.41
 -19 -19  -5  452.78   13.63
  -5 -19 -19  462.19   20.67
 -19  -5 -19  445.10   13.56
   5 -19 -19  469.10   20.90
 -19   5 -19  480.47   21.64
  19  -5 -19  455.14   13.76
 -19 -19   5  452.08   14.85
 -19 -19  -5  456.75   16.11
 -19 -19  -7  416.75   12.78
  19 -19  -7  445.33   13.85
  -7 -19 -19  448.57   13.67
 -19  -7 -19  431.33   13.04
   7 -19 -19  449.64   13.71
 -19   7 -19  456.53   14.23
  19  -7 -19  447.87   13.62
 -19 -19  -7  410.67   14.33
 -19 -19  -9  250.41    8.10
  19 -19  -9  240.73    8.09
  -9 -19 -19  249.71    8.12
 -19  -9 -19  245.44    8.00
   9 -19 -19  249.40    8.10
 -19   9 -19  263.87    8.61
  19  -9 -19  253.26    8.02
 -19 -19 -11   96.24    4.97
  19 -19 -11  101.90    5.44
 -11 -19 -19  102.86    5.23
 -19 -11 -19   95.49    4.93
  11 -19 -19   97.86    5.06
  19 -11 -19   99.65    5.02
 -19  11 -19  101.26    5.17
 -19 -19 -13   67.71    3.83
 -13 -19 -19   67.19    3.89
 -19 -13 -19   64.88    3.80
  19 -19 -13   70.17    3.98
  13 -19 -19   60.23    3.56
  19 -13 -19   66.88    3.89
 -19  13 -19   63.10    3.82
 -19 -19 -15  106.63    4.81
 -19 -15 -19  121.69    5.36
 -15 -19 -19  122.61    6.11
  19 -19 -15  125.36    6.41
  15 -19 -19  116.51    5.14
  19 -15 -19  126.27    5.59
 -19  15 -19  119.10    5.54
 -19 -19 -17  198.60    8.03
 -19 -17 -19  209.33    8.68
 -17 -19 -19  200.75    8.40
  19 -19 -17  213.94    8.87
  17 -19 -19  207.46    8.56
  19 -17 -19  218.06    9.03
 -19  17 -19  200.19    8.82
 -19 -19 -19  209.94   10.69
  19 -19 -19  207.16   10.54
   0 -20   0  135.23    4.00
  20   0   0  130.96    4.32
   0   0 -20  121.69    3.53
   0 -20   0  129.16    5.74
   0 -20   2   34.05    2.09
  -2 -20   0   32.88    2.03
   2 -20   0   31.05    2.11
   0 -20  -2   28.62    1.88
  20   0  -2   29.90    1.73
  20   2   0   29.82    1.83
  20  -2   0   27.86    1.68
  20   0   2   26.65    1.68
   0  -2 -20   28.18    1.97
  -2   0 -20   27.95    1.85
   2   0 -20   29.22    1.80
 -20  -2   0   28.29    2.52
 -20   0  -2   25.51    3.00
   0 -20   2   25.40    4.05
  -2 -20   0   31.38    4.46
  20   0  -2   27.97    3.54
   2 -20   2    2.24    1.54
  -2 -20   2   -0.94    1.61
   2 -20  -2    2.70    1.63
  -2 -20  -2   -1.09    1.55
  -2  -2 -20    1.90    1.36
   2  -2 -20    2.11    1.44
  -2   2 -20    1.26    1.49
 -20  -2  -2    4.81    3.03
  -2 -20   2   -4.79    3.75
   2 -20   2    1.09    3.80
  20  -2  -2    2.97    3.39
 -20  -4   0   52.65    2.52
   0 -20   4   51.68    2.38
 -20   0  -4   51.63    2.32
  -4 -20   0   46.15    2.32
   4 -20   0   46.44    2.26
  20   0  -4   52.67    2.29
   0 -20  -4   42.95    2.17
  20   4   0   52.96    2.29
  20   0   4   49.50    2.13
   0  -4 -20   51.49    2.26
  -4   0 -20   53.20    2.23
 -20  -4   0   49.61    3.69
 -20   0  -4   51.85    4.54
   0 -20   4   52.42    4.55
  20   0  -4   49.86    4.62
  -4 -20   0   51.04    4.55
 -20   2  -4  143.68    4.55
   2 -20   4  137.81    3.99
  -2 -20   4  143.40    4.11
 -20  -4  -2  138.90    3.98
   4 -20   2  139.94    4.03
  -4 -20   2  139.13    3.85
 -20  -2  -4  136.40    3.92
  -4 -20  -2  140.98    3.97
   4 -20  -2  140.36    3.96
  20  -2  -4  140.46    4.10
  20   2  -4  140.03    4.22
  -2 -20  -4  133.22    3.78
   2 -20  -4  138.04    3.76
  20   4  -2  140.12    4.37
  20  -4  -2  143.87    4.31
  20   4   2  140.44    4.35
  20   2   4  136.39    4.11
  -2  -4 -20  139.80    3.74
  -4  -2 -20  150.94    4.00
   2  -4 -20  142.26    3.73
  20  -2   4  135.26    4.18
  -4   2 -20  142.83    3.87
   4  -2 -20  136.02    3.79
 -20   2  -4  141.47    5.45
 -20  -4  -2  143.11    6.24
   2 -20   4  136.96    5.92
 -20  -2  -4  129.21    6.18
  -2 -20   4  136.65    6.25
  20  -2  -4  121.13    6.24
  -4 -20   2  133.03    6.22
   4 -20   2  135.15    5.93
  20  -4  -2  145.25    6.43
   4 -20   4  460.66    9.84
  -4 -20   4  449.78    9.78
 -20  -4  -4  462.56    9.86
  20  -4  -4  474.95   10.42
  -4 -20  -4  449.07    9.35
  20   4  -4  431.00    9.55
   4 -20  -4  442.43    9.37
  20   4   4  468.70   10.24
  -4  -4 -20  444.01    9.07
   4  -4 -20  462.96    9.46
   4 -20   4  423.29   11.73
  -4 -20   4  465.43   12.31
  20  -4  -4  473.62   13.29
 -20  -4  -4  441.10   12.06
   0 -20   6  178.42    5.66
 -20  -6   0  179.25    5.57
  20   0  -6  183.41    5.79
   6 -20   0  171.61    5.24
  -6 -20   0  182.24    5.47
 -20   0  -6  178.85    5.63
   0 -20  -6  170.78    5.22
  20   6   0  180.56    5.79
   0  -6 -20  179.16    5.27
  20   0   6  174.16    5.53
  -6   0 -20  170.11    5.02
   0 -20   6  180.55    6.83
 -20  -6   0  179.32    7.12
  20   0  -6  154.42    7.03
 -20   0  -6  176.44    7.59
  -6 -20   0  175.34    7.43
  -2 -20   6  297.27    8.43
   6 -20   2  297.42    8.41
 -20  -6  -2  306.78    8.75
  -6 -20   2  309.28    8.48
  20  -2  -6  315.30    9.13
  20   2  -6  303.44    8.77
 -20   2  -6  299.65    8.42
  -6 -20  -2  293.36    8.14
   6 -20  -2  310.16    8.60
 -20  -2  -6  315.42    8.97
  -2 -20  -6  292.16    7.96
   2 -20  -6  300.06    8.26
  20   6  -2  296.08    8.63
  20   6   2  295.45    8.45
  20   2   6  293.94    8.58
  -2  -6 -20  307.66    8.38
  -6  -2 -20  297.54    8.07
   2  -6 -20  304.32    8.24
  -6   2 -20  305.63    8.26
   6  -2 -20  300.08    8.20
  20  -2   6  289.09    8.57
 -20  -6   2  307.23    9.21
   2 -20   6  274.40    9.45
  -2 -20   6  293.95    9.74
  20  -2  -6  297.02   11.15
 -20  -6  -2  278.13    9.84
 -20   2  -6  317.73   11.23
  -6 -20   2  290.60   10.48
 -20  -2  -6  295.88   10.58
  20  -6  -2  297.67   10.83
  -4 -20   6  685.81   17.56
   6 -20   4  693.50   17.95
  -6 -20   4  694.79   17.61
  20  -4  -6  742.48   19.39
 -20   4  -6  757.24   19.53
 -20  -6  -4  679.44   17.42
  20   4  -6  671.62   17.49
  20  -6  -4  716.79   18.87
  -6 -20  -4  693.92   17.51
 -20  -4  -6  681.70   17.49
  20   6  -4  642.95   16.84
   6 -20  -4  666.41   16.83
  -4 -20  -6  680.30   17.07
   4 -20  -6  676.74   17.14
  20   6   4  668.47   17.37
  20   4   6  656.14   16.92
  -4  -6 -20  685.19   17.22
  -6  -4 -20  691.38   17.38
  20  -6  -4  674.40   17.50
   4  -6 -20  655.10   16.42
   6  -4 -20  679.18   17.07
  -6   4 -20  674.56   16.95
 -20   4  -6  710.34   20.48
  -4 -20   6  649.85   18.18
  20  -4  -6  680.86   20.24
   6 -20   4  640.68   18.77
  20  -6  -4  687.03   20.54
  -6 -20   4  615.01   17.64
 -20  -6  -4  693.96   20.12
 -20  -4  -6  640.23   18.81
  -6 -20   6  950.15   23.75
  20  -6  -6 1008.26   26.01
  20   6  -6  869.83   22.40
 -20  -6  -6  963.68   24.17
  -6 -20  -6  955.54   23.84
   6 -20  -6  949.78   23.61
  20   6   6  875.43   22.40
  -6  -6 -20  959.98   23.87
   6  -6 -20  917.61   22.63
  20  -6  -6  922.90   23.18
   6 -20   6  856.58   23.56
  20  -6  -6  851.49   23.59
  -6 -20   6  906.52   24.31
 -20  -6  -6  923.32   25.76
 -20  -8   0   50.38    2.46
  20   0  -8   50.65    2.45
   8 -20   0   53.23    2.47
  -8 -20   0   47.40    2.38
 -20   0  -8   50.17    2.32
   0 -20  -8   49.41    2.40
  20   8   0   44.82    2.25
  -8  20   0   47.87    2.30
   0  -8 -20   48.67    2.35
  -8   0 -20   52.03    2.38
  20   0   8   52.75    2.28
 -20  -8   0   44.52    4.73
  -8 -20   0   51.24    4.96
 -20   0  -8   47.56    4.64
  20  -2  -8  128.13    4.57
   8 -20   2  124.89    4.89
  20   2  -8  124.32    4.38
  -8 -20   2  131.62    4.31
 -20  -8  -2  121.73    4.16
  -8 -20  -2  126.40    4.24
   8 -20  -2  124.87    4.27
 -20  -2  -8  135.42    4.51
 -20   2  -8  123.78    4.13
  -2 -20  -8  126.32    4.07
   2 -20  -8  124.08    3.96
  -8  20  -2  107.48    4.18
  -8  20   2  117.69    4.26
  -2  -8 -20  120.42    3.89
   2  -8 -20  129.15    4.07
  -8  -2 -20  123.01    4.02
  20   2   8  110.61    3.83
  -8   2 -20  122.80    3.90
   8  -2 -20  126.84    4.07
  -2 -20   8  125.24    4.69
 -20  -8   2  118.20    5.14
 -20  -8  -2  122.88    6.48
  -8 -20   2  131.44    6.80
   8 -20   2  118.46    6.04
  20  -8  -2  128.34    6.63
 -20   2  -8  128.77    6.50
 -20  -2  -8  122.88    6.12
  -8 -20  -2  123.49    6.25
   8 -20   4  382.43   10.68
  -8 -20   4  411.61   11.12
  20   4  -8  385.10   10.95
 -20  -8  -4  414.65   11.18
   8 -20  -4  403.31   10.74
 -20  -4  -8  404.18   11.00
 -20   4  -8  410.72   11.21
  -4 -20  -8  413.04   10.86
   4 -20  -8  414.47   10.97
  -4  -8 -20  395.31   10.49
  20   4   8  369.48   10.26
  -8  -4 -20  387.74   10.28
   4  -8 -20  413.85   10.72
   8  -4 -20  395.89   10.56
  -8   4 -20  400.12   10.49
  -4 -20   8  415.95   11.85
  20  -4  -8  371.97   11.80
   8 -20   4  403.04   12.69
  20  -8  -4  392.45   12.58
  -8 -20   4  417.47   13.15
 -20   4  -8  405.94   13.74
 -20  -8  -4  426.15   13.82
  -8 -20   6  643.23   16.66
 -20  -8  -6  603.56   15.53
  -8 -20  -6  544.12   14.12
 -20  -6  -8  606.71   15.56
 -20   6  -8  599.22   16.27
   8 -20  -6  601.81   15.49
  -6 -20  -8  611.96   15.59
   6 -20  -8  624.15   15.93
  20  -8  -6  617.11   16.12
  -6  -8 -20  592.02   15.16
  -8  -6 -20  599.33   15.31
   6  -8 -20  590.64   15.14
   8  -6 -20  570.00   14.56
  20  -6  -8  586.26   15.13
  -8   6 -20  596.59   15.40
  20  -8  -6  610.96   17.94
  -6 -20   8  569.91   15.57
  -8 -20   6  592.43   16.89
 -20   6  -8  552.36   16.91
 -20  -8  -6  601.96   18.02
 -20  -8  -8  362.06   10.42
  -8 -20  -8  348.82   10.13
   8 -20  -8  342.86    9.91
  -8  -8 -20  334.63    9.72
  20  -8  -8  337.64   10.16
   8  -8 -20  337.46    9.63
  -8 -20   8  323.66   10.05
  20   0 -10   22.25    1.94
 -20 -10   0   20.29    1.89
  10 -20   0   22.45    1.77
 -10 -20   0   23.74    1.93
   0 -20 -10   20.05    1.80
 -20   0 -10   23.10    1.72
 -10  20   0   20.04    1.64
   0 -10 -20   19.71    1.74
 -10   0 -20   22.79    1.78
  20   0  10   17.45    1.48
 -20 -10   0   22.10    3.89
 -10 -20   0   23.56    4.56
  20   2 -10    1.07    1.66
 -10 -20   2    0.74    1.76
 -20 -10  -2    2.81    1.49
  10 -20  -2    0.15    1.35
 -10 -20  -2    2.52    1.80
  -2 -20 -10    1.71    1.72
   2 -20 -10   -3.94    1.62
 -10  20  -2    1.64    1.21
  -2 -10 -20   -1.33    1.55
   2 -10 -20    2.75    1.55
 -10  -2 -20   -0.25    1.46
 -10   2 -20    2.16    1.45
  20   2  10   -1.84    1.23
  10  -2 -20    0.36    1.44
 -20 -10   2   -0.35    3.16
 -20 -10  -2   -4.84    4.25
 -10 -20   2    6.06    4.32
 -10 -20  -2    3.22    3.86
 -10 -20   4   74.62    3.22
 -20 -10  -4   74.55    3.03
 -10 -20  -4   70.60    2.99
  10 -20  -4   77.19    3.11
  -4 -20 -10   71.35    2.96
 -20  -4 -10   75.25    3.01
 -10  20  -4   69.35    3.07
   4 -20 -10   78.99    3.09
 -20   4 -10   79.92    3.32
 -10  20   4   63.88    2.95
  -4 -10 -20   73.81    2.92
 -10  -4 -20   69.01    2.85
   4 -10 -20   75.47    2.96
  20   4  10   73.17    3.15
 -10   4 -20   77.37    3.06
  10  -4 -20   75.54    2.95
 -20 -10   4   67.93    3.60
  10 -20   4   75.78    4.28
  20 -10  -4   70.52    4.38
 -10 -20   4   80.35    5.67
 -20 -10  -4   75.72    5.89
 -20   4 -10   68.90    4.80
 -10 -20   6  160.68    5.31
 -20 -10  -6  169.65    5.45
 -10 -20  -6  157.18    5.09
  10 -20  -6  174.74    5.87
 -20  -6 -10  168.68    5.53
  -6 -20 -10  175.07    5.51
   6 -20 -10  172.92    5.55
 -20   6 -10  167.01    5.62
  20 -10  -6  165.56    5.72
  -6 -10 -20  174.90    5.51
 -10  -6 -20  170.29    5.38
   6 -10 -20  162.73    5.11
  10  -6 -20  163.68    5.16
  20  -6 -10  170.07    5.54
 -10   6 -20  166.78    5.40
 -10 -20   6  165.51    6.73
 -20   6 -10  165.61    7.82
 -20 -10  -6  171.61    7.69
 -10  20  -8   51.03    2.61
 -20 -10  -8   65.33    2.80
 -10 -20  -8   57.90    2.69
 -20  -8 -10   65.22    2.77
  -8 -20 -10   57.03    2.62
  10 -20  -8   61.20    2.63
   8 -20 -10   65.17    2.81
 -20   8 -10   65.54    2.81
  -8 -10 -20   62.89    2.68
 -10  -8 -20   59.55    2.65
  20 -10  -8   65.77    3.06
   8 -10 -20   55.00    2.49
  10  -8 -20   62.85    2.57
 -10   8 -20   62.63    2.80
 -10 -20   8   69.69    3.97
 -20   8 -10   64.65    4.48
 -20 -10 -10   -0.27    1.49
 -10 -20 -10   -2.38    1.50
  10 -20 -10    4.02    1.50
 -10 -10 -20    5.71    1.59
  10 -10 -20    0.53    1.46
 -20 -12   0   73.67    3.11
  12 -20   0   61.52    2.82
 -12 -20   0   64.35    2.90
   0 -20 -12   62.77    2.74
 -20   0 -12   64.36    2.78
 -12  20   0   61.62    2.96
   0 -12 -20   61.82    2.63
 -12   0 -20   60.14    2.65
 -20 -12   0   54.65    5.21
 -12 -20   0   72.98    5.52
  12 -20   0   52.77    5.73
  12 -20   2   16.60    1.94
 -20 -12   2   14.37    2.01
 -12 -20   2   14.52    1.98
 -20 -12  -2   21.72    1.90
  12 -20  -2   15.68    1.75
 -12 -20  -2   14.35    1.87
  -2 -20 -12   16.88    1.85
   2 -20 -12   15.64    1.77
 -20  -2 -12   14.39    1.70
 -20   2 -12   16.56    1.68
 -12  20  -2   12.77    1.44
  -2 -12 -20   12.84    1.74
 -12  20   2   13.12    1.57
   2 -12 -20   17.63    1.81
 -12  -2 -20   17.12    1.69
 -12   2 -20   19.37    1.81
  20   2  12   14.62    1.47
 -20 -12   2   16.93    3.79
 -12 -20   2   11.15    4.38
 -20 -12  -2   12.72    4.44
 -12 -20  -2   21.84    4.50
 -12 -20   4   18.78    2.12
 -20 -12  -4   19.98    1.85
 -12 -20  -4   17.33    1.95
  12 -20  -4   17.04    1.61
  -4 -20 -12   11.18    1.78
 -20  -4 -12   11.82    1.72
   4 -20 -12   15.63    1.75
 -12  20  -4   13.20    1.42
 -20   4 -12   14.95    1.62
  -4 -12 -20   14.52    1.79
 -12  -4 -20   16.65    1.91
   4 -12 -20   13.96    1.72
 -12  20   4   12.96    1.56
 -12   4 -20   13.63    1.61
  12  -4 -20   18.29    1.78
  20 -12  -4   13.28    2.44
 -20 -12   4   13.63    2.89
 -12 -20   4   14.55    4.18
 -20 -12  -4   15.44    4.57
 -12 -20  -4   15.11    4.20
 -12 -20   6   53.46    2.87
 -20 -12  -6   51.86    2.53
 -12 -20  -6   59.76    2.77
  12 -20  -6   50.64    2.38
 -12  20  -6   44.42    2.36
  -6 -20 -12   51.76    2.52
 -20  -6 -12   51.48    2.43
  20 -12  -6   53.71    2.55
   6 -20 -12   47.68    2.41
 -20   6 -12   53.06    2.46
  -6 -12 -20   50.69    4.22
 -12  -6 -20   55.51    2.59
   6 -12 -20   51.55    2.54
 -12  20   6   43.68    2.42
  12  -6 -20   48.58    2.36
 -12   6 -20   54.74    2.48
  20  -6 -12   53.96    2.43
 -12 -20   6   54.23    4.39
 -20 -12  -6   41.91    4.60
 -20 -12  -8    5.90    1.63
 -12 -20  -8    9.62    1.80
 -12  20  -8    6.07    1.31
  12 -20  -8    6.00    1.65
  -8 -20 -12    6.25    1.75
 -20  -8 -12    7.52    1.71
   8 -20 -12    4.72    1.74
  20 -12  -8    6.79    1.43
  -8 -12 -20    8.21    1.88
 -12  -8 -20    6.06    1.65
 -20   8 -12    6.02    1.48
   8 -12 -20    6.15    1.49
  20  -8 -12    7.91    1.43
  12  -8 -20    5.96    1.51
 -12   8 -20    6.99    1.62
 -12 -20   8    1.98    2.32
 -20  12 -10   24.36    1.84
 -12  20 -10   20.93    1.77
 -20 -12 -10   27.62    2.10
 -12 -20 -10   25.24    2.08
 -20 -10 -12   29.83    2.06
 -10 -20 -12   29.28    2.03
  12 -20 -10   28.87    2.12
  10 -20 -12   28.28    2.00
 -10 -12 -20   30.90    2.04
 -12 -10 -20   26.35    1.92
  20 -12 -10   26.46    1.80
 -20  10 -12   29.16    1.95
  10 -12 -20   25.25    1.92
  20 -10 -12   24.44    1.67
  12 -10 -20   27.94    1.92
 -12  10 -20   26.16    1.92
 -20  12 -12   69.39    3.77
 -20 -12 -12   71.13    3.28
 -12 -20 -12   69.79    3.18
  12 -20 -12   81.20    3.72
 -12 -12 -20   76.03    3.42
  20 -12 -12   75.25    3.44
  12 -12 -20   78.95    3.45
 -20  12 -12   78.14    3.79
  14 -20   0   27.21    2.05
 -20 -14   0   24.45    2.09
 -14 -20   0   21.93    1.97
   0 -20 -14   20.24    1.91
 -20   0 -14   21.99    1.72
   0 -14 -20   22.59    1.86
 -14  20   0   19.06    1.67
 -14   0 -20   23.99    1.88
 -20 -14   0   12.69    4.18
 -14 -20   0   29.45    4.61
  14 -20   0   22.27    3.55
 -20 -14   2    3.17    1.90
 -14 -20   2   -2.38    1.81
 -20 -14  -2    1.55    1.69
 -14 -20  -2   -1.77    1.72
  -2 -20 -14    0.22    1.81
   2 -20 -14    0.19    1.59
 -20  -2 -14    1.94    1.39
 -20   2 -14    3.73    1.49
  -2 -14 -20    0.86    1.62
   2 -14 -20    0.17    1.78
 -14  -2 -20    1.36    1.52
 -14   2 -20    4.05    1.48
 -20 -14   2   -2.69    3.93
 -14 -20   2   -2.02    4.30
 -20 -14  -2    6.96    4.28
 -14 -20  -2   -2.45    3.91
 -14 -20   4   35.29    2.46
 -20 -14  -4   34.81    2.24
 -14 -20  -4   33.62    2.31
  14 -20  -4   37.45    2.20
  -4 -20 -14   38.17    2.35
 -20  -4 -14   36.18    2.14
   4 -20 -14   40.91    2.31
 -14  20  -4   30.57    1.89
 -20   4 -14   39.01    2.21
  -4 -14 -20   28.10    2.16
   4 -14 -20   30.31    2.10
 -14  -4 -20   38.90    2.25
 -14   4 -20   32.30    2.03
  14  -4 -20   37.19    2.12
  20  -4 -14   32.03    2.09
 -20 -14   4   39.64    3.85
 -14 -20   4   36.55    4.73
 -20 -14  -4   26.45    5.25
 -14 -20  -4   41.67    4.82
 -20 -14  -6   93.06    3.63
 -14 -20  -6   79.41    3.24
  14 -20  -6   82.24    3.47
  20 -14  -6   82.48    3.52
 -14  20  -6   70.66    3.26
  -6 -20 -14   80.51    3.30
 -20  -6 -14   87.05    3.43
   6 -20 -14   81.39    3.27
  -6 -14 -20   85.35    3.36
 -14  -6 -20   85.03    3.33
 -20   6 -14   80.77    3.31
   6 -14 -20   85.50    3.37
 -14   6 -20   82.09    3.36
  14  -6 -20   81.26    3.23
  20  -6 -14   80.35    3.09
 -14 -20   6   67.58    5.72
 -20 -14  -6   88.56    6.00
  -6  20 -14   65.14    5.34
 -20 -14  -8   28.55    2.05
 -14 -20  -8   18.58    1.92
  14 -20  -8   26.65    1.94
 -14  20  -8   20.17    1.80
  -8 -20 -14   28.07    2.24
 -20  -8 -14   24.56    2.04
  20 -14  -8   27.27    1.94
   8 -20 -14   23.58    2.01
  -8 -14 -20   23.77    2.10
 -14  -8 -20   25.68    2.20
   8 -14 -20   27.05    2.04
 -20   8 -14   25.07    1.99
  20  -8 -14   29.99    2.00
  14  -8 -20   26.33    1.96
 -14   8 -20   24.25    1.93
 -14 -20   8   28.28    3.12
  -8  20 -14   20.65    4.33
 -14  20 -10    2.50    1.43
 -20 -14 -10    2.20    1.71
 -14 -20 -10    3.20    1.79
 -20 -10 -14   -0.63    1.59
 -10 -20 -14    0.01    1.62
  14 -20 -10    3.96    1.44
  10 -20 -14    3.70    1.63
  20 -14 -10    2.59    1.34
 -10 -14 -20    1.52    1.71
 -14 -10 -20    1.78    1.57
  10 -14 -20    4.01    1.66
  20 -10 -14    2.85    1.52
  14 -10 -20    2.72    1.63
 -14  10 -20    2.61    1.64
 -20 -14 -12   18.60    1.99
 -14 -20 -12   18.58    1.90
 -12 -20 -14   17.96    2.01
 -20 -12 -14   23.10    1.91
  14 -20 -12   18.85    1.77
  12 -20 -14   18.55    1.89
 -12 -14 -20   23.58    2.13
 -14 -12 -20   20.68    2.10
  20 -14 -12   21.71    1.87
  12 -14 -20   19.30    1.86
  20 -12 -14   19.34    1.85
  14 -12 -20   20.44    1.84
 -20  12 -14   20.68    1.87
 -20  14 -12   20.89    1.88
 -14  12 -20   28.01    2.02
 -14 -20 -14   -0.37    1.63
 -20 -14 -14    2.44    1.75
  14 -20 -14    7.30    1.61
 -14 -14 -20    2.83    1.76
  20 -14 -14    2.23    1.40
  14 -14 -20    3.76    1.63
 -20  14 -14    4.33    1.57
  16 -20   0   19.92    2.09
 -20 -16   0   19.32    2.21
 -16 -20   0   25.40    2.30
   0 -20 -16   25.16    1.97
 -20   0 -16   20.39    1.98
   0 -16 -20   15.52    1.83
 -16   0 -20   21.65    1.88
 -16  20   0   17.42    1.64
 -20 -16   0   12.96    4.62
 -16 -20   0   12.07    4.99
 -20 -16   2   52.80    2.87
 -16 -20   2   51.61    2.94
  16 -20  -2   51.99    2.81
 -20 -16  -2   51.05    2.84
 -16 -20  -2   52.38    2.95
  -2 -20 -16   53.88    2.85
   2 -20 -16   51.36    2.75
 -20  -2 -16   55.69    2.87
  -2 -16 -20   55.22    2.95
 -20   2 -16   51.88    2.67
   2 -16 -20   55.26    2.77
 -16  20  -2   47.65    2.74
 -16  -2 -20   53.98    2.78
 -16   2 -20   54.93    2.77
 -16  20   2   44.55    2.67
 -20 -16   2   46.90    5.25
 -16 -20   2   55.26    5.49
 -20 -16  -2   50.31    5.54
 -16 -20  -2   49.31    5.18
 -16 -20   4  168.01    6.49
  20 -16  -4  187.55    7.72
 -20 -16  -4  186.68    6.96
 -16 -20  -4  182.72    6.79
  16 -20  -4  168.28    6.46
  -4 -20 -16  178.96    6.56
 -20  -4 -16  190.42    7.14
   4 -20 -16  191.53    6.94
 -16  20  -4  154.85    6.28
  -4 -16 -20  186.14    6.78
 -16  -4 -20  183.11    6.82
   4 -16 -20  183.35    6.69
 -20   4 -16  179.24    6.81
 -16   4 -20  180.81    6.87
 -16  20   4  151.91    6.30
  16  -4 -20  189.24    6.80
  20  -4 -16  182.83    6.73
 -20 -16   4  183.07    8.14
 -16 -20   4  147.36    7.48
 -20 -16  -4  163.59    8.46
 -16 -20  -4  175.50    8.43
 -20 -16  -6  269.00    9.59
 -16 -20  -6  271.57    9.56
  16 -20  -6  267.51    9.78
  20 -16  -6  262.54    9.57
  -6 -20 -16  259.04    9.19
 -20  -6 -16  262.78    9.39
 -16  20  -6  223.18    8.58
   6 -20 -16  277.98    9.76
  -6 -16 -20  256.49    8.96
 -16  -6 -20  257.34    9.11
   6 -16 -20  265.31    9.26
 -20   6 -16  268.33    9.81
 -16   6 -20  271.36    9.64
  16  -6 -20  266.39    9.35
  20  -6 -16  253.34    8.90
 -20 -16   6  263.50    9.94
 -16 -20   6  238.22    9.61
 -20 -16  -6  264.86   11.33
 -16 -20  -6  248.79   10.41
 -20 -16  -8  157.93    5.94
 -16 -20  -8  153.63    5.74
  16 -20  -8  147.93    5.67
  20 -16  -8  159.61    6.36
  -8 -20 -16  158.86    6.07
 -20  -8 -16  153.31    5.85
   8 -20 -16  152.56    5.72
  -8 -16 -20  151.38    5.61
 -16  -8 -20  167.28    6.25
   8 -16 -20  146.29    5.44
 -20   8 -16  166.20    6.47
  16  -8 -20  157.70    5.97
  20  -8 -16  163.17    6.26
 -16   8 -20  157.01    6.01
 -20 -16  -8  150.40    7.94
 -20 -16 -10   45.20    2.63
 -16 -20 -10   40.54    2.38
  16 -20 -10   42.56    2.29
 -10 -20 -16   44.93    2.63
 -20 -10 -16   37.31    2.33
  20 -16 -10   37.70    2.29
  10 -20 -16   42.58    2.49
 -10 -16 -20   38.68    2.41
 -16 -10 -20   32.22    2.21
  10 -16 -20   38.17    2.18
 -20  10 -16   43.36    2.48
  20 -10 -16   40.70    2.26
  16 -10 -20   39.64    2.25
 -20  16 -10   42.20    2.51
 -16  10 -20   42.65    2.35
 -20 -16 -12    2.48    1.79
 -16 -20 -12    2.03    1.86
 -20 -12 -16    4.07    1.76
 -12 -20 -16    2.03    1.85
  16 -20 -12    5.18    1.78
 -12 -16 -20    5.75    1.97
 -16 -12 -20    7.08    1.65
  12 -20 -16   11.69    1.85
  20 -16 -12    5.73    1.63
  12 -16 -20    6.94    1.56
  20 -12 -16    8.07    1.52
  16 -12 -20    7.85    1.71
 -20  12 -16    6.19    1.75
 -16  12 -20    7.79    1.78
 -16 -20 -14   10.29    1.81
 -20 -16 -14    8.35    2.00
 -20 -14 -16    9.74    1.91
 -14 -20 -16   12.51    2.08
 -14 -16 -20   12.69    2.00
 -16 -14 -20    6.75    2.02
  16 -20 -14   12.32    1.87
  14 -20 -16   13.44    1.86
  20 -16 -14   12.63    1.88
  20 -14 -16   10.52    1.65
  14 -16 -20   11.86    1.88
  16 -14 -20   14.50    1.86
 -20  14 -16   10.93    1.73
 -20  16 -14   10.00    1.77
 -16  14 -20   17.11    2.11
 -20 -16 -16   65.05    3.69
 -16 -20 -16   61.48    3.67
 -16 -16 -20   63.79    3.76
  16 -20 -16   68.89    3.89
  20 -16 -16   69.52    3.97
  16 -16 -20   64.51    3.72
 -20  16 -16   69.16    4.08
 -20 -18   0   69.92    3.31
 -18 -20   0   60.03    3.16
   0 -20 -18   63.29    3.01
   0 -18 -20   66.78    3.19
 -20   0 -18   65.11    3.12
 -18   0 -20   54.02    2.78
 -20 -18   0   62.65    5.35
 -18 -20   0   68.58    5.94
 -20 -18   2  110.30    4.60
  18 -20  -2  124.63    5.23
 -18 -20   2  104.77    4.39
 -20 -18  -2  120.39    4.79
 -18 -20  -2  124.46    5.03
  -2 -20 -18  119.21    4.71
   2 -20 -18  118.76    4.61
  -2 -18 -20  123.44    4.88
 -20  -2 -18  110.47    4.48
   2 -18 -20  124.68    4.87
 -18  -2 -20  116.63    4.78
 -20   2 -18  116.27    4.74
 -18   2 -20  114.80    4.71
 -20 -18   2  112.27    6.70
 -18 -20   2  134.88    7.47
 -20 -18  -2  107.54    7.07
 -18 -20  -2  114.54    7.24
 -20 -18   4  286.71    9.35
 -18 -20   4  276.12    8.97
  20 -18  -4  292.78    9.93
  18 -20  -4  299.89   10.10
 -20 -18  -4  295.63    9.44
 -18 -20  -4  280.76    8.85
  -4 -20 -18  270.18    8.59
 -20  -4 -18  297.55    9.63
   4 -20 -18  274.31    8.55
  -4 -18 -20  272.40    8.61
   4 -18 -20  272.98    8.73
 -18  -4 -20  284.81    9.16
 -20   4 -18  298.55    9.84
 -18   4 -20  285.49    9.29
  18  -4 -20  289.71    9.10
  20  -4 -18  290.37    9.22
 -20 -18   4  290.83   10.85
 -18 -20   4  286.36   10.71
 -20 -18  -4  253.71   10.29
 -18 -20  -4  263.65   10.64
 -20 -18  -6  389.32   11.91
 -18 -20  -6  372.81   11.47
  20 -18  -6  385.74   12.39
  18 -20  -6  353.33   11.34
  -6 -20 -18  393.16   12.20
 -20  -6 -18  391.87   12.12
  -6 -18 -20  378.98   11.64
   6 -20 -18  398.78   12.16
 -18  -6 -20  375.69   11.79
   6 -18 -20  372.36   11.32
 -20   6 -18  413.38   13.03
 -18   6 -20  392.23   12.28
  20  -6 -18  382.08   11.67
  18  -6 -20  373.41   11.47
 -20 -18   6  386.49   12.44
 -18 -20   6  341.74   11.68
 -20 -18  -6  356.41   13.42
 -18 -20  -6  394.17   13.77
 -20 -18  -8  279.88    8.89
 -18 -20  -8  277.09    8.84
  18 -20  -8  271.67    8.93
  20 -18  -8  294.05    9.57
  -8 -20 -18  269.58    8.45
 -20  -8 -18  281.65    9.04
  -8 -18 -20  267.48    8.50
 -18  -8 -20  267.39    8.55
   8 -20 -18  272.71    8.77
   8 -18 -20  277.30    8.92
 -20   8 -18  280.88    9.35
 -18   8 -20  276.92    9.07
  20  -8 -18  270.57    8.57
  18  -8 -20  269.88    8.66
 -20 -18  -8  241.90    9.96
 -18 -20 -10  117.54    5.84
 -20 -18 -10  115.28    5.74
  18 -20 -10  109.69    5.62
  20 -18 -10  113.37    5.93
 -10 -20 -18  107.61    5.45
 -20 -10 -18  112.38    5.70
 -10 -18 -20  101.85    5.12
 -18 -10 -20  119.82    5.99
  10 -20 -18  109.82    5.51
  10 -18 -20  115.36    5.75
 -20  10 -18  117.67    6.03
  20 -10 -18  110.80    5.58
  18 -10 -20  119.25    6.04
 -18  10 -20  118.36    5.99
 -20 -18 -12   50.85    3.20
 -18 -20 -12   40.28    2.82
 -12 -20 -18   46.78    3.10
  18 -20 -12   44.23    2.92
 -20 -12 -18   43.34    2.94
 -12 -18 -20   49.62    3.14
  20 -18 -12   44.02    2.91
 -18 -12 -20   43.45    2.97
  12 -20 -18   53.00    3.22
  12 -18 -20   41.53    2.68
  20 -12 -18   48.04    2.93
  18 -12 -20   44.26    2.80
 -20  12 -18   41.81    2.81
 -18  12 -20   46.80    2.95
 -20 -18 -14   57.71    3.54
 -18 -20 -14   51.56    3.27
 -14 -20 -18   50.38    3.24
 -20 -14 -18   51.17    3.20
 -14 -18 -20   51.97    3.28
 -18 -14 -20   58.56    3.54
  18 -20 -14   54.68    3.39
  20 -18 -14   54.64    3.36
  14 -20 -18   58.90    3.49
  14 -18 -20   59.37    3.52
  20 -14 -18   63.75    3.83
  18 -14 -20   53.04    3.26
 -20  14 -18   57.88    3.77
 -18  14 -20   56.85    3.52
 -18 -20 -16  129.10    5.80
 -20 -18 -16  139.93    6.13
 -16 -20 -18  129.54    5.71
 -20 -16 -18  133.78    5.88
 -18 -16 -20  124.88    5.59
 -16 -18 -20  128.86    5.73
  18 -20 -16  126.94    5.87
  16 -20 -18  119.68    5.33
  20 -18 -16  129.97    5.92
  16 -18 -20  133.57    5.90
  20 -16 -18  133.53    5.95
  18 -16 -20  134.99    5.87
 -18  16 -20  128.32    6.07
 -18 -20 -18  182.72    9.39
 -20 -18 -18  189.49    9.66
 -18 -18 -20  183.68    9.33
  18 -20 -18  186.91    9.70
  20 -18 -18  192.48    9.96
  18 -18 -20  191.99    9.81
 -18  18 -20  194.82   10.45
 -20 -20   0   47.21    2.72
   0 -20 -20   44.96    2.62
 -20   0 -20   46.57    2.53
 -20 -20   0   65.04    5.89
 -20 -20   2   86.90    4.92
 -20 -20  -2   84.91    3.61
  -2 -20 -20   85.78    4.50
   2 -20 -20   95.15    4.91
 -20  -2 -20   88.83    3.61
 -20   2 -20   89.27    3.71
 -20 -20   2   77.69    5.95
 -20 -20  -2   94.20    6.59
 -20 -20   4  209.58   10.02
  20 -20  -4  191.99    9.38
 -20 -20  -4  207.11    9.67
  -4 -20 -20  207.50    9.86
   4 -20 -20  201.59    9.41
 -20  -4 -20  201.03    9.56
 -20   4 -20  202.75    9.62
  20  -4 -20  197.76    9.29
 -20 -20   4  190.17    9.97
 -20 -20  -4  199.09   11.03
 -20 -20  -6  279.58   12.94
  20 -20  -6  267.55   12.62
  -6 -20 -20  262.97   12.44
 -20  -6 -20  257.61   12.02
   6 -20 -20  272.44   12.48
 -20   6 -20  263.73   12.35
  20  -6 -20  279.91   12.78
 -20 -20   6  239.21   11.56
 -20 -20  -6  263.67   13.73
 -20 -20  -8  179.62    8.55
  20 -20  -8  173.94    8.57
  -8 -20 -20  178.54    8.41
 -20  -8 -20  176.12    8.88
   8 -20 -20  176.60    8.38
 -20   8 -20  183.78    8.80
  20  -8 -20  187.91    8.88
 -20 -20  -8  177.14   10.17
 -20 -20 -10   61.76    3.56
  20 -20 -10   63.73    3.72
 -10 -20 -20   61.83    3.64
 -20 -10 -20   69.33    3.97
  10 -20 -20   64.30    3.72
 -20  10 -20   59.57    3.47
  20 -10 -20   61.69    3.51
 -20 -20 -12   24.36    2.35
  20 -20 -12   22.77    2.15
 -12 -20 -20   26.08    2.38
 -20 -12 -20   25.90    2.33
  12 -20 -20   21.74    2.15
  20 -12 -20   22.56    2.09
 -20  12 -20   19.88    2.03
 -20 -20 -14   31.28    2.47
 -14 -20 -20   31.59    2.48
 -20 -14 -20   30.16    2.39
  20 -20 -14   37.45    2.73
  14 -20 -20   31.38    2.40
  20 -14 -20   29.55    2.32
 -20  14 -20   28.21    2.22
 -20 -20 -16   85.11    4.72
 -20 -16 -20   87.67    4.90
 -16 -20 -20   86.72    4.88
  20 -20 -16   85.46    4.93
  16 -20 -20   88.13    4.93
  20 -16 -20   80.17    5.90
 -20 -20 -18  106.09    7.19
 -18 -20 -20  119.58    7.98
 -20 -18 -20   98.92    6.90
  18 -20 -20  117.94    8.00
  20 -18 -20  113.21    7.59
 -20 -20 -20   72.23    5.00
  20 -20 -20   56.48    4.15
  -1 -21   1  191.55    5.83
   1 -21   1  197.23    5.95
   1 -21  -1  199.10    5.89
  -1 -21  -1  181.48    5.49
  21   1  -1  191.19    6.09
  21  -1  -1  191.05    6.09
  21   1   1  179.29    5.51
  21  -1   1  179.14    5.84
  -1  -1 -21  189.00    5.68
   1  -1 -21  185.35    5.55
  -1   1 -21  189.80    5.82
   1   1 -21  198.09    5.88
  -1 -21   1  187.46    7.60
   1 -21   1  191.84    7.79
 -21  -3  -1   24.37    1.99
 -21  -1  -3   23.39    1.85
  -1 -21   3   26.02    2.05
   1 -21   3   24.43    2.03
   3 -21   1   20.13    1.89
  -3 -21   1   21.79    2.11
  -3 -21  -1   19.88    1.94
   3 -21  -1   24.66    1.91
   1 -21  -3   20.44    1.87
  -1 -21  -3   16.72    1.79
  21  -1  -3   23.82    1.77
  21   1  -3   19.53    1.64
  21   3  -1   18.59    1.64
  21  -3  -1   19.66    1.55
  21   1   3   16.74    1.51
  21  -1   3   19.71    1.57
  -1  -3 -21   16.75    1.74
  -3  -1 -21   18.82    1.80
   1  -3 -21   15.47    1.72
  -3   1 -21   23.89    1.89
   3  -1 -21   18.05    1.71
 -21   1  -3   17.03    2.33
 -21  -3  -1   19.87    3.08
 -21  -1  -3   17.71    3.70
  -1 -21   3   23.44    4.70
   1 -21   3   24.77    4.18
  -3 -21   1   24.58    4.52
   3 -21   1   21.31    3.68
  21  -1  -3   24.19    3.57
  21   1  -3   15.26    3.44
  -3 -21  -1   22.33    3.92
   3 -21   3   16.32    1.84
  -3 -21   3   15.10    1.93
 -21  -3  -3   16.68    1.72
  -3 -21  -3   11.37    1.66
   3 -21  -3   12.07    1.66
  21   3  -3   13.76    1.60
  21  -3  -3   13.93    1.45
  21   3   3   14.50    1.49
  -3  -3 -21   11.83    1.68
   3  -3 -21   15.10    1.74
  -3   3 -21   11.95    1.54
 -21  -3  -3   13.63    3.70
   3 -21   3    6.79    3.59
  -3 -21   3   12.32    4.12
  21  -3  -3   18.91    3.81
   1 -21   5   29.74    2.22
  -1 -21   5   28.24    2.20
 -21  -5  -1   33.48    2.23
   5 -21   1   33.72    2.09
 -21   1  -5   25.90    1.86
  -5 -21   1   31.14    2.19
 -21  -1  -5   28.73    1.91
  -5 -21  -1   28.77    2.10
   5 -21  -1   30.74    2.10
  21  -1  -5   27.73    1.84
  21   1  -5   29.31    1.94
   1 -21  -5   30.72    2.04
  -1 -21  -5   29.52    2.05
  21   5  -1   25.28    1.88
  21   5   1   26.43    1.76
  21   1   5   23.81    1.61
  -1  -5 -21   32.03    2.01
  21  -1   5   27.91    1.74
   1  -5 -21   30.24    1.89
  -5  -1 -21   25.93    1.87
  -5   1 -21   29.15    1.95
   5  -1 -21   31.73    1.91
 -21  -5   1   31.56    2.97
 -21  -5  -1   33.87    3.82
 -21   1  -5   24.01    3.48
  -1 -21   5   34.27    4.00
   1 -21   5   33.03    3.98
 -21  -1  -5   37.58    4.75
  21  -1  -5   31.57    4.73
  -5 -21   1   28.33    4.80
   5 -21   1   25.78    3.69
  -5 -21  -1   30.07    4.25
   3 -21   5  149.96    4.94
 -21   3  -5  167.51    5.79
  -3 -21   5  145.49    4.68
   5 -21   3  156.32    4.95
  -5 -21   3  151.17    4.81
 -21  -5  -3  152.32    4.87
 -21  -3  -5  156.67    4.93
  21  -3  -5  142.95    5.00
  -5 -21  -3  142.37    4.62
  21   3  -5  147.11    4.96
   5 -21  -3  150.79    4.84
  -3 -21  -5  153.68    4.79
   3 -21  -5  152.03    4.74
  21   5  -3  143.45    4.97
  21  -5  -3  157.03    5.39
  21   5   3  142.32    4.71
  21   3   5  130.35    4.53
  -3  -5 -21  152.35    4.71
  -5  -3 -21  149.68    4.65
   3  -5 -21  145.53    4.57
   5  -3 -21  139.76    4.29
  -5   3 -21  145.72    4.51
 -21   3  -5  140.79    5.84
   3 -21   5  131.12    5.95
  -3 -21   5  127.83    6.23
 -21  -5  -3  137.57    6.60
  -5 -21   3  132.94    6.71
   5 -21   3  139.36    6.55
  21  -3  -5  142.93    7.02
 -21  -3  -5  156.93    7.35
  21  -5  -3  141.39    6.70
   5 -21   5  377.65   10.39
  -5 -21   5  380.58   10.35
  21  -5  -5  376.85   10.48
 -21  -5  -5  382.56   10.48
  21   5  -5  357.70    9.97
  -5 -21  -5  383.87   10.22
   5 -21  -5  364.59    9.85
  21   5   5  345.61    9.57
  -5  -5 -21  372.06    9.99
   5  -5 -21  391.60   10.42
  21  -5  -5  374.04   10.32
   5 -21   5  358.87   11.50
  -5 -21   5  342.55   11.40
  21  -5  -5  368.79   13.48
 -21  -5  -5  379.22   12.60
 -21  -7   1   24.63    1.94
 -21  -7  -1   26.31    2.10
   7 -21   1   24.61    1.88
  21  -1  -7   25.79    1.95
  -7 -21   1   25.61    2.09
  -7 -21  -1   26.99    2.08
   7 -21  -1   24.59    1.98
 -21   1  -7   23.48    1.78
 -21  -1  -7   25.31    1.77
  -1 -21  -7   26.09    1.97
   1 -21  -7   23.47    2.05
  21   7  -1   18.88    1.63
  21   7   1   20.47    1.66
  -1  -7 -21   23.90    1.78
   1  -7 -21   30.39    2.13
  21   1   7   23.21    1.71
  -7  -1 -21   25.96    1.84
  -7   1 -21   22.06    1.88
  21  -1   7   26.59    1.72
   7  -1 -21   25.01    1.73
   1 -21   7   28.01    2.84
  -1 -21   7   23.72    3.09
 -21  -7   1   27.76    3.29
 -21  -7  -1   19.28    4.43
 -21   1  -7   27.74    4.70
 -21  -1  -7   18.45    3.89
  -7 -21   1   21.61    4.53
   7 -21   1   23.00    3.94
  -7 -21  -1   26.69    4.30
   7 -21   3  129.15    4.44
  -7 -21   3  132.12    4.43
  21  -3  -7  138.56    4.84
 -21  -7  -3  133.18    4.46
  21   3  -7  131.37    4.54
  -7 -21  -3  127.35    4.20
 -21   3  -7  134.49    4.73
   7 -21  -3  127.44    4.17
 -21  -3  -7  130.06    4.32
  -3 -21  -7  134.70    4.34
   3 -21  -7  128.04    4.09
  21   7   3  118.69    4.39
  21   3   7  117.89    4.08
  -3  -7 -21  131.38    4.15
  -7  -3 -21  137.02    4.26
   3  -7 -21  133.47    4.32
  -7   3 -21  129.57    4.19
   7  -3 -21  129.64    4.07
   3 -21   7  134.65    5.24
  -3 -21   7  130.55    5.66
  21  -3  -7  111.37    5.94
 -21   3  -7  130.09    7.07
  -7 -21   3  134.37    6.76
 -21  -7  -3  143.40    6.88
   7 -21   3  107.39    5.64
  21  -7  -3  128.61    6.68
 -21  -3  -7  130.53    6.97
  -7 -21   5  348.84    9.55
  21  -5  -7  362.50   10.73
  21  -7  -5  362.19   10.64
 -21  -7  -5  338.32    9.40
  -7 -21  -5  353.69    9.59
 -21  -5  -7  337.56    9.26
   7 -21  -5  344.02    9.43
  -5 -21  -7  338.05    9.28
   5 -21  -7  352.87    9.61
  21   7   5  311.37    9.03
  21   5   7  318.44    9.18
  21  -7  -5  329.91    9.60
  -5  -7 -21  329.02    8.91
  -7  -5 -21  311.27    8.56
   5  -7 -21  337.09    9.00
   7  -5 -21  347.68    9.40
  21  -5  -7  324.40    9.26
  -7   5 -21  344.27    9.41
 -21   5  -7  338.27   11.29
  -5 -21   7  310.63   10.33
   7 -21   5  324.24   10.56
  21  -5  -7  314.35   10.67
  21  -7  -5  309.19   11.18
  -7 -21   5  338.55   11.50
 -21  -7  -5  332.59   11.79
 -21  -5  -7  347.70   12.28
 -21  -7  -7  322.18    9.45
  -7 -21  -7  318.29    9.07
   7 -21  -7  325.79    9.57
  -7  -7 -21  301.19    8.67
  21  -7  -7  304.38    9.05
   7  -7 -21  298.90    8.60
  21  -7  -7  273.05    9.63
  -7 -21   7  313.69   10.45
 -21  -7  -7  312.68   11.54
 -21  -9   1   13.52    2.00
  21  -1  -9   16.79    1.93
  21   1  -9   18.40    1.90
 -21  -9  -1   14.94    1.72
   9 -21   1   14.64    1.67
  -9 -21   1    8.13    1.80
  -9 -21  -1   10.51    1.79
   9 -21  -1   18.51    1.92
 -21  -1  -9   16.70    1.64
 -21   1  -9   13.40    1.47
  -1 -21  -9   17.63    1.82
   1 -21  -9   19.29    1.79
  -9  21  -1   11.87    1.44
  -1  -9 -21   18.65    1.75
   1  -9 -21   16.64    1.67
  -9  -1 -21   17.87    1.75
  -9   1 -21   11.64    1.53
  21   1   9   12.56    1.41
  21  -1   9   14.32    1.41
 -21  -9   1   20.87    3.90
 -21  -9  -1   16.81    4.09
  -9 -21   1   25.95    4.58
   9 -21   1   13.60    3.48
  -9 -21  -1   15.24    4.35
 -21   1  -9   11.59    3.92
 -21  -1  -9   21.30    4.01
  21  -3  -9    9.66    1.72
   9 -21   3    6.79    1.60
  -9 -21   3    7.60    1.91
  21   3  -9    7.43    1.70
 -21  -9  -3    7.48    1.56
  -9 -21  -3   12.68    1.88
   9 -21  -3    7.59    1.52
 -21  -3  -9    9.44    1.47
  -3 -21  -9   10.49    1.69
 -21   3  -9    9.14    1.39
   3 -21  -9    7.80    1.64
  -9  21  -3    9.24    1.61
  -3  -9 -21    8.61    1.57
   3  -9 -21    6.18    1.59
  -9  -3 -21    9.25    1.62
  21   3   9    8.92    1.31
  -9   3 -21    8.01    1.54
   9  -3 -21    8.30    1.54
 -21  -9   3   12.18    2.79
   9 -21   3    9.94    3.41
  -9 -21   3   15.19    4.47
  21  -9  -3   10.37    3.40
 -21  -9  -3    6.87    4.23
  -9 -21   5  107.49    4.01
  21  -9  -5  113.80    4.54
 -21  -9  -5   94.99    3.73
  -9 -21  -5   97.69    3.64
   9 -21  -5  103.35    3.81
 -21  -5  -9   98.84    3.65
  -5 -21  -9   94.91    3.60
 -21   5  -9   97.88    3.72
   5 -21  -9   97.40    3.54
  -5  -9 -21  100.48    3.61
  -9  -5 -21   95.93    3.48
  21   5   9   85.85    3.50
   5  -9 -21   99.67    3.56
   9  -5 -21   99.31    3.61
  -9   5 -21   97.92    3.64
  21  -5  -9   97.36    3.80
   9 -21   5  103.63    4.62
  21  -9  -5   96.43    5.23
  -9 -21   5  107.33    5.68
 -21   5  -9   94.05    6.08
 -21  -9  -5  110.92    6.68
 -21  -9  -7   88.74    3.41
  -9 -21  -7   95.29    3.54
 -21  -7  -9   97.72    3.70
 -21   7  -9  105.62    4.17
  -7 -21  -9   92.47    3.50
   9 -21  -7   98.68    4.82
   7 -21  -9   93.21    3.46
  21  -9  -7   93.63    3.62
  -7  -9 -21   92.55    3.43
  -9  -7 -21  100.39    3.62
   7  -9 -21   89.38    3.29
  21  -7  -9   98.69    3.73
   9  -7 -21   92.55    3.30
  -9   7 -21   95.37    3.69
 -21   7  -9   88.12    4.92
  -9 -21   7   90.66    4.93
 -21  -9  -7   77.42    5.55
 -21  -9  -9    6.22    1.53
  -9 -21  -9    6.53    1.75
   9 -21  -9    6.04    1.62
  -9  -9 -21    6.35    1.55
  21  -9  -9    5.43    1.25
   9  -9 -21    5.66    1.59
 -21 -11   1   80.30    3.34
  11 -21   1   81.59    3.36
 -21 -11  -1   87.27    3.41
 -11 -21   1   82.07    3.39
  11 -21  -1   81.35    3.34
 -11 -21  -1   83.18    3.36
  -1 -21 -11   82.71    3.21
   1 -21 -11   80.66    3.16
 -21  -1 -11   85.78    3.52
 -21   1 -11   80.35    3.28
 -11  21  -1   66.66    3.19
 -11  21   1   70.85    3.19
  -1 -11 -21   70.13    2.83
   1 -11 -21   78.90    3.09
 -11  -1 -21   78.48    3.12
 -11   1 -21   83.17    3.16
  21   1  11   72.45    3.08
 -21 -11   1   83.64    5.20
 -21 -11  -1   71.16    5.18
 -11 -21   1   76.28    5.77
  11 -21   1   76.35    5.21
 -11 -21  -1   70.48    5.92
 -11 -21   3    2.22    1.79
 -21 -11  -3    6.30    1.69
 -11 -21  -3    5.94    1.60
  11 -21  -3    6.29    1.56
  -3 -21 -11    3.08    1.53
 -21  -3 -11    7.56    1.68
   3 -21 -11    9.24    1.64
 -21   3 -11    7.68    1.49
 -11  21  -3    6.04    1.34
 -11  21   3    7.38    1.38
  -3 -11 -21    3.24    1.47
   3 -11 -21    8.25    1.64
 -11  -3 -21    3.57    1.56
 -11   3 -21    7.30    1.53
  21   3  11    4.48    1.21
  11  -3 -21    5.18    1.50
 -21 -11   3   -2.15    3.03
  11 -21   3    7.86    2.95
 -11 -21   3    5.58    4.22
 -21 -11  -3    7.80    4.34
 -11 -21  -3    3.71    4.07
 -11 -21   5   14.89    2.11
 -21 -11  -5    9.26    1.65
 -11 -21  -5   15.87    1.87
  11 -21  -5   11.03    1.56
 -21  -5 -11   11.29    1.73
  -5 -21 -11   13.31    1.83
 -11  21  -5    6.79    1.44
   5 -21 -11   14.30    1.72
 -21   5 -11   11.79    1.57
  -5 -11 -21    9.70    1.75
 -11  -5 -21   11.65    1.72
   5 -11 -21   12.35    1.69
 -11   5 -21   14.44    1.67
  11  -5 -21   10.01    1.61
  21  -5 -11   16.38    1.56
 -11 -21   5    9.36    3.94
 -21 -11  -5    6.51    4.04
 -21 -11  -7    4.90    1.59
 -11 -21  -7    7.18    1.77
  11 -21  -7    7.69    1.49
 -11  21  -7    5.30    1.42
 -21  -7 -11    6.13    1.62
  -7 -21 -11    8.92    1.77
   7 -21 -11    9.78    1.68
  -7 -11 -21    4.24    1.52
 -11  -7 -21    7.41    1.56
   7 -11 -21    7.26    1.69
  11  -7 -21    7.45    1.43
  21  -7 -11    7.63    1.39
 -11   7 -21    9.36    1.60
 -11 -21   7    6.50    3.25
 -21 -11  -7    1.12    3.82
 -21 -11  -9   20.89    1.86
 -11 -21  -9   19.38    1.83
 -21  -9 -11   17.60    1.79
  -9 -21 -11   20.82    2.01
  11 -21  -9   22.51    1.92
   9 -21 -11   19.38    1.82
  -9 -11 -21   16.91    1.72
  21 -11  -9   17.06    1.65
 -11  -9 -21   13.35    1.75
   9 -11 -21   18.91    1.91
  21  -9 -11   18.45    1.63
  11  -9 -21   20.34    1.72
 -11   9 -21   18.06    1.85
 -21  11 -11   93.65    4.55
 -21 -11 -11  104.80    4.35
 -11 -21 -11  109.91    4.50
  11 -21 -11   98.56    4.11
 -11 -11 -21   93.96    4.10
  21 -11 -11  100.81    4.42
  11 -11 -21  100.12    4.06
  13 -21   1   99.85    4.18
 -21 -13   1   98.99    3.92
 -21 -13  -1  105.48    3.95
 -13 -21   1  107.44    4.06
  13 -21  -1  102.20    4.00
 -13 -21  -1  103.63    3.99
  -1 -21 -13   97.62    3.67
   1 -21 -13   95.21    3.62
 -21  -1 -13   95.78    3.75
 -21   1 -13   92.61    3.59
 -13  21  -1   85.42    3.66
  -1 -13 -21   94.20    3.67
 -13  21   1   80.28    3.87
   1 -13 -21  101.75    3.72
 -13  -1 -21   89.93    3.74
 -13   1 -21   91.70    3.51
 -21 -13   1  100.94    5.95
 -21 -13  -1  101.78    6.19
 -13 -21   1   88.78    6.16
  13 -21   1   85.09    6.25
 -13 -21  -1   98.97    6.37
 -13 -21   3   24.81    2.22
 -21 -13  -3   18.44    2.05
  13 -21  -3   14.61    1.63
 -13 -21  -3   18.24    1.93
  -3 -21 -13   21.36    2.15
 -21  -3 -13   21.01    1.95
   3 -21 -13   14.25    1.96
 -13  21  -3   13.01    1.56
 -21   3 -13   17.90    1.73
  -3 -13 -21   15.81    1.86
   3 -13 -21   20.08    1.93
 -13  21   3   14.88    1.59
 -13  -3 -21   20.32    1.83
 -13   3 -21   12.56    1.62
  13  -3 -21   14.91    1.72
  13 -21   3   15.81    2.40
 -21 -13   3   26.02    3.75
 -13 -21   3   26.13    4.36
 -21 -13  -3   17.94    4.75
 -13 -21  -3    1.58    4.43
 -13 -21   5    8.80    1.93
 -21 -13  -5    4.52    1.72
 -13 -21  -5    0.85    1.80
  13 -21  -5    4.49    1.53
  -5 -21 -13    1.85    1.70
 -21  -5 -13    4.71    1.50
 -13  21  -5    2.19    1.24
   5 -21 -13    5.12    1.65
 -21   5 -13    2.26    1.50
  -5 -13 -21    4.06    1.68
 -13  -5 -21    2.46    1.57
   5 -13 -21    2.23    1.65
 -13  21   5    3.18    1.36
 -13   5 -21    6.49    1.69
  13  -5 -21    2.89    1.65
 -13 -21   5    2.18    3.82
 -21 -13  -5    4.72    4.42
 -21 -13  -7    1.93    1.66
 -13 -21  -7    7.98    1.82
  13 -21  -7    0.81    1.55
 -13  21  -7   -0.52    1.40
 -21  -7 -13   -0.59    1.52
  -7 -21 -13   -4.14    1.69
   7 -21 -13    4.01    1.52
  -7 -13 -21    0.44    1.62
 -13  -7 -21    0.43    1.62
   7 -13 -21    3.97    1.52
  13  -7 -21    4.81    1.55
 -13   7 -21    2.71    1.55
 -13 -21   7   -2.52    3.27
 -21 -13  -7   -2.03    4.04
 -21 -13  -9   26.90    2.12
 -13 -21  -9   23.23    2.18
  13 -21  -9   28.29    2.05
  -9 -21 -13   26.84    2.33
 -21  -9 -13   27.69    2.16
   9 -21 -13   21.76    1.99
  21 -13  -9   21.04    1.82
  -9 -13 -21   16.88    1.97
 -13  -9 -21   28.29    2.15
 -21   9 -13   24.04    1.92
   9 -13 -21   27.62    2.09
  21  -9 -13   18.64    1.74
  13  -9 -21   25.85    1.96
 -13   9 -21   24.09    1.98
 -21 -13 -11   97.28    3.99
 -13 -21 -11   97.94    4.21
 -21 -11 -13   85.52    3.64
 -11 -21 -13   91.08    3.98
  13 -21 -11   94.56    3.95
  11 -21 -13   90.05    3.82
 -11 -13 -21   90.13    3.86
 -13 -11 -21   96.77    4.09
  21 -13 -11   88.68    4.13
 -21  13 -11   92.53    4.43
 -21  11 -13   93.52    4.19
  21 -11 -13   95.15    4.30
  11 -13 -21   99.44    4.06
  13 -11 -21   82.27    3.52
 -13  11 -21   90.27    4.08
 -21 -13 -13   84.50    3.52
 -13 -21 -13   71.04    3.20
  13 -21 -13   86.23    3.50
 -13 -13 -21   86.11    3.51
  21 -13 -13   91.10    3.77
  13 -13 -21   80.65    3.28
 -21  13 -13   86.08    4.33
 -21 -15   1   13.88    2.06
  15 -21  -1   10.11    1.73
 -21 -15  -1   11.08    1.93
 -15 -21   1    8.74    2.00
 -15 -21  -1   10.07    1.93
  -1 -21 -15   11.96    1.91
 -21  -1 -15   10.64    1.53
 -21   1 -15    9.81    1.67
  -1 -15 -21    8.00    1.80
   1 -15 -21    8.18    1.79
 -15  21  -1    7.60    1.45
 -15  21   1    8.89    1.49
 -15  -1 -21    9.00    1.67
 -15   1 -21    5.77    1.70
 -21 -15   1   13.72    3.93
 -21 -15  -1    1.50    4.67
 -15 -21   1    1.81    4.66
 -15 -21  -1   18.53    4.60
 -21 -15   3    1.89    1.92
 -15 -21   3    4.43    1.78
 -21 -15  -3    0.58    1.73
  15 -21  -3    4.66    1.60
 -15 -21  -3   -0.52    1.67
  -3 -21 -15    2.06    1.66
 -21  -3 -15    2.51    1.52
 -21   3 -15    2.93    1.60
 -15  21  -3    3.66    1.31
  -3 -15 -21    3.58    1.65
   3 -15 -21   -4.11    1.81
 -15  -3 -21    2.87    1.60
 -15   3 -21    5.12    1.58
  15  -3 -21    0.26    1.56
 -21 -15   3    9.08    3.46
 -15 -21   3   -9.80    4.50
 -21 -15  -3   -4.44    4.25
 -15 -21  -3   -1.22    4.58
 -15 -21   5   43.18    2.96
  21 -15  -5   44.39    2.82
 -21 -15  -5   47.45    2.73
 -15 -21  -5   49.26    2.81
  15 -21  -5   51.10    2.74
  -5 -21 -15   46.13    2.57
 -21  -5 -15   46.45    2.63
   5 -21 -15   47.77    2.67
 -15  21  -5   36.42    2.40
  -5 -15 -21   37.57    2.39
 -21   5 -15   44.15    2.54
 -15  -5 -21   46.84    2.61
   5 -15 -21   41.34    2.53
 -15   5 -21   42.48    2.45
 -15  21   5   51.98    2.72
  15  -5 -21   45.36    2.57
  21  -5 -15   42.06    2.54
 -21 -15   5   44.13    3.78
 -15 -21   5   33.25    4.36
 -21 -15  -5   61.93    5.80
 -15 -21  -5   47.17    5.11
 -21 -15  -7   42.25    2.56
 -15 -21  -7   36.95    2.49
  15 -21  -7   41.08    2.48
  21 -15  -7   39.96    2.46
 -15  21  -7   33.74    2.36
  -7 -21 -15   42.78    2.54
 -21  -7 -15   42.36    2.48
   7 -21 -15   42.35    2.50
  -7 -15 -21   39.50    2.53
 -15  -7 -21   41.81    2.43
 -21   7 -15   41.40    2.48
   7 -15 -21   41.20    2.47
 -15   7 -21   38.22    2.35
  15  -7 -21   38.03    2.39
  21  -7 -15   40.65    2.41
 -15 -21   7   33.75    3.78
 -21 -15  -7   56.43    5.54
 -21 -15  -9    0.29    1.73
 -15 -21  -9    4.16    1.87
  15 -21  -9    2.63    1.66
 -21  -9 -15    5.19    1.70
  -9 -21 -15   -3.98    1.80
   9 -21 -15    0.45    1.49
  -9 -15 -21    1.09    1.89
 -15  -9 -21    4.68    1.58
   9 -15 -21   -0.89    1.64
  21  -9 -15    1.23    1.60
  15  -9 -21   -1.78    1.63
 -15   9 -21    2.57    1.60
 -21 -15 -11   12.82    1.88
 -15 -21 -11    6.18    1.89
 -11 -21 -15   10.83    1.78
 -21 -11 -15    8.78    1.93
  15 -21 -11    7.96    1.62
  11 -21 -15   10.32    1.63
  21 -15 -11   15.42    1.78
 -11 -15 -21   12.04    1.94
 -15 -11 -21   11.80    1.89
  11 -15 -21    9.43    1.76
 -21  11 -15   10.76    1.73
  21 -11 -15   11.20    1.75
  15 -11 -21    9.69    1.80
 -15  11 -21   16.81    1.92
 -21 -15 -13   20.12    2.18
 -15 -21 -13   15.99    2.15
 -13 -21 -15   18.54    3.12
 -21 -13 -15   11.28    1.90
  15 -21 -13   14.50    1.88
  13 -21 -15   16.95    1.97
 -15 -13 -21   13.36    1.99
 -13 -15 -21   15.01    2.03
  21 -15 -13   15.04    1.95
  21 -13 -15   19.23    2.01
  13 -15 -21   20.06    2.05
  15 -13 -21   17.08    1.79
 -21  13 -15   20.54    2.07
 -15  13 -21   19.16    1.99
 -15 -21 -15    1.30    1.88
 -21 -15 -15   -1.57    1.61
 -15 -15 -21   -3.80    1.83
  21 -15 -15   -1.01    1.47
  15 -15 -21   -0.19    1.62
  17 -21  -1    9.15    1.74
 -21 -17   1    9.63    1.98
 -17 -21   1    8.09    1.98
 -21 -17  -1    4.59    1.94
 -17 -21  -1    9.62    1.78
  -1 -21 -17    8.68    1.87
   1 -21 -17   10.51    1.87
 -21  -1 -17    7.58    1.70
 -21   1 -17    7.24    1.82
  -1 -17 -21    9.00    2.03
   1 -17 -21   14.65    1.95
 -17  -1 -21   12.86    1.85
 -17   1 -21   10.22    1.59
 -21 -17   1   23.62    4.62
 -17 -21   1   15.01    6.42
 -21 -17  -1    9.39    5.19
 -17 -21  -1   16.53    5.27
 -21 -17   3   67.67    3.42
 -17 -21   3   59.57    3.52
  17 -21  -3   58.13    2.92
 -21 -17  -3   58.33    2.94
 -17 -21  -3   58.71    2.96
  -3 -21 -17   60.24    2.81
   3 -21 -17   57.71    2.83
 -21  -3 -17   66.84    3.03
  -3 -17 -21   59.66    2.99
 -21   3 -17   65.93    3.05
   3 -17 -21   59.37    2.78
 -17  -3 -21   60.83    2.86
 -17   3 -21   63.13    2.88
  17  -3 -21   68.14    3.02
 -21 -17   3   52.86    4.68
 -17 -21   3   49.06    4.90
 -21 -17  -3   61.48    5.43
 -17 -21  -3   69.48    5.61
 -17 -21   5  161.68    5.92
  21 -17  -5  162.31    6.21
 -21 -17  -5  159.23    5.64
 -17 -21  -5  158.89    5.53
  17 -21  -5  163.30    5.88
  -5 -21 -17  148.48    5.44
 -21  -5 -17  168.15    5.89
   5 -21 -17  162.95    5.58
  -5 -17 -21  155.86    5.36
 -17  -5 -21  167.66    5.88
   5 -17 -21  162.74    5.48
 -21   5 -17  164.19    5.94
 -17   5 -21  152.09    5.48
  17  -5 -21  165.62    5.73
  21  -5 -17  160.37    5.66
 -21 -17   5  159.55    6.54
 -21 -17  -5  160.99    7.81
 -17 -21  -5  159.21    7.88
 -21 -17  -7  161.58    5.75
 -17 -21  -7  170.02    5.83
  17 -21  -7  173.25    6.20
  21 -17  -7  171.79    6.43
  -7 -21 -17  165.55    5.62
 -21  -7 -17  173.95    6.25
   7 -21 -17  162.81    5.50
  -7 -17 -21  162.33    5.55
 -17  -7 -21  151.57    5.45
   7 -17 -21  152.95    5.27
 -21   7 -17  169.32    6.14
 -17   7 -21  163.96    5.93
  21  -7 -17  181.27    6.19
  17  -7 -21  165.81    5.76
 -17 -21   7  162.20    6.39
 -21 -17  -7  163.85    8.01
 -17 -21  -7  184.59    8.64
 -21 -17  -9   68.32    3.80
 -17 -21  -9   73.22    4.08
  17 -21  -9   71.17    3.94
  21 -17  -9   69.97    4.07
  -9 -21 -17   69.27    3.85
 -21  -9 -17   71.36    3.94
   9 -21 -17   69.58    3.83
  -9 -17 -21   65.90    3.80
 -17  -9 -21   74.15    4.03
   9 -17 -21   67.62    3.67
 -21   9 -17   66.39    3.85
  21  -9 -17   70.44    3.87
  17  -9 -21   72.88    3.90
 -17   9 -21   64.20    3.68
 -21 -17  -9   68.51    6.14
 -21 -17 -11    9.33    1.76
 -17 -21 -11    8.61    1.94
  17 -21 -11   10.94    1.91
 -21 -11 -17    9.01    1.82
 -11 -21 -17   10.30    1.98
  21 -17 -11   10.09    1.74
 -11 -17 -21   11.06    1.76
  11 -21 -17   12.90    1.97
 -17 -11 -21    7.11    1.96
  11 -17 -21   12.21    1.96
 -21  11 -17    5.42    1.65
  21 -11 -17   10.57    1.82
  17 -11 -21   12.19    1.89
 -17  11 -21   10.63    1.91
 -21 -17 -13    6.50    1.97
 -17 -21 -13    1.88    1.90
 -21 -13 -17    3.08    1.80
 -13 -21 -17    1.07    2.47
  17 -21 -13    4.20    1.83
 -13 -17 -21    4.28    1.93
 -17 -13 -21    0.57    1.65
  13 -21 -17    6.50    1.75
  21 -17 -13    6.71    1.82
  13 -17 -21    2.28    1.65
  21 -13 -17    3.85    1.58
  17 -13 -21    3.64    1.76
 -21  13 -17    2.46    1.76
 -17  13 -21    3.32    1.73
 -17 -21 -15   19.33    2.30
 -21 -17 -15   21.25    2.31
 -21 -15 -17   26.16    2.17
 -15 -21 -17   21.32    2.26
 -15 -17 -21   20.37    2.21
  17 -21 -15   23.18    2.11
 -17 -15 -21   26.02    2.28
  15 -21 -17   23.77    2.11
  21 -17 -15   28.46    2.20
  15 -17 -21   24.57    2.15
  21 -15 -17   27.95    2.13
  17 -15 -21   22.14    1.88
 -17  15 -21   23.29    2.32
 -21 -17 -17   78.82    3.90
 -17 -21 -17   82.44    4.09
 -17 -17 -21   79.14    3.83
  17 -21 -17   91.79    4.38
  21 -17 -17   86.64    4.36
  17 -17 -21   84.03    3.96
 -17  17 -21   92.28    4.76
 -21 -19   1   35.27    2.50
 -19 -21   1   34.80    2.49
 -21 -19  -1   31.57    2.54
 -19 -21  -1   39.63    2.58
  -1 -21 -19   32.64    2.40
   1 -21 -19   36.32    2.24
  -1 -19 -21   34.69    2.20
   1 -19 -21   40.36    2.46
 -21  -1 -19   33.95    2.29
 -21   1 -19   35.58    2.22
 -19  -1 -21   35.86    2.29
 -19   1 -21   35.21    2.33
 -21 -19   1   49.12    4.88
 -19 -21   1   30.83    5.11
 -21 -19  -1   39.45    5.67
 -19 -21  -1   22.61    5.25
 -21 -19   3  105.06    5.62
 -19 -21   3   88.84    4.75
  19 -21  -3   99.76    5.61
 -21 -19  -3   95.93    5.01
 -19 -21  -3   94.13    4.87
  -3 -21 -19   79.53    4.29
   3 -21 -19   95.36    4.93
  -3 -19 -21  102.35    5.18
 -21  -3 -19   96.80    4.99
   3 -19 -21  107.25    5.37
 -19  -3 -21   99.43    5.07
 -21   3 -19  107.94    5.64
 -19   3 -21  102.60    5.31
  19  -3 -21   93.77    4.75
  21  -3 -19  104.15    5.28
 -21 -19   3   97.15    6.53
 -19 -21   3   93.63    6.72
 -21 -19  -3   85.83    7.07
 -19 -21  -3   96.28    7.64
 -21 -19  -5  196.88    9.30
  19 -21  -5  201.06    9.86
 -19 -21  -5  199.36    9.39
  -5 -21 -19  204.12    9.64
 -21  -5 -19  183.98    8.69
  -5 -19 -21  192.05    9.17
   5 -21 -19  194.53    9.18
 -19  -5 -21  205.94    9.70
   5 -19 -21  196.54    9.31
 -21   5 -19  202.62    9.68
 -19   5 -21  209.39    9.99
  19  -5 -21  189.71    8.90
  21  -5 -19  201.86    9.55
 -21 -19   5  180.97    9.43
 -19 -21   5  185.69    9.83
 -21 -19  -5  201.99   11.48
 -19 -21  -5  176.35   10.35
 -21 -19  -7  193.57    9.27
 -19 -21  -7  187.29    8.95
  21 -19  -7  180.95    8.96
  19 -21  -7  189.70    9.19
  -7 -21 -19  179.87    8.56
 -21  -7 -19  185.92    8.97
  -7 -19 -21  196.76    9.19
   7 -21 -19  190.77    8.97
 -19  -7 -21  197.15    9.45
   7 -19 -21  204.73    9.53
 -21   7 -19  195.86    9.58
 -19   7 -21  196.90    9.45
  21  -7 -19  203.15    9.56
  19  -7 -21  196.91    9.35
 -19 -21   7  204.03   10.07
 -21 -19  -7  187.12   10.78
 -19 -21  -7  161.23    9.60
 -21 -19  -9   83.61    4.49
 -19 -21  -9   97.42    5.11
  19 -21  -9   91.53    5.12
  21 -19  -9   73.93    4.13
  -9 -21 -19   78.49    4.28
 -21  -9 -19   89.93    4.81
  -9 -19 -21   82.01    4.45
 -19  -9 -21   81.11    4.37
   9 -21 -19   95.03    4.98
   9 -19 -21   84.83    4.54
 -21   9 -19   90.79    4.96
 -19   9 -21   83.90    4.65
  19  -9 -21   90.22    4.76
  21  -9 -19   85.98    4.65
 -21 -19  -9   87.45    6.80
 -21 -19 -11   18.61    2.15
 -19 -21 -11   22.09    2.12
  19 -21 -11   21.71    2.03
  21 -19 -11   25.32    2.17
 -11 -21 -19   25.44    2.35
 -21 -11 -19   18.56    2.10
 -11 -19 -21   14.72    2.06
 -19 -11 -21   16.60    2.04
  11 -21 -19   18.39    2.07
  11 -19 -21   21.71    2.14
  21 -11 -19   16.30    1.86
 -21  11 -19   18.86    2.07
  19 -11 -21   25.64    2.17
 -19  11 -21   17.81    1.91
 -19 -21 -13   16.70    2.23
 -21 -19 -13   11.67    1.83
 -21 -13 -19   13.54    1.97
 -13 -21 -19   12.90    2.02
  19 -21 -13   15.77    1.93
  21 -19 -13   11.23    1.85
 -13 -19 -21    4.38    1.93
 -19 -13 -21   11.92    1.81
  13 -21 -19    7.68    1.80
  13 -19 -21   13.27    1.91
  21 -13 -19   15.40    2.01
  19 -13 -21   15.14    1.83
 -21  13 -19    9.88    1.86
 -19  13 -21   13.81    2.02
 -21 -19 -15   35.13    2.62
 -19 -21 -15   39.47    2.96
 -21 -15 -19   36.07    2.65
 -15 -21 -19   42.46    3.27
 -19 -15 -21   36.61    2.70
 -15 -19 -21   32.03    2.77
  19 -21 -15   42.03    3.07
  21 -19 -15   29.84    2.44
  15 -21 -19   40.91    2.78
  15 -19 -21   37.61    2.76
  21 -15 -19   40.63    2.97
  19 -15 -21   39.18    2.78
 -19  15 -21   28.18    2.47
 -19 -21 -17   84.73    5.04
 -21 -19 -17   81.58    4.72
 -17 -21 -19   82.71    4.80
 -21 -17 -19   79.53    4.53
 -17 -19 -21   82.12    4.74
 -19 -17 -21   80.18    4.62
  19 -21 -17   87.31    5.02
  17 -21 -19   85.65    4.83
  21 -19 -17   92.33    5.16
  17 -19 -21   87.64    4.97
  21 -17 -19   81.62    4.75
  19 -17 -21   85.15    4.84
 -21 -19 -19   76.97    5.17
 -19 -21 -19   76.94    5.27
 -19 -19 -21   82.39    5.46
  19 -21 -19   73.02    5.25
  21 -19 -19   86.93    6.21
  19 -19 -21   76.25    5.28
 -21 -21   1    3.20    2.07
 -21 -21  -1    5.20    2.07
  -1 -21 -21   -0.18    1.74
   1 -21 -21    2.42    1.75
 -21  -1 -21    2.53    1.60
 -21   1 -21   -1.32    1.61
 -21 -21   1   -7.23    4.06
 -21 -21  -1    3.28    4.81
 -21 -21   3   11.23    2.22
 -21 -21  -3   15.01    2.25
  -3 -21 -21    8.77    1.72
   3 -21 -21   12.47    1.93
 -21  -3 -21   12.27    1.86
 -21   3 -21   13.18    2.01
  21  -3 -21   10.12    1.75
 -21 -21   3   12.57    4.09
 -21 -21  -3    7.94    4.59
 -21 -21  -5   49.28    3.22
  -5 -21 -21   47.27    3.08
 -21  -5 -21   49.84    3.14
   5 -21 -21   48.82    2.96
 -21   5 -21   54.86    3.45
  21  -5 -21   49.14    3.05
 -21 -21   5   51.02    4.81
 -21 -21  -5   37.34    5.22
 -21 -21  -7   60.96    3.70
  -7 -21 -21   46.72    3.05
 -21  -7 -21   50.92    3.22
   7 -21 -21   50.78    3.15
 -21   7 -21   50.79    3.14
  21  -7 -21   54.54    3.23
 -21 -21  -7   74.28    6.60
 -21 -21  -9   14.78    1.90
  -9 -21 -21   16.32    2.13
 -21  -9 -21   14.22    1.90
   9 -21 -21   16.71    1.81
 -21   9 -21   13.72    1.91
  21  -9 -21   14.49    2.30
 -21 -21  -9    7.32    4.88
 -21 -21 -11    0.98    1.85
 -11 -21 -21   -2.64    1.83
 -21 -11 -21   -3.78    1.57
  11 -21 -21    3.22    1.70
  21 -11 -21    0.27    1.57
 -21  11 -21   -2.88    1.53
 -21 -21 -13    0.54    1.91
 -13 -21 -21   -1.41    1.90
 -21 -13 -21   -0.67    1.93
  13 -21 -21    2.61    1.76
  21 -13 -21   -0.93    1.69
 -21 -21 -15   -1.60    1.77
 -21 -15 -21    2.33    1.68
 -15 -21 -21    2.90    1.92
  15 -21 -21    6.62    2.15
  21 -15 -21    8.53    2.02
 -21 -21 -17   15.60    4.16
 -21 -17 -21   22.59    2.49
 -17 -21 -21   24.61    2.59
  17 -21 -21   30.89    2.75
  21 -17 -21   23.10    2.51
 -21 -21 -19   18.72    2.20
 -19 -21 -21   21.01    2.27
 -21 -19 -21   20.57    2.46
  19 -21 -21   21.49    2.57
  21 -19 -21   26.98    2.74
 -21 -21 -21    3.08    1.93
   0 -22   0  539.38   14.07
  22   0   0  526.44   14.20
   0   0 -22  558.80   14.58
   0 -22   0  549.06   16.29
   0 -22   2  346.69    9.58
  -2 -22   0  332.41    9.15
   2 -22   0  351.52    9.48
   0 -22  -2  328.53    9.04
  22   0  -2  309.10    8.99
  22   2   0  326.82    9.59
  22  -2   0  330.21    9.57
  22   0   2  320.56    9.32
   0  -2 -22  349.44    9.42
  -2   0 -22  330.26    9.07
   2   0 -22  315.77    8.48
   0   2 -22  324.21    8.85
   0 -22   2  335.88   11.42
  -2 -22   0  323.11   10.79
   2 -22   0  302.21   10.15
 -22  -2  -2  184.63    5.83
   2 -22   2  171.25    5.26
  -2 -22   2  183.06    5.62
  -2 -22  -2  179.01    5.57
   2 -22  -2  178.55    5.35
  22   2  -2  182.46    5.85
  22  -2  -2  176.11    5.74
  22   2   2  166.73    5.29
  22  -2   2  180.41    5.72
  -2  -2 -22  174.51    5.22
   2  -2 -22  171.34    5.17
  -2   2 -22  177.99    5.36
 -22  -2  -2  186.61    6.92
  -2 -22   2  164.22    7.25
   2 -22   2  175.95    7.38
   0 -22   4   60.63    2.81
 -22   0  -4   69.93    2.89
   4 -22   0   70.47    2.90
  -4 -22   0   61.20    2.72
   0 -22  -4   68.33    2.85
  22   0  -4   71.05    3.19
  22   4   0   67.50    3.21
  22   0   4   68.46    2.82
   0  -4 -22   71.95    2.83
  -4   0 -22   74.72    2.91
   4   0 -22   68.38    2.75
 -22  -4   0   71.03    3.85
 -22   0  -4   74.00    4.57
   0 -22   4   69.64    4.90
  -4 -22   0   76.27    5.25
   4 -22   0   70.92    5.08
   2 -22   4   14.62    1.95
 -22  -4  -2   17.53    1.88
  -2 -22   4   15.67    1.96
   4 -22   2   16.31    1.96
 -22  -2  -4   19.17    1.88
  -4 -22   2   14.82    1.89
  -4 -22  -2   11.89    1.81
   4 -22  -2   17.34    1.88
   2 -22  -4   14.73    1.69
  -2 -22  -4   14.52    1.80
  22   2  -4   15.50    1.62
  22  -2  -4   15.26    1.63
  22   4  -2   16.83    1.69
  22   4   2   14.26    1.59
  22   2   4   15.30    1.56
  -2  -4 -22   13.77    1.85
  -4  -2 -22   16.64    1.75
   2  -4 -22   15.80    1.79
  22  -2   4   17.26    1.40
   4  -2 -22   18.11    1.90
 -22   2  -4   17.36    2.39
 -22  -4  -2   16.94    3.49
   2 -22   4   11.86    3.55
  -2 -22   4   13.39    3.78
  -4 -22   2   18.14    4.05
   4 -22   2   13.90    3.90
  22  -2  -4   20.01    4.34
  22  -4  -2    7.59    3.26
   4 -22   4   15.24    1.92
  -4 -22   4   18.89    2.05
 -22  -4  -4   15.88    1.59
  -4 -22  -4   17.66    1.90
   4 -22  -4   19.02    1.83
  22   4  -4   15.87    1.56
  22   4   4   13.81    1.46
  -4  -4 -22   14.53    1.88
   4  -4 -22   14.44    1.63
  -4   4 -22   16.37    1.62
   4 -22   4   22.62    4.00
  -4 -22   4   11.96    4.09
 -22  -4  -4   25.49    4.04
  22  -4  -4   18.80    3.66
 -22  -6   0   14.73    1.72
   0 -22   6    8.63    1.87
   6 -22   0   16.39    1.75
  -6 -22   0   14.38    1.78
 -22   0  -6   15.23    1.66
  22   0  -6   10.49    1.55
   0 -22  -6   14.68    1.83
  22   6   0   14.31    1.74
   0  -6 -22    8.18    1.54
  22   0   6   12.64    1.44
  -6   0 -22   12.94    1.60
 -22  -6   0   13.78    3.21
   0 -22   6   16.37    3.28
 -22   0  -6    9.39    3.53
  -6 -22   0   12.21    4.27
   6 -22   0   14.07    3.52
  -2 -22   6    0.06    1.67
 -22  -6  -2    1.93    1.45
   6 -22   2    1.06    1.53
  -6 -22  -2    0.14    1.55
   6 -22  -2    2.22    1.48
  22   2  -6    3.09    1.39
  -2 -22  -6    2.84    1.64
   2 -22  -6   -2.40    1.49
  22   6  -2    0.60    1.26
  22   6   2    1.23    1.24
  -2  -6 -22    2.21    1.57
  -6  -2 -22    1.63    1.53
   2  -6 -22    2.98    1.54
  -6   2 -22    1.60    1.66
   6  -2 -22    2.61    1.42
   2 -22   6   -1.70    3.19
  -2 -22   6    1.64    3.25
 -22  -6  -2    4.14    3.73
 -22  -2  -6   -1.24    3.75
  -6 -22   2    9.76    4.17
   6 -22   2    4.10    3.68
  -6 -22  -2   -7.81    3.87
  -4 -22   6   58.82    2.94
   6 -22   4   61.74    2.92
  -6 -22   4   52.47    2.75
 -22  -6  -4   61.87    2.84
  22  -4  -6   62.39    3.22
 -22  -4  -6   54.17    2.48
  -6 -22  -4   50.66    2.57
  22   4  -6   56.84    2.88
   6 -22  -4   60.68    2.84
  -4 -22  -6   60.97    2.77
   4 -22  -6   59.36    2.67
  22   6  -4   49.24    2.60
  22   6   4   48.95    2.58
  22   4   6   52.35    2.51
  -4  -6 -22   57.14    2.63
  -6  -4 -22   54.49    2.58
   4  -6 -22   60.15    2.67
   6  -4 -22   59.76    2.62
  -6   4 -22   60.37    2.56
 -22   4  -6   55.85    3.73
   4 -22   6   52.97    3.68
  -4 -22   6   53.50    4.35
   6 -22   4   52.25    4.63
  22  -4  -6   63.42    4.98
  -6 -22   4   66.08    5.12
 -22  -6  -4   60.02    5.26
  22  -6  -4   47.97    4.78
 -22  -4  -6   68.80    5.43
  -6 -22   6  144.72    5.10
  22  -6  -6  134.56    5.16
 -22  -6  -6  125.04    4.53
  -6 -22  -6  132.30    4.47
   6 -22  -6  136.11    4.59
  22   6   6  109.44    4.30
  -6  -6 -22  120.65    4.32
  22  -6  -6  114.78    4.37
   6  -6 -22  127.42    4.25
   6 -22   6  136.94    5.75
  -6 -22   6  137.49    6.56
  22  -6  -6  111.88    6.27
 -22  -6  -6  116.54    6.48
 -22  -8   0   51.73    2.74
   8 -22   0   52.82    2.57
  22   0  -8   52.19    2.75
  -8 -22   0   48.16    2.56
 -22   0  -8   53.32    2.53
   0 -22  -8   55.23    2.61
   0  -8 -22   51.48    2.51
  -8   0 -22   49.53    2.40
  22   0   8   44.83    2.29
   0 -22   8   46.75    3.04
 -22  -8   0   51.20    4.71
 -22   0  -8   53.67    5.19
  -8 -22   0   55.40    5.16
   8 -22   0   43.87    3.90
   8 -22   2    9.12    1.66
  22  -2  -8   10.09    1.70
 -22  -8  -2    8.78    1.62
  -8 -22   2   12.01    1.92
  22   2  -8   11.30    1.72
  -8 -22  -2    9.20    1.85
   8 -22  -2   11.81    1.64
 -22   2  -8   12.60    1.53
 -22  -2  -8   10.39    1.56
  -2 -22  -8   13.39    1.65
   2 -22  -8   11.79    1.71
  -2  -8 -22   12.69    1.70
   2  -8 -22   14.02    1.85
  -8  -2 -22   11.91    1.70
  22   2   8    8.12    1.36
  -8   2 -22   11.59    1.60
   8  -2 -22   14.06    1.68
 -22  -8   2   16.31    2.76
  -2 -22   8   10.97    2.53
 -22  -8  -2   21.88    4.25
  -8 -22   2    4.12    4.30
   8 -22   2    8.94    3.78
 -22  -2  -8    7.69    3.86
  -8 -22  -2   18.32    4.26
   8 -22   4   15.05    2.00
  22  -4  -8   13.97    1.78
  -8 -22   4   16.88    2.06
 -22  -8  -4   14.79    1.68
 -22   4  -8   14.21    1.50
  -8 -22  -4   18.81    1.92
   8 -22  -4   14.98    1.69
 -22  -4  -8   15.56    1.69
  -4 -22  -8   14.64    1.86
   4 -22  -8   17.84    1.77
  -4  -8 -22   21.68    1.87
  -8  -4 -22   16.50    1.78
  22   4   8   13.43    1.57
   4  -8 -22    8.63    1.68
   8  -4 -22   15.65    1.70
  -8   4 -22   15.33    1.69
  -4 -22   8   15.47    2.66
   8 -22   4   15.76    3.59
 -22   4  -8   15.57    3.76
  -8 -22   4   13.37    4.00
  22  -8  -4    9.59    3.59
 -22  -8  -4   24.22    4.58
 -22  -4  -8   12.51    4.58
  -8 -22   6   60.97    3.01
  22  -6  -8   58.60    3.31
  22  -8  -6   62.35    3.10
 -22  -8  -6   54.28    2.56
  -8 -22  -6   61.72    2.81
 -22  -6  -8   61.01    3.01
   8 -22  -6   56.92    2.57
  -6 -22  -8   58.47    2.63
   6 -22  -8   56.17    2.57
  22  -8  -6   56.81    2.84
  -6  -8 -22   47.42    2.33
  -8  -6 -22   57.15    2.53
   6  -8 -22   56.92    2.50
   8  -6 -22   57.77    2.55
  22  -6  -8   54.11    2.70
  -8   6 -22   56.19    2.60
  -6 -22   8   51.38    3.90
  -8 -22   6   59.62    4.61
  22  -8  -6   49.65    4.34
 -22  -8  -6   59.35    5.33
 -22  -6  -8   51.12    5.20
 -22  -8  -8   15.33    1.69
  -8 -22  -8   25.07    2.09
   8 -22  -8   15.85    1.71
  -8  -8 -22   14.40    1.81
  22  -8  -8   16.16    1.54
   8  -8 -22   20.68    1.78
  22  -8  -8   18.27    2.72
  -8 -22   8   13.17    3.29
 -22  -8  -8   29.82    4.50
 -22 -10   0  140.14    4.90
  22   0 -10  138.13    5.28
  10 -22   0  125.05    4.33
 -10 -22   0  140.77    4.75
 -22   0 -10  135.53    4.63
   0 -22 -10  143.19    4.85
   0 -10 -22  133.42    4.37
 -10   0 -22  132.97    4.50
  22   0  10  116.80    4.33
 -22 -10   0  134.00    6.46
 -10 -22   0  124.30    6.51
  10 -22   0  126.49    6.14
 -22   0 -10  130.78    6.94
  22  -2 -10   63.97    3.62
  10 -22   2   71.50    3.18
 -10 -22   2   62.87    2.96
 -22 -10  -2   63.57    2.89
  10 -22  -2   67.86    3.03
 -10 -22  -2   67.43    2.92
 -22  -2 -10   60.32    2.63
 -22   2 -10   71.54    3.03
  -2 -22 -10   64.69    2.88
   2 -22 -10   59.44    3.47
  -2 -10 -22   56.91    2.65
   2 -10 -22   64.73    2.83
 -10  -2 -22   65.92    2.88
 -10   2 -22   62.42    2.74
  22   2  10   56.17    2.63
  10  -2 -22   64.26    2.67
 -22 -10   2   65.93    4.26
 -22 -10  -2   66.50    5.10
 -10 -22   2   70.41    5.38
  10 -22   2   65.84    4.90
 -22   2 -10   65.32    5.40
 -10 -22  -2   65.65    5.43
  22 -10  -2   56.94    4.48
 -22  -2 -10   67.30    5.17
 -10 -22   4    6.47    1.93
 -22 -10  -4    3.69    1.53
 -10 -22  -4    0.52    1.84
  10 -22  -4    3.02    1.58
 -22  -4 -10    2.14    1.44
  -4 -22 -10    2.96    1.85
 -22   4 -10    4.15    1.35
   4 -22 -10    0.61    1.54
  -4 -10 -22    7.02    1.80
 -10  -4 -22   -0.13    1.54
   4 -10 -22    1.75    1.55
  22   4  10    3.11    1.30
 -10   4 -22    4.92    1.54
  10  -4 -22    2.62    1.43
 -10 -22   4    6.91    4.33
 -22 -10  -4    2.30    4.50
 -10 -22   6    3.41    2.16
 -22 -10  -6    5.44    1.67
 -10 -22  -6    3.51    1.76
  10 -22  -6    0.87    1.43
 -22  -6 -10    1.51    1.41
  -6 -22 -10    0.40    1.66
   6 -22 -10    1.89    1.71
  -6 -10 -22    3.08    1.64
 -10  -6 -22    4.23    1.63
   6 -10 -22    2.66    1.58
  10  -6 -22    2.72    1.53
  22  -6 -10    3.68    1.29
 -10   6 -22    1.98    1.53
 -10 -22   6    8.58    3.57
 -22 -10  -6    8.02    4.84
 -22 -10  -8    4.55    1.66
 -10 -22  -8    5.84    1.77
 -22  -8 -10    5.96    1.50
  -8 -22 -10    8.75    1.75
  10 -22  -8    4.05    1.63
   8 -22 -10    9.72    1.75
  22 -10  -8    6.67    1.48
  -8 -10 -22    7.79    1.73
 -10  -8 -22    7.14    1.70
   8 -10 -22    6.47    1.62
  22  -8 -10    6.01    1.40
  10  -8 -22    5.21    1.57
 -10   8 -22    8.24    1.71
 -10 -22   8    2.04    2.81
 -22 -10  -8    0.78    4.62
 -22 -10 -10   78.79    3.55
 -10 -22 -10   82.31    3.65
  10 -22 -10   75.39    3.37
 -10 -10 -22   73.02    3.33
  22 -10 -10   76.39    3.61
  10 -10 -22   76.38    3.29
 -22 -12   0  252.73    7.90
  12 -22   0  250.64    7.92
 -12 -22   0  260.82    8.14
   0 -22 -12  248.24    7.72
 -22   0 -12  258.36    8.17
   0 -12 -22  262.60    8.03
 -12   0 -22  255.58    7.97
 -22 -12   0  255.21    9.70
 -12 -22   0  253.67    9.95
  12 -22   0  231.26    9.36
 -22 -12   2  177.17    6.03
  12 -22   2  159.05    5.74
 -12 -22   2  170.55    5.75
 -22 -12  -2  162.65    5.50
  12 -22  -2  178.02    6.10
 -12 -22  -2  164.53    5.50
 -22  -2 -12  156.39    5.54
  -2 -22 -12  171.82    5.76
   2 -22 -12  169.25    5.48
 -22   2 -12  162.40    5.57
  -2 -12 -22  169.18    5.54
   2 -12 -22  157.79    5.13
 -12  -2 -22  168.68    5.49
 -12   2 -22  158.63    5.27
  12  -2 -22  156.16    5.09
 -22 -12   2  160.89    6.98
  12 -22   2  148.16    7.10
 -22 -12  -2  157.94    7.87
 -12 -22   2  157.28    7.64
 -12 -22  -2  153.30    7.48
  22 -12  -2  149.13    8.19
 -12 -22   4   51.38    2.84
 -22 -12  -4   45.56    2.49
 -12 -22  -4   42.32    2.49
  12 -22  -4   42.80    2.34
  -4 -22 -12   44.65    2.43
   4 -22 -12   50.49    2.55
 -22   4 -12   45.87    2.42
 -12  22  -4   38.74    2.39
  -4 -12 -22   48.56    2.57
 -12  -4 -22   44.45    2.30
   4 -12 -22   52.39    2.65
 -12   4 -22   46.60    2.40
  12  -4 -22   47.34    2.39
 -22 -12   4   48.16    3.41
  22 -12  -4   37.12    4.21
 -12 -22   4   47.96    5.23
 -22 -12  -4   53.28    5.77
 -12 -22  -4   48.95    5.10
 -22   4 -12   53.55    4.64
 -12 -22   6   24.62    2.23
 -22 -12  -6   20.61    2.08
 -12 -22  -6   16.44    2.00
  12 -22  -6   18.29    1.87
 -22  -6 -12   17.11    1.79
  -6 -22 -12   20.84    2.06
 -12  22  -6   13.23    1.61
   6 -22 -12   19.06    2.10
 -22   6 -12   15.65    1.76
  -6 -12 -22   18.56    2.00
 -12  -6 -22   19.28    2.00
   6 -12 -22   15.95    1.85
  12  -6 -22   18.72    1.85
 -12   6 -22   18.07    1.74
  22  -6 -12   16.67    1.69
  22 -12  -6   17.41    2.77
 -12 -22   6   14.36    4.54
 -22 -12  -6   33.64    5.01
 -22 -12  -8   48.85    2.77
 -12 -22  -8   41.41    2.58
  12 -22  -8   48.67    2.60
 -22  -8 -12   52.30    2.73
  -8 -22 -12   50.10    2.78
   8 -22 -12   48.20    2.63
 -22   8 -12   45.69    2.82
  22 -12  -8   44.82    2.53
  -8 -12 -22   41.16    2.48
 -12  -8 -22   44.33    2.54
   8 -12 -22   47.86    2.63
  22  -8 -12   42.43    2.38
  12  -8 -22   51.11    2.55
 -12   8 -22   52.15    2.77
 -12 -22   8   38.54    3.55
 -22 -12  -8   43.84    4.86
 -22 -12 -10  153.70    5.82
 -12 -22 -10  146.67    5.71
 -22 -10 -12  146.18    5.62
 -10 -22 -12  137.91    5.38
  12 -22 -10  155.78    6.04
  10 -22 -12  165.11    6.27
 -22  10 -12  151.77    6.36
  22 -12 -10  157.51    6.31
 -10 -12 -22  147.84    5.61
 -12 -10 -22  144.17    5.55
  22 -10 -12  144.94    5.64
  10 -12 -22  152.54    5.69
  12 -10 -22  146.86    5.58
 -12  10 -22  151.77    5.77
 -22 -12 -12  224.15    7.61
 -12 -22 -12  217.56    7.07
  12 -22 -12  228.50    7.58
 -12 -12 -22  206.99    6.76
  22 -12 -12  228.43    7.83
  12 -12 -22  215.99    7.00
  14 -22   0  172.62    6.94
 -22 -14   0  168.52    6.36
 -14 -22   0  164.19    6.32
   0 -22 -14  145.81    5.44
 -22   0 -14  170.39    6.69
   0 -14 -22  172.35    6.36
 -14   0 -22  157.19    6.12
 -22 -14   0  148.69    7.70
 -14 -22   0  169.87    8.60
  14 -22   0  153.98    7.75
 -22 -14   2  103.94    4.48
 -14 -22   2   94.07    4.14
 -22 -14  -2  104.72    4.35
  14 -22  -2  100.16    4.30
 -14 -22  -2   91.69    4.01
  -2 -22 -14   99.04    4.13
   2 -22 -14  105.76    4.31
 -22  -2 -14  103.26    4.26
 -22   2 -14  104.98    4.49
  -2 -14 -22   97.22    4.10
   2 -14 -22  102.93    4.22
 -14  -2 -22  102.16    4.23
 -14   2 -22   99.12    4.10
  14  -2 -22  105.64    4.20
 -22 -14   2   96.96    5.88
  14 -22   2  101.86    5.84
 -14 -22   2  103.27    7.02
 -22 -14  -2   93.18    6.27
 -14 -22  -2   94.67    6.26
 -14 -22   4   26.33    2.38
 -22 -14  -4   18.89    2.04
  14 -22  -4   21.65    2.03
  -4 -22 -14   24.89    2.13
 -22  -4 -14   18.90    2.09
   4 -22 -14   20.86    2.14
 -14  22  -4   19.26    1.79
 -22   4 -14   17.55    1.75
  -4 -14 -22   24.23    2.11
 -14  -4 -22   25.92    1.99
   4 -14 -22   22.61    2.03
 -14   4 -22   26.25    2.10
  14  -4 -22   18.92    1.89
  22  -4 -14   20.62    1.84
 -22 -14   4   23.50    3.27
  22 -14  -4   17.69    3.47
 -14 -22   4   23.47    4.29
 -22 -14  -4   31.70    5.42
 -14 -22  -4   23.52    4.75
 -22 -14  -6    1.89    1.79
 -14 -22  -6    4.46    1.86
  14 -22  -6    5.66    1.51
  -6 -22 -14   -0.34    1.73
 -22  -6 -14    3.61    1.58
   6 -22 -14    2.51    1.82
 -22   6 -14    4.01    1.59
  -6 -14 -22    3.47    1.87
 -14  -6 -22    5.29    1.74
   6 -14 -22    3.74    1.86
 -14   6 -22    7.24    1.67
  14  -6 -22    2.12    1.64
  22  -6 -14    5.63    1.60
 -14 -22   6    7.06    3.81
 -22 -14  -6    8.19    4.82
 -22 -14  -8   20.84    1.89
 -14 -22  -8   11.53    1.84
  14 -22  -8   17.70    1.79
 -22  -8 -14   13.54    1.83
  22 -14  -8   15.47    1.83
   8 -22 -14   15.60    1.89
  -8 -14 -22   10.27    1.90
 -22   8 -14   18.80    1.83
 -14  -8 -22   20.38    2.15
   8 -14 -22   17.51    1.90
  22  -8 -14   14.86    1.74
  14  -8 -22   17.30    1.71
 -14   8 -22   20.03    1.92
 -14 -22   8   18.64    2.90
 -22 -14  -8    3.11    4.58
 -22 -14 -10   75.77    3.31
 -14 -22 -10   74.94    3.22
  14 -22 -10   79.14    3.50
 -10 -22 -14   79.55    3.39
 -22 -10 -14   81.87    6.10
  10 -22 -14   82.23    3.41
  22 -14 -10   83.29    3.51
 -10 -14 -22   77.57    3.32
 -14 -10 -22   79.05    3.26
 -22  10 -14   83.75    3.64
  10 -14 -22   81.11    3.26
  22 -10 -14   85.38    3.60
  14 -10 -22   84.02    3.37
 -14  10 -22   80.23    3.41
 -22 -14 -12  131.39    6.44
 -14 -22 -12  131.34    6.43
 -12 -22 -14  140.90    6.87
 -22 -12 -14  123.48    6.10
  14 -22 -12  133.93    6.63
  12 -22 -14  144.15    7.02
 -12 -14 -22  133.01    6.49
 -14 -12 -22  130.04    6.45
  22 -14 -12  144.91    7.19
 -22  12 -14  135.67    6.99
  22 -12 -14  145.54    7.20
  12 -14 -22  129.60    6.30
  14 -12 -22  124.11    6.03
 -14  12 -22  142.04    7.07
 -22 -14 -14   92.28    4.93
 -14 -22 -14   89.28    4.69
  14 -22 -14   89.35    4.74
 -14 -14 -22   87.60    4.73
  22 -14 -14   84.87    4.59
  14 -14 -22   80.68    4.33
  16 -22   0   27.32    2.23
 -22 -16   0   29.71    2.40
 -16 -22   0   31.74    2.41
   0 -22 -16   27.65    2.20
 -22   0 -16   28.68    1.99
   0 -16 -22   36.67    2.30
 -16   0 -22   31.57    2.16
 -22 -16   0   11.96    4.82
 -16 -22   0   15.99    5.11
 -22 -16   2    8.71    2.09
 -16 -22   2    4.04    1.80
  16 -22  -2    9.47    1.72
 -22 -16  -2    5.82    1.73
 -16 -22  -2    1.96    1.73
  -2 -22 -16    6.57    1.85
 -22  -2 -16    9.37    1.72
 -22   2 -16    9.47    1.71
  -2 -16 -22    4.88    1.72
   2 -16 -22    7.25    1.79
 -16  -2 -22    8.55    1.73
 -16   2 -22    7.44    1.77
  16  -2 -22    9.03    1.70
 -22 -16   2    2.12    4.09
 -16 -22   2   11.29    4.42
 -22 -16  -2   12.66    4.78
 -16 -22  -2    0.80    4.85
 -16 -22   4    2.84    2.11
 -22 -16  -4    5.15    1.80
 -16 -22  -4    6.39    2.08
  -4 -22 -16    9.85    1.93
 -22  -4 -16    5.28    1.61
   4 -22 -16    2.53    1.77
 -22   4 -16    6.37    1.65
  -4 -16 -22    9.19    1.88
   4 -16 -22    6.99    1.68
 -16  -4 -22    6.55    1.71
 -16   4 -22    6.42    1.75
  16  -4 -22    1.92    1.61
  22  -4 -16    6.48    1.57
 -22 -16   4    0.35    3.82
 -16 -22   4    6.20    4.24
 -22 -16  -4    6.01    4.99
 -16 -22  -4   12.07    4.44
 -22 -16  -6   27.77    2.09
  22 -16  -6   27.51    2.10
 -16 -22  -6   28.26    2.16
  16 -22  -6   30.62    2.20
  -6 -22 -16   31.61    3.41
 -22  -6 -16   33.39    2.31
   6 -22 -16   25.42    1.97
  -6 -16 -22   27.38    2.36
 -22   6 -16   32.81    2.18
 -16  -6 -22   30.90    2.23
   6 -16 -22   29.69    2.17
 -16   6 -22   30.05    2.18
  16  -6 -22   23.12    2.05
  22  -6 -16   29.80    2.01
 -16 -22   6   20.09    3.90
 -22 -16  -6   40.99    5.41
 -16 -22  -6   26.56    4.79
 -22 -16  -8   11.34    1.91
 -16 -22  -8    7.55    1.76
  16 -22  -8   13.89    1.67
  22 -16  -8   10.92    1.56
 -22  -8 -16    8.92    1.76
  -8 -22 -16   10.40    2.02
   8 -22 -16   11.32    1.85
  -8 -16 -22    7.61    1.74
 -16  -8 -22   15.04    1.89
 -22   8 -16   11.57    1.68
   8 -16 -22   10.65    1.86
  22  -8 -16   13.96    1.81
  16  -8 -22   11.43    1.80
 -16   8 -22   12.77    1.85
 -22 -16  -8   13.81    4.99
 -22 -16 -10   -2.25    1.76
 -16 -22 -10    5.35    2.03
  16 -22 -10    1.16    1.68
 -10 -22 -16    0.53    1.86
 -22 -10 -16    0.43    1.79
  10 -22 -16    4.10    1.74
 -10 -16 -22   -2.71    1.65
 -16 -10 -22   -3.09    1.89
  10 -16 -22   -0.30    1.69
  22 -10 -16    1.50    1.65
  16 -10 -22    6.25    1.66
 -16  10 -22    2.92    1.61
 -22 -16 -12   20.48    2.22
 -16 -22 -12   22.98    2.34
 -12 -22 -16   15.92    2.03
 -22 -12 -16   26.04    2.31
  16 -22 -12   24.49    2.30
  12 -22 -16   21.37    2.17
  22 -16 -12   24.39    2.07
 -12 -16 -22   22.77    2.30
 -16 -12 -22   13.65    2.06
  12 -16 -22   21.28    2.12
  22 -12 -16   26.50    2.29
  16 -12 -22   24.08    2.23
 -16  12 -22   23.17    2.19
 -22 -16 -14    6.46    1.77
 -16 -22 -14    7.99    1.80
 -14 -22 -16    4.29    1.96
 -22 -14 -16    9.62    1.79
  16 -22 -14   13.06    2.10
  14 -22 -16   12.30    1.89
 -16 -14 -22    7.17    1.99
 -14 -16 -22    2.15    1.77
  22 -16 -14    9.04    1.91
  22 -14 -16    6.13    1.83
  14 -16 -22   12.60    1.88
  16 -14 -22    7.82    1.79
 -16  14 -22    9.56    1.84
 -16 -22 -16    2.79    1.96
 -22 -16 -16   -2.47    1.93
  16 -22 -16    1.38    1.78
 -16 -16 -22   -2.24    2.02
  22 -16 -16    2.09    1.56
  16 -16 -22    4.41    1.77
 -16  16 -22    6.31    1.85
 -22 -18   0    0.51    1.73
 -18 -22   0    1.76    1.95
   0 -22 -18    4.09    1.83
 -22   0 -18    3.82    1.79
   0 -18 -22    4.54    1.86
 -18   0 -22   -0.74    1.60
 -22 -18   0    6.47    4.99
 -18 -22   0   16.89    5.48
 -22 -18   2   13.03    2.29
  18 -22  -2    9.30    1.90
 -18 -22   2    7.86    2.06
 -22 -18  -2    9.38    2.02
 -18 -22  -2    9.95    2.07
  -2 -22 -18    8.29    2.03
   2 -22 -18    8.32    1.69
 -22  -2 -18    8.71    1.80
  -2 -18 -22   10.81    1.81
   2 -18 -22    9.64    1.90
 -18  -2 -22   10.39    1.85
 -18   2 -22    8.66    1.81
  18  -2 -22    5.28    1.69
 -22 -18   2    8.01    3.83
 -18 -22   2   13.39    4.37
 -22 -18  -2   21.23    5.10
 -18 -22  -2    8.26    5.01
 -18 -22   4   57.53    3.57
  18 -22  -4   70.68    4.14
 -22 -18  -4   59.48    3.47
 -18 -22  -4   56.25    3.47
  -4 -22 -18   64.17    3.69
 -22  -4 -18   66.23    3.88
   4 -22 -18   58.01    3.41
  -4 -18 -22   59.36    3.41
   4 -18 -22   64.88    3.69
 -22   4 -18   64.07    3.72
 -18  -4 -22   56.43    3.34
 -18   4 -22   58.01    3.47
  18  -4 -22   61.50    3.47
  22  -4 -18   62.10    3.71
 -22 -18   4   69.61    5.20
 -18 -22   4   50.79    4.88
 -22 -18  -4   70.03    6.54
 -18 -22  -4   56.60    5.67
 -22 -18  -6  115.66    5.95
 -18 -22  -6  105.72    5.32
  18 -22  -6  101.27    5.38
  -6 -22 -18  111.79    5.63
 -22  -6 -18  106.04    5.43
   6 -22 -18   98.73    5.19
  -6 -18 -22  105.69    5.33
 -18  -6 -22  102.45    5.23
   6 -18 -22  111.36    5.65
 -22   6 -18  114.13    6.04
 -18   6 -22  105.46    5.43
  18  -6 -22  103.45    5.21
  22  -6 -18  106.00    5.48
 -18 -22   6   85.56    5.58
 -22 -18  -6   90.91    7.17
 -18 -22  -6   94.37    6.88
 -22 -18  -8   62.47    3.73
 -18 -22  -8   65.41    3.76
  18 -22  -8   65.42    3.88
  -8 -22 -18   57.60    3.45
 -22  -8 -18   55.37    3.24
   8 -22 -18   59.89    3.53
  -8 -18 -22   60.94    3.46
 -18  -8 -22   56.75    3.35
   8 -18 -22   57.16    3.35
 -22   8 -18   61.83    3.88
 -18   8 -22   63.41    3.68
  22  -8 -18   61.95    3.53
  18  -8 -22   60.91    3.43
 -22 -18  -8   68.48    6.30
 -18 -22  -8   60.46    5.92
 -22 -18 -10    7.75    1.91
 -18 -22 -10    9.57    2.08
  18 -22 -10    3.80    1.52
 -10 -22 -18   13.83    2.02
 -22 -10 -18    7.22    1.89
 -10 -18 -22   11.55    1.99
  10 -22 -18    5.08    1.83
 -18 -10 -22    8.09    1.82
  10 -18 -22    6.87    1.77
 -22  10 -18    5.36    1.68
  22 -10 -18   11.69    1.85
  18 -10 -22    4.86    1.66
 -18  10 -22    9.57    1.93
 -22 -18 -10    8.58    4.38
 -22 -18 -12    0.52    1.65
 -18 -22 -12   -0.86    1.88
  18 -22 -12    5.59    1.83
 -12 -22 -18   -0.80    1.90
 -22 -12 -18    1.05    1.60
  22 -18 -12    0.48    1.67
 -12 -18 -22    0.19    1.88
 -18 -12 -22    1.80    1.69
  12 -22 -18    2.41    1.90
  12 -18 -22    2.25    1.66
  22 -12 -18    2.78    1.74
  18 -12 -22   -1.21    1.65
 -18  12 -22   -3.22    1.86
 -22 -18 -14    0.48    1.86
 -18 -22 -14   -4.27    1.68
 -22 -14 -18    0.52    1.84
 -14 -22 -18    0.05    2.02
  18 -22 -14    1.03    1.69
 -14 -18 -22   -4.12    1.69
 -18 -14 -22    6.59    1.90
  22 -18 -14   -0.89    1.73
  14 -22 -18    3.19    1.78
  14 -18 -22    3.47    1.54
  22 -14 -18    7.13    1.69
  18 -14 -22    3.62    1.72
 -18  14 -22   -0.52    1.91
 -18 -22 -16   18.70    2.38
 -22 -18 -16   23.62    3.47
 -16 -22 -18   19.77    2.12
 -22 -16 -18   20.80    2.32
 -18 -16 -22   20.95    2.30
 -16 -18 -22   23.31    2.37
  18 -22 -16   27.31    2.55
  16 -22 -18   27.70    2.46
  22 -18 -16   24.38    2.41
  22 -16 -18   25.27    2.42
  16 -18 -22   24.81    2.27
  18 -16 -22   18.38    2.11
 -18  16 -22   19.26    2.17
 -18 -22 -18   48.12    3.78
 -22 -18 -18   53.08    4.10
 -18 -18 -22   47.40    3.93
  18 -22 -18   45.56    3.61
  22 -18 -18   45.88    3.82
  18 -18 -22   45.23    3.69
 -18  18 -22   50.03    4.01
 -22 -20   0    5.45    2.01
 -20 -22   0    2.07    1.94
   0 -22 -20    4.50    1.87
   0 -20 -22    1.48    1.87
 -22   0 -20    5.29    1.66
 -20   0 -22    0.54    1.63
 -22 -20   0   19.52    4.51
 -20 -22   0    6.62    4.72
 -22 -20   2    1.95    1.99
 -20 -22   2    2.40    1.98
 -22 -20  -2   -0.23    1.89
 -20 -22  -2    2.20    1.88
  -2 -22 -20    1.60    1.87
   2 -22 -20   -2.72    1.54
  -2 -20 -22   -3.02    1.74
 -22  -2 -20    2.51    1.58
   2 -20 -22    0.54    1.59
 -20  -2 -22    0.39    1.47
 -22   2 -20   -2.20    1.75
 -20   2 -22   -1.32    1.67
  20  -2 -22    0.89    1.71
 -22 -20   2    2.81    4.20
 -20 -22   2    2.81    3.88
 -22 -20  -2   -3.97    4.77
 -20 -22  -2   -8.95    5.01
 -20 -22   4   25.00    2.38
 -22 -20  -4   21.97    2.33
 -20 -22  -4   22.34    2.16
  -4 -22 -20   19.27    2.16
   4 -22 -20   18.57    2.13
 -22  -4 -20   20.46    2.08
  -4 -20 -22   18.24    1.96
   4 -20 -22   22.15    2.27
 -20  -4 -22   26.97    2.33
 -22   4 -20   17.56    2.10
 -20   4 -22   17.43    2.03
  20  -4 -22   23.98    2.21
  22  -4 -20   18.10    1.92
 -22 -20   4   19.30    3.66
 -20 -22   4   27.85    4.56
 -22 -20  -4   11.11    5.17
 -20 -22  -4   26.73    4.84
 -22 -20  -6   51.91    3.36
 -20 -22  -6   49.86    3.22
  -6 -22 -20   45.67    3.04
 -22  -6 -20   50.06    3.13
  -6 -20 -22   44.93    2.88
   6 -22 -20   56.72    3.44
 -20  -6 -22   48.92    3.13
   6 -20 -22   51.36    3.17
 -22   6 -20   49.52    3.61
 -20   6 -22   51.70    3.47
  20  -6 -22   48.82    3.03
  22  -6 -20   44.58    2.86
 -22 -20   6   50.34    4.01
 -20 -22   6   43.34    3.98
 -22 -20  -6   36.41    5.64
 -20 -22  -6   51.05    6.46
 -22 -20  -8   29.49    2.35
 -20 -22  -8   28.10    2.36
  -8 -22 -20   27.51    2.29
 -22  -8 -20   27.98    2.28
  -8 -20 -22   27.55    2.33
 -20  -8 -22   25.22    2.16
   8 -22 -20   25.29    2.17
   8 -20 -22   26.49    2.20
 -22   8 -20   24.19    2.19
 -20   8 -22   31.61    2.38
  20  -8 -22   20.60    1.93
  22  -8 -20   27.95    2.14
 -22 -20  -8   38.13    5.71
 -20 -22  -8   25.04    5.37
 -22 -20 -10    2.68    1.82
 -20 -22 -10    2.85    1.67
 -10 -22 -20   -1.04    1.83
 -22 -10 -20    8.46    1.85
 -10 -20 -22   -5.28    1.89
 -20 -10 -22    1.54    1.58
  10 -22 -20    4.08    1.72
  10 -20 -22    8.48    1.79
 -22  10 -20    2.98    1.67
  22 -10 -20    0.65    1.53
  20 -10 -22    0.45    1.61
 -22 -20 -10   -2.83    4.27
 -20 -22 -12    4.89    1.76
 -22 -20 -12    3.53    1.90
  20 -22 -12    0.52    1.68
 -12 -22 -20    3.18    1.69
 -22 -12 -20    1.59    1.65
 -12 -20 -22    1.76    1.69
 -20 -12 -22    4.82    1.87
  12 -22 -20    4.13    1.56
  12 -20 -22   -3.15    1.72
  22 -12 -20    2.17    1.80
  20 -12 -22    4.68    1.70
 -20  12 -22    2.60    1.80
 -20 -22 -14   -3.39    1.87
 -22 -20 -14    1.12    1.91
 -22 -14 -20    4.43    1.87
 -14 -22 -20   -5.18    1.98
 -14 -20 -22    0.44    1.69
 -20 -14 -22    2.19    1.99
  14 -22 -20    0.43    1.74
  14 -20 -22   -5.64    1.70
  22 -14 -20   -0.68    1.84
  20 -14 -22    6.05    1.80
 -20  14 -22   -0.04    1.72
 -22 -20 -16    9.53    2.19
 -20 -22 -16    7.77    2.08
 -22 -16 -20    5.50    1.78
 -16 -22 -20    5.23    2.12
 -20 -16 -22   15.34    2.29
 -16 -20 -22   10.74    1.98
  20 -22 -16   10.08    2.11
  16 -22 -20   11.84    1.99
  16 -20 -22    6.47    1.69
  22 -16 -20   10.32    1.86
  20 -16 -22   11.07    1.93
 -20 -22 -18   18.59    2.19
 -22 -20 -18   21.22    2.45
 -18 -22 -20   20.53    2.28
 -22 -18 -20   22.48    2.49
 -20 -18 -22   27.91    2.72
 -18 -20 -22   21.07    2.45
  20 -22 -18   23.27    2.39
  18 -22 -20   23.60    2.46
  18 -20 -22   23.18    2.47
  22 -18 -20   26.86    2.69
  20 -18 -22   26.05    2.55
 -20 -22 -20    5.60    2.39
 -22 -20 -20   11.01    3.33
 -20 -20 -22   14.06    3.90
  20 -20 -22   12.52    3.57
 -22 -22   0   71.16    3.67
   0 -22 -22   68.38    3.46
 -22   0 -22   69.92    3.63
 -22 -22   0   56.34    5.41
 -22 -22   2   44.09    3.07
 -22 -22  -2   39.26    2.77
  -2 -22 -22   40.48    2.64
   2 -22 -22   43.01    2.67
 -22  -2 -22   38.29    2.43
 -22   2 -22   44.49    2.85
  22  -2 -22   42.37    2.66
 -22 -22   2   48.66    5.02
 -22 -22  -2   42.84    5.27
 -22 -22  -4   13.81    2.19
  -4 -22 -22    6.42    1.74
   4 -22 -22    9.38    1.69
 -22  -4 -22    6.01    1.84
 -22   4 -22    7.62    1.75
  22  -4 -22    6.53    1.81
 -22 -22   4   15.96    3.86
 -22 -22  -4   21.07    5.47
 -22 -22  -6    2.13    1.66
  -6 -22 -22    1.96    1.67
 -22  -6 -22    2.64    1.73
   6 -22 -22   -0.44    1.77
 -22   6 -22    2.70    1.56
  22  -6 -22    4.09    1.65
 -22 -22   6    1.50    2.49
 -22 -22  -6   -3.60    4.51
 -22 -22  -8    5.47    1.76
  -8 -22 -22    5.75    1.72
 -22  -8 -22    0.85    1.76
   8 -22 -22    2.74    2.02
 -22   8 -22    2.31    1.80
  22  -8 -22    0.81    1.63
 -22 -22  -8    0.59    5.48
 -22 -22 -10   16.17    2.23
 -10 -22 -22   18.78    2.02
 -22 -10 -22   20.28    2.20
  10 -22 -22   18.88    2.08
  22 -10 -22   18.77    2.01
 -22 -22 -10   16.82    4.68
 -22 -22 -12   30.48    2.92
 -12 -22 -22   34.95    3.06
 -22 -12 -22   38.31    3.23
  12 -22 -22   30.87    2.69
  22 -12 -22   42.59    3.42
 -22 -22 -14   21.61    2.32
 -14 -22 -22   18.20    2.35
 -22 -14 -22   16.87    4.54
  14 -22 -22   18.31    2.24
  22 -14 -22   20.29    2.28
 -22 -22 -16    3.25    2.15
 -22 -16 -22   -3.19    1.68
 -16 -22 -22    5.70    2.21
  16 -22 -22   -3.79    1.82
  22 -16 -22    4.35    1.93
 -22 -18 -22    0.96    1.82
  18 -22 -22   -1.01    6.16
 -22 -22 -20    7.89    2.96
 -20 -22 -22   -0.49    2.09
 -22 -20 -22   -2.36    2.05
 -22 -22 -22   11.89    3.12
  -1 -23   1  664.43   18.36
   1 -23   1  681.86   18.55
  -1 -23  -1  672.28   18.42
   1 -23  -1  678.73   18.54
  23   1  -1  612.30   17.25
  23  -1  -1  659.77   18.47
  23   1   1  624.78   17.69
  23  -1   1  627.07   17.62
  -1  -1 -23  654.44   17.74
   1  -1 -23  657.11   17.79
  -1   1 -23  676.72   18.44
   1   1 -23  650.40   17.60
   1 -23   1  599.66   18.39
  -1 -23   1  672.94   20.22
  -1 -23  -1  653.78   19.70
 -23  -1  -3  332.74   10.34
   1 -23   3  335.94    9.79
  -1 -23   3  332.76    9.70
   3 -23   1  342.99    9.88
  -3 -23   1  346.65   10.16
  -3 -23  -1  337.21    9.72
   3 -23  -1  333.21    9.71
  -1 -23  -3  327.91    9.46
   1 -23  -3  345.70    9.90
  23   1  -3  327.46    9.81
  23  -1  -3  329.50    9.97
  23   3  -1  321.63    9.68
  23   3   1  315.77    9.36
  23  -3  -1  339.34   10.40
  23   1   3  309.37    9.56
  23  -1   3  330.72   10.07
  -1  -3 -23  320.71    9.21
  -3  -1 -23  318.29    9.18
   1  -3 -23  327.66    9.42
  -3   1 -23  333.21    9.72
   3  -1 -23  341.90    9.84
  -1   3 -23  320.80    9.37
 -23  -3  -1  340.79   11.05
 -23  -1  -3  338.28   11.23
  -1 -23   3  322.14   11.74
   1 -23   3  304.67   10.95
  -3 -23   1  323.11   11.35
   3 -23   1  323.49   11.35
  -3 -23  -1  319.51   10.96
  23  -1  -3  287.31   10.95
 -23  -3  -3  128.03    4.45
   3 -23   3  128.46    4.58
  -3 -23   3  118.12    4.16
   3 -23  -3  118.09    4.12
  -3 -23  -3  126.80    4.29
  23   3  -3  120.19    4.43
  23  -3  -3  133.47    4.88
  23   3   3  120.09    4.48
  -3  -3 -23  127.97    4.24
   3  -3 -23  129.41    4.28
  -3   3 -23  127.32    4.42
 -23  -3  -3  125.67    6.18
  -3 -23   3  119.88    6.44
   3 -23   3  120.25    6.27
  23  -3  -3  121.08    6.34
 -23  -5  -1  114.06    4.20
   1 -23   5  120.27    4.32
  -1 -23   5  121.17    4.33
 -23   1  -5  118.93    4.54
 -23  -1  -5  115.31    4.14
   5 -23   1  123.69    4.34
  -5 -23   1  116.33    4.09
   5 -23  -1  109.19    3.93
  -5 -23  -1  106.71    3.83
  -1 -23  -5  115.51    4.04
  23   1  -5  113.50    4.31
   1 -23  -5  120.33    4.16
  23  -1  -5  117.07    4.38
  23   5  -1  108.29    3.99
  23   5   1  104.40    4.03
  23   1   5  112.66    4.20
  -1  -5 -23  112.61    3.88
   1  -5 -23  118.42    4.03
  -5  -1 -23  122.39    4.12
  23  -1   5  117.36    4.37
  -5   1 -23  116.88    3.98
   5  -1 -23  118.26    3.94
 -23  -5  -1  114.37    5.48
 -23   1  -5  111.33    5.43
   1 -23   5  107.90    5.68
  -1 -23   5  118.09    6.12
  -5 -23   1  111.28    6.37
   5 -23   1  109.89    6.01
  -5 -23  -1  123.82    6.42
   3 -23   5   22.64    2.17
  -3 -23   5   16.38    2.07
   5 -23   3   19.47    1.97
 -23  -5  -3   20.87    1.86
  -5 -23   3   22.30    2.22
 -23  -3  -5   21.68    1.83
  -5 -23  -3   24.68    2.07
   5 -23  -3   21.35    2.02
  -3 -23  -5   24.90    2.02
  23  -3  -5   23.07    1.81
   3 -23  -5   20.67    1.88
  23   3  -5   22.84    1.75
  23   5  -3   22.06    1.76
  23   5   3   18.49    1.58
  23   3   5   23.17    1.72
  -3  -5 -23   21.84    1.91
  -5  -3 -23   24.53    1.93
   3  -5 -23   23.14    1.82
   5  -3 -23   23.99    1.90
  -5   3 -23   23.47    2.01
   3 -23   5   22.84    3.53
  -3 -23   5   24.75    4.44
 -23  -5  -3   14.12    4.01
 -23  -3  -5   28.38    4.58
   5 -23   3   30.79    4.14
  -5 -23   3   21.00    4.29
  23  -3  -5   21.59    4.31
  23  -5  -3   14.85    3.27
   5 -23   5    5.40    1.76
  -5 -23   5    7.61    1.77
 -23  -5  -5    4.75    1.39
  -5 -23  -5    6.49    1.73
   5 -23  -5    5.92    1.46
  23   5  -5    4.17    1.38
  23   5   5    3.57    1.32
  -5  -5 -23    2.36    1.47
   5  -5 -23    2.01    1.72
  -5   5 -23    3.97    1.58
   5 -23   5   -1.00    2.79
  -5 -23   5    1.84    3.82
 -23  -5  -5    2.26    4.02
  23  -5  -5    6.48    3.77
 -23  -7  -1   86.74    3.50
   7 -23   1   89.97    3.48
  -7 -23   1   83.78    3.37
   7 -23  -1   80.10    3.25
  -7 -23  -1   80.35    3.29
  23  -1  -7   83.07    3.41
 -23   1  -7   85.38    3.38
 -23  -1  -7   80.65    3.15
  23   1  -7   77.22    3.34
  -1 -23  -7   80.88    3.20
   1 -23  -7   88.44    3.38
  -1  -7 -23   77.65    3.01
   1  -7 -23   78.04    3.00
  -7  -1 -23   79.60    3.08
  23   1   7   79.88    3.26
  -7   1 -23   82.35    3.17
  23  -1   7   73.22    3.08
   7  -1 -23   90.83    3.33
 -23  -7   1   97.03    4.74
   1 -23   7   82.15    4.45
  -1 -23   7   89.40    4.86
 -23  -7  -1   89.00    5.22
 -23   1  -7   79.30    5.21
 -23  -1  -7   78.18    5.43
  -7 -23   1   82.07    5.77
   7 -23   1   90.80    5.64
  -7 -23  -1   93.75    5.91
   7 -23   3   11.61    1.79
  -7 -23   3   19.56    2.25
 -23  -7  -3    9.99    1.73
  23  -3  -7   12.12    1.72
   7 -23  -3   11.08    1.62
 -23  -3  -7   15.69    1.73
  -7 -23  -3   13.02    1.74
  23   3  -7   13.75    1.67
  -3 -23  -7    6.99    1.76
   3 -23  -7   12.09    1.72
  -3  -7 -23   11.68    1.66
  23   3   7   14.01    1.53
  -7  -3 -23   15.11    1.62
   3  -7 -23   12.29    1.75
  -7   3 -23   10.57    1.56
   7  -3 -23   16.07    1.75
   3 -23   7   12.50    2.52
  -3 -23   7   18.28    3.49
 -23   3  -7    9.96    3.44
 -23  -7  -3    3.82    4.10
   7 -23   3   12.88    3.86
 -23  -3  -7   15.78    4.75
  23  -7  -3   15.95    3.72
  -7 -23   5    9.28    1.97
  23  -5  -7   10.26    1.59
 -23  -7  -5   10.17    1.76
 -23  -5  -7    9.10    1.51
  -7 -23  -5   10.72    1.73
   7 -23  -5   12.80    1.65
  -5 -23  -7   12.69    1.83
   5 -23  -7    8.39    1.64
  23   5   7    7.10    1.36
  -5  -7 -23   13.09    1.77
  -7  -5 -23    7.10    1.68
   5  -7 -23    7.96    1.64
   7  -5 -23    5.29    1.60
  23  -5  -7    9.01    1.40
  -7   5 -23    8.69    1.62
  -5 -23   7    5.13    3.16
   7 -23   5    5.07    3.18
 -23  -7  -5   12.93    4.69
 -23  -5  -7    9.42    4.20
 -23  -7  -7   16.75    1.93
  -7 -23  -7   12.89    1.73
   7 -23  -7   14.38    1.80
  -7  -7 -23   15.82    1.80
   7  -7 -23   17.22    1.88
  -7   7 -23   15.39    1.77
  -7 -23   7   13.16    3.35
  23  -7  -7    9.62    3.63
 -23  -7  -7    4.00    4.63
 -23  -9  -1  132.13    4.67
   9 -23   1  140.95    4.90
  23  -1  -9  138.57    5.18
  -9 -23   1  127.05    4.45
  23   1  -9  130.81    5.17
   9 -23  -1  146.58    5.77
  -9 -23  -1  133.56    4.58
 -23  -1  -9  137.67    4.88
 -23   1  -9  136.11    4.83
  -1 -23  -9  133.80    4.63
   1 -23  -9  135.74    4.61
  -1  -9 -23  137.89    4.59
   1  -9 -23  133.43    4.69
  -9  -1 -23  141.18    4.88
  -9   1 -23  121.35    4.18
  23   1   9  118.21    4.39
   9  -1 -23  132.44    4.38
 -23  -9   1  140.77    6.32
 -23  -9  -1  130.45    6.38
  -9 -23   1  125.50    6.96
 -23   1  -9  137.97    7.34
   9 -23   1  133.55    6.69
 -23  -1  -9  132.74    7.14
  -9 -23  -1  132.37    7.12
   9 -23   3   42.30    2.57
  23  -3  -9   41.01    2.58
  -9 -23   3   44.60    2.64
 -23  -9  -3   42.48    2.36
   9 -23  -3   35.09    2.14
  -9 -23  -3   45.56    2.43
 -23   3  -9   40.45    2.21
 -23  -3  -9   39.15    2.24
  -3 -23  -9   39.77    2.34
   3 -23  -9   39.71    2.28
  -3  -9 -23   43.88    2.28
  -9  -3 -23   39.20    2.27
   3  -9 -23   39.49    2.38
  23   3   9   36.72    2.08
  -9   3 -23   43.31    2.29
   9  -3 -23   39.15    2.22
   9 -23   3   38.20    4.18
  -9 -23   3   33.87    4.91
 -23  -9  -3   40.52    5.30
 -23   3  -9   40.91    4.54
  23  -9  -3   35.40    4.28
 -23  -3  -9   40.96    4.70
  -9 -23  -3   47.28    4.51
  -9 -23   5    6.84    2.12
 -23  -9  -5    1.35    1.52
  -9 -23  -5    5.37    1.83
   9 -23  -5    4.03    1.52
 -23  -5  -9    2.34    1.39
  -5 -23  -9   -3.71    1.66
   5 -23  -9    2.04    1.59
  -5  -9 -23   -1.18    1.67
  -9  -5 -23    6.71    1.53
   5  -9 -23    1.56    1.48
   9  -5 -23    1.24    1.47
  -9   5 -23    5.72    1.47
   9 -23   5    2.46    2.18
  -9 -23   5    4.25    3.95
 -23  -9  -5    3.01    4.52
 -23  -5  -9   -4.22    4.35
 -23  -9  -7    3.65    1.53
  -9 -23  -7    2.50    1.68
 -23  -7  -9    2.41    1.55
   9 -23  -7   -0.11    1.48
  -7 -23  -9    0.75    1.59
   7 -23  -9    2.08    1.54
  -7  -9 -23    3.88    1.83
  -9  -7 -23    3.70    1.71
   7  -9 -23    4.86    1.61
   9  -7 -23    2.20    1.47
  -9   7 -23    3.36    1.69
  -9 -23   7    4.18    3.07
  23  -9  -7    0.13    3.29
 -23  -9  -7   -7.81    4.37
 -23  -7  -9    9.47    4.23
 -23  -9  -9   33.22    2.18
  -9 -23  -9   23.91    1.98
   9 -23  -9   26.56    2.09
  -9  -9 -23   28.86    2.07
  23  -9  -9   34.76    2.16
   9  -9 -23   32.65    2.23
 -23  -9  -9   34.93    4.79
 -23 -11   1  327.26    9.97
  23  -1 -11  300.22   10.04
  11 -23   1  316.48    9.80
 -23 -11  -1  336.38   10.19
 -11 -23   1  332.15    9.99
  11 -23  -1  325.67    9.94
 -11 -23  -1  298.39    8.89
 -23  -1 -11  308.83    9.55
 -23   1 -11  335.35   10.26
  -1 -23 -11  326.77    9.82
   1 -23 -11  343.64   10.28
  -1 -11 -23  327.74    9.89
   1 -11 -23  319.45    9.58
 -11  -1 -23  320.81    9.70
 -11   1 -23  316.34    9.44
  11  -1 -23  298.34    8.90
 -23 -11   1  305.51   10.74
 -23 -11  -1  295.01   10.91
 -11 -23   1  278.68   10.50
  11 -23   1  312.73   12.00
 -11 -23  -1  326.05   12.33
 -23   1 -11  312.09   11.98
 -23  -1 -11  317.06   12.99
  23  -3 -11  159.34    6.93
 -11 -23   3  156.53    5.40
 -23 -11  -3  169.56    6.47
 -11 -23  -3  174.42    6.45
  11 -23  -3  189.93    7.01
 -23  -3 -11  169.83    6.54
  -3 -23 -11  163.87    6.12
 -23   3 -11  174.94    6.92
   3 -23 -11  161.38    5.40
  -3 -11 -23  173.16    6.44
   3 -11 -23  170.29    6.34
 -11  -3 -23  160.56    6.15
 -11   3 -23  168.03    6.38
  11  -3 -23  168.37    6.24
 -23 -11   3  184.70    7.82
  11 -23   3  167.38    7.90
 -11 -23   3  157.80    9.50
 -23 -11  -3  160.52    8.47
  23 -11  -3  140.31    8.11
 -23   3 -11  167.35    7.99
 -11 -23  -3  159.62    8.06
 -11 -23   5   63.77    3.25
 -23 -11  -5   61.67    3.12
 -11 -23  -5   62.23    3.03
  11 -23  -5   59.54    2.99
 -23  -5 -11   63.67    3.04
  -5 -23 -11   72.60    3.37
 -23   5 -11   65.00    3.15
   5 -23 -11   67.41    3.25
  -5 -11 -23   64.13    3.08
 -11  -5 -23   57.48    2.80
   5 -11 -23   64.77    3.09
 -11   5 -23   59.67    2.90
  11  -5 -23   58.46    2.82
  23  -5 -11   62.78    3.02
 -11 -23   5   56.27    4.99
  23 -11  -5   49.70    4.88
 -23   5 -11   71.84    5.88
 -23 -11  -5   54.18    5.34
 -23 -11  -7   52.85    2.80
 -11 -23  -7   64.13    3.08
  11 -23  -7   55.85    2.88
 -23  -7 -11   55.44    2.88
  -7 -23 -11   55.49    2.83
 -23   7 -11   55.61    3.00
   7 -23 -11   51.27    3.24
  23 -11  -7   54.01    3.10
  -7 -11 -23   61.91    3.12
 -11  -7 -23   58.04    2.98
   7 -11 -23   56.98    2.84
  23  -7 -11   52.49    2.64
  11  -7 -23   61.68    2.93
 -11   7 -23   57.32    2.86
  23 -11  -7   44.77    4.14
 -11 -23   7   63.84    4.85
 -23   7 -11   52.42    4.59
 -23 -11  -7   43.56    5.45
 -23 -11  -9  133.58    5.25
 -11 -23  -9  124.67    4.93
 -23  -9 -11  125.74    5.07
  -9 -23 -11  124.33    4.57
  11 -23  -9  134.51    5.15
   9 -23 -11  134.68    4.84
  23 -11  -9  137.45    5.67
  -9 -11 -23  126.85    4.91
 -11  -9 -23  134.83    4.79
   9 -11 -23  131.36    5.05
  23  -9 -11  134.13    5.46
  11  -9 -23  130.46    4.96
 -11   9 -23  140.29    5.42
 -23 -11  -9  135.35    7.55
 -23 -11 -11  271.97    8.94
 -11 -23 -11  247.23    7.82
  11 -23 -11  273.21    8.81
 -11 -11 -23  279.68    8.89
  23 -11 -11  258.15    8.59
  11 -11 -23  268.08    8.50
 -23 -13   1  350.55   12.20
  13 -23   1  378.81   13.46
 -23 -13  -1  348.47   12.00
 -13 -23   1  361.45   12.43
  13 -23  -1  352.65   12.31
 -13 -23  -1  364.09   12.42
  -1 -23 -13  365.81   12.56
   1 -23 -13  362.46   12.43
 -23  -1 -13  371.46   12.89
 -23   1 -13  387.05   13.45
  -1 -13 -23  331.55   11.33
   1 -13 -23  342.19   11.77
 -13  -1 -23  340.06   11.73
 -13   1 -23  346.19   11.97
 -23 -13   1  334.36   13.06
 -23 -13  -1  347.30   13.71
 -13 -23   1  365.07   14.60
  13 -23   1  337.16   13.76
 -13 -23  -1  342.25   13.70
  13 -23  -1  323.69   13.27
 -13 -23   3  212.08    7.72
 -23 -13  -3  213.26    7.78
  13 -23  -3  208.14    7.72
 -13 -23  -3  222.01    7.98
  -3 -23 -13  201.31    7.29
 -23  -3 -13  211.11    7.82
   3 -23 -13  204.95    7.51
 -23   3 -13  221.33    8.27
  -3 -13 -23  193.65    6.95
   3 -13 -23  210.22    7.64
 -13  -3 -23  216.13    7.69
 -13   3 -23  196.83    7.20
  13  -3 -23  197.00    7.21
 -23 -13   3  215.83    8.66
  13 -23   3  211.51    8.72
 -13 -23   3  220.20    9.86
 -23 -13  -3  203.93    9.80
  23 -13  -3  176.15    9.33
 -13 -23  -3  224.99   10.14
 -13 -23   5   95.51    4.27
 -23 -13  -5   94.93    4.05
 -13 -23  -5  103.09    4.31
  13 -23  -5   95.42    4.00
 -23  -5 -13  100.57    4.29
  -5 -23 -13   93.44    3.89
   5 -23 -13   97.09    4.05
 -23   5 -13   92.75    4.08
  -5 -13 -23   95.53    4.01
 -13  -5 -23   94.14    3.94
   5 -13 -23   88.17    3.75
 -13   5 -23   89.19    3.86
  13  -5 -23   92.60    3.88
  23  -5 -13  108.55    4.55
 -13 -23   5   99.84    6.06
 -23 -13  -5  106.37    7.02
 -23   5 -13   95.77    6.35
 -13 -23  -5   93.95    5.94
 -23 -13  -7   85.96    3.60
 -13 -23  -7   77.45    3.29
  13 -23  -7   84.02    3.62
 -23  -7 -13   80.37    3.31
  23 -13  -7   81.10    3.64
  -7 -23 -13   79.96    3.32
   7 -23 -13   83.56    3.43
 -23   7 -13   78.05    3.34
  -7 -13 -23   72.18    3.15
 -13  -7 -23   89.62    3.64
   7 -13 -23   78.82    3.35
  13  -7 -23   84.26    3.40
  23  -7 -13   76.94    3.27
 -13   7 -23   78.16    3.26
 -13 -23   7   89.64    5.05
 -23   7 -13   76.84    5.88
 -23 -13  -7  102.94    6.67
 -23 -13  -9  157.06    5.48
 -13 -23  -9  160.26    5.55
  13 -23  -9  156.88    5.49
 -23  -9 -13  157.64    5.54
  -9 -23 -13  152.34    5.26
   9 -23 -13  165.49    5.71
  23 -13  -9  169.54    6.47
 -23   9 -13  157.79    5.94
  -9 -13 -23  156.32    5.51
 -13  -9 -23  154.95    5.38
   9 -13 -23  140.50    4.85
  23  -9 -13  155.14    5.72
  13  -9 -23  153.86    5.31
 -13   9 -23  156.54    5.62
 -23 -13  -9  155.93    7.88
 -23 -13 -11  276.38   12.78
 -13 -23 -11  278.23   12.93
 -23 -11 -13  288.98   13.44
 -11 -23 -13  290.40   13.27
  13 -23 -11  274.48   12.67
  11 -23 -13  294.86   13.56
 -11 -13 -23  275.11   12.64
  23 -13 -11  277.83   13.02
 -13 -11 -23  262.96   12.05
  23 -11 -13  284.93   13.29
  11 -13 -23  262.65   11.97
  13 -11 -23  267.58   12.23
 -13  11 -23  272.03   12.64
 -23 -13 -13  286.99   13.22
 -13 -23 -13  287.25   13.24
  13 -23 -13  289.68   13.32
 -13 -13 -23  273.81   12.68
  23 -13 -13  271.28   12.75
  13 -13 -23  289.97   13.26
 -13  13 -23  270.38   12.63
 -23 -15   1  167.13    5.90
  15 -23  -1  168.31    6.28
 -23 -15  -1  162.95    5.79
 -15 -23   1  163.49    5.67
 -15 -23  -1  172.90    5.93
  -1 -23 -15  160.02    5.59
   1 -23 -15  164.17    5.63
 -23  -1 -15  169.55    6.11
 -23   1 -15  176.07    6.37
  -1 -15 -23  167.59    5.83
   1 -15 -23  169.11    5.82
 -15  -1 -23  163.52    5.68
 -15   1 -23  155.25    5.51
 -23 -15   1  136.96    6.82
  15 -23   1  144.72    8.00
 -23 -15  -1  144.03    7.28
 -15 -23   1  147.96    7.69
 -15 -23  -1  169.84    8.34
  15 -23  -1  153.81    7.51
 -15 -23   3   68.06    3.32
 -23 -15  -3   71.82    3.24
  15 -23  -3   74.86    3.48
 -15 -23  -3   68.26    3.19
  -3 -23 -15   65.99    3.11
 -23  -3 -15   64.70    2.94
   3 -23 -15   69.03    3.12
 -23   3 -15   72.97    3.17
  -3 -15 -23   64.46    2.98
   3 -15 -23   71.53    3.23
 -15  -3 -23   66.91    2.94
 -15   3 -23   68.22    3.16
  15  -3 -23   65.04    2.94
 -23 -15   3   63.92    4.53
 -15 -23   3   61.56    5.88
 -23 -15  -3   76.59    6.38
 -15 -23  -3   69.70    5.92
 -15 -23   5   17.26    2.34
 -23 -15  -5   16.34    2.00
 -15 -23  -5    7.85    1.79
  15 -23  -5   13.69    1.71
  -5 -23 -15   14.79    2.03
 -23  -5 -15   14.80    1.86
   5 -23 -15   16.68    2.13
 -23   5 -15   14.51    1.85
  -5 -15 -23   13.34    1.83
 -15  -5 -23   18.55    1.95
   5 -15 -23   12.32    1.92
 -15   5 -23   12.94    1.81
  15  -5 -23   15.44    1.81
  23  -5 -15   13.78    1.65
 -15 -23   5   13.71    4.10
 -23 -15  -5   20.69    4.81
 -15 -23  -5   27.74    4.56
 -15 -23  -7   15.47    2.04
  15 -23  -7   11.87    1.86
  -7 -23 -15    4.99    1.74
 -23  -7 -15    9.89    1.79
   7 -23 -15    8.16    1.66
 -23   7 -15    7.62    1.57
  -7 -15 -23    4.14    1.97
 -15  -7 -23    3.18    1.73
   7 -15 -23    6.61    1.61
 -15   7 -23    9.39    1.83
  23  -7 -15   10.18    1.62
  15  -7 -23    6.28    1.72
 -15 -23   7   13.31    3.10
 -23 -15  -7    1.26    4.76
 -23 -15  -9   37.73    2.63
 -15 -23  -9   38.78    2.80
  15 -23  -9   40.80    2.71
 -23  -9 -15   47.88    3.01
  -9 -23 -15   41.14    2.77
  23 -15  -9   37.17    2.58
   9 -23 -15   44.10    2.88
  -9 -15 -23   38.90    2.68
 -23   9 -15   44.07    2.85
 -15  -9 -23   34.55    2.49
   9 -15 -23   42.75    2.80
  23  -9 -15   38.02    2.60
  15  -9 -23   42.47    2.75
 -15   9 -23   36.81    2.59
 -23 -15  -9   46.01    5.60
 -23 -15 -11  115.44    6.06
 -15 -23 -11  113.17    5.85
 -23 -11 -15  109.05    5.50
 -11 -23 -15  108.97    5.64
  15 -23 -11  125.96    6.46
  11 -23 -15  115.40    5.85
  23 -15 -11  110.45    5.74
 -11 -15 -23  113.46    5.75
 -15 -11 -23  122.08    6.16
  11 -15 -23  106.33    5.46
  23 -11 -15  113.17    5.91
  15 -11 -23  122.31    6.10
 -15  11 -23  124.52    6.26
 -23 -15 -13  120.31    6.20
 -15 -23 -13  127.98    6.43
 -23 -13 -15  118.48    5.94
 -13 -23 -15  120.33    6.11
  15 -23 -13  125.10    6.43
  13 -23 -15  121.17    6.25
 -13 -15 -23  115.31    5.78
 -15 -13 -23  128.08    6.46
  23 -15 -13  124.21    6.53
  23 -13 -15  125.70    6.68
  13 -15 -23  126.11    6.29
  15 -13 -23  119.64    6.07
 -15  13 -23  126.54    6.65
 -23 -15 -15   45.87    2.89
 -15 -23 -15   39.77    2.74
  15 -23 -15   46.80    3.08
 -15 -15 -23   35.19    2.65
  23 -15 -15   45.39    2.87
  15 -15 -23   46.83    2.80
 -15  15 -23   42.94    2.74
  17 -23  -1   22.90    2.21
 -23 -17   1   24.87    2.41
 -17 -23   1   21.58    2.40
 -23 -17  -1   23.39    2.20
 -17 -23  -1   15.43    2.16
  -1 -23 -17   25.15    2.30
   1 -23 -17   24.47    2.16
 -23  -1 -17   19.26    2.17
 -23   1 -17   24.73    2.25
  -1 -17 -23   25.26    2.29
   1 -17 -23   26.06    2.34
 -17  -1 -23   16.00    1.98
 -17   1 -23   21.62    2.09
 -23 -17   1   13.84    4.41
 -23 -17  -1   10.42    4.75
 -17 -23   1   21.47    4.89
 -17 -23   3   -1.43    2.09
  17 -23  -3   -0.96    1.60
 -23 -17  -3   -2.39    1.93
 -17 -23  -3   -1.30    1.86
   3 -23 -17   -1.55    1.76
 -23  -3 -17    2.44    1.57
 -23   3 -17   -1.04    1.61
  -3 -17 -23   -2.06    1.82
   3 -17 -23   -2.08    1.70
 -17  -3 -23   -0.31    1.66
 -17   3 -23   -4.28    1.65
  17  -3 -23   -1.37    1.43
 -23 -17   3    3.74    3.92
 -17 -23   3   -2.11    4.35
 -23 -17  -3   -0.10    4.85
 -17 -23  -3    6.83    4.93
 -17 -23   5   10.66    2.24
 -23 -17  -5   15.15    2.07
 -17 -23  -5   18.93    2.07
  17 -23  -5   15.69    1.91
  -5 -23 -17   13.75    2.08
 -23  -5 -17   18.55    2.02
   5 -23 -17   13.78    1.82
 -23   5 -17   15.93    2.06
  -5 -17 -23   11.61    2.01
 -17  -5 -23   16.06    1.94
   5 -17 -23   13.76    1.92
 -17   5 -23   10.73    1.77
  17  -5 -23   11.96    1.90
  23  -5 -17   13.29    1.85
 -23 -17   5   11.10    2.65
 -17 -23   5   12.24    4.03
 -23 -17  -5   10.33    5.20
 -17 -23  -5    4.73    4.86
 -23 -17  -7   11.36    1.98
 -17 -23  -7   17.46    2.05
  17 -23  -7   20.26    2.56
  -7 -23 -17   19.74    2.20
 -23  -7 -17   16.48    2.07
   7 -23 -17   17.52    2.04
  -7 -17 -23   12.81    1.86
 -17  -7 -23   14.92    1.81
 -23   7 -17   15.46    1.91
   7 -17 -23   15.26    1.84
 -17   7 -23   17.11    1.95
  17  -7 -23   11.73    1.92
  23  -7 -17   17.07    1.98
 -17 -23   7   19.20    3.32
 -23 -17  -7   11.92    4.55
 -17 -23  -7   17.05    5.02
 -23 -17  -9    3.15    1.79
 -17 -23  -9    0.14    1.69
  17 -23  -9    0.06    1.66
  -9 -23 -17   -4.76    1.80
 -23  -9 -17   -0.73    1.68
   9 -23 -17   -3.92    1.79
  -9 -17 -23   -6.23    1.90
 -17  -9 -23    2.47    1.80
 -23   9 -17    0.38    1.70
   9 -17 -23   -1.89    1.68
  23  -9 -17    0.43    1.66
  17  -9 -23   -1.26    1.61
 -17   9 -23    1.60    1.69
 -23 -17  -9   -2.71    4.75
 -23 -17 -11   18.21    2.16
 -17 -23 -11   17.88    2.26
  17 -23 -11   22.17    2.21
 -11 -23 -17   18.33    2.19
 -23 -11 -17   17.86    2.20
  11 -23 -17   17.57    2.12
 -11 -17 -23   19.02    2.29
 -17 -11 -23   17.53    2.12
  11 -17 -23   18.88    2.08
  23 -11 -17   19.06    1.95
  17 -11 -23   16.67    1.96
 -17  11 -23   16.41    1.99
 -23 -17 -11   25.11    4.69
 -23 -17 -13   25.34    2.30
 -17 -23 -13   27.04    2.50
 -13 -23 -17   25.63    2.16
 -23 -13 -17   25.31    2.31
  17 -23 -13   27.95    2.23
  13 -23 -17   32.73    2.40
 -13 -17 -23   24.10    2.33
 -17 -13 -23   27.91    2.31
  13 -17 -23   22.63    2.15
  23 -13 -17   26.66    2.12
  17 -13 -23   26.95    2.03
 -17  13 -23   28.48    2.47
 -23 -17 -15    3.16    1.82
 -17 -23 -15    2.07    1.95
 -23 -15 -17    2.14    1.83
 -15 -23 -17    2.91    1.74
  17 -23 -15    4.30    1.74
  15 -23 -17    6.16    1.86
 -17 -15 -23    0.69    1.71
 -15 -17 -23    0.19    1.98
  23 -15 -17   -1.27    1.54
  15 -17 -23    3.67    1.76
  17 -15 -23    2.03    1.84
 -17  15 -23    1.20    1.83
 -23 -17 -17    8.80    2.01
 -17 -23 -17    2.97    1.78
 -17 -17 -23    5.73    2.01
  17 -23 -17    6.67    1.83
  17 -17 -23    3.41    1.58
 -17  17 -23    5.98    1.92
 -23 -19   1   10.58    2.09
 -19 -23   1   11.57    2.14
 -23 -19  -1   11.42    1.89
 -19 -23  -1    5.81    2.04
  -1 -23 -19   10.74    1.94
   1 -23 -19   12.56    1.92
 -23  -1 -19   10.14    1.70
 -23   1 -19   11.99    1.92
  -1 -19 -23   11.83    2.03
   1 -19 -23   11.77    1.98
 -19  -1 -23    7.63    1.85
 -19   1 -23   13.53    1.85
 -23 -19   1   26.97    4.72
 -23 -19  -1   14.85    4.53
 -19 -23   1    7.78    5.07
 -19 -23  -1   17.44    5.10
 -19 -23   3   -5.05    2.00
 -23 -19  -3   -0.77    1.95
  -3 -23 -19   -2.70    1.80
   3 -23 -19    0.19    1.57
 -23  -3 -19    2.80    1.69
  -3 -19 -23   -2.36    1.78
   3 -19 -23    4.10    1.77
 -19  -3 -23    2.21    1.71
 -19   3 -23    1.52    1.60
  19  -3 -23    3.68    1.63
  23  -3 -19   -3.02    1.60
 -23 -19   3    9.30    3.47
 -19 -23   3    6.12    4.41
 -23 -19  -3    3.65    4.56
 -19 -23  -3    5.55    5.09
  19 -23  -5   19.80    2.12
 -23 -19  -5   21.89    2.44
 -19 -23  -5   23.09    2.35
  -5 -23 -19   11.90    1.88
 -23  -5 -19   21.71    2.17
   5 -23 -19   14.42    1.99
  -5 -19 -23   18.67    2.14
 -19  -5 -23   24.32    2.31
   5 -19 -23   19.28    2.10
 -23   5 -19   18.80    1.95
 -19   5 -23   19.12    1.99
  19  -5 -23   14.98    1.95
  23  -5 -19   22.95    2.18
 -23 -19   5   17.58    3.31
 -19 -23   5   19.35    3.65
 -23 -19  -5   24.26    4.95
 -19 -23  -5   16.75    5.15
 -23 -19  -7   24.55    2.33
 -19 -23  -7   29.59    2.48
  19 -23  -7   20.80    2.09
  -7 -23 -19   28.60    2.33
 -23  -7 -19   22.92    2.26
   7 -23 -19   25.21    2.33
  -7 -19 -23   20.85    2.29
 -19  -7 -23   20.11    2.21
   7 -19 -23   21.71    2.17
 -23   7 -19   23.41    2.19
 -19   7 -23   25.55    2.20
  23  -7 -19   18.64    1.99
  19  -7 -23   19.82    2.06
 -19 -23   7   18.02    2.77
 -23 -19  -7   21.23    4.76
 -19 -23  -7   34.04    4.90
 -23 -19  -9   -0.33    1.63
 -19 -23  -9    7.03    2.00
  19 -23  -9    2.09    1.62
  -9 -23 -19    1.03    1.66
 -23  -9 -19    1.04    1.53
   9 -23 -19   -2.64    1.71
  -9 -19 -23    3.77    1.84
 -19  -9 -23    1.58    1.86
   9 -19 -23    3.42    1.73
 -19   9 -23    2.62    1.81
  23  -9 -19   -0.36    1.72
  19  -9 -23    2.81    1.61
 -23 -19  -9    3.94    4.40
 -19 -23  -9   -9.41    4.55
 -23 -19 -11    3.68    1.88
 -19 -23 -11    5.54    1.92
  19 -23 -11    6.41    1.77
 -23 -11 -19    4.77    1.81
 -11 -23 -19    6.11    1.93
 -11 -19 -23    4.27    1.88
  11 -23 -19    2.05    1.57
 -19 -11 -23    4.77    1.86
  11 -19 -23    9.64    1.84
  23 -11 -19    7.26    1.62
  19 -11 -23    7.10    1.79
 -19  11 -23    8.51    1.92
 -23 -19 -11    4.56    4.29
 -23 -19 -13    9.78    1.84
 -19 -23 -13   12.28    2.20
  19 -23 -13   10.95    1.98
 -13 -23 -19    9.17    2.01
 -23 -13 -19    9.21    2.14
 -13 -19 -23   12.14    2.05
 -19 -13 -23    5.18    1.90
  13 -23 -19    7.76    1.85
  13 -19 -23    7.52    1.88
  23 -13 -19   12.37    2.00
  19 -13 -23    5.03    1.74
 -19  13 -23   13.28    2.12
 -23 -19 -15    1.34    1.95
 -19 -23 -15    0.82    1.96
 -15 -23 -19   -3.40    1.92
 -23 -15 -19    0.49    1.60
  19 -23 -15    0.93    1.87
 -15 -19 -23    0.62    1.90
 -19 -15 -23   -3.27    1.91
  15 -23 -19    0.44    1.74
  15 -19 -23   -2.15    1.80
  23 -15 -19   -0.64    1.85
  19 -15 -23    3.38    1.72
 -19  15 -23   -1.47    1.77
 -23 -19 -17   17.23    4.49
 -19 -23 -17    9.42    2.73
 -17 -23 -19    7.26    2.39
 -23 -17 -19    5.05    2.12
 -19 -17 -23    8.10    2.33
 -17 -19 -23    3.23    1.86
  19 -23 -17    7.77    2.45
  17 -23 -19    4.05    2.05
  17 -19 -23    8.69    2.44
  19 -17 -23    5.73    1.92
 -19 -23 -19    5.27    2.36
 -23 -19 -19    3.50    2.13
 -19 -19 -23   10.78    3.12
  19 -23 -19   11.71    3.46
  19 -19 -23   11.31    3.27
 -23 -21   1   60.31    3.40
 -21 -23   1   61.94    3.50
 -23 -21  -1   63.48    3.49
 -21 -23  -1   58.63    3.27
  -1 -23 -21   65.78    3.41
   1 -23 -21   57.09    3.15
  -1 -21 -23   59.63    3.23
   1 -21 -23   57.07    3.13
 -23  -1 -21   56.39    3.22
 -23   1 -21   54.29    3.02
 -21  -1 -23   57.89    3.20
 -21   1 -23   47.43    2.69
 -23 -21   1   63.65    5.65
 -21 -23   1   45.78    5.49
 -23 -21  -1   71.63    6.80
 -21 -23  -1   53.14    6.99
 -23 -21   3   26.04    2.48
 -21 -23   3   20.91    2.42
 -23 -21  -3   20.03    2.30
 -21 -23  -3   17.44    2.17
  -3 -23 -21   24.49    2.08
   3 -23 -21   21.56    2.18
 -23  -3 -21   15.43    1.77
  -3 -21 -23   21.93    2.00
   3 -21 -23   19.09    2.10
 -21  -3 -23   20.84    2.06
 -23   3 -21   23.37    2.21
 -21   3 -23   26.68    2.18
  21  -3 -23   22.25    1.90
  23  -3 -21   21.00    2.06
 -23 -21   3   11.27    4.11
 -21 -23   3   22.54    4.29
 -23 -21  -3   10.03    5.14
 -21 -23  -3   18.72    5.31
 -23 -21  -5    1.98    1.94
 -21 -23  -5   -0.81    1.93
  -5 -23 -21    0.49    1.90
  -5 -21 -23    6.29    1.86
   5 -23 -21   -3.77    1.73
 -21  -5 -23    2.71    1.54
   5 -21 -23    1.02    1.58
 -23   5 -21   -0.37    1.54
 -21   5 -23    2.19    1.72
  23  -5 -21    3.25    1.95
  21  -5 -23   -0.31    1.65
 -23 -21   5   -0.41    2.80
 -21 -23   5    5.63    3.52
 -23 -21  -5   11.38    5.33
 -21 -23  -5   15.76    5.26
 -23 -21  -7    0.29    2.00
 -21 -23  -7    3.43    1.90
  -7 -23 -21   -5.08    1.60
 -23  -7 -21    1.01    1.93
  -7 -21 -23    3.11    1.86
   7 -23 -21    1.06    1.54
 -21  -7 -23    0.15    1.71
   7 -21 -23   -0.91    1.72
 -23   7 -21    5.46    1.83
 -21   7 -23   -3.50    1.80
  21  -7 -23   -2.55    1.71
  23  -7 -21    3.83    1.69
 -23 -21  -7   -0.32    5.03
 -21 -23  -7   -4.03    5.02
 -23 -21  -9   10.12    2.00
 -21 -23  -9    5.76    1.74
  -9 -23 -21   11.26    1.85
 -23  -9 -21    7.58    1.92
  -9 -21 -23   10.19    1.77
 -21  -9 -23    9.29    1.69
   9 -23 -21    4.55    1.73
   9 -21 -23    4.25    1.62
 -21   9 -23    8.12    1.77
  21  -9 -23    8.29    1.92
  23  -9 -21    7.27    1.71
 -23 -21  -9    9.95    5.12
 -21 -23  -9    2.41    4.87
 -23 -21 -11   29.19    2.56
 -21 -23 -11   24.96    2.52
 -11 -23 -21   25.55    2.46
 -23 -11 -21   32.71    2.62
 -11 -21 -23   30.07    2.59
 -21 -11 -23   28.87    2.79
  11 -23 -21   28.81    2.30
  11 -21 -23   39.01    2.81
  23 -11 -21   25.72    2.30
  21 -11 -23   33.19    2.60
 -21  11 -23   25.20    2.32
 -23 -21 -11   40.57    5.61
 -21 -23 -11   34.70    5.22
 -23 -21 -13   35.26    3.11
 -21 -23 -13   35.37    3.13
 -23 -13 -21   25.52    2.64
 -13 -23 -21   27.65    2.81
 -13 -21 -23   26.56    2.61
 -21 -13 -23   20.82    2.29
  13 -23 -21   33.41    2.93
  13 -21 -23   28.07    2.68
  23 -13 -21   27.76    2.75
  21 -13 -23   32.05    2.82
 -21 -23 -15    6.92    2.21
 -23 -21 -15    9.84    2.79
 -15 -23 -21    5.19    2.28
 -23 -15 -21    8.06    2.33
 -15 -21 -23    7.51    2.32
 -21 -15 -23    2.67    1.81
  15 -23 -21    6.97    2.10
  15 -21 -23   10.06    2.65
  23 -15 -21    8.91    2.56
  21 -15 -23    6.15    2.16
 -23 -21 -17   -2.51    1.80
 -21 -23 -17    0.47    2.03
 -17 -23 -21   -1.58    2.07
 -23 -17 -21    1.94    1.78
 -17 -21 -23   -2.39    2.03
 -21 -17 -23   -3.20    2.05
  17 -23 -21    0.80    1.84
  17 -21 -23    1.56    1.69
  21 -17 -23    2.68    1.93
 -21 -23 -19    1.77    1.87
 -23 -21 -19    2.95    2.16
 -19 -23 -21    1.07    2.21
 -23 -19 -21   -1.92    2.01
 -19 -21 -23    3.51    2.00
 -21 -19 -23   -1.77    1.84
  19 -23 -21    3.94    2.18
  19 -21 -23    4.87    3.05
 -21 -23 -21   -1.11    2.03
 -21 -21 -23    1.87    2.02
 -23 -23   1  119.52    6.39
 -23 -23  -1  134.44    7.17
  -1 -23 -23  137.75    7.30
   1 -23 -23  125.22    6.69
 -23  -1 -23  135.56    7.34
 -23   1 -23  130.89    7.23
 -23 -23   1  125.64    8.37
 -23 -23  -1  114.33    8.00
 -23 -23   3   78.96    4.75
 -23 -23  -3   71.96    4.50
  -3 -23 -23   75.99    4.41
   3 -23 -23   83.22    4.93
 -23  -3 -23   73.10    4.38
 -23   3 -23   81.60    4.72
  23  -3 -23   75.47    4.34
 -23 -23   3   81.88    6.20
 -23 -23  -5   40.10    3.05
  -5 -23 -23   32.59    2.66
 -23  -5 -23   34.80    2.75
   5 -23 -23   36.86    2.77
 -23   5 -23   33.30    2.63
  23  -5 -23   34.81    2.82
 -23 -23   5   35.18    3.83
 -23 -23  -5   26.90    5.96
 -23 -23  -7   33.21    2.93
  -7 -23 -23   33.26    3.13
 -23  -7 -23   25.60    2.63
   7 -23 -23   25.35    2.57
 -23   7 -23   25.24    2.56
  23  -7 -23   26.28    2.44
 -23 -23  -7   26.81    5.32
 -23 -23  -9   52.50    4.07
  -9 -23 -23   45.25    3.67
 -23  -9 -23   42.49    3.50
   9 -23 -23   48.47    3.79
  23  -9 -23   43.03    4.12
 -23 -23  -9   44.79    5.74
 -23 -23 -11   83.45    5.58
 -11 -23 -23   80.67    5.38
 -23 -11 -23   66.94    4.60
  11 -23 -23   78.83    5.22
  23 -11 -23   73.47    4.94
 -23 -23 -11   57.42    6.62
 -23 -23 -13   76.80    5.13
 -23 -13 -23   81.07    5.46
 -13 -23 -23   82.14    5.48
  13 -23 -23   85.28    5.68
  23 -13 -23   78.74    5.32
 -23 -23 -13   59.27    6.80
 -23 -23 -15   41.91    3.42
 -23 -15 -23   34.06    3.09
 -15 -23 -23   38.01    3.22
  15 -23 -23   33.85    2.94
  23 -15 -23   33.39    2.91
 -23 -23 -17   17.91    2.66
 -17 -23 -23   16.94    5.17
 -23 -17 -23    3.69    2.39
 -23 -23 -19   10.69    2.95
 -19 -23 -23   -0.44    2.04
 -23 -19 -23    9.07    2.75
  19 -23 -23    5.47    2.20
 -23 -23 -21   11.48    2.31
 -23 -21 -23   13.28    2.10
 -21 -23 -23    7.41    2.17
   0 -24   0  916.36   25.37
  24   0   0  873.52   24.08
   0   0 -24  886.28   23.57
   0 -24   0  947.51   28.22
   0 -24   2  696.75   18.92
   2 -24   0  723.32   19.65
  -2 -24   0  695.08   18.91
   0 -24  -2  715.06   19.45
  24   0  -2  672.21   18.91
  24   2   0  632.30   17.72
  24  -2   0  706.91   19.75
  24   0   2  648.03   18.27
   0  -2 -24  691.11   18.52
  -2   0 -24  685.41   18.52
   2   0 -24  720.94   19.52
   0   2 -24  689.83   18.79
   0 -24   2  678.62   21.01
  -2 -24   0  705.43   21.62
   2 -24   0  708.61   21.18
   2 -24   2  503.09   14.13
  -2 -24   2  518.59   14.51
   2 -24  -2  530.67   14.73
  -2 -24  -2  517.99   14.35
  24   2  -2  497.73   14.46
  24  -2  -2  523.95   15.01
  24   2   2  505.54   14.34
  24  -2   2  543.93   15.49
  -2  -2 -24  500.98   13.78
   2  -2 -24  496.97   13.70
  -2   2 -24  522.05   14.36
   2   2 -24  542.51   15.02
 -24  -2  -2  545.90   16.28
   2 -24   2  534.05   17.32
  -2 -24   2  513.44   16.58
   0 -24   4  359.08   10.83
   4 -24   0  354.74   10.66
  -4 -24   0  338.21   10.08
   0 -24  -4  353.36   10.42
  24   0  -4  350.05   11.04
  24   4   0  314.80    9.89
  24   0   4  322.76    9.98
   0  -4 -24  352.07   10.44
  -4   0 -24  331.03    9.85
   4   0 -24  348.66   10.10
 -24   0  -4  324.43   10.78
   0 -24   4  305.70   10.92
  -4 -24   0  337.78   11.90
   4 -24   0  321.27   11.46
 -24  -4  -2  236.13    7.76
   2 -24   4  234.36    7.57
 -24  -2  -4  243.67    7.82
  -2 -24   4  233.45    7.34
   4 -24   2  250.33    7.84
  -4 -24   2  235.80    7.39
  -4 -24  -2  237.18    7.31
   4 -24  -2  245.71    7.54
   2 -24  -4  228.79    7.12
  -2 -24  -4  237.05    7.30
  24   2  -4  220.38    7.28
  24  -2  -4  223.73    7.43
  24   4  -2  230.21    7.43
  24   4   2  222.78    7.34
  24   2   4  217.36    7.12
  -2  -4 -24  231.14    6.99
  -4  -2 -24  237.56    7.15
   2  -4 -24  235.96    7.25
   4  -2 -24  236.18    7.29
  24  -2   4  232.31    7.70
  -4   2 -24  232.39    7.13
  -2   4 -24  232.80    7.12
 -24  -4  -2  239.70    8.83
 -24  -2  -4  248.89    9.62
   2 -24   4  222.96    9.50
  -2 -24   4  227.39    9.62
  -4 -24   2  227.26    9.41
   4 -24   2  214.24    8.90
  -4 -24  -2  235.45    9.15
   4 -24   4   72.20    3.22
  -4 -24   4   61.84    3.00
 -24  -4  -4   72.08    3.09
  -4 -24  -4   71.44    3.00
   4 -24  -4   74.05    3.10
  24   4  -4   67.78    3.09
  24  -4  -4   72.93    3.41
  24   4   4   67.58    3.02
  -4  -4 -24   77.00    3.15
   4  -4 -24   79.72    3.14
  -4   4 -24   77.06    3.12
  24  -4  -4   71.23    3.06
 -24  -4  -4   84.86    5.53
   4 -24   4   74.26    5.01
  -4 -24   4   81.31    5.73
  24  -4  -4   57.88    4.96
   0 -24   6  164.28    5.60
 -24   0  -6  164.71    5.83
   6 -24   0  164.35    5.55
  -6 -24   0  155.60    5.22
  24   0  -6  160.23    5.57
   0 -24  -6  160.10    5.21
  24   6   0  139.19    5.32
   0  -6 -24  149.55    4.92
  24   0   6  154.63    5.51
  -6   0 -24  164.24    5.35
   6   0 -24  165.85    5.37
 -24  -6   0  167.93    6.58
   0 -24   6  154.36    6.63
 -24   0  -6  157.68    7.24
  -6 -24   0  164.40    7.74
   6 -24   0  140.96    6.61
  -2 -24   6   94.74    3.83
 -24   2  -6  105.44    4.17
 -24  -6  -2   97.35    3.79
   6 -24   2  103.80    3.94
  -6 -24   2  101.50    3.91
 -24  -2  -6   99.24    3.85
  -6 -24  -2  100.04    3.80
   6 -24  -2   96.91    3.68
  24  -2  -6   94.71    4.13
  24   2  -6   95.16    4.10
  -2 -24  -6  106.19    3.98
   2 -24  -6  101.56    3.78
  24   6   2   88.98    3.67
  24   2   6   88.73    3.58
  -2  -6 -24  100.63    3.70
  -6  -2 -24   97.30    3.56
   2  -6 -24   95.47    3.60
  -6   2 -24  101.65    3.76
   6  -2 -24   98.04    3.59
 -24   2  -6  109.15    5.43
   2 -24   6   96.20    4.99
 -24  -6  -2   98.01    5.50
  -2 -24   6   98.97    5.38
 -24  -2  -6   89.39    6.12
  -6 -24   2   99.10    6.21
   6 -24   2   90.78    5.55
  -6 -24  -2  105.80    6.16
  -4 -24   6   15.48    2.12
   6 -24   4   14.60    1.92
  -6 -24   4    9.90    1.99
 -24  -6  -4   10.85    1.60
 -24  -4  -6   12.82    1.69
  -6 -24  -4   11.25    1.88
   6 -24  -4   11.41    1.69
  24  -4  -6   12.86    1.69
  -4 -24  -6   16.21    1.89
  24   4  -6   10.31    1.61
   4 -24  -6   14.71    1.80
  24   6   4   14.78    1.57
  24   4   6   15.01    1.49
  -4  -6 -24   11.42    1.88
  -6  -4 -24   13.43    1.77
   4  -6 -24   12.41    1.63
   6  -4 -24   14.56    2.15
  -6   4 -24   15.91    1.76
   4 -24   6   21.36    3.01
  -4 -24   6   17.30    3.64
   6 -24   4   14.62    3.44
  -6 -24   4   21.93    4.36
 -24  -6  -4   13.67    4.25
 -24  -4  -6   20.52    4.31
  24  -6  -4   15.90    3.96
  -6 -24   6    5.80    2.01
 -24  -6  -6    5.10    1.50
  -6 -24  -6    8.76    1.64
   6 -24  -6    3.53    1.75
  -6  -6 -24    3.58    1.49
   6  -6 -24    4.54    1.50
  -6   6 -24    2.58    1.61
   6 -24   6    0.92    2.67
  -6 -24   6    3.83    3.64
 -24  -6  -6    3.29    4.57
 -24  -8   0  153.17    5.31
   8 -24   0  150.45    5.22
  -8 -24   0  150.31    5.05
  24   0  -8  140.56    5.45
 -24   0  -8  149.15    5.16
   0 -24  -8  158.57    5.21
   0  -8 -24  146.35    4.85
  -8   0 -24  141.55    4.95
  24   0   8  134.89    5.12
   8   0 -24  159.57    5.19
   0 -24   8  160.07    5.89
 -24  -8   0  149.89    6.60
 -24   0  -8  159.88    7.82
  -8 -24   0  168.06    7.80
   8 -24   0  156.45    7.40
 -24  -8  -2   87.52    3.51
   8 -24   2  102.90    3.98
  -8 -24   2   93.73    3.66
  24  -2  -8   85.37    3.70
  -8 -24  -2   95.28    3.77
   8 -24  -2   93.99    3.66
 -24   2  -8   98.05    4.03
  24   2  -8   89.50    3.69
 -24  -2  -8   98.17    3.77
  -2 -24  -8   87.57    3.46
   2 -24  -8   94.06    3.60
  -2  -8 -24   89.74    3.43
   2  -8 -24   98.14    3.68
  -8  -2 -24   94.83    3.56
  24   2   8   80.52    3.48
  -8   2 -24   96.66    3.61
   8  -2 -24   95.36    3.52
  -2 -24   8   97.15    4.55
 -24  -8  -2   99.78    5.89
 -24   2  -8   89.98    5.79
  -8 -24   2   85.33    5.96
   8 -24   2   88.02    5.76
 -24  -2  -8  105.59    6.74
  -8 -24  -2   84.80    5.85
   8 -24   4   14.79    1.92
  -8 -24   4   14.55    2.13
 -24  -8  -4   17.68    2.01
  24  -4  -8   14.64    1.72
  -8 -24  -4   16.07    1.97
   8 -24  -4   12.40    1.74
 -24  -4  -8   15.97    1.78
  -4 -24  -8   17.64    1.96
  -4  -8 -24   14.14    1.84
  -8  -4 -24   12.31    1.91
  24   4   8   13.57    1.61
   4  -8 -24   13.30    1.92
   8  -4 -24   16.95    1.79
  -8   4 -24   16.31    1.81
  -4 -24   8   16.69    2.84
 -24   4  -8   18.08    3.12
   8 -24   4   15.62    3.67
  -8 -24   4   17.10    4.68
 -24  -8  -4   13.60    4.41
 -24  -4  -8   12.78    4.66
  24  -8  -4   16.58    3.95
  -8 -24   6    0.72    2.04
 -24  -8  -6    6.85    1.59
 -24  -6  -8    5.92    1.51
  -8 -24  -6    3.80    1.82
  -6 -24  -8    3.51    1.77
   6 -24  -8    8.34    1.70
  -6  -8 -24    2.62    1.84
  -8  -6 -24    4.41    1.85
   6  -8 -24    4.85    1.66
   8  -6 -24    3.81    1.60
  24  -6  -8    3.86    1.28
  -8   6 -24    6.51    1.62
  -6 -24   8    4.04    2.89
  -8 -24   6   -3.70    3.94
  24  -8  -6   10.14    3.97
 -24  -8  -6    8.99    4.58
 -24  -6  -8    7.22    4.71
 -24  -8  -8    7.12    1.56
  -8 -24  -8    5.77    1.85
   8 -24  -8    7.42    1.76
  -8  -8 -24    9.29    1.62
   8  -8 -24    8.64    1.71
  -8   8 -24   10.04    1.75
  -8 -24   8    5.60    2.83
 -24  -8  -8    3.76    4.40
 -24 -10   0  351.54   12.31
  10 -24   0  351.93   12.25
  24   0 -10  314.59   11.48
 -10 -24   0  354.60   12.30
 -24   0 -10  357.50   12.58
   0 -24 -10  342.87   11.78
   0 -10 -24  338.46   11.68
 -10   0 -24  334.77   11.55
 -24 -10   0  343.86   13.49
 -10 -24   0  307.75   12.40
 -24   0 -10  337.38   14.17
  10 -24   0  329.86   13.42
  10 -24   2  247.39    8.98
 -24 -10  -2  250.34    9.03
 -10 -24   2  251.09    8.92
  24  -2 -10  234.80    9.00
  10 -24  -2  255.25    9.08
 -24   2 -10  241.56    9.02
 -24  -2 -10  259.95    9.40
  -2 -24 -10  217.93    7.70
   2 -24 -10  244.68    8.72
  -2 -10 -24  236.79    8.35
   2 -10 -24  248.18    8.65
 -10  -2 -24  252.86    8.88
 -10   2 -24  242.76    8.60
  24   2  10  207.10    7.95
  10  -2 -24  248.38    8.79
 -24 -10   2  254.56    9.70
 -24 -10  -2  232.34   10.31
  10 -24   2  229.68   10.45
 -10 -24   2  239.30   10.49
 -24   2 -10  249.84   11.62
 -10 -24  -2  234.91   10.21
 -24  -2 -10  272.43   12.23
 -10 -24   4  103.65    4.41
  24  -4 -10   93.83    4.71
 -24 -10  -4  104.19    4.31
 -10 -24  -4   89.69    3.88
  10 -24  -4  106.19    4.38
 -24   4 -10  102.47    4.56
 -24  -4 -10  114.82    4.82
  -4 -24 -10  106.89    4.31
   4 -24 -10   99.10    4.01
  -4 -10 -24  104.00    4.22
 -10  -4 -24   99.31    4.07
   4 -10 -24   92.88    3.81
 -10   4 -24  104.75    4.20
  10  -4 -24  100.46    4.09
  24  -4 -10  103.42    4.49
  10 -24   4  104.32    5.85
 -10 -24   4  103.00    6.53
 -24   4 -10  101.87    6.50
 -24 -10  -4   90.77    6.38
  24 -10  -4   88.52    6.09
 -24  -4 -10   98.50    6.39
 -10 -24  -4   91.78    5.78
 -10 -24   6   40.13    2.77
  24  -6 -10   36.60    2.67
 -24 -10  -6   38.27    2.46
 -10 -24  -6   38.07    2.49
 -24  -6 -10   45.44    2.67
  -6 -24 -10   39.47    2.43
   6 -24 -10   42.64    2.52
  -6 -10 -24   40.94    2.59
 -10  -6 -24   41.92    2.50
   6 -10 -24   40.67    2.43
  10  -6 -24   46.30    2.60
  24  -6 -10   45.05    2.42
 -10   6 -24   47.50    2.66
 -24   6 -10   43.01    4.08
 -10 -24   6   36.87    4.44
  24 -10  -6   40.47    4.81
 -24 -10  -6   36.88    5.42
 -24  -6 -10   47.10    5.04
 -24 -10  -8   75.30    3.23
 -24  -8 -10   70.90    3.21
 -10 -24  -8   64.72    2.94
  10 -24  -8   69.12    3.04
  -8 -24 -10   60.98    2.95
   8 -24 -10   74.08    3.21
  24 -10  -8   65.65    3.07
  -8 -10 -24   56.88    2.81
 -10  -8 -24   61.76    2.80
   8 -10 -24   67.20    2.96
  24  -8 -10   65.60    2.95
  10  -8 -24   68.97    2.97
 -10   8 -24   62.58    2.87
 -10 -24   8   69.05    4.33
 -24 -10  -8   77.69    5.81
 -24  -8 -10   75.60    5.78
 -24 -10 -10  175.38    6.23
 -10 -24 -10  183.54    6.13
  10 -24 -10  186.36    6.43
 -10 -10 -24  176.81    5.95
  24 -10 -10  182.28    6.44
  10 -10 -24  175.60    5.81
 -10  10 -24  188.30    6.51
 -24 -10 -10  176.31    8.10
 -24 -12   0  533.48   18.04
  12 -24   0  572.04   19.32
 -12 -24   0  530.82   17.88
 -24   0 -12  510.26   17.36
   0 -24 -12  516.68   17.35
   0 -12 -24  522.35   17.54
 -12   0 -24  500.06   16.81
 -24 -12   0  523.45   18.95
 -12 -24   0  501.85   18.64
  12 -24   0  479.33   18.67
 -24   0 -12  514.48   19.69
  12 -24   2  436.32   15.20
 -12 -24   2  416.75   14.17
 -24 -12  -2  423.62   14.54
  12 -24  -2  403.67   14.05
 -12 -24  -2  423.75   14.36
 -24  -2 -12  412.73   14.29
  -2 -24 -12  387.07   13.10
 -24   2 -12  433.24   15.04
   2 -24 -12  413.98   13.97
  -2 -12 -24  388.11   13.10
   2 -12 -24  422.01   14.16
 -12  -2 -24  414.24   14.01
 -12   2 -24  393.82   13.50
  12  -2 -24  397.31   13.40
 -24 -12   2  390.25   14.27
 -24 -12  -2  400.86   15.67
  12 -24   2  376.17   15.70
 -12 -24   2  414.24   15.97
 -12 -24  -2  374.09   14.62
 -24   2 -12  396.32   16.47
 -24  -2 -12  377.29   15.22
 -12 -24   4  228.90    7.59
 -24 -12  -4  223.29    7.42
 -12 -24  -4  220.42    7.27
  12 -24  -4  230.29    7.63
 -24  -4 -12  226.42    7.74
  -4 -24 -12  225.91    7.24
 -24   4 -12  224.86    7.75
   4 -24 -12  218.60    7.13
  -4 -12 -24  224.32    7.26
 -12  -4 -24  219.64    7.14
   4 -12 -24  224.04    7.18
 -12   4 -24  226.31    7.44
  12  -4 -24  212.13    6.83
  24  -4 -12  227.85    7.74
 -12 -24   4  231.67    9.53
 -24 -12  -4  201.43    9.19
 -24   4 -12  219.72   10.55
 -12 -24  -4  225.61    9.36
 -12 -24   6  128.80    4.90
 -24 -12  -6  130.97    4.83
 -12 -24  -6  123.41    4.54
  12 -24  -6  131.31    4.75
 -24  -6 -12  132.92    4.99
  -6 -24 -12  129.38    4.65
 -24   6 -12  125.15    4.85
   6 -24 -12  138.79    4.92
  -6 -12 -24  127.38    4.56
 -12  -6 -24  132.04    4.76
   6 -12 -24  134.12    4.85
  12  -6 -24  134.65    4.87
 -12   6 -24  132.30    4.70
  24  -6 -12  132.67    5.10
 -12 -24   6  120.59    6.07
 -24   6 -12  122.75    7.10
 -24 -12  -6  126.67    7.34
 -24 -12  -8  168.49    5.87
 -12 -24  -8  171.94    5.86
  12 -24  -8  173.88    5.99
 -24  -8 -12  162.38    5.59
  -8 -24 -12  159.55    5.52
   8 -24 -12  168.94    5.95
  24 -12  -8  163.47    6.41
  -8 -12 -24  161.91    5.42
 -12  -8 -24  169.07    5.67
   8 -12 -24  157.82    5.40
  24  -8 -12  156.58    5.63
  12  -8 -24  158.76    5.35
 -12   8 -24  154.64    5.58
 -12 -24   8  160.51    6.31
 -24 -12  -8  159.58    7.99
 -24 -12 -10  306.18   14.10
 -12 -24 -10  296.06   13.60
 -24 -10 -12  288.37   13.32
 -10 -24 -12  290.80   13.31
  12 -24 -10  303.86   13.87
  10 -24 -12  293.67   13.47
  24 -12 -10  299.71   14.12
 -10 -12 -24  295.29   13.50
 -12 -10 -24  297.32   13.57
  24 -10 -12  278.72   13.03
  10 -12 -24  298.29   13.65
  12 -10 -24  286.94   13.20
 -12  10 -24  286.80   13.31
 -24 -12 -10  287.30   14.81
 -24 -12 -12  412.72   19.08
 -12 -24 -12  364.91   16.41
  12 -24 -12  415.00   19.15
 -12 -12 -24  388.91   17.62
  24 -12 -12  384.70   17.70
  12 -12 -24  395.48   18.21
 -12  12 -24  388.61   17.80
 -24 -14   0  368.49   11.57
  14 -24   0  379.60   12.32
 -14 -24   0  386.11   11.96
   0 -24 -14  354.94   11.00
 -24   0 -14  389.14   12.24
   0 -14 -24  388.91   11.90
 -14   0 -24  363.48   11.29
 -24 -14   0  349.14   12.73
 -14 -24   0  371.76   13.59
  14 -24   0  329.45   13.05
 -14 -24   2  283.90    9.06
 -24 -14  -2  296.27    9.44
  14 -24  -2  295.80    9.76
 -14 -24  -2  283.23    9.05
  -2 -24 -14  259.73    8.18
 -24  -2 -14  285.98    9.42
   2 -24 -14  283.77    8.93
 -24   2 -14  298.71    9.89
  -2 -14 -24  272.86    8.60
   2 -14 -24  281.26    8.93
 -14  -2 -24  264.43    8.64
 -14   2 -24  273.03    8.83
  14  -2 -24  273.61    8.52
 -24 -14   2  279.36   10.32
  14 -24   2  259.46   10.10
 -24 -14  -2  273.39   11.54
 -14 -24   2  285.11   11.13
 -14 -24  -2  267.07   10.76
 -14 -24   4  137.09    5.30
 -24 -14  -4  131.39    4.80
  14 -24  -4  143.38    5.33
 -14 -24  -4  133.23    4.83
  -4 -24 -14  129.35    4.59
 -24  -4 -14  134.29    4.94
   4 -24 -14  129.38    4.63
 -24   4 -14  146.81    5.45
  -4 -14 -24  139.51    4.89
 -14  -4 -24  132.88    4.82
   4 -14 -24  132.21    4.74
 -14   4 -24  133.46    4.90
  14  -4 -24  143.65    4.96
  24  -4 -14  149.22    5.51
 -24 -14   4  152.35    6.10
 -14 -24   4  123.93    6.70
 -24 -14  -4  129.49    7.12
 -14 -24  -4  141.59    7.19
 -24   4 -14  125.11    6.79
 -24 -14  -6   69.77    3.84
 -14 -24  -6   67.86    3.79
  14 -24  -6   66.19    3.68
 -24  -6 -14   64.35    3.71
  -6 -24 -14   66.19    3.78
   6 -24 -14   63.20    3.53
 -24   6 -14   74.29    4.15
  -6 -14 -24   74.05    4.06
 -14  -6 -24   71.77    3.94
   6 -14 -24   69.57    3.86
 -14   6 -24   71.05    3.95
  14  -6 -24   73.96    3.97
  24  -6 -14   69.36    3.81
 -14 -24   6   62.30    5.04
 -24 -14  -6   72.54    6.33
 -24   6 -14   73.65    7.86
 -14 -24  -6   69.78    5.83
 -24 -14  -8   97.66    5.04
 -14 -24  -8   96.78    4.96
  14 -24  -8   96.93    4.95
 -24  -8 -14   93.14    4.97
  -8 -24 -14   93.70    4.88
   8 -24 -14   94.16    4.90
  -8 -14 -24   97.08    5.00
 -14  -8 -24   93.99    4.82
   8 -14 -24   92.56    5.10
  24  -8 -14   92.69    4.83
  14  -8 -24  100.57    5.06
 -14   8 -24  100.14    5.24
 -14 -24   8   87.59    5.28
 -24 -14  -8   96.83    7.30
 -24 -14 -10  189.26    9.02
 -14 -24 -10  197.75    9.22
  14 -24 -10  203.88    9.69
 -24 -10 -14  210.50    9.96
 -10 -24 -14  193.71    9.14
  10 -24 -14  184.68    8.72
 -10 -14 -24  194.25    9.22
 -14 -10 -24  196.94    9.36
  10 -14 -24  191.62    8.97
  24 -10 -14  206.12    9.90
  14 -10 -24  202.17    9.44
 -14  10 -24  195.60    9.38
 -24 -14 -10  193.28   11.02
 -24 -14 -12  297.60   14.01
 -14 -24 -12  277.74   13.17
 -24 -12 -14  255.80   12.06
 -12 -24 -14  279.85   13.24
  14 -24 -12  272.65   12.91
  12 -24 -14  282.69   13.31
 -12 -14 -24  282.24   13.25
 -14 -12 -24  265.51   12.43
  24 -12 -14  282.18   13.73
  12 -14 -24  260.50   12.26
  14 -12 -24  283.10   13.27
 -14  12 -24  268.88   13.04
 -24 -14 -14  179.16    7.69
 -14 -24 -14  191.05    7.96
  14 -24 -14  183.90    7.79
 -14 -14 -24  185.11    7.62
  14 -14 -24  188.63    7.78
 -14  14 -24  188.41    8.00
  16 -24   0  121.87    6.35
 -24 -16   0  125.24    6.32
 -16 -24   0  117.89    5.88
   0 -24 -16  123.75    6.04
 -24   0 -16  126.23    6.37
   0 -16 -24  118.31    5.85
 -16   0 -24  126.04    6.21
 -24 -16   0  115.02    7.33
 -16 -24   0  126.76    8.10
 -24 -16   2   68.96    4.11
 -16 -24   2   74.36    4.14
 -24 -16  -2   77.74    4.28
  16 -24  -2   75.63    4.31
 -16 -24  -2   65.10    3.82
  -2 -24 -16   69.43    3.89
 -24  -2 -16   73.49    4.05
   2 -24 -16   65.92    3.73
 -24   2 -16   73.25    4.07
  -2 -16 -24   71.68    3.90
   2 -16 -24   73.13    3.99
 -16  -2 -24   71.29    3.90
 -16   2 -24   68.33    3.90
  16  -2 -24   73.82    3.94
 -24 -16   2   74.08    5.65
 -24 -16  -2   66.17    5.84
 -16 -24   2   81.54    6.71
 -16 -24  -2   59.75    6.18
  16 -24  -2   73.26    5.63
 -16 -24   4   24.93    2.56
 -24 -16  -4   12.51    2.06
  16 -24  -4   16.44    1.99
 -16 -24  -4   13.26    2.11
  -4 -24 -16    9.87    1.78
 -24  -4 -16   13.16    1.79
   4 -24 -16   11.51    1.75
 -24   4 -16   12.92    1.79
  -4 -16 -24   12.80    1.84
   4 -16 -24   18.70    2.09
 -16  -4 -24   11.46    1.85
 -16   4 -24   15.68    2.02
  16  -4 -24   16.59    1.90
  24  -4 -16   18.20    2.04
 -24 -16   4   22.89    3.40
 -16 -24   4   13.43    4.45
 -24 -16  -4   17.18    5.13
 -16 -24  -4   10.81    4.62
 -24 -16  -6    4.72    1.80
 -16 -24  -6    3.95    1.89
  16 -24  -6    0.91    1.46
 -24  -6 -16    0.99    1.65
  -6 -24 -16    3.21    1.83
   6 -24 -16    4.23    1.81
 -24   6 -16    3.28    1.53
  -6 -16 -24   -0.96    1.77
 -16  -6 -24    2.86    1.71
   6 -16 -24    0.34    1.74
 -16   6 -24    3.24    1.66
  16  -6 -24    3.34    1.75
  24  -6 -16    1.77    1.49
 -16 -24   6   -3.01    3.68
 -24 -16  -6   14.09    4.67
 -16 -24  -6   -9.79    4.14
 -24 -16  -8    9.36    1.73
 -16 -24  -8   12.40    2.03
  16 -24  -8    8.64    1.66
  -8 -24 -16    5.62    1.78
 -24  -8 -16    5.78    1.57
   8 -24 -16    7.17    1.97
  -8 -16 -24    5.61    1.92
 -16  -8 -24    4.77    1.63
   8 -16 -24    7.35    1.69
  24  -8 -16    8.59    1.73
  16  -8 -24   11.47    1.86
 -16   8 -24    7.44    1.77
 -16 -24   8    3.43    2.65
 -24 -16  -8   15.23    5.29
 -24 -16 -10   53.63    3.34
 -16 -24 -10   57.86    3.62
  16 -24 -10   54.96    3.57
 -24 -10 -16   54.39    3.35
 -10 -24 -16   50.41    3.15
  10 -24 -16   53.42    3.34
 -10 -16 -24   50.11    3.23
 -16 -10 -24   47.67    3.00
  10 -16 -24   44.64    2.93
  24 -10 -16   49.71    3.01
  16 -10 -24   47.45    3.00
 -16  10 -24   48.53    3.12
 -24 -16 -10   59.85    6.18
 -24 -16 -12  104.25    4.81
 -16 -24 -12  100.92    4.69
 -24 -12 -16   88.22    4.37
 -12 -24 -16   94.18    4.41
  16 -24 -12  100.71    4.85
  12 -24 -16  104.82    4.80
 -12 -16 -24   96.57    4.49
 -16 -12 -24   91.76    4.37
  12 -16 -24  103.24    4.66
  24 -12 -16   94.75    4.67
  16 -12 -24   91.69    4.24
 -16  12 -24   92.37    4.80
 -24 -16 -14   61.13    4.03
 -16 -24 -14   59.49    3.73
 -24 -14 -16   56.70    3.58
 -14 -24 -16   56.59    3.50
  16 -24 -14   56.59    3.53
  14 -24 -16   61.03    3.72
 -14 -16 -24   63.42    3.76
 -16 -14 -24   61.19    3.75
  24 -14 -16   62.12    3.87
  14 -16 -24   62.75    3.75
  16 -14 -24   59.29    3.52
 -16  14 -24   59.24    3.75
 -24 -16 -16   12.37    2.11
 -16 -24 -16   11.06    2.05
  16 -24 -16   10.49    1.92
 -16 -16 -24   12.31    2.15
  16 -16 -24   14.59    1.79
 -16  16 -24   12.51    2.04
 -24 -18   0   36.13    2.85
 -18 -24   0   35.74    2.65
   0 -24 -18   36.86    2.76
 -24   0 -18   44.35    3.11
   0 -18 -24   36.13    2.53
 -18   0 -24   41.86    2.80
 -24 -18   0   29.13    4.55
 -18 -24   0   43.30    6.06
 -24 -18   2   15.36    2.38
  18 -24  -2   13.88    2.01
 -18 -24   2   19.07    2.37
 -24 -18  -2   12.66    2.19
 -18 -24  -2   21.04    2.29
  -2 -24 -18   22.78    2.33
   2 -24 -18   16.17    2.05
 -24  -2 -18   16.46    2.09
 -24   2 -18   16.43    2.00
  -2 -18 -24   15.66    2.05
   2 -18 -24   14.76    2.04
 -18  -2 -24   15.02    1.97
 -18   2 -24   14.02    1.90
  18  -2 -24   16.18    1.78
 -24 -18   2   17.54    4.11
 -18 -24   2   14.28    4.80
 -24 -18  -2   17.73    4.95
 -18 -24  -2   17.27    5.20
 -18 -24   4    3.98    2.11
 -24 -18  -4   -0.79    1.83
 -18 -24  -4    2.78    1.71
  -4 -24 -18    0.06    1.83
 -24  -4 -18    3.10    1.63
   4 -24 -18    0.48    1.59
 -24   4 -18    0.02    1.59
  -4 -18 -24   -0.62    1.83
   4 -18 -24   -1.25    1.75
 -18  -4 -24   -2.39    1.49
 -18   4 -24    1.41    1.62
  18  -4 -24    3.01    1.64
  24  -4 -18   -1.34    1.52
 -24 -18   4   -9.27    3.44
 -18 -24   4   -3.91    3.57
 -24 -18  -4   -8.94    4.94
 -18 -24  -4    6.84    5.04
 -24 -18  -6    7.59    1.89
 -18 -24  -6    7.78    1.98
  18 -24  -6    7.86    1.74
  -6 -24 -18   12.19    1.99
 -24  -6 -18   11.46    1.93
   6 -24 -18    6.52    1.87
  -6 -18 -24   10.70    1.96
 -24   6 -18    9.07    1.78
 -18  -6 -24   10.14    1.71
   6 -18 -24    7.47    1.69
 -18   6 -24   12.82    1.94
  18  -6 -24    9.75    1.82
  24  -6 -18   14.86    1.99
 -18 -24   6    3.26    3.20
 -24 -18  -6   -1.17    5.19
 -18 -24  -6   -8.37    5.07
 -24 -18  -8    3.99    1.69
 -18 -24  -8    3.22    2.00
 -24  -8 -18    7.21    1.75
  -8 -24 -18    5.46    1.86
   8 -24 -18    1.59    1.76
  -8 -18 -24    0.63    1.63
 -18  -8 -24    2.73    1.80
   8 -18 -24    1.46    1.71
 -18   8 -24    3.42    1.78
  18  -8 -24    1.14    1.64
 -24 -18  -8   -4.90    5.09
 -18 -24  -8   -5.24    4.60
 -24 -18 -10    6.86    2.00
 -18 -24 -10    5.82    1.96
  18 -24 -10    9.05    1.67
 -10 -24 -18    4.34    1.94
 -24 -10 -18    7.22    1.83
  10 -24 -18    6.53    1.83
 -10 -18 -24   10.61    1.80
 -18 -10 -24    7.57    1.84
  10 -18 -24   10.19    1.83
  24 -10 -18    6.93    1.64
  18 -10 -24   14.89    1.84
 -18  10 -24    8.61    1.80
 -24 -18 -10    3.69    4.56
 -24 -18 -12   23.97    2.36
 -18 -24 -12   22.40    2.24
  18 -24 -12   26.80    2.60
 -24 -12 -18   22.50    2.31
 -12 -24 -18   22.96    2.24
  12 -24 -18   28.25    2.51
 -12 -18 -24   28.03    2.38
 -18 -12 -24   23.33    2.42
  12 -18 -24   26.32    2.38
  24 -12 -18   22.51    2.27
  18 -12 -24   35.08    2.61
 -18  12 -24   30.16    2.64
 -24 -18 -12   45.45    5.95
 -24 -18 -14   19.40    2.36
 -18 -24 -14   16.89    2.31
 -24 -14 -18   13.99    1.98
 -14 -24 -18   20.72    2.48
  18 -24 -14   10.44    1.91
  14 -24 -18   16.77    2.22
 -14 -18 -24   15.00    2.06
 -18 -14 -24   16.50    2.27
  14 -18 -24   14.43    2.08
  24 -14 -18    9.23    1.82
  18 -14 -24   16.79    2.12
 -18  14 -24   15.28    2.20
 -24 -18 -16   -2.79    1.87
 -18 -24 -16   -2.07    1.90
 -24 -16 -18    1.34    1.87
 -16 -24 -18   -1.00    2.01
  18 -24 -16   -0.97    1.75
  16 -24 -18   -1.45    1.75
 -16 -18 -24   -5.17    1.85
 -18 -16 -24    1.19    2.03
  16 -18 -24    1.80    1.74
  18 -16 -24    4.74    1.79
 -18  16 -24    3.17    2.05
 -16  18 -24    0.14    1.81
 -24 -18 -18    2.71    2.01
 -18 -24 -18    5.28    2.23
  18 -24 -18    5.14    2.05
 -18 -18 -24   10.10    2.72
  18 -18 -24    4.86    2.02
 -24 -20   0   52.57    3.21
 -20 -24   0   54.49    3.10
   0 -24 -20   54.16    3.12
 -24   0 -20   53.69    3.03
   0 -20 -24   57.47    3.15
 -20   0 -24   55.28    3.08
 -24 -20   0   63.24    5.42
 -20 -24   0   49.65    5.62
 -24 -20   2   31.75    2.67
 -20 -24   2   34.12    2.66
 -24 -20  -2   28.59    2.46
 -20 -24  -2   33.32    2.61
  -2 -24 -20   30.15    2.26
   2 -24 -20   25.54    2.21
 -24  -2 -20   34.43    2.40
  -2 -20 -24   32.93    2.45
   2 -20 -24   31.11    2.38
 -20  -2 -24   30.56    2.32
 -20   2 -24   35.44    2.32
  20  -2 -24   31.07    2.29
 -24 -20   2   22.43    3.99
 -20 -24   2   33.01    5.01
 -24 -20  -2   35.71    4.93
 -20 -24  -2   25.64    5.50
 -20 -24   4    5.89    1.95
 -24 -20  -4    4.63    1.71
 -20 -24  -4    4.25    1.96
  -4 -24 -20    1.53    1.65
   4 -24 -20    0.33    1.84
 -24  -4 -20    7.26    1.75
  -4 -20 -24    0.26    1.81
 -24   4 -20    2.55    1.58
   4 -20 -24    1.35    1.76
 -20  -4 -24    4.50    1.77
 -20   4 -24    4.46    1.71
  20  -4 -24   -2.44    1.65
  24  -4 -20    0.47    1.70
 -24 -20   4    9.69    3.08
 -20 -24   4    9.32    3.95
 -20 -24  -4    6.51    5.23
 -24 -20  -6   -4.24    1.86
 -20 -24  -6   -1.25    1.92
  -6 -24 -20    6.36    1.88
 -24  -6 -20   -0.07    1.69
   6 -24 -20    3.09    1.87
  -6 -20 -24    0.96    1.81
 -20  -6 -24    5.37    1.81
   6 -20 -24    2.99    1.84
 -24   6 -20    1.04    1.72
 -20   6 -24    4.34    1.94
  24  -6 -20    4.76    1.65
  20  -6 -24   -1.76    1.62
 -20 -24   6   13.34    2.93
 -24 -20  -6    6.62    5.25
 -20 -24  -6    1.00    4.63
 -24 -20  -8   -1.23    1.83
 -20 -24  -8    6.29    1.74
  -8 -24 -20   -1.11    1.89
 -24  -8 -20    0.05    1.82
   8 -24 -20   -0.04    1.77
  -8 -20 -24    3.45    1.87
 -20  -8 -24    0.30    1.81
   8 -20 -24    0.02    1.84
 -20   8 -24    2.00    1.72
  24  -8 -20   -1.60    1.52
  20  -8 -24    1.62    1.64
 -24 -20  -8   -5.36    4.78
 -20 -24  -8    3.84    4.40
 -24 -20 -10   16.41    2.14
 -20 -24 -10    7.09    2.00
 -10 -24 -20   16.09    2.15
 -24 -10 -20   16.17    2.06
 -10 -20 -24   11.08    1.85
  10 -24 -20   12.99    2.00
 -20 -10 -24   10.06    1.97
  10 -20 -24   15.19    1.85
  24 -10 -20   16.52    2.09
 -20  10 -24   15.66    2.11
  20 -10 -24    9.45    1.78
 -24 -20 -10    6.84    5.25
 -20 -24 -10   22.41    5.09
 -24 -20 -12   27.52    2.75
 -20 -24 -12   31.91    2.83
 -24 -12 -20   30.88    2.85
 -12 -24 -20   29.22    2.66
 -12 -20 -24   35.45    2.99
  12 -24 -20   30.76    2.84
 -20 -12 -24   26.83    2.72
  12 -20 -24   29.09    2.61
  24 -12 -20   34.55    2.93
  20 -12 -24   37.57    3.11
 -20  12 -24   26.87    2.64
 -24 -20 -12   22.50    5.40
 -24 -20 -14   21.83    2.48
 -20 -24 -14   19.35    2.41
 -14 -24 -20   17.68    2.35
 -24 -14 -20   19.33    2.40
 -20 -14 -24   13.43    3.07
 -14 -20 -24   21.90    2.34
  14 -24 -20   13.40    3.03
  14 -20 -24   15.37    3.45
  20 -14 -24   14.45    3.26
 -24 -20 -16    2.43    2.02
 -20 -24 -16    3.52    2.09
 -16 -24 -20    2.32    2.09
 -24 -16 -20   -0.82    1.97
 -20 -16 -24    2.29    2.00
 -16 -20 -24   -1.67    2.02
  16 -24 -20   -0.24    1.85
  16 -20 -24   -1.12    1.83
  20 -16 -24    3.39    2.03
 -24 -20 -18    3.13    2.17
 -20 -24 -18   -4.05    1.80
 -24 -18 -20    2.81    1.97
 -18 -24 -20    3.88    2.23
 -18 -20 -24   -3.19    2.01
 -20 -18 -24   -5.52    1.97
  18 -24 -20   -1.80    2.10
  18 -20 -24    1.09    1.88
  20 -18 -24   -3.01    1.80
 -24 -20 -20   -2.27    1.84
 -20 -24 -20    0.02    1.86
 -20 -20 -24   -0.18    1.83
  20 -20 -24    0.53    1.98
 -24 -22   0  117.03    6.29
 -22 -24   0  119.06    6.39
   0 -24 -22  131.54    6.91
   0 -22 -24  112.51    6.00
 -24   0 -22  114.79    6.44
 -22   0 -24  112.39    6.20
 -24 -22   0  115.54    7.74
 -22 -24   0  111.28    7.81
 -24 -22   2   86.96    5.06
 -22 -24   2   97.37    5.53
 -24 -22  -2  101.26    5.73
 -22 -24  -2   92.43    5.35
  -2 -24 -22   87.33    4.87
   2 -24 -22   86.64    4.88
  -2 -22 -24   86.48    4.76
 -24  -2 -22   90.06    5.51
   2 -22 -24   89.44    4.95
 -24   2 -22   94.59    5.37
 -22  -2 -24   86.77    4.98
 -22   2 -24   89.31    5.05
  22  -2 -24   84.18    4.77
  24  -2 -22   88.98    4.94
 -24 -22   2   80.49    6.29
 -22 -24   2   66.12    5.94
 -24 -22  -2   73.46    6.70
 -22 -24  -2   92.68    7.17
 -24 -22  -4   40.45    3.02
 -22 -24  -4   41.36    3.15
  -4 -24 -22   29.03    2.58
   4 -24 -22   34.69    2.70
 -24  -4 -22   36.10    2.88
  -4 -22 -24   31.56    2.61
   4 -22 -24   35.83    2.60
 -22  -4 -24   40.79    2.93
 -24   4 -22   38.28    2.95
 -22   4 -24   40.50    2.91
  22  -4 -24   34.22    2.65
  24  -4 -22   43.39    3.00
 -24 -22   4   25.83    3.88
 -22 -24   4   38.67    4.65
 -24 -22  -4   26.22    5.54
 -22 -24  -4   40.19    5.90
 -24 -22  -6   21.74    2.56
 -22 -24  -6   14.43    2.10
  -6 -24 -22   12.68    2.19
 -24  -6 -22   19.66    2.33
   6 -24 -22   23.83    2.51
  -6 -22 -24   24.31    2.71
 -22  -6 -24   18.46    2.35
   6 -22 -24   26.95    2.71
 -22   6 -24   16.69    2.37
  22  -6 -24   17.52    2.04
  24  -6 -22   16.20    2.17
 -22 -24   6    7.12    2.99
 -24 -22  -6   14.76    5.78
 -22 -24  -6    2.46    5.26
 -24 -22  -8   25.02    2.67
 -22 -24  -8   22.26    2.39
  -8 -24 -22   25.36    2.73
 -24  -8 -22   21.29    2.41
  -8 -22 -24   24.99    2.68
 -22  -8 -24   23.65    2.56
   8 -24 -22   24.90    2.43
   8 -22 -24   23.14    2.52
 -22   8 -24   23.83    2.52
  22  -8 -24   20.75    2.33
  24  -8 -22   21.07    2.33
 -24 -22  -8   34.17    5.92
 -22 -24  -8   19.68    5.59
 -24 -22 -10   50.90    3.95
 -22 -24 -10   57.02    4.31
 -10 -24 -22   50.14    3.82
 -24 -10 -22   49.99    3.90
 -10 -22 -24   45.84    3.58
 -22 -10 -24   46.41    3.56
  10 -24 -22   51.32    3.92
  10 -22 -24   54.14    4.05
  22 -10 -24   55.83    4.46
  24 -10 -22   55.74    4.13
 -24 -22 -10   63.13    6.64
 -22 -24 -10   60.16    6.96
 -24 -22 -12   71.21    4.96
 -22 -24 -12   72.03    5.05
 -12 -24 -22   75.09    5.07
 -24 -12 -22   63.16    4.44
 -12 -22 -24   77.61    5.22
 -22 -12 -24   61.87    4.43
  12 -24 -22   69.48    4.82
  12 -22 -24   71.35    4.96
  24 -12 -22   68.40    4.86
  22 -12 -24   73.39    4.93
 -24 -22 -12   86.27    7.96
 -22 -24 -12   53.01    5.97
 -22 -24 -14   56.43    4.16
 -24 -22 -14   46.80    3.55
 -24 -14 -22   52.11    3.91
 -14 -24 -22   44.67    3.40
 -14 -22 -24   52.55    3.97
 -22 -14 -24   48.47    3.76
  14 -24 -22   44.07    3.34
  14 -22 -24   53.10    3.89
  22 -14 -24   50.11    3.76
 -24 -22 -16   15.16    4.62
 -22 -24 -16   20.31    2.83
 -16 -24 -22   15.45    4.78
 -24 -16 -22   23.59    2.96
 -22 -16 -24   16.70    5.00
 -16 -22 -24   18.06    2.59
  16 -24 -22   15.15    4.66
  16 -22 -24   19.85    2.63
  22 -16 -24   12.29    4.27
 -24 -22 -18    1.31    2.07
 -22 -24 -18    4.35    2.18
 -24 -18 -22   11.89    2.96
 -18 -24 -22   10.44    2.89
 -22 -18 -24    4.83    2.19
 -18 -22 -24    5.99    2.33
  18 -22 -24    5.12    2.14
 -24 -22 -20    0.02    1.76
 -22 -24 -20    6.21    2.08
 -24 -20 -22    4.81    2.08
 -20 -24 -22   -1.56    2.05
 -20 -22 -24    3.69    1.80
 -22 -20 -24    7.02    2.15
 -24 -24   0  166.11   11.01
   0 -24 -24  162.75   10.74
 -24   0 -24  173.98   32.30
 -24 -24   0  153.49   11.41
 -24 -24   2  136.58    9.08
 -24 -24  -2  147.73    9.84
  -2 -24 -24  122.63    8.11
   2 -24 -24  137.20    8.97
 -24  -2 -24  127.64    8.55
 -24   2 -24  133.77    9.18
  24  -2 -24  134.17    8.96
 -24 -24   2  125.97    9.39
 -24 -24  -2  138.81   10.86
 -24 -24  -4   75.24    5.10
  -4 -24 -24   70.75    4.77
   4 -24 -24   62.65    4.39
 -24  -4 -24   67.39    4.75
 -24   4 -24   73.55    5.32
  24  -4 -24   80.92    5.57
 -24 -24   4   54.98    5.25
 -24 -24  -4   66.78    8.03
 -24 -24  -6   45.98    3.66
  -6 -24 -24   58.45    4.22
 -24  -6 -24   44.01    3.37
   6 -24 -24   48.30    3.67
  24  -6 -24   45.76    3.53
 -24 -24  -6   66.48    6.80
 -24 -24  -8   57.10    4.25
  -8 -24 -24   47.91    3.56
 -24  -8 -24   52.84    3.91
   8 -24 -24   46.15    3.42
  24  -8 -24   58.94    4.11
 -24 -24  -8   42.52    6.01
 -24 -24 -10   84.95    5.75
 -10 -24 -24   74.74    5.04
 -24 -10 -24   70.32    4.80
  10 -24 -24   76.89    5.24
  24 -10 -24   77.07    5.31
 -24 -24 -10   66.47    7.39
 -24 -24 -12   97.25    6.48
 -12 -24 -24  104.59    6.80
 -24 -12 -24   99.05    6.63
  12 -24 -24   99.64    6.48
  24 -12 -24   96.02    6.54
 -24 -24 -12  113.18    9.58
 -24 -24 -14   66.46    6.07
 -24 -14 -24   64.02    5.87
 -14 -24 -24   74.24    6.68
  14 -24 -24   82.32    7.37
 -24 -24 -14   54.97    7.46
 -24 -24 -16   33.05    3.66
 -16 -24 -24   32.95    3.65
 -24 -16 -24   26.19    3.19
  16 -24 -24   38.14    3.97
 -24 -24 -18   20.97    2.67
 -18 -24 -24   10.56    2.27
 -24 -18 -24    8.26    1.94
  18 -24 -24   19.34    2.50
   1 -25   1  778.75   25.69
  -1 -25   1  789.23   25.88
  -1 -25  -1  760.65   24.93
   1 -25  -1  765.00   25.18
  25   1  -1  699.34   20.24
  25  -1  -1  724.68   20.92
  25   1   1  705.20   20.28
  25  -1   1  748.51   21.69
  -1  -1 -25  748.71   20.89
   1  -1 -25  733.76   20.43
  -1   1 -25  765.10   25.25
   1   1 -25  749.87   21.02
  -1 -25   1  766.27   27.17
   1 -25   1  738.16   23.08
   1 -25  -1  747.72   22.94
  -1 -25  -1  746.98   22.61
  -1 -25   3  441.56   12.77
   1 -25   3  485.23   14.08
   3 -25   1  466.49   13.57
  -3 -25   1  453.87   13.06
  -3 -25  -1  470.18   13.66
   3 -25  -1  441.52   12.80
   1 -25  -3  479.73   13.82
  -1 -25  -3  475.26   13.79
  25   1  -3  429.03   13.00
  25  -1  -3  450.57   13.63
  25   3  -1  420.66   12.83
  25   3   1  411.79   12.48
  25   1   3  423.54   13.08
  25  -1   3  448.91   13.57
  -1  -3 -25  464.54   13.29
  -3  -1 -25  459.94   13.16
   1  -3 -25  450.60   13.06
  -3   1 -25  451.33   12.87
   3  -1 -25  470.53   13.67
  -1   3 -25  453.50   13.29
   3   1 -25  462.38   13.35
   1   3 -25  465.79   13.43
 -25  -1  -3  481.28   14.87
  -1 -25   3  452.44   15.71
   1 -25   3  426.31   14.35
  -3 -25   1  453.74   14.99
   3 -25   1  424.65   17.76
  -3 -25  -1  452.06   15.00
   3 -25  -1  446.73   14.95
 -25  -3  -3  244.89    8.00
   3 -25   3  256.27    8.19
  -3 -25   3  258.61    8.28
   3 -25  -3  258.88    8.00
  -3 -25  -3  239.39    7.37
  25   3  -3  244.28    7.90
  25  -3  -3  240.24    8.22
  25   3   3  227.95    7.40
  -3  -3 -25  262.34    8.04
   3  -3 -25  251.68    7.65
  -3   3 -25  241.31    7.25
 -25  -3  -3  253.25    9.30
  -3 -25   3  248.30    9.83
   3 -25   3  249.48    9.67
  -1 -25   5  185.51    6.17
   1 -25   5  194.04    6.52
 -25  -1  -5  193.64    6.62
   5 -25   1  194.32    6.36
  -5 -25   1  197.32    6.34
   5 -25  -1  188.76    6.19
  -5 -25  -1  183.49    5.92
   1 -25  -5  191.69    6.11
  -1 -25  -5  207.59    6.61
  25  -1  -5  181.60    6.67
  25   1  -5  179.49    6.34
  25   5  -1  175.15    6.41
  25   5   1  172.26    6.09
  25   1   5  172.42    6.05
  -1  -5 -25  199.04    6.24
   1  -5 -25  182.09    5.78
  -5  -1 -25  204.11    6.52
  -5   1 -25  195.37    6.13
  25  -1   5  185.62    6.47
   5  -1 -25  188.88    6.06
   5   1 -25  190.52    5.90
 -25   1  -5  200.73    7.60
 -25  -5  -1  205.17    7.61
 -25  -1  -5  189.38    7.75
   1 -25   5  182.48    7.63
  -1 -25   5  175.50    7.53
  -5 -25   1  188.57   10.41
   5 -25   1  180.34    8.26
  -5 -25  -1  176.20    7.88
   5 -25  -1  201.09    8.16
   3 -25   5   79.41    3.42
  -3 -25   5   77.05    3.39
 -25  -5  -3   81.84    3.47
   5 -25   3   79.69    3.47
  -5 -25   3   78.75    3.36
 -25  -3  -5   72.97    3.26
  -5 -25  -3   72.81    3.11
   5 -25  -3   68.25    2.99
  -3 -25  -5   78.83    3.28
   3 -25  -5   68.62    3.08
  25   3  -5   68.19    3.06
  25  -3  -5   71.33    3.29
  25   5  -3   68.33    3.09
  25   5   3   67.57    3.26
  25   3   5   66.96    3.11
  -3  -5 -25   79.28    3.21
  -5  -3 -25   77.23    3.10
   3  -5 -25   71.52    2.98
   5  -3 -25   77.46    3.04
  -5   3 -25   75.50    3.01
  -3   5 -25   77.69    3.16
 -25  -5  -3   79.36    5.14
   3 -25   5   79.23    4.92
  -3 -25   5   66.63    5.18
 -25  -3  -5   63.51    4.90
   5 -25   3   70.77    5.04
  -5 -25   3   61.09    4.94
  -5 -25  -3   68.22    5.02
  -5 -25   5    6.11    1.80
 -25  -5  -5    1.11    1.61
  -5 -25  -5    7.63    1.77
   5 -25  -5    6.69    1.69
  25   5   5    5.61    1.47
  -5  -5 -25    3.69    1.72
   5  -5 -25    3.35    1.62
  -5   5 -25    7.92    1.70
   5 -25   5    6.69    2.95
  -5 -25   5   -3.42    3.70
 -25  -5  -5    6.09    4.09
  25  -5  -5    2.95    3.60
 -25  -7  -1  106.05    4.65
   7 -25   1  105.32    4.39
 -25   1  -7  115.96    4.96
  -7 -25   1  105.19    4.32
   7 -25  -1  107.07    4.39
 -25  -1  -7  112.52    4.63
  -7 -25  -1  113.38    4.57
  25  -1  -7  101.42    4.64
  25   1  -7  100.93    4.52
   1 -25  -7  110.59    4.40
  -1 -25  -7  103.37    4.18
  -1  -7 -25  109.18    4.33
   1  -7 -25  102.20    4.18
  -7  -1 -25  120.05    4.77
  25   1   7   92.57    3.93
  -7   1 -25  105.36    4.22
   7  -1 -25  108.71    4.31
  25  -1   7  100.67    4.63
   1 -25   7  111.55    5.37
  -1 -25   7  112.81    5.58
 -25  -7  -1  104.12    5.85
 -25   1  -7  131.16    7.02
 -25  -1  -7  114.11    7.10
  -7 -25   1  117.43    7.07
   7 -25   1   99.36    6.03
  -7 -25  -1  111.81    7.02
   7 -25  -1  120.20    6.44
   7 -25   3   28.58    2.34
  -7 -25   3   38.86    2.55
 -25  -7  -3   34.86    2.31
 -25  -3  -7   34.68    2.28
   7 -25  -3   31.23    2.23
  -7 -25  -3   34.30    2.46
  25  -3  -7   34.60    2.30
  25   3  -7   32.47    2.33
  -3 -25  -7   32.38    2.18
   3 -25  -7   35.11    2.35
  -3  -7 -25   41.15    2.37
  25   3   7   33.66    2.12
  -7  -3 -25   33.62    2.26
   3  -7 -25   33.88    2.29
  -7   3 -25   33.63    2.24
   3 -25   7   31.73    3.12
 -25   3  -7   39.31    3.65
  -3 -25   7   35.19    3.87
 -25  -7  -3   36.93    4.60
   7 -25   3   38.64    4.53
  -7 -25   3   45.15    4.76
 -25  -3  -7   36.84    4.71
  -7 -25  -3   47.85    5.21
  -7 -25   5    0.17    2.03
 -25  -7  -5    5.21    1.55
 -25  -5  -7    5.32    1.69
  -7 -25  -5    4.39    1.81
   7 -25  -5    5.08    1.65
  -5 -25  -7    1.10    1.81
   5 -25  -7    9.58    1.89
  -5  -7 -25    4.21    1.74
  -7  -5 -25    7.53    1.77
   5  -7 -25    1.25    1.63
   7  -5 -25    3.86    1.89
  -7   5 -25    2.78    1.68
  -5 -25   7    6.72    3.28
   7 -25   5    1.35    3.03
  -7 -25   5    8.54    4.32
 -25  -7  -5    3.12    4.47
 -25  -5  -7   -3.83    4.45
 -25  -7  -7   12.83    1.84
  -7 -25  -7    9.01    1.91
   7 -25  -7   15.05    1.88
  -7  -7 -25   12.67    1.71
   7  -7 -25   12.97    1.76
  -7   7 -25   12.40    1.86
  -7 -25   7    9.52    3.17
 -25  -7  -7   15.53    4.70
 -25  -9  -1  218.79    8.06
   9 -25   1  217.60    7.94
  -9 -25   1  221.03    8.00
   9 -25  -1  227.56    8.33
  -9 -25  -1  215.88    7.73
  25  -1  -9  196.55    7.98
 -25   1  -9  223.93    8.36
 -25  -1  -9  216.07    8.08
  -1 -25  -9  214.64    7.68
   1 -25  -9  220.75    7.92
  -1  -9 -25  209.86    7.58
   1  -9 -25  216.90    7.73
  -9  -1 -25  221.96    8.17
  -9   1 -25  214.34    7.79
   9  -1 -25  226.03    8.08
 -25  -9   1  222.99    9.01
 -25  -9  -1  215.17    9.31
 -25   1  -9  212.40   10.17
  -9 -25   1  204.92    9.56
 -25  -1  -9  211.40   10.71
   9 -25   1  210.55    9.96
  -9 -25  -1  205.51    9.48
   9 -25  -1  207.07    9.30
   9 -25   3  106.33    4.56
  -9 -25   3   96.67    4.27
 -25  -9  -3  103.99    4.38
  25  -3  -9   93.41    4.37
 -25   3  -9  100.86    4.59
  -9 -25  -3   94.76    4.05
   9 -25  -3   99.53    4.22
 -25  -3  -9  101.00    4.24
  -3 -25  -9  102.73    4.40
   3 -25  -9  105.66    4.32
  -3  -9 -25  104.67    4.25
   3  -9 -25   92.58    3.80
  -9  -3 -25  109.24    4.33
  -9   3 -25  109.23    4.38
   9  -3 -25   97.14    3.96
 -25   3  -9   99.25    6.07
 -25  -9  -3  100.36    6.71
   9 -25   3   92.88    6.11
  -9 -25   3   86.00    6.02
 -25  -3  -9  108.15    6.95
  -9 -25  -3  106.38    6.77
  25  -9  -3   81.82    6.01
  -9 -25   5   15.19    2.00
 -25  -9  -5   18.88    2.07
  -9 -25  -5   15.36    2.06
   9 -25  -5   18.36    1.90
 -25  -5  -9   21.17    2.03
  -5 -25  -9   18.31    2.07
   5 -25  -9   16.20    1.93
  -5  -9 -25   20.50    1.99
  -9  -5 -25   24.16    2.04
   5  -9 -25   18.23    1.92
   9  -5 -25   16.26    1.77
  -9   5 -25   17.07    1.74
  25  -5  -9   22.08    1.82
   9 -25   5   19.43    2.70
 -25   5  -9   20.18    2.99
  -9 -25   5   27.49    4.78
 -25  -9  -5   31.56    5.26
 -25  -5  -9   23.72    4.65
 -25  -9  -7   14.48    1.80
 -25  -7  -9   15.44    1.83
  -9 -25  -7   10.90    1.96
   9 -25  -7   17.29    1.94
  -7 -25  -9   10.69    1.92
   7 -25  -9   15.29    1.91
  -7  -9 -25   16.80    1.86
  -9  -7 -25   13.99    1.90
   7  -9 -25   14.25    1.72
  25  -7  -9   15.93    1.69
   9  -7 -25   16.00    1.84
  -9   7 -25   12.30    1.81
  -9 -25   7   17.33    3.66
 -25  -9  -7   15.69    4.98
 -25  -9  -9   58.62    2.88
  -9 -25  -9   60.72    2.97
   9 -25  -9   56.55    2.75
  -9  -9 -25   61.80    2.90
  25  -9  -9   63.41    3.07
   9  -9 -25   54.63    2.69
  -9   9 -25   58.70    2.81
 -25  -9  -9   58.72    5.87
 -25 -11  -1  428.73   13.18
  11 -25   1  436.60   13.74
 -11 -25   1  411.77   12.79
  11 -25  -1  444.17   13.63
 -11 -25  -1  451.78   13.81
 -25   1 -11  440.65   13.86
 -25  -1 -11  432.56   13.54
   1 -25 -11  426.70   13.01
  -1 -25 -11  437.52   13.20
  -1 -11 -25  429.55   12.90
   1 -11 -25  418.53   12.73
 -11  -1 -25  431.64   13.19
 -11   1 -25  422.27   13.07
  11  -1 -25  405.61   12.16
 -25 -11   1  430.48   14.22
 -25 -11  -1  378.77   13.43
  11 -25   1  379.61   14.33
 -11 -25   1  395.87   14.14
 -11 -25  -1  426.52   15.05
 -25   1 -11  418.45   15.91
 -25  -1 -11  434.62   16.25
  11 -25  -1  405.57   14.76
 -25 -11  -3  259.99    8.66
  11 -25  -3  284.29    9.25
 -11 -25  -3  267.82    8.63
 -25   3 -11  274.50    9.24
 -25  -3 -11  265.51    9.04
  -3 -25 -11  265.88    8.45
   3 -25 -11  246.51    8.04
  -3 -11 -25  273.47    8.83
   3 -11 -25  262.10    8.39
 -11  -3 -25  257.18    8.20
 -11   3 -25  271.28    8.64
  11  -3 -25  264.80    8.49
  11 -25   3  222.76    9.17
 -11 -25   3  232.52    9.65
 -25 -11  -3  254.86   10.55
 -25   3 -11  251.85   11.09
 -11 -25  -3  244.36    9.76
 -25  -3 -11  253.03   10.92
 -11 -25   5  127.63    4.77
 -25 -11  -5  125.77    4.74
 -11 -25  -5  119.04    4.50
  11 -25  -5  131.04    4.96
 -25   5 -11  124.15    5.08
 -25  -5 -11  123.00    4.83
  -5 -25 -11  115.47    4.29
   5 -25 -11  119.85    4.37
  -5 -11 -25  116.80    4.29
 -11  -5 -25  114.41    4.31
   5 -11 -25  129.34    4.59
 -11   5 -25  132.46    4.97
  11  -5 -25  115.09    4.20
  25  -5 -11  121.99    4.91
 -11 -25   5  112.16    6.28
 -25   5 -11  129.55    7.02
 -25 -11  -5  127.99    7.33
 -25  -5 -11  111.74    6.69
 -11 -25  -5  115.07    6.55
 -25 -11  -7   93.90    3.86
 -11 -25  -7  108.20    4.16
  11 -25  -7  109.53    4.20
 -25  -7 -11   98.60    3.96
  -7 -25 -11  103.13    4.04
   7 -25 -11   95.20    4.36
  -7 -11 -25   95.88    3.78
 -11  -7 -25   99.11    3.85
   7 -11 -25   95.00    3.61
  25  -7 -11  100.44    4.23
  11  -7 -25  102.95    3.95
 -11   7 -25   91.00    3.53
 -11 -25   7  114.27    5.60
 -25 -11  -7   95.42    6.90
 -25  -7 -11  101.32    6.68
 -25 -11  -9  184.36    8.86
 -11 -25  -9  178.16    8.39
 -25  -9 -11  185.18    8.79
  -9 -25 -11  167.16    7.90
  11 -25  -9  193.29    9.27
   9 -25 -11  187.56    8.89
  -9 -11 -25  168.00    7.95
 -11  -9 -25  168.78    7.96
  25  -9 -11  188.94    9.13
   9 -11 -25  176.63    8.39
  11  -9 -25  175.02    8.23
 -11   9 -25  182.76    8.66
 -25 -11  -9  160.28    9.70
 -25  -9 -11  179.18   10.43
 -25 -11 -11  325.10   14.92
 -11 -25 -11  326.00   14.77
  11 -25 -11  343.13   15.64
 -11 -11 -25  317.69   14.43
  25 -11 -11  330.27   15.35
  11 -11 -25  321.67   14.57
 -11  11 -25  335.40   15.38
 -25 -11 -11  341.38   17.47
 -25 -13   1  389.96   12.12
  13 -25   1  460.02   14.39
 -25 -13  -1  430.18   13.30
  13 -25  -1  404.17   12.78
 -13 -25   1  412.82   12.76
 -13 -25  -1  419.42   12.99
 -25  -1 -13  384.55   12.06
 -25   1 -13  424.07   13.34
  -1 -25 -13  404.61   12.31
   1 -25 -13  423.45   12.83
  -1 -13 -25  411.86   12.38
   1 -13 -25  413.43   12.53
 -13  -1 -25  403.38   12.38
 -13   1 -25  397.83   12.31
  13  -1 -25  406.01   12.42
 -25 -13   1  397.45   13.59
 -25 -13  -1  394.82   13.98
  13 -25   1  387.62   14.36
 -13 -25   1  407.89   15.01
 -13 -25  -1  402.85   14.56
  13 -25  -1  374.27   14.16
 -25   1 -13  408.54   15.80
 -25  -1 -13  397.70   15.63
 -13 -25   3  262.67    8.51
 -25 -13  -3  247.32    8.24
  13 -25  -3  287.97    9.43
 -13 -25  -3  266.67    8.58
 -25  -3 -13  276.43    9.22
  -3 -25 -13  254.62    8.19
 -25   3 -13  269.70    9.07
   3 -25 -13  268.09    8.56
   3 -13 -25  266.17    8.39
 -13  -3 -25  251.78    8.00
 -13   3 -25  267.14    8.55
  13  -3 -25  255.93    8.29
 -25 -13   3  234.00    8.40
  13 -25   3  250.60    9.38
 -13 -25   3  272.32   11.04
 -25 -13  -3  234.49    9.65
 -13 -25  -3  227.52    9.73
 -25   3 -13  275.65   12.30
 -13 -25   5  139.00    6.86
 -25 -13  -5  133.48    6.67
 -13 -25  -5  123.47    6.08
  13 -25  -5  130.88    6.43
 -25  -5 -13  138.14    6.86
  -5 -25 -13  128.27    6.26
 -25   5 -13  122.56    6.19
   5 -25 -13  122.96    6.07
  -5 -13 -25  119.27    5.82
 -13  -5 -25  128.97    6.35
   5 -13 -25  121.88    5.91
 -13   5 -25  137.17    6.73
  13  -5 -25  117.71    5.85
  25  -5 -13  125.75    6.41
 -13 -25   5  116.03    7.13
 -25 -13  -5  117.27    7.93
 -25   5 -13  120.92    8.46
 -13 -25  -5  143.39    8.99
 -25 -13  -7  107.94    5.47
 -13 -25  -7  105.42    5.42
  13 -25  -7  113.16    5.72
 -25  -7 -13  109.43    5.54
  -7 -25 -13  116.92    5.91
   7 -25 -13  103.10    5.16
 -13  -7 -25  115.49    5.77
   7 -13 -25  107.97    5.42
  25  -7 -13  112.48    5.83
  13  -7 -25  113.80    5.62
 -13   7 -25  111.96    5.66
 -13 -25   7  116.16    6.88
 -25 -13  -7  127.33    8.55
 -25 -13  -9  180.54    8.65
 -13 -25  -9  200.56    9.36
  13 -25  -9  195.46    9.32
 -25  -9 -13  173.73    8.44
  -9 -25 -13  193.96    9.22
   9 -25 -13  189.57    8.98
  -9 -13 -25  183.56    8.78
 -13  -9 -25  180.94    8.65
   9 -13 -25  188.15    8.81
  25  -9 -13  174.52    8.69
  13  -9 -25  188.30    8.81
 -13   9 -25  183.92    8.85
 -25 -13  -9  164.88    9.93
 -25 -13 -11  307.72   12.30
 -13 -25 -11  340.13   13.33
 -25 -11 -13  316.72   12.65
 -11 -25 -13  296.84   13.78
  13 -25 -11  325.99   13.07
  11 -25 -13  305.14   14.35
 -11 -13 -25  293.90   13.82
 -13 -11 -25  305.22   12.03
  25 -11 -13  293.94   13.91
  11 -13 -25  291.71   13.60
  13 -11 -25  314.39   12.37
 -13  11 -25  305.01   14.46
 -25 -13 -11  262.19   14.41
 -25 -13 -13  297.92   11.90
 -13 -25 -13  299.22   14.82
  13 -25 -13  296.62   11.91
 -13 -13 -25  307.76   15.16
  13 -13 -25  294.00   11.65
 -13  13 -25  297.28   12.23
 -25 -15   1  206.16    9.91
 -25 -15  -1  209.07    9.91
  15 -25  -1  208.73   10.19
 -15 -25   1  208.20    9.85
 -15 -25  -1  206.87    9.63
   1 -25 -15  190.53    8.88
 -25  -1 -15  188.37    9.12
  -1 -25 -15  211.03    9.97
 -25   1 -15  191.30    9.28
  -1 -15 -25  194.29    9.72
   1 -15 -25  200.16    9.37
 -15  -1 -25  186.63    8.89
 -15   1 -25  182.62    8.70
  15  -1 -25  195.00    9.12
 -25 -15   1  174.56    9.48
 -25 -15  -1  179.89   10.11
 -15 -25   1  209.46   11.69
 -15 -25  -1  177.34   10.36
  15 -25  -1  183.79   10.81
 -15 -25   3   96.26    5.12
 -25 -15  -3  101.50    5.27
  15 -25  -3  100.76    5.44
 -15 -25  -3  104.78    5.37
 -25  -3 -15   96.00    5.07
  -3 -25 -15   95.78    4.99
   3 -25 -15   97.22    5.05
 -25   3 -15  112.13    5.89
  -3 -15 -25  103.84    5.17
   3 -15 -25  102.31    5.18
 -15  -3 -25   90.95    4.72
 -15   3 -25   92.45    4.88
  15  -3 -25  104.16    5.19
 -25 -15   3   91.36    5.63
 -15 -25   3   86.51    6.46
 -25 -15  -3  131.82    8.66
 -15 -25  -3  113.93    7.90
 -15 -25   5   33.86    2.76
 -25 -15  -5   31.75    2.64
 -15 -25  -5   37.04    2.63
  15 -25  -5   29.10    2.29
 -25  -5 -15   30.76    2.48
  -5 -25 -15   37.75    2.72
   5 -25 -15   24.55    2.26
 -25   5 -15   31.86    2.43
  -5 -15 -25   32.89    2.58
 -15  -5 -25   37.33    2.63
   5 -15 -25   32.16    2.46
 -15   5 -25   34.03    2.54
  15  -5 -25   38.45    2.61
  25  -5 -15   33.06    2.49
 -15 -25   5   29.44    4.67
 -25 -15  -5   42.97    5.77
 -15 -25  -5   39.73    5.47
 -25   5 -15   37.24    5.10
 -25 -15  -7   31.24    2.54
 -15 -25  -7   30.52    2.70
  15 -25  -7   29.10    2.37
 -25  -7 -15   29.06    2.40
  -7 -25 -15   21.69    2.11
   7 -25 -15   31.09    2.36
  -7 -15 -25   25.99    2.24
 -15  -7 -25   28.16    2.37
   7 -15 -25   27.39    2.32
 -15   7 -25   29.92    2.38
  15  -7 -25   27.10    2.17
  25  -7 -15   31.12    2.39
 -15 -25   7   33.03    4.05
 -25 -15  -7   18.74    5.50
 -15 -25  -7   18.27    4.47
 -25 -15  -9   67.47    3.91
 -15 -25  -9   67.31    3.93
  15 -25  -9   73.15    4.08
 -25  -9 -15   69.50    3.97
  -9 -25 -15   69.50    3.88
   9 -25 -15   70.61    4.16
  -9 -15 -25   73.50    4.03
 -15  -9 -25   65.89    3.87
   9 -15 -25   64.77    3.70
  25  -9 -15   69.47    4.04
  15  -9 -25   74.69    4.07
 -15   9 -25   66.76    3.87
 -25 -15  -9   57.53    6.40
 -25 -15 -11  137.47    6.17
 -15 -25 -11  155.51    6.79
 -25 -11 -15  155.61    6.75
  15 -25 -11  156.52    6.64
 -11 -25 -15  148.45    6.28
  11 -25 -15  151.72    6.46
 -11 -15 -25  146.17    6.25
 -15 -11 -25  145.62    6.44
  11 -15 -25  139.86    6.02
  25 -11 -15  148.30    6.88
  15 -11 -25  142.57    6.28
 -15  11 -25  146.17    6.53
 -25 -15 -11  141.01    8.18
 -25 -15 -13  149.07    6.54
 -15 -25 -13  150.70    6.49
 -25 -13 -15  156.95    6.77
 -13 -25 -15  162.93    8.32
  15 -25 -13  153.74    6.78
  13 -25 -15  142.54    6.20
 -13 -15 -25  145.03    7.63
 -15 -13 -25  149.33    6.57
  13 -15 -25  154.38    8.02
  15 -13 -25  141.45    7.28
 -15  13 -25  151.48    8.21
 -25 -15 -15   66.53    4.01
 -15 -25 -15   68.39    4.06
  15 -25 -15   65.40    3.89
 -15 -15 -25   61.62    3.76
  15 -15 -25   59.19    3.63
 -15  15 -25   68.74    4.27
 -25 -17   1   53.99    3.40
  17 -25  -1   54.73    3.55
 -25 -17  -1   59.97    3.66
 -17 -25   1   55.07    3.43
 -17 -25  -1   55.50    3.54
  -1 -25 -17   60.23    3.57
   1 -25 -17   55.04    3.45
 -25  -1 -17   56.43    3.41
 -25   1 -17   59.87    3.92
  -1 -17 -25   64.20    3.73
   1 -17 -25   60.83    3.47
 -17  -1 -25   55.84    3.33
 -17   1 -25   55.37    3.34
  17  -1 -25   55.79    3.31
 -25 -17   1   53.39    5.20
 -25 -17  -1   49.84    5.29
 -17 -25   1   68.06    5.95
 -17 -25  -1   47.41    5.85
  17 -25  -3   12.15    2.06
 -25 -17  -3    9.30    2.03
 -17 -25  -3   12.86    1.95
  -3 -25 -17   13.53    2.05
 -25  -3 -17   14.68    2.02
   3 -25 -17   13.64    2.01
 -25   3 -17   14.38    1.90
  -3 -17 -25    8.56    1.92
   3 -17 -25   13.88    1.97
 -17  -3 -25   11.21    1.95
 -17   3 -25   13.86    1.93
  17  -3 -25   16.66    1.96
  25  -3 -17   18.78    1.99
 -25 -17   3   16.51    3.45
 -17 -25   3   10.46    4.52
 -25 -17  -3    6.19    4.98
 -17 -25  -3   15.20    4.93
 -17 -25   5    6.61    2.11
 -25 -17  -5   -0.52    1.81
  17 -25  -5   -0.31    1.67
 -17 -25  -5    1.51    2.04
  -5 -25 -17    3.05    1.64
 -25  -5 -17   -0.59    1.68
   5 -25 -17   -2.60    1.56
  -5 -17 -25    3.78    1.86
 -17  -5 -25   -1.29    1.70
   5 -17 -25    1.83    1.71
 -17   5 -25    1.51    1.73
  17  -5 -25   -1.73    1.60
  25  -5 -17   -2.15    1.73
 -17 -25   5    0.50    4.05
 -25 -17  -5   -7.25    5.05
 -17 -25  -5   -3.89    4.90
 -25 -17  -7    1.71    1.80
 -17 -25  -7    5.26    1.72
  17 -25  -7   -1.66    1.71
  -7 -25 -17    6.35    1.91
 -25  -7 -17    2.72    1.78
   7 -25 -17    5.84    1.80
  -7 -17 -25    0.35    1.67
 -17  -7 -25    3.76    1.62
   7 -17 -25    2.77    1.59
 -17   7 -25   -0.57    1.77
  25  -7 -17    3.67    1.56
  17  -7 -25    1.48    1.67
 -17 -25   7   -2.79    3.06
 -25 -17  -7   -4.71    5.10
 -17 -25  -7    0.76    5.07
 -25 -17  -9    2.99    1.81
 -17 -25  -9    8.02    1.97
  17 -25  -9   11.30    1.84
  -9 -25 -17    8.27    1.80
 -25  -9 -17    5.00    1.79
   9 -25 -17   11.01    1.91
  -9 -17 -25   11.70    1.97
 -17  -9 -25    7.72    1.98
   9 -17 -25    6.14    1.90
  25  -9 -17    8.63    1.78
  17  -9 -25    6.35    1.76
 -17   9 -25    7.21    1.75
 -25 -17  -9    3.06    4.60
 -25 -17 -11   32.92    2.54
 -17 -25 -11   38.39    2.92
  17 -25 -11   41.70    2.95
 -25 -11 -17   37.26    2.80
 -11 -25 -17   35.39    2.64
  11 -25 -17   41.27    2.99
 -11 -17 -25   43.46    3.05
 -17 -11 -25   39.86    2.92
  11 -17 -25   43.21    3.00
  25 -11 -17   40.28    2.91
  17 -11 -25   35.85    2.69
 -17  11 -25   36.39    2.71
 -25 -17 -11   29.15    5.06
 -25 -17 -13   46.71    3.20
 -17 -25 -13   52.99    3.37
 -25 -13 -17   35.10    2.81
 -13 -25 -17   49.41    3.32
  17 -25 -13   45.46    3.17
  13 -25 -17   50.25    3.29
 -13 -17 -25   42.39    3.00
 -17 -13 -25   42.55    3.03
  13 -17 -25   47.74    3.15
  17 -13 -25   46.66    3.11
 -17  13 -25   43.01    3.04
 -25 -17 -13   37.74    5.67
 -25 -17 -15    9.32    1.96
 -17 -25 -15   16.69    2.11
 -25 -15 -17   14.74    2.21
 -15 -25 -17   17.59    2.16
  17 -25 -15   13.19    2.19
  15 -25 -17   16.08    2.25
 -15 -17 -25   19.95    2.24
 -17 -15 -25   17.01    2.27
  15 -17 -25   14.21    2.09
  17 -15 -25   11.06    1.99
 -17  15 -25   12.06    2.21
 -15  17 -25   13.96    2.21
 -25 -17 -17   -0.64    1.69
 -17 -25 -17    1.76    1.98
  17 -25 -17    3.55    1.97
 -17 -17 -25   -1.53    1.74
  17 -17 -25    4.26    1.96
 -17  17 -25   -1.33    2.11
 -25 -19   1   34.31    2.70
 -25 -19  -1   32.72    2.60
 -19 -25   1   35.54    2.54
 -19 -25  -1   38.77    2.76
  -1 -25 -19   36.01    2.54
   1 -25 -19   35.90    2.55
 -25  -1 -19   30.53    2.26
 -25   1 -19   34.23    2.42
  -1 -19 -25   32.24    2.30
   1 -19 -25   38.62    2.57
 -19  -1 -25   31.88    2.25
 -19   1 -25   29.02    2.16
  19  -1 -25   34.67    2.37
 -25 -19   1   25.23    4.39
 -25 -19  -1   28.16    5.18
 -19 -25  -1   12.45    5.10
 -19 -25   3    4.60    2.19
 -25 -19  -3    8.45    1.98
 -19 -25  -3    8.77    2.07
  -3 -25 -19    7.00    1.95
 -25  -3 -19    7.99    1.76
   3 -25 -19    5.75    1.85
 -25   3 -19    6.68    1.79
  -3 -19 -25    6.07    1.87
   3 -19 -25    5.66    1.81
 -19   3 -25    5.30    1.73
  19  -3 -25   14.10    2.22
  25  -3 -19    8.66    1.72
 -19 -25   3    2.13    3.78
 -25 -19  -3    2.24    4.76
 -19 -25  -3    6.65    4.57
 -25 -19  -5    7.08    1.78
 -19 -25  -5    5.11    1.95
  -5 -25 -19    3.52    1.82
 -25  -5 -19    0.27    1.68
   5 -25 -19    0.35    1.78
  -5 -19 -25    3.38    1.81
 -19  -5 -25    4.12    1.77
   5 -19 -25    3.12    1.84
 -19   5 -25    0.41    1.78
  19  -5 -25    1.84    1.67
  25  -5 -19    3.10    1.61
 -19 -25   5    1.11    3.77
 -25 -19  -5    6.23    5.31
 -19 -25  -5   -3.85    5.05
 -25 -19  -7    4.90    1.92
 -19 -25  -7    4.32    1.97
  -7 -25 -19    1.54    1.97
 -25  -7 -19    3.62    1.74
   7 -25 -19    4.79    1.83
  -7 -19 -25    6.60    1.92
 -19  -7 -25    3.99    1.82
   7 -19 -25    3.92    1.81
 -19   7 -25    0.70    1.73
  25  -7 -19    3.19    1.80
  19  -7 -25    3.32    1.52
 -19 -25   7   13.64    3.00
 -25 -19  -7   -4.64    5.06
 -19 -25  -7    3.64    4.46
 -25 -19  -9    1.78    1.87
 -19 -25  -9    6.69    2.00
 -25  -9 -19    0.82    1.73
  -9 -25 -19    4.74    1.74
   9 -25 -19   -3.88    1.77
  -9 -19 -25    3.11    1.94
 -19  -9 -25   -2.90    1.74
   9 -19 -25    2.66    1.80
 -19   9 -25   -2.39    1.94
  25  -9 -19    4.79    1.65
  19  -9 -25    1.73    1.68
 -25 -19  -9    2.58    4.73
 -19 -25  -9    9.04    4.42
 -25 -19 -11   17.32    2.32
 -19 -25 -11   23.35    3.25
 -11 -25 -19   16.93    2.14
 -25 -11 -19   20.58    2.37
  11 -25 -19   18.48    2.26
 -11 -19 -25   19.24    2.36
 -19 -11 -25   21.48    2.27
  11 -19 -25   23.00    2.44
  25 -11 -19   15.55    2.04
  19 -11 -25   24.08    2.66
 -19  11 -25   24.61    2.50
 -25 -19 -11   11.61    5.47
 -25 -19 -13   28.58    2.81
 -19 -25 -13   23.46    2.68
 -13 -25 -19   19.04    2.26
 -25 -13 -19   26.11    2.64
  13 -25 -19   21.19    2.36
 -13 -19 -25   23.44    2.59
 -19 -13 -25   26.78    2.69
  13 -19 -25   30.04    2.76
  19 -13 -25   23.34    2.31
 -19  13 -25   24.33    2.58
 -25 -19 -13   28.33    6.40
 -25 -19 -15   10.44    2.82
 -19 -25 -15    6.32    2.40
 -25 -15 -19   10.86    2.77
 -15 -25 -19    5.75    2.27
  15 -25 -19    2.49    1.85
 -19 -15 -25    2.49    2.00
 -15 -19 -25    4.91    1.96
  15 -19 -25    4.82    2.27
  19 -15 -25    6.34    2.16
 -25 -19 -17   -3.21    2.01
 -19 -25 -17    1.91    2.05
 -25 -17 -19   -2.35    1.98
 -17 -25 -19    1.20    2.03
 -17 -19 -25    6.72    2.39
  17 -25 -19   -0.14    2.15
 -19 -17 -25    1.49    1.80
  17 -19 -25   -2.18    1.65
  19 -17 -25   -0.49    1.88
 -25 -19 -19    7.18    2.97
 -19 -25 -19    0.96    2.13
 -19 -19 -25    4.94    2.27
  19 -19 -25    0.68    1.99
 -25 -21   1   64.28    4.08
 -21 -25   1   67.70    4.26
 -25 -21  -1   68.38    4.09
 -21 -25  -1   59.98    3.90
  -1 -25 -21   55.91    3.58
   1 -25 -21   61.02    3.83
 -25  -1 -21   63.12    4.20
 -25   1 -21   59.80    3.72
  -1 -21 -25   72.84    4.25
   1 -21 -25   69.79    4.01
 -21  -1 -25   64.68    3.91
 -21   1 -25   63.72    3.86
  21  -1 -25   61.69    3.71
 -25 -21   1   73.47    5.76
 -21 -25   1   77.30    6.84
 -25 -21  -1   72.91    6.69
 -21 -25  -1   47.20    5.43
 -21 -25   3   22.13    2.73
 -25 -21  -3   22.69    2.42
 -21 -25  -3   24.62    2.56
  -3 -25 -21   23.46    2.41
   3 -25 -21   32.12    2.64
 -25  -3 -21   26.88    2.38
  -3 -21 -25   30.57    2.62
 -25   3 -21   28.08    2.39
   3 -21 -25   32.05    2.71
 -21  -3 -25   25.15    2.38
 -21   3 -25   29.34    2.49
  21  -3 -25   35.69    2.71
  25  -3 -21   32.84    2.59
 -25 -21   3   24.05    4.14
 -21 -25   3   32.10    4.37
 -25 -21  -3   25.38    5.50
 -21 -25  -3   28.68    5.55
 -25 -21  -5   -0.15    1.78
 -21 -25  -5   10.81    1.92
  -5 -25 -21    2.29    1.74
 -25  -5 -21    3.95    1.87
   5 -25 -21    4.73    1.89
  -5 -21 -25    8.74    1.79
   5 -21 -25    7.01    1.93
 -21  -5 -25    6.17    1.94
 -21   5 -25    5.71    1.85
  25  -5 -21    8.94    1.81
  21  -5 -25    4.94    1.87
 -25 -21   5    9.52    2.83
 -21 -25   5   -0.01    3.31
 -25 -21  -5   -4.72    5.86
 -21 -25  -5   -4.94    5.30
 -25 -21  -7    4.59    1.76
 -21 -25  -7    7.17    2.07
  -7 -25 -21   -2.43    1.99
 -25  -7 -21    3.35    1.85
   7 -25 -21    9.45    1.96
  -7 -21 -25    6.69    2.03
 -21  -7 -25    2.96    1.84
   7 -21 -25    9.82    1.96
 -21   7 -25    5.71    2.01
  21  -7 -25    0.48    1.85
  25  -7 -21    7.96    1.88
 -25 -21  -7    1.84    5.72
 -21 -25  -7   -5.07    5.25
 -25 -21  -9   11.85    2.38
 -21 -25  -9   17.48    2.19
  -9 -25 -21    8.16    2.26
 -25  -9 -21   15.03    2.16
   9 -25 -21   16.80    2.25
  -9 -21 -25   15.31    2.24
 -21  -9 -25   14.22    1.96
   9 -21 -25   16.23    2.19
 -21   9 -25   14.71    2.14
  25  -9 -21   17.78    2.18
  21  -9 -25   10.92    1.82
 -25 -21  -9    0.11    5.38
 -21 -25  -9   29.44    5.73
 -25 -21 -11   37.15    3.16
 -21 -25 -11   39.51    3.38
 -25 -11 -21   31.39    2.78
 -11 -25 -21   39.68    3.12
  11 -25 -21   40.32    3.25
 -11 -21 -25   37.81    3.17
 -21 -11 -25   30.45    2.88
  11 -21 -25   41.88    3.32
  25 -11 -21   34.83    2.92
  21 -11 -25   35.77    3.03
 -25 -21 -11   43.14    6.43
 -21 -25 -11   33.50    5.72
 -25 -21 -13   39.64    3.30
 -21 -25 -13   33.17    3.09
 -13 -25 -21   48.24    3.70
 -25 -13 -21   45.87    3.61
 -13 -21 -25   35.25    3.08
 -21 -13 -25   32.68    2.78
  13 -25 -21   44.43    3.48
  13 -21 -25   42.57    3.37
  21 -13 -25   53.44    3.86
 -25 -21 -13   47.80    5.93
 -25 -21 -15   14.26    3.89
 -21 -25 -15   15.27    4.23
 -25 -15 -21   10.61    3.26
 -15 -25 -21    6.16    2.56
 -15 -21 -25   11.40    3.42
 -21 -15 -25   16.33    4.44
  15 -25 -21   12.06    3.49
  15 -21 -25   15.67    4.22
  21 -15 -25   20.90    2.45
 -25 -21 -17    0.54    2.09
 -21 -25 -17    0.71    2.08
 -25 -17 -21    6.67    2.74
 -17 -25 -21   -1.15    2.06
 -21 -17 -25    4.21    2.40
 -17 -21 -25    4.05    2.35
  17 -25 -21   -0.63    1.98
  17 -21 -25    6.56    2.50
  21 -17 -25    6.28    2.52
 -25 -21 -19    1.22    1.83
 -21 -25 -19    3.35    2.15
 -25 -19 -21    1.13    2.19
 -19 -25 -21   -0.31    2.09
 -21 -19 -25    0.58    1.83
 -19 -21 -25    4.83    2.06
  19 -21 -25    1.79    1.93
 -25 -21 -21    5.40    2.00
 -21 -25 -21    2.53    2.09
 -21 -21 -25    9.49    2.17
 -25 -23   1  122.23    8.39
 -23 -25   1  125.39    8.57
 -25 -23  -1  143.64    9.66
 -23 -25  -1  110.98    7.66
  -1 -25 -23  125.66    8.27
   1 -25 -23  125.26    8.36
  -1 -23 -25  124.14    8.22
   1 -23 -25  128.32    8.43
 -25  -1 -23  125.05    8.45
 -25   1 -23  128.64    8.67
 -23  -1 -25  112.10    7.67
 -23   1 -25  117.20    7.93
  23  -1 -25  132.86    8.71
  25  -1 -23  120.59    8.03
 -25 -23   1  101.51    7.99
 -23 -25   1   93.63    8.12
 -25 -23  -1  126.47   10.59
 -23 -25  -1  114.87    9.49
 -25 -23  -3   77.50    5.35
 -23 -25  -3   74.97    5.32
  -3 -25 -23   80.96    5.65
   3 -25 -23   78.25    5.22
  -3 -23 -25   73.93    5.17
 -25  -3 -23   77.82    5.44
   3 -23 -25   66.95    4.63
 -23  -3 -25   74.01    5.26
 -23   3 -25   65.35    4.69
  25  -3 -23   76.48    5.30
  23  -3 -25   75.50    5.10
 -25 -23   3   68.56    6.05
 -23 -25   3   64.87    5.88
 -25 -23  -3   82.25    7.76
 -23 -25  -3   61.78    6.96
 -25 -23  -5   34.62    3.15
 -23 -25  -5   40.33    3.45
  -5 -25 -23   36.51    3.15
 -25  -5 -23   43.73    3.43
  -5 -23 -25   48.84    3.73
   5 -25 -23   34.55    2.86
   5 -23 -25   36.10    2.95
 -23  -5 -25   34.65    3.04
 -23   5 -25   41.73    3.49
  25  -5 -23   40.29    3.25
  23  -5 -25   40.33    3.30
 -25 -23   5   33.31    3.94
 -23 -25   5   36.47    4.20
 -25 -23  -5   43.46    6.35
 -23 -25  -5   50.30    6.65
 -25 -23  -7   24.62    2.52
 -23 -25  -7   24.90    2.50
  -7 -25 -23   33.62    2.87
 -25  -7 -23   35.35    3.08
  -7 -23 -25   32.33    2.98
   7 -25 -23   25.11    2.59
 -23  -7 -25   34.60    3.02
   7 -23 -25   35.40    2.89
  23  -7 -25   37.97    3.50
  25  -7 -23   33.76    2.96
 -25 -23  -7   24.32    6.53
 -23 -25  -7    5.78    5.98
 -23 -25  -9   38.09    3.12
 -25 -23  -9   57.93    4.24
  -9 -25 -23   48.37    3.82
 -25  -9 -23   49.95    3.81
  -9 -23 -25   54.27    4.00
 -23  -9 -25   47.72    3.70
   9 -25 -23   50.35    3.80
   9 -23 -25   51.11    3.75
  23  -9 -25   45.33    3.53
  25  -9 -23   47.73    3.69
 -25 -23  -9   46.81    6.08
 -23 -25  -9   39.21    6.94
 -23 -25 -11   74.64    5.20
 -25 -23 -11   83.33    5.64
 -25 -11 -23   82.25    5.67
 -11 -25 -23   85.77    5.75
 -11 -23 -25   73.14    5.03
 -23 -11 -25   75.55    5.39
  11 -25 -23   83.10    5.59
  11 -23 -25   73.81    4.95
  25 -11 -23   73.61    5.13
  23 -11 -25   74.63    5.13
 -25 -23 -11   82.88    8.51
 -23 -25 -11   66.14    6.74
 -25 -23 -13   79.06    7.38
 -23 -25 -13   70.75    6.53
 -25 -13 -23   77.98    7.10
 -13 -25 -23   77.66    7.03
 -13 -23 -25   71.61    6.57
 -23 -13 -25   72.72    6.62
  13 -25 -23   82.76    7.48
  13 -23 -25   79.11    7.10
  23 -13 -25   78.72    7.18
 -25 -23 -13   71.77    8.59
 -23 -25 -13   85.77    9.45
 -23 -25 -15   40.09    4.15
 -25 -23 -15   34.48    3.74
 -15 -25 -23   39.88    4.12
 -25 -15 -23   48.52    4.78
 -15 -23 -25   46.09    4.53
 -23 -15 -25   44.50    4.36
  15 -25 -23   35.37    3.61
  15 -23 -25   37.19    3.86
  23 -15 -25   35.58    3.73
 -25 -23 -15   34.30    5.92
 -25 -23 -17    7.44    2.40
 -23 -25 -17   13.98    3.33
 -17 -25 -23   24.37    3.05
 -25 -17 -23   13.41    3.26
 -23 -17 -25   15.89    3.80
 -17 -23 -25   10.38    2.90
  17 -25 -23   13.19    3.29
  17 -23 -25    8.17    2.59
 -25 -23 -19   12.63    2.34
 -23 -25 -19    8.58    2.22
 -19 -25 -23    6.57    2.19
 -25 -19 -23    5.97    2.32
 -19 -23 -25   13.14    2.32
 -23 -19 -25    6.50    1.93
 -25 -25   1  136.45    8.90
 -25 -25  -1  125.70    8.23
  -1 -25 -25  119.24    7.71
   1 -25 -25  129.54    8.19
 -25  -1 -25  119.99    7.89
  25  -1 -25  126.93    8.24
 -25 -25   1  125.07    9.29
 -25 -25  -1  100.84    8.82
 -25 -25  -3   99.07    6.58
  -3 -25 -25   83.02    5.58
   3 -25 -25   85.79    5.71
 -25  -3 -25   84.59    6.07
  25  -3 -25   74.92    5.18
 -25 -25  -3   75.41    7.52
 -25 -25  -5   48.88    3.87
  -5 -25 -25   48.62    3.77
   5 -25 -25   56.48    4.13
 -25  -5 -25   48.79    3.81
  25  -5 -25   44.42    3.51
 -25 -25   5   49.32    4.60
 -25 -25  -5   29.71    6.14
 -25 -25  -7   46.63    3.73
  -7 -25 -25   35.92    3.16
 -25  -7 -25   41.10    3.39
   7 -25 -25   40.98    3.33
  25  -7 -25   37.89    3.19
 -25 -25  -7   28.98    6.03
 -25 -25  -9   48.99    5.02
  -9 -25 -25   59.01    5.46
 -25  -9 -25   51.60    5.01
   9 -25 -25   49.01    4.63
  25  -9 -25   64.62    6.24
 -25 -25  -9   49.54    7.49
 -25 -25 -11   75.62    6.81
 -11 -25 -25   69.37    6.42
 -25 -11 -25   76.36    6.98
  11 -25 -25   64.14    5.84
 -25 -25 -11   57.06    7.92
 -25 -25 -13   73.16    6.95
 -13 -25 -25   82.60    7.61
 -25 -13 -25   62.17    6.06
  13 -25 -25   78.18    7.21
 -25 -25 -13   53.68    7.21
 -25 -25 -15   40.24    3.58
 -15 -25 -25   44.41    4.02
 -25 -15 -25   42.15    3.67
  15 -25 -25   31.12    2.99
 -25 -25 -15   23.97    6.11
   0 -26   0  648.91   21.65
  26   0   0  572.63   19.81
   0   0 -26  648.09   21.37
   0 -26   0  593.90   21.86
   0 -26   2  490.31   16.61
  -2 -26   0  492.57   16.71
   2 -26   0  482.90   16.53
   0 -26  -2  470.93   15.84
  26   0  -2  430.15   15.21
  26   2   0  406.96   14.31
  26   0   2  453.81   16.04
   0  -2 -26  495.95   16.62
  -2   0 -26  482.81   16.22
   2   0 -26  495.90   16.68
   0   2 -26  470.73   15.82
   0 -26   2  450.30   17.59
  -2 -26   0  439.62   16.97
   2 -26   0  472.84   17.79
   0 -26  -2  446.02   16.58
   2 -26   2  354.03   12.46
  -2 -26   2  364.52   12.67
  -2 -26  -2  362.31   12.50
   2 -26  -2  357.12   12.40
  26   2  -2  311.80   11.65
  26  -2  -2  334.62   12.43
  26   2   2  304.30   11.24
  -2  -2 -26  341.01   11.73
   2  -2 -26  292.08   10.27
  -2   2 -26  335.77   11.54
   2   2 -26  348.73   12.04
  -2 -26   2  322.38   13.36
   2 -26   2  321.86   13.16
  -2 -26  -2  335.81   13.44
   2 -26  -2  341.26   13.17
   0 -26   4  194.79    7.47
   4 -26   0  203.83    7.54
  -4 -26   0  215.69    7.96
   0 -26  -4  218.47    8.00
  26   0  -4  184.80    7.41
  26   4   0  172.11    6.99
  26   0   4  177.22    7.17
   0  -4 -26  190.99    6.98
  -4   0 -26  213.03    7.86
   4   0 -26  190.91    7.04
   0   4 -26  194.89    7.08
   0 -26   4  207.13    9.27
  -4 -26   0  188.05    8.70
   4 -26   0  183.19    8.47
   2 -26   4  129.67    5.20
  -2 -26   4  131.66    5.40
   4 -26   2  130.18    5.20
  -4 -26   2  129.92    5.09
   4 -26  -2  129.67    5.11
  -4 -26  -2  121.26    4.77
  -2 -26  -4  125.66    5.03
   2 -26  -4  137.12    5.40
  26   2  -4  108.74    4.76
  26  -2  -4  121.04    5.33
  26   4  -2  109.84    4.94
  26   4   2  108.84    4.84
  26   2   4  109.10    4.77
  -2  -4 -26  122.56    4.68
  -4  -2 -26  134.66    5.37
   2  -4 -26  129.45    4.95
  -4   2 -26  114.65    4.52
   4  -2 -26  124.56    4.82
  -2   4 -26  129.77    5.25
   4   2 -26  134.07    5.26
 -26  -4  -2  121.95    5.69
 -26  -2  -4  127.41    6.29
   2 -26   4  133.17    7.00
  -2 -26   4  128.82    7.02
  -4 -26   2  125.03    7.11
   4 -26   2  126.81    7.22
  -4 -26  -2  131.56    7.15
   4 -26   4   20.62    2.28
 -26  -4  -4   17.64    1.96
  -4 -26   4   20.11    2.25
   4 -26  -4   16.86    1.95
  -4 -26  -4   14.56    1.99
  26   4   4   17.29    1.72
  -4  -4 -26   15.10    1.92
   4  -4 -26   17.99    1.93
  -4   4 -26   20.86    1.93
 -26  -4  -4   21.55    3.67
   4 -26   4   20.83    3.79
  -4 -26   4   17.31    4.30
 -26   0  -6   83.31    4.09
   6 -26   0   72.80    3.48
  -6 -26   0   80.16    3.68
   0 -26  -6   70.00    3.30
  26   0  -6   70.39    3.46
   0  -6 -26   82.72    3.64
  -6   0 -26   81.97    3.59
   6   0 -26   73.03    3.31
 -26   0  -6   81.85    5.35
   0 -26   6   76.24    4.93
  -6 -26   0   66.73    5.98
   6 -26   0   69.95    5.19
 -26  -6  -2   40.27    2.68
  -2 -26   6   29.79    2.49
   6 -26   2   37.87    2.57
  -6 -26   2   39.42    2.63
 -26  -2  -6   36.47    2.33
  -6 -26  -2   37.15    2.42
   6 -26  -2   39.49    2.57
  -2 -26  -6   37.48    2.38
   2 -26  -6   40.25    2.55
  26   2  -6   33.34    2.31
  -2  -6 -26   39.86    2.45
  26   2   6   31.27    2.13
   2  -6 -26   38.62    2.29
  -6  -2 -26   39.61    2.39
  -6   2 -26   42.53    2.48
   6  -2 -26   38.20    2.38
 -26  -6  -2   33.87    3.85
   2 -26   6   48.93    4.04
  -2 -26   6   39.33    4.04
 -26  -2  -6   42.81    5.17
   6 -26   2   37.90    5.21
  -6 -26   2   38.05    5.02
  -6 -26  -2   44.33    5.02
  -4 -26   6    2.01    1.95
   6 -26   4    2.62    1.73
  -6 -26   4    8.74    2.11
 -26  -6  -4    3.41    1.80
 -26  -4  -6    0.21    1.39
  -6 -26  -4    5.78    1.86
   6 -26  -4    0.91    1.65
  -4 -26  -6    7.93    1.85
   4 -26  -6    4.68    1.69
  26   4   6    3.56    1.48
  -4  -6 -26    6.65    1.82
  -6  -4 -26    4.87    1.85
   6  -4 -26    1.97    1.49
  -6   4 -26    5.51    1.65
  -4   6 -26    4.38    1.83
   4 -26   6    1.16    3.00
  -4 -26   6    0.41    3.08
   6 -26   4    1.36    3.74
 -26  -6  -4    0.95    3.92
  -6 -26   4   15.76    4.33
 -26  -4  -6    4.11    3.89
  26  -6  -4    4.86    3.73
  -6 -26   6   28.09    2.46
 -26  -6  -6   22.80    2.12
  -6 -26  -6   34.54    2.35
   6 -26  -6   25.95    2.20
  -6  -6 -26   28.61    2.01
   6  -6 -26   25.26    2.08
  -6   6 -26   28.13    2.19
   6 -26   6   34.21    3.30
  -6 -26   6   28.34    4.00
 -26  -6  -6   23.46    4.98
   8 -26   0  111.02    4.34
  -8 -26   0  117.17    4.42
 -26   0  -8  116.47    4.58
   0 -26  -8   98.72    3.84
   0  -8 -26  101.88    3.90
  -8   0 -26  101.28    3.81
   8   0 -26  100.83    3.83
   0 -26   8  120.12    5.11
 -26  -8   0  114.95    5.57
 -26   0  -8  114.46    7.23
  -8 -26   0  110.98    6.97
   8 -26   0  108.31    6.83
 -26  -8  -2   65.05    3.09
   8 -26   2   63.33    3.16
 -26   2  -8   65.02    3.17
  -8 -26   2   57.34    2.86
   8 -26  -2   53.08    2.72
  -8 -26  -2   61.65    2.93
 -26  -2  -8   60.84    4.17
  -2 -26  -8   61.98    2.96
   2 -26  -8   58.88    2.85
  -2  -8 -26   65.67    2.97
   2  -8 -26   67.54    2.99
  -8  -2 -26   64.66    2.91
  -8   2 -26   53.42    2.66
   8  -2 -26   56.74    2.73
  -2 -26   8   59.71    3.71
 -26  -8  -2   57.28    4.89
 -26   2  -8   56.18    4.47
 -26  -2  -8   73.30    5.84
   8 -26   2   54.27    4.95
  -8 -26   2   47.76    5.61
  -8 -26  -2   70.78    5.87
  -8 -26   4    0.19    2.06
 -26  -8  -4    5.48    1.60
 -26  -4  -8    5.91    1.67
  -8 -26  -4    4.39    1.75
   8 -26  -4    7.36    1.71
  -4 -26  -8    5.32    1.84
   4 -26  -8    5.36    1.73
  -4  -8 -26    7.19    1.85
  -8  -4 -26    6.88    1.62
   4  -8 -26    4.14    1.71
   8  -4 -26    8.73    1.59
  -8   4 -26    1.33    1.52
  -4 -26   8    0.02    2.68
   8 -26   4    8.69    3.43
  -8 -26   4   -5.83    4.17
 -26  -8  -4   -0.15    4.59
 -26  -4  -8    7.45    4.37
  -8 -26  -4   -5.23    4.52
  -8 -26   6    8.35    2.15
 -26  -8  -6    7.88    1.66
 -26  -6  -8    8.06    1.78
  -8 -26  -6    6.69    1.92
   8 -26  -6   12.50    1.83
  -6 -26  -8    3.84    1.87
   6 -26  -8    4.42    1.58
  -6  -8 -26    5.26    1.83
  -8  -6 -26    5.14    1.79
   6  -8 -26    5.27    1.81
   8  -6 -26    9.21    1.77
  -8   6 -26    7.88    1.79
  -6   8 -26    6.69    1.63
  -6 -26   8   12.95    3.27
  -8 -26   6    1.71    3.68
 -26  -8  -6    2.17    4.06
 -26  -6  -8   11.52    5.01
 -26  -8  -8    6.04    1.76
  -8 -26  -8    0.99    1.88
   8 -26  -8   -0.74    1.68
  -8  -8 -26    2.35    1.64
   8  -8 -26    0.79    1.73
  -8   8 -26    1.17    1.72
  -8 -26   8    7.28    2.63
 -26  -8  -8   -6.43    4.71
  10 -26   0  267.00    8.77
 -10 -26   0  250.05    8.08
 -26   0 -10  275.78    9.06
   0 -26 -10  255.60    8.28
   0 -10 -26  243.70    7.74
 -10   0 -26  249.05    8.19
  10   0 -26  255.91    8.19
 -26 -10   0  239.89    9.18
 -26   0 -10  259.71   11.19
 -10 -26   0  269.10   10.95
  10 -26   0  233.32   12.07
  10 -26   2  184.19    6.74
 -26 -10  -2  181.50    6.25
 -10 -26   2  192.69    6.58
  10 -26  -2  178.48    6.52
 -10 -26  -2  195.58    6.49
 -26   2 -10  191.51    6.81
 -26  -2 -10  179.84    7.83
  -2 -26 -10  177.81    5.97
   2 -26 -10  188.47    6.44
  -2 -10 -26  192.11    6.53
   2 -10 -26  179.74    5.88
 -10  -2 -26  167.08    5.80
 -10   2 -26  181.56    6.43
  10  -2 -26  173.82    5.98
 -26 -10  -2  165.32    7.51
 -26   2 -10  183.20    9.04
  10 -26   2  164.74    8.32
 -10 -26   2  170.40    7.94
 -26  -2 -10  177.86    9.04
 -10 -26  -2  167.53    8.27
 -10 -26   4   63.53    3.20
 -26 -10  -4   60.12    3.12
 -10 -26  -4   66.84    3.24
  10 -26  -4   62.80    3.02
 -26  -4 -10   64.87    2.98
  -4 -26 -10   63.85    3.00
   4 -26 -10   76.62    3.29
  -4 -10 -26   62.26    3.01
 -10  -4 -26   61.64    2.90
   4 -10 -26   58.63    2.82
 -10   4 -26   72.95    3.18
  10  -4 -26   58.30    2.66
  26  -4 -10   68.74    3.18
  10 -26   4   56.54    4.21
 -26   4 -10   55.80    4.66
 -10 -26   4   57.51    5.27
 -26 -10  -4   55.71    5.45
 -26  -4 -10   68.55    5.76
 -10 -26  -4   54.46    4.97
 -10 -26   6   25.52    2.45
 -26 -10  -6   21.02    2.15
 -10 -26  -6   21.34    2.33
 -26  -6 -10   23.10    2.16
  10 -26  -6   27.79    2.29
  -6 -26 -10   17.51    2.16
   6 -26 -10   21.24    2.15
  -6 -10 -26   28.33    2.28
 -10  -6 -26   29.58    2.28
   6 -10 -26   27.69    2.21
  10  -6 -26   18.42    2.02
  26  -6 -10   28.10    2.20
 -10   6 -26   26.40    2.26
 -10 -26   6   24.47    4.14
 -26 -10  -6   34.54    5.63
 -26  -6 -10   24.47    5.27
 -26 -10  -8   40.97    2.85
 -26  -8 -10   39.20    2.68
 -10 -26  -8   36.14    2.71
  10 -26  -8   41.45    2.79
  -8 -26 -10   48.64    3.14
   8 -26 -10   40.26    2.75
  -8 -10 -26   42.40    2.89
 -10  -8 -26   41.54    2.72
  26  -8 -10   43.62    2.82
   8 -10 -26   44.50    2.96
  10  -8 -26   48.25    2.97
 -10   8 -26   45.36    2.84
 -10 -26   8   40.46    3.81
 -26 -10  -8   29.04    5.62
 -26  -8 -10   58.06    6.02
 -26 -10 -10  121.08    6.36
 -10 -26 -10  134.74    6.63
  10 -26 -10  135.40    6.79
 -10 -10 -26  130.31    6.45
  10 -10 -26  119.50    6.04
 -10  10 -26  136.80    6.88
 -26 -10 -10  117.19    8.23
 -26 -12   0  363.20   16.62
  12 -26   0  358.52   16.53
 -12 -26   0  351.11   16.01
 -26   0 -12  334.50   15.48
   0 -26 -12  322.08   14.64
   0 -12 -26  359.60   16.23
 -12   0 -26  355.60   16.18
  12   0 -26  319.81   14.51
 -26 -12   0  325.49   15.94
 -12 -26   0  327.04   16.38
  12 -26   0  307.56   15.87
 -26   0 -12  322.96   17.30
  12 -26   2  264.57   12.51
 -26 -12  -2  281.28   13.11
 -12 -26   2  271.48   12.59
  12 -26  -2  244.57   11.40
 -12 -26  -2  278.17   12.78
 -26   2 -12  265.88   12.70
 -26  -2 -12  260.27   12.23
  -2 -26 -12  268.11   12.45
   2 -26 -12  272.51   12.57
  -2 -12 -26  252.95   11.56
   2 -12 -26  250.25   11.42
 -12  -2 -26  262.51   12.12
 -12   2 -26  252.76   11.81
  12  -2 -26  237.17   10.98
 -26 -12   2  244.73   12.00
 -26 -12  -2  235.67   12.37
  12 -26   2  226.69   12.19
 -12 -26   2  239.85   12.88
 -26   2 -12  263.45   14.83
 -12 -26  -2  229.29   12.13
 -26  -2 -12  241.86   13.61
  12 -26  -2  232.75   12.33
 -12 -26   4  122.13    6.09
 -26 -12  -4  125.00    6.40
 -12 -26  -4  127.28    6.35
  12 -26  -4  111.86    5.93
 -26  -4 -12  123.85    6.28
  -4 -26 -12  125.40    6.11
   4 -26 -12  122.86    6.13
  -4 -12 -26  113.53    5.65
 -12  -4 -26  120.45    6.11
   4 -12 -26  120.46    5.88
 -12   4 -26  117.12    5.88
  12  -4 -26  112.64    5.57
  26  -4 -12  123.20    6.18
 -12 -26   4  122.91    7.82
 -26 -12  -4  120.68    8.00
 -26   4 -12  120.18    8.33
 -12 -26  -4  107.13    7.48
 -26  -4 -12  125.38    8.22
 -26 -12  -6   68.83    3.92
 -12 -26  -6   64.13    3.86
  12 -26  -6   73.21    4.08
 -26  -6 -12   69.84    4.05
  -6 -26 -12   68.50    3.80
   6 -26 -12   66.52    3.74
  -6 -12 -26   69.69    3.92
 -12  -6 -26   64.01    3.65
   6 -12 -26   72.05    3.95
  12  -6 -26   65.61    3.66
 -12   6 -26   72.04    3.96
  26  -6 -12   66.02    3.90
 -12 -26   6   62.29    5.24
 -26 -12  -6   57.20    6.22
 -26  -6 -12   78.33    6.65
 -12 -26  -6   62.08    5.55
 -26 -12  -8   97.52    5.30
 -12 -26  -8   87.86    5.08
  12 -26  -8  103.93    5.39
 -26  -8 -12   97.90    5.22
  -8 -26 -12   93.64    4.95
   8 -26 -12   91.48    4.82
  -8 -12 -26   95.67    5.02
 -12  -8 -26  107.24    5.61
   8 -12 -26   96.63    5.01
  26  -8 -12   87.32    4.88
  12  -8 -26   99.19    5.08
 -12   8 -26   96.37    5.07
 -12 -26   8   88.85    5.63
 -26 -12  -8   77.04    6.57
 -26  -8 -12   85.73    6.95
 -26 -12 -10  192.29    9.33
 -26 -10 -12  193.95    9.55
 -12 -26 -10  194.26    9.37
 -10 -26 -12  181.44    8.71
  12 -26 -10  203.51    9.84
  10 -26 -12  196.06    9.44
 -12 -10 -26  184.30    8.90
 -10 -12 -26  192.90    9.23
  10 -12 -26  194.85    9.39
  12 -10 -26  199.20    9.54
 -12  10 -26  206.65    9.97
 -26 -12 -10  205.01   11.82
 -26 -10 -12  187.92   11.02
 -26 -12 -12  265.75   10.91
 -12 -26 -12  266.14   10.57
  12 -26 -12  282.49   11.46
 -12 -12 -26  248.53   10.05
  12 -12 -26  265.79   10.63
 -12  12 -26  240.64    9.92
 -26 -12 -12  262.04   13.14
 -26 -14   0  242.80   11.57
  14 -26   0  234.55   11.43
 -14 -26   0  233.25   11.06
 -26   0 -14  218.92   10.51
   0 -26 -14  234.93   10.87
   0 -14 -26  227.57   10.55
 -14   0 -26  222.66   10.40
 -26 -14   0  245.65   12.56
 -14 -26   0  227.65   12.50
  14 -26   0  194.29   11.04
 -26   0 -14  223.44   13.19
 -26 -14  -2  162.11    8.13
 -14 -26   2  175.41    8.65
  14 -26  -2  159.94    8.08
 -14 -26  -2  180.43    8.85
 -26  -2 -14  158.60    7.97
 -26   2 -14  170.25    8.56
  -2 -26 -14  158.96    7.90
   2 -26 -14  159.42    7.77
  -2 -14 -26  164.28    7.87
   2 -14 -26  157.67    7.62
 -14  -2 -26  159.98    7.90
 -14   2 -26  157.70    7.88
  14  -2 -26  155.95    7.65
 -26 -14   2  145.68    8.09
 -26 -14  -2  173.03   10.24
 -14 -26   2  170.95   10.06
 -14 -26  -2  151.27    9.11
 -26   2 -14  148.68    9.92
  14 -26  -2  140.12    8.46
 -26  -2 -14  130.35    8.88
 -14 -26   4   79.78    4.55
 -26 -14  -4   65.15    3.82
  14 -26  -4   72.63    4.19
 -14 -26  -4   64.05    3.84
 -26  -4 -14   66.96    3.96
  -4 -26 -14   68.35    3.91
   4 -26 -14   68.70    3.95
  -4 -14 -26   57.69    3.37
 -14  -4 -26   70.70    4.01
   4 -14 -26   68.28    3.79
 -14   4 -26   69.20    4.03
  14  -4 -26   71.05    3.90
  26  -4 -14   65.28    3.74
 -14 -26   4   55.50    5.52
 -26 -14  -4   58.95    6.12
 -26   4 -14   61.82    5.89
 -14 -26  -4   72.78    6.46
 -26 -14  -6   35.54    2.71
 -14 -26  -6   39.10    2.88
  14 -26  -6   34.19    2.67
 -26  -6 -14   39.18    2.72
  -6 -26 -14   40.75    2.87
   6 -26 -14   33.37    2.58
  -6 -14 -26   37.48    2.72
 -14  -6 -26   34.35    2.59
   6 -14 -26   32.65    2.40
 -14   6 -26   33.17    2.54
  14  -6 -26   34.48    2.50
  26  -6 -14   31.29    2.41
 -14 -26   6   23.30    4.08
 -26 -14  -6   34.84    6.05
 -14 -26  -6   27.11    5.07
 -26 -14  -8   52.78    3.31
 -14 -26  -8   49.83    3.31
  14 -26  -8   55.98    3.47
 -26  -8 -14   52.51    3.28
  -8 -26 -14   45.56    2.97
   8 -26 -14   55.78    3.40
  -8 -14 -26   47.88    3.15
 -14  -8 -26   51.49    3.29
   8 -14 -26   49.54    3.15
  26  -8 -14   51.82    3.19
  14  -8 -26   48.66    3.06
 -14   8 -26   55.68    3.43
 -14 -26   8   49.15    3.90
 -26 -14  -8   38.06    5.38
 -26 -14 -10  126.60    5.72
 -14 -26 -10  121.14    5.41
  14 -26 -10  132.70    5.83
 -26 -10 -14  131.80    5.90
 -10 -26 -14  112.19    5.08
  10 -26 -14  127.69    5.68
 -10 -14 -26  113.03    5.09
 -14 -10 -26  129.77    5.76
  10 -14 -26  123.85    5.49
  14 -10 -26  127.12    5.68
 -14  10 -26  123.27    5.69
 -26 -14 -10   99.32    7.08
 -26 -14 -12  175.66    7.46
 -14 -26 -12  186.20    7.74
 -26 -12 -14  182.42    7.87
 -12 -26 -14  179.11    7.72
  14 -26 -12  183.74    7.94
  12 -26 -14  186.69    7.77
 -12 -14 -26  169.22    7.07
 -14 -12 -26  185.83    7.76
  12 -14 -26  163.34    6.81
  14 -12 -26  166.44    7.11
 -14  12 -26  166.20    7.06
 -26 -14 -12  176.54    9.37
 -26 -14 -14  115.90    6.35
 -14 -26 -14  123.14    6.62
  14 -26 -14  116.32    6.25
 -14 -14 -26  113.12    6.02
  14 -14 -26  115.65    6.31
 -14  14 -26  117.28    6.44
 -26 -16   0   80.33    4.54
 -16 -26   0   81.47    4.57
 -26   0 -16   71.69    4.24
   0 -26 -16   77.67    4.23
   0 -16 -26   75.55    4.13
 -16   0 -26   69.96    3.83
 -26 -16   0   71.77    5.50
 -16 -26   0   78.81    6.76
 -16 -26   2   39.46    2.97
 -26 -16  -2   38.90    2.95
  16 -26  -2   45.41    3.30
 -16 -26  -2   44.01    3.07
  -2 -26 -16   39.79    4.51
 -26  -2 -16   41.72    2.82
   2 -26 -16   43.15    2.90
 -26   2 -16   42.35    2.77
  -2 -16 -26   42.13    2.82
   2 -16 -26   44.42    2.84
 -16  -2 -26   40.48    2.78
 -16   2 -26   43.34    2.90
  16  -2 -26   39.58    2.70
 -26 -16   2   39.07    7.15
 -26 -16  -2   54.29    6.19
 -16 -26   2   33.78    6.34
 -16 -26  -2   41.81    5.35
 -16 -26   4    5.72    2.17
 -26 -16  -4   10.76    1.91
  16 -26  -4    4.09    1.78
 -16 -26  -4    1.09    1.92
 -26  -4 -16    6.05    1.82
  -4 -26 -16    2.13    1.65
   4 -26 -16    1.57    1.72
  -4 -16 -26    4.56    1.85
   4 -16 -26    6.78    1.92
 -16  -4 -26    7.30    1.92
 -16   4 -26    8.01    1.75
  16  -4 -26    7.14    1.70
  26  -4 -16    9.91    1.80
 -16 -26   4   -6.95    4.17
 -26 -16  -4   -1.64    4.91
 -16 -26  -4   14.41    4.50
 -26 -16  -6    0.19    1.91
 -16 -26  -6    6.23    1.97
  16 -26  -6    2.20    1.75
 -26  -6 -16   -0.38    1.86
  -6 -26 -16    2.46    1.91
   6 -26 -16   -0.32    1.86
  -6 -16 -26    1.77    1.82
 -16  -6 -26    1.28    1.74
   6 -16 -26    4.69    1.60
 -16   6 -26    0.07    1.74
  16  -6 -26    2.15    1.52
  26  -6 -16    0.22    1.65
 -16 -26   6    4.76    3.16
 -26 -16  -6   20.99    5.45
 -16 -26  -6    5.88    4.87
 -26 -16  -8    8.05    1.95
 -16 -26  -8   -0.05    2.09
  16 -26  -8    1.42    1.75
 -26  -8 -16    3.85    1.69
  -8 -26 -16    3.14    1.73
   8 -26 -16    1.79    1.78
  -8 -16 -26    5.25    1.89
 -16  -8 -26    3.46    1.66
   8 -16 -26    3.69    1.82
  26  -8 -16    4.35    1.65
  16  -8 -26    4.80    1.53
 -16   8 -26    5.07    1.82
 -16 -26   8    4.79    2.63
 -26 -16  -8   -0.13    5.36
 -16 -26  -8   10.61    4.76
 -26 -16 -10   32.34    2.62
 -16 -26 -10   31.01    2.52
  16 -26 -10   38.07    3.03
 -26 -10 -16   31.77    2.60
 -10 -26 -16   36.17    2.80
  10 -26 -16   32.62    2.64
 -10 -16 -26   28.54    2.54
 -16 -10 -26   26.92    2.53
  10 -16 -26   30.17    2.50
  16 -10 -26   31.85    2.49
 -16  10 -26   29.34    2.49
 -26 -16 -10   34.20    6.30
 -26 -16 -12   54.32    3.67
 -16 -26 -12   53.16    3.47
  16 -26 -12   64.58    4.12
 -26 -12 -16   56.33    3.48
 -12 -26 -16   58.90    3.71
  12 -26 -16   63.61    3.87
 -12 -16 -26   55.89    3.68
 -16 -12 -26   56.03    3.73
  12 -16 -26   59.76    3.66
  16 -12 -26   63.39    3.79
 -16  12 -26   63.01    4.04
 -26 -16 -12   49.52    6.53
 -26 -16 -14   39.03    3.30
 -16 -26 -14   41.21    3.45
 -26 -14 -16   30.55    2.88
 -14 -26 -16   35.82    3.03
  16 -26 -14   35.60    3.51
  14 -26 -16   40.73    3.31
 -16 -14 -26   32.25    2.83
 -14 -16 -26   30.61    2.72
  14 -16 -26   40.56    3.28
  16 -14 -26   35.15    3.02
 -16  14 -26   33.49    3.04
 -14  16 -26   35.37    3.08
 -26 -16 -14   31.58    5.20
 -26 -16 -16    7.95    2.23
 -16 -26 -16    4.71    1.93
  16 -26 -16    3.90    2.15
 -16 -16 -26   15.52    4.19
  16 -16 -26    3.74    1.90
 -16  16 -26    7.63    2.35
 -26 -18   0   18.26    2.37
 -18 -26   0   28.86    2.52
   0 -26 -18   25.71    2.33
 -26   0 -18   21.00    2.04
   0 -18 -26   24.95    2.31
 -18   0 -26   16.72    1.98
 -26 -18   0   25.05    4.60
 -18 -26   0   10.65    4.91
 -18 -26   2    8.68    2.00
 -26 -18  -2   -0.17    1.97
 -18 -26  -2    9.65    2.07
  -2 -26 -18    2.24    1.86
   2 -26 -18   11.64    2.09
 -26  -2 -18    9.17    1.94
 -26   2 -18    8.73    1.84
  -2 -18 -26    6.12    1.88
   2 -18 -26    4.60    1.69
 -18  -2 -26    9.74    1.66
 -18   2 -26    9.23    1.89
  18  -2 -26    7.72    1.77
 -26 -18   2   -4.23    3.55
 -26 -18  -2   -3.20    4.66
 -18 -26   2    1.20    4.61
 -18 -26  -2    5.39    5.02
 -18 -26   4    0.80    2.11
 -26 -18  -4    1.77    1.91
 -18 -26  -4   -0.67    1.99
  -4 -26 -18    8.53    1.91
 -26  -4 -18    0.27    1.59
   4 -26 -18    0.38    1.83
  -4 -18 -26    4.32    1.87
   4 -18 -26    0.52    1.57
 -18   4 -26    4.06    1.71
  18  -4 -26    1.04    1.52
  26  -4 -18    4.30    1.83
 -26 -18   4    6.89    2.94
 -18 -26   4   -6.49    3.50
 -26 -18  -4   -6.29    5.03
 -18 -26  -4   -0.77    4.93
 -26 -18  -6   10.12    2.11
 -18 -26  -6   11.98    2.08
  -6 -26 -18    8.90    1.80
 -26  -6 -18   10.37    2.12
   6 -26 -18    7.95    1.99
  -6 -18 -26    9.37    2.00
 -18  -6 -26   15.15    2.12
   6 -18 -26   12.44    1.92
 -18   6 -26   12.26    2.02
  18  -6 -26   10.68    1.94
  26  -6 -18    8.74    1.69
 -18 -26   6   12.25    3.15
 -26 -18  -6   19.82    5.55
 -18 -26  -6    9.47    5.21
 -26 -18  -8   -1.51    1.90
 -18 -26  -8    5.86    1.97
 -26  -8 -18    1.22    1.59
  -8 -26 -18    5.97    1.95
   8 -26 -18    3.44    1.82
  -8 -18 -26   -2.60    1.95
 -18  -8 -26    4.53    1.93
   8 -18 -26   -0.35    1.88
 -18   8 -26    0.35    1.70
  26  -8 -18    1.37    1.74
  18  -8 -26    1.94    1.52
 -26 -18  -8    3.00    5.28
 -18 -26  -8    8.55    5.01
 -26 -18 -10    6.50    1.92
 -18 -26 -10    0.53    1.99
 -26 -10 -18    0.75    1.79
 -10 -26 -18    5.18    1.81
 -10 -18 -26    1.30    1.93
 -18 -10 -26    1.28    1.66
  10 -18 -26    8.84    2.10
  18 -10 -26   11.53    1.93
 -18  10 -26    1.93    1.78
 -26 -18 -10    6.16    5.42
 -18 -26 -10    5.83    4.86
 -26 -18 -12   22.52    2.56
 -18 -26 -12   16.66    2.35
 -26 -12 -18   10.95    2.10
 -12 -26 -18   20.21    2.28
  12 -26 -18   27.50    2.73
 -12 -18 -26   13.77    2.19
 -18 -12 -26   19.40    2.36
  12 -18 -26   17.66    2.25
  18 -12 -26   21.22    2.30
 -18  12 -26   15.89    2.43
 -26 -18 -12   24.96    5.73
 -26 -18 -14   11.66    2.94
 -18 -26 -14    5.80    2.25
 -26 -14 -18    6.98    2.31
 -14 -26 -18   10.61    2.80
  14 -26 -18   11.65    2.89
 -14 -18 -26   11.14    2.88
 -18 -14 -26   12.09    3.00
  14 -18 -26   11.50    2.84
  18 -14 -26   12.13    2.93
 -18  14 -26    9.81    2.60
 -26 -18 -14   20.64    5.41
 -26 -18 -16   -0.14    1.97
 -18 -26 -16    0.24    1.82
 -26 -16 -18    1.31    1.99
 -16 -26 -18    3.76    1.96
  16 -26 -18    5.06    2.36
 -18 -16 -26   -0.09    1.94
 -16 -18 -26    3.16    2.12
  16 -18 -26    2.35    1.87
  18 -16 -26   -0.37    1.64
 -18  16 -26    1.31    1.99
 -16  18 -26   -0.25    2.18
 -26 -18 -18    2.32    2.07
 -18 -26 -18    2.89    2.10
 -18 -18 -26    6.50    2.67
  18 -18 -26    3.98    2.12
 -26 -20   0   27.76    2.65
 -20 -26   0   17.92    2.77
   0 -26 -20   18.91    2.10
 -26   0 -20   20.60    2.19
   0 -20 -26   22.73    2.49
 -20   0 -26   20.88    2.24
 -26 -20   0   28.07    4.37
 -20 -26   0   24.54    5.43
 -20 -26   2   12.12    2.30
 -26 -20  -2   13.18    2.27
 -20 -26  -2    7.04    2.13
  -2 -26 -20    8.81    2.09
  -2 -20 -26    4.75    1.92
   2 -20 -26   11.52    1.98
 -20  -2 -26    7.69    1.88
 -20   2 -26   14.77    2.00
  20  -2 -26    9.11    1.95
  26  -2 -20   10.22    2.11
 -26 -20   2   14.73    4.21
 -20 -26   2    6.05    4.54
 -26 -20  -2    7.06    4.47
 -20 -26  -2    3.42    4.61
 -20 -26   4   -2.06    1.95
 -26 -20  -4   -4.79    1.98
 -20 -26  -4    0.52    2.03
  -4 -26 -20    0.04    1.90
 -26  -4 -20   -0.49    1.80
   4 -26 -20    0.16    1.84
   4 -20 -26   -1.28    1.86
 -20  -4 -26    0.86    1.82
 -20   4 -26    1.60    1.77
  20  -4 -26   -1.99    1.70
  26  -4 -20   -0.22    1.78
 -26 -20   4    0.72    2.87
 -20 -26   4   -8.66    4.09
 -26 -20  -4  -12.10    5.27
 -20 -26  -4   -7.21    5.24
 -26 -20  -6    1.94    1.99
 -20 -26  -6    3.97    2.12
  -6 -26 -20    2.99    1.79
 -26  -6 -20    8.73    2.13
   6 -26 -20    2.26    1.84
 -20  -6 -26    2.34    1.95
   6 -20 -26    6.16    1.70
 -20   6 -26    6.94    1.94
  20  -6 -26    3.96    1.81
  26  -6 -20    1.74    1.87
 -20 -26   6    3.47    3.30
 -26 -20  -6   -5.02    5.30
 -20 -26  -6   -6.99    5.18
 -26 -20  -8    2.60    1.91
 -20 -26  -8   -1.60    1.74
 -26  -8 -20   -0.71    1.85
  -8 -26 -20   -7.65    1.90
   8 -26 -20    1.64    1.83
  -8 -20 -26    1.53    1.94
 -20  -8 -26   -1.71    1.86
   8 -20 -26   -3.99    1.90
 -20   8 -26   -4.56    1.96
  26  -8 -20    0.10    1.68
  20  -8 -26   -2.61    1.71
 -26 -20  -8    0.00    5.36
 -20 -26  -8   -1.41    5.15
 -26 -20 -10    5.17    2.01
 -20 -26 -10    4.96    2.32
 -10 -26 -20    9.22    2.65
 -26 -10 -20    9.72    2.66
  10 -26 -20    4.27    2.02
 -10 -20 -26    8.85    2.42
 -20 -10 -26    2.55    2.00
  10 -20 -26    5.80    2.14
 -20  10 -26    3.49    1.99
  20 -10 -26    4.83    2.04
 -26 -20 -10  -12.36    5.26
 -20 -26 -10    7.73    5.43
 -26 -20 -12   19.13    2.38
 -20 -26 -12   20.60    2.48
 -26 -12 -20   15.99    4.31
 -12 -26 -20   15.62    4.26
  12 -26 -20   20.52    2.37
 -12 -20 -26   24.46    2.59
 -20 -12 -26   14.99    3.43
  12 -20 -26   13.69    3.29
  20 -12 -26   13.48    3.14
 -20  12 -26   16.28    4.38
 -26 -20 -12   14.55    5.58
 -26 -20 -14   11.49    3.45
 -20 -26 -14    8.98    2.98
 -26 -14 -20   14.36    3.96
 -14 -26 -20   10.79    3.30
  14 -26 -20   13.73    3.82
 -14 -20 -26    3.59    2.17
 -20 -14 -26   11.15    3.37
  14 -20 -26   13.29    3.75
  20 -14 -26   11.10    3.27
 -26 -20 -14    9.68    5.47
 -26 -20 -16    6.35    2.65
 -20 -26 -16    0.30    2.10
 -26 -16 -20   -3.01    1.81
 -16 -26 -20   -9.65    2.15
  16 -26 -20    2.50    2.03
 -20 -16 -26   -2.76    2.09
 -16 -20 -26    0.88    2.07
  16 -20 -26   -2.27    1.90
  20 -16 -26   -3.66    1.72
 -26 -20 -18   -3.22    2.07
 -20 -26 -18    2.59    2.11
 -26 -18 -20   -0.56    2.05
 -18 -26 -20    5.98    2.70
 -20 -18 -26   -1.30    2.02
 -18 -20 -26   -6.23    1.78
  18 -20 -26    0.68    1.66
  20 -18 -26   -2.29    1.89
 -26 -20 -20   -0.85    2.02
 -20 -26 -20    0.47    2.04
 -20 -20 -26    1.18    2.02
  20 -20 -26   -6.41    1.91
 -26 -22   0   68.56    4.98
 -22 -26   0   62.82    4.78
   0 -26 -22   60.44    4.48
 -26   0 -22   60.88    4.74
   0 -22 -26   69.62    4.98
 -22   0 -26   60.05    4.53
  22   0 -26   57.65    4.31
 -26 -22   0   65.26    6.54
 -22 -26   0   67.80    7.14
 -22 -26   2   42.30    3.67
 -26 -22  -2   56.33    4.21
 -22 -26  -2   44.49    3.62
  -2 -26 -22   36.98    3.02
   2 -26 -22   42.10    3.44
 -26  -2 -22   44.07    3.48
  -2 -22 -26   38.84    3.24
   2 -22 -26   41.63    3.32
 -22  -2 -26   37.23    3.15
 -22   2 -26   40.11    3.33
  22  -2 -26   42.28    3.32
  26  -2 -22   51.60    3.86
 -26 -22   2   39.28    4.53
 -22 -26   2   40.65    5.44
 -26 -22  -2   37.80    5.86
 -22 -26  -2   34.75    5.80
 -26 -22  -4   16.70    4.55
 -22 -26  -4   10.91    3.05
  -4 -26 -22   11.69    2.85
   4 -26 -22    8.91    2.44
 -26  -4 -22   12.30    3.03
  -4 -22 -26   11.67    3.06
   4 -22 -26   22.51    2.49
 -22  -4 -26   17.02    4.56
 -22   4 -26   12.48    3.18
  22  -4 -26   12.18    2.97
  26  -4 -22   17.05    4.62
 -26 -22   4   15.25    4.23
 -22 -26   4    9.94    4.16
 -26 -22  -4   21.83    5.96
 -22 -26  -4   20.78    5.04
 -26 -22  -6    2.24    1.85
 -22 -26  -6    5.94    2.42
  -6 -26 -22    8.99    2.66
 -26  -6 -22    0.82    1.99
   6 -26 -22    8.05    2.53
  -6 -22 -26    6.55    2.32
 -22  -6 -26    3.55    1.82
   6 -22 -26    2.87    1.78
 -22   6 -26   -0.35    2.00
  22  -6 -26    6.49    2.20
  26  -6 -22    4.45    2.05
 -22 -26   6   10.41    3.57
 -26 -22  -6    2.49    4.98
 -22 -26  -6   -6.90    5.52
 -26 -22  -8    7.68    2.51
 -22 -26  -8   16.62    4.52
 -26  -8 -22   10.35    2.60
  -8 -26 -22   13.31    3.27
   8 -26 -22    7.26    2.36
  -8 -22 -26    5.05    2.26
 -22  -8 -26    4.69    2.16
   8 -22 -26    7.25    2.19
  26  -8 -22   12.60    3.02
  22  -8 -26   13.52    3.22
 -26 -22  -8    8.61    5.79
 -22 -26  -8    6.64    5.57
 -26 -22 -10   25.81    2.75
 -22 -26 -10   29.91    2.75
 -26 -10 -22   27.96    2.74
 -10 -26 -22   25.57    2.51
  10 -26 -22   33.09    2.93
 -10 -22 -26   22.00    2.37
 -22 -10 -26   21.63    2.49
  10 -22 -26   26.89    2.67
  22 -10 -26   31.79    2.88
 -26 -22 -10   34.87    5.56
 -22 -26 -10   23.58    5.94
 -26 -22 -12   42.11    3.44
 -22 -26 -12   41.87    3.46
 -26 -12 -22   37.05    3.20
 -12 -26 -22   44.24    3.42
 -12 -22 -26   42.50    3.35
 -22 -12 -26   45.80    3.61
  12 -26 -22   33.01    2.85
  12 -22 -26   36.30    2.96
  22 -12 -26   50.25    3.77
 -26 -22 -12   29.31    5.47
 -22 -26 -12   54.09    7.09
 -26 -22 -14   31.90    3.56
 -22 -26 -14   26.46    3.18
 -26 -14 -22   29.30    3.21
 -14 -26 -22   21.08    2.67
 -14 -22 -26   31.03    3.36
 -22 -14 -26   28.63    3.39
  14 -26 -22   25.09    3.02
  14 -22 -26   28.16    3.20
  22 -14 -26   31.24    3.41
 -26 -22 -14   23.45    6.12
 -26 -22 -16    5.08    2.36
 -22 -26 -16    4.78    2.10
 -16 -26 -22    6.38    2.42
 -26 -16 -22    6.88    2.47
 -16 -22 -26   12.61    3.12
 -22 -16 -26    0.24    2.10
  16 -26 -22    9.89    2.80
  16 -22 -26    2.87    2.32
  22 -16 -26    8.59    2.80
 -26 -22 -16    2.61    6.76
 -22 -26 -18    1.94    2.10
 -18 -26 -22   -6.87    2.10
 -26 -18 -22    2.81    2.13
 -22 -18 -26    4.59    2.07
 -18 -22 -26   -1.36    2.05
  18 -22 -26    1.19    1.97
 -24 -26   0  106.95    7.17
   0 -26 -24  100.67    6.71
   0 -24 -26   95.88    6.28
 -24   0 -26  101.22    6.99
  24   0 -26  110.81    7.29
 -26 -24   0   93.48    7.94
 -24 -26   0   78.69    7.27
 -24 -26   2   91.75    6.26
 -26 -24  -2   85.08    5.91
 -24 -26  -2   75.98    5.22
  -2 -26 -24   76.16    5.11
   2 -26 -24   79.31    5.38
  -2 -24 -26   74.71    5.11
 -26  -2 -24   91.98    6.29
   2 -24 -26   81.19    5.44
 -24  -2 -26   72.65    5.09
 -24   2 -26   83.46    5.77
  26  -2 -24   88.04    5.95
  24  -2 -26   75.75    5.08
 -26 -24   2   72.78    6.12
 -24 -26   2   71.11    6.81
 -26 -24  -2   88.27    7.81
 -24 -26  -2   78.95    7.75
 -26 -24  -4   46.07    3.77
 -24 -26  -4   40.61    3.47
  -4 -26 -24   41.60    3.28
 -26  -4 -24   41.68    3.40
   4 -26 -24   46.18    3.49
  -4 -24 -26   42.06    3.42
   4 -24 -26   48.81    3.73
 -24  -4 -26   41.25    3.41
  24  -4 -26   43.96    3.48
  26  -4 -24   48.14    3.69
 -26 -24   4   30.26    4.25
 -24 -26   4   41.26    4.38
 -26 -24  -4   35.91    6.44
 -24 -26  -4   42.93    6.56
 -26 -24  -6   32.12    3.04
 -24 -26  -6   35.86    3.23
  -6 -26 -24   22.24    2.59
 -26  -6 -24   25.28    2.70
   6 -26 -24   30.69    2.88
  -6 -24 -26   25.14    2.73
 -24  -6 -26   24.35    2.60
  24  -6 -26   24.80    2.58
  26  -6 -24   26.56    2.67
 -26 -24  -6   35.13    5.76
 -24 -26  -6   15.89    6.95
 -26 -24  -8   37.36    3.95
 -24 -26  -8   34.91    3.78
  -8 -26 -24   36.76    3.91
 -26  -8 -24   25.57    2.95
  -8 -24 -26   29.39    3.35
   8 -26 -24   36.56    3.80
 -24  -8 -26   36.41    3.84
   8 -24 -26   28.71    3.24
  24  -8 -26   32.29    3.52
  26  -8 -24   27.18    3.16
 -26 -24  -8   49.93    7.47
 -24 -26  -8   43.01    6.41
 -26 -24 -10   56.75    5.41
 -24 -26 -10   52.68    5.01
 -26 -10 -24   48.76    4.76
 -10 -26 -24   53.01    4.98
 -10 -24 -26   59.55    5.69
 -24 -10 -26   53.37    5.12
  10 -26 -24   62.38    6.05
  10 -24 -26   56.90    5.35
  24 -10 -26   54.13    5.15
 -26 -24 -10   54.88    7.74
 -24 -26 -10   49.10    7.36
 -26 -24 -12   65.07    6.20
 -24 -26 -12   65.59    6.24
 -26 -12 -24   58.03    5.73
 -12 -26 -24   62.19    5.82
 -12 -24 -26   55.30    5.24
 -24 -12 -26   52.28    5.18
  12 -26 -24   69.34    6.41
  12 -24 -26   66.53    6.19
  24 -12 -26   64.15    6.14
 -26 -24 -12   48.55    7.44
 -24 -26 -12   61.25    8.11
 -24 -26 -14   52.25    5.12
 -26 -24 -14   45.72    4.65
 -14 -26 -24   42.58    4.24
 -14 -24 -26   51.24    5.00
 -24 -14 -26   44.24    4.40
  14 -26 -24   39.70    4.12
  14 -24 -26   40.31    4.24
 -26 -24 -14   37.46    7.19
 -24 -26 -14   27.98    6.19
 -26 -24 -16    6.93    1.97
 -24 -26 -16   17.32    2.75
 -26 -16 -24   18.20    2.58
 -16 -26 -24   20.51    2.67
 -24 -16 -26   13.83    2.38
 -16 -24 -26   24.11    2.85
  16 -26 -24   15.42    2.18
  16 -24 -26   15.67    2.36
 -26 -24 -16   -0.97    4.92
 -26 -26   0   65.51    6.09
   0 -26 -26   60.03    5.62
  26   0 -26   54.06    5.06
 -26 -26   0   74.11    8.32
 -26 -26  -2   51.02    5.07
  -2 -26 -26   46.87    5.90
   2 -26 -26   48.40    4.69
  26  -2 -26   49.95    4.84
 -26 -26   2   42.30    5.80
 -26 -26  -2   45.74    6.56
 -26 -26  -4   25.14    3.19
  -4 -26 -26   31.31    3.33
   4 -26 -26   32.68    3.53
 -26  -4 -26   25.48    3.23
  26  -4 -26   21.80    2.68
 -26 -26   4   32.09    4.29
 -26 -26  -4   20.76    6.52
 -26 -26  -6   18.76    4.63
  -6 -26 -26   15.82    3.80
 -26  -6 -26   13.85    3.41
   6 -26 -26   16.77    3.90
  26  -6 -26   16.19    3.81
 -26 -26  -6   18.74    6.75
 -26 -26  -8   23.27    3.07
  -8 -26 -26   24.03    3.02
 -26  -8 -26   20.36    2.63
   8 -26 -26   21.06    2.81
  26  -8 -26   21.06    2.86
 -26 -26  -8   29.78    5.95
 -26 -26 -10   25.84    3.34
 -10 -26 -26   27.36    3.28
 -26 -10 -26   39.28    4.12
  10 -26 -26   33.00    3.61
 -26 -26 -10   36.52    6.32
 -26 -26 -12   41.57    3.69
 -12 -26 -26   38.61    3.61
 -26 -12 -26   32.44    3.12
  12 -26 -26   41.79    3.78
 -26 -26 -12   26.35    6.23
  -1 -27   1  286.39   10.34
   1 -27   1  287.64    9.48
  -1 -27  -1  284.65   10.19
   1 -27  -1  273.17    9.64
  -1  -1 -27  262.77    9.29
   1  -1 -27  252.50    8.96
  -1   1 -27  285.28   10.18
   1   1 -27  258.37    9.30
   1 -27   1  248.69   10.70
  -1 -27   1  245.68   10.05
   1 -27  -1  242.07    9.63
  -1 -27  -1  243.92   10.39
  -1 -27   3  115.65    4.35
   1 -27   3  110.41    4.20
   3 -27   1  117.27    5.05
  -3 -27   1  113.75    4.52
   3 -27  -1  120.20    4.69
  -3 -27  -1  104.64    4.09
  -1 -27  -3  115.04    4.32
   1 -27  -3  112.86    4.38
  -1  -3 -27  108.03    4.21
  -3  -1 -27   97.23    3.88
   1  -3 -27  111.72    4.13
  -3   1 -27  103.07    4.04
   3  -1 -27  123.59    4.53
  -1   3 -27  101.11    3.88
   3   1 -27  107.85    4.20
   1   3 -27  107.29    4.14
  -1 -27   3   95.81    6.18
   1 -27   3  114.33    6.42
  -3 -27   1  113.81    6.91
   3 -27   1  103.39    6.14
  -3 -27  -1  111.01    6.61
   3 -27  -1  104.92    6.19
   3 -27   3   25.14    2.29
  -3 -27   3   26.47    2.52
  -3 -27  -3   21.63    1.98
   3 -27  -3   25.97    2.14
  -3  -3 -27   22.56    1.85
   3  -3 -27   26.86    1.98
  -3   3 -27   27.34    2.13
   3   3 -27   19.78    1.87
 -27  -3  -3   24.55    3.25
   3 -27   3   14.33    3.90
  -3 -27   3   14.83    4.39
  -3 -27  -3   32.97    4.49
   1 -27   5   21.43    2.13
  -1 -27   5   24.73    2.35
   5 -27   1   21.25    2.11
  -5 -27   1   24.16    2.21
   5 -27  -1   22.42    2.13
  -5 -27  -1   27.32    2.27
  -1 -27  -5   27.48    2.10
   1 -27  -5   25.59    2.00
  -1  -5 -27   19.69    1.89
   1  -5 -27   24.09    2.06
  -5  -1 -27   25.51    2.08
  -5   1 -27   23.19    2.07
   5  -1 -27   28.34    2.13
   5   1 -27   24.12    2.07
  -1   5 -27   20.31    1.88
 -27  -1  -5   18.55    3.43
   1 -27   5   13.52    3.99
  -1 -27   5   28.57    4.36
  -5 -27   1   21.20    4.80
   5 -27   1   14.09    4.21
  -5 -27  -1   31.68    4.52
   5 -27  -1   11.95    3.87
 -27  -5  -3    3.80    1.56
   3 -27   5    5.85    1.92
  -3 -27   5    5.01    2.05
   5 -27   3    2.86    1.62
  -5 -27   3   11.19    2.01
   5 -27  -3    5.86    1.77
  -5 -27  -3    2.82    1.67
  -3 -27  -5    7.56    1.75
   3 -27  -5    3.30    1.86
  -3  -5 -27    2.14    1.73
  -5  -3 -27    0.83    1.72
   3  -5 -27    5.19    1.75
   5  -3 -27    6.42    1.80
  -5   3 -27    9.03    1.64
  -3   5 -27    0.55    1.60
 -27  -5  -3   -4.37    3.54
 -27  -3  -5    4.47    4.12
   3 -27   5   12.88    3.58
  -3 -27   5    8.55    3.83
   5 -27   3    6.07    4.04
  -5 -27   3    2.59    4.15
  -5 -27  -3    2.82    4.41
  -5 -27   5   49.28    2.86
 -27  -5  -5   41.60    2.55
   5 -27  -5   39.69    2.44
  -5 -27  -5   37.31    2.55
  -5  -5 -27   39.51    2.51
   5  -5 -27   41.09    2.38
  -5   5 -27   39.04    2.32
   5 -27   5   34.43    3.73
 -27  -5  -5   28.73    4.66
  -5 -27   5   41.31    4.59
 -27   1  -7   14.03    1.98
   7 -27   1   11.69    2.03
 -27  -1  -7   15.11    1.89
  -7 -27   1   15.97    2.13
   7 -27  -1   11.68    1.88
  -7 -27  -1   20.21    2.02
  -1 -27  -7   15.08    1.96
   1 -27  -7   13.56    1.96
  -1  -7 -27    9.08    1.86
   1  -7 -27   16.31    1.96
  -7  -1 -27   16.34    1.89
  -7   1 -27   22.18    2.04
   7  -1 -27   15.21    2.01
   7   1 -27   15.00    1.90
 -27  -7  -1   19.31    3.09
   1 -27   7   10.22    3.00
  -1 -27   7   13.24    3.30
 -27   1  -7    9.50    3.17
 -27  -1  -7   12.81    4.25
  -7 -27   1   12.78    4.81
   7 -27   1   10.32    4.41
  -7 -27  -1   12.80    4.31
   7 -27   3    1.29    1.63
 -27  -7  -3    3.68    1.68
  -7 -27   3    4.68    2.13
 -27  -3  -7    2.21    1.64
  -7 -27  -3    4.21    1.72
   7 -27  -3    2.95    1.81
  -3 -27  -7    3.47    1.65
   3 -27  -7    2.70    1.74
  -3  -7 -27    5.72    1.75
  -7  -3 -27    5.49    1.65
   3  -7 -27   -0.34    1.74
  -7   3 -27    5.76    1.89
   7  -3 -27    2.38    1.82
   3 -27   7    2.96    2.47
  -3 -27   7   -1.19    3.52
 -27  -7  -3    3.22    3.70
   7 -27   3    6.08    4.07
 -27  -3  -7   15.40    4.48
  -7 -27   3   -0.30    4.63
  -7 -27  -3    8.27    4.57
  -7 -27   5   52.24    2.97
 -27  -7  -5   48.13    3.01
 -27  -5  -7   42.62    2.41
  -7 -27  -5   46.42    2.68
   7 -27  -5   41.57    2.54
  -5 -27  -7   40.99    2.53
   5 -27  -7   40.42    2.31
  -5  -7 -27   48.97    2.62
  -7  -5 -27   40.76    2.86
   5  -7 -27   37.55    2.20
   7  -5 -27   37.27    2.30
  27  -5  -7   35.08    2.53
  -7   5 -27   39.24    2.57
  -5   7 -27   42.89    2.55
  -5 -27   7   36.48    3.88
   7 -27   5   38.30    3.81
  -7 -27   5   47.76    4.72
 -27  -7  -5   44.01    4.94
 -27  -5  -7   34.45    4.91
 -27  -7  -7   47.37    3.21
  -7 -27  -7   50.42    3.10
   7 -27  -7   48.33    3.06
  -7  -7 -27   42.28    2.90
   7  -7 -27   50.37    3.08
  -7   7 -27   45.10    2.81
  -7 -27   7   41.36    4.35
 -27  -7  -7   52.58    5.77
   9 -27   1   68.71    3.98
  -9 -27   1   60.14    3.67
   9 -27  -1   65.83    3.82
 -27   1  -9   62.56    3.59
  -9 -27  -1   55.76    3.50
 -27  -1  -9   53.19    3.20
  -1 -27  -9   62.16    3.61
   1 -27  -9   63.60    3.72
  -1  -9 -27   50.40    3.15
   1  -9 -27   63.69    3.62
  -9  -1 -27   61.49    3.61
  -9   1 -27   59.89    3.56
   9  -1 -27   55.48    3.33
   9   1 -27   61.08    3.50
 -27  -9  -1   59.43    4.78
 -27   1  -9   55.84    5.33
 -27  -1  -9   67.28    6.12
   9 -27   1   43.58    5.06
  -9 -27   1   58.59    6.00
  -9 -27  -1   59.12    5.86
   9 -27  -1   64.85    5.66
   9 -27   3   13.81    2.10
 -27  -9  -3    6.09    1.83
  -9 -27   3    6.33    2.07
   9 -27  -3   10.60    1.85
  -9 -27  -3   10.09    2.09
 -27  -3  -9   12.02    1.96
  -3 -27  -9    7.81    2.08
   3 -27  -9   12.49    1.93
  -3  -9 -27    9.72    1.75
   3  -9 -27   11.04    1.91
  -9  -3 -27   11.14    1.90
  -9   3 -27   11.23    1.86
   9  -3 -27    7.02    1.62
 -27   3  -9   11.17    3.42
 -27  -9  -3    9.44    3.84
   9 -27   3    9.01    3.44
  -9 -27   3    8.45    4.53
  -9 -27  -3    8.02    4.40
  -9 -27   5    0.75    1.90
 -27  -9  -5    3.77    1.68
 -27  -5  -9    2.07    1.73
  -9 -27  -5    1.80    1.70
   9 -27  -5   -3.07    1.77
  -5 -27  -9   -0.41    1.85
   5 -27  -9    5.14    1.81
  -5  -9 -27    6.49    1.69
  -9  -5 -27    4.08    1.80
   5  -9 -27    1.84    1.61
   9  -5 -27   -1.87    1.71
  -9   5 -27    2.25    1.80
   9 -27   5   -3.17    2.16
  -9 -27   5   -1.28    4.13
 -27  -9  -5   12.34    4.72
 -27  -5  -9   -4.36    5.14
  -9 -27  -5   -3.65    4.35
 -27  -9  -7    5.86    1.70
 -27  -7  -9    5.05    1.63
  -9 -27  -7   11.10    2.18
   9 -27  -7    4.97    1.77
  -7 -27  -9    4.22    1.95
   7 -27  -9    6.14    1.76
  -7  -9 -27    6.98    1.95
  -9  -7 -27    4.16    1.82
   7  -9 -27   -0.43    1.85
   9  -7 -27    3.48    1.73
  -9   7 -27    1.41    1.59
  -7   9 -27    2.66    1.85
  -9 -27   7   -5.49    3.79
 -27  -9  -7    9.95    4.83
 -27  -7  -9    3.81    4.91
 -27  -9  -9    1.78    1.74
  -9 -27  -9    5.12    1.95
   9 -27  -9    5.26    1.75
  -9  -9 -27    4.70    1.70
   9  -9 -27    6.91    1.81
  -9   9 -27    5.65    1.84
 -27  -9  -9    2.87    4.99
 -27 -11  -1  144.03    7.16
  11 -27   1  140.79    7.17
  11 -27  -1  147.33    7.37
 -11 -27   1  153.50    7.41
 -11 -27  -1  143.24    6.92
 -27   1 -11  142.26    7.23
 -27  -1 -11  138.27    7.12
   1 -27 -11  137.83    6.82
  -1 -27 -11  132.88    6.51
  -1 -11 -27  147.24    7.27
   1 -11 -27  129.04    6.51
 -11  -1 -27  129.99    6.35
 -11   1 -27  135.20    6.65
  11  -1 -27  136.79    6.75
 -27 -11   1  128.68    7.25
 -27 -11  -1  135.27    7.98
 -27   1 -11  132.70    8.73
  11 -27   1  126.33    7.93
 -11 -27   1  150.20    9.52
 -27  -1 -11  132.72    9.36
 -11 -27  -1  164.91    9.79
  11 -27  -1  125.63    8.27
 -11 -27   3   62.71    3.68
 -27 -11  -3   53.02    3.38
  11 -27  -3   62.92    3.62
 -11 -27  -3   65.22    3.80
 -27  -3 -11   57.98    3.60
  -3 -27 -11   67.90    3.82
   3 -27 -11   59.94    3.53
  -3 -11 -27   59.33    3.50
   3 -11 -27   64.25    3.65
 -11  -3 -27   57.85    3.31
 -11   3 -27   61.14    3.50
  11  -3 -27   55.78    3.27
  11 -27   3   64.03    4.96
 -27 -11  -3   50.46    5.43
 -27   3 -11   58.62    5.51
 -11 -27   3   69.06    6.41
 -27  -3 -11   62.27    6.54
 -11 -27  -3   63.23    5.70
 -11 -27   5   18.61    2.59
 -27 -11  -5   16.13    2.13
  11 -27  -5   18.70    2.08
 -11 -27  -5   14.57    2.01
 -27  -5 -11    9.35    1.88
  -5 -27 -11   16.61    2.90
   5 -27 -11   12.32    1.80
  -5 -11 -27   16.40    2.05
 -11  -5 -27   13.41    1.82
   5 -11 -27   13.75    1.99
 -11   5 -27   19.05    2.09
  11  -5 -27   11.69    1.72
  27  -5 -11   14.91    1.85
 -11 -27   5   11.43    4.04
 -27 -11  -5   21.65    4.94
 -27  -5 -11   17.95    4.87
 -11 -27  -5   14.83    4.67
 -27 -11  -7   12.84    2.00
 -11 -27  -7   13.95    2.18
  11 -27  -7   18.01    2.02
 -27  -7 -11   10.85    2.00
  -7 -27 -11   10.51    1.88
   7 -27 -11    9.07    1.91
  -7 -11 -27   12.13    2.06
 -11  -7 -27   13.27    1.84
   7 -11 -27   15.85    2.01
  11  -7 -27    9.03    1.85
 -11   7 -27   11.87    2.03
 -11 -27   7    6.82    3.16
 -27 -11  -7    3.08    5.04
 -27  -7 -11    8.25    5.05
 -27 -11  -9   51.45    3.26
 -27  -9 -11   51.11    3.24
 -11 -27  -9   45.67    3.08
  11 -27  -9   48.17    3.15
  -9 -27 -11   45.91    3.01
   9 -27 -11   50.99    3.22
  -9 -11 -27   46.66    3.09
 -11  -9 -27   43.21    2.94
   9 -11 -27   42.90    2.86
  11  -9 -27   47.06    2.91
 -11   9 -27   54.54    3.36
  -9  11 -27   46.49    2.95
 -27 -11  -9   47.95    5.58
 -27  -9 -11   62.43    6.51
 -27 -11 -11  117.72    5.49
 -11 -27 -11  125.21    5.51
  11 -27 -11  116.94    5.28
 -11 -11 -27  110.07    4.91
  11 -11 -27  118.06    5.29
 -11  11 -27  122.63    5.64
 -27 -11 -11  119.84    7.92
 -27 -13  -1  146.74    7.52
  13 -27   1  140.15    7.58
  13 -27  -1  126.70    6.83
 -13 -27   1  137.49    6.90
 -13 -27  -1  131.86    6.70
 -27   1 -13  128.07    6.78
 -27  -1 -13  134.94    7.02
   1 -27 -13  140.14    7.10
  -1 -27 -13  140.96    6.99
  -1 -13 -27  123.54    6.26
   1 -13 -27  136.64    6.74
 -13  -1 -27  144.70    7.25
 -13   1 -27  132.47    6.82
  13  -1 -27  126.52    6.37
 -27 -13   1  114.30    6.93
 -27 -13  -1  112.35    7.57
  13 -27   1  113.90    7.88
 -13 -27   1  121.61    8.68
 -13 -27  -1  129.49    8.66
 -27   1 -13  133.97    9.29
  13 -27  -1  109.71    7.73
 -27  -1 -13  118.99    8.27
 -13 -27   3   62.32    3.83
 -27 -13  -3   65.99    3.89
  13 -27  -3   71.71    4.19
 -13 -27  -3   61.54    3.86
 -27  -3 -13   59.58    3.50
  -3 -27 -13   58.84    3.53
   3 -27 -13   66.70    3.73
   3 -13 -27   65.64    3.75
 -13  -3 -27   57.28    3.34
 -13   3 -27   58.37    3.49
  13  -3 -27   63.83    3.64
 -27 -13  -3   62.67    6.12
 -13 -27   3   66.24    5.86
 -27   3 -13   55.60    5.88
 -13 -27  -3   63.85    5.92
 -13 -27   5   18.06    2.29
 -27 -13  -5   20.94    2.25
 -13 -27  -5   23.10    2.38
  13 -27  -5   19.25    2.42
 -27  -5 -13   16.81    1.93
  -5 -27 -13   23.56    2.40
   5 -27 -13   18.79    2.12
  -5 -13 -27   27.40    2.41
 -13  -5 -27   21.97    2.22
   5 -13 -27   22.31    2.23
 -13   5 -27   18.65    2.06
  13  -5 -27   23.71    2.15
  27  -5 -13   16.43    1.90
 -13 -27   5   17.42    4.65
 -27 -13  -5   26.41    5.14
 -27  -5 -13   10.98    4.93
 -13 -27  -5   16.06    4.53
 -27 -13  -7    9.45    1.97
 -13 -27  -7   17.37    2.24
  13 -27  -7   16.69    1.99
 -27  -7 -13   17.41    2.12
  -7 -27 -13   18.00    2.06
   7 -27 -13   21.72    2.21
  -7 -13 -27   18.75    2.15
 -13  -7 -27   13.57    2.04
   7 -13 -27   16.19    2.09
  13  -7 -27   17.74    2.02
 -13   7 -27   17.81    2.06
 -13 -27   7   17.00    3.97
 -27 -13  -7   31.01    5.80
 -27  -7 -13    4.89    4.75
 -13 -27  -7   22.16    4.42
 -27 -13  -9   53.32    3.09
 -13 -27  -9   49.86    3.04
  13 -27  -9   49.63    3.03
  -9 -27 -13   48.96    2.95
   9 -27 -13   48.79    2.95
  -9 -13 -27   48.73    2.97
 -13  -9 -27   47.49    2.75
   9 -13 -27   46.18    2.80
  13  -9 -27   50.80    2.96
 -13   9 -27   50.26    2.96
 -27 -13  -9   54.12    6.62
 -27  -9 -13   50.53    6.07
 -27 -13 -11  116.06    7.75
 -13 -27 -11  121.64    6.56
 -27 -11 -13  119.90    6.44
 -11 -27 -13  107.71    5.74
  13 -27 -11  110.61    6.04
  11 -27 -13  115.39    6.29
 -11 -13 -27  106.85    5.84
 -13 -11 -27  109.62    5.89
  11 -13 -27  102.64    5.52
  13 -11 -27  114.52    6.20
 -13  11 -27  111.28    6.14
 -11  13 -27  106.26    5.92
 -27 -13 -11  114.93    8.61
 -27 -11 -13  113.40    8.35
 -27 -13 -13  102.51    5.78
 -13 -27 -13  114.13    6.11
  13 -27 -13  107.13    6.04
 -13 -13 -27  106.69    5.96
  13 -13 -27  102.12    5.70
 -13  13 -27   99.59    5.70
 -27 -13 -13   97.75    7.99
 -27 -15  -1   48.53    3.00
  15 -27  -1   50.94    3.17
 -15 -27   1   41.73    2.87
 -15 -27  -1   46.88    2.87
 -27  -1 -15   48.34    3.03
  -1 -27 -15   49.00    2.91
   1 -27 -15   47.56    2.93
  -1 -15 -27   47.27    2.82
   1 -15 -27   43.64    2.81
 -15  -1 -27   46.80    3.11
 -15   1 -27   53.20    3.02
  15  -1 -27   43.54    2.64
 -27 -15   1   44.71    4.35
 -27 -15  -1   50.46    4.99
 -15 -27   1   61.86    5.80
 -15 -27  -1   45.36    5.24
 -27   1 -15   38.82    5.28
 -15 -27   3   16.37    2.09
 -27 -15  -3    8.15    1.97
  15 -27  -3   18.51    2.13
 -15 -27  -3    6.72    2.13
 -27  -3 -15   13.82    1.80
  -3 -27 -15   15.69    1.87
   3 -27 -15   11.35    1.98
  -3 -15 -27   10.07    1.89
   3 -15 -27    9.86    1.90
 -15  -3 -27   13.81    1.74
 -15   3 -27   10.49    1.82
  15  -3 -27    9.71    1.78
  27  -3 -15   16.39    1.86
 -27 -15  -3    7.77    4.37
 -15 -27   3   -0.32    4.87
 -15 -27  -3    3.86    5.25
 -27  -3 -15   12.79    5.65
 -15 -27   5    5.06    2.21
 -27 -15  -5   -2.32    1.93
 -15 -27  -5    3.17    2.05
 -27  -5 -15    0.37    1.63
  -5 -27 -15    2.84    1.86
   5 -27 -15   -0.90    1.76
  -5 -15 -27    2.41    1.64
 -15  -5 -27   -0.02    1.82
   5 -15 -27   -1.34    1.74
 -15   5 -27    3.51    1.75
  15  -5 -27    6.14    1.84
  27  -5 -15    2.88    1.52
 -15 -27   5    5.52    3.99
 -15 -27  -5   22.58    5.13
 -27 -15  -7   -0.98    1.81
 -15 -27  -7   -2.46    1.88
  15 -27  -7    1.14    1.65
 -27  -7 -15    0.07    1.66
  -7 -27 -15    0.10    1.70
   7 -27 -15    6.02    1.82
  -7 -15 -27    3.50    1.88
 -15  -7 -27   -0.86    1.91
   7 -15 -27    0.80    1.85
 -15   7 -27   -4.66    1.53
  27  -7 -15    2.73    1.61
  15  -7 -27    4.00    1.73
 -15 -27   7    1.18    3.34
 -27 -15  -7   -5.22    4.75
 -15 -27  -7   -2.17    4.26
 -27 -15  -9   10.45    1.93
 -15 -27  -9    1.43    2.02
  15 -27  -9    8.07    1.83
 -27  -9 -15    7.71    1.84
  -9 -27 -15    3.57    1.95
   9 -27 -15   12.55    2.00
  -9 -15 -27    5.09    1.77
 -15  -9 -27    9.05    1.98
   9 -15 -27    5.73    1.84
  15  -9 -27    6.91    1.81
 -15   9 -27    7.98    1.72
 -27 -15  -9    5.81    5.60
 -27 -15 -11   40.40    3.02
 -15 -27 -11   41.38    3.02
 -27 -11 -15   43.74    3.06
  15 -27 -11   38.70    2.86
 -11 -27 -15   37.13    2.91
  11 -27 -15   42.51    2.96
 -11 -15 -27   32.73    2.66
 -15 -11 -27   43.47    3.09
  11 -15 -27   42.44    3.10
  15 -11 -27   42.38    3.15
 -15  11 -27   42.65    3.00
 -27 -15 -11   21.60    5.58
 -27 -15 -13   41.64    3.33
 -15 -27 -13   39.82    3.26
 -27 -13 -15   44.13    3.63
 -13 -27 -15   44.30    3.59
  15 -27 -13   45.36    3.64
  13 -27 -15   49.70    3.86
 -15 -13 -27   44.43    3.55
 -13 -15 -27   39.07    3.28
  13 -15 -27   41.03    3.36
  15 -13 -27   39.15    3.25
 -15  13 -27   41.05    3.50
 -13  15 -27   49.97    3.98
 -27 -15 -13   42.81    6.22
 -27 -15 -15   12.85    3.10
 -15 -27 -15   10.12    2.60
  15 -27 -15   10.11    2.63
 -15 -15 -27    7.45    2.35
  15 -15 -27   14.11    3.22
 -15  15 -27    7.89    2.55
 -27 -15 -15    0.29    4.56
 -27 -17  -1    7.94    2.00
 -17 -27   1    1.97    1.83
 -17 -27  -1    2.71    2.05
  -1 -27 -17    2.68    1.84
 -27  -1 -17    1.47    1.78
   1 -27 -17    3.21    1.96
  -1 -17 -27    2.78    1.94
   1 -17 -27    2.58    1.84
 -17  -1 -27    8.63    1.85
 -17   1 -27    9.30    1.66
  17  -1 -27    2.66    1.69
 -27 -17   1   16.26    3.97
 -27 -17  -1   -6.15    4.19
 -17 -27   1    6.17    4.34
 -17 -27  -1    6.05    4.45
 -17 -27   3    1.21    1.94
 -27 -17  -3   -0.75    1.93
  17 -27  -3    3.29    1.77
 -17 -27  -3   -0.48    2.03
 -27  -3 -17    1.86    1.65
  -3 -27 -17    0.83    1.90
   3 -27 -17   -0.70    1.63
  -3 -17 -27   -0.94    1.83
   3 -17 -27   -2.89    1.72
 -17  -3 -27    3.93    1.59
 -17   3 -27    3.21    1.57
  17  -3 -27   -1.94    1.69
  27  -3 -17    0.81    1.55
 -27 -17   3   -2.20    2.80
 -17 -27   3   -2.26    4.44
 -27 -17  -3   10.30    5.14
 -17 -27  -3    5.08    5.27
 -27 -17  -5   23.68    2.26
  17 -27  -5   19.14    2.11
 -17 -27  -5   12.93    1.99
 -27  -5 -17   23.67    2.24
  -5 -27 -17   24.13    2.41
   5 -27 -17   22.54    2.08
  -5 -17 -27   20.93    2.23
 -17  -5 -27   21.86    2.30
 -17   5 -27   16.86    2.07
  17  -5 -27   18.95    1.96
  27  -5 -17   18.32    2.00
 -17 -27   5   20.93    4.77
 -27 -17  -5   22.71    5.46
 -17 -27  -5   26.52    4.91
 -27 -17  -7   19.16    2.21
 -17 -27  -7   17.99    2.32
  17 -27  -7   20.41    2.29
 -27  -7 -17   19.83    2.34
  -7 -27 -17   17.84    2.05
   7 -27 -17   23.37    2.34
  -7 -17 -27   15.56    1.99
 -17  -7 -27   22.11    2.15
   7 -17 -27   20.47    2.25
 -17   7 -27   23.25    2.36
  17  -7 -27   23.22    2.22
  27  -7 -17   19.22    2.02
 -17 -27   7   14.44    3.04
 -27 -17  -7   31.43    5.20
 -17 -27  -7   23.71    5.28
 -27 -17  -9   -3.32    1.95
 -17 -27  -9    2.39    1.97
  17 -27  -9    2.64    1.85
 -27  -9 -17   -1.74    1.85
  -9 -27 -17    3.39    1.94
   9 -27 -17    1.73    1.87
  -9 -17 -27    3.57    1.93
 -17  -9 -27    1.68    1.90
   9 -17 -27   -1.45    1.60
  17  -9 -27    7.37    1.86
 -17   9 -27    3.05    1.87
 -27 -17  -9   14.46    5.25
 -17 -27  -9   -5.15    4.24
 -27 -17 -11    2.10    1.92
 -17 -27 -11    2.08    2.65
  17 -27 -11    3.14    1.79
 -27 -11 -17    4.08    1.94
 -11 -27 -17    5.93    1.97
  11 -27 -17    3.27    1.81
 -11 -17 -27    3.74    1.91
 -17 -11 -27    3.53    1.83
  11 -17 -27    2.98    1.86
  17 -11 -27    3.90    1.62
 -17  11 -27    5.14    1.93
 -27 -17 -11    0.64    5.54
 -27 -17 -13    4.02    2.07
 -17 -27 -13    3.30    2.10
 -27 -13 -17    0.73    1.90
  17 -27 -13    2.90    1.88
 -13 -27 -17    3.88    2.09
  13 -27 -17    7.98    2.37
 -13 -17 -27    7.38    2.34
 -17 -13 -27    5.43    2.23
  13 -17 -27   12.59    2.99
  17 -13 -27    7.77    2.35
 -17  13 -27    6.44    2.40
 -27 -17 -13    4.15    5.35
 -27 -17 -15    2.03    2.11
 -17 -27 -15    7.47    2.68
 -27 -15 -17   -3.15    1.99
 -15 -27 -17    1.72    1.99
  17 -27 -15   -2.63    1.79
  15 -27 -17    2.42    1.86
 -17 -15 -27    0.60    1.75
 -15 -17 -27    3.98    2.20
  15 -17 -27    1.62    1.88
  17 -15 -27   -3.60    1.89
 -17  15 -27    2.92    2.22
 -15  17 -27    2.87    2.02
 -27 -17 -15    5.29    5.34
 -27 -17 -17    5.11    2.43
 -17 -27 -17    3.08    2.14
  17 -27 -17    6.93    2.69
 -17 -17 -27   10.14    3.22
  17 -17 -27    8.62    3.05
 -17  17 -27    7.38    2.86
 -27 -19  -1    2.61    2.06
 -19 -27   1    7.39    2.30
 -19 -27  -1   -2.89    2.06
  -1 -27 -19    1.10    1.98
   1 -27 -19    1.90    1.88
 -27  -1 -19   -1.66    1.71
  -1 -19 -27    0.55    1.69
   1 -19 -27    2.62    1.70
 -19  -1 -27   -2.86    1.86
 -19   1 -27    6.02    1.93
  19  -1 -27    0.06    1.75
 -27 -19   1    4.68    3.95
 -27 -19  -1    3.89    4.67
 -19 -27   1   -2.98    5.14
 -19 -27   3    4.03    2.27
 -27 -19  -3    7.24    2.06
 -19 -27  -3    7.30    2.13
  -3 -27 -19    6.07    1.93
 -27  -3 -19    6.31    1.78
   3 -27 -19    2.91    1.89
  -3 -19 -27    7.67    2.00
   3 -19 -27    6.88    1.81
 -19  -3 -27    4.89    1.95
 -19   3 -27    3.48    1.63
  19  -3 -27    7.28    1.90
  27  -3 -19    6.15    2.03
 -27 -19   3    0.78    2.94
 -19 -27   3   -3.59    4.45
 -27 -19  -3    0.89    4.72
 -19 -27  -3   12.91    5.44
 -27 -19  -5   27.15    2.87
 -19 -27  -5   24.25    2.73
  -5 -27 -19   20.11    2.47
 -27  -5 -19   27.31    2.70
   5 -27 -19   23.31    2.56
  -5 -19 -27   28.33    2.79
   5 -19 -27   24.51    2.58
 -19  -5 -27   27.29    2.74
 -19   5 -27   22.49    2.32
  19  -5 -27   24.63    2.56
  27  -5 -19   19.73    2.40
 -19 -27   5   33.04    4.36
 -27 -19  -5   12.45    5.62
 -19 -27  -5   16.01    5.45
 -27 -19  -7   25.84    2.73
 -19 -27  -7   26.80    2.80
 -27  -7 -19   20.70    2.47
  -7 -27 -19   19.19    2.51
   7 -27 -19   21.27    2.32
  -7 -19 -27   18.73    2.39
 -19  -7 -27   31.41    2.93
   7 -19 -27   33.73    2.88
 -19   7 -27   25.00    2.44
  19  -7 -27   27.13    2.63
  27  -7 -19   20.96    2.33
 -19 -27   7   21.37    3.58
 -27 -19  -7   25.15    6.09
 -19 -27  -7   14.74    5.26
 -27 -19  -9    4.09    2.12
 -19 -27  -9    4.43    2.18
 -27  -9 -19    4.59    1.86
  -9 -27 -19    6.82    2.34
   9 -27 -19    6.01    2.07
  -9 -19 -27    9.62    2.76
 -19  -9 -27    5.03    2.21
   9 -19 -27    7.19    2.32
 -19   9 -27    8.43    2.63
  19  -9 -27    5.63    2.35
 -27 -19  -9    5.23    5.71
 -19 -27  -9   10.01    4.84
 -27 -19 -11   -1.29    2.00
 -19 -27 -11   -1.49    1.85
 -27 -11 -19   -0.46    1.69
 -11 -27 -19   -3.20    1.98
  11 -27 -19    3.87    2.04
 -11 -19 -27    0.22    1.99
 -19 -11 -27    1.35    1.97
  11 -19 -27    0.21    1.84
  19 -11 -27    2.71    1.92
 -19  11 -27    2.32    1.97
 -27 -19 -11   -5.04    5.74
 -19 -27 -11   11.55    5.41
 -27 -19 -13    3.08    1.89
 -19 -27 -13    5.07    2.18
 -27 -13 -19    3.54    2.08
 -13 -27 -19   -3.49    1.99
  13 -27 -19   -0.59    1.92
 -13 -19 -27    7.09    2.64
 -19 -13 -27    2.85    2.10
  13 -19 -27    5.73    2.34
  19 -13 -27   -0.63    1.89
 -19  13 -27    1.40    2.19
 -27 -19 -13   11.73    5.61
 -27 -19 -15    0.29    2.05
 -19 -27 -15    5.91    2.43
 -27 -15 -19    0.78    2.08
 -15 -27 -19   -0.65    2.09
  15 -27 -19    1.60    1.97
 -19 -15 -27   -3.15    1.80
 -15 -19 -27    1.76    2.07
  19 -15 -27   -0.94    1.74
 -15  19 -27    3.88    2.25
 -27 -19 -15    7.84    5.99
 -27 -19 -17   10.21    2.88
 -19 -27 -17   11.00    3.69
 -17 -27 -19    3.62    2.27
  17 -27 -19    4.85    2.40
 -19 -17 -27   10.67    3.60
 -17 -19 -27    6.32    2.48
  17 -19 -27   12.74    4.02
  19 -17 -27    6.10    2.09
 -27 -19 -19   10.32    2.77
 -19 -27 -19   14.38    3.57
 -19 -19 -27   15.91    3.78
  19 -19 -27   13.62    3.37
 -27 -21   1   14.45    3.52
 -27 -21  -1    2.93    2.00
 -21 -27   1    9.72    2.95
 -21 -27  -1    4.75    2.37
  -1 -27 -21    9.88    2.63
   1 -27 -21    4.44    2.15
  -1 -21 -27    6.18    2.12
   1 -21 -27    8.46    2.58
 -21  -1 -27    4.35    1.82
 -21   1 -27    9.76    2.70
  21  -1 -27    2.67    2.00
 -27 -21   1    7.41    4.00
 -27 -21  -1   14.44    5.57
 -21 -27   1  -10.09    4.95
 -21 -27  -1    5.28    5.26
 -21 -27   3   -2.84    2.39
 -27 -21  -3   -2.67    2.15
 -21 -27  -3    0.78    2.15
  -3 -27 -21   -4.48    2.11
   3 -27 -21   -6.69    1.93
 -27  -3 -21    1.10    1.82
  -3 -21 -27   -3.68    1.96
   3 -21 -27    0.60    2.25
 -21  -3 -27   -3.27    1.88
 -21   3 -27   -1.84    1.86
  21  -3 -27   -0.34    1.95
  27  -3 -21    0.15    1.90
 -27 -21   3    0.41    3.37
 -21 -27   3    6.29    4.39
 -27 -21  -3  -13.24    4.61
 -21 -27  -3  -13.48    4.89
 -27 -21  -5   -0.08    2.15
 -21 -27  -5   -1.50    1.93
  -5 -27 -21   -2.27    2.12
 -27  -5 -21   -0.99    1.89
   5 -27 -21   -2.59    2.02
  -5 -21 -27    2.74    1.87
 -21  -5 -27    2.63    1.79
   5 -21 -27    6.28    2.08
 -21   5 -27    4.79    2.08
  21  -5 -27    8.83    2.51
  27  -5 -21   -0.42    1.86
 -21 -27   5   -4.61    3.60
 -27 -21  -5   -8.05    5.55
 -21 -27  -5    8.93    5.17
 -27 -21  -7    6.17    2.41
 -21 -27  -7    1.85    1.90
 -27  -7 -21    1.65    1.96
  -7 -27 -21    1.60    2.05
   7 -27 -21    1.73    1.76
  -7 -21 -27    0.55    2.11
 -21  -7 -27    2.46    1.76
   7 -21 -27    3.17    2.01
 -21   7 -27    0.89    1.94
  21  -7 -27    6.17    2.19
 -27 -21  -7    0.46    4.98
 -21 -27  -7   -1.93    5.46
 -27 -21  -9   -0.60    2.06
 -21 -27  -9    1.26    2.06
 -27  -9 -21   -0.03    1.95
  -9 -27 -21   -4.23    1.85
   9 -27 -21    1.63    2.06
  -9 -21 -27   -8.20    1.85
 -21  -9 -27   -3.03    1.98
   9 -21 -27   -3.12    1.71
 -21   9 -27   -2.27    2.14
  21  -9 -27    1.18    1.97
 -27 -21  -9   -8.30    5.86
 -21 -27  -9    3.03    5.57
 -27 -21 -11    2.95    2.12
 -21 -27 -11    6.96    2.50
 -27 -11 -21    4.53    2.06
 -11 -27 -21    3.01    2.15
  11 -27 -21    8.80    2.90
 -11 -21 -27    9.77    3.10
 -21 -11 -27    6.57    2.50
  11 -21 -27    7.45    2.63
  21 -11 -27    9.56    3.06
 -27 -21 -11   -1.09    5.01
 -21 -27 -11    4.47    4.78
 -27 -21 -13    7.25    2.72
 -21 -27 -13    7.29    2.92
 -27 -13 -21    7.55    2.88
 -13 -27 -21    8.59    3.19
  13 -27 -21    8.04    3.00
 -13 -21 -27   10.19    3.39
 -21 -13 -27   12.24    3.98
  13 -21 -27    9.47    3.14
  21 -13 -27    5.64    2.47
 -27 -21 -13    3.58    5.12
 -21 -27 -13   19.76    5.12
 -27 -21 -15   -3.15    2.05
 -21 -27 -15    2.95    1.91
 -15 -27 -21   -4.53    2.12
  15 -27 -21   -3.27    2.00
 -15 -21 -27   -4.02    2.11
 -21 -15 -27   -1.56    2.02
  15 -21 -27   -4.28    1.92
  21 -15 -27   -1.10    1.97
 -27 -21 -15   -3.98    5.61
 -27 -21 -17    0.77    2.06
 -21 -27 -17   -5.05    2.12
 -27 -17 -21   -1.67    2.15
 -17 -27 -21    5.02    2.35
 -17 -21 -27   -3.83    2.13
 -21 -17 -27   -1.80    2.10
  17 -21 -27   -1.82    1.76
  21 -17 -27    3.50    2.07
 -27 -21 -17   -0.80    5.57
 -27 -23   1   50.35    4.04
 -23 -27   1   46.83    3.93
 -27 -23  -1   49.31    3.94
 -23 -27  -1   51.90    4.12
   1 -27 -23   50.05    3.84
  -1 -27 -23   38.95    3.31
  -1 -23 -27   39.15    3.26
   1 -23 -27   37.09    3.21
 -23  -1 -27   42.87    3.50
 -23   1 -27   39.21    3.33
  23  -1 -27   37.06    3.00
  27  -1 -23   40.09    3.37
 -27 -23   1   40.29    4.96
 -23 -27   1   30.26    4.69
 -27 -23  -1   23.44    5.92
 -23 -27  -1   29.27    5.14
 -27 -23  -3   22.75    2.54
 -23 -27  -3   21.30    2.68
  -3 -27 -23   25.85    2.54
   3 -27 -23   15.21    4.18
  -3 -23 -27   17.27    5.16
   3 -23 -27   17.01    4.55
 -23   3 -27   19.45    2.36
  23  -3 -27   18.52    5.56
  27  -3 -23   20.73    2.48
 -27 -23   3   17.48    6.00
 -23 -27   3   25.16    4.55
 -27 -23  -3   24.33    6.60
 -23 -27  -3    9.73    5.43
 -27 -23  -5    6.03    2.39
 -23 -27  -5    2.74    2.22
  -5 -27 -23    2.11    1.91
 -27  -5 -23    7.35    2.79
   5 -27 -23    5.91    2.45
  -5 -23 -27    9.09    3.02
   5 -23 -27    5.72    2.19
 -23  -5 -27   10.67    3.12
  27  -5 -23   -1.47    2.20
  23  -5 -27    9.12    2.91
 -23 -27   5    3.55    3.13
 -27 -23  -5   -5.39    5.51
 -23 -27  -5  -12.41    5.82
 -27 -23  -7    4.49    2.24
 -23 -27  -7    6.77    2.87
  -7 -27 -23    2.99    2.01
 -27  -7 -23    5.57    2.74
   7 -27 -23    1.73    1.87
  -7 -23 -27    4.37    2.19
 -23  -7 -27    2.59    1.88
   7 -23 -27    2.59    1.85
  23  -7 -27    3.28    2.13
 -27 -23  -7   -0.03    5.84
 -23 -27  -7   21.04    6.18
 -27 -23  -9    9.69    3.46
 -23 -27  -9   17.15    5.27
  -9 -27 -23   10.87    3.68
   9 -27 -23   12.71    4.08
  -9 -23 -27   10.64    3.50
 -23  -9 -27   12.41    4.06
   9 -23 -27   13.91    4.34
  23  -9 -27   15.48    4.76
 -27 -23  -9   18.50    6.18
 -23 -27  -9   13.40    6.60
 -27 -23 -11   30.86    3.61
 -23 -27 -11   31.45    3.52
 -11 -27 -23   26.36    3.18
 -27 -11 -23   33.45    3.85
 -11 -23 -27   22.24    2.91
 -23 -11 -27   31.06    3.34
  11 -23 -27   26.02    2.91
  23 -11 -27   24.59    2.87
 -27 -23 -11   38.35    6.93
 -23 -27 -11   23.65    5.55
 -27 -23 -13   30.34    3.48
 -23 -27 -13   26.98    3.26
 -13 -27 -23   28.87    3.33
 -27 -13 -23   23.14    2.99
 -13 -23 -27   32.88    3.66
  13 -27 -23   24.42    3.02
 -23 -13 -27   30.80    3.47
  13 -23 -27   25.24    3.04
  23 -13 -27   25.45    3.07
 -27 -23 -13   32.66    6.32
 -23 -27 -13   22.60    5.94
 -27 -23 -15   12.74    2.37
 -23 -27 -15    7.91    2.27
 -27 -15 -23   15.74    2.43
 -15 -27 -23   13.05    2.15
 -15 -23 -27    6.24    2.17
 -23 -15 -27    6.72    1.91
  15 -27 -23    8.22    2.13
  15 -23 -27   13.51    2.10
 -27 -23 -15    8.79    5.73
 -23 -27 -15   10.99    5.78
 -25 -27   1   45.63    4.71
 -27 -25  -1   48.38    4.83
 -25 -27  -1   48.23    4.70
  -1 -27 -25   38.94    4.01
   1 -27 -25   56.95    5.39
  -1 -25 -27   48.11    4.71
   1 -25 -27   43.58    4.24
 -25  -1 -27   44.54    4.58
  25  -1 -27   41.32    4.06
  27  -1 -25   47.37    4.63
  25   1 -27   40.79    4.39
 -27 -25   1   46.37    6.20
 -25 -27   1   42.18    6.04
 -27 -25  -1   37.74    8.86
 -25 -27  -1   41.63    6.77
 -27 -25  -3   24.37    3.16
 -25 -27  -3   28.51    3.43
  -3 -27 -25   36.32    3.85
   3 -27 -25   24.28    2.97
  -3 -25 -27   22.49    2.88
   3 -25 -27   21.70    2.77
 -25  -3 -27   27.97    3.23
  25  -3 -27   24.04    2.95
  27  -3 -25   26.03    3.10
 -27 -25   3   13.15    4.80
 -25 -27   3   23.16    4.59
 -27 -25  -3   29.97    5.98
 -25 -27  -3    5.30    5.97
 -27 -25  -5   18.52    2.74
 -25 -27  -5   14.92    4.72
  -5 -27 -25   12.12    3.98
 -27  -5 -25    6.33    2.66
  -5 -25 -27   16.29    4.92
   5 -27 -25   17.18    5.20
   5 -25 -27    5.90    2.58
 -25  -5 -27    9.32    3.32
  27  -5 -25   21.53    2.84
  25  -5 -27   11.79    3.88
 -25 -27   5    9.17    4.11
 -27 -25  -5   13.84    6.73
 -25 -27  -5   13.70    6.80
 -27 -25  -7   13.09    3.38
 -25 -27  -7    8.05    2.70
  -7 -27 -25   12.37    3.26
 -27  -7 -25    9.30    2.73
  -7 -25 -27    8.76    2.57
   7 -27 -25   16.88    3.90
 -25  -7 -27   10.95    2.98
   7 -25 -27   13.88    3.37
  25  -7 -27   10.14    2.84
 -27 -25  -7    6.26    6.20
 -25 -27  -7   -6.78    5.70
 -27 -25  -9   16.61    3.82
 -25 -27  -9   20.28    2.73
 -27  -9 -25   17.07    3.98
  -9 -27 -25   21.11    2.86
  -9 -25 -27   27.72    3.27
   9 -27 -25   18.45    4.20
 -25  -9 -27   14.25    3.52
   9 -25 -27   16.34    3.82
  25  -9 -27   21.71    3.00
 -27 -25  -9   14.12    6.10
 -25 -27  -9    5.73    5.83
 -27 -25 -11   31.33    3.24
 -25 -27 -11   32.22    3.27
 -27 -11 -25   26.46    2.81
 -11 -27 -25   26.85    2.78
 -11 -25 -27   31.97    3.25
 -25 -11 -27   33.51    3.31
  11 -27 -25   22.93    2.55
  11 -25 -27   31.12    3.41
 -27 -25 -11   30.62    6.79
 -25 -27 -11   31.59    6.46
 -27 -25 -13   29.13    3.00
 -25 -27 -13   35.48    3.33
 -13 -27 -25   26.83    2.89
 -13 -25 -27   27.02    2.85
 -25 -13 -27   22.07    2.55
  13 -27 -25   25.77    2.70
  13 -25 -27   28.65    3.01
 -27 -25 -13   27.99    6.97
 -27 -27  -1   23.76    3.18
  -1 -27 -27   31.88    3.20
   1 -27 -27   19.03    2.49
  27  -1 -27   18.48    2.53
  27   1 -27   23.52    2.98
 -27 -27   1   21.73    4.74
 -27 -27  -1   26.54    5.60
 -27 -27  -3    8.50    2.40
  -3 -27 -27   10.62    1.99
   3 -27 -27    6.06    1.82
  27  -3 -27    3.03    1.87
 -27 -27   3    4.29    3.47
 -27 -27  -3    5.94    5.38
 -27 -27  -5    4.02    2.21
  -5 -27 -27    1.28    1.81
   5 -27 -27    1.54    1.92
  27  -5 -27    0.16    2.03
 -27 -27  -5   19.51    6.12
 -27 -27  -7    3.09    2.23
  -7 -27 -27    3.08    1.81
 -27  -7 -27    2.22    2.74
   7 -27 -27    5.58    2.03
 -27 -27  -7   15.42    5.35
   0 -28   0  114.42    4.42
   0   0 -28  102.07    4.08
   0 -28   0   99.38    6.22
   0 -28   2   57.53    3.11
   2 -28   0   51.81    2.83
  -2 -28   0   56.38    2.95
   0 -28  -2   55.88    2.95
   0  -2 -28   42.99    2.47
  -2   0 -28   44.11    2.58
   2   0 -28   55.01    2.74
   0   2 -28   51.38    2.68
   0 -28   2   36.27    4.64
  -2 -28   0   46.00    5.36
   2 -28   0   33.83    4.68
   0 -28  -2   40.38    5.36
   2 -28   2   17.04    1.98
  -2 -28   2   17.08    2.15
   2 -28  -2   15.64    2.05
  -2 -28  -2   13.84    2.12
  -2  -2 -28   20.06    2.12
   2  -2 -28   13.75    1.95
  -2   2 -28   13.75    1.91
   2   2 -28   11.95    1.73
  -2 -28   2   16.30    4.72
   2 -28   2   12.73    4.66
  -2 -28  -2   25.67    4.42
   2 -28  -2    5.72    4.27
   0 -28   4    9.31    2.05
   4 -28   0    9.34    2.02
  -4 -28   0    6.78    1.97
   0 -28  -4    8.71    1.92
   0  -4 -28    6.03    1.65
  -4   0 -28    9.07    1.84
   4   0 -28    6.99    1.85
   0   4 -28    6.85    1.82
   0 -28   4   14.80    4.22
  -4 -28   0    3.76    4.52
   4 -28   0    9.22    4.21
   2 -28   4    9.08    1.99
  -2 -28   4    9.02    1.98
   4 -28   2    1.78    1.83
  -4 -28   2    9.24    2.03
   4 -28  -2    7.28    1.83
  -4 -28  -2    2.46    1.86
   2 -28  -4    1.74    1.78
  -2 -28  -4    7.39    1.95
  -2  -4 -28    3.84    1.79
  -4  -2 -28    1.24    1.55
   2  -4 -28    6.05    1.80
   4  -2 -28    5.33    1.64
  -4   2 -28    0.22    1.74
  -2   4 -28    5.50    1.75
   4   2 -28    1.86    1.77
   2   4 -28    6.53    1.65
   2 -28   4    4.17    4.03
  -2 -28   4    9.15    4.17
  -4 -28   2  -11.94    4.44
   4 -28   2    5.49    4.16
  -4 -28  -2    9.63    3.98
   4 -28  -2    1.24    3.91
   4 -28   4   57.85    3.64
  -4 -28   4   50.20    3.36
   4 -28  -4   52.40    3.23
  -4 -28  -4   50.01    3.18
  -4  -4 -28   48.06    3.06
   4  -4 -28   46.54    2.87
  -4   4 -28   52.42    3.20
 -28  -4  -4   40.50    4.09
   4 -28   4   48.53    4.68
  -4 -28   4   47.03    5.20
  -4 -28  -4   36.60    4.87
   6 -28   0   12.04    2.13
  -6 -28   0    9.45    2.04
   0 -28  -6   13.59    2.04
   0  -6 -28   14.80    2.01
  -6   0 -28   11.62    1.96
   6   0 -28   16.24    2.06
 -28   0  -6    8.86    3.06
   0 -28   6    8.86    3.11
  -6 -28   0   13.86    4.68
   6 -28   0   15.74    4.55
 -28  -2  -6   24.30    2.36
   6 -28   2   22.23    2.40
  -6 -28   2   30.48    2.61
  -6 -28  -2   25.02    2.40
   6 -28  -2   29.34    2.51
   2 -28  -6   23.73    2.25
  -2 -28  -6   23.86    2.16
  -2  -6 -28   28.80    2.26
   2  -6 -28   23.03    2.23
  -6  -2 -28   26.99    2.36
  -6   2 -28   19.32    2.10
   6  -2 -28   22.78    2.16
   6   2 -28   25.89    2.31
  -2   6 -28   20.78    2.23
 -28  -6  -2   28.12    3.55
   2 -28   6   21.83    3.48
 -28  -2  -6   27.55    4.21
  -2 -28   6   13.93    3.64
  -6 -28   2   29.99    5.45
   6 -28   2   20.70    4.80
  -6 -28  -2   10.97    4.21
   6 -28  -2   21.32    4.05
   6 -28   4   97.42    5.19
  -4 -28   6   95.73    5.25
 -28  -6  -4   95.19    5.33
  -6 -28   4   97.67    5.18
 -28  -4  -6   92.03    5.23
  -6 -28  -4  101.49    5.19
   6 -28  -4   91.34    4.77
   4 -28  -6   91.31    4.84
  -4 -28  -6   99.13    5.21
  -4  -6 -28   96.86    4.99
  -6  -4 -28   97.76    5.01
   4  -6 -28   90.82    4.67
   6  -4 -28   86.42    4.72
  -6   4 -28   84.85    4.47
  -4   6 -28   92.13    4.68
   4 -28   6   86.02    5.55
  -4 -28   6   86.84    6.08
 -28  -6  -4   99.32    6.71
   6 -28   4   85.43    5.89
 -28  -4  -6   92.03    6.89
  -6 -28   4   86.26    6.73
  -6 -28  -4   92.63    6.45
  -6 -28   6  149.32    7.40
 -28  -6  -6  156.68    7.82
  -6 -28  -6  155.59    7.52
   6 -28  -6  144.45    7.09
  -6  -6 -28  137.65    6.76
   6  -6 -28  135.94    6.62
  -6   6 -28  135.57    6.62
   6 -28   6  146.47    7.81
  -6 -28   6  149.35    8.47
 -28  -6  -6  140.13    8.90
   8 -28   0    3.83    1.80
  -8 -28   0    5.36    1.82
   0 -28  -8    4.50    1.88
   0  -8 -28   -0.64    1.83
  -8   0 -28    6.30    1.80
   8   0 -28    6.18    1.59
 -28   0  -8    4.42    3.76
  -8 -28   0    2.60    4.73
   8 -28   0    7.71    3.83
   8 -28   2    8.18    1.94
  -8 -28   2    0.48    2.00
 -28  -2  -8    6.73    1.84
   8 -28  -2   10.09    1.92
  -8 -28  -2    8.75    2.02
   2 -28  -8   -0.25    1.82
  -2 -28  -8    7.83    1.94
  -2  -8 -28    7.34    1.85
   2  -8 -28    9.62    1.90
  -8  -2 -28    7.52    1.84
  -8   2 -28    3.32    1.74
   8  -2 -28    7.21    1.81
   8   2 -28   10.94    1.87
  -2 -28   8    2.62    2.40
 -28   2  -8    3.51    2.73
 -28  -8  -2    9.38    3.39
 -28  -2  -8    7.82    4.39
   8 -28   2   -0.02    3.99
  -8 -28   2   -7.13    4.14
  -8 -28  -2   -9.45    4.60
   8 -28  -2    6.96    3.75
  -8 -28   4   46.09    3.17
 -28  -8  -4   39.78    2.82
 -28  -4  -8   49.43    3.17
   8 -28  -4   40.21    2.79
  -8 -28  -4   52.67    3.19
  -4 -28  -8   42.07    2.90
   4 -28  -8   39.82    2.77
  -4  -8 -28   40.56    2.81
  -8  -4 -28   42.67    2.86
   4  -8 -28   46.38    2.95
  -8   4 -28   46.19    2.95
   8  -4 -28   39.67    2.71
  -4 -28   8   41.51    3.72
   8 -28   4   41.47    4.40
 -28  -8  -4   34.68    4.63
  -8 -28   4   57.98    5.78
 -28  -4  -8   47.16    5.36
  -8 -28  -4   36.41    5.10
  -8 -28   6   82.58    4.68
 -28  -8  -6   90.88    5.13
 -28  -6  -8   86.99    4.96
  -8 -28  -6   83.35    4.57
   8 -28  -6   89.05    4.73
  -6 -28  -8   89.31    4.72
   6 -28  -8   82.74    4.67
  -6  -8 -28   80.04    4.36
  -8  -6 -28   74.59    4.15
   6  -8 -28   89.27    4.71
   8  -6 -28   90.59    4.74
  -8   6 -28   74.41    4.04
  -6   8 -28   84.28    4.82
  -6 -28   8   91.16    5.59
  -8 -28   6   84.47    6.10
 -28  -8  -6   87.52    7.04
 -28  -6  -8   76.75    6.62
 -28  -8  -8   42.79    3.01
  -8 -28  -8   50.06    3.16
   8 -28  -8   45.35    3.08
  -8  -8 -28   46.40    2.98
   8  -8 -28   41.37    2.85
  -8   8 -28   42.37    2.90
 -28  -8  -8   45.65    5.35
  10 -28   0   21.33    2.31
 -10 -28   0   24.77    2.54
   0 -28 -10   21.15    2.24
   0 -10 -28   20.99    2.07
 -10   0 -28   21.23    2.06
  10   0 -28   17.16    1.90
 -28 -10   0   23.78    3.21
 -28   0 -10   21.28    4.32
 -10 -28   0   25.97    5.38
  10 -28   0   13.16    4.49
 -28 -10  -2    8.48    2.00
  10 -28   2    8.19    1.78
 -10 -28   2    4.15    2.10
  10 -28  -2    8.46    1.81
 -10 -28  -2    8.06    1.88
 -28  -2 -10    5.89    1.68
  -2 -28 -10    4.12    1.88
   2 -28 -10    8.64    1.78
  -2 -10 -28    5.00    1.88
   2 -10 -28   11.40    1.93
 -10  -2 -28    4.17    1.66
 -10   2 -28    9.61    1.95
  10  -2 -28    8.46    1.84
 -28 -10  -2   -2.05    3.71
 -28   2 -10    3.62    3.97
  10 -28   2   10.99    4.65
 -10 -28   2   11.33    4.47
 -28  -2 -10    6.59    4.74
 -10 -28  -2    5.96    4.36
  10 -28  -2   -5.32    4.29
 -10 -28   4    1.84    1.89
 -28 -10  -4    1.17    1.74
  10 -28  -4    3.17    1.80
 -10 -28  -4   -1.01    1.93
  -4 -28 -10    6.07    1.98
   4 -28 -10    4.18    1.93
  -4 -10 -28    6.30    1.85
 -10  -4 -28    8.79    1.90
   4 -10 -28    2.96    1.77
 -10   4 -28    1.34    1.74
  10  -4 -28    2.71    1.77
  28  -4 -10    4.24    1.61
  10 -28   4    4.60    2.82
 -10 -28   4    6.31    3.85
 -28 -10  -4   -8.83    4.30
 -28  -4 -10   -3.85    4.59
 -10 -28  -4    2.15    4.65
 -28 -10  -6   16.05    2.08
 -28  -6 -10   19.68    2.10
 -10 -28  -6   16.26    2.23
  10 -28  -6   22.91    2.26
  -6 -28 -10   26.09    2.43
   6 -28 -10   17.99    1.96
  -6 -10 -28   27.09    2.42
 -10  -6 -28   16.43    2.10
   6 -10 -28   15.53    2.01
  10  -6 -28   16.92    2.05
 -10   6 -28   18.01    2.20
 -10 -28   6   17.12    4.58
 -28 -10  -6   22.51    4.98
 -28  -6 -10    4.60    4.89
 -10 -28  -6   18.05    4.27
 -28 -10  -8   -0.65    1.75
 -28  -8 -10    1.67    1.69
 -10 -28  -8    1.38    1.74
  10 -28  -8   -0.94    1.73
  -8 -28 -10    2.95    1.91
   8 -28 -10    2.92    1.89
  -8 -10 -28   -2.18    1.63
 -10  -8 -28    5.08    1.85
   8 -10 -28    0.24    1.80
  10  -8 -28   -2.45    1.84
 -10   8 -28    2.90    1.89
  -8  10 -28   -0.37    1.86
 -10 -28   8   -0.83    2.81
 -28 -10  -8    5.98    4.62
 -28  -8 -10   12.05    5.31
 -28 -10 -10    7.37    1.83
 -10 -28 -10    4.69    2.02
  10 -28 -10    5.16    1.83
 -10 -10 -28    4.10    1.91
  10 -10 -28    9.83    1.91
 -10  10 -28    5.18    1.67
 -28 -10 -10    1.42    5.03
  12 -28   0   54.51    3.48
 -12 -28   0   53.03    3.52
   0 -28 -12   60.66    3.75
   0 -12 -28   50.90    3.34
 -12   0 -28   48.75    3.10
  12   0 -28   48.27    2.94
 -28 -12   0   42.44    4.12
 -28   0 -12   56.06    6.56
  12 -28   0   43.42    5.02
 -12 -28   0   55.24    6.32
 -28 -12  -2   23.39    2.43
 -12 -28   2   35.98    2.84
  12 -28  -2   27.01    2.96
 -12 -28  -2   23.26    2.46
 -28  -2 -12   27.25    2.31
  -2 -28 -12   28.76    2.42
   2 -28 -12   25.39    2.33
  -2 -12 -28   22.71    2.30
   2 -12 -28   30.78    2.55
 -12  -2 -28   28.15    2.40
 -12   2 -28   24.95    2.39
  12  -2 -28   25.55    2.23
 -28 -12  -2   23.28    4.37
  12 -28   2   27.81    4.36
 -28   2 -12   17.53    4.76
 -12 -28   2   28.14    5.38
 -28  -2 -12   18.22    4.87
 -12 -28  -2   26.40    5.35
  12 -28  -2   14.10    4.19
 -12 -28   4    0.06    2.13
 -28 -12  -4   -0.85    1.74
  12 -28  -4    3.39    1.70
 -12 -28  -4    2.54    1.97
 -28  -4 -12    1.39    1.73
  -4 -28 -12    8.68    1.75
   4 -28 -12   -2.44    1.90
  -4 -12 -28   -0.10    1.93
 -12  -4 -28    0.95    1.79
   4 -12 -28    2.86    1.77
 -12   4 -28    1.81    1.73
  12  -4 -28    2.64    1.76
  28  -4 -12    3.91    1.57
 -12 -28   4    2.27    4.33
 -28 -12  -4    0.75    4.11
 -28  -4 -12    7.91    5.31
 -12 -28  -4    8.91    4.95
 -28 -12  -6    3.71    1.86
 -12 -28  -6    9.62    2.06
  12 -28  -6    6.20    1.84
  -6 -28 -12    2.50    1.92
   6 -28 -12    2.50    1.66
  -6 -12 -28    5.79    1.90
 -12  -6 -28    0.22    1.97
   6 -12 -28   -0.69    1.81
  12  -6 -28    4.65    1.80
 -12   6 -28    2.54    1.62
 -12 -28   6    5.82    3.88
 -28 -12  -6    5.34    5.09
 -28  -6 -12   -1.20    4.97
 -12 -28  -6    8.09    4.66
 -28 -12  -8    0.59    1.85
 -12 -28  -8    5.93    2.01
 -28  -8 -12    2.53    1.92
  12 -28  -8    5.76    2.18
  -8 -28 -12   -0.08    1.97
   8 -28 -12    2.26    1.79
  -8 -12 -28    1.73    1.95
 -12  -8 -28    5.52    1.90
   8 -12 -28    7.96    1.69
  12  -8 -28    0.62    1.57
 -12   8 -28    3.10    1.83
 -12 -28   8   -2.93    2.73
 -28 -12  -8   -0.69    5.27
 -28  -8 -12    4.11    5.54
 -28 -12 -10   28.01    2.46
 -28 -10 -12   22.31    2.35
 -12 -28 -10   20.54    2.17
  12 -28 -10   21.61    2.08
 -10 -28 -12   22.37    2.48
  10 -28 -12   23.52    2.30
 -10 -12 -28   24.46    2.24
 -12 -10 -28   20.67    2.34
  10 -12 -28   24.65    2.29
  12 -10 -28   15.40    1.87
 -12  10 -28   23.33    2.32
 -10  12 -28   28.87    2.50
 -28 -12 -10   20.68    5.57
 -28 -10 -12   25.91    5.51
 -28 -12 -12   44.58    3.09
 -12 -28 -12   53.40    3.50
  12 -28 -12   44.19    2.93
 -12 -12 -28   42.80    3.06
  12 -12 -28   48.53    3.15
 -12  12 -28   49.46    3.29
 -28 -12 -12   36.10    5.75
  14 -28   0   26.40    2.46
 -14 -28   0   20.75    2.17
   0 -28 -14   15.62    2.04
   0 -14 -28   20.33    2.00
 -14   0 -28   22.29    2.21
  14   0 -28   19.85    2.10
 -28 -14   0   27.96    4.35
 -14 -28   0   24.17    5.23
 -28   0 -14   22.90    4.79
 -28 -14  -2    7.34    1.94
 -14 -28   2    9.64    2.13
 -14 -28  -2    7.87    2.05
 -28  -2 -14    4.62    1.73
  -2 -28 -14   10.80    1.96
   2 -28 -14    7.54    1.87
  -2 -14 -28    8.62    1.99
   2 -14 -28   12.07    1.91
 -14  -2 -28    9.43    1.84
 -14   2 -28    9.61    1.86
  14  -2 -28    9.06    1.79
 -28 -14   2    7.82    2.91
 -28 -14  -2   13.00    4.13
 -14 -28   2   14.78    4.39
 -14 -28  -2   12.84    5.36
 -28  -2 -14    2.49    5.57
 -14 -28   4    0.82    2.16
 -28 -14  -4    1.68    1.75
  14 -28  -4    0.43    1.86
 -14 -28  -4    1.97    1.95
 -28  -4 -14    3.36    1.75
  -4 -28 -14    2.46    1.86
   4 -28 -14    1.15    1.80
  -4 -14 -28   -0.96    1.65
 -14  -4 -28   -2.20    1.81
   4 -14 -28    1.83    1.77
 -14   4 -28    5.38    1.89
  14  -4 -28    3.74    1.72
  28  -4 -14    2.19    1.64
 -14 -28   4    7.86    4.38
 -28 -14  -4    3.81    4.91
 -14 -28  -4   16.66    5.11
 -28  -4 -14    5.48    5.50
 -28 -14  -6    8.04    1.90
 -14 -28  -6    8.68    1.85
  14 -28  -6    6.53    1.71
 -28  -6 -14   12.46    1.81
  -6 -28 -14    6.39    1.73
   6 -28 -14    8.16    1.69
  -6 -14 -28   13.13    1.99
 -14  -6 -28    7.32    1.88
   6 -14 -28    6.92    1.86
 -14   6 -28    8.18    1.83
  14  -6 -28   11.98    1.86
 -14 -28   6    2.04    3.27
 -28  -6 -14    5.26    5.14
 -14 -28  -6    1.61    4.88
 -28 -14  -8   -3.23    1.81
 -14 -28  -8   -1.97    1.79
  14 -28  -8   -0.81    1.89
 -28  -8 -14   -1.99    1.90
  -8 -28 -14   -0.21    1.90
   8 -28 -14   -0.72    1.84
  -8 -14 -28    6.84    1.97
 -14  -8 -28   -1.89    1.69
   8 -14 -28    3.30    1.86
  14  -8 -28    3.14    1.82
 -14   8 -28    3.22    1.81
 -14 -28   8   -0.38    2.84
 -28 -14  -8   -0.07    5.49
 -28  -8 -14    9.42    5.22
 -14 -28  -8    1.57    4.71
 -28 -14 -10    5.22    1.88
 -14 -28 -10    8.34    1.85
 -28 -10 -14    8.36    1.91
  14 -28 -10   11.07    1.95
 -10 -28 -14    7.61    2.00
  10 -28 -14    6.85    1.69
 -10 -14 -28   10.03    1.99
 -14 -10 -28    6.62    1.79
  10 -14 -28   11.60    1.79
  14 -10 -28   11.28    1.92
 -14  10 -28    7.32    1.90
 -28 -14 -10   -3.24    5.35
 -28 -10 -14   -5.98    5.11
 -28 -14 -12   27.04    2.75
 -14 -28 -12   23.83    2.60
 -28 -12 -14   29.65    2.84
 -12 -28 -14   31.18    2.93
  14 -28 -12   25.00    2.52
  12 -28 -14   25.98    2.62
 -14 -12 -28   19.38    2.22
 -12 -14 -28   24.64    2.58
  12 -14 -28   20.65    2.36
  14 -12 -28   22.63    2.43
 -14  12 -28   23.84    2.53
 -12  14 -28   29.52    2.81
 -28 -14 -12   15.30    5.45
 -28 -12 -14   25.11    5.64
 -28 -14 -14   10.66    2.75
 -14 -28 -14    8.92    2.64
  14 -28 -14   14.64    3.31
 -14 -14 -28    6.26    2.06
  14 -14 -28   11.78    3.25
 -14  14 -28    5.90    2.13
 -28 -14 -14   13.05    5.54
 -28 -16   0    4.03    2.00
 -16 -28   0    6.43    2.17
   0 -28 -16    0.56    2.12
   0 -16 -28    0.33    1.84
 -16   0 -28    3.03    1.59
  16   0 -28    3.66    1.71
 -28 -16   0   11.81    4.00
 -16 -28   0    2.63    4.56
 -28   0 -16   10.49    4.60
 -28 -16  -2    2.40    1.72
 -16 -28   2    4.52    1.95
  16 -28  -2    8.36    2.04
 -16 -28  -2    6.80    2.16
  -2 -28 -16    8.21    1.92
   2 -28 -16    5.08    1.67
  -2 -16 -28   -2.07    1.62
   2 -16 -28    5.92    1.68
 -16  -2 -28    0.29    1.89
 -16   2 -28    2.15    1.77
  16  -2 -28    4.77    1.59
 -28 -16   2   -1.17    3.14
 -28 -16  -2    8.69    4.73
 -16 -28   2    1.61    4.76
 -16 -28  -2    6.28    4.50
 -28  -2 -16    8.98    4.51
 -16 -28   4   31.67    2.88
 -28 -16  -4   25.50    2.69
  16 -28  -4   25.12    2.42
 -16 -28  -4   27.02    2.58
 -28  -4 -16   29.27    2.45
  -4 -28 -16   25.89    2.40
   4 -28 -16   22.44    2.26
  -4 -16 -28   27.16    2.33
   4 -16 -28   24.87    2.19
 -16  -4 -28   26.97    2.42
 -16   4 -28   20.26    2.03
  16  -4 -28   28.86    2.43
  28  -4 -16   24.88    2.24
 -16 -28   4   30.25    4.76
 -28 -16  -4   16.15    4.75
 -16 -28  -4   34.33    5.61
 -28  -4 -16   24.61    4.99
 -28 -16  -6   42.75    3.14
  16 -28  -6   37.97    2.94
 -16 -28  -6   44.70    3.20
 -28  -6 -16   46.14    3.15
  -6 -28 -16   40.66    2.82
   6 -28 -16   39.45    2.74
  -6 -16 -28   36.77    2.80
 -16  -6 -28   41.21    2.94
   6 -16 -28   48.04    3.45
 -16   6 -28   52.54    3.43
  16  -6 -28   40.30    2.83
 -16 -28   6   39.14    4.10
 -28 -16  -6   44.48    6.22
 -16 -28  -6   36.06    5.19
 -28  -6 -16   43.42    5.28
 -28 -16  -8   23.64    2.62
 -16 -28  -8   31.04    2.91
  16 -28  -8   19.42    2.50
 -28  -8 -16   18.89    2.26
  -8 -28 -16   22.74    2.54
   8 -28 -16   16.72    2.25
  -8 -16 -28   25.59    2.49
 -16  -8 -28   13.59    2.18
   8 -16 -28   23.78    2.51
 -16   8 -28   25.35    2.60
  16  -8 -28   19.21    2.26
 -28 -16  -8   21.62    5.73
 -16 -28  -8    9.77    4.53
 -28 -16 -10   -0.15    1.87
 -16 -28 -10    2.43    1.76
 -28 -10 -16    0.30    1.82
 -10 -28 -16    3.20    1.75
  10 -28 -16   -0.16    1.60
 -10 -16 -28   -1.62    1.90
 -16 -10 -28   -0.44    1.91
  10 -16 -28    1.65    1.87
  16 -10 -28    0.89    1.74
 -16  10 -28    4.03    1.95
 -28 -16 -10    0.50    5.57
 -28 -16 -12    1.36    2.03
 -16 -28 -12   -0.63    2.04
  16 -28 -12    3.23    1.81
 -28 -12 -16    7.94    2.39
 -12 -28 -16   -1.23    1.99
  12 -28 -16   -4.70    1.60
 -12 -16 -28    2.57    1.95
 -16 -12 -28   -1.86    1.93
  12 -16 -28    2.48    1.85
  16 -12 -28    8.07    2.37
 -16  12 -28    2.87    2.03
 -28 -16 -12    0.50    4.83
 -28 -16 -14    0.76    1.93
 -16 -28 -14    6.92    2.59
 -28 -14 -16   -3.56    1.90
 -14 -28 -16   -0.74    1.97
  16 -28 -14   -0.78    1.90
  14 -28 -16    0.48    1.85
 -16 -14 -28   -2.04    2.00
  14 -16 -28    3.97    2.07
  16 -14 -28    2.44    1.86
 -16  14 -28    1.05    1.99
 -14  16 -28   -1.63    1.97
 -28 -16 -14   -4.84    5.28
 -28 -14 -16    2.48    5.36
 -28 -16 -16    5.85    2.38
 -16 -28 -16    9.00    2.79
  16 -28 -16   11.12    3.25
 -16 -16 -28    4.97    2.24
  16 -16 -28   10.11    3.06
 -16  16 -28    2.71    2.29
 -28 -16 -16   10.53    5.91
 -28 -18   0   10.38    2.25
 -18 -28   0   15.76    2.45
   0 -28 -18   14.55    2.44
   0 -18 -28   13.41    2.18
 -18   0 -28   20.17    2.44
  18   0 -28   17.03    2.21
 -28 -18   0    5.28    4.13
 -18 -28   0   21.47    4.84
 -28 -18  -2   27.00    2.83
 -18 -28   2   17.18    2.54
 -18 -28  -2   31.12    3.06
  -2 -28 -18   21.82    2.53
   2 -28 -18   24.04    2.58
  -2 -18 -28   21.68    2.71
   2 -18 -28   15.77    2.22
 -18  -2 -28   15.02    2.21
 -18   2 -28   25.07    2.62
  18  -2 -28   25.94    2.62
  28  -2 -18   22.89    2.46
 -28 -18   2   24.80    3.49
 -28 -18  -2   33.95    5.13
 -18 -28   2   18.00    4.86
 -18 -28  -2   24.94    5.60
 -18 -28   4   59.56    4.61
 -28 -18  -4   57.24    4.38
 -18 -28  -4   58.70    4.50
 -28  -4 -18   52.49    4.10
  -4 -28 -18   57.66    4.19
   4 -28 -18   58.75    4.47
  -4 -18 -28   55.91    4.22
   4 -18 -28   54.82    4.08
 -18  -4 -28   46.98    3.61
 -18   4 -28   55.02    4.18
  18  -4 -28   52.75    3.96
  28  -4 -18   47.36    3.86
 -18 -28   4   58.77    6.05
 -28 -18  -4   48.95    6.34
 -18 -28  -4   44.18    5.97
 -28 -18  -6   70.82    5.16
 -18 -28  -6   78.47    5.54
 -28  -6 -18   71.19    5.36
  -6 -28 -18   72.22    5.06
   6 -28 -18   71.95    5.03
  -6 -18 -28   66.55    4.84
 -18  -6 -28   67.61    5.00
   6 -18 -28   68.44    4.78
 -18   6 -28   65.56    4.78
  18  -6 -28   64.35    4.61
 -18 -28   6   78.87    6.44
 -28 -18  -6   82.75    8.30
 -18 -28  -6   81.30    7.48
 -28 -18  -8   42.27    3.42
 -18 -28  -8   55.13    4.09
 -28  -8 -18   49.86    3.75
  -8 -28 -18   50.28    3.68
  -8 -18 -28   39.56    3.27
 -18  -8 -28   40.38    3.27
   8 -18 -28   45.33    3.53
 -18   8 -28   43.03    3.49
  18  -8 -28   43.02    3.20
 -28 -18  -8   50.16    6.35
 -18 -28  -8   45.70    6.86
 -28 -18 -10   10.88    2.86
 -18 -28 -10   15.10    3.57
 -28 -10 -18   10.83    2.79
 -10 -28 -18   12.94    3.16
  10 -28 -18   14.57    3.60
 -10 -18 -28   12.25    2.91
  10 -18 -28   12.37    3.06
  18 -10 -28   11.14    2.80
 -18  10 -28   11.17    2.86
 -28 -18 -10    6.24    5.87
 -18 -28 -10    4.05    5.02
 -28 -18 -12    3.97    2.20
 -18 -28 -12    3.12    2.16
 -28 -12 -18    0.16    1.94
 -12 -28 -18   13.20    3.75
  12 -28 -18    0.35    1.94
 -12 -18 -28   -0.04    2.01
 -18 -12 -28    3.10    2.06
  12 -18 -28    6.09    2.42
  18 -12 -28    3.57    1.84
 -18  12 -28    4.24    2.13
 -28 -18 -12   -6.38    5.54
 -28 -18 -14    2.10    2.06
 -18 -28 -14    5.97    2.64
 -28 -14 -18    6.27    2.52
 -14 -28 -18    8.30    2.88
  14 -28 -18    4.93    2.24
 -14 -18 -28    3.92    2.16
 -18 -14 -28    5.51    2.40
  14 -18 -28   11.32    3.32
  18 -14 -28    3.95    2.12
 -18  14 -28   -0.85    2.00
 -14  18 -28    5.51    2.45
 -28 -18 -14    2.44    5.50
 -28 -18 -16   15.98    4.90
 -18 -28 -16   19.97    2.59
 -28 -16 -18   16.48    5.05
 -16 -28 -18   15.88    4.89
  16 -28 -18   13.45    4.26
 -18 -16 -28   22.21    2.85
 -16 -18 -28   15.25    4.74
  16 -18 -28   14.58    4.50
  18 -16 -28   14.90    4.59
 -16  18 -28   18.14    2.69
 -28 -18 -16    0.51    4.87
 -28 -18 -18   28.19    3.35
 -18 -28 -18   34.84    3.82
 -18 -18 -28   35.47    3.81
  18 -18 -28   22.09    2.69
 -28 -20   0    7.00    2.66
 -20 -28   0    5.76    2.54
   0 -28 -20    7.34    2.38
   0 -20 -28    8.88    2.43
 -20   0 -28    7.96    2.45
  20   0 -28    4.11    2.04
 -28 -20   0   -3.45    3.78
 -20 -28   0   14.58    5.36
 -20 -28   2    9.19    2.67
 -28 -20  -2   12.31    3.19
 -20 -28  -2   10.69    2.99
  -2 -28 -20    7.56    2.53
   2 -28 -20    4.94    2.17
  -2 -20 -28    1.62    1.86
   2 -20 -28    7.64    2.26
 -20  -2 -28   11.33    2.88
 -20   2 -28    9.87    2.53
  20  -2 -28   13.50    3.16
  28  -2 -20   13.92    3.21
 -28 -20   2    6.46    3.88
 -28 -20  -2    1.95    4.84
 -20 -28   2   17.19    6.30
 -20 -28  -2   22.23    6.00
 -28 -20  -4   29.14    2.89
 -20 -28  -4   20.59    2.64
  -4 -28 -20   28.85    2.83
   4 -28 -20   28.30    2.71
  -4 -20 -28   25.46    2.64
   4 -20 -28   29.00    2.58
 -20  -4 -28   27.73    2.74
 -20   4 -28   22.65    2.52
  20  -4 -28   31.11    2.79
  28  -4 -20   30.51    2.78
 -20 -28   4   38.87    5.24
 -28 -20  -4   13.43    6.08
 -20 -28  -4   25.77    5.76
 -28 -20  -6   42.64    3.53
 -20 -28  -6   38.84    3.22
 -28  -6 -20   45.62    3.54
  -6 -28 -20   31.67    2.82
   6 -28 -20   41.22    3.36
  -6 -20 -28   38.31    3.21
 -20  -6 -28   44.24    3.58
   6 -20 -28   41.86    3.37
 -20   6 -28   42.83    3.52
  20  -6 -28   42.80    3.37
 -20 -28   6   41.24    4.18
 -28 -20  -6   46.19    5.92
 -20 -28  -6   28.38    5.98
 -28 -20  -8   26.90    2.77
 -20 -28  -8   22.59    2.48
 -28  -8 -20   17.28    5.24
  -8 -28 -20   17.66    5.28
   8 -28 -20   22.59    2.52
  -8 -20 -28   20.04    2.43
 -20  -8 -28   28.36    2.76
   8 -20 -28   18.61    2.38
 -20   8 -28   27.97    2.88
  20  -8 -28   11.98    3.34
 -28 -20  -8    9.18    6.17
 -20 -28  -8   17.29    6.81
 -28 -20 -10    1.58    1.89
 -20 -28 -10    2.97    2.23
 -28 -10 -20   10.48    3.19
 -10 -28 -20   -0.96    1.87
 -10 -20 -28    1.46    1.87
 -20 -10 -28    7.27    2.69
  10 -20 -28   -0.75    2.11
 -20  10 -28    2.29    2.07
  20 -10 -28   -0.23    1.98
 -28 -20 -10   -7.49    5.06
 -20 -28 -10    9.20    5.68
 -28 -20 -12    1.69    1.88
 -20 -28 -12    2.20    1.95
 -28 -12 -20    0.89    2.10
 -12 -28 -20   -4.16    3.02
  12 -28 -20   -4.73    2.00
 -12 -20 -28    1.24    2.12
 -20 -12 -28    3.42    1.97
  12 -20 -28   -1.30    2.00
  20 -12 -28   -1.83    1.73
 -28 -20 -12   11.99    6.77
 -20 -28 -12   -3.50    5.15
 -28 -20 -14    1.51    2.10
 -20 -28 -14   -2.70    1.84
 -28 -14 -20   -2.07    2.04
 -14 -28 -20   -0.01    2.12
  14 -28 -20   -0.71    1.73
 -20 -14 -28    0.03    2.04
  14 -20 -28    2.75    2.01
  20 -14 -28    5.38    2.19
 -28 -20 -14   -2.97    4.99
 -28 -20 -16    8.47    2.50
 -20 -28 -16    8.51    2.53
 -28 -16 -20   15.40    3.67
 -16 -28 -20   12.36    3.09
  16 -28 -20    8.41    2.63
 -20 -16 -28    8.49    2.66
 -16 -20 -28    5.84    2.37
  16 -20 -28   13.38    3.32
  20 -16 -28   12.52    3.19
 -28 -20 -16   26.66    6.32
 -28 -20 -18   18.36    2.60
 -20 -28 -18   21.70    2.75
 -28 -18 -20   19.47    2.68
 -18 -28 -20   11.07    2.33
 -20 -18 -28   14.16    2.22
 -18 -20 -28   20.35    2.65
  18 -20 -28   14.18    2.11
  20 -18 -28   18.02    2.44
 -28 -20 -18    1.51    5.67
 -28 -22   0    7.51    2.95
 -22 -28   0   -3.92    2.08
   0 -28 -22    4.23    2.35
   0 -22 -28   -4.21    2.00
 -22   0 -28    3.41    2.09
  22   0 -28    3.25    2.07
 -28 -22   0   -0.91    4.48
 -22 -28   2   -3.62    2.34
 -28 -22  -2    2.99    2.32
 -22 -28  -2   -0.71    2.24
  -2 -28 -22   -2.80    2.06
   2 -28 -22   -1.69    1.88
  -2 -22 -28   -4.54    1.85
   2 -22 -28    4.16    1.99
 -22  -2 -28   -0.31    1.82
 -22   2 -28   -0.97    1.98
  22  -2 -28    1.45    2.05
 -28 -22   2    0.20    3.39
 -22 -28   2    4.98    4.45
 -28 -22  -2   13.93    5.95
 -22 -28  -2   -3.86    4.50
 -28 -22  -4    1.83    1.94
 -22 -28  -4   -0.76    1.99
  -4 -28 -22   -4.22    2.09
   4 -28 -22   -2.10    1.84
  -4 -22 -28    3.24    1.94
   4 -22 -28   -2.24    2.03
 -22  -4 -28   -3.77    2.05
 -22   4 -28    0.27    2.25
  22  -4 -28    1.46    2.01
  28  -4 -22    0.66    2.19
 -22 -28   4   -6.05    3.80
 -28 -22  -4    0.15    5.66
 -22 -28  -4    3.87    5.03
 -28 -22  -6    3.29    2.32
 -22 -28  -6    5.83    2.36
 -28  -6 -22   -0.14    2.02
  -6 -28 -22   -3.06    2.08
   6 -28 -22    7.61    2.57
  -6 -22 -28    4.22    2.07
 -22  -6 -28    6.85    2.62
   6 -22 -28    2.49    1.83
 -22   6 -28    4.30    2.29
  22  -6 -28    6.67    2.51
 -22 -28   6    2.51    2.80
 -28 -22  -6    6.59    5.12
 -22 -28  -6   -2.13    4.97
 -28 -22  -8    4.85    2.31
 -22 -28  -8   -0.02    2.18
  -8 -28 -22   -4.20    1.89
   8 -28 -22    2.11    2.16
  -8 -22 -28    2.97    2.23
 -22  -8 -28    4.35    2.13
   8 -22 -28   -0.25    2.01
  22  -8 -28    1.35    2.01
 -28 -22  -8    4.80    5.20
 -22 -28  -8  -17.32    4.94
 -28 -22 -10    4.05    2.16
 -22 -28 -10   -1.93    2.23
 -10 -28 -22    0.33    2.10
 -28 -10 -22    0.65    2.20
  10 -28 -22    4.92    2.41
 -10 -22 -28    1.07    1.95
 -22 -10 -28    4.09    2.09
  10 -22 -28    4.50    2.32
  22 -10 -28   -2.66    2.00
 -28 -22 -10   -0.53    6.31
 -22 -28 -10   -3.45    5.42
 -28 -22 -12    2.03    2.15
 -22 -28 -12    7.41    2.35
 -28 -12 -22    2.92    2.08
 -12 -28 -22    2.72    1.91
  12 -28 -22    4.67    2.20
 -12 -22 -28    3.31    2.79
 -22 -12 -28    5.63    2.32
  12 -22 -28    9.58    2.75
  22 -12 -28    5.71    2.27
 -28 -22 -12    7.59    6.56
 -22 -28 -12    4.56    5.85
 -28 -22 -14    1.07    1.80
 -22 -28 -14    3.58    2.15
 -28 -14 -22    2.09    2.07
 -14 -28 -22    2.05    1.82
  14 -28 -22   -2.13    2.05
 -14 -22 -28    2.40    1.84
 -22 -14 -28    3.19    1.84
  14 -22 -28   -0.15    1.99
  22 -14 -28    3.29    1.99
 -28 -22 -14   12.78    5.89
 -22 -28 -14   -2.91    5.25
 -28 -22 -16    0.85    1.83
 -22 -28 -16   -0.17    2.08
 -28 -16 -22   -0.48    2.09
 -16 -28 -22   -2.52    2.07
  16 -28 -22   -0.35    2.10
 -22 -16 -28    3.75    2.08
  16 -22 -28   -0.40    1.73
  22 -16 -28    0.68    2.07
 -28 -22 -16  -12.65    5.14
 -28 -24   0   19.17    2.92
 -24 -28   0   19.22    2.95
   0 -28 -24   25.12    3.08
   0 -24 -28   20.60    2.74
 -24   0 -28   23.28    2.95
  24   0 -28   14.11    4.43
  28   0 -24   23.58    2.98
 -28 -24   0    9.95    5.23
 -24 -28   2    5.94    2.87
 -28 -24  -2   17.73    4.03
 -24 -28  -2   11.30    3.73
  -2 -28 -24    7.43    2.93
   2 -28 -24   13.63    4.22
  -2 -24 -28   11.23    3.72
   2 -24 -28   18.11    2.42
 -24  -2 -28    6.65    2.88
  24  -2 -28   12.90    4.01
  28  -2 -24   14.24    4.48
 -28 -24   2   15.46    5.69
 -24 -28   2    7.73    4.51
 -28 -24  -2   13.63    6.34
 -24 -28  -2   14.96    6.96
 -28 -24  -4    6.56    2.84
 -24 -28  -4   -1.30    2.29
  -4 -28 -24   -1.13    2.10
   4 -28 -24    1.75    1.87
  -4 -24 -28    8.25    3.08
   4 -24 -28    2.82    2.11
 -24  -4 -28    2.42    2.07
  24  -4 -28    4.44    2.16
 -24 -28   4   16.75    6.19
 -28 -24  -4    4.33    4.84
 -24 -28  -4   -3.03    5.70
 -28 -24  -6    8.53    2.75
 -24 -28  -6    2.44    2.21
  -6 -28 -24    3.31    2.15
   6 -28 -24    0.76    2.05
  -6 -24 -28    3.95    2.24
 -24  -6 -28    3.72    2.17
   6 -24 -28    4.44    2.17
  24  -6 -28    0.57    1.77
 -28 -24  -6   10.37    6.09
 -24 -28  -6   -0.44    5.85
 -28 -24  -8    0.51    2.39
 -24 -28  -8    7.28    2.66
  -8 -28 -24    5.00    2.08
 -28  -8 -24    5.34    2.45
   8 -28 -24    1.46    1.78
  -8 -24 -28    2.11    2.11
 -24  -8 -28   -3.26    2.11
  24  -8 -28    1.47    2.05
 -28 -24  -8   -6.50    6.69
 -24 -28  -8    5.29    5.22
 -28 -24 -10    9.78    2.29
 -24 -28 -10    9.49    2.28
 -10 -28 -24    4.09    2.11
 -28 -10 -24    8.85    2.21
  10 -28 -24   10.78    1.97
 -10 -24 -28    6.23    2.16
 -24 -10 -28   11.88    2.30
  10 -24 -28    3.74    1.77
  24 -10 -28    6.56    2.07
 -28 -24 -10    1.23    5.90
 -24 -28 -10   13.04    5.90
 -28 -24 -12   19.24    2.64
 -24 -28 -12   17.22    2.53
 -12 -28 -24    4.84    1.90
 -28 -12 -24    7.04    3.12
  12 -28 -24   14.89    2.17
 -12 -24 -28   20.54    2.50
 -24 -12 -28   10.60    2.03
  12 -24 -28   11.82    1.99
 -28 -24 -12   14.98    6.25
 -24 -28 -12    2.92    5.68
 -28 -26   0   10.78    2.52
 -26 -28   0   15.08    2.65
   0 -28 -26   15.93    2.41
   0 -26 -28    9.98    2.16
  26   0 -28   15.63    3.38
  28   0 -26   11.57    2.02
 -28 -26   0   17.97    4.17
 -26 -28   0   15.24    4.60
 -28 -26  -2   10.16    2.42
 -26 -28  -2   12.10    2.18
  -2 -28 -26    6.08    2.11
   2 -28 -26    4.28    1.79
  -2 -26 -28   12.13    2.03
  26  -2 -28   11.82    2.02
  28  -2 -26   12.26    2.30
 -28 -26   2    7.30    3.99
 -28 -26  -2    2.69    4.95
 -26 -28  -2   10.37    4.49
 -28 -26  -4    8.62    2.30
 -26 -28  -4    4.03    2.19
  -4 -28 -26   -1.23    2.04
   4 -28 -26    3.05    1.74
  -4 -26 -28    2.73    1.77
   4 -26 -28    7.33    2.08
  26  -4 -28   -1.03    1.99
 -26 -28   4   -2.23    2.64
 -28 -26  -4   26.73    6.04
 -26 -28  -4    9.97    5.56
 -28 -26  -6    6.63    2.24
 -26 -28  -6   -2.04    2.12
  -6 -28 -26    5.96    2.13
   6 -28 -26   -0.85    1.95
  -6 -26 -28    7.33    2.17
   6 -26 -28    1.73    2.03
  26  -6 -28   -0.80    2.02
 -28 -26  -6   19.76    5.76
 -26 -28  -6    2.60    7.01
 -28 -26  -8    3.73    2.20
 -26 -28  -8    1.11    2.35
  -8 -28 -26    0.31    2.02
  -8 -26 -28    4.06    2.04
 -26  -8 -28   -1.34    1.77
   8 -28 -26    2.07    2.04
   8 -26 -28    0.59    1.95
 -28 -26  -8   11.73    5.95
 -26 -28  -8   26.16    6.66
   1 -29   1    9.78    1.99
  -1 -29   1   13.10    2.10
  -1 -29  -1   15.58    2.22
   1 -29  -1   11.66    2.04
  -1  -1 -29   10.02    1.90
   1  -1 -29    9.88    1.87
  -1   1 -29    8.91    1.89
   1   1 -29    9.98    2.01
   1 -29   1   18.81    4.82
  -1 -29   1    9.24    4.56
   1 -29  -1   19.91    4.47
  -1 -29  -1    2.33    4.43
  -1 -29   3   10.89    2.16
   1 -29   3    8.60    2.08
   3 -29   1   15.81    2.14
  -3 -29   1   13.14    2.08
   3 -29  -1    5.74    1.92
  -3 -29  -1   15.25    2.26
  -1 -29  -3   15.06    2.06
   1 -29  -3    8.45    1.78
  -1  -3 -29   13.57    1.84
  -3  -1 -29   19.59    2.09
   1  -3 -29   17.87    2.05
  -3   1 -29   11.03    1.88
   3  -1 -29   12.29    1.77
  -1   3 -29   12.41    2.01
   3   1 -29   22.29    2.25
   1   3 -29   16.83    1.88
  -1 -29   3   11.59    4.14
   1 -29   3   25.04    4.55
   3 -29   1   11.00    4.56
  -3 -29   1    9.67    4.83
  -3 -29  -1   14.91    4.66
   3 -29  -1   17.16    4.67
  -1 -29  -3   10.33    3.95
   1 -29  -3   12.84    3.70
   3 -29   3   49.44    3.82
  -3 -29   3   56.01    3.49
  -3 -29  -3   51.71    3.34
   3 -29  -3   51.50    3.24
  -3  -3 -29   44.58    2.91
   3  -3 -29   53.29    3.20
  -3   3 -29   45.54    2.93
   3   3 -29   57.65    3.43
   3 -29   3   53.59    5.33
  -3 -29   3   48.61    5.49
  -3 -29  -3   41.29    5.00
   3 -29  -3   54.80    5.85
   1 -29   5   52.34    3.39
  -1 -29   5   54.30    3.41
   5 -29   1   55.26    3.43
  -5 -29   1   58.16    3.56
   5 -29  -1   55.83    3.40
  -5 -29  -1   54.61    3.42
   1 -29  -5   52.18    3.25
  -1 -29  -5   44.76    3.02
  -1  -5 -29   58.87    3.47
   1  -5 -29   45.26    3.00
  -5  -1 -29   52.84    3.21
  -5   1 -29   52.77    3.23
   5  -1 -29   55.31    3.29
   5   1 -29   54.35    3.26
  -1   5 -29   60.69    3.58
   1   5 -29   56.31    3.38
   1 -29   5   52.68    4.96
  -1 -29   5   60.31    5.41
   5 -29   1   51.96    5.76
  -5 -29   1   69.41    6.47
  -5 -29  -1   59.32    5.52
   5 -29  -1   55.28    5.30
  -3 -29   5  114.26    5.95
   5 -29   3  123.59    6.40
  -5 -29   3  124.32    6.35
   5 -29  -3  128.77    6.35
  -5 -29  -3  114.32    5.87
   3 -29  -5  112.95    5.69
  -3 -29  -5  114.14    5.71
  -3  -5 -29  111.88    5.50
  -5  -3 -29  114.24    5.67
   3  -5 -29  110.94    5.47
   5  -3 -29  121.89    5.97
  -5   3 -29  113.88    5.58
  -3   5 -29  110.93    5.46
   5   3 -29  118.67    5.98
 -29  -5  -3  128.11    7.16
 -29  -3  -5  119.20    6.93
   3 -29   5  111.31    6.89
  -3 -29   5  109.43    7.04
   5 -29   3   95.52    6.72
  -5 -29   3  119.35    7.91
  -5 -29  -3  108.63    7.38
   5 -29  -3  107.05    6.96
 -29  -5  -5  210.71   10.52
  -5 -29   5  207.94   10.11
  -5 -29  -5  194.70    9.32
   5 -29  -5  208.52   10.02
  -5  -5 -29  194.05    9.26
   5  -5 -29  214.73   10.22
  -5   5 -29  205.16    9.86
 -29  -5  -5  195.82   11.14
   5 -29   5  176.18    9.57
  -5 -29   5  180.63   10.04
   7 -29   1   50.83    3.23
  -7 -29   1   49.91    3.40
   7 -29  -1   57.45    3.56
  -7 -29  -1   50.24    3.29
   1 -29  -7   49.76    3.10
  -1 -29  -7   51.46    3.63
  -1  -7 -29   56.17    3.39
   1  -7 -29   53.95    3.32
  -7  -1 -29   51.25    3.21
  -7   1 -29   49.42    3.16
   7  -1 -29   54.48    3.30
   7   1 -29   48.08    2.96
  -1 -29   7   46.41    4.30
   1 -29   7   52.74    4.33
 -29  -1  -7   37.63    4.24
  -7 -29   1   62.13    6.42
   7 -29   1   51.73    5.48
  -7 -29  -1   56.02    6.11
   7 -29  -1   45.95    4.95
   7 -29   3  105.56    5.71
  -7 -29   3  104.77    5.57
 -29  -3  -7  114.65    6.13
   7 -29  -3  106.39    5.59
  -7 -29  -3  114.08    5.90
   3 -29  -7  114.35    5.97
  -3 -29  -7  120.85    6.12
  -3  -7 -29  102.88    5.23
  -7  -3 -29  108.78    5.57
   3  -7 -29  112.31    5.68
  -7   3 -29  103.91    5.35
   7  -3 -29  114.58    5.74
  -3   7 -29   96.56    5.18
   7   3 -29  106.60    5.38
   3 -29   7   93.03    5.42
  -3 -29   7  104.59    6.51
 -29  -7  -3  104.80    6.54
 -29  -3  -7  113.90    7.58
   7 -29   3  112.83    7.89
  -7 -29   3   99.35    7.35
  -7 -29  -3  114.21    7.58
   7 -29  -3  103.62    6.83
  -7 -29   5  186.26    9.05
 -29  -7  -5  205.10   10.42
 -29  -5  -7  194.67    9.85
   7 -29  -5  198.26    9.55
  -7 -29  -5  193.96    9.50
  -5 -29  -7  182.46    8.69
   5 -29  -7  192.58    9.36
  -5  -7 -29  200.67    9.61
  -7  -5 -29  185.91    9.04
   5  -7 -29  194.56    9.38
   7  -5 -29  184.96    8.87
  -7   5 -29  181.13    8.76
  -5   7 -29  180.58    8.70
  -5 -29   7  175.95    9.47
   7 -29   5  168.23    9.24
 -29  -7  -5  174.63    9.93
  -7 -29   5  180.30    9.93
 -29  -5  -7  162.40    9.99
  -7 -29  -5  187.20   10.71
 -29  -7  -7  187.54    9.33
  -7 -29  -7  186.88    9.04
   7 -29  -7  191.20    9.25
  -7  -7 -29  173.23    8.37
   7  -7 -29  170.06    8.33
  -7   7 -29  186.51    9.06
  -7 -29   7  148.51    8.32
 -29  -7  -7  176.65   10.59
   9 -29   1   13.65    2.21
  -9 -29   1   13.62    2.05
   9 -29  -1   12.69    2.00
  -9 -29  -1   11.72    2.14
  -1 -29  -9   18.94    2.19
   1 -29  -9    9.16    1.93
  -1  -9 -29   12.83    1.86
   1  -9 -29   16.31    1.92
  -9  -1 -29   17.27    2.09
  -9   1 -29   14.56    1.99
   9  -1 -29   17.07    2.06
   9   1 -29   13.16    1.98
 -29  -9  -1    6.81    3.12
 -29   1  -9    7.56    3.43
 -29  -1  -9   17.07    4.54
   9 -29   1    8.85    4.27
  -9 -29   1   24.04    5.75
  -9 -29  -1    7.91    5.17
   9 -29  -1   15.73    4.44
   9 -29   3   43.15    3.07
 -29  -9  -3   43.08    3.07
  -9 -29   3   48.95    3.38
 -29  -3  -9   38.69    2.75
   9 -29  -3   46.87    3.07
  -9 -29  -3   43.32    3.11
  -3 -29  -9   40.14    2.75
   3 -29  -9   35.70    2.64
  -3  -9 -29   39.99    2.80
  -9  -3 -29   39.05    2.65
   3  -9 -29   40.55    2.84
  -9   3 -29   42.92    2.81
   9  -3 -29   37.58    2.55
 -29  -9  -3   43.31    4.72
   9 -29   3   53.00    4.85
  -9 -29   3   39.00    5.66
 -29  -3  -9   52.24    6.56
  -9 -29  -3   36.52    5.42
   9 -29  -3   36.35    4.68
  -9 -29   5   92.94    5.11
 -29  -9  -5   89.02    5.00
 -29  -5  -9   92.96    5.16
  -9 -29  -5   93.56    4.92
   9 -29  -5  100.47    5.29
  -5 -29  -9   92.75    4.92
   5 -29  -9  100.12    5.30
  -5  -9 -29   87.08    4.62
  -9  -5 -29   97.22    5.11
   5  -9 -29   89.44    4.74
   9  -5 -29   93.81    5.00
  -9   5 -29   95.66    5.01
  -5   9 -29   92.27    4.81
   9 -29   5   79.71    5.02
  -9 -29   5   79.52    6.03
 -29  -9  -5   90.63    6.82
 -29  -5  -9   92.39    7.38
  -9 -29  -5   93.02    7.15
 -29  -9  -7   87.50    4.49
 -29  -7  -9   98.64    4.94
  -9 -29  -7   91.87    4.37
   9 -29  -7   90.67    4.47
  -7 -29  -9   93.42    4.43
   7 -29  -9   81.00    4.05
  -7  -9 -29   84.28    3.98
  -9  -7 -29   85.60    4.07
   7  -9 -29   71.73    3.62
   9  -7 -29   80.43    3.87
  -9   7 -29   84.46    3.98
  -7   9 -29   77.03    3.82
  -9 -29   7   79.23    5.47
 -29  -9  -7   89.17    6.83
 -29  -7  -9   91.77    6.58
 -29  -9  -9   32.09    2.38
  -9 -29  -9   35.09    2.49
   9 -29  -9   31.59    2.43
  -9  -9 -29   22.34    2.25
   9  -9 -29   29.81    2.30
  -9   9 -29   22.91    2.36
 -29  -9  -9   26.95    5.68
  11 -29   1    3.63    1.89
 -11 -29   1    6.82    1.86
  11 -29  -1    2.58    1.97
 -11 -29  -1    3.21    1.97
   1 -29 -11    5.44    2.01
  -1 -29 -11    4.96    1.87
  -1 -11 -29    6.58    1.86
   1 -11 -29    4.43    1.84
 -11  -1 -29    3.77    1.83
 -11   1 -29    3.14    1.62
  11  -1 -29    0.77    1.89
  11   1 -29    4.91    1.81
 -29 -11  -1    5.50    3.32
 -29   1 -11    5.10    4.31
 -29  -1 -11    3.26    4.58
  11 -29   1   -0.26    3.88
 -11 -29   1   -8.03    4.24
 -11 -29  -1   -7.69    4.45
  11 -29  -1    0.61    3.68
 -29 -11  -3    2.28    1.94
 -11 -29   3    1.44    2.15
  11 -29  -3    6.56    2.41
 -11 -29  -3   11.06    2.08
  -3 -29 -11    2.85    1.70
   3 -29 -11    9.31    1.90
  -3 -11 -29    9.68    1.92
   3 -11 -29    3.49    1.93
 -11  -3 -29    7.11    1.86
 -11   3 -29    7.88    1.81
  11  -3 -29    7.29    1.75
  11 -29   3    7.63    3.95
 -29 -11  -3    7.76    4.04
 -11 -29   3   -6.71    4.60
 -29  -3 -11    0.38    4.64
 -11 -29  -3   13.04    4.41
 -11 -29   5   37.01    2.88
 -29 -11  -5   34.02    2.55
 -11 -29  -5   35.81    2.68
  11 -29  -5   42.62    3.12
 -29  -5 -11   33.71    2.41
  -5 -29 -11   26.67    2.37
   5 -29 -11   28.22    2.35
  -5 -11 -29   35.77    2.40
 -11  -5 -29   30.24    2.47
   5 -11 -29   26.32    2.14
 -11   5 -29   31.95    2.28
  11  -5 -29   31.65    2.33
 -11 -29   5   20.32    4.63
 -29 -11  -5   31.38    5.18
 -29  -5 -11   37.57    6.31
 -11 -29  -5   29.64    4.78
 -29 -11  -7   29.74    2.60
 -11 -29  -7   20.55    2.12
 -29  -7 -11   25.76    2.33
  11 -29  -7   31.09    2.60
  -7 -29 -11   32.50    2.60
   7 -29 -11   31.89    2.48
  -7 -11 -29   22.80    2.35
 -11  -7 -29   29.85    2.38
   7 -11 -29   30.91    2.41
  11  -7 -29   33.14    2.24
 -11   7 -29   27.62    2.38
 -11 -29   7   33.91    3.79
 -29 -11  -7   37.97    5.78
 -29  -7 -11   28.57    5.06
 -11 -29  -7   36.80    5.09
 -29 -11  -9    8.09    2.10
 -29  -9 -11    6.15    1.96
 -11 -29  -9   -4.42    2.09
  11 -29  -9    8.38    1.85
  -9 -29 -11   -0.34    2.03
   9 -29 -11   -1.15    1.90
  -9 -11 -29    6.24    1.74
 -11  -9 -29    1.16    2.02
   9 -11 -29    3.09    2.00
  11  -9 -29    1.22    1.59
 -11   9 -29    5.54    1.97
  -9  11 -29    1.17    1.84
 -29 -11  -9    7.12    5.57
 -29  -9 -11   -8.52    5.28
 -29 -11 -11    2.49    1.81
 -11 -29 -11    3.92    1.98
  11 -29 -11    3.36    1.80
 -11 -11 -29    6.32    1.89
  11 -11 -29    6.21    1.84
 -11  11 -29    5.95    1.73
 -29 -11 -11    2.32    4.74
  13 -29   1   -0.43    1.83
  13 -29  -1    5.34    1.87
 -13 -29   1    4.10    2.10
 -13 -29  -1   -5.76    2.07
   1 -29 -13    7.01    1.71
  -1 -29 -13    5.29    1.69
  -1 -13 -29    2.89    1.81
   1 -13 -29    2.95    1.95
 -13  -1 -29    4.11    1.79
 -13   1 -29    3.97    1.85
  13  -1 -29   -0.41    1.49
  13   1 -29    2.61    1.72
 -29 -13   1   -1.44    3.02
 -29 -13  -1   -1.45    3.32
 -13 -29   1  -12.31    5.07
 -13 -29  -1   -9.16    4.80
 -29  -1 -13    0.09    5.03
 -13 -29   3   -1.16    2.13
 -29 -13  -3    8.93    1.95
  13 -29  -3    6.58    2.00
 -13 -29  -3    3.95    2.05
  -3 -29 -13    5.16    1.91
   3 -29 -13    3.14    1.85
  -3 -13 -29    4.07    1.88
   3 -13 -29    8.57    1.87
 -13  -3 -29    6.35    1.95
 -13   3 -29    7.42    1.85
  13  -3 -29    6.43    1.76
 -13 -29   3    1.96    4.62
 -29  -3 -13    2.33    4.87
 -13 -29  -3   -5.77    4.92
  13 -29  -3    4.33    3.86
 -13 -29   5   18.92    2.55
 -29 -13  -5   23.56    2.39
  13 -29  -5   26.51    2.39
 -13 -29  -5   21.93    2.25
 -29  -5 -13   29.84    2.55
  -5 -29 -13   14.79    2.15
   5 -29 -13   27.17    2.32
  -5 -13 -29   31.35    2.48
 -13  -5 -29   24.25    2.37
   5 -13 -29   23.67    2.28
 -13   5 -29   27.46    2.38
  13  -5 -29   19.64    2.15
 -13 -29   5   23.81    4.01
 -29 -13  -5   21.76    5.29
 -29  -5 -13   27.14    5.93
 -13 -29  -5   12.57    4.52
 -29 -13  -7   25.32    2.48
 -13 -29  -7   24.69    2.50
  13 -29  -7   22.30    2.25
 -29  -7 -13   21.70    2.17
  -7 -29 -13   20.82    2.32
   7 -29 -13   24.25    2.37
  -7 -13 -29   23.57    2.38
 -13  -7 -29   16.89    2.17
   7 -13 -29   23.22    2.14
  13  -7 -29   19.39    1.97
 -13   7 -29   18.28    2.16
 -13 -29   7   18.41    3.28
 -29 -13  -7   27.92    5.58
 -29  -7 -13   20.35    5.51
 -13 -29  -7   17.29    5.58
 -29 -13  -9    7.13    1.89
 -13 -29  -9   -1.57    2.03
 -29  -9 -13    2.17    1.91
  13 -29  -9    2.80    1.80
  -9 -29 -13   -0.74    1.91
   9 -29 -13    4.97    1.93
  -9 -13 -29    5.15    1.88
 -13  -9 -29   -0.50    1.95
   9 -13 -29    3.03    1.81
  13  -9 -29   -1.55    1.79
 -13   9 -29    4.58    1.89
 -29 -13  -9    9.26    5.75
 -29  -9 -13   -0.04    5.18
 -29 -13 -11    8.33    1.95
 -29 -11 -13    0.06    1.76
 -13 -29 -11    3.71    1.79
 -11 -29 -13    0.38    2.03
  13 -29 -11    3.01    1.60
  11 -29 -13    2.67    1.78
 -13 -11 -29    3.57    1.73
 -11 -13 -29    8.97    1.85
  11 -13 -29    3.78    1.76
  13 -11 -29   -2.27    1.75
 -13  11 -29    3.06    1.89
 -11  13 -29    2.79    1.69
 -29 -13 -11    0.80    5.32
 -29 -11 -13    2.44    5.50
 -29 -13 -13    3.97    1.79
 -13 -29 -13    9.15    2.63
  13 -29 -13    3.36    1.94
 -13 -13 -29    9.07    2.42
  13 -13 -29    0.64    1.84
 -13  13 -29    5.99    1.99
 -29 -13 -13   -6.99    4.65
 -29 -15  -1    7.42    1.87
  15 -29  -1    9.79    1.98
 -15 -29   1    7.79    2.16
 -15 -29  -1    9.21    2.15
  -1 -29 -15   11.52    2.21
   1 -29 -15    2.68    1.87
   1 -15 -29   10.77    1.99
 -15  -1 -29    4.99    1.85
 -15   1 -29   14.42    2.01
  15  -1 -29   10.80    1.73
  15   1 -29    6.61    1.89
 -29 -15   1   20.31    3.51
 -29 -15  -1    6.61    4.27
 -15 -29   1   16.89    4.97
 -15 -29  -1   18.88    5.25
 -29  -1 -15    3.90    4.73
 -15 -29   3   29.80    2.79
 -29 -15  -3   29.65    2.63
  15 -29  -3   23.87    2.48
 -15 -29  -3   27.02    2.57
  -3 -29 -15   35.75    2.71
   3 -29 -15   19.66    2.18
  -3 -15 -29   24.89    2.22
   3 -15 -29   22.73    2.15
 -15  -3 -29   30.21    2.58
 -15   3 -29   20.88    2.24
  15  -3 -29   27.40    2.33
 -29 -15  -3   26.49    4.58
 -15 -29   3   26.86    5.11
 -15 -29  -3   18.71    5.49
 -29  -3 -15   25.41    5.27
 -15 -29   5   56.39    3.70
 -29 -15  -5   55.27    3.61
  15 -29  -5   62.93    4.21
 -15 -29  -5   55.49    3.52
 -29  -5 -15   52.16    4.22
  -5 -29 -15   58.33    4.32
   5 -29 -15   55.78    3.51
  -5 -15 -29   52.95    3.30
 -15  -5 -29   60.42    4.46
   5 -15 -29   61.21    3.70
 -15   5 -29   52.69    3.91
  15  -5 -29   55.26    3.42
 -15 -29   5   48.15    4.98
 -29 -15  -5   44.61    5.90
 -15 -29  -5   46.70    6.08
 -29  -5 -15   65.87    7.05
 -29 -15  -7   56.45    4.40
 -15 -29  -7   52.08    4.08
  15 -29  -7   51.41    4.02
 -29  -7 -15   46.79    3.68
  -7 -29 -15   59.20    4.40
   7 -29 -15   53.22    4.07
  -7 -15 -29   49.64    3.89
 -15  -7 -29   44.15    3.45
   7 -15 -29   49.44    3.79
 -15   7 -29   51.58    3.83
  15  -7 -29   56.60    4.15
 -15 -29   7   57.10    4.90
 -29 -15  -7   50.31    6.22
 -29  -7 -15   45.58    5.98
 -15 -29  -7   62.75    6.39
 -29 -15  -9   16.44    2.34
 -15 -29  -9   20.47    2.33
  15 -29  -9   17.17    2.20
 -29  -9 -15   18.99    2.29
  -9 -29 -15   15.68    2.25
   9 -29 -15   20.28    2.56
  -9 -15 -29   15.67    2.37
 -15  -9 -29   13.44    1.99
   9 -15 -29   16.30    2.24
  15  -9 -29   15.43    1.97
 -15   9 -29   19.20    2.33
 -29 -15  -9   26.15    6.06
 -29  -9 -15   12.32    5.42
 -15 -29  -9   22.16    4.72
 -29 -15 -11    0.45    1.91
 -15 -29 -11    4.40    2.15
  15 -29 -11    2.88    2.07
 -29 -11 -15   -1.37    1.82
 -11 -29 -15    5.29    2.28
  11 -29 -15    0.85    1.91
 -11 -15 -29    0.57    2.07
 -15 -11 -29    1.47    1.71
  11 -15 -29   -2.54    1.84
  15 -11 -29    1.97    1.88
 -15  11 -29    1.36    1.93
 -11  15 -29    1.78    1.74
 -29 -15 -11   11.02    5.79
 -29 -11 -15   21.29    6.03
 -29 -15 -13    6.16    2.27
 -15 -29 -13    2.91    2.23
 -29 -13 -15    2.92    1.91
 -13 -29 -15    2.02    1.97
  13 -29 -15    1.00    1.83
 -13 -15 -29    4.05    1.91
 -15 -13 -29    3.62    2.09
  13 -15 -29    6.12    2.20
  15 -13 -29    1.99    1.83
 -15  13 -29    7.62    2.36
 -13  15 -29    5.10    1.95
 -29 -15 -13    7.13    5.78
 -29 -13 -15    6.31    5.45
 -29 -15 -15    4.17    2.15
 -15 -29 -15    5.34    2.37
  15 -29 -15   10.31    3.12
 -15 -15 -29    7.22    2.57
  15 -15 -29    6.88    2.33
 -15  15 -29    9.21    2.81
 -29 -15 -15   11.28    5.56
 -29 -17  -1   47.79    3.97
 -17 -29   1   43.20    3.67
 -17 -29  -1   45.56    3.66
   1 -29 -17   35.22    3.12
  -1 -29 -17   36.35    3.15
  -1 -17 -29   44.06    3.56
   1 -17 -29   40.10    3.34
 -17  -1 -29   40.36    3.38
 -17   1 -29   36.43    3.13
  17  -1 -29   47.14    3.68
  17   1 -29   45.47    3.56
 -29 -17   1   42.91    4.81
 -29 -17  -1   38.54    5.15
 -17 -29   1   26.13    5.10
 -17 -29  -1   26.54    5.84
 -17 -29   3   68.12    5.09
 -29 -17  -3   74.74    5.46
 -17 -29  -3   63.93    4.64
  -3 -29 -17   55.48    4.10
   3 -29 -17   68.94    4.93
  -3 -17 -29   64.94    4.71
   3 -17 -29   73.17    5.20
 -17  -3 -29   66.45    4.78
 -17   3 -29   66.78    4.85
  17  -3 -29   61.44    4.44
 -29 -17  -3   56.26    6.73
 -17 -29   3   67.53    6.71
 -17 -29  -3   65.50    7.33
 -29  -3 -17   73.33    8.09
 -29 -17  -5  110.99    7.53
 -17 -29  -5  111.07    7.44
  -5 -29 -17  107.89    7.31
   5 -29 -17  104.03    6.93
  -5 -17 -29   87.05    6.08
 -17  -5 -29   94.91    6.39
   5 -17 -29   96.38    6.48
 -17   5 -29  112.89    7.65
  17  -5 -29  101.00    6.87
 -17 -29   5  103.47    8.10
 -29 -17  -5   83.41    7.64
 -17 -29  -5  101.88    8.87
 -29  -5 -17   90.84    8.49
 -29 -17  -7   95.31    6.40
 -17 -29  -7   92.91    6.13
 -29  -7 -17   92.01    6.21
  -7 -29 -17   92.69    5.99
   7 -29 -17   92.31    6.08
  -7 -17 -29   93.32    6.01
 -17  -7 -29   94.21    6.21
   7 -17 -29   95.15    6.15
 -17   7 -29  105.17    6.95
  17  -7 -29   90.16    5.99
 -17 -29   7   93.01    6.88
 -29 -17  -7   76.75    7.66
 -17 -29  -7   98.73    8.57
 -29  -7 -17   98.05    8.75
 -29 -17  -9   52.75    3.96
 -17 -29  -9   44.28    3.57
 -29  -9 -17   37.58    3.15
  -9 -29 -17   57.11    4.04
   9 -29 -17   52.18    4.03
  -9 -17 -29   47.00    3.62
 -17  -9 -29   49.14    3.68
   9 -17 -29   49.69    3.61
  17  -9 -29   41.85    3.31
 -17   9 -29   47.76    3.68
 -29 -17  -9   49.26    6.77
 -17 -29  -9   42.86    5.57
 -29  -9 -17   35.75    6.07
 -29 -17 -11   15.68    4.17
 -17 -29 -11   16.32    4.46
 -29 -11 -17   19.39    2.55
 -11 -29 -17   13.23    3.80
  11 -29 -17   16.23    4.26
 -11 -17 -29   18.87    3.65
 -17 -11 -29   18.55    5.55
  11 -17 -29   19.80    2.30
  17 -11 -29   19.59    2.35
 -17  11 -29   18.03    5.42
 -29 -17 -11    3.28    5.75
 -17 -29 -11   -3.37    4.96
 -29 -11 -17   17.11    6.82
 -29 -17 -13   14.63    4.20
 -17 -29 -13   10.03    3.17
 -29 -13 -17    8.63    2.86
 -13 -29 -17   13.25    3.78
  13 -29 -17   10.03    3.17
 -13 -17 -29   10.05    3.16
 -17 -13 -29   16.15    4.37
  13 -17 -29   13.73    3.85
  17 -13 -29   10.62    3.28
 -17  13 -29   13.83    3.89
 -13  17 -29   14.20    3.97
 -29 -17 -13    3.06    7.67
 -29 -13 -17   13.51    5.85
 -29 -17 -15   22.67    2.96
 -17 -29 -15   25.32    2.92
 -29 -15 -17   23.20    3.00
 -15 -29 -17   27.02    3.18
  15 -29 -17   24.54    2.94
 -15 -17 -29   20.54    2.58
 -17 -15 -29   19.45    2.63
  15 -17 -29   24.67    2.95
  17 -15 -29   22.52    2.84
 -17  15 -29   16.54    5.14
 -15  17 -29   22.28    2.94
 -29 -17 -15   23.38    6.07
 -29 -15 -17   29.45    6.51
 -29 -17 -17   36.97    4.08
 -17 -29 -17   34.42    3.76
 -17 -17 -29   29.67    3.40
  17 -17 -29   43.86    4.38
 -29 -17 -17   38.57    7.00
 -29 -19  -1   50.73    4.05
 -19 -29   1   50.85    4.09
 -19 -29  -1   48.83    3.87
   1 -29 -19   44.62    4.63
  -1 -29 -19   36.14    3.14
  -1 -19 -29   46.86    3.64
   1 -19 -29   44.72    3.51
 -19  -1 -29   43.84    3.47
 -19   1 -29   42.13    3.55
  19  -1 -29   38.90    3.17
  19   1 -29   48.80    3.57
 -29 -19   1   38.24    4.68
 -29 -19  -1   41.01    5.51
 -19 -29   1   52.53    6.24
 -19 -29  -1   48.80    6.48
 -19 -29   3   68.45    5.05
 -29 -19  -3   69.96    4.96
 -19 -29  -3   65.53    4.58
  -3 -29 -19   56.14    4.03
   3 -29 -19   62.32    4.33
  -3 -19 -29   67.70    4.69
   3 -19 -29   62.36    4.30
 -19  -3 -29   60.40    4.34
 -19   3 -29   68.67    4.77
  19  -3 -29   65.00    4.56
 -19 -29   3   59.64    6.27
 -19 -29  -3   39.16    6.25
 -29 -19  -5   83.43    5.56
 -19 -29  -5  107.42    6.94
  -5 -29 -19   91.43    6.07
   5 -29 -19  100.58    6.51
  -5 -19 -29   99.02    6.41
   5 -19 -29   90.02    5.82
 -19  -5 -29   99.82    6.82
 -19   5 -29   80.40    5.51
  19  -5 -29   86.85    5.78
 -19 -29   5   75.20    6.36
 -19 -29  -5   85.20    9.47
 -29 -19  -7   81.92    5.60
 -19 -29  -7   83.62    5.88
 -29  -7 -19   82.21    5.76
  -7 -29 -19   79.74    5.41
   7 -29 -19   76.56    5.22
  -7 -19 -29   76.68    5.15
 -19  -7 -29   77.88    5.31
   7 -19 -29   83.39    5.57
 -19   7 -29   76.93    5.57
  19  -7 -29   88.36    5.99
 -19 -29   7   89.50    6.53
 -29 -19  -7   80.90    7.89
 -19 -29  -7  112.52    9.38
 -29 -19  -9   42.89    3.51
 -19 -29  -9   45.40    3.69
 -29  -9 -19   37.39    3.33
  -9 -29 -19   37.22    3.25
   9 -29 -19   40.80    3.36
  -9 -19 -29   39.31    3.31
 -19  -9 -29   45.62    3.60
   9 -19 -29   41.20    3.31
 -19   9 -29   46.73    3.67
  19  -9 -29   43.38    3.48
 -29 -19  -9   41.89    6.78
 -19 -29  -9   62.55    6.93
 -29 -19 -11   19.65    2.78
 -19 -29 -11   20.18    2.63
 -29 -11 -19   16.00    4.91
 -11 -29 -19   19.42    2.71
  11 -29 -19   17.01    5.09
 -11 -19 -29   16.33    5.03
 -19 -11 -29   16.75    5.12
  11 -19 -29   20.75    3.56
  19 -11 -29   17.65    4.02
 -19  11 -29   18.32    2.66
 -29 -19 -11   21.03    6.28
 -19 -29 -11   10.25    6.03
 -29 -19 -13    6.19    2.71
 -19 -29 -13   12.90    4.05
 -29 -13 -19   14.17    4.45
 -13 -29 -19   12.97    4.21
  13 -29 -19    7.26    3.09
 -13 -19 -29   12.40    4.01
 -19 -13 -29   10.27    3.39
  13 -19 -29   11.54    3.77
  19 -13 -29    8.68    3.15
 -29 -19 -13   11.60    6.60
 -29 -19 -15   21.67    2.88
 -19 -29 -15   25.54    3.00
 -29 -15 -19   22.31    2.75
 -15 -29 -19   25.57    3.12
  15 -29 -19   19.25    4.33
 -19 -15 -29   13.41    3.37
 -15 -19 -29   20.88    2.83
  15 -19 -29   15.92    3.58
  19 -15 -29   26.11    3.11
 -15  19 -29   20.33    2.70
 -29 -19 -15   13.06    6.11
 -29 -19 -17   28.57    3.07
 -19 -29 -17   38.60    3.62
 -29 -17 -19   35.51    3.46
 -17 -29 -19   39.98    3.74
 -19 -17 -29   35.23    3.38
 -17 -19 -29   26.74    2.98
  17 -19 -29   38.17    3.55
  19 -17 -29   40.25    3.67
 -29 -19 -17   36.41    6.66
 -29 -21  -1    7.79    2.96
 -21 -29   1    7.84    3.02
 -21 -29  -1    8.78    3.15
   1 -29 -21   -0.34    2.05
  -1 -29 -21    4.55    2.28
   1 -21 -29    8.60    2.88
 -21  -1 -29    3.56    2.15
 -21   1 -29    5.86    2.44
  21  -1 -29   11.24    3.31
  21   1 -29   12.26    3.51
  29  -1 -21    8.55    3.06
 -29 -21   1   12.88    4.71
 -29 -21  -1   -3.00    4.48
 -21 -29   1  -10.21    4.73
 -21 -29  -1   10.73    5.99
 -21 -29   3   18.78    2.50
 -29 -21  -3   24.68    2.79
 -21 -29  -3   15.66    4.25
  -3 -29 -21   11.74    3.37
   3 -29 -21   18.26    5.49
  -3 -21 -29   14.57    4.08
   3 -21 -29   17.52    5.31
 -21  -3 -29   16.29    4.43
 -21   3 -29   13.11    3.78
  21  -3 -29   15.51    4.23
 -21 -29   3    6.76    4.54
 -29 -21  -3   32.13    5.49
 -21 -29  -3   16.47    6.97
 -29 -21  -5   27.26    2.70
 -21 -29  -5   38.75    3.34
  -5 -29 -21   33.70    3.10
   5 -29 -21   26.27    2.70
  -5 -21 -29   38.73    3.27
 -21  -5 -29   33.94    3.07
   5 -21 -29   35.77    3.09
 -21   5 -29   31.17    2.94
  21  -5 -29   30.77    2.87
 -21 -29   5   29.54    4.37
 -29 -21  -5   26.35    5.55
 -21 -29  -5   21.30    5.26
 -29 -21  -7   29.13    3.28
 -21 -29  -7   22.41    3.07
  -7 -29 -21   32.52    3.44
   7 -29 -21   34.00    3.66
  -7 -21 -29   23.04    2.95
 -21  -7 -29   34.77    3.79
   7 -21 -29   20.78    2.72
 -21   7 -29   32.40    3.66
  21  -7 -29   34.09    3.64
 -29 -21  -7   35.05    6.76
 -21 -29  -7   28.95    6.57
 -29 -21  -9   12.62    4.14
 -21 -29  -9    9.86    3.52
 -29  -9 -21    6.72    2.88
  -9 -29 -21    5.57    2.60
   9 -29 -21    7.96    3.01
  -9 -21 -29   18.33    2.65
 -21  -9 -29   15.67    4.83
   9 -21 -29   11.92    3.85
  21  -9 -29    8.55    3.15
 -29 -21  -9    0.46    6.22
 -21 -29  -9    0.79    5.67
 -29 -21 -11   -0.83    2.16
 -21 -29 -11    3.03    1.98
 -29 -11 -21    0.62    2.06
 -11 -29 -21   -2.16    2.15
  11 -29 -21    0.73    2.17
 -11 -21 -29    3.07    1.94
 -21 -11 -29   -1.23    2.05
  11 -21 -29   -0.37    2.01
  21 -11 -29    1.86    1.85
 -29 -21 -11   -0.28    5.77
 -21 -29 -11    8.98    5.76
 -21 -29 -13    6.24    2.49
 -29 -13 -21    0.67    2.13
 -13 -29 -21    7.52    2.41
  13 -29 -21    3.27    2.12
 -13 -21 -29    6.70    2.46
 -21 -13 -29    3.21    2.12
  13 -21 -29   -4.48    1.99
  21 -13 -29    1.69    1.98
 -29 -21 -13    2.97    5.97
 -21 -29 -13    2.99    5.40
 -29 -21 -15    6.21    2.19
 -21 -29 -15   13.12    2.40
 -29 -15 -21    4.24    2.12
 -15 -29 -21    4.49    2.18
  15 -29 -21    6.03    2.10
 -15 -21 -29    4.31    2.18
 -21 -15 -29    1.89    2.08
  15 -21 -29    2.03    1.76
  21 -15 -29    5.84    2.05
 -29 -21 -15    8.94    5.35
 -29 -23  -1    0.65    2.42
 -23 -29   1   -0.87    2.39
 -23 -29  -1    1.97    2.41
  -1 -29 -23   -5.40    2.05
   1 -29 -23    3.00    2.22
  -1 -23 -29   -1.24    2.08
   1 -23 -29    6.01    2.61
 -23  -1 -29    2.48    2.09
 -23   1 -29    3.65    2.42
  23  -1 -29   -0.91    2.02
  29  -1 -23    2.17    2.09
  23   1 -29    3.70    2.24
 -29 -23   1    6.33    4.35
 -29 -23  -1    1.70    4.56
 -23 -29   1    1.52    4.48
 -23 -29  -1   -9.94    5.36
 -29 -23  -3   -3.22    2.20
 -23 -29  -3   -1.21    2.30
  -3 -29 -23   -7.92    2.32
   3 -29 -23   -0.14    2.15
  -3 -23 -29   -1.11    2.10
   3 -23 -29   -1.45    2.04
 -23  -3 -29    4.05    2.27
 -23   3 -29   -2.82    2.25
  23  -3 -29   -3.14    2.03
 -29 -23   3    5.37    3.44
 -23 -29   3    8.00    4.86
 -29 -23  -3    3.05    4.47
 -23 -29  -3   -2.87    5.95
 -29 -23  -5    6.34    2.28
 -23 -29  -5    4.40    2.40
  -5 -29 -23    5.66    2.12
   5 -29 -23   11.40    3.07
  -5 -23 -29    2.67    1.84
 -23  -5 -29    4.24    2.17
   5 -23 -29    1.54    1.97
  23  -5 -29    7.43    2.48
 -23 -29   5    0.82    3.51
 -29 -23  -5   -7.57    5.48
 -23 -29  -5   11.62    5.41
 -29 -23  -7    3.54    2.23
 -23 -29  -7    1.48    2.26
  -7 -29 -23   -4.30    2.18
   7 -29 -23    4.20    2.24
  -7 -23 -29    3.76    2.25
 -23  -7 -29    7.93    2.36
   7 -23 -29    4.88    2.19
  23  -7 -29   11.56    3.14
 -29 -23  -7   13.02    5.93
 -23 -29  -7    8.95    5.91
 -29 -23  -9    1.71    2.18
 -23 -29  -9   -0.57    2.21
  -9 -29 -23   -9.46    2.32
  -9 -23 -29   -3.07    2.06
 -23  -9 -29   -0.80    2.05
   9 -23 -29   -0.78    2.00
  23  -9 -29    1.98    2.01
 -29 -23  -9   -7.11    5.81
 -23 -29  -9   -4.46    5.58
 -29 -23 -11   -5.41    2.11
 -23 -29 -11    4.08    1.88
 -29 -11 -23    4.57    2.07
 -11 -29 -23   -3.06    2.08
  11 -29 -23    4.43    1.83
 -11 -23 -29   -0.97    2.06
 -23 -11 -29    4.51    1.83
  11 -23 -29    1.53    2.17
  23 -11 -29    1.33    1.96
 -29 -23 -11   12.20    6.13
 -23 -29 -11   -2.40    5.88
 -25 -29   1    6.45    2.42
 -29 -25  -1    9.86    2.48
 -25 -29  -1   10.59    2.43
   1 -29 -25    2.01    1.98
  -1 -29 -25    7.38    2.11
  -1 -25 -29    6.82    1.87
   1 -25 -29    5.03    1.79
  25  -1 -29    4.71    2.06
  25   1 -29   -1.55    1.98
  29   1 -25    2.44    2.07
 -29 -25   1   12.32    4.14
 -25 -29   1    7.31    3.88
 -29 -25  -1   -0.30    4.73
 -25 -29  -1   13.56    5.43
 -29 -25  -3   -1.25    1.88
 -25 -29  -3    2.19    2.23
  -3 -29 -25    0.16    1.76
   3 -29 -25    0.64    1.74
  -3 -25 -29    5.80    1.82
   3 -25 -29    0.75    1.80
 -25  -3 -29    0.63    2.04
  25  -3 -29    6.85    2.04
 -29 -25   3   13.36    3.37
 -25 -29   3    5.79    4.36
 -29 -25  -3  -11.49    5.00
 -25 -29  -3    3.16    5.83
 -29 -25  -5    4.22    2.25
 -25 -29  -5    2.17    2.14
  -5 -29 -25    0.43    1.79
   5 -29 -25    2.34    1.99
  -5 -25 -29    0.42    2.40
   5 -25 -29   -2.97    1.91
 -25  -5 -29   -3.48    2.08
  25  -5 -29   -0.54    1.96
 -29 -25  -5    0.21    5.57
 -25 -29  -5    7.75    5.65
 -29 -25  -7    1.39    1.93
 -25 -29  -7    0.65    2.13
  -7 -29 -25    4.42    1.80
   7 -29 -25   -1.20    2.24
  -7 -25 -29    2.79    2.06
 -25  -7 -29    2.48    1.83
   7 -25 -29   -2.51    1.71
  25  -7 -29    1.54    2.03
 -29 -25  -7   -8.44    6.23
 -25 -29  -7    5.94    6.62
   0 -30   0   21.10    2.41
   0   0 -30   21.00    2.21
   0 -30   0   13.10    4.07
   0 -30   2   23.85    2.44
  -2 -30   0   20.91    2.35
   2 -30   0   21.78    2.42
   0 -30  -2   20.86    2.30
   0  -2 -30   24.28    2.31
  -2   0 -30   26.26    2.33
   2   0 -30   29.36    2.40
   0   2 -30   21.88    2.09
   0 -30   2   39.73    5.15
  -2 -30   0   30.64    6.13
   2 -30   0   13.53    4.38
   0 -30  -2   35.40    4.82
   2 -30   2   38.28    2.88
  -2 -30   2   39.78    3.01
  -2 -30  -2   35.34    2.70
   2 -30  -2   35.45    2.69
  -2  -2 -30   46.39    2.92
   2  -2 -30   38.45    2.73
  -2   2 -30   43.76    2.90
   2   2 -30   40.17    2.78
   2 -30   2   33.08    4.77
  -2 -30   2   37.50    5.43
  -2 -30  -2   55.19    5.57
   2 -30  -2   49.04    5.44
   0 -30   4   61.75    3.96
   4 -30   0   66.03    3.90
  -4 -30   0   69.30    4.07
   0 -30  -4   70.53    4.04
   0  -4 -30   74.85    4.03
  -4   0 -30   74.29    4.10
   4   0 -30   76.77    4.13
   0   4 -30   79.25    4.30
   0 -30   4   59.73    5.02
  -4 -30   0   78.59    6.63
   4 -30   0   72.25    6.14
   0 -30  -4   68.31    5.83
   2 -30   4   96.39    5.19
  -2 -30   4  102.94    5.50
   4 -30   2  102.22    5.42
  -4 -30   2   96.54    5.17
   4 -30  -2  107.31    5.61
  -4 -30  -2  100.51    5.21
  -2 -30  -4   98.98    5.21
   2 -30  -4  105.94    5.78
  -2  -4 -30   99.61    5.15
  -4  -2 -30   94.31    4.96
   2  -4 -30  100.58    5.12
  -4   2 -30   93.47    4.88
   4  -2 -30   94.35    4.84
  -2   4 -30  101.21    5.26
   4   2 -30   88.97    4.73
   2   4 -30   97.87    5.03
   2 -30   4   84.71    6.15
  -2 -30   4   94.03    6.78
  -4 -30   2   76.17    6.49
   4 -30   2   93.31    7.54
  -4 -30  -2   96.83    6.96
   4 -30  -2   99.02    6.99
  -2 -30  -4   86.10    6.16
   4 -30   4  187.76    9.24
  -4 -30   4  184.07    9.03
  -4 -30  -4  184.43    8.96
   4 -30  -4  191.56    9.25
  -4  -4 -30  172.14    8.36
   4  -4 -30  177.50    8.59
  -4   4 -30  181.47    8.75
   4   4 -30  187.03    9.17
   4 -30   4  168.25    9.53
  -4 -30   4  201.56   11.13
  -4 -30  -4  142.43    8.85
   6 -30   0   93.14    5.00
  -6 -30   0   92.21    4.92
   0 -30  -6   96.24    5.00
   0  -6 -30  102.70    5.33
  -6   0 -30   91.18    4.91
   6   0 -30  108.61    5.59
   0   6 -30  101.67    5.21
   0 -30   6   92.49    6.19
  -6 -30   0  100.10    7.58
   6 -30   0   79.50    7.06
   6 -30   2  137.10    6.97
  -6 -30   2  149.08    7.42
   6 -30  -2  133.07    6.91
  -6 -30  -2  129.59    6.51
   2 -30  -6  124.32    6.20
  -2 -30  -6  131.56    6.65
  -2  -6 -30  133.33    6.67
   2  -6 -30  116.59    5.81
  -6  -2 -30  124.83    6.31
  -6   2 -30  128.14    6.33
   6  -2 -30  128.84    6.41
   6   2 -30  129.71    6.43
  -2   6 -30  140.16    7.05
 -30  -2  -6  125.72    7.13
   2 -30   6  115.23    6.75
  -2 -30   6  147.91    8.47
   6 -30   2  119.77    7.61
  -6 -30   2  135.00    8.61
  -6 -30  -2  127.17    8.30
   6 -30  -2  132.30    8.16
  -6 -30   4  227.09    9.39
  -6 -30  -4  251.60   10.18
   6 -30  -4  210.96    8.64
  -4 -30  -6  221.49    9.04
   4 -30  -6  223.67    9.28
  -4  -6 -30  216.61    8.79
  -6  -4 -30  219.54    8.96
   4  -6 -30  214.44    8.81
   6  -4 -30  220.06    8.91
  -6   4 -30  218.06    9.18
  -4   6 -30  218.72    8.97
 -30  -6  -4  213.19    9.96
   4 -30   6  208.67    9.38
 -30  -4  -6  213.13   10.39
  -4 -30   6  221.36   10.60
   6 -30   4  225.16   10.52
  -6 -30   4  211.61   10.50
  -6 -30  -4  205.78   10.60
 -30  -6  -6  256.01   10.89
   6 -30  -6  286.15   11.54
  -6 -30  -6  270.49   10.81
  -6  -6 -30  278.16   11.08
   6  -6 -30  249.96   10.06
  -6   6 -30  237.15    9.73
   6 -30   6  251.15   11.00
  -6 -30   6  246.87   11.11
 -30  -6  -6  247.04   12.06
   8 -30   0   76.32    4.28
  -8 -30   0   67.12    3.54
   0 -30  -8   63.60    3.46
   0  -8 -30   62.05    3.30
  -8   0 -30   59.10    3.23
   8   0 -30   64.40    3.33
 -30   0  -8   65.07    4.58
  -8 -30   0   70.86    9.93
   8 -30   0   52.08    5.25
   8 -30   2   89.27    4.39
  -8 -30   2   92.56    4.46
   8 -30  -2   86.19    4.21
  -8 -30  -2   93.84    4.53
  -2 -30  -8   81.52    3.98
   2 -30  -8   83.40    4.04
  -2  -8 -30   86.48    4.09
   2  -8 -30   89.75    4.19
  -8  -2 -30   87.00    4.03
  -8   2 -30   87.90    4.12
   8  -2 -30   95.07    4.32
   8   2 -30   84.47    4.01
  -2 -30   8   89.44    4.91
 -30  -8  -2   87.03    5.27
   8 -30   2   85.09    6.45
  -8 -30   2  100.90    6.81
  -8 -30  -2   73.82    6.23
   8 -30  -2   75.04    5.62
 -30  -8  -4  162.96    7.19
  -8 -30   4  163.24    6.89
   8 -30  -4  175.33    7.48
  -8 -30  -4  164.02    6.97
  -4 -30  -8  167.24    7.11
   4 -30  -8  163.79    6.99
  -4  -8 -30  161.05    6.73
  -8  -4 -30  154.09    6.81
   4  -8 -30  163.55    6.76
  -8   4 -30  153.26    6.68
   8  -4 -30  155.12    6.47
  -4   8 -30  151.02    6.56
  -4 -30   8  145.49    6.82
 -30  -8  -4  146.18    7.63
   8 -30   4  147.48    8.10
 -30  -4  -8  141.97    8.15
  -8 -30   4  149.24    7.83
  -8 -30  -4  169.21    9.44
 -30  -8  -6  194.36    8.65
 -30  -6  -8  183.19    8.18
   8 -30  -6  186.56    7.79
  -8 -30  -6  196.12    8.24
  -6 -30  -8  199.68    8.35
   6 -30  -8  202.91    8.46
  -6  -8 -30  192.18    7.97
  -8  -6 -30  194.53    8.07
   6  -8 -30  184.76    7.48
   8  -6 -30  187.57    7.86
  -8   6 -30  182.01    7.61
  -6   8 -30  197.08    8.32
  -6 -30   8  172.03    7.81
  -8 -30   6  176.58    8.61
 -30  -8  -6  174.60    9.57
 -30  -6  -8  177.81    9.85
  -8 -30  -6  179.85    9.46
 -30  -8  -8  139.81    7.71
  -8 -30  -8  144.70    7.57
   8 -30  -8  136.29    7.29
  -8  -8 -30  126.25    6.66
   8  -8 -30  133.28    6.91
  -8   8 -30  133.26    7.02
  -8 -30   8  139.69    7.97
 -30  -8  -8  137.58    9.38
  10 -30   0   16.87    2.61
 -10 -30   0   20.11    2.46
   0 -30 -10   12.64    2.07
   0 -10 -30   15.66    2.05
 -10   0 -30   17.75    2.05
  10   0 -30   17.07    1.80
 -30   0 -10   18.56    4.31
 -10 -30   0   18.61    4.69
  10 -30   0   10.21    4.21
  10 -30   2   25.07    3.16
 -10 -30   2   24.02    2.49
  10 -30  -2   25.20    2.31
 -10 -30  -2   27.24    2.31
   2 -30 -10   30.49    2.24
  -2 -30 -10   33.54    2.55
  -2 -10 -30   26.90    2.30
   2 -10 -30   28.94    2.20
 -10  -2 -30   28.95    2.21
 -10   2 -30   22.47    2.21
  10  -2 -30   29.11    2.35
  10   2 -30   25.88    2.34
  10 -30   2   29.43    4.19
 -30  -2 -10   30.56    5.30
 -10 -30   2   39.96    5.56
 -10 -30  -2   34.31    5.38
  10 -30  -2   39.48    4.79
 -30 -10  -4   67.06    4.01
 -10 -30   4   68.58    3.64
  10 -30  -4   71.29    3.66
 -10 -30  -4   69.46    3.73
  -4 -30 -10   66.02    3.39
   4 -30 -10   76.84    3.93
  -4 -10 -30   66.60    3.48
 -10  -4 -30   71.24    3.62
   4 -10 -30   76.34    3.75
 -10   4 -30   73.42    3.89
  10  -4 -30   63.76    3.31
 -30 -10  -4   64.12    5.26
 -10 -30   4   53.96    5.79
 -30  -4 -10   64.45    6.41
 -10 -30  -4   79.32    6.39
 -30 -10  -6   95.71    5.45
 -30  -6 -10   96.46    5.61
 -10 -30  -6   96.65    5.36
  10 -30  -6   96.78    5.43
  -6 -30 -10   95.24    5.26
   6 -30 -10   94.27    5.33
  -6 -10 -30   96.71    5.29
 -10  -6 -30   92.27    5.01
   6 -10 -30   99.77    5.44
  10  -6 -30   96.60    5.17
 -10   6 -30   92.51    5.14
  -6  10 -30   95.91    5.27
 -10 -30   6   96.46    6.76
 -30 -10  -6  100.05    7.28
 -30  -6 -10   91.82    7.37
 -10 -30  -6  101.57    7.22
 -30 -10  -8   65.56    4.06
 -30  -8 -10   64.24    3.97
 -10 -30  -8   54.47    3.46
  10 -30  -8   69.42    4.11
  -8 -30 -10   61.58    3.82
   8 -30 -10   64.18    4.01
  -8 -10 -30   58.35    3.62
 -10  -8 -30   61.71    3.77
   8 -10 -30   66.21    3.93
  10  -8 -30   65.62    4.03
 -10   8 -30   65.08    3.91
  -8  10 -30   60.92    3.73
 -10 -30   8   51.19    3.88
 -30 -10  -8   65.70    6.49
 -30  -8 -10   55.18    6.71
 -30 -10 -10   22.67    2.50
 -10 -30 -10   21.20    2.38
  10 -30 -10   17.43    2.23
 -10 -10 -30   15.71    2.08
  10 -10 -30   27.14    2.59
 -10  10 -30   21.28    2.51
 -30 -10 -10   25.75    6.05
  12 -30   0    8.62    1.95
   0 -30 -12    8.82    1.78
   0 -12 -30    8.96    1.79
 -12   0 -30   11.35    2.02
  12   0 -30   10.30    1.84
 -30 -12   0    2.21    2.95
 -12 -30   0   10.14    4.86
 -12 -30   2    6.60    2.11
  12 -30  -2   16.27    2.17
 -12 -30  -2   14.38    2.21
   2 -30 -12   10.47    1.97
  -2 -30 -12   18.72    2.59
  -2 -12 -30   12.91    2.06
   2 -12 -30   12.36    2.00
 -12  -2 -30   14.23    2.01
 -12   2 -30   13.02    1.99
  12  -2 -30    8.09    1.87
  12   2 -30   11.57    1.92
 -30 -12  -2    6.05    3.50
 -12 -30   2   11.05    4.87
 -30  -2 -12    9.02    5.10
 -12 -30  -2    5.29    4.67
 -12 -30   4   36.89    2.92
 -30 -12  -4   38.24    3.07
  12 -30  -4   42.41    3.08
 -12 -30  -4   43.83    3.17
  -4 -30 -12   41.37    3.00
   4 -30 -12   47.53    3.20
  -4 -12 -30   36.48    2.64
 -12  -4 -30   41.18    2.93
   4 -12 -30   41.03    2.93
 -12   4 -30   38.79    2.84
 -30 -12  -4   34.56    4.61
 -12 -30   4   27.36    6.35
 -30  -4 -12   54.98    7.21
 -12 -30  -4   36.52    5.60
  12 -30  -4   25.12    4.11
 -30 -12  -6   58.05    3.83
 -12 -30  -6   61.67    3.87
  12 -30  -6   61.85    3.81
  -6 -30 -12   64.34    3.84
   6 -30 -12   61.35    3.79
  -6 -12 -30   56.38    3.60
 -12  -6 -30   49.70    3.21
   6 -12 -30   65.00    3.92
 -12   6 -30   61.33    3.76
  12  -6 -30   58.53    3.49
 -12 -30   6   66.25    6.57
 -30 -12  -6   60.01    5.96
 -30  -6 -12   53.53    6.49
 -12 -30  -6   52.42    5.98
 -30 -12  -8   31.00    2.90
 -12 -30  -8   33.20    2.90
 -30  -8 -12   28.75    2.73
  12 -30  -8   34.10    2.91
  -8 -30 -12   43.36    3.55
   8 -30 -12   38.28    3.25
  -8 -12 -30   27.81    2.63
 -12  -8 -30   31.73    2.80
   8 -12 -30   35.91    3.07
  12  -8 -30   31.17    2.82
 -12   8 -30   35.93    3.13
  -8  12 -30   30.61    2.75
 -12 -30   8   35.98    3.66
 -30 -12  -8   29.34    6.00
 -30  -8 -12   43.63    6.49
 -12 -30  -8   19.27    4.94
 -30 -12 -10   11.33    2.08
 -30 -10 -12   10.21    1.97
 -12 -30 -10    5.17    2.03
  12 -30 -10    7.10    1.94
 -10 -30 -12    8.12    2.09
  10 -30 -12    8.10    1.93
 -10 -12 -30    9.74    1.84
 -12 -10 -30    8.63    2.07
  10 -12 -30    7.63    1.95
  12 -10 -30   11.13    1.98
 -12  10 -30   10.07    2.09
 -10  12 -30   10.90    2.08
 -30 -12 -10    3.26    5.36
 -30 -10 -12    6.89    6.96
 -30 -12 -12    1.55    1.90
 -12 -30 -12    8.57    2.60
  12 -30 -12    5.14    1.91
 -12 -12 -30    9.97    2.70
  12 -12 -30   -3.72    1.82
 -12  12 -30   -1.77    1.93
 -30 -12 -12   16.78    6.71
  14 -30   0   14.69    2.28
 -14 -30   0   11.22    2.02
   0 -30 -14   17.46    2.32
   0 -14 -30   11.63    2.12
 -14   0 -30   14.09    1.98
  14   0 -30   17.22    2.13
 -30 -14   0   17.07    3.49
 -14 -30   0   16.60    5.18
 -30 -14  -2   20.25    2.52
 -14 -30   2   20.92    2.47
  14 -30  -2   26.15    2.66
 -14 -30  -2   19.14    2.49
  -2 -30 -14   21.41    2.45
   2 -30 -14   15.01    2.03
  -2 -14 -30   21.38    2.44
   2 -14 -30   23.76    2.50
 -14  -2 -30   21.97    2.49
 -14   2 -30   20.12    2.36
  14  -2 -30   22.79    2.26
  14   2 -30   23.09    2.30
 -30 -14  -2   30.93    4.41
 -14 -30   2   28.72    5.44
 -14 -30  -2   34.84    5.95
 -30  -2 -14   22.16    5.39
 -14 -30   4   56.67    4.43
 -30 -14  -4   51.15    4.28
  14 -30  -4   55.27    4.27
 -14 -30  -4   46.60    3.65
  -4 -30 -14   52.08    4.00
   4 -30 -14   47.42    3.78
  -4 -14 -30   52.33    3.99
 -14  -4 -30   54.46    4.13
   4 -14 -30   53.74    4.04
 -14   4 -30   59.11    4.34
  14  -4 -30   48.93    3.73
 -14 -30   4   57.80    6.26
 -30 -14  -4   66.18    6.85
 -14 -30  -4   40.24    5.52
 -30  -4 -14   59.18    6.87
 -30 -14  -6   68.20    4.96
  14 -30  -6   68.40    4.93
 -14 -30  -6   61.37    4.58
  -6 -30 -14   64.55    4.69
   6 -30 -14   78.17    5.50
  -6 -14 -30   63.78    4.66
 -14  -6 -30   64.92    4.63
   6 -14 -30   67.40    4.81
 -14   6 -30   61.19    4.46
  14  -6 -30   63.51    4.58
 -14 -30   6   57.66    5.45
 -30 -14  -6   83.58    7.91
 -30  -6 -14   49.36    6.74
 -14 -30  -6   79.46    7.25
 -30 -14  -8   41.52    3.54
 -14 -30  -8   46.77    3.79
  14 -30  -8   38.78    3.24
 -30  -8 -14   39.37    3.26
  -8 -30 -14   39.93    3.39
   8 -30 -14   44.98    3.63
  -8 -14 -30   46.35    3.69
 -14  -8 -30   36.49    3.17
   8 -14 -30   43.44    3.38
  14  -8 -30   39.96    3.15
 -14   8 -30   41.86    3.51
 -14 -30   8   44.55    4.11
 -30 -14  -8   36.78    6.39
 -30  -8 -14   39.45    6.43
 -14 -30  -8   25.36    4.87
 -30 -14 -10   10.40    2.73
 -14 -30 -10   11.60    2.82
 -30 -10 -14   13.06    3.05
  14 -30 -10   13.99    3.33
 -10 -30 -14    8.29    2.53
  10 -30 -14   15.08    3.44
 -10 -14 -30    2.70    2.09
 -14 -10 -30   14.16    3.18
  10 -14 -30    8.83    2.54
  14 -10 -30   11.01    2.64
 -14  10 -30   15.10    3.43
 -10  14 -30   15.55    4.23
 -30 -14 -10   13.80    5.95
 -30 -10 -14   23.60    6.04
 -30 -14 -12    0.78    2.00
 -30 -12 -14    3.04    2.19
 -14 -30 -12    5.21    2.37
 -12 -30 -14    9.69    2.92
  14 -30 -12    4.81    2.13
  12 -30 -14    8.42    2.71
 -12 -14 -30    6.56    2.52
 -14 -12 -30    3.07    1.85
  12 -14 -30    6.67    2.40
  14 -12 -30    8.73    2.65
 -14  12 -30    5.10    2.32
 -12  14 -30    9.22    2.93
 -30 -14 -12    8.28    6.37
 -30 -12 -14    0.38    5.49
 -30 -14 -14    4.08    2.15
 -14 -30 -14    6.20    2.31
  14 -30 -14    2.63    1.94
 -14 -14 -30    6.81    2.41
  14 -14 -30    4.22    1.91
 -14  14 -30    3.85    2.20
 -30 -14 -14    5.87    5.84
 -16 -30   0   40.78    3.44
   0 -30 -16   43.70    3.55
   0 -16 -30   50.91    3.96
 -16   0 -30   39.85    3.20
  16   0 -30   43.13    3.41
 -30 -16   0   43.01    5.00
 -16 -30   0   39.76    6.17
 -30 -16  -2   52.72    4.09
 -16 -30   2   54.75    4.34
 -16 -30  -2   63.36    4.72
  -2 -30 -16   51.88    4.00
   2 -30 -16   54.13    4.08
  -2 -16 -30   57.21    4.25
   2 -16 -30   49.52    3.85
 -16  -2 -30   48.32    3.82
 -16   2 -30   53.58    3.97
  16  -2 -30   55.86    4.14
  16   2 -30   57.92    4.26
 -30 -16  -2   61.69    6.27
 -16 -30   2   55.73   10.91
 -16 -30  -2   61.92    7.03
 -16 -30   4  104.95    6.90
 -30 -16  -4   87.14    5.94
 -16 -30  -4   90.02    5.99
  -4 -30 -16   97.49    6.32
   4 -30 -16   83.48    5.48
  -4 -16 -30   87.74    5.83
   4 -16 -30   85.92    5.57
 -16  -4 -30   94.00    6.13
 -16   4 -30   93.46    6.32
  16  -4 -30  100.47    6.38
 -16 -30   4   80.25    6.56
 -30 -16  -4   92.44    8.06
 -16 -30  -4   87.61    8.19
 -30  -4 -16   85.19    8.45
 -30 -16  -6  123.46   29.54
 -16 -30  -6  122.19   29.22
  -6 -30 -16  125.43   29.95
   6 -30 -16  116.28    7.42
  -6 -16 -30  119.84   28.66
 -16  -6 -30  108.50    6.98
   6 -16 -30  114.80    7.24
 -16   6 -30  121.29   29.00
  16  -6 -30  119.03   28.48
 -16 -30   6  114.46    8.03
 -30 -16  -6  111.40    9.19
 -16 -30  -6  107.23    8.97
 -30  -6 -16  115.34    9.59
 -30 -16  -8   75.97    5.19
 -16 -30  -8   84.96    5.59
  -8 -30 -16   77.68    5.15
   8 -30 -16   82.42    5.46
  -8 -16 -30   71.62    4.80
 -16  -8 -30   68.29    4.72
   8 -16 -30   80.33    5.28
  16  -8 -30   75.36    5.03
 -16   8 -30   79.83    5.37
 -30 -16  -8   76.31    7.70
 -16 -30  -8   76.85    7.42
 -30  -8 -16   74.47    7.81
 -30 -16 -10   31.67    2.84
 -16 -30 -10   30.15    2.91
 -30 -10 -16   32.81    2.94
 -10 -30 -16   38.44    3.30
  10 -30 -16   34.79    3.04
 -10 -16 -30   28.79    2.79
 -16 -10 -30   31.99    2.90
  10 -16 -30   28.07    2.54
  16 -10 -30   40.58    3.25
 -16  10 -30   34.73    3.04
 -30 -16 -10   31.33    6.40
 -30 -10 -16   17.21    6.94
 -16 -30 -10   21.59    5.48
 -30 -16 -12   19.15    2.40
 -16 -30 -12   17.44    5.29
 -30 -12 -16   22.54    2.51
 -12 -30 -16   22.99    2.56
  12 -30 -16   19.97    2.36
 -12 -16 -30   29.70    2.80
 -16 -12 -30   21.19    2.55
  12 -16 -30   18.51    5.45
  16 -12 -30   18.81    2.28
 -16  12 -30   19.27    2.44
 -12  16 -30   16.39    4.35
 -30 -12 -16   16.94    7.10
 -30 -16 -14   24.52    3.13
 -30 -14 -16   14.23    4.50
 -14 -30 -16   17.67    4.13
  14 -30 -16   21.25    2.80
 -14 -16 -30   16.73    5.09
 -16 -14 -30   13.64    4.30
  14 -16 -30   20.48    2.51
  16 -14 -30   17.15    5.66
 -16  14 -30   19.38    2.51
 -14  16 -30   22.38    2.89
 -30 -16 -14   17.08    7.05
 -30 -14 -16   24.90    6.24
 -30 -16 -16   37.49    3.96
 -16 -30 -16   34.02    3.57
 -16 -16 -30   31.75    3.54
  16 -16 -30   29.67    3.37
 -16  16 -30   28.05    3.33
 -30 -16 -16   23.64    6.92
 -18 -30   0   70.72    5.00
   0 -30 -18   69.38    4.81
   0 -18 -30   62.86    4.48
 -18   0 -30   62.07    4.37
  18   0 -30   57.42    3.99
 -30 -18   0   68.21    6.05
 -18 -30   0   59.97    6.74
 -30 -18  -2   84.83    5.82
 -18 -30   2   74.47    5.66
 -18 -30  -2   74.26    5.21
  -2 -30 -18   70.02    4.73
   2 -30 -18   74.74    5.11
  -2 -18 -30   83.92    5.55
   2 -18 -30   80.49    5.26
 -18  -2 -30   68.92    4.79
 -18   2 -30   66.34    4.65
  18  -2 -30   71.15    4.84
  18   2 -30   76.11    5.13
 -30 -18  -2   79.98    7.03
 -18 -30   2   91.42    7.46
 -18 -30  -2   81.29    7.74
 -18 -30   4  112.59    7.48
 -30 -18  -4  110.39    7.38
 -18 -30  -4  120.30    7.82
  -4 -30 -18  108.18    6.98
   4 -30 -18  106.74    7.01
  -4 -18 -30  121.94    7.81
   4 -18 -30  112.52    7.23
 -18  -4 -30  111.70    7.19
 -18   4 -30  111.41    7.32
  18  -4 -30  108.23    6.93
 -18 -30   4  124.78    8.89
 -30 -18  -4  109.75    8.99
 -30 -18  -6  121.68    7.79
 -18 -30  -6  129.81    8.41
  -6 -30 -18  129.67    8.35
   6 -30 -18  124.25    7.90
  -6 -18 -30  125.76    7.93
 -18  -6 -30  114.72    7.43
   6 -18 -30  122.27    7.85
 -18   6 -30  121.87    7.99
  18  -6 -30  121.58    7.77
 -18 -30   6  112.53    8.06
 -30 -18  -6  111.26    9.01
 -18 -30  -6  126.34    9.97
 -30  -6 -18  129.47   10.48
 -30 -18  -8   92.10    6.26
 -18 -30  -8   89.01    5.98
  -8 -30 -18   92.37    6.20
   8 -30 -18   93.77    6.24
  -8 -18 -30   78.64    5.26
 -18  -8 -30   94.64    6.35
   8 -18 -30   95.30    6.23
 -18   8 -30   87.59    6.02
  18  -8 -30   97.42    6.50
 -30 -18  -8   95.56    8.69
 -30  -8 -18   79.03    7.59
 -30 -18 -10   46.08    4.57
 -18 -30 -10   49.95    4.88
 -30 -10 -18   43.95    4.49
 -10 -30 -18   43.36    4.25
  10 -30 -18   54.74    5.21
 -10 -18 -30   50.74    4.88
 -18 -10 -30   36.86    3.76
  10 -18 -30   45.34    4.44
  18 -10 -30   44.53    4.38
 -18  10 -30   50.74    4.93
 -30 -18 -10   34.57    7.27
 -18 -30 -10   40.06    6.53
 -30 -10 -18   56.25    7.92
 -30 -18 -12   22.49    2.99
 -18 -30 -12   30.40    3.49
 -30 -12 -18   25.45    3.19
 -12 -30 -18   23.73    2.97
  12 -30 -18   30.45    3.42
 -12 -18 -30   25.16    2.89
 -18 -12 -30   33.12    3.44
  12 -18 -30   22.71    2.88
  18 -12 -30   29.92    3.35
 -18  12 -30   25.28    3.07
 -30 -18 -12   21.02    6.35
 -30 -12 -18   28.01    5.76
 -18 -30 -12   36.10    5.69
 -30 -18 -14   21.07    2.87
 -18 -30 -14   24.15    2.91
 -30 -14 -18   29.09    3.35
 -14 -30 -18   23.85    2.86
  14 -30 -18   34.21    3.67
 -14 -18 -30   23.96    2.84
 -18 -14 -30   31.30    3.46
  14 -18 -30   30.72    3.26
  18 -14 -30   28.39    3.11
 -14  18 -30   26.80    3.28
 -30 -18 -14   37.60    7.02
 -30 -14 -18   32.33    6.01
 -30 -18 -16   38.62    4.14
 -18 -30 -16   36.33    3.57
 -30 -16 -18   47.88    4.19
 -16 -30 -18   31.82    3.07
 -16 -18 -30   42.31    3.80
 -18 -16 -30   43.30    3.90
  16 -18 -30   41.24    3.72
  18 -16 -30   37.32    3.48
 -30 -18 -16   46.18    7.32
 -30 -16 -18   37.04    6.72
 -20 -30   0   39.29    3.34
   0 -30 -20   31.81    3.00
   0 -20 -30   32.30    2.82
 -20   0 -30   31.18    2.97
  20   0 -30   33.44    2.94
 -30 -20   0   40.10    5.07
 -20 -30   0   31.71    5.56
 -20 -30   2   46.83    3.90
 -30 -20  -2   42.47    3.66
 -20 -30  -2   52.68    4.08
  -2 -30 -20   44.99    3.52
   2 -30 -20   49.03    3.78
  -2 -20 -30   45.44    3.61
   2 -20 -30   42.82    3.32
 -20  -2 -30   34.53    3.06
 -20   2 -30   39.44    3.28
  20  -2 -30   43.40    3.43
  20   2 -30   41.36    3.36
 -30 -20   2   44.03    4.16
 -30 -20  -2   37.49    5.44
 -20 -30   2   43.51    5.19
 -20 -30  -2   44.26    6.21
 -30 -20  -4   65.08    6.22
 -20 -30  -4   72.24    6.66
  -4 -30 -20   56.10    5.22
   4 -30 -20   63.78    5.83
  -4 -20 -30   63.02    5.85
   4 -20 -30   60.89    5.63
 -20  -4 -30   60.58    5.62
 -20   4 -30   55.69    5.22
  20  -4 -30   58.73    5.39
 -20 -30   4   59.32    6.56
 -30 -20  -4   64.65    7.96
 -20 -30  -4   53.29    7.51
 -30 -20  -6   76.38    6.97
 -20 -30  -6   81.22    7.35
  -6 -30 -20   75.50    6.84
   6 -30 -20   70.62    6.56
  -6 -20 -30   63.13    5.78
 -20  -6 -30   71.71    6.57
   6 -20 -30   79.15    7.06
 -20   6 -30   70.26    6.52
  20  -6 -30   80.04    7.20
 -20 -30   6   68.10    7.04
 -20 -30  -6   63.60    7.91
 -30 -20  -8   49.78    4.93
 -20 -30  -8   44.21    4.50
  -8 -30 -20   54.49    5.15
   8 -30 -20   66.08    6.18
  -8 -20 -30   43.58    4.26
 -20  -8 -30   52.81    5.06
   8 -20 -30   50.14    4.72
 -20   8 -30   48.37    4.74
  20  -8 -30   46.64    4.57
 -30 -20  -8   61.68    8.25
 -20 -30  -8   48.29    7.74
 -30 -20 -10   16.61    3.81
 -20 -30 -10   24.16    3.05
 -10 -30 -20   22.43    2.81
  10 -30 -20   23.97    3.05
 -10 -20 -30   19.95    2.63
 -20 -10 -30   19.39    4.36
  10 -20 -30   18.72    4.23
  20 -10 -30   21.90    2.67
 -30 -20 -10   33.96    7.11
 -20 -30 -10   17.62    8.18
 -30 -20 -12   11.35    2.96
 -20 -30 -12   19.88    2.65
 -30 -12 -20   14.21    3.49
 -12 -30 -20   15.66    3.76
  12 -30 -20   10.47    2.75
 -12 -20 -30   19.39    4.38
 -20 -12 -30   23.98    3.00
  12 -20 -30   11.07    3.17
  20 -12 -30   14.55    3.51
 -30 -20 -12    4.27    5.45
 -20 -30 -12    7.89    5.59
 -30 -20 -14   12.89    2.18
 -20 -30 -14   16.59    2.54
 -30 -14 -20   14.07    2.41
 -14 -30 -20   18.43    4.00
  14 -30 -20   15.71    2.43
 -14 -20 -30   15.34    2.42
 -20 -14 -30   18.35    2.52
  14 -20 -30   18.67    2.81
  20 -14 -30   16.33    2.44
 -14  20 -30   22.11    3.10
 -30 -20 -14   29.59    6.52
 -22 -30   0    3.69    2.34
   0 -30 -22    3.56    2.16
   0 -22 -30   11.57    3.04
 -22   0 -30    7.70    2.50
  22   0 -30   11.66    3.08
 -30 -22   0   -0.46    4.29
 -22 -30   0   -2.10    4.97
 -22 -30   2    8.74    2.74
 -30 -22  -2    5.37    2.61
 -22 -30  -2    6.65    2.62
  -2 -30 -22    9.10    2.56
   2 -30 -22   12.52    3.18
  -2 -22 -30    4.82    2.25
   2 -22 -30    9.49    2.80
 -22  -2 -30    8.82    2.72
 -22   2 -30   10.76    2.95
  22  -2 -30    9.99    2.83
  22   2 -30    6.95    2.21
 -30 -22  -2   13.36    4.88
 -22 -30   2   22.62    5.33
 -30 -22  -4   18.39    4.33
 -22 -30  -4   18.72    4.33
  -4 -30 -22   18.97    4.33
   4 -30 -22   20.84    2.76
  -4 -22 -30   19.62    4.31
   4 -22 -30   23.27    2.76
 -22  -4 -30   18.81    4.28
 -22   4 -30   17.20    4.01
  22  -4 -30   14.43    3.48
 -22 -30   4   10.03    4.48
 -30 -22  -4   25.50    5.95
 -22 -30  -4   21.93    5.69
 -30 -22  -6   30.66    3.71
 -22 -30  -6   26.63    3.09
  -6 -30 -22   29.76    3.43
   6 -30 -22   21.75    2.77
  -6 -22 -30   19.60    4.43
 -22  -6 -30   25.94    3.13
   6 -22 -30   25.66    3.12
  22  -6 -30   21.74    2.69
 -22 -30   6   26.24    3.79
 -30 -22  -6   26.69    6.27
 -22 -30  -6   27.95    6.41
 -30 -22  -8   16.08    3.87
  -8 -30 -22   13.55    3.43
   8 -30 -22   16.77    3.92
  -8 -22 -30    8.09    2.42
 -22  -8 -30   17.34    4.03
  22  -8 -30   16.02    3.79
 -30 -22  -8   23.41    5.68
 -22 -30  -8   -1.61    4.99
 -30 -22 -10    9.98    2.33
 -22 -30 -10    8.02    2.40
 -10 -30 -22    2.63    1.80
  10 -30 -22    9.18    2.13
 -10 -22 -30    9.08    1.93
 -22 -10 -30    6.02    2.07
  10 -22 -30    4.04    2.01
  22 -10 -30    8.52    2.16
 -30 -22 -10   -8.87    5.07
 -22 -30 -10   -9.20    5.63
 -30 -22 -12    0.14    1.87
 -22 -30 -12    2.00    1.93
 -12 -30 -22    0.82    2.08
  12 -30 -22    5.30    2.04
 -12 -22 -30   -0.02    2.10
 -22 -12 -30    1.97    1.80
  12 -22 -30   -1.90    2.00
  22 -12 -30    5.69    2.07
 -30 -22 -12    5.21    6.36
 -22 -30 -12    5.07    5.55
 -24 -30   0    2.99    2.33
   0 -24 -30    3.47    2.03
  24   0 -30    5.13    2.02
 -30 -24   0   -6.90    3.89
 -24 -30   0    2.48    4.64
 -30 -24  -2   -3.05    2.28
 -24 -30  -2    9.30    2.37
  -2 -30 -24    5.12    1.80
   2 -30 -24   -6.52    1.97
  -2 -24 -30   -3.30    1.95
   2 -24 -30    5.00    2.00
 -24  -2 -30   -2.80    2.10
  24  -2 -30    1.61    1.95
  24   2 -30   -2.91    1.68
 -30 -24   2   -3.68    3.09
 -24 -30   2    2.52    3.68
 -30 -24  -2   -9.26    6.54
 -24 -30  -2    4.57    4.61
 -30 -24  -4    5.47    2.02
 -24 -30  -4    0.65    1.89
  -4 -30 -24    9.01    2.17
   4 -30 -24    6.09    2.01
  -4 -24 -30    7.79    2.11
   4 -24 -30   -0.36    2.02
  24  -4 -30   -0.39    1.98
 -30 -24  -4   12.63    5.16
 -24 -30  -4   -2.13    5.84
 -30 -24  -6    6.07    1.98
 -24 -30  -6    6.14    2.03
  -6 -30 -24    7.57    2.15
   6 -30 -24    4.02    2.05
  -6 -24 -30    2.33    2.07
 -24  -6 -30    1.44    2.10
   6 -24 -30    1.29    1.97
  24  -6 -30   11.38    2.19
 -30 -24  -6   -9.64    4.93
 -24 -30  -6   -5.72    5.88
  -1 -31   1   23.29    2.34
   1 -31   1   31.07    2.53
   1 -31  -1   32.21    2.58
  -1 -31  -1   28.34    2.40
  -1  -1 -31   35.85    2.37
   1  -1 -31   29.88    2.41
  -1   1 -31   22.93    2.19
   1   1 -31   29.51    2.32
  -1 -31   1   30.94    4.96
   1 -31   1   31.66    4.85
   1 -31  -1   18.86    4.17
  -1 -31  -1   38.33    5.06
  -1 -31   3   53.17    3.22
   1 -31   3   54.30    3.20
   3 -31   1   53.33    3.20
  -3 -31   1   55.25    3.13
   3 -31  -1   46.85    3.00
  -3 -31  -1   53.25    3.15
  -1 -31  -3   62.63    3.41
   1 -31  -3   50.88    2.92
  -1  -3 -31   56.42    3.15
  -3  -1 -31   56.70    3.01
   1  -3 -31   53.52    2.92
  -3   1 -31   48.81    2.77
   3  -1 -31   50.58    2.81
  -1   3 -31   63.45    3.23
   3   1 -31   50.48    2.96
   1   3 -31   51.93    2.87
  -1 -31   3   53.45    5.23
   1 -31   3   50.05    5.15
  -3 -31   1   56.20    5.90
   3 -31   1   46.81    5.35
  -3 -31  -1   64.68    5.85
   3 -31  -1   42.11    4.65
  -1 -31  -3   60.09    5.53
   1 -31  -3   49.40    5.25
   3 -31   3  100.83    4.82
  -3 -31   3   94.16    4.45
  -3 -31  -3  100.79    4.70
   3 -31  -3  111.63    5.21
  -3  -3 -31  105.08    4.72
   3  -3 -31  108.89    4.87
  -3   3 -31  100.22    4.47
   3   3 -31   95.80    4.31
   3 -31   3   98.97    7.99
  -3 -31   3   94.01    6.66
  -3 -31  -3   84.76    5.95
   3 -31  -3  105.06    6.82
  -1 -31   5  103.62    4.97
   5 -31   1  100.87    4.80
  -5 -31   1  104.22    4.78
   5 -31  -1  101.20    4.73
  -5 -31  -1  101.20    4.74
  -1 -31  -5  102.06    4.63
   1 -31  -5   99.25    4.54
  -1  -5 -31  104.89    4.66
  -5  -1 -31   91.09    4.24
  -5   1 -31  105.29    4.73
   5  -1 -31   95.39    4.37
   5   1 -31  103.48    4.63
  -1   5 -31   98.93    4.45
   1   5 -31  109.64    5.00
   1 -31   5   93.62    5.80
  -1 -31   5  101.61    6.33
   5 -31   1  110.08    6.87
  -5 -31   1   94.83    6.44
   5 -31  -1   97.33    8.13
  -1 -31  -5  117.64    7.09
  -3 -31   5  163.99    6.98
   5 -31   3  165.93    7.27
  -5 -31   3  167.16    7.26
   5 -31  -3  164.02    6.88
  -5 -31  -3  168.65    7.18
  -3 -31  -5  165.09    7.14
   3 -31  -5  159.08    7.01
  -3  -5 -31  146.34    6.39
  -5  -3 -31  161.66    6.85
   3  -5 -31  153.92    6.53
   5  -3 -31  161.71    6.83
  -5   3 -31  161.54    6.80
  -3   5 -31  153.64    6.77
   5   3 -31  165.84    7.24
   3   5 -31  165.54    7.13
   3 -31   5  151.10    8.32
  -3 -31   5  166.88    8.54
   5 -31   3  151.92    8.23
  -5 -31   3  150.42    9.33
  -5 -31  -3  139.03    8.01
   5 -31  -3  135.28    8.94
  -3 -31  -5  153.46    8.44
  -5 -31   5  232.42    9.73
  -5 -31  -5  254.19   10.27
   5 -31  -5  244.56   10.13
  -5  -5 -31  221.78    9.26
   5  -5 -31  229.95    9.32
  -5   5 -31  230.19    9.54
   5   5 -31  220.13    8.99
 -31  -5  -5  248.65   11.77
   5 -31   5  218.67   10.25
  -5 -31   5  219.86   10.24
  -5 -31  -5  223.58   10.77
   7 -31   1  102.02    4.93
  -7 -31   1   98.61    4.68
   7 -31  -1  101.14    4.75
  -7 -31  -1  104.31    4.83
   1 -31  -7   90.88    4.25
  -1 -31  -7  100.63    4.70
  -1  -7 -31   99.14    4.47
   1  -7 -31   99.57    4.45
  -7  -1 -31  101.89    4.57
  -7   1 -31  102.20    4.69
   7  -1 -31   84.06    4.01
   7   1 -31   93.66    4.33
  -1   7 -31   99.68    4.61
   1 -31   7   80.52    4.94
  -1 -31   7  102.88    5.69
   7 -31   1  100.71    6.59
  -7 -31   1  104.74    7.31
  -7 -31  -1  107.61    7.45
   7 -31  -1   81.89    6.34
   7 -31   3  157.88    8.47
  -7 -31   3  148.59    7.70
   7 -31  -3  155.04    8.11
  -7 -31  -3  138.83    7.27
  -3 -31  -7  149.10    7.85
   3 -31  -7  156.52    8.21
  -3  -7 -31  140.90    7.30
  -7  -3 -31  155.24    8.12
   3  -7 -31  162.59    8.34
  -7   3 -31  153.83    8.02
   7  -3 -31  152.01    8.01
  -3   7 -31  161.70    8.41
   7   3 -31  152.77    7.92
 -31  -7  -3  140.09    7.77
  -3 -31   7  137.17    7.76
 -31  -3  -7  146.22    8.67
   7 -31   3  131.42    8.49
  -7 -31   3  132.80    8.69
  -7 -31  -3  135.50    8.95
   7 -31  -3  123.78    8.35
 -31  -7  -5  216.60   14.31
  -7 -31   5  225.83   14.60
  -7 -31  -5  221.33   14.26
   7 -31  -5  233.09   15.02
   5 -31  -7  211.09   10.80
  -5 -31  -7  224.56   14.43
  -5  -7 -31  208.35   10.40
  -7  -5 -31  201.20   10.19
   5  -7 -31  221.65   14.09
   7  -5 -31  213.38   10.76
  -7   5 -31  216.10   13.95
  -5   7 -31  205.94   10.35
  -5 -31   7  204.59   11.11
   7 -31   5  218.73   14.63
 -31  -7  -5  204.69   11.68
 -31  -5  -7  232.51   16.18
  -7 -31   5  192.94   11.62
  -7 -31  -5  204.84   11.64
  -7 -31  -7  211.19   10.61
   7 -31  -7  223.99   14.39
  -7  -7 -31  193.43    9.72
   7  -7 -31  201.93   10.12
  -7   7 -31  203.11   10.53
  -7 -31   7  172.02    9.60
 -31  -7  -7  200.91   12.58
   9 -31   1   52.61    3.53
   9 -31  -1   36.18    2.84
  -9 -31   1   43.58    3.23
  -9 -31  -1   39.88    3.10
   1 -31  -9   46.22    3.20
  -1 -31  -9   42.81    3.09
  -1  -9 -31   44.18    2.94
   1  -9 -31   44.09    3.11
  -9  -1 -31   46.80    3.04
  -9   1 -31   52.75    3.37
   9  -1 -31   55.30    3.35
   9   1 -31   45.82    3.14
 -31  -1  -9   42.04    4.63
   9 -31   1   40.18    4.78
  -9 -31   1   36.46    5.52
  -9 -31  -1   40.82    5.56
   9 -31  -1   46.77    5.59
  -9 -31   3   83.32    4.87
   9 -31  -3   78.95    4.59
  -9 -31  -3   84.30    4.83
  -3 -31  -9   80.71    4.53
   3 -31  -9   85.20    4.84
  -3  -9 -31   83.76    4.70
   3  -9 -31   91.27    5.01
  -9  -3 -31   82.58    4.68
  -9   3 -31   79.65    4.59
   9  -3 -31   75.98    4.23
   9   3 -31   87.41    4.86
  -3   9 -31   78.34    4.53
 -31  -9  -3   76.95    5.60
   9 -31   3   74.64    5.74
 -31  -3  -9   73.52    6.04
  -9 -31   3   82.49    6.68
  -9 -31  -3   92.96    7.36
   9 -31  -3   78.23    6.49
  -9 -31   5  125.75    6.69
 -31  -9  -5  134.81    7.38
  -9 -31  -5  135.84    7.17
   9 -31  -5  141.03    7.46
  -5 -31  -9  141.00    7.61
   5 -31  -9  127.05    6.75
  -5  -9 -31  133.55    6.98
  -9  -5 -31  131.44    6.94
   5  -9 -31  136.38    7.25
   9  -5 -31  133.44    6.99
  -9   5 -31  119.32    6.48
  -5   9 -31  129.39    6.79
  -9 -31   5  104.07    7.03
 -31  -9  -5  141.88    8.93
 -31  -5  -9  118.08    8.39
  -9 -31  -5  166.62   10.83
 -31  -9  -7  132.15    8.95
  -9 -31  -7  128.99    8.51
   9 -31  -7  126.28    8.56
  -7 -31  -9  123.24    8.32
   7 -31  -9  134.69    8.87
  -7  -9 -31  129.14    8.56
  -9  -7 -31  121.91    8.12
   7  -9 -31  115.13    7.72
   9  -7 -31  119.51    7.86
  -9   7 -31  121.35    8.13
  -7   9 -31  122.51    8.16
  -9 -31   7  105.83    7.85
 -31  -9  -7  113.52    9.19
 -31  -7  -9  129.85   10.43
  -9 -31  -7  129.20   10.28
 -31  -9  -9   65.70    4.77
  -9 -31  -9   59.68    4.46
   9 -31  -9   71.62    5.01
  -9  -9 -31   67.81    4.84
   9  -9 -31   73.60    5.08
  -9   9 -31   67.91    4.83
 -31  -9  -9   65.96    7.05
  11 -31   1   16.75    2.33
 -11 -31   1   20.10    2.46
  11 -31  -1   14.58    2.18
 -11 -31  -1   16.38    2.33
   1 -31 -11   15.82    2.12
  -1 -31 -11   19.00    2.25
  -1 -11 -31   20.45    2.11
   1 -11 -31   15.70    1.95
 -11  -1 -31   17.30    2.20
 -11   1 -31   15.23    2.04
  11  -1 -31   24.93    2.29
  11   1 -31   14.72    2.03
 -31 -11  -1   22.67    3.22
 -11 -31   1   14.06    6.58
 -11 -31  -1   16.59    6.54
 -11 -31   3   39.05    3.45
  11 -31  -3   44.63    3.63
 -11 -31  -3   32.64    2.95
  -3 -31 -11   35.33    3.09
   3 -31 -11   43.11    3.50
  -3 -11 -31   38.81    3.16
 -11  -3 -31   45.15    3.69
   3 -11 -31   44.10    3.50
 -11   3 -31   44.01    3.48
  11  -3 -31   41.04    3.33
  11   3 -31   43.63    3.39
 -31 -11  -3   29.59    4.24
 -11 -31   3   30.45    5.31
 -31  -3 -11   30.73    5.80
 -11 -31  -3   33.53    5.24
  11 -31  -3   31.91    4.76
 -11 -31   5   68.12    4.97
 -31 -11  -5   69.71    5.05
  11 -31  -5   74.10    5.41
 -11 -31  -5   70.62    5.08
  -5 -31 -11   73.64    5.27
   5 -31 -11   69.02    4.95
  -5 -11 -31   71.66    5.07
 -11  -5 -31   67.49    4.83
   5 -11 -31   66.81    4.80
 -11   5 -31   78.71    5.55
  11  -5 -31   78.86    5.44
 -11 -31   5   78.21    6.83
 -31 -11  -5   76.23    7.45
 -31  -5 -11   72.11    7.81
 -11 -31  -5   53.80    6.11
 -31 -11  -7   71.44    5.23
 -11 -31  -7   73.42    5.16
  11 -31  -7   75.12    5.35
  -7 -31 -11   68.00    4.82
   7 -31 -11   63.58    4.72
  -7 -11 -31   62.65    4.49
 -11  -7 -31   67.02    4.92
   7 -11 -31   64.78    4.56
  11  -7 -31   63.36    4.47
 -11   7 -31   69.72    4.96
  -7  11 -31   60.28    4.57
 -11 -31   7   73.25    6.16
 -31 -11  -7   81.01    7.67
 -31  -7 -11   87.49    8.46
 -11 -31  -7   70.43    6.80
 -31 -11  -9   29.73    2.91
 -31  -9 -11   32.82    2.90
 -11 -31  -9   37.45    3.29
  11 -31  -9   37.60    2.97
  -9 -31 -11   28.77    2.79
   9 -31 -11   29.90    2.80
  -9 -11 -31   30.74    2.68
 -11  -9 -31   29.40    2.67
   9 -11 -31   35.21    2.95
  11  -9 -31   30.78    2.70
 -11   9 -31   27.09    2.68
  -9  11 -31   37.57    3.16
 -31 -11  -9   36.21    6.87
 -31  -9 -11   34.16    5.40
 -31 -11 -11   13.92    3.35
 -11 -31 -11   12.57    3.10
  11 -31 -11   15.28    3.42
 -11 -11 -31   11.28    2.89
  11 -11 -31   17.13    4.49
 -11  11 -31    7.39    2.43
 -31 -11 -11   30.58    5.97
  13 -31  -1   14.27    2.16
 -13 -31   1   15.47    2.53
 -13 -31  -1   11.72    2.12
   1 -31 -13   13.24    1.95
  -1 -31 -13   15.11    2.28
  -1 -13 -31    9.06    1.87
   1 -13 -31   11.04    1.94
 -13  -1 -31   19.10    2.35
 -13   1 -31   18.45    2.30
  13  -1 -31   15.53    2.15
  13   1 -31   13.91    2.08
 -31 -13  -1   13.25    3.41
 -13 -31   1    6.85    4.75
 -13 -31  -1   35.78    5.39
 -31 -13  -3   30.02    3.05
 -13 -31   3   38.45    3.35
  13 -31  -3   32.75    3.12
 -13 -31  -3   36.42    3.27
  -3 -31 -13   29.25    2.82
   3 -31 -13   40.81    3.38
  -3 -13 -31   31.93    2.94
   3 -13 -31   29.63    2.88
 -13  -3 -31   34.00    3.00
 -13   3 -31   27.02    2.65
  13  -3 -31   32.61    2.91
  13   3 -31   30.61    2.71
 -31 -13  -3   22.74    4.77
 -13 -31   3   45.11    5.68
 -31  -3 -13   24.31    5.23
 -13 -31  -3   26.72    5.67
 -31 -13  -5   54.13    4.21
  13 -31  -5   55.17    4.18
 -13 -31  -5   59.17    4.46
  -5 -31 -13   61.50    4.57
   5 -31 -13   61.86    4.54
  -5 -13 -31   65.75    4.67
 -13  -5 -31   57.87    4.30
   5 -13 -31   67.00    4.81
 -13   5 -31   56.30    4.20
  13  -5 -31   59.85    4.26
 -13 -31   5   42.60    5.08
 -31 -13  -5   50.67    6.16
 -31  -5 -13   61.34    7.53
 -13 -31  -5   63.40    7.09
 -31 -13  -7   52.24    3.93
 -13 -31  -7   52.54    3.85
  13 -31  -7   50.50    3.88
  -7 -31 -13   57.25    4.16
   7 -31 -13   64.22    4.53
  -7 -13 -31   66.71    4.61
 -13  -7 -31   55.70    4.03
   7 -13 -31   57.76    4.10
  13  -7 -31   56.45    4.00
 -13   7 -31   56.93    4.01
 -13 -31   7   56.78    5.83
 -31 -13  -7   49.34    6.05
 -31  -7 -13   55.91    7.14
 -13 -31  -7   47.04    5.62
 -31 -13  -9   21.93    2.62
 -13 -31  -9   23.88    2.65
  13 -31  -9   26.00    2.60
  -9 -31 -13   24.15    2.62
   9 -31 -13   27.07    2.51
  -9 -13 -31   20.26    2.49
 -13  -9 -31   22.86    2.50
   9 -13 -31   30.47    2.77
  13  -9 -31   30.42    2.75
 -13   9 -31   30.49    2.80
  -9  13 -31   24.20    2.56
 -31 -13  -9   39.64    6.30
 -31  -9 -13   24.43    6.08
 -13 -31  -9   23.04    4.69
 -31 -13 -11    9.26    2.98
 -31 -11 -13    6.79    2.50
 -13 -31 -11    3.04    2.24
  13 -31 -11    9.57    2.98
 -11 -31 -13   10.56    3.23
  11 -31 -13    6.26    2.23
 -11 -13 -31    9.96    3.17
 -13 -11 -31    3.25    2.10
  11 -13 -31    8.25    2.75
  13 -11 -31   14.07    3.86
 -13  11 -31    9.21    3.00
 -11  13 -31   11.96    3.48
 -31 -13 -11    7.15    5.99
 -31 -11 -13   13.07    7.45
 -31 -13 -13    5.04    2.26
 -13 -31 -13    6.02    2.50
  13 -31 -13    7.74    2.49
 -13 -13 -31    5.28    2.33
  13 -13 -31    7.74    2.61
 -13  13 -31    2.48    2.08
 -31 -13 -13    6.21    6.26
 -15 -31   1   26.45    2.85
 -15 -31  -1   30.98    3.04
  -1 -31 -15   29.35    2.79
   1 -31 -15   29.24    2.79
  -1 -15 -31   34.07    2.97
   1 -15 -31   32.50    2.91
 -15  -1 -31   34.80    2.97
  15  -1 -31   33.74    2.76
  15   1 -31   35.48    3.01
 -31 -15  -1   25.07    3.70
 -15 -31   1   27.68    5.42
 -15 -31  -1   22.57    5.49
 -31 -15  -3   58.93    4.37
 -15 -31   3   53.63    4.15
 -15 -31  -3   40.50    3.42
  -3 -31 -15   50.69    3.78
   3 -31 -15   43.80    3.50
  -3 -15 -31   50.32    3.77
   3 -15 -31   45.53    3.41
 -15  -3 -31   50.63    3.81
 -15   3 -31   47.48    3.62
  15  -3 -31   45.51    3.33
 -31 -15  -3   51.07    5.24
 -15 -31   3   38.45    5.01
 -15 -31  -3   34.89    6.19
 -31 -15  -5   85.16    5.75
 -15 -31  -5   89.85    6.13
  -5 -31 -15   83.22    5.55
   5 -31 -15   83.72    5.58
  -5 -15 -31   80.14    5.46
 -15  -5 -31   77.03    5.33
   5 -15 -31   81.42    5.39
 -15   5 -31   85.16    5.73
  15  -5 -31   86.20    5.57
 -15 -31   5   65.20    5.67
 -31 -15  -5   81.52    7.90
 -15 -31  -5   57.48    6.36
 -31  -5 -15   73.84    9.27
 -31 -15  -7   73.70    5.09
 -15 -31  -7   73.17    5.22
  -7 -31 -15   72.98    5.02
   7 -31 -15   68.84    4.68
  -7 -15 -31   76.21    5.19
 -15  -7 -31   58.53    4.10
   7 -15 -31   64.71    4.53
 -15   7 -31   74.64    5.22
  15  -7 -31   73.20    4.97
 -15 -31   7   73.27    5.83
 -31 -15  -7   75.09    7.53
 -31  -7 -15   69.75    7.53
 -15 -31  -7   78.92    7.68
 -31 -15  -9   38.72    3.30
 -15 -31  -9   38.06    3.13
  -9 -31 -15   39.53    3.31
   9 -31 -15   37.19    3.12
  -9 -15 -31   43.10    3.42
 -15  -9 -31   28.25    2.80
   9 -15 -31   31.49    2.87
  15  -9 -31   38.17    3.10
 -15   9 -31   43.63    3.36
 -31 -15  -9   41.78    6.40
 -31  -9 -15   16.62    6.48
 -15 -31  -9   25.89    5.49
 -31 -15 -11   10.74    3.60
 -15 -31 -11   17.11    5.97
 -11 -31 -15   12.31    4.03
  11 -31 -15   13.56    4.26
 -11 -15 -31   13.14    4.22
 -15 -11 -31   12.35    3.98
  11 -15 -31   14.90    4.59
  15 -11 -31   18.03    2.34
 -15  11 -31   16.64    5.05
 -11  15 -31   16.55    5.07
 -31 -15 -11   17.09    7.71
 -31 -11 -15    8.04    6.16
 -15 -31 -11   -1.93    5.15
 -31 -15 -13   16.19    4.96
 -31 -13 -15    7.77    2.96
 -15 -31 -13    7.31    2.91
 -13 -31 -15   15.39    4.81
  13 -31 -15   11.50    3.76
 -13 -15 -31    8.28    2.92
 -15 -13 -31   10.90    3.53
  13 -15 -31   13.74    4.22
  15 -13 -31   10.47    3.53
 -15  13 -31    6.92    2.80
 -13  15 -31   16.25    4.98
 -31 -15 -13    4.29    5.94
 -31 -13 -15    4.70    6.36
 -31 -15 -15   12.27    3.18
 -15 -31 -15   15.05    3.53
 -15 -15 -31   13.11    3.29
  15 -15 -31   22.25    2.84
 -15  15 -31   20.15    2.68
 -31 -15 -15    6.94    6.22
 -17 -31   1   61.92    4.63
 -17 -31  -1   58.99    4.28
   1 -31 -17   58.42    4.15
  -1 -31 -17   63.53    4.52
  -1 -17 -31   61.04    4.35
   1 -17 -31   56.51    4.01
 -17  -1 -31   54.60    4.06
 -17   1 -31   55.16    3.98
  17  -1 -31   63.51    4.46
  17   1 -31   54.27    3.98
 -31 -17   1   63.33    5.31
 -31 -17  -1   63.84    5.95
 -17 -31   1   50.15    6.24
 -17 -31  -1   43.93    5.64
 -17 -31   3   85.28    5.79
 -31 -17  -3   80.13    5.66
 -17 -31  -3   73.97    5.07
  -3 -31 -17   84.55    5.68
   3 -31 -17   67.62    4.65
  -3 -17 -31   81.07    5.49
   3 -17 -31   76.01    5.80
 -17  -3 -31   69.58    4.82
 -17   3 -31   74.84    5.06
  17  -3 -31   89.46    5.92
 -31 -17  -3   79.18    6.91
 -17 -31   3   80.79    6.85
 -17 -31  -3   74.46    7.20
 -31 -17  -5  107.76    7.19
 -17 -31  -5  105.51    6.90
  -5 -31 -17  103.86    6.87
   5 -31 -17  104.78    6.74
  -5 -17 -31  113.71    7.21
 -17  -5 -31  103.07    6.92
   5 -17 -31  100.26    6.72
 -17   5 -31  102.96    7.01
  17  -5 -31  109.54    7.02
 -17 -31   5  119.76    8.55
 -31 -17  -5   99.12    8.51
 -17 -31  -5   78.09    7.88
 -31 -17  -7  103.51    6.85
 -17 -31  -7   94.05    6.26
  -7 -31 -17  104.65    6.92
   7 -31 -17   83.97    5.80
  -7 -17 -31   90.43    6.00
 -17  -7 -31   92.44    6.34
   7 -17 -31   97.23    6.46
 -17   7 -31   95.74    6.36
  17  -7 -31   95.47    6.40
 -17 -31   7   86.33    6.18
 -31 -17  -7   99.13    8.90
 -17 -31  -7  116.96    9.43
 -31  -7 -17   90.20    8.56
 -31 -17  -9   55.30    5.36
 -17 -31  -9   65.53    6.07
  -9 -31 -17   66.73    6.14
   9 -31 -17   55.61    5.27
  -9 -17 -31   56.45    5.35
 -17  -9 -31   61.86    5.67
   9 -17 -31   59.74    5.57
  17  -9 -31   54.61    5.23
 -17   9 -31   53.05    5.12
 -31 -17  -9   60.58    8.07
 -17 -31  -9   41.09    6.16
 -31  -9 -17   49.50    9.16
 -31 -17 -11   21.48    2.88
 -17 -31 -11   26.34    3.18
 -11 -31 -17   29.99    3.38
  11 -31 -17   31.05    3.44
 -11 -17 -31   31.77    3.61
 -17 -11 -31   30.72    3.41
  11 -17 -31   26.12    3.04
  17 -11 -31   21.51    2.62
 -17  11 -31   22.45    2.75
 -11  17 -31   34.09    3.72
 -31 -17 -11   44.29    7.15
 -31 -11 -17    9.92    8.47
 -17 -31 -11   22.61    5.05
 -31 -17 -13   25.95    3.14
 -17 -31 -13   18.63    4.28
 -31 -13 -17   13.35    3.38
 -13 -31 -17   17.40    3.93
  13 -31 -17   20.83    2.80
 -13 -17 -31   19.40    4.27
 -17 -13 -31   19.62    4.39
  13 -17 -31   19.19    4.32
  17 -13 -31   20.83    2.62
 -17  13 -31   18.51    4.25
 -13  17 -31   22.71    3.03
 -31 -17 -13   31.14    7.61
 -31 -13 -17   12.22    6.50
 -31 -17 -15   23.47    2.83
 -31 -15 -17   27.79    3.03
 -17 -31 -15   22.56    2.83
 -15 -31 -17   26.76    3.02
 -17 -15 -31   22.51    2.74
  15 -17 -31   28.23    2.81
  17 -15 -31   28.31    2.85
 -17  15 -31   25.60    3.13
 -15  17 -31   26.61    3.03
 -31 -17 -15   16.11    6.40
 -31 -15 -17   30.53    5.95
 -19 -31   1   49.55    4.83
 -19 -31  -1   39.04    4.33
   1 -31 -19   52.93    5.06
  -1 -31 -19   47.60    4.66
  -1 -19 -31   39.91    3.97
   1 -19 -31   59.51    5.63
 -19  -1 -31   49.27    4.82
 -19   1 -31   47.52    4.69
  19  -1 -31   54.71    5.17
  19   1 -31   48.24    4.56
 -31 -19   1   46.73    5.33
 -31 -19  -1   41.30    5.63
 -19 -31   1   44.44    6.07
 -19 -31  -1   50.43    6.66
 -19 -31   3   80.33    7.43
 -31 -19  -3   71.77    6.59
 -19 -31  -3   69.95    6.49
  -3 -31 -19   64.28    5.88
   3 -31 -19   68.42    6.20
  -3 -19 -31   73.31    6.68
   3 -19 -31   56.92    5.34
 -19  -3 -31   70.84    6.49
 -19   3 -31   60.36    5.77
  19  -3 -31   66.47    6.06
 -31 -19  -3   74.33    8.48
 -19 -31   3   53.18    6.58
 -19 -31  -3   83.57    8.98
 -31 -19  -5   90.72    8.27
 -19 -31  -5   99.02    8.98
  -5 -31 -19   79.63    7.33
   5 -31 -19  100.48    9.00
  -5 -19 -31   93.20    8.24
   5 -19 -31   88.94    7.96
 -19  -5 -31   82.17    7.38
 -19   5 -31   85.24    7.68
  19  -5 -31   86.02    7.63
 -19 -31   5   92.74    8.95
 -31 -19  -5   75.66    8.68
 -19 -31  -5   61.91    7.67
 -31 -19  -7   79.48    7.21
 -19 -31  -7   80.00    7.20
  -7 -31 -19   80.07    7.46
   7 -31 -19   87.78    8.01
  -7 -19 -31   75.23    6.78
 -19  -7 -31   82.99    7.43
   7 -19 -31   77.98    7.00
 -19   7 -31   74.62    6.92
 -31 -19  -7   60.74    8.14
 -19 -31  -7   74.37    8.78
 -31  -7 -19   80.73    9.88
 -31 -19  -9   48.04    4.70
 -19 -31  -9   55.23    5.38
  -9 -31 -19   43.31    4.44
   9 -31 -19   48.42    4.69
  -9 -19 -31   54.75    5.31
 -19  -9 -31   42.08    4.31
   9 -19 -31   52.95    5.15
 -19   9 -31   43.86    4.68
  19  -9 -31   45.30    4.47
 -31 -19  -9   73.53    9.01
 -19 -31  -9   39.06    7.78
 -31  -9 -19   37.72    6.79
 -31 -19 -11   29.05    3.42
 -19 -31 -11   25.27    3.20
 -11 -31 -19   23.50    2.83
  11 -31 -19   26.07    3.14
 -11 -19 -31   29.68    3.39
 -19 -11 -31   28.17    3.29
  11 -19 -31   25.38    2.89
  19 -11 -31   26.63    3.17
 -31 -19 -11   16.72    6.88
 -19 -31 -11   30.05    6.11
 -31 -11 -19   18.99    7.03
 -31 -19 -13   19.63    2.65
 -19 -31 -13   20.27    2.73
 -13 -31 -19   24.98    2.88
  13 -31 -19   22.76    2.55
 -13 -19 -31   21.11    2.66
 -19 -13 -31   21.51    2.51
  13 -19 -31   25.47    2.81
  19 -13 -31   27.89    2.95
 -13  19 -31   23.68    2.90
 -31 -19 -13    2.39    6.20
 -19 -31 -13   21.21    5.71
 -31 -13 -19   27.15    5.73
 -21 -31   1   26.07    3.18
 -21 -31  -1   16.45    4.05
   1 -31 -21   15.03    3.49
  -1 -31 -21   29.88    3.24
  -1 -21 -31   18.27    4.20
   1 -21 -31   21.65    2.67
 -21  -1 -31   25.74    3.13
 -21   1 -31   18.93    4.32
  21  -1 -31   20.36    2.61
  21   1 -31   25.98    2.94
 -31 -21   1   16.86    4.68
 -31 -21  -1   16.54    5.47
 -21 -31   1    6.78    4.69
 -21 -31  -1   24.53    5.51
 -31 -21  -3   30.46    3.70
 -21 -31  -3   37.34    3.93
  -3 -31 -21   24.27    2.88
   3 -31 -21   31.56    3.53
  -3 -21 -31   24.67    3.07
   3 -21 -31   33.92    3.72
 -21  -3 -31   25.36    2.95
 -21   3 -31   39.46    4.12
  21  -3 -31   34.30    3.55
 -21 -31   3   22.20    4.96
 -31 -21  -3   24.10    4.83
 -21 -31  -3   34.71    6.96
 -31 -21  -5   48.03    4.86
 -21 -31  -5   41.62    4.37
  -5 -31 -21   42.71    4.22
   5 -31 -21   45.00    4.50
  -5 -21 -31   49.80    4.90
 -21  -5 -31   41.62    4.27
   5 -21 -31   36.33    3.84
 -21   5 -31   38.31    4.10
  21  -5 -31   41.49    4.11
 -21 -31   5   30.72    4.89
 -31 -21  -5   43.34    6.71
 -21 -31  -5   55.88    8.17
 -31 -21  -7   45.82    4.67
 -21 -31  -7   46.48    4.60
  -7 -31 -21   43.14    4.27
   7 -31 -21   45.46    4.58
  -7 -21 -31   37.89    3.84
 -21  -7 -31   41.90    4.29
   7 -21 -31   38.69    4.00
  21  -7 -31   44.85    4.58
 -31 -21  -7   40.51    6.33
 -21 -31  -7   34.55    6.20
 -31 -21  -9   25.17    2.96
 -21 -31  -9   20.18    2.73
  -9 -31 -21   33.13    3.31
   9 -31 -21   13.52    2.33
  -9 -21 -31   21.42    2.48
 -21  -9 -31   26.38    2.90
   9 -21 -31   16.52    2.21
  21  -9 -31   19.65    2.55
 -31 -21  -9   22.15    5.57
 -21 -31  -9   11.87    5.22
 -31 -21 -11    7.28    2.22
 -21 -31 -11   11.13    2.36
 -11 -31 -21    6.80    2.15
  11 -31 -21    7.12    1.89
 -11 -21 -31   11.92    2.35
 -21 -11 -31   14.03    2.15
  11 -21 -31   11.87    2.01
  21 -11 -31   12.86    2.25
 -31 -21 -11   14.26    5.60
 -21 -31 -11    9.80    5.71
 -23 -31   1    3.11    2.42
 -23 -31  -1    8.27    2.38
  -1 -31 -23    2.58    2.02
   1 -31 -23   -1.66    2.00
  -1 -23 -31    2.96    1.74
   1 -23 -31    4.00    1.98
 -23  -1 -31    3.61    2.06
 -23   1 -31    1.50    2.18
  23  -1 -31    4.30    2.06
  23   1 -31   -0.30    2.09
 -31 -23   1    3.37    3.57
 -31 -23  -1   -0.09    4.21
 -23 -31   1   14.28    4.62
 -23 -31  -1    0.05    4.34
 -31 -23  -3    2.16    2.35
 -23 -31  -3    6.23    2.36
  -3 -31 -23    7.37    2.16
   3 -31 -23    2.86    1.97
  -3 -23 -31    7.46    1.90
   3 -23 -31    8.28    1.87
 -23  -3 -31    5.95    2.12
  23  -3 -31    8.71    2.13
  23   3 -31    3.82    2.00
 -23 -31   3    1.71    3.79
 -31 -23  -3    0.23    4.05
 -23 -31  -3    7.15    4.88
 -31 -23  -5   13.66    2.64
 -23 -31  -5   17.31    2.63
  -5 -31 -23    7.64    2.09
   5 -31 -23    8.55    2.15
  -5 -23 -31   12.68    2.28
   5 -23 -31   11.70    2.20
 -23  -5 -31    6.17    2.17
  23  -5 -31   15.42    2.36
 -23 -31   5    4.16    3.05
 -31 -23  -5   27.28    5.57
 -23 -31  -5   -3.44    5.02
   0 -32   0   13.50    2.19
   0   0 -32   11.84    2.03
   0 -32   0    6.75    5.10
   0 -32   2   15.10    2.34
   2 -32   0   16.52    2.10
  -2 -32   0   18.44    2.40
   0 -32  -2   10.24    2.07
   0  -2 -32   16.85    1.97
  -2   0 -32   19.36    2.25
   2   0 -32   22.53    2.28
   0   2 -32   16.42    2.12
   0 -32   2   22.47    4.77
   2 -32   0   15.48    4.68
  -2 -32   0   22.36    5.21
   0 -32  -2    8.36    4.63
   2 -32   2   26.30    2.63
  -2 -32   2   26.10    2.63
  -2 -32  -2   24.32    2.62
   2 -32  -2   22.76    2.23
  -2  -2 -32   27.69    2.45
   2  -2 -32   18.35    2.17
  -2   2 -32   27.08    2.48
   2   2 -32   28.91    2.50
  -2 -32   2   28.04    4.98
   2 -32   2   23.80    4.46
   2 -32  -2   26.27    4.41
  -2 -32  -2   30.72    5.07
   0 -32   4   42.40    3.26
   4 -32   0   38.45    3.01
  -4 -32   0   39.43    3.44
   0 -32  -4   39.29    3.02
   0  -4 -32   42.62    2.89
  -4   0 -32   42.51    3.00
   4   0 -32   39.99    2.75
   0   4 -32   38.07    2.74
   0 -32   4   49.17    6.44
   4 -32   0   41.06    5.11
  -4 -32   0   42.85    5.62
   0 -32  -4   37.99    5.14
   2 -32   4   56.49    3.65
  -2 -32   4   57.72    3.82
   4 -32   2   61.24    3.95
  -4 -32   2   55.75    3.84
   4 -32  -2   60.46    3.79
  -4 -32  -2   56.89    3.67
  -2 -32  -4   56.53    3.70
   2 -32  -4   59.36    3.75
  -2  -4 -32   52.11    3.29
  -4  -2 -32   56.25    3.44
   2  -4 -32   62.10    3.78
  -4   2 -32   64.38    3.87
   4  -2 -32   56.05    3.51
  -2   4 -32   66.63    3.98
   4   2 -32   59.27    3.69
   2   4 -32   59.85    3.57
  -2 -32   4   52.71    4.94
   2 -32   4   49.83    5.49
   4 -32   2   57.51    5.66
  -4 -32   2   49.64    5.63
  -4 -32  -2   45.12    5.62
   4 -32  -2   60.13    5.50
  -2 -32  -4   63.09    6.13
   2 -32  -4   56.17    5.69
   4 -32   4  109.67    6.30
  -4 -32   4  113.88    6.44
   4 -32  -4  107.57    5.87
  -4 -32  -4  117.71    6.30
  -4  -4 -32   94.31    5.28
   4  -4 -32  107.49    5.78
  -4   4 -32  103.13    5.73
   4   4 -32  110.87    6.05
   4 -32   4   97.07    6.69
  -4 -32   4  116.69    7.85
  -4 -32  -4   90.75    6.78
   4 -32  -4   93.43    7.04
   6 -32   0   55.76    3.69
  -6 -32   0   54.64    3.52
   0 -32  -6   67.45    3.99
   0  -6 -32   68.75    4.08
  -6   0 -32   64.51    3.91
   6   0 -32   62.49    3.69
   0   6 -32   66.00    3.97
   0 -32   6   48.46    4.36
   6 -32   0   61.07    6.05
  -6 -32   0   50.27    5.49
   6 -32   2   85.48    4.97
  -6 -32   2   83.37    4.91
   6 -32  -2   79.71    4.66
  -6 -32  -2   88.10    5.03
  -2 -32  -6   97.07    5.42
   2 -32  -6   83.86    4.82
  -2  -6 -32   75.85    4.29
  -6  -2 -32   77.47    4.35
   2  -6 -32   84.05    4.68
  -6   2 -32   87.47    4.86
   6  -2 -32   80.21    4.51
   6   2 -32   89.95    5.02
  -2   6 -32   88.46    4.97
   2   6 -32   86.33    4.85
   2 -32   6   73.76    5.42
  -2 -32   6   74.88    5.74
   6 -32   2   75.04    6.21
  -6 -32   2   91.30    7.17
  -6 -32  -2   79.27    6.98
   6 -32  -2   65.92    6.42
  -6 -32   4  144.55    7.64
   6 -32  -4  140.15    7.60
  -6 -32  -4  142.34    7.54
  -4 -32  -6  146.41    7.66
   4 -32  -6  143.05    7.63
  -4  -6 -32  145.05    7.51
  -6  -4 -32  146.49    7.68
   4  -6 -32  148.43    7.67
   6  -4 -32  130.66    6.95
  -6   4 -32  141.12    7.49
  -4   6 -32  135.25    7.37
   6   4 -32  137.10    7.44
   4   6 -32  137.03    7.36
   4 -32   6  134.89    7.75
 -32  -4  -6  143.59    9.12
  -4 -32   6  137.19    7.99
   6 -32   4  132.87    8.15
  -6 -32   4  131.80    8.38
  -6 -32  -4  155.67    9.91
   6 -32  -4  124.29    8.39
  -4 -32  -6  132.19    8.60
  -6 -32  -6  182.12   33.67
   6 -32  -6  188.92   34.94
  -6  -6 -32  165.69   10.83
   6  -6 -32  155.15   10.19
  -6   6 -32  170.37   31.54
 -32  -6  -6  165.11   13.40
  -6 -32   6  141.43   10.30
  -6 -32  -6  174.05   32.60
   8 -32   0   31.21    2.78
  -8 -32   0   37.62    2.99
   0 -32  -8   41.91    3.12
   0  -8 -32   43.75    3.06
  -8   0 -32   37.94    2.85
   8   0 -32   38.73    2.86
   0   8 -32   44.58    3.14
  -8 -32   0   37.56    5.49
   8 -32   0   36.06    5.50
   8 -32   2   62.34    4.69
  -8 -32   2   56.60    4.26
   8 -32  -2   48.51    3.75
  -8 -32  -2   55.31    4.15
   2 -32  -8   60.30    4.52
  -2 -32  -8   51.37    4.00
  -2  -8 -32   47.81    3.74
   2  -8 -32   56.24    4.10
  -8  -2 -32   57.18    4.23
  -8   2 -32   49.24    3.68
   8  -2 -32   59.01    4.34
   8   2 -32   57.89    4.26
  -2   8 -32   59.76    4.32
 -32  -2  -8   51.54    4.74
   8 -32   2   50.63    5.57
  -8 -32   2   57.25    6.76
  -8 -32  -2   58.67    6.22
   8 -32  -2   48.54    5.74
  -8 -32   4  104.32    7.06
   8 -32  -4  105.22    7.18
  -8 -32  -4   93.70    6.35
  -4 -32  -8   95.83    6.52
   4 -32  -8  105.24    7.18
  -4  -8 -32  104.87    7.03
  -8  -4 -32   96.01    6.57
   4  -8 -32  115.36    7.69
  -8   4 -32   97.56    6.77
   8  -4 -32  104.78    7.00
  -4   8 -32   89.29    6.02
   8   4 -32   93.99    6.43
  -4 -32   8  110.17    7.67
 -32  -8  -4   91.32    7.38
   8 -32   4   97.57    7.48
 -32  -4  -8   98.04    8.22
  -8 -32   4  102.76    8.45
  -8 -32  -4  117.72    9.49
   8 -32  -4   80.97    7.44
  -8 -32  -6  131.74    8.84
   8 -32  -6  127.47    8.66
   6 -32  -8  123.35    8.16
  -6 -32  -8  130.07    8.61
  -6  -8 -32  118.47    8.03
  -8  -6 -32  113.38    7.66
   6  -8 -32  118.88    7.87
   8  -6 -32  126.67    8.39
  -8   6 -32  126.58    8.55
  -6   8 -32  124.41    8.23
  -6 -32   8  125.01    8.71
  -8 -32   6  120.39    8.96
 -32  -8  -6  108.01    8.57
 -32  -6  -8  116.51    9.48
  -8 -32  -6   97.92    8.54
  -8 -32  -8  102.31    6.94
   8 -32  -8   91.78    6.34
  -8  -8 -32   94.15    6.45
   8  -8 -32   91.64    6.21
  -8   8 -32   75.88    5.33
  -8 -32   8   98.09    6.99
 -32  -8  -8   85.11    7.94
  10 -32   0   11.27    2.20
 -10 -32   0   10.19    2.23
   0 -32 -10   16.41    2.23
   0 -10 -32   15.87    2.21
 -10   0 -32   16.34    2.24
  10   0 -32   19.15    2.27
 -10 -32   0   13.47    4.62
 -10 -32   2   17.90    2.62
  10 -32  -2   20.57    2.48
 -10 -32  -2   15.28    2.45
   2 -32 -10   14.96    2.23
  -2 -32 -10   23.16    2.44
  -2 -10 -32   22.13    2.44
   2 -10 -32   18.36    2.16
 -10  -2 -32   23.13    2.34
 -10   2 -32   24.67    2.66
  10  -2 -32   22.10    2.24
  10   2 -32   17.05    2.31
 -10 -32   2   39.16    5.64
 -10 -32  -2   29.87    5.67
  10 -32  -2   27.94    5.68
 -10 -32   4   44.00    3.63
  10 -32  -4   46.89    3.69
 -10 -32  -4   42.75    3.58
  -4 -32 -10   47.88    3.67
   4 -32 -10   49.02    3.85
  -4 -10 -32   42.54    3.49
 -10  -4 -32   50.58    3.88
   4 -10 -32   55.55    4.14
 -10   4 -32   47.57    3.61
  10  -4 -32   56.16    4.16
  -4  10 -32   48.13    3.77
  10   4 -32   50.37    3.78
 -32 -10  -4   51.74    5.41
 -32  -4 -10   45.04    5.55
 -10 -32   4   49.00    5.40
 -10 -32  -4   46.64    6.40
  10 -32  -4   41.04    5.48
 -32 -10  -6   69.03    5.11
 -10 -32  -6   61.95    4.53
  10 -32  -6   67.77    4.90
  -6 -32 -10   73.66    5.24
  -6 -10 -32   67.26    4.76
 -10  -6 -32   72.67    5.24
   6 -10 -32   61.96    4.61
  10  -6 -32   66.63    4.66
 -10   6 -32   65.85    4.74
  -6  10 -32   76.88    5.32
 -10 -32   6   67.84    6.05
 -32 -10  -6   81.02    7.68
 -32  -6 -10   76.30    7.86
 -10 -32  -6   76.76    7.47
 -10 -32  -8   49.40    3.65
  10 -32  -8   50.16    3.75
  -8 -32 -10   50.70    3.73
   8 -32 -10   49.30    3.70
  -8 -10 -32   48.48    3.64
 -10  -8 -32   49.34    3.71
   8 -10 -32   51.35    3.80
  10  -8 -32   41.53    3.25
 -10   8 -32   55.45    4.04
  -8  10 -32   53.67    3.94
 -10 -32   8   42.05    4.03
 -32 -10  -8   44.08    5.99
 -32  -8 -10   48.87    6.38
 -10 -32  -8   60.79    6.41
 -10 -32 -10   26.20    2.69
  10 -32 -10   22.91    2.46
 -10 -10 -32   20.93    2.26
  10 -10 -32   20.04    2.15
 -10  10 -32   15.85    4.27
 -32 -10 -10   31.80    5.67
  12 -32   0    4.89    2.22
   0 -32 -12    3.88    2.06
   0 -12 -32    6.70    2.31
 -12   0 -32    7.33    2.37
  12   0 -32    4.76    2.08
 -12 -32   0   -0.19    4.59
 -12 -32   2   14.01    3.35
  12 -32  -2   10.07    2.74
 -12 -32  -2    6.40    2.46
   2 -32 -12    4.70    2.12
  -2 -32 -12   12.69    3.07
  -2 -12 -32   10.67    2.85
   2 -12 -32   16.31    4.28
 -12  -2 -32   17.89    2.11
 -12   2 -32    8.95    2.54
  12  -2 -32    9.04    2.53
  12   2 -32   14.02    3.13
 -32 -12  -2    3.63    3.45
 -12 -32   2   11.39    4.82
 -12 -32  -2   12.96    6.10
 -32 -12  -4   25.62    2.74
 -12 -32   4   31.33    3.12
  12 -32  -4   29.38    2.77
 -12 -32  -4   24.73    2.55
  -4 -32 -12   30.29    2.83
   4 -32 -12   35.11    3.02
  -4 -12 -32   29.76    2.82
 -12  -4 -32   28.67    2.59
   4 -12 -32   31.27    2.78
 -12   4 -32   23.86    2.53
  12  -4 -32   28.59    2.69
 -32 -12  -4   36.56    4.79
 -12 -32   4   27.83    4.29
 -32  -4 -12   25.00    5.38
 -32 -12  -6   41.78    3.46
  12 -32  -6   45.70    3.57
 -12 -32  -6   39.34    3.39
  -6 -32 -12   44.68    3.42
   6 -32 -12   43.92    3.33
  -6 -12 -32   45.15    3.52
 -12  -6 -32   44.24    3.35
   6 -12 -32   39.65    3.14
 -12   6 -32   46.58    3.61
  12  -6 -32   42.47    3.19
  -6  12 -32   39.00    3.12
 -12 -32   6   43.06    4.77
 -32 -12  -6   28.29    4.96
 -32  -6 -12   42.67    6.26
 -12 -32  -6   34.49    5.61
 -32 -12  -8   29.50    2.84
 -12 -32  -8   26.06    2.56
  12 -32  -8   26.70    2.69
  -8 -32 -12   30.53    2.84
   8 -32 -12   27.03    2.68
  -8 -12 -32   27.81    2.79
 -12  -8 -32   27.84    2.57
   8 -12 -32   32.03    2.82
  12  -8 -32   29.21    2.67
 -12   8 -32   26.45    2.64
  -8  12 -32   29.43    2.78
 -32 -12  -8   25.90    6.10
 -32  -8 -12   27.85    5.35
 -12 -32  -8   41.98    5.99
 -32 -12 -10    9.13    3.02
 -12 -32 -10   11.05    3.35
  12 -32 -10    7.59    3.06
 -10 -32 -12   10.65    3.28
  10 -32 -12    4.51    2.24
 -12 -10 -32    5.56    2.64
 -10 -12 -32   11.67    3.31
 -12  10 -32   12.31    3.54
 -10  12 -32    8.29    2.80
 -32 -12 -10   28.65    6.15
 -32 -10 -12   -1.11    5.98
 -12 -32 -12    7.91    3.02
  12 -32 -12    2.87    2.07
 -12 -12 -32    6.18    2.70
  12 -12 -32    7.81    2.86
 -12  12 -32   11.50    3.77
 -32 -12 -12    8.64    5.62
 -14 -32   0   11.59    3.10
   0 -32 -14    3.72    2.13
   0 -14 -32    0.39    2.06
 -14   0 -32   11.89    2.81
  14   0 -32   11.46    2.82
 -14 -32   0   -0.47    4.47
 -14 -32   2   14.52    3.39
  14 -32  -2   14.91    3.63
 -14 -32  -2   17.61    2.31
  -2 -32 -14    5.94    2.10
   2 -32 -14   17.58    2.12
  -2 -14 -32   16.06    4.35
   2 -14 -32   11.17    2.89
 -14  -2 -32   17.92    2.31
 -14   2 -32   12.01    2.81
  14  -2 -32   14.87    3.22
  14   2 -32   16.51    4.43
 -32 -14  -2   10.00    3.77
 -14 -32   2   10.69    5.36
 -14 -32  -2   23.06    5.58
 -14 -32   4   31.26    3.26
 -32 -14  -4   30.69    3.17
  14 -32  -4   28.68    2.99
 -14 -32  -4   31.57    3.08
  -4 -32 -14   29.03    2.90
   4 -32 -14   31.15    2.89
  -4 -14 -32   31.72    2.92
 -14  -4 -32   29.27    2.80
   4 -14 -32   27.26    2.74
 -14   4 -32   31.95    2.89
  14  -4 -32   34.61    2.81
 -32 -14  -4   20.15    4.60
 -14 -32   4   21.31    4.47
 -14 -32  -4   33.12    6.08
 -32 -14  -6   40.40    3.44
  14 -32  -6   40.76    3.44
 -14 -32  -6   39.80    3.40
  -6 -32 -14   35.61    2.99
   6 -32 -14   40.24    3.35
  -6 -14 -32   47.80    3.67
 -14  -6 -32   39.49    3.28
   6 -14 -32   47.79    3.69
 -14   6 -32   33.06    3.03
  14  -6 -32   46.95    3.54
 -14 -32   6   28.05    4.38
 -32 -14  -6   31.10    5.04
 -32  -6 -14   44.37    7.01
 -14 -32  -6   58.94    7.26
 -32 -14  -8   30.68    3.06
 -14 -32  -8   21.32    2.60
  14 -32  -8   27.47    2.72
  -8 -32 -14   26.61    2.70
   8 -32 -14   35.29    3.06
  -8 -14 -32   27.15    2.59
 -14  -8 -32   26.92    2.79
   8 -14 -32   33.95    2.95
  14  -8 -32   22.82    2.31
 -14   8 -32   28.96    2.79
  -8  14 -32   21.24    2.36
 -32 -14  -8   12.03    6.39
 -32  -8 -14   38.42    6.59
 -14 -32  -8   25.66    5.51
 -32 -14 -10    9.86    3.42
 -14 -32 -10    9.25    3.35
  14 -32 -10   11.12    3.67
 -10 -32 -14   14.17    4.46
  10 -32 -14    9.46    3.29
 -10 -14 -32    6.08    2.47
 -14 -10 -32   11.68    3.72
  10 -14 -32   18.69    2.52
  14 -10 -32    6.34    2.60
 -14  10 -32   10.76    3.61
 -10  14 -32    5.75    2.60
 -32 -14 -10    1.87    5.66
 -32 -10 -14   17.84    7.18
 -14 -32 -10   23.19    5.61
 -32 -14 -12    7.35    2.86
 -14 -32 -12    4.43    2.20
  14 -32 -12    6.31    2.63
 -12 -32 -14    3.83    2.32
  12 -32 -14    6.44    2.65
 -14 -12 -32    3.77    2.21
 -12 -14 -32   -0.26    1.82
  12 -14 -32    3.32    1.89
  14 -12 -32    5.20    2.20
 -14  12 -32    2.20    2.11
 -12  14 -32    1.74    2.15
 -32 -14 -12   -6.13    5.88
 -32 -12 -14    4.60    6.30
 -14 -32 -14    4.07    2.00
  14 -32 -14    3.75    2.12
 -14 -14 -32   -1.84    2.09
  14 -14 -32    2.69    1.96
 -14  14 -32   -0.44    1.84
 -32 -14 -14    6.96    5.83
 -16 -32   0   22.76    2.76
   0 -32 -16   14.65    4.07
   0 -16 -32   22.08    2.34
 -16   0 -32   19.69    2.24
  16   0 -32   20.20    2.42
 -32 -16   0   20.16    3.59
 -16 -32   0   18.01    6.92
 -16 -32   2   31.19    2.98
 -16 -32  -2   27.83    2.76
  -2 -32 -16   28.69    2.77
   2 -32 -16   25.68    2.52
  -2 -16 -32   24.30    2.62
   2 -16 -32   27.38    2.72
 -16  -2 -32   29.95    2.86
 -16   2 -32   31.43    2.92
  16  -2 -32   24.95    2.39
  16   2 -32   39.85    3.24
 -32 -16  -2   24.74    4.05
 -16 -32   2   18.39    7.15
 -16 -32  -2   18.06    7.04
 -16 -32   4   52.74    4.22
 -32 -16  -4   57.36    4.37
 -16 -32  -4   44.33    3.51
  -4 -32 -16   51.87    3.92
   4 -32 -16   54.54    4.05
  -4 -16 -32   42.45    3.43
   4 -16 -32   47.51    3.55
 -16  -4 -32   49.48    3.84
 -16   4 -32   40.52    3.25
  16  -4 -32   49.90    3.62
 -16 -32   4   44.55    5.30
 -32 -16  -4   47.27    5.85
 -16 -32  -4   57.83    7.58
 -32 -16  -6   53.99    5.36
 -16 -32  -6   63.64    5.94
  -6 -32 -16   54.77    5.18
   6 -32 -16   63.74    6.14
  -6 -16 -32   60.09    5.65
 -16  -6 -32   63.09    5.86
   6 -16 -32   56.17    5.20
 -16   6 -32   58.83    5.63
  16  -6 -32   53.50    5.07
 -16 -32   6   41.47    4.97
 -16 -32  -6   49.19    7.37
 -32 -16  -8   39.17    4.14
 -16 -32  -8   42.71    4.36
  -8 -32 -16   37.38    4.16
   8 -32 -16   39.59    4.08
  -8 -16 -32   42.79    4.30
 -16  -8 -32   42.17    4.14
   8 -16 -32   38.12    3.91
  16  -8 -32   41.79    4.17
 -16   8 -32   37.67    3.98
 -32 -16  -8   27.24    5.67
 -32  -8 -16   41.69    7.87
 -16 -32  -8   56.62    7.55
 -32 -16 -10   14.40    3.56
 -16 -32 -10   19.96    2.65
 -10 -32 -16   21.61    2.93
  10 -32 -16   18.32    4.17
 -10 -16 -32   10.84    2.84
 -16 -10 -32   17.61    4.45
  10 -16 -32   21.50    2.78
  16 -10 -32   15.51    3.67
 -16  10 -32   19.61    4.40
 -10  16 -32   18.51    4.22
 -32 -16 -10   33.79    8.64
 -32 -10 -16   13.18    7.71
 -16 -32 -10   32.56    6.49
 -32 -16 -12   12.49    3.39
 -16 -32 -12   10.67    2.98
 -12 -32 -16    6.50    2.48
  12 -32 -16   11.64    3.05
 -12 -16 -32   15.63    3.74
 -16 -12 -32    1.83    1.84
  12 -16 -32    5.95    2.27
  16 -12 -32    8.97    3.55
 -16  12 -32    7.94    2.63
 -12  16 -32   11.09    2.89
 -32 -16 -12   20.87    6.21
 -32 -12 -16    5.83    7.06
 -16 -32 -12   22.47    6.51
 -32 -16 -14    8.30    2.21
 -16 -32 -14   14.89    2.19
 -14 -32 -16   10.67    2.04
  14 -32 -16    5.93    2.14
 -16 -14 -32    7.08    2.12
 -14 -16 -32    9.71    2.19
  14 -16 -32    3.40    2.03
  16 -14 -32    4.74    2.01
 -16  14 -32    5.28    2.17
 -14  16 -32   -0.29    2.13
 -32 -16 -14    1.39    5.71
 -32 -14 -16   -3.68    5.40
 -18 -32   0   33.13    3.79
   0 -32 -18   36.31    3.83
   0 -18 -32   31.64    3.48
 -18   0 -32   31.82    3.38
  18   0 -32   34.28    3.63
 -32 -18   0   27.95    4.11
 -18 -32   0   31.44    6.22
 -18 -32   2   46.44    4.65
 -18 -32  -2   37.61    4.05
  -2 -32 -18   35.31    3.62
   2 -32 -18   35.28    3.76
  -2 -18 -32   35.33    3.66
   2 -18 -32   43.37    4.29
 -18  -2 -32   28.39    3.30
 -18   2 -32   39.28    3.93
  18  -2 -32   39.67    3.99
  18   2 -32   40.76    4.11
 -32 -18  -2   29.65    5.35
 -18 -32   2   32.49    5.85
 -18 -32  -2   51.83    7.33
 -32 -18  -4   60.91    5.83
 -18 -32  -4   63.13    6.03
  -4 -32 -18   52.50    5.07
   4 -32 -18   50.56    5.03
  -4 -18 -32   50.67    4.90
   4 -18 -32   51.77    4.94
 -18  -4 -32   54.34    5.20
 -18   4 -32   55.83    5.38
  18  -4 -32   57.35    5.28
 -18 -32   4   37.94    5.63
 -32 -18  -4   46.82    6.04
 -18 -32  -4   62.11    8.07
 -32 -18  -6   64.98    6.30
 -18 -32  -6   71.19    6.61
  -6 -32 -18   63.42    5.99
   6 -32 -18   66.72    6.15
  -6 -18 -32   59.92    5.61
 -18  -6 -32   60.81    5.85
   6 -18 -32   60.38    5.67
 -18   6 -32   71.00    6.69
  18  -6 -32   61.07    5.75
 -18 -32   6   52.86    5.71
 -32 -18  -6   61.85    7.81
 -32 -18  -8   40.28    4.10
 -18 -32  -8   49.33    4.91
  -8 -32 -18   51.95    5.05
   8 -32 -18   42.71    4.22
  -8 -18 -32   41.95    4.44
 -18  -8 -32   42.69    4.35
   8 -18 -32   53.40    5.03
 -18   8 -32   42.21    5.00
  18  -8 -32   52.81    5.09
 -32 -18  -8   36.77    7.06
 -18 -32  -8   25.54    6.41
 -32  -8 -18   37.49    7.02
 -32 -18 -10   26.36    3.22
 -18 -32 -10   22.30    2.81
 -10 -32 -18   29.80    3.45
  10 -32 -18   27.48    3.26
 -10 -18 -32   23.65    3.01
 -18 -10 -32   27.09    3.24
  10 -18 -32   31.17    3.43
  18 -10 -32   27.95    3.10
 -18  10 -32   28.19    3.17
 -32 -18 -10   17.76    7.05
 -18 -32 -10   21.54    5.80
 -32 -10 -18   30.11    6.77
 -32 -18 -12   15.95    2.50
 -18 -32 -12   18.66    2.65
 -12 -32 -18   22.52    2.75
  12 -32 -18   14.76    2.37
 -12 -18 -32   13.82    2.18
 -18 -12 -32   10.71    2.04
  12 -18 -32   15.53    2.14
  18 -12 -32   22.18    2.67
 -18  12 -32   16.77    2.54
 -12  18 -32   10.66    2.40
 -32 -18 -12    8.99    6.26
 -32 -12 -18   13.98    6.33
 -18 -32 -12   12.00    5.66
 -20 -32   0   21.91    2.87
   0 -32 -20   24.67    2.89
   0 -20 -32   21.04    2.66
 -20   0 -32   19.86    2.64
  20   0 -32   25.52    2.93
 -32 -20   0   14.64    4.37
 -20 -32   0   24.84    5.63
 -20 -32   2   34.92    4.03
 -20 -32  -2   39.82    4.12
  -2 -32 -20   25.82    2.99
   2 -32 -20   31.23    3.48
  -2 -20 -32   25.17    2.94
   2 -20 -32   30.80    3.30
 -20  -2 -32   25.03    3.11
 -20   2 -32   26.75    3.22
  20  -2 -32   28.50    3.27
  20   2 -32   26.05    3.11
 -32 -20  -2   30.30    5.24
 -20 -32   2   15.43    5.52
 -20 -32  -2   37.27    6.87
 -32 -20  -4   47.73    4.87
 -20 -32  -4   39.85    4.26
  -4 -32 -20   43.62    4.41
   4 -32 -20   42.98    4.25
  -4 -20 -32   40.69    4.24
   4 -20 -32   40.59    4.18
 -20  -4 -32   38.38    4.07
 -20   4 -32   39.39    4.28
  20  -4 -32   48.37    4.74
 -20 -32   4   39.81    5.66
 -32 -20  -4   47.63    6.44
 -20 -32  -4   29.30    7.00
 -32 -20  -6   41.71    3.83
 -20 -32  -6   50.78    5.24
  -6 -32 -20   56.25    4.68
   6 -32 -20   50.38    4.49
  -6 -20 -32   47.83    4.15
 -20  -6 -32   50.63    4.32
   6 -20 -32   51.03    4.33
 -20   6 -32   48.73    4.38
  20  -6 -32   47.69    4.09
 -20 -32   6   37.69    4.04
 -32 -20  -6   36.80    5.72
 -20 -32  -6   27.74    6.25
 -32 -20  -8   36.05    3.46
 -20 -32  -8   32.17    3.17
  -8 -32 -20   35.64    3.38
  -8 -20 -32   32.51    3.09
 -20  -8 -32   29.51    3.09
   8 -20 -32   39.81    3.62
  20  -8 -32   32.82    3.24
 -32 -20  -8   51.04    7.13
 -20 -32  -8   26.88    5.63
 -32 -20 -10   14.94    2.52
 -20 -32 -10   18.95    2.46
 -10 -32 -20   28.86    3.03
  10 -32 -20   14.15    2.33
 -10 -20 -32   16.02    2.47
 -20 -10 -32   12.42    2.32
  10 -20 -32   17.08    2.44
  20 -10 -32   21.27    2.63
 -32 -20 -10   35.78    7.07
 -20 -32 -10    8.98    5.56
 -32 -10 -20   20.43    7.96
 -22 -32   0    9.38    2.47
   0 -32 -22    3.17    2.06
   0 -22 -32    8.52    2.06
 -22   0 -32    0.58    1.77
  22   0 -32    6.71    1.80
 -32 -22   0   10.30    3.73
 -22 -32   0   10.78    5.18
 -22 -32   2    7.79    2.44
 -22 -32  -2   12.03    2.45
  -2 -32 -22    9.42    2.60
   2 -32 -22    5.33    2.19
  -2 -22 -32    9.83    2.14
   2 -22 -32    4.48    1.87
  22  -2 -32    5.68    2.42
  22   2 -32    4.64    2.95
 -32 -22  -2   21.52    5.15
 -22 -32   2    5.05    3.94
 -22 -32  -2   10.46    5.45
 -32 -22  -4   17.30    2.69
 -22 -32  -4   15.44    2.61
  -4 -32 -22   15.65    3.21
  -4 -22 -32   15.09    2.15
   4 -22 -32   15.86    2.39
 -22  -4 -32   13.16    2.35
  22  -4 -32   16.19    2.17
 -22 -32   4   12.65    3.40
 -32 -22  -4    6.14    4.97
 -22 -32  -4   23.24    5.36
   1 -33   1    7.34    2.11
  -1 -33   1   13.10    2.35
   1 -33  -1    7.56    2.05
  -1 -33  -1    4.45    1.84
  -1  -1 -33    7.09    1.76
   1  -1 -33   10.68    1.80
  -1   1 -33    6.31    1.94
   1   1 -33   13.58    2.08
   1 -33   1   -0.87    4.34
  -1 -33   1    4.02    5.25
   1 -33  -1    7.07    4.83
   1 -33   3   11.31    2.08
  -1 -33   3   -0.04    1.84
   3 -33   1    2.67    2.06
  -3 -33   1    0.56    2.21
   3 -33  -1    1.10    1.99
  -3 -33  -1    3.15    2.08
  -1 -33  -3    7.84    2.05
   1 -33  -3    2.17    2.08
  -1  -3 -33    1.92    1.63
  -3  -1 -33    1.15    1.86
   1  -3 -33    2.38    1.86
  -3   1 -33    3.99    1.98
   3  -1 -33    7.30    1.79
  -1   3 -33    5.77    1.93
   3   1 -33    3.65    1.70
   1   3 -33    5.97    1.95
  -1 -33   3    4.48    5.52
   1 -33   3    4.02    3.74
  -3 -33   1    5.55    4.76
   3 -33   1    8.17    4.54
   3 -33  -1    2.04    4.96
  -3 -33  -1   -1.35    5.02
   1 -33  -3    6.23    4.62
  -1 -33  -3    2.25    4.86
   3 -33   3   10.66    2.26
  -3 -33   3   11.81    2.94
  -3 -33  -3   12.78    2.22
   3 -33  -3   17.20    2.36
  -3  -3 -33   11.40    2.14
   3  -3 -33    7.26    1.96
  -3   3 -33   10.96    2.21
   3   3 -33    9.36    2.03
   3 -33   3    9.13    4.18
  -3 -33   3   15.19    4.76
  -3 -33  -3    1.11    4.90
   3 -33  -3   19.15    4.69
   5 -33   1   18.60    2.53
  -5 -33   1   21.37    2.73
   5 -33  -1   15.63    2.41
  -5 -33  -1   16.70    2.29
  -1 -33  -5   18.96    2.44
   1 -33  -5   19.72    2.42
  -1  -5 -33   16.91    2.25
   1  -5 -33   16.83    2.14
  -5  -1 -33   18.44    2.37
  -5   1 -33   18.33    2.74
   5  -1 -33   22.15    2.44
   5   1 -33   17.87    2.28
  -1   5 -33   21.43    2.47
   1   5 -33   16.20    2.27
  -1 -33   5   13.52    4.50
   1 -33   5   12.96    3.64
   5 -33   1   18.58    4.53
  -5 -33   1   10.24    5.21
  -5 -33  -1    8.07    5.30
   5 -33  -1   19.58    5.36
  -1 -33  -5   16.05    4.85
   1 -33  -5    6.09    4.76
   5 -33   3   38.89    3.85
  -5 -33   3   41.78    3.62
   5 -33  -3   30.65    2.99
  -5 -33  -3   38.08    3.38
   3 -33  -5   37.61    3.13
  -3 -33  -5   43.71    3.59
  -3  -5 -33   37.43    3.25
  -5  -3 -33   30.95    2.76
   3  -5 -33   32.02    2.95
   5  -3 -33   28.26    2.74
  -5   3 -33   25.52    2.49
  -3   5 -33   34.38    3.06
   5   3 -33   31.67    2.94
   3   5 -33   30.41    2.76
   3 -33   5   26.52    3.99
  -3 -33   5   17.91    4.22
   5 -33   3   28.84    4.86
  -5 -33   3   33.35    5.40
  -5 -33  -3   34.55    6.08
   5 -33  -3   38.58    6.00
  -3 -33  -5   37.69    5.50
   3 -33  -5   32.72    5.03
  -5 -33   5   75.53    5.50
  -5 -33  -5   61.64    4.56
   5 -33  -5   65.90    4.81
  -5  -5 -33   64.40    4.66
   5  -5 -33   61.32    4.47
  -5   5 -33   63.65    4.54
   5   5 -33   66.36    4.87
   5 -33   5   55.68    5.46
  -5 -33   5   67.97    6.35
  -5 -33  -5   64.84    6.41
   5 -33  -5   58.49    5.65
   7 -33   1   22.10    2.44
  -7 -33   1   24.44    2.76
   7 -33  -1   16.03    2.16
  -7 -33  -1   18.56    2.51
   1 -33  -7    9.20    2.16
  -1 -33  -7   16.31    2.15
  -1  -7 -33   13.73    2.17
   1  -7 -33   27.23    2.68
  -7  -1 -33   16.70    2.13
  -7   1 -33   19.91    2.39
   7  -1 -33   23.18    2.52
   7   1 -33   24.59    2.56
  -1   7 -33   16.07    2.14
   1   7 -33   16.12    2.39
   1 -33   7   11.24    2.78
  -1 -33   7   12.15    2.82
   7 -33   1   17.84    4.40
  -7 -33   1   27.97    5.57
  -7 -33  -1   26.63    5.61
   7 -33  -1   12.43    5.11
  -7 -33   3   40.47    3.55
   7 -33  -3   32.61    2.91
  -7 -33  -3   25.15    2.75
   3 -33  -7   39.43    3.40
  -3 -33  -7   32.90    2.92
  -3  -7 -33   31.43    2.91
  -7  -3 -33   29.65    2.84
   3  -7 -33   35.26    3.12
  -7   3 -33   34.92    2.95
   7  -3 -33   29.67    2.78
  -3   7 -33   25.38    2.68
   7   3 -33   36.76    3.17
   3   7 -33   43.88    3.59
  -3 -33   7   33.28    3.78
   7 -33   3   31.25    4.78
  -7 -33   3   27.57    4.99
  -7 -33  -3   27.53    6.10
   7 -33  -3   27.82    5.32
  -7 -33   5   66.01    4.98
   7 -33  -5   72.78    5.25
  -7 -33  -5   61.64    4.53
  -5 -33  -7   70.00    5.25
   5 -33  -7   75.68    5.51
  -5  -7 -33   62.34    4.47
  -7  -5 -33   65.68    4.88
   5  -7 -33   58.33    4.20
   7  -5 -33   53.51    3.91
  -7   5 -33   67.18    4.89
  -5   7 -33   67.69    5.15
   7   5 -33   61.33    4.65
 -33  -7  -5   56.88    5.42
 -33  -5  -7   67.31    6.25
  -5 -33   7   68.53    5.92
  -7 -33   5   57.94    5.84
  -7 -33  -5   49.28    6.41
   7 -33  -5   62.74    6.29
  -5 -33  -7   56.59    6.16
  -7 -33  -7   81.97    5.51
   7 -33  -7   64.23    4.51
  -7  -7 -33   64.56    4.54
   7  -7 -33   67.26    4.72
  -7   7 -33   67.58    4.73
  -7 -33   7   60.06    5.02
 -33  -7  -7   63.32    5.92
  -7 -33  -7   59.45    6.73
   9 -33   1    1.97    2.14
  -9 -33   1    6.22    2.49
   9 -33  -1    6.28    2.35
  -9 -33  -1    4.36    2.18
   1 -33  -9    5.38    2.02
  -1 -33  -9    3.63    2.12
  -1  -9 -33    9.08    2.63
   1  -9 -33    5.26    2.01
  -9  -1 -33    1.84    1.96
  -9   1 -33    1.40    1.96
   9  -1 -33    6.53    2.06
   9   1 -33   10.43    2.68
  -1   9 -33    4.40    2.20
  -9 -33   1    1.70    4.47
  -9 -33  -1    1.30    5.36
  -9 -33   3   17.14    4.70
   9 -33  -3   15.96    4.44
  -9 -33  -3   16.12    4.39
   3 -33  -9   11.20    2.86
  -3 -33  -9   12.26    3.10
  -3  -9 -33    8.53    2.55
  -9  -3 -33   15.31    3.45
   3  -9 -33   12.70    2.93
  -9   3 -33   11.39    2.71
   9  -3 -33   13.82    3.19
   9   3 -33    9.21    2.57
  -3   9 -33   11.52    2.93
  -9 -33   3   21.59    4.73
   9 -33  -3    7.61    4.58
   9 -33  -5   32.90    2.99
  -9 -33  -5   43.10    3.49
   5 -33  -9   35.64    3.12
  -5 -33  -9   34.87    3.14
  -5  -9 -33   33.20    2.92
  -9  -5 -33   35.47    3.01
   5  -9 -33   30.72    2.75
   9  -5 -33   39.58    3.15
  -9   5 -33   29.40    2.61
  -5   9 -33   32.32    2.92
   9   5 -33   37.31    3.03
 -33  -9  -5   34.33    4.63
  -9 -33   5   32.94    4.34
 -33  -5  -9   31.36    5.07
  -9 -33  -5   29.75    5.71
   9 -33  -5   24.58    4.49
  -9 -33  -7   33.69    3.04
   9 -33  -7   37.60    3.20
  -7 -33  -9   40.01    3.17
   7 -33  -9   44.86    3.99
  -7  -9 -33   31.54    2.73
  -9  -7 -33   39.61    3.39
   7  -9 -33   36.20    3.06
   9  -7 -33   27.80    2.66
  -9   7 -33   30.64    2.80
  -7   9 -33   35.94    3.09
  -9 -33   7   42.39    4.55
 -33  -9  -7   29.88    4.87
 -33  -7  -9   32.50    6.53
  -9 -33  -7   35.15    5.75
  -9 -33  -9   14.69    4.05
   9 -33  -9   13.82    3.84
  -9  -9 -33   15.54    4.11
   9  -9 -33   21.45    2.36
  -9   9 -33   13.25    3.74
 -33  -9  -9   19.57    5.07
  -9 -33  -9   19.28    4.49
  11 -33   1    6.88    2.67
  11 -33  -1    4.45    2.16
 -11 -33   1    8.62    2.81
 -11 -33  -1    8.48    2.61
   1 -33 -11    6.58    2.19
  -1 -11 -33    5.69    2.24
   1 -11 -33    4.23    2.12
 -11  -1 -33    7.40    2.36
 -11   1 -33    2.47    1.93
  11  -1 -33    1.89    1.69
  11   1 -33    2.52    2.45
 -11 -33   1   -0.82    4.84
 -11 -33  -1    0.25    6.01
 -11 -33   3    1.13    2.00
  11 -33  -3    0.84    1.99
 -11 -33  -3    0.52    2.17
   3 -33 -11    7.71    2.26
  -3 -33 -11    2.63    2.09
  -3 -11 -33    4.66    2.16
   3 -11 -33   -3.06    1.90
 -11  -3 -33    0.21    1.93
 -11   3 -33   -0.74    1.74
  11  -3 -33    5.53    2.12
  11   3 -33    0.45    1.93
  -3  11 -33    1.94    2.04
 -33 -11  -3    0.16    3.01
 -11 -33   3    6.59    4.24
 -11 -33  -3   24.26    6.20
  11 -33  -5   11.91    2.98
 -11 -33  -5   10.56    2.77
  -5 -33 -11    8.45    2.59
   5 -33 -11   10.98    2.86
  -5 -11 -33   14.49    3.38
 -11  -5 -33   14.84    3.28
   5 -11 -33   16.46    4.38
 -11   5 -33    6.19    2.24
  11  -5 -33   14.01    3.21
  -5  11 -33   13.30    3.20
 -33 -11  -5   12.53    4.84
 -11 -33   5   29.52    4.75
 -33  -5 -11   18.87    5.15
 -11 -33  -5   15.71    6.54
  11 -33  -7   16.63    4.78
 -11 -33  -7   18.85    2.51
  -7 -33 -11   21.02    2.47
   7 -33 -11    8.68    2.86
  -7 -11 -33   16.72    4.40
 -11  -7 -33   16.62    4.38
   7 -11 -33   12.50    3.60
  11  -7 -33   11.30    3.31
 -11   7 -33   14.21    3.84
  -7  11 -33   11.73    3.44
 -11 -33   7   10.06    3.95
 -33 -11  -7    7.70    5.00
 -33  -7 -11    5.01    5.40
 -11 -33  -7   15.10    6.22
 -11 -33  -9    2.24    2.14
  11 -33  -9    4.47    2.23
  -9 -33 -11    6.90    2.60
   9 -33 -11    5.33    2.33
  -9 -11 -33    1.88    1.82
 -11  -9 -33    4.44    2.27
   9 -11 -33    3.97    2.06
  11  -9 -33    7.23    2.51
 -11   9 -33    4.37    2.15
  -9  11 -33    3.94    2.18
 -33 -11  -9   10.53    5.73
 -33  -9 -11    3.53    4.56
 -11 -33  -9   -9.12    4.17
 -11 -33 -11    2.38    1.91
  11 -33 -11    2.47    1.98
 -11 -11 -33    3.96    3.10
  11 -11 -33    7.62    2.81
 -11  11 -33   -0.10    2.02
 -33 -11 -11   10.14    6.55
  13 -33  -1    5.76    2.50
 -13 -33   1   12.40    3.83
 -13 -33  -1    3.80    2.15
   1 -33 -13    1.20    2.03
  -1 -33 -13    0.90    1.81
  -1 -13 -33    5.17    2.14
   1 -13 -33    4.86    2.29
 -13  -1 -33    0.22    2.04
 -13   1 -33    5.18    2.35
  13  -1 -33    6.35    2.26
  13   1 -33   -2.08    1.93
 -13 -33   1   -2.05    5.03
 -13 -33  -1   23.54    5.41
 -13 -33   3    2.45    2.43
  13 -33  -3   -0.12    2.08
 -13 -33  -3   -0.78    2.20
   3 -33 -13    4.69    2.25
  -3 -33 -13    3.45    2.25
  -3 -13 -33   -1.53    2.11
   3 -13 -33   -0.15    1.98
 -13  -3 -33    6.50    2.49
 -13   3 -33    1.22    1.99
  13  -3 -33    1.58    1.90
  13   3 -33   -0.47    2.00
 -33 -13  -3    7.85    4.12
 -13 -33   3   -0.89    4.59
 -13 -33  -3    7.23    5.71
  13 -33  -5    8.28    2.99
 -13 -33  -5    9.01    3.03
  -5 -33 -13   12.28    3.48
   5 -33 -13   10.41    3.19
  -5 -13 -33    7.38    2.75
 -13  -5 -33    6.33    2.60
   5 -13 -33   10.68    3.23
 -13   5 -33    7.21    2.47
  13  -5 -33   14.12    3.87
 -13 -33   5    1.36    3.90
 -33 -13  -5    4.40    4.65
 -13 -33  -5   -6.15    5.87
  13 -33  -7    6.10    2.46
 -13 -33  -7   16.04    4.87
  -7 -33 -13    6.44    2.74
   7 -33 -13   11.03    3.57
  -7 -13 -33   15.28    4.73
 -13  -7 -33   18.32    5.43
   7 -13 -33    8.45    2.91
  13  -7 -33   15.81    5.22
 -13   7 -33    6.22    2.65
  -7  13 -33    5.59    2.63
 -13 -33   7    6.66    3.74
 -33 -13  -7   12.89    5.73
 -33  -7 -13   11.23    6.73
 -13 -33  -7   16.30    6.97
 -13 -33  -9    3.75    2.33
  13 -33  -9    2.44    2.62
  -9 -33 -13    5.72    2.62
   9 -33 -13    1.52    1.78
  -9 -13 -33    1.51    1.85
 -13  -9 -33    9.49    3.30
   9 -13 -33   10.55    3.43
  13  -9 -33   -2.30    1.94
 -13   9 -33    4.99    2.42
  -9  13 -33    2.14    1.85
 -33 -13  -9    3.31    4.80
 -33  -9 -13    0.49    5.76
 -13 -33  -9    2.16    4.56
 -13 -33 -11    5.24    2.55
  13 -33 -11   -0.25    2.08
 -11 -33 -13    3.12    2.02
  11 -33 -13    2.48    1.84
 -11 -13 -33    6.07    2.44
 -13 -11 -33    2.41    1.90
  11 -13 -33    3.33    2.15
  13 -11 -33    0.19    2.01
 -13  11 -33    4.14    2.32
 -11  13 -33    1.16    2.18
 -33 -13 -11  -16.04    6.30
 -33 -11 -13   12.51    6.99
 -13 -33 -11    6.95    5.32
 -13 -33 -13    6.44    2.45
  13 -33 -13    1.73    2.03
 -13 -13 -33    5.98    2.14
  13 -13 -33    1.10    1.95
 -13  13 -33    0.66    1.84
 -33 -13 -13   13.73    6.84
 -15 -33   1    5.71    2.58
 -15 -33  -1    9.95    3.56
  -1 -33 -15   -0.60    1.88
   1 -33 -15   -0.41    2.13
  -1 -15 -33    0.64    1.90
   1 -15 -33    3.98    2.27
 -15  -1 -33    6.73    2.58
 -15   1 -33    2.79    2.10
  15  -1 -33    2.97    2.08
  15   1 -33   -3.68    1.73
 -33 -15  -1   -5.86    3.20
 -15 -33   1    6.19    5.51
 -15 -33  -1  -14.01    5.52
 -15 -33   3    3.74    2.57
 -15 -33  -3    5.63    2.70
  -3 -33 -15   -0.06    2.20
   3 -33 -15    2.66    1.93
  -3 -15 -33   -4.26    2.07
   3 -15 -33    6.48    2.74
 -15  -3 -33    7.77    2.96
 -15   3 -33    0.94    1.84
  15  -3 -33    6.69    2.68
  15   3 -33   -0.10    1.84
 -33 -15  -3    1.68    3.97
 -15 -33   3    4.76    4.69
 -15 -33  -3    1.76    4.82
 -33 -15  -5   12.66    4.21
 -15 -33  -5    6.84    2.93
  -5 -33 -15   17.26    5.26
   5 -33 -15   12.46    3.94
  -5 -15 -33    5.28    2.52
 -15  -5 -33    6.15    2.50
   5 -15 -33   15.05    4.65
 -15   5 -33    9.21    3.15
  15  -5 -33   11.09    3.53
 -15 -33   5   19.52    4.50
 -15 -33  -5    1.12    4.80
 -33 -15  -7    9.78    3.64
 -15 -33  -7   15.80    5.74
  -7 -33 -15    7.71    2.85
   7 -33 -15   13.26    4.31
  -7 -15 -33   19.75    2.76
 -15  -7 -33    8.46    2.98
   7 -15 -33   10.88    3.52
 -15   7 -33    8.22    3.10
  15  -7 -33   12.80    4.07
 -15 -33   7   14.44    5.04
 -33 -15  -7   -5.99    5.07
 -15 -33  -7   -1.27    4.71
 -15 -33  -9    1.68    2.13
  -9 -33 -15    3.98    2.17
   9 -33 -15    0.84    2.01
  -9 -15 -33    4.99    2.04
 -15  -9 -33    3.16    2.08
   9 -15 -33   -1.41    2.02
  15  -9 -33    2.12    1.73
 -15   9 -33   -1.95    2.01
  -9  15 -33    2.75    2.15
 -33 -15  -9   10.96    6.02
 -33  -9 -15   -6.47    5.93
 -15 -33  -9    8.32    5.03
 -15 -33 -11    0.11    2.09
 -11 -33 -15    4.01    2.45
  11 -33 -15    0.97    1.78
 -11 -15 -33   -1.57    2.09
 -15 -11 -33    0.50    1.83
  11 -15 -33    0.37    1.77
  15 -11 -33    1.92    2.72
 -15  11 -33    5.69    2.32
 -33 -15 -11    9.23    6.65
 -33 -11 -15    4.97    6.37
 -15 -33 -11    3.93    6.19
 -15 -33 -13    3.20    1.93
 -13 -33 -15    4.66    2.18
  13 -33 -15   -0.42    2.01
 -13 -15 -33   -3.51    2.07
 -15 -13 -33   -0.51    2.05
  13 -15 -33    7.25    2.06
  15 -13 -33   -1.50    1.96
 -15  13 -33    0.32    2.07
 -13  15 -33   -3.21    2.14
 -33 -15 -13   12.12    6.49
 -33 -13 -15   -9.68    5.52
 -17 -33   1    9.99    3.65
 -17 -33  -1    3.44    2.60
   1 -33 -17    1.92    1.91
  -1 -33 -17    9.68    3.40
  -1 -17 -33    7.39    2.90
   1 -17 -33    1.66    2.14
 -17  -1 -33    8.18    3.11
 -17   1 -33    9.24    3.29
  17  -1 -33    0.20    2.09
  17   1 -33   11.47    3.73
 -33 -17  -1    2.07    3.71
 -17 -33   1   -0.13    5.03
 -17 -33  -1   12.50    6.36
 -17 -33   3   11.66    3.42
 -17 -33  -3    6.03    2.57
  -3 -33 -17   10.94    3.03
   3 -33 -17   18.71    4.24
  -3 -17 -33    8.80    2.56
   3 -17 -33   13.09    3.17
 -17  -3 -33   10.17    2.91
 -17   3 -33   14.09    3.50
  17  -3 -33   16.90    3.86
  17   3 -33    8.11    2.59
 -33 -17  -3    8.05    4.68
 -17 -33   3   18.41    6.10
 -17 -33  -3    9.40    6.16
 -33 -17  -5   30.44    3.61
 -17 -33  -5   28.73    3.33
  -5 -33 -17   17.15    4.04
   5 -33 -17   23.01    2.94
  -5 -17 -33   22.56    2.91
 -17  -5 -33   21.82    3.54
   5 -17 -33   25.21    3.04
 -17   5 -33   19.20    4.31
  17  -5 -33   15.89    3.70
 -33 -17  -5   22.66    5.02
 -17 -33  -5   12.54    6.32
 -33 -17  -7   19.45    4.59
 -17 -33  -7   24.36    3.15
  -7 -33 -17   24.69    3.10
   7 -33 -17   25.97    3.18
  -7 -17 -33   29.43    3.58
 -17  -7 -33   21.82    2.88
   7 -17 -33   21.79    2.66
 -17   7 -33   18.66    4.16
  17  -7 -33   19.09    4.16
 -33 -17  -7    3.67    5.53
 -17 -33  -7   29.66    6.13
 -33 -17  -9   10.85    3.08
 -17 -33  -9    5.23    2.17
  -9 -33 -17   18.32    4.18
   9 -33 -17   10.26    2.71
  -9 -17 -33    7.86    2.84
 -17  -9 -33    7.67    2.56
   9 -17 -33   13.85    3.28
 -17   9 -33   10.85    2.80
  -9  17 -33   11.77    3.15
 -33 -17  -9   15.40    6.57
 -17 -33  -9    1.06    4.90
 -33 -17 -11    4.93    2.16
 -17 -33 -11    1.72    1.92
 -11 -33 -17    1.58    2.07
  11 -33 -17    2.86    2.03
 -11 -17 -33    3.50    1.85
 -17 -11 -33    0.20    2.06
  17 -11 -33    4.54    1.99
 -17  11 -33    4.24    2.09
 -11  17 -33    3.78    2.20
 -33 -17 -11    0.88    5.29
 -33 -11 -17   -3.97    5.25
 -17 -33 -11   13.02    5.70
 -19 -33   1    8.33    2.67
 -19 -33  -1   18.00    4.14
   1 -33 -19   14.61    3.58
  -1 -33 -19   18.26    4.20
  -1 -19 -33   17.10    3.95
   1 -19 -33   22.97    2.96
 -19  -1 -33   10.52    2.97
 -19   1 -33   14.18    3.36
  19  -1 -33   17.38    3.87
  19   1 -33   16.67    3.86
 -33 -19  -1   16.09    4.91
 -19 -33   1   22.79    5.40
 -19 -33  -1   11.91    6.13
 -19 -33  -3   21.37    3.07
  -3 -33 -19   22.63    2.97
   3 -33 -19   26.49    3.17
  -3 -19 -33   12.35    3.25
   3 -19 -33   18.22    4.07
 -19  -3 -33   16.09    3.83
 -19   3 -33   20.71    2.84
  19  -3 -33   24.72    2.86
  19   3 -33   12.90    3.31
 -33 -19  -3   16.04    5.13
 -19 -33   3   10.76    4.99
 -19 -33  -3   18.16    6.16
 -19 -33  -5   43.70    4.02
  -5 -33 -19   31.82    3.27
   5 -33 -19   34.64    3.42
  -5 -19 -33   25.77    2.89
   5 -19 -33   32.70    3.24
 -19  -5 -33   27.35    3.05
 -19   5 -33   28.81    3.10
  19  -5 -33   35.46    3.43
 -33 -19  -5   26.47    5.52
 -19 -33  -5   20.88    5.87
 -33 -19  -7   21.72    2.68
 -19 -33  -7   34.98    4.08
  -7 -33 -19   24.85    2.85
   7 -33 -19   26.18    2.94
  -7 -19 -33   30.13    3.11
 -19  -7 -33   23.10    2.63
   7 -19 -33   25.76    2.62
 -19   7 -33   28.11    2.89
  19  -7 -33   31.46    3.37
 -33 -19  -7   12.23    5.29
 -19 -33  -7   32.15    6.35
   0 -34   0   46.67    3.81
   0   0 -34   33.30    3.02
   0 -34   0   22.96    5.13
   0 -34   2   38.29    3.42
   2 -34   0   36.03    3.27
  -2 -34   0   33.89    3.19
   0 -34  -2   23.72    2.55
   0  -2 -34   22.77    2.62
  -2   0 -34   24.45    2.59
   2   0 -34   20.55    2.29
   0   2 -34   23.05    2.58
   0 -34   2   25.82    4.94
  -2 -34   0    3.40    5.40
   2 -34   0   23.02    5.00
   0 -34  -2   14.64    5.03
   2 -34   2   14.62    3.48
   2 -34  -2   20.13    2.54
  -2 -34  -2   14.28    3.27
  -2  -2 -34   14.00    3.13
   2  -2 -34   15.03    3.46
  -2   2 -34   11.72    2.81
   2   2 -34   12.55    2.93
   2 -34   2   14.65    5.26
  -2 -34   2   -0.36    4.86
   2 -34  -2   10.71    5.13
  -2 -34  -2   11.81    5.20
   0 -34   4    2.87    2.02
   4 -34   0    1.98    2.10
  -4 -34   0    7.03    2.32
   0 -34  -4    6.11    2.15
   0  -4 -34    9.77    2.93
  -4   0 -34   11.00    2.79
   4   0 -34    6.16    2.27
   0   4 -34    6.96    2.19
   0 -34   4   -0.97    3.79
  -4 -34   0    4.15    4.49
   4 -34   0   14.41    5.67
   0 -34  -4   12.02    5.49
  -2 -34   4    3.75    2.07
   4 -34   2    0.13    2.20
  -4 -34   2   -1.79    2.27
   4 -34  -2    4.32    2.44
  -4 -34  -2    5.51    2.35
  -2 -34  -4    0.73    2.16
   2 -34  -4    1.76    2.05
  -2  -4 -34    2.70    1.77
  -4  -2 -34    0.55    2.03
   2  -4 -34   -0.49    1.90
  -4   2 -34    3.76    2.04
   4  -2 -34   -3.02    1.91
  -2   4 -34    5.02    1.99
   4   2 -34    1.69    1.97
   2   4 -34   -2.84    2.04
   2 -34   4    3.71    3.73
  -2 -34   4   -3.85    3.42
   4 -34   2    8.14    4.69
  -4 -34   2    5.95    4.50
  -4 -34  -2   10.93    5.64
   4 -34  -2    9.41    4.98
  -2 -34  -4   -7.29    4.75
   2 -34  -4   -3.84    4.53
  -4 -34   4   -0.57    2.24
   4 -34  -4   -0.79    1.97
  -4 -34  -4    3.08    2.15
  -4  -4 -34    4.98    2.16
   4  -4 -34    2.32    1.98
  -4   4 -34   -2.69    1.93
   4   4 -34    5.85    2.26
   4 -34   4    4.65    3.77
  -4 -34   4    0.60    4.00
  -4 -34  -4   -3.01    5.34
   4 -34  -4   -8.90    4.41
   6 -34   0    3.21    2.52
  -6 -34   0   10.57    2.75
   0 -34  -6   15.50    4.24
   0  -6 -34    7.70    2.43
  -6   0 -34    3.48    1.87
   6   0 -34    7.12    2.20
   0   6 -34    9.52    2.67
   0 -34   6    8.12    3.52
  -6 -34   0   10.54    5.36
   6 -34   0   -4.63    4.65
   0 -34  -6    8.32    6.49
   6 -34   2    6.33    2.24
  -6 -34   2    2.39    2.31
   6 -34  -2    0.36    2.12
  -6 -34  -2    1.29    2.17
  -2 -34  -6    4.93    2.18
   2 -34  -6    8.29    2.50
  -2  -6 -34   -2.69    1.95
  -6  -2 -34    5.71    2.03
   2  -6 -34    4.70    1.93
  -6   2 -34    1.29    1.95
   6  -2 -34    0.95    1.94
   6   2 -34   11.45    2.77
  -2   6 -34    3.70    2.08
   2   6 -34    7.43    2.47
   2 -34   6    0.46    3.23
  -2 -34   6    0.89    3.33
   6 -34   2   -1.12    4.49
  -6 -34   2   -2.75    4.78
  -6 -34  -2   -2.66    5.06
   6 -34  -2    7.64    5.22
  -2 -34  -6    4.45    4.67
   2 -34  -6   -4.33    4.34
   6 -34  -4    8.26    2.81
  -6 -34  -4   14.35    3.26
  -4 -34  -6    8.40    2.41
   4 -34  -6   14.02    3.34
  -4  -6 -34    7.22    2.38
  -6  -4 -34    9.28    2.48
   4  -6 -34   11.40    2.90
  -6   4 -34    8.67    2.54
  -4   6 -34   11.48    2.75
   6   4 -34    7.49    2.40
   4   6 -34   10.99    2.92
   4 -34   6    3.86    2.61
  -4 -34   6    4.60    4.82
   6 -34   4   10.57    4.23
  -6 -34   4    5.82    4.60
  -6 -34  -4   14.29    5.65
   6 -34  -4    7.71    5.23
  -4 -34  -6   12.30    5.26
   4 -34  -6   10.09    4.59
   6 -34  -6   30.69    2.88
  -6 -34  -6   26.42    2.72
  -6  -6 -34   22.93    2.52
   6  -6 -34   19.78    2.37
  -6   6 -34   19.34    3.10
   6   6 -34   22.59    2.37
  -6 -34   6   12.06    4.18
  -6 -34  -6   27.40    4.83
   6 -34  -6   23.39    4.70
   8 -34   0    2.50    2.08
  -8 -34   0    7.41    2.59
   0 -34  -8    4.45    1.94
   0  -8 -34   -0.16    2.04
  -8   0 -34    6.74    2.31
   8   0 -34    4.02    2.04
   0   8 -34    5.36    2.61
  -8 -34   0   11.19    5.41
   8 -34   2    2.92    2.19
  -8 -34   2    0.49    2.19
   8 -34  -2    1.00    2.08
  -8 -34  -2   -1.48    2.22
  -2 -34  -8    3.86    1.89
   2 -34  -8    0.98    2.00
  -2  -8 -34    4.48    1.90
   2  -8 -34    7.18    2.33
  -8  -2 -34   -2.55    1.74
  -8   2 -34    3.53    1.98
   8  -2 -34    5.60    2.11
   8   2 -34    7.90    2.43
  -2   8 -34    3.47    2.07
   2   8 -34    0.10    1.85
  -8 -34   2    7.08    4.95
   8 -34  -2   -7.43    4.95
  -8 -34   4    0.20    2.28
   8 -34  -4    9.21    2.99
  -8 -34  -4    3.06    2.20
   4 -34  -8    8.68    2.87
  -4 -34  -8    3.69    2.19
  -4  -8 -34    2.56    2.10
  -8  -4 -34    3.29    1.90
   4  -8 -34    2.85    1.82
  -8   4 -34    9.49    3.01
   8  -4 -34   -0.16    1.73
  -4   8 -34   -2.21    2.06
   8   4 -34    5.68    2.38
  -8 -34   4    5.37    3.88
   8 -34  -4    2.09    4.38
   8 -34  -6    9.85    3.11
  -8 -34  -6   14.74    4.10
   6 -34  -8   11.28    3.46
  -6 -34  -8   22.77    2.56
  -6  -8 -34    9.12    2.95
  -8  -6 -34   15.53    4.12
   6  -8 -34   12.21    3.48
   8  -6 -34   18.42    5.40
  -8   6 -34   12.95    3.69
  -6   8 -34   15.62    4.28
   8   6 -34    8.94    3.06
 -34  -8  -6    4.63    3.66
  -8 -34   6    8.45    3.72
 -34  -6  -8    7.78    4.09
  -8 -34  -6   14.84    6.57
  -6 -34  -8   16.02    6.09
   8 -34  -6    7.80    4.70
  -8 -34  -8    8.55    2.73
   8 -34  -8   10.44    3.20
  -8  -8 -34    6.29    2.31
   8  -8 -34    4.52    2.14
  -8   8 -34    8.46    2.82
 -34  -8  -8   -1.30    4.21
  -8 -34  -8   11.50    5.27
  10 -34   0   18.75    2.29
 -10 -34   0   17.31    5.33
   0 -34 -10   16.62    4.37
   0 -10 -34   16.85    4.48
 -10   0 -34   17.34    5.25
  10   0 -34   15.61    4.23
   0  10 -34   17.66    5.30
 -10 -34   0   19.80    5.32
 -10 -34   2    7.94    2.73
  10 -34  -2   10.82    3.37
 -10 -34  -2    7.39    2.60
  -2 -34 -10    3.88    2.05
   2 -34 -10    9.85    2.95
  -2 -10 -34   13.12    3.61
   2 -10 -34    8.24    2.84
 -10  -2 -34   -1.47    1.96
 -10   2 -34    8.27    2.80
  10  -2 -34    8.83    2.82
  10   2 -34    1.19    1.80
  -2  10 -34    7.77    2.79
 -10 -34   2    8.93    4.88
 -10 -34  -2    0.23    4.70
 -10 -34   4   -2.27    1.99
  10 -34  -4   -4.36    2.23
 -10 -34  -4    5.82    2.58
  -4 -34 -10    4.15    2.30
   4 -34 -10   -0.26    2.04
  -4 -10 -34    6.05    2.27
 -10  -4 -34    2.64    2.01
   4 -10 -34    0.02    1.76
 -10   4 -34    2.38    1.75
  -4  10 -34    4.78    2.34
  10   4 -34   -3.73    1.79
 -34 -10  -4    4.59    2.82
 -10 -34   4    4.84    4.49
 -10 -34  -4    9.38    5.64
  10 -34  -6    0.70    1.99
 -10 -34  -6    3.52    2.32
   6 -34 -10    1.50    1.80
  -6 -34 -10    3.96    2.30
  -6 -10 -34   -1.76    2.05
 -10  -6 -34    2.64    2.08
   6 -10 -34    3.17    2.06
  10  -6 -34    2.55    1.91
 -10   6 -34    0.12    2.00
  -6  10 -34    3.04    2.17
 -34 -10  -6    2.56    3.84
 -10 -34   6   -1.23    3.61
 -10 -34  -6    6.78    4.87
 -10 -34  -8   -5.59    2.11
  10 -34  -8    4.10    2.38
  -8 -34 -10   -0.37    2.08
   8 -34 -10    2.99    2.18
  -8 -10 -34   -3.43    1.82
 -10  -8 -34    6.67    2.54
   8 -10 -34   -3.08    1.90
  10  -8 -34    0.92    1.89
 -10   8 -34    0.50    1.81
 -34 -10  -8   -8.79    4.67
 -34  -8 -10   10.25    5.60
 -10 -34  -8   11.24    5.93
 -10 -34 -10    4.42    2.42
  10 -34 -10    2.25    1.81
 -10 -10 -34    9.33    3.29
  10 -10 -34    8.66    3.06
 -10  10 -34    5.68    2.54
 -34 -10 -10    5.51    6.35
 -10 -34 -10   11.56    5.40
  12 -34   0   28.13    2.94
 -12 -34   0   29.56    3.02
   0 -34 -12   29.98    3.29
   0 -12 -34   23.98    2.64
 -12   0 -34   28.06    2.57
  12   0 -34   24.92    2.42
 -12 -34   0   29.77    5.49
 -12 -34   2   20.77    2.49
  12 -34  -2   24.15    3.44
 -12 -34  -2   13.25    3.89
  -2 -34 -12   21.35    2.51
   2 -34 -12   14.29    4.00
  -2 -12 -34   15.41    4.22
   2 -12 -34   17.50    5.27
 -12  -2 -34   14.08    3.94
 -12   2 -34   26.17    2.66
  12  -2 -34   23.66    2.42
  12   2 -34   19.32    2.17
 -12 -34   2   13.84    5.41
 -12 -34  -2   17.65    7.14
 -12 -34   4    3.19    2.49
  12 -34  -4    2.14    2.59
 -12 -34  -4    6.52    2.84
   4 -34 -12    0.94    1.86
  -4 -34 -12    7.32    2.87
  -4 -12 -34   10.69    3.59
 -12  -4 -34    5.09    2.27
   4 -12 -34    7.54    2.89
 -12   4 -34    2.11    2.19
  12  -4 -34    8.06    2.81
  -4  12 -34   10.49    3.58
  12   4 -34    4.51    2.45
 -12 -34   4   16.66    6.03
 -12 -34  -4    4.60    5.62
 -12 -34  -6    2.44    2.21
  -6 -34 -12    6.09    2.49
   6 -34 -12    7.25    2.87
  -6 -12 -34    0.52    2.13
 -12  -6 -34    2.53    1.88
   6 -12 -34    1.97    1.81
  12  -6 -34    5.16    2.36
 -12   6 -34    9.94    3.40
  -6  12 -34   10.25    3.55
 -12 -34   6   -1.81    3.11
 -34 -12  -6   13.98    5.52
 -12 -34  -6    1.97    6.10
  12 -34  -8    8.97    3.20
 -12 -34  -8    4.97    2.56
  -8 -34 -12    3.59    2.06
   8 -34 -12    4.97    2.41
  -8 -12 -34   -0.29    1.89
 -12  -8 -34    6.04    2.61
   8 -12 -34    1.57    2.23
  12  -8 -34    4.08    2.18
 -12   8 -34    1.96    2.09
  -8  12 -34    8.43    3.09
 -34 -12  -8   -0.60    5.09
 -34  -8 -12    6.31    5.58
 -12 -34  -8    6.12    5.55
 -12 -34 -10   11.96    3.42
  12 -34 -10    5.47    2.53
 -10 -34 -12   10.38    2.93
  10 -34 -12    7.27    2.31
 -12 -10 -34    5.05    2.06
 -10 -12 -34    7.73    2.32
  10 -12 -34   16.54    3.80
  12 -10 -34    6.52    2.35
 -12  10 -34   10.49    2.92
 -10  12 -34    5.53    2.34
 -34 -12 -10   18.17    6.04
 -34 -10 -12   11.00    5.26
 -12 -34 -10   10.57    5.77
 -12 -34 -12   14.11    3.41
  12 -34 -12   17.95    4.22
 -12 -12 -34   16.98    4.00
  12 -12 -34   16.12    3.76
 -12  12 -34   16.21    3.87
 -34 -12 -12   24.78    6.48
 -14 -34   0   24.74    3.04
   0 -34 -14   13.35    4.37
   0 -14 -34   17.72    4.08
 -14   0 -34   14.02    4.31
  14   0 -34   18.05    2.42
 -14 -34   0   24.33    5.68
 -14 -34   2   17.72    4.24
 -14 -34  -2   22.85    3.08
   2 -34 -14    8.29    3.10
  -2 -34 -14    8.73    3.20
  -2 -14 -34   17.18    5.24
   2 -14 -34   12.64    4.06
 -14  -2 -34   10.74    3.62
  14  -2 -34   14.99    4.63
  14   2 -34   12.88    4.13
 -14 -34   2   12.13    5.48
 -14 -34  -2    2.00    5.65
 -14 -34   4    5.34    2.57
 -14 -34  -4    4.37    2.33
  -4 -34 -14   -6.47    2.13
   4 -34 -14    3.59    2.29
  -4 -14 -34    0.44    1.90
 -14  -4 -34    0.43    1.84
   4 -14 -34    7.44    2.90
 -14   4 -34   -4.45    2.11
  14  -4 -34   -0.34    2.05
  14   4 -34   -1.45    1.86
 -34 -14  -4    4.36    3.71
 -14 -34   4    1.74    4.22
 -14 -34  -4   -0.68    6.45
 -14 -34  -6   -1.91    2.21
  -6 -34 -14   -1.91    2.15
   6 -34 -14    1.35    2.12
  -6 -14 -34    5.80    2.15
 -14  -6 -34    3.45    2.13
   6 -14 -34    3.12    2.09
 -14   6 -34   -3.57    2.08
  14  -6 -34    3.52    1.80
  -6  14 -34    1.63    2.22
 -14 -34   6   -5.82    3.63
 -34 -14  -6   13.93    4.87
 -14 -34  -6    7.31    5.09
 -14 -34  -8    4.91    2.42
  -8 -34 -14    3.72    2.18
   8 -34 -14   -2.11    1.85
  -8 -14 -34   -1.33    1.84
 -14  -8 -34    1.65    1.82
   8 -14 -34    2.78    2.04
  14  -8 -34    2.96    1.85
 -14   8 -34   -3.21    1.81
  -8  14 -34   -3.73    2.10
 -34 -14  -8   -3.72    5.55
 -14 -34  -8   20.70    5.04
 -14 -34 -10    8.57    2.54
 -10 -34 -14    8.37    2.70
  10 -34 -14    4.99    2.30
 -10 -14 -34   11.60    3.13
 -14 -10 -34    8.07    2.60
  10 -14 -34    3.04    2.05
  14 -10 -34    8.94    2.65
 -14  10 -34    0.07    2.07
 -10  14 -34    8.00    2.46
 -34 -14 -10    3.60    5.83
 -34 -10 -14    6.75    6.52
 -14 -34 -10   10.51    5.75
 -14 -34 -12   12.82    2.45
 -12 -34 -14   15.14    2.48
  12 -34 -14    9.56    2.26
 -14 -12 -34    9.75    1.98
 -12 -14 -34   14.53    2.41
  12 -14 -34   14.10    2.26
  14 -12 -34   13.50    2.07
 -14  12 -34    8.32    1.98
 -34 -14 -12   17.89    7.54
 -34 -12 -14   16.77    6.38
 -14 -34 -12   22.60    4.95
 -16 -34   0   -2.10    2.09
   0 -34 -16    3.71    2.20
   0 -16 -34   -2.85    2.14
 -16   0 -34   -1.77    1.82
  16   0 -34    1.76    2.00
 -16 -34   0    1.17    5.29
 -16 -34   2   -5.70    2.49
 -16 -34  -2    5.36    2.30
  -2 -34 -16    1.83    2.14
   2 -34 -16    1.78    1.85
  -2 -16 -34    2.82    2.36
   2 -16 -34    1.93    1.85
 -16  -2 -34    5.40    2.09
 -16   2 -34    4.93    2.25
  16  -2 -34    1.67    2.04
  16   2 -34   -2.67    2.02
 -34 -16  -2    2.33    2.91
 -16 -34   2   -7.57    4.24
 -16 -34  -2   -8.93    5.36
 -16 -34  -4   -0.53    2.03
  -4 -34 -16   -1.51    1.88
   4 -34 -16   -3.45    2.08
  -4 -16 -34    5.04    2.31
 -16  -4 -34   -1.34    2.11
 -16   4 -34   -0.30    2.08
  16   4 -34    1.14    1.82
 -34 -16  -4   -3.68    3.60
 -16 -34   4   -2.85    4.40
 -16 -34  -6    2.30    2.21
  -6 -34 -16   -0.32    2.12
   6 -34 -16    0.62    2.16
  -6 -16 -34    6.11    2.21
 -16  -6 -34    2.36    1.89
   6 -16 -34    3.94    2.17
 -16   6 -34    0.17    2.09
  16  -6 -34    1.47    1.93
 -16 -34   6   -3.34    3.40
 -34 -16  -6    5.94    4.72
 -16 -34  -6   -0.95    5.62
 -16 -34  -8    3.38    1.90
  -8 -34 -16   -0.64    1.83
   8 -34 -16    1.60    1.99
  -8 -16 -34   -5.97    2.08
   8 -16 -34    0.20    1.98
 -16   8 -34    2.43    2.03
  16  -8 -34   -8.63    1.95
  -8  16 -34   -1.38    1.86
 -34 -16  -8    0.25    5.49
 -16 -34  -8  -17.67    5.45
 -16 -34 -10    2.91    1.94
 -10 -34 -16   -6.24    2.12
  10 -34 -16   -5.73    2.01
 -10 -16 -34   -0.88    2.10
 -16 -10 -34   -2.83    2.06
  10 -16 -34    0.31    2.01
  16 -10 -34   -2.33    1.73
 -16  10 -34    5.10    1.88
 -10  16 -34   -3.34    2.11
 -34 -16 -10    5.54    6.55
 -16 -34 -10    5.95    5.34
 -18 -34   0   -0.65    2.07
   0 -34 -18    5.60    2.15
   0 -18 -34    0.88    2.11
 -18   0 -34   -2.06    2.10
  18   0 -34    4.34    2.01
 -18 -34   0   13.43    4.73
 -18 -34   2    7.54    2.24
 -18 -34  -2    2.20    2.35
  -2 -34 -18    1.09    1.81
   2 -34 -18    8.77    2.13
  -2 -18 -34    3.00    2.09
   2 -18 -34    4.63    2.07
 -18  -2 -34    5.11    2.16
 -18   2 -34    3.60    1.81
  18  -2 -34   -5.14    1.99
  18   2 -34   -1.03    1.96
 -34 -18  -2    6.74    3.28
 -18 -34   2    4.13    4.11
 -18 -34  -2    2.99    5.37
 -18 -34  -4   -2.79    2.28
  -4 -34 -18    0.61    2.25
   4 -34 -18    2.99    1.79
  -4 -18 -34    2.12    1.82
   4 -18 -34    1.26    1.81
 -18  -4 -34    0.01    1.79
 -18   4 -34    6.83    2.17
  18  -4 -34    8.96    2.09
  18   4 -34    4.63    2.06
 -34 -18  -4    3.46    3.90
 -18 -34   4    9.97    4.52
 -18 -34  -4    5.09    5.50
 -18 -34  -6    8.89    2.11
  -6 -34 -18    7.28    2.17
   6 -34 -18    8.66    1.94
  -6 -18 -34   11.34    2.06
 -18  -6 -34    6.28    1.97
   6 -18 -34   12.61    2.22
  18  -6 -34    1.87    1.97
 -18 -34   6    5.06    3.12
 -34 -18  -6   17.12    5.39
 -18 -34  -6   12.22    5.12
  -1 -35   1   93.38    6.50
   1 -35   1   88.07    5.96
  -1 -35  -1   98.15    6.59
   1 -35  -1   93.75    6.23
  -1  -1 -35   78.85    5.34
   1  -1 -35   81.12    5.57
  -1   1 -35   76.37    5.20
   1   1 -35   88.53    5.82
  -1 -35   1   59.71    6.36
   1 -35   1   73.58    6.92
   1 -35  -1   78.03    7.33
  -1 -35  -1   80.96    7.14
   1 -35   3   46.34    3.67
  -1 -35   3   46.52    3.66
   3 -35   1   46.40    4.29
  -3 -35   1   48.27    3.88
   3 -35  -1   52.80    4.06
  -3 -35  -1   53.60    4.12
  -1 -35  -3   52.15    4.03
   1 -35  -3   54.85    3.97
  -1  -3 -35   48.50    3.69
   1  -3 -35   51.88    3.83
  -3  -1 -35   55.84    4.02
  -3   1 -35   47.60    3.68
   3  -1 -35   52.44    3.79
   3   1 -35   48.12    3.55
  -1   3 -35   50.56    3.83
   1   3 -35   47.18    3.67
  -1 -35   3   55.66    5.51
   3 -35   1   46.73    6.46
  -3 -35   1   51.68    6.00
   3 -35  -1   39.47    5.84
  -3 -35  -1   28.49    8.10
   1 -35  -3   45.70    5.47
  -1 -35  -3   51.44    6.65
   3 -35   3   20.99    2.67
  -3 -35   3   25.70    2.67
   3 -35  -3   18.17    5.49
  -3 -35  -3   26.93    2.77
  -3  -3 -35   26.32    2.63
   3  -3 -35   17.02    4.44
  -3   3 -35   26.44    2.65
   3   3 -35   24.44    2.57
   3 -35   3   23.15    4.32
  -3 -35   3   17.93    6.61
   3 -35  -3   31.23    4.72
  -3 -35  -3   29.90    5.98
   5 -35   1   28.47    2.92
  -5 -35   1   22.49    2.72
   5 -35  -1   31.72    3.12
  -5 -35  -1   30.72    2.84
  -1 -35  -5   32.11    2.98
   1 -35  -5   29.78    2.92
  -1  -5 -35   33.80    2.96
   1  -5 -35   31.62    2.94
  -5  -1 -35   30.69    2.88
  -5   1 -35   25.81    2.62
   5  -1 -35   29.24    2.62
   5   1 -35   26.86    2.52
  -1   5 -35   29.69    2.80
   1   5 -35   21.44    2.52
   1 -35   5   38.21    4.27
  -1 -35   5   34.81    4.40
   5 -35   1   14.49    5.66
  -5 -35  -1   25.99    5.79
   5 -35  -1   25.62    5.36
   1 -35  -5   33.92    5.42
  -1 -35  -5   45.12    6.44
  -5 -35   3    4.51    2.26
   5 -35  -3   10.80    3.36
  -5 -35  -3    6.25    2.58
   3 -35  -5    9.14    3.15
  -3 -35  -5    8.84    2.81
  -3  -5 -35    2.82    1.89
  -5  -3 -35   12.22    3.45
   3  -5 -35   14.93    4.11
   5  -3 -35   11.59    3.44
  -5   3 -35   13.30    3.81
  -3   5 -35   15.96    4.22
   5   3 -35   14.77    3.98
   3   5 -35   13.89    3.79
   3 -35   5    5.45    3.48
  -3 -35   5   18.61    4.20
   5 -35   3    3.74    4.18
  -5 -35   3    8.66    5.28
  -5 -35  -3    9.84    5.74
   5 -35  -3    1.39    5.04
  -3 -35  -5   12.37    5.74
   3 -35  -5   12.52    5.44
  -5 -35  -5    3.82    2.57
   5 -35  -5    3.19    1.91
  -5  -5 -35    5.83    2.21
   5  -5 -35   12.00    3.47
  -5   5 -35    8.23    2.80
   5   5 -35    5.51    2.37
  -5 -35   5    0.12    3.54
  -5 -35  -5   -4.38    5.18
   5 -35  -5   -3.17    4.49
   7 -35   1   20.82    2.69
  -7 -35   1   28.37    2.79
   7 -35  -1   19.26    2.34
  -7 -35  -1   24.79    2.74
  -1 -35  -7   24.33    2.71
   1 -35  -7   29.33    2.83
  -1  -7 -35   23.55    2.60
   1  -7 -35   28.70    2.76
  -7  -1 -35   20.55    2.27
  -7   1 -35   22.93    2.53
   7  -1 -35   22.08    2.52
   7   1 -35   31.98    2.91
  -1   7 -35   33.90    3.04
   1   7 -35   34.11    3.04
  -7 -35   1   20.46    4.83
  -7 -35  -1   19.63    5.96
  -1 -35  -7    5.56    4.76
   1 -35  -7   15.47    5.80
  -7 -35   3    8.68    3.17
   7 -35  -3    2.88    2.18
  -7 -35  -3    6.85    2.51
  -3 -35  -7    8.83    2.92
   3 -35  -7   11.69    3.51
  -3  -7 -35   10.66    3.12
  -7  -3 -35   11.37    3.42
   3  -7 -35    7.80    2.54
  -7   3 -35   11.98    3.52
   7  -3 -35   12.18    3.39
  -3   7 -35   11.49    3.41
   7   3 -35    5.96    2.26
   3   7 -35    4.30    2.30
  -3 -35   7    5.31    2.69
  -7 -35   3   13.18    5.66
  -7 -35  -3   12.81    6.06
   7 -35  -3   11.99    6.12
  -3 -35  -7   16.45    6.12
   3 -35  -7    6.52    4.66
   7 -35  -5    8.61    2.90
  -7 -35  -5   -2.00    2.21
  -5 -35  -7    5.03    2.17
   5 -35  -7    0.03    1.82
  -5  -7 -35    8.77    2.77
  -7  -5 -35    6.95    2.41
   5  -7 -35    5.78    2.19
   7  -5 -35    1.88    1.95
  -7   5 -35    6.77    2.55
  -5   7 -35    0.08    2.02
   7   5 -35    6.25    3.02
   5   7 -35    1.47    2.12
  -5 -35   7    5.66    3.69
  -7 -35   5   -0.96    4.00
  -7 -35  -5   12.78    6.11
   7 -35  -5   -0.70    6.91
  -5 -35  -7   -3.95    4.56
   5 -35  -7   16.37    5.41
   7 -35  -7    6.45    2.53
  -7 -35  -7    2.86    2.00
  -7  -7 -35   12.17    3.83
   7  -7 -35    5.14    2.22
  -7   7 -35    5.50    2.47
   7   7 -35    3.78    2.34
  -7 -35   7    2.79    2.85
 -35  -7  -7   -0.22    3.26
  -7 -35  -7    5.93    4.63
   9 -35   1   35.57    3.89
  -9 -35   1   38.21    4.00
   9 -35  -1   32.64    3.69
  -9 -35  -1   37.04    3.95
   1 -35  -9   36.06    3.79
  -1 -35  -9   38.28    3.95
  -1  -9 -35   34.50    3.52
   1  -9 -35   39.87    4.03
  -9  -1 -35   29.89    3.34
  -9   1 -35   35.53    3.59
   9  -1 -35   34.78    3.62
   9   1 -35   31.82    3.44
  -1   9 -35   30.74    3.46
   1   9 -35   43.33    4.36
  -9 -35   1   41.66    6.50
  -9 -35  -1   32.31    6.21
  -9 -35   3   16.03    5.03
   9 -35  -3   16.51    5.06
  -9 -35  -3   11.05    3.65
   3 -35  -9   14.10    4.41
  -3 -35  -9   15.74    4.76
  -3  -9 -35   15.09    4.58
  -9  -3 -35   12.89    4.01
   3  -9 -35   15.33    4.71
  -9   3 -35   13.57    4.27
   9  -3 -35   16.00    4.87
   9   3 -35   18.81    2.63
  -3   9 -35   17.18    5.22
   3   9 -35   19.40    2.77
  -9 -35   3    4.57    4.20
  -9 -35  -3   37.17    6.30
   9 -35  -5    7.44    2.90
  -9 -35  -5    3.85    2.39
   5 -35  -9    8.27    2.98
  -5 -35  -9    6.28    2.71
  -5  -9 -35    4.77    2.41
  -9  -5 -35    4.38    2.11
   5  -9 -35    9.58    3.29
   9  -5 -35    7.48    2.68
  -9   5 -35    5.38    2.52
  -5   9 -35    0.11    2.10
   9   5 -35   11.72    3.74
  -9 -35   5    9.32    4.92
  -9 -35  -5   -2.92    5.10
  -9 -35  -7   10.57    3.71
   9 -35  -7   10.24    3.62
   7 -35  -9    8.01    3.01
  -7 -35  -9   10.50    3.59
  -7  -9 -35   12.26    3.96
  -9  -7 -35    5.57    2.53
   7  -9 -35    3.80    2.22
   9  -7 -35    3.26    2.14
  -9   7 -35    7.32    2.87
  -7   9 -35    9.90    3.41
  -9 -35   7    4.73    3.53
 -35  -9  -7   -1.01    4.04
  -9 -35  -7    2.01    5.70
  -7 -35  -9    1.85    4.92
  -9 -35  -9   12.97    3.17
   9 -35  -9   13.73    3.40
  -9  -9 -35   13.71    3.37
   9  -9 -35   12.98    3.18
  -9   9 -35    9.69    2.84
 -35  -9  -9   15.51    5.89
  -9 -35  -9   21.90    5.40
  11 -35  -1   58.75    5.63
 -11 -35   1   57.19    5.83
 -11 -35  -1   65.60    6.22
   1 -35 -11   64.01    5.94
  -1 -35 -11   52.90    5.12
  -1 -11 -35   62.72    5.82
   1 -11 -35   58.45    5.48
 -11  -1 -35   55.46    5.27
 -11   1 -35   47.08    4.63
  11  -1 -35   56.00    5.17
  11   1 -35   43.42    4.20
  -1  11 -35   63.52    5.97
 -11 -35   1   44.79    7.03
 -11 -35  -1   46.07    6.81
 -11 -35   3   33.71    3.70
  11 -35  -3   24.18    3.48
 -11 -35  -3   40.83    4.25
  -3 -35 -11   29.09    3.36
   3 -35 -11   35.62    3.82
  -3 -11 -35   43.37    4.33
 -11  -3 -35   35.38    3.70
   3 -11 -35   35.03    3.56
 -11   3 -35   32.65    3.41
  11  -3 -35   37.06    3.80
  11   3 -35   36.81    3.80
  -3  11 -35   26.21    3.20
 -11 -35   3   30.43    4.88
 -11 -35  -3   28.80    5.47
  11 -35  -5   17.96    2.69
 -11 -35  -5   18.92    2.79
  -5 -35 -11   18.32    2.52
   5 -35 -11   19.32    2.71
  -5 -11 -35   18.77    2.64
 -11  -5 -35   14.04    4.32
   5 -11 -35   10.59    3.60
 -11   5 -35   18.90    2.67
  11  -5 -35   17.22    5.21
  -5  11 -35   14.00    4.43
  11   5 -35   18.52    2.50
 -35 -11  -5   18.38    4.04
 -11 -35   5    8.23    4.20
 -11 -35  -5   -0.45    4.68
  11 -35  -7   18.30    4.18
 -11 -35  -7   14.00    3.37
  -7 -35 -11   15.34    3.68
   7 -35 -11   16.01    3.86
  -7 -11 -35   12.43    3.23
 -11  -7 -35   20.21    2.39
   7 -11 -35   10.19    2.84
  11  -7 -35   13.66    3.33
 -11   7 -35   13.41    3.21
  -7  11 -35   10.95    2.87
 -11 -35   7   11.71    3.73
 -35 -11  -7   22.50    4.87
 -11 -35  -7    0.68    5.61
 -11 -35  -9   26.23    3.20
  11 -35  -9   19.62    4.30
   9 -35 -11   24.91    3.08
  -9 -35 -11   18.93    4.21
  -9 -11 -35   25.98    3.13
 -11  -9 -35   22.37    2.94
   9 -11 -35   20.79    2.58
  11  -9 -35   17.78    4.02
 -11   9 -35   16.81    3.93
  -9  11 -35   21.46    2.83
 -35 -11  -9   27.91    5.61
 -11 -35  -9   25.40    5.19
  11 -35 -11   41.03    3.81
 -11 -35 -11   39.34    3.67
 -11 -11 -35   33.19    3.09
  11 -11 -35   34.08    3.13
 -11  11 -35   39.85    3.76
 -35 -11 -11   32.85    5.57
 -11 -35 -11   33.59    5.38
 -13 -35   1   62.65    6.04
 -13 -35  -1   60.48    6.07
   1 -35 -13   57.47    5.42
  -1 -35 -13   58.56    5.60
  -1 -13 -35   55.07    5.23
   1 -13 -35   61.95    5.88
 -13  -1 -35   57.43    5.92
 -13   1 -35   58.65    5.57
  13  -1 -35   62.63    5.88
  13   1 -35   57.96    5.49
 -13 -35   1   55.69    7.40
 -13 -35  -1   41.68    6.60
 -13 -35   3   40.59    4.23
 -13 -35  -3   39.27    4.15
  -3 -35 -13   35.18    3.68
   3 -35 -13   38.61    4.06
  -3 -13 -35   30.48    3.48
   3 -13 -35   30.66    3.53
 -13  -3 -35   43.69    4.48
 -13   3 -35   36.09    3.85
  13  -3 -35   32.06    3.49
  13   3 -35   36.23    3.80
  -3  13 -35   31.03    3.59
 -13 -35   3   45.31    6.26
 -13 -35  -3   34.80    6.45
 -13 -35  -5   19.84    2.77
  -5 -35 -13   18.39    4.11
   5 -35 -13   23.66    3.03
  -5 -13 -35   14.71    3.62
 -13  -5 -35   22.04    2.73
   5 -13 -35   19.00    4.30
 -13   5 -35   18.25    4.06
  13  -5 -35   22.41    2.87
  -5  13 -35   24.50    3.14
  13   5 -35   15.42    3.77
 -35 -13  -5   22.63    4.42
 -13 -35   5   22.47    4.63
 -13 -35  -5   27.54    6.20
 -13 -35  -7   15.12    3.81
  -7 -35 -13   14.87    3.64
   7 -35 -13   19.84    2.45
  -7 -13 -35   20.54    2.84
 -13  -7 -35   28.41    3.33
   7 -13 -35   21.60    2.64
  13  -7 -35   22.88    2.71
 -13   7 -35   11.12    2.89
  -7  13 -35   26.07    3.17
 -13 -35   7    8.65    3.22
 -35 -13  -7   19.23    5.60
 -13 -35  -7    7.27    9.57
 -13 -35  -9   19.27    2.69
  -9 -35 -13   28.76    3.09
   9 -35 -13   24.98    3.11
  -9 -13 -35   20.13    2.60
 -13  -9 -35   24.19    2.62
   9 -13 -35   20.09    2.56
  13  -9 -35   23.94    2.70
 -13   9 -35   23.93    2.81
  -9  13 -35   28.70    3.11
 -35 -13  -9   28.03    5.74
 -13 -35  -9   23.53    6.06
 -13 -35 -11   44.73    4.03
 -11 -35 -13   36.59    3.42
  11 -35 -13   35.07    3.45
 -11 -13 -35   40.99    3.63
 -13 -11 -35   31.45    3.24
  11 -13 -35   39.88    3.62
  13 -11 -35   30.48    3.08
 -13  11 -35   37.51    3.43
 -11  13 -35   36.40    3.52
 -35 -13 -11   25.63    7.33
 -35 -11 -13   31.24    7.73
 -13 -35 -11   26.73    5.86
 -15 -35   1   27.48    3.53
 -15 -35  -1   33.81    3.87
   1 -35 -15   28.37    3.19
  -1 -35 -15   18.78    4.33
  -1 -15 -35   25.80    3.13
   1 -15 -35   27.74    3.29
 -15  -1 -35   28.34    3.15
 -15   1 -35   37.60    4.01
  15  -1 -35   28.00    3.08
  15   1 -35   23.44    2.98
 -15 -35   1   20.46    4.90
 -15 -35  -1   43.10    6.67
 -15 -35   3   11.43    3.35
 -15 -35  -3   13.06    3.49
  -3 -35 -15   17.47    4.06
   3 -35 -15   20.60    2.84
  -3 -15 -35   10.03    2.94
   3 -15 -35   16.29    3.87
 -15  -3 -35   16.02    3.82
 -15   3 -35   17.83    4.12
  15  -3 -35   15.47    3.67
  15   3 -35   20.49    2.82
 -35 -15  -3    6.99    3.49
 -15 -35   3    4.21    3.91
 -15 -35  -3   22.43    6.51
 -15 -35  -5   12.35    2.17
  -5 -35 -15    8.19    2.27
   5 -35 -15   10.09    2.03
  -5 -15 -35   10.92    2.27
 -15  -5 -35    7.08    1.92
   5 -15 -35    8.75    2.12
 -15   5 -35   13.76    2.40
  15  -5 -35   12.21    2.19
  15   5 -35    8.75    2.21
  -5  15 -35    5.69    1.99
 -35 -15  -5   11.28    4.01
 -15 -35   5    0.17    3.81
 -15 -35  -7    4.52    2.22
  -7 -35 -15    9.32    2.30
   7 -35 -15    8.82    2.17
 -15  -7 -35    4.36    1.82
   7 -15 -35    9.08    1.91
 -15   7 -35   10.10    2.27
  15  -7 -35    4.10    2.06
  -7  15 -35   11.51    2.37
 -35 -15  -7    8.76    4.28
 -15 -35  -7   -0.48    6.05
 -17 -35  -1    4.31    2.26
   1 -35 -17    3.94    2.12
  -1 -35 -17    5.30    1.93
  -1 -17 -35   11.00    2.23
   1 -17 -35    9.68    2.18
 -17  -1 -35    7.41    2.21
 -17   1 -35    8.91    1.98
  17  -1 -35    6.77    2.04
  17   1 -35   10.70    2.20
 -17 -35   1    8.55    4.39
 -17 -35  -1    7.51    4.86
 -17 -35  -3    3.87    2.33
  -3 -35 -17    6.82    1.90
   3 -35 -17    5.50    2.27
  -3 -17 -35   -0.05    1.82
   3 -17 -35   -1.13    1.98
 -17  -3 -35    9.51    2.28
 -17   3 -35    2.76    2.11
  17  -3 -35    6.34    2.07
  17   3 -35    2.59    2.01
 -35 -17  -3    6.47    3.78
 -17 -35   3    0.72    4.06
 -17 -35  -3   -6.43    7.83
   0 -36   0  151.94   42.31
   0   0 -36  135.03    8.68
   0 -36   0  137.36   10.48
   0 -36   2   96.97    6.71
   2 -36   0  114.31    7.45
  -2 -36   0  109.60    7.28
   0 -36  -2  101.71    6.90
   0  -2 -36   85.69    5.75
  -2   0 -36   99.62    6.62
   2   0 -36   99.81    6.49
   0   2 -36  106.42    6.95
   0 -36   2   96.81    7.64
  -2 -36   0  110.78    9.25
   2 -36   0  104.56    8.67
   0 -36  -2  116.02    9.49
   2 -36   2   87.55    5.93
  -2 -36   2   80.83    5.50
   2 -36  -2   86.61    5.97
  -2 -36  -2   80.80    5.64
  -2  -2 -36   89.07    5.92
   2  -2 -36   82.01    5.47
  -2   2 -36   85.08    5.69
   2   2 -36   85.14    5.71
   2 -36   2   80.20    7.29
  -2 -36   2   70.42    7.24
   2 -36  -2   73.59    6.81
  -2 -36  -2   83.86    8.24
   4 -36   0   72.05    6.70
  -4 -36   0   65.60    6.16
   0 -36  -4   73.13    6.60
   0  -4 -36   77.93    7.03
  -4   0 -36   74.29    6.72
   4   0 -36   69.72    6.39
   0   4 -36   75.84    6.88
   0 -36   4   65.63    7.09
   4 -36   0   60.24    8.73
  -4 -36   0   52.08    8.19
   0 -36  -4   70.75    8.11
   4 -36   2   52.77    5.51
  -4 -36   2   62.12    5.79
   4 -36  -2   52.75    5.13
  -4 -36  -2   53.50    5.18
  -2 -36  -4   55.60    5.32
   2 -36  -4   60.95    5.80
  -2  -4 -36   53.10    4.96
  -4  -2 -36   52.33    4.99
   2  -4 -36   53.01    4.95
  -4   2 -36   46.56    4.56
   4  -2 -36   51.92    4.94
  -2   4 -36   51.92    4.97
   4   2 -36   57.05    5.26
   2   4 -36   49.74    4.72
   2 -36   4   49.84    5.96
  -2 -36   4   48.84    6.01
   4 -36   2   38.51    5.51
  -4 -36   2   63.86    7.49
  -4 -36  -2   49.74    6.49
   4 -36  -2   42.28    6.71
   2 -36  -4   56.22    7.29
  -2 -36  -4   46.00    8.17
  -4 -36   4   29.94    3.53
   4 -36  -4   34.66    3.65
  -4 -36  -4   31.89    3.58
  -4  -4 -36   30.53    3.39
   4  -4 -36   31.69    3.41
  -4   4 -36   33.54    3.61
   4   4 -36   29.27    3.33
   4 -36   4   35.17    4.89
  -4 -36  -4   52.88    6.75
   4 -36  -4   36.01    5.95
   6 -36   0   53.35    5.39
  -6 -36   0   55.67    5.28
   0 -36  -6   55.64    5.22
   0  -6 -36   48.42    4.70
  -6   0 -36   54.10    5.15
   6   0 -36   53.85    5.10
   0   6 -36   57.07    5.39
   0 -36   6   52.39    5.65
  -6 -36   0   45.31    6.47
   0 -36  -6   67.44    8.56
   6 -36   2   48.49    4.86
  -6 -36   2   41.56    4.23
   6 -36  -2   39.04    4.07
  -6 -36  -2   37.97    3.91
  -2 -36  -6   44.51    4.46
   2 -36  -6   32.72    3.46
  -2  -6 -36   39.18    3.88
  -6  -2 -36   38.18    3.82
   2  -6 -36   41.25    4.03
  -6   2 -36   44.00    4.25
   6  -2 -36   43.31    4.29
  -2   6 -36   46.80    4.58
   6   2 -36   41.91    4.09
   2   6 -36   45.03    4.47
   2 -36   6   35.67    4.86
  -2 -36   6   38.18    4.89
  -6 -36   2   32.73    5.68
  -6 -36  -2   37.03    5.79
  -2 -36  -6   33.28    6.19
   2 -36  -6   26.33    5.24
  -6 -36   4   15.13    4.84
   6 -36  -4   25.46    3.13
  -6 -36  -4    9.20    3.34
  -4 -36  -6   21.56    2.92
   4 -36  -6   19.92    2.82
  -4  -6 -36   22.30    2.88
  -6  -4 -36   25.33    3.05
   4  -6 -36   31.67    3.41
   6  -4 -36   21.78    2.73
  -6   4 -36   22.54    2.71
  -4   6 -36   17.83    2.43
   6   4 -36   22.25    2.90
   4   6 -36   25.85    2.98
  -4 -36   6   18.74    3.76
  -6 -36   4   19.35    4.63
  -6 -36  -4   15.68    6.69
  -4 -36  -6   19.59    5.30
   4 -36  -6   13.84    6.16
   6 -36  -6   12.44    4.08
  -6 -36  -6    9.61    3.41
  -6  -6 -36   16.82    5.12
   6  -6 -36   21.41    2.61
  -6   6 -36   19.50    2.67
   6   6 -36   14.01    4.35
  -6 -36   6   19.65    3.87
  -6 -36  -6   24.98    7.74
   6 -36  -6   20.30    4.94
   8 -36   0   64.98    6.15
  -8 -36   0   56.98    5.48
   0 -36  -8   47.16    4.66
   0  -8 -36   48.55    4.71
  -8   0 -36   56.13    5.31
   8   0 -36   57.35    5.28
   0   8 -36   55.31    5.26
  -8 -36   0   31.74    5.88
   0 -36  -8   43.13    6.25
  -8 -36   2   36.41    3.86
   8 -36  -2   44.51    4.50
  -8 -36  -2   35.23    3.88
  -2 -36  -8   39.05    3.92
   2 -36  -8   39.95    4.12
  -2  -8 -36   36.51    3.83
   2  -8 -36   48.50    4.58
  -8  -2 -36   44.97    4.33
   8  -2 -36   44.83    4.30
   8   2 -36   45.63    4.38
  -2   8 -36   53.94    5.14
   2   8 -36   48.89    4.79
  -8 -36   2   39.17    6.20
  -8 -36  -2   27.66    5.85
  -2 -36  -8   34.33    6.02
   2 -36  -8   40.00    5.50
  -8 -36   4   24.70    3.20
   8 -36  -4   23.54    3.02
  -8 -36  -4   19.14    2.77
  -4 -36  -8   27.41    3.09
   4 -36  -8   18.44    2.67
  -4  -8 -36   25.64    3.08
  -8  -4 -36   23.00    2.75
   4  -8 -36   28.00    3.21
  -8   4 -36   23.40    2.93
   8  -4 -36   25.02    3.00
  -4   8 -36   23.16    2.76
   8   4 -36   17.64    4.06
   4   8 -36   26.72    3.05
  -8 -36   4   25.56    4.72
  -8 -36  -4   14.38    6.78
  -4 -36  -8   27.68    5.03
   8 -36  -6   22.06    2.95
  -8 -36  -6   22.07    2.94
   6 -36  -8   16.99    3.95
  -6 -36  -8   14.19    3.55
  -6  -8 -36   23.73    2.95
  -8  -6 -36   22.59    2.89
   6  -8 -36   19.82    2.34
   8  -6 -36   19.33    4.42
  -8   6 -36   11.31    2.89
  -6   8 -36   22.37    2.87
   8   6 -36   23.51    2.98
   6   8 -36   22.36    2.80
  -8 -36   6   19.28    5.34
  -8 -36  -6   13.07    5.28
  -6 -36  -8   27.29    5.69
   8 -36  -8   18.09    4.04
  -8 -36  -8   26.66    3.26
  -8  -8 -36   20.85    2.66
   8  -8 -36   12.83    3.22
  -8   8 -36   22.53    2.90
   8   8 -36   15.63    3.81
  -8 -36  -8   13.29    5.84
  10 -36   0   75.75    7.20
 -10 -36   0   77.31    7.28
   0 -36 -10   86.10    7.82
   0 -10 -36   69.84    6.39
 -10   0 -36   81.30    7.41
  10   0 -36   88.98    8.05
   0  10 -36   84.25    7.67
 -10 -36   0   82.23    9.38
 -10 -36   2   70.54    6.65
  10 -36  -2   70.32    6.65
 -10 -36  -2   70.20    6.58
   2 -36 -10   73.41    6.80
  -2 -36 -10   55.64    5.27
  -2 -10 -36   62.61    5.88
   2 -10 -36   64.13    6.03
 -10  -2 -36   65.44    6.23
 -10   2 -36   63.67    6.05
  10  -2 -36   63.70    6.01
  10   2 -36   67.99    6.27
  -2  10 -36   59.84    5.61
   2  10 -36   77.87    7.17
 -10 -36   2   47.75    7.22
 -10 -36  -2   57.25    7.13
  10 -36  -4   43.10    4.44
 -10 -36  -4   35.67    3.89
   4 -36 -10   49.58    5.09
  -4 -36 -10   35.84    3.83
  -4 -10 -36   43.65    4.42
 -10  -4 -36   50.18    4.88
   4 -10 -36   41.83    4.22
 -10   4 -36   40.29    4.15
  10  -4 -36   40.40    4.09
  -4  10 -36   35.92    3.73
  10   4 -36   35.12    3.78
 -10 -36   4   28.62    5.00
 -10 -36  -4   36.90    6.03
  10 -36  -6   26.70    3.22
 -10 -36  -6   21.26    2.93
   6 -36 -10   27.21    3.27
  -6 -36 -10   24.18    3.09
  -6 -10 -36   29.41    3.36
 -10  -6 -36   28.66    3.32
   6 -10 -36   35.15    3.73
  10  -6 -36   25.82    3.11
 -10   6 -36   29.54    3.37
  -6  10 -36   29.69    3.44
  10   6 -36   35.77    3.88
 -36 -10  -6   19.65    5.04
 -10 -36   6   34.85    4.77
 -10 -36  -6   26.31    6.00
  -6 -36 -10   29.61    5.58
  10 -36  -8   20.21    2.44
 -10 -36  -8   36.26    3.85
  -8 -36 -10   33.60    3.20
   8 -36 -10   32.24    3.26
  -8 -10 -36   31.04    4.65
 -10  -8 -36   29.11    3.08
   8 -10 -36   28.17    2.75
  10  -8 -36   33.26    3.20
 -10   8 -36   39.91    3.65
  -8  10 -36   21.21    2.66
 -36 -10  -8   25.38    4.67
 -10 -36  -8   18.88    5.63
  -8 -36 -10   25.33    5.47
 -10 -36 -10   42.56    3.71
  10 -36 -10   39.19    3.80
 -10 -10 -36   48.62    4.25
  10 -10 -36   45.90    3.97
 -10  10 -36   42.79    3.87
 -10 -36 -10   42.92    6.37
 -12 -36   0  107.41    8.36
   0 -36 -12   98.39    7.58
   0 -12 -36  100.08    7.61
 -12   0 -36   86.67    8.06
  12   0 -36   90.74    8.23
   0  12 -36   97.77    7.55
 -12 -36   0   71.57    8.07
 -12 -36   2   81.25    7.54
 -12 -36  -2   82.48    7.73
   2 -36 -12   76.86    7.14
  -2 -36 -12   80.20    7.27
  -2 -12 -36   80.10    7.30
   2 -12 -36   79.83    7.20
 -12  -2 -36   79.40    7.35
 -12   2 -36   87.01    7.95
  12  -2 -36   77.43    7.06
  12   2 -36   78.94    7.29
  -2  12 -36   85.27    7.93
 -12 -36  -2   60.50    7.86
 -12 -36  -4   51.98    5.32
  -4 -36 -12   56.19    5.42
   4 -36 -12   54.28    5.29
  -4 -12 -36   56.55    5.43
 -12  -4 -36   55.41    5.32
   4 -12 -36   49.49    4.73
 -12   4 -36   47.32    4.72
  12  -4 -36   50.62    4.90
  12   4 -36   46.33    4.50
  -4  12 -36   54.80    5.21
 -12 -36   4   36.66    5.51
 -12 -36  -4   31.71    5.81
 -12 -36  -6   43.22    3.83
   6 -36 -12   38.81    3.65
  -6 -36 -12   39.54    3.71
  -6 -12 -36   36.84    3.52
 -12  -6 -36   36.22    3.31
   6 -12 -36   43.70    3.74
 -12   6 -36   39.48    3.67
  12  -6 -36   40.72    3.65
  -6  12 -36   36.14    3.53
  12   6 -36   46.95    4.13
 -12 -36   6   25.90    3.63
 -36 -12  -6   44.42    4.95
 -12 -36  -6   47.63    6.52
 -12 -36  -8   42.18    3.91
  -8 -36 -12   37.38    3.40
   8 -36 -12   42.71    3.93
  -8 -12 -36   45.66    4.03
 -12  -8 -36   36.43    3.34
   8 -12 -36   45.21    3.82
  12  -8 -36   35.48    3.35
 -12   8 -36   45.43    4.02
  -8  12 -36   36.69    3.44
 -36 -12  -8   59.56    6.78
 -12 -36  -8   44.90    6.87
 -14 -36   0   69.74    5.60
   0 -36 -14   63.59    5.21
   0 -14 -36   67.30    5.29
 -14   0 -36   68.12    6.45
  14   0 -36   62.05    4.94
 -14 -36   0   66.01    7.51
 -14 -36   2   73.69    6.06
 -14 -36  -2   64.76    5.39
   2 -36 -14   52.10    4.45
  -2 -36 -14   57.34    4.78
  -2 -14 -36   61.05    4.99
   2 -14 -36   58.81    4.84
 -14  -2 -36   59.41    4.78
 -14   2 -36   53.02    4.49
  14  -2 -36   54.82    4.44
  14   2 -36   46.41    4.08
 -14 -36   2   38.56    5.60
 -14 -36  -2   62.04    7.65
 -14 -36  -4   30.04    3.32
   4 -36 -14   29.30    3.23
  -4 -36 -14   41.08    3.65
  -4 -14 -36   31.79    3.08
 -14  -4 -36   33.61    3.18
   4 -14 -36   28.49    2.81
 -14   4 -36   39.85    3.74
  14  -4 -36   31.53    3.15
  14   4 -36   26.77    2.99
  -4  14 -36   36.20    3.57
 -36 -14  -4   41.64    4.75
 -14 -36   4   26.84    4.69
 -14 -36  -4   32.13    9.67
 -14 -36  -6   24.31    2.79
  -6 -36 -14   27.58    3.06
   6 -36 -14   31.36    3.28
  -6 -14 -36   27.63    2.82
 -14  -6 -36   31.86    3.23
   6 -14 -36   31.80    3.22
 -14   6 -36   25.68    2.74
  14  -6 -36   23.84    2.72
  -6  14 -36   30.02    3.19
  14   6 -36   26.62    3.03
 -14 -36   6   23.85    3.60
 -36 -14  -6   30.76    5.00
 -14 -36  -6   21.78    6.37
   1 -37   1  107.19   21.26
  -1 -37   1  117.96   23.35
  -1 -37  -1  120.75   23.83
   1 -37  -1  104.42   20.72
  -1  -1 -37  101.89    9.17
   1  -1 -37  110.72   21.88
  -1   1 -37  100.60    8.90
   1   1 -37  101.99    9.97
  -1 -37   1  102.80   20.93
   1 -37   1   91.56    9.57
  -1 -37  -1   77.34    8.97
   1 -37  -1   83.98    9.10
  -1 -37   3   91.51    8.51
   1 -37   3   77.59    7.14
   3 -37   1   85.05    7.78
  -3 -37   1   87.26    7.89
   3 -37  -1   79.12    7.34
  -3 -37  -1   80.03    7.47
  -1 -37  -3   77.45    7.02
   1 -37  -3   89.41    7.94
  -1  -3 -37   81.67    7.39
   1  -3 -37   80.10    7.22
  -3  -1 -37   84.44    7.60
  -3   1 -37   74.56    6.73
   3  -1 -37   72.94    6.62
  -1   3 -37   94.28    8.41
   3   1 -37   91.08    8.16
   1   3 -37   76.15    6.98
   1 -37   3   85.87    8.72
  -1 -37   3   86.72    9.00
   3 -37   1   71.40    8.30
  -3 -37   1   76.97    8.65
  -3 -37  -1   52.10    7.31
   3 -37  -1   74.97    8.35
   1 -37  -3   57.15    7.55
  -1 -37  -3   77.64    9.19
  -3 -37   3   52.90    5.18
   3 -37  -3   63.26    6.14
  -3 -37  -3   74.37    6.91
  -3  -3 -37   56.27    5.39
   3  -3 -37   62.83    5.91
  -3   3 -37   56.50    5.39
   3   3 -37   60.30    5.62
   3 -37   3   55.55    6.70
  -3 -37   3   49.83   10.13
  -3 -37  -3   52.95    6.92
   3 -37  -3   54.42    7.30
   5 -37   1   55.55    5.55
  -5 -37   1   56.18    5.37
   5 -37  -1   72.71    6.85
  -5 -37  -1   58.60    5.75
   1 -37  -5   67.44    6.33
  -1 -37  -5   60.19    5.77
  -1  -5 -37   55.29    5.29
   1  -5 -37   59.60    5.54
  -5  -1 -37   64.62    5.95
  -5   1 -37   67.11    6.23
   5  -1 -37   62.44    5.87
   5   1 -37   63.48    7.75
  -1   5 -37   48.77    4.71
   1   5 -37   50.16    4.93
   1 -37   5   60.30    6.69
  -1 -37   5   55.26    6.05
  -5 -37   1   48.61    6.96
  -5 -37  -1   54.92    8.11
  -1 -37  -5   63.54    8.10
   1 -37  -5   57.57    7.41
  -5 -37   3   45.64    4.78
   5 -37  -3   35.83    3.75
  -5 -37  -3   41.53    4.31
   3 -37  -5   52.78    5.19
  -3 -37  -5   48.97    4.87
  -3  -5 -37   38.06    3.84
  -5  -3 -37   47.44    4.68
   3  -5 -37   42.69    4.20
   5  -3 -37   40.00    3.97
  -5   3 -37   51.42    5.00
  -3   5 -37   31.55    3.53
   5   3 -37   37.71    4.36
   3   5 -37   40.70    4.08
  -3 -37   5   43.45    6.14
  -5 -37   3   39.77    9.55
  -5 -37  -3   42.43    6.76
   5 -37  -3   38.81    7.41
  -3 -37  -5   15.70    6.05
   3 -37  -5   33.10    5.78
   5 -37  -5   24.97    3.05
  -5 -37  -5   24.76    2.96
  -5  -5 -37   28.16    3.27
   5  -5 -37   31.65    3.64
  -5   5 -37   28.28    3.33
   5   5 -37   26.39    3.22
  -5 -37   5   19.50    5.68
  -5 -37  -5   36.89    6.44
   5 -37  -5   23.89    5.78
   7 -37   1   53.38    5.38
   7 -37  -1   53.25    5.26
  -7 -37   1   60.49    5.98
  -7 -37  -1   52.52    5.09
  -1 -37  -7   45.28    4.45
   1 -37  -7   64.75    6.11
  -1  -7 -37   59.88    5.65
   1  -7 -37   49.70    4.76
  -7  -1 -37   54.45    5.25
  -7   1 -37   55.69    5.26
   7  -1 -37   58.12    5.42
   7   1 -37   51.44    5.01
  -1   7 -37   56.60    5.44
   1   7 -37   54.87    5.31
  -7 -37   1   36.72    6.50
  -7 -37  -1   44.68    6.81
  -1 -37  -7   58.33    7.30
  -7 -37   3   32.21    3.75
   7 -37  -3   37.56    4.61
  -7 -37  -3   38.67    4.26
   3 -37  -7   37.89    4.06
  -3 -37  -7   29.08    3.43
  -3  -7 -37   38.73    4.02
  -7  -3 -37   39.04    4.07
   3  -7 -37   37.87    3.97
  -7   3 -37   35.76    3.69
   7  -3 -37   35.71    3.63
  -3   7 -37   39.83    4.11
   7   3 -37   33.48    3.52
   3   7 -37   38.70    4.09
  -7 -37   3   31.88    5.14
  -7 -37  -3   45.54    6.85
  -3 -37  -7   35.42    6.07
   3 -37  -7   32.24    5.52
   7 -37  -5   20.78    2.99
  -7 -37  -5   23.44    2.87
  -5 -37  -7   23.26    3.02
   5 -37  -7   19.32    4.38
  -5  -7 -37   29.01    3.30
  -7  -5 -37   19.61    4.40
   5  -7 -37   31.47    3.49
   7  -5 -37   21.84    2.66
  -7   5 -37   25.28    2.92
  -5   7 -37   26.26    3.19
   7   5 -37   27.33    3.13
   5   7 -37   22.74    2.81
  -7 -37   5   24.90    4.50
  -7 -37  -5   26.74    6.08
  -5 -37  -7   20.03    5.55
   5 -37  -7   19.96    6.71
   7 -37  -7   23.08    2.95
  -7 -37  -7   23.64    2.63
  -7  -7 -37   29.11    2.85
   7  -7 -37   25.41    2.74
  -7   7 -37   20.44    2.66
   7   7 -37   21.31    2.79
  -7 -37  -7   31.32    5.89
   9 -37  -1   57.96    5.67
  -9 -37   1   73.32    6.91
  -9 -37  -1   71.28    6.69
  -1 -37  -9   51.31    4.96
   1 -37  -9   63.80    5.94
  -1  -9 -37   72.27    6.64
   1  -9 -37   61.44    5.71
  -9  -1 -37   67.49    6.29
  -9   1 -37   70.59    6.58
   9  -1 -37   66.52    6.09
   9   1 -37   63.64    5.97
  -1   9 -37   71.64    6.68
   1   9 -37   59.38    5.59
  -9 -37   1   57.75    7.38
  -9 -37  -1   49.01    6.96
  -1 -37  -9   57.46    7.80
  -9 -37   3   49.49    4.90
   9 -37  -3   50.24    5.03
  -9 -37  -3   45.20    4.62
  -3 -37  -9   44.75    4.53
   3 -37  -9   45.43    4.58
  -3  -9 -37   44.83    4.51
   3  -9 -37   43.05    4.38
  -9  -3 -37   46.63    4.64
  -9   3 -37   40.25    4.17
   9  -3 -37   38.83    4.01
   9   3 -37   48.30    4.84
  -3   9 -37   49.29    4.84
   3   9 -37   43.01    4.32
  -9 -37   3   40.41    5.57
  -9 -37  -3   48.31    6.59
  -3 -37  -9   47.40    6.57
   9 -37  -5   27.35    2.87
  -9 -37  -5   35.72    3.34
  -5 -37  -9   36.65    3.53
   5 -37  -9   28.04    3.05
  -5  -9 -37   41.06    3.74
  -9  -5 -37   34.09    3.28
   5  -9 -37   30.57    2.91
   9  -5 -37   36.58    3.25
  -9   5 -37   23.37    2.76
  -5   9 -37   32.56    3.28
   9   5 -37   33.44    3.33
   5   9 -37   42.15    3.93
  -9 -37   5   34.76    4.44
  -9 -37  -5   50.59    6.70
  -5 -37  -9   34.47    5.90
   9 -37  -7   31.82    3.28
  -9 -37  -7   23.96    2.90
  -7 -37  -9   28.08    3.13
  -7  -9 -37   37.27    3.37
  -9  -7 -37   32.27    3.09
   7  -9 -37   30.88    3.08
   9  -7 -37   28.50    2.96
  -9   7 -37   33.35    3.13
  -7   9 -37   28.63    3.07
   9   7 -37   30.22    3.22
   7   9 -37   27.51    3.12
  -9 -37  -7   27.64    6.12
  -7 -37  -9   44.57    6.22
 -11 -37   1   84.39    6.77
 -11 -37  -1   80.80    6.45
   1 -37 -11   85.93    6.83
  -1 -37 -11   85.05    6.59
  -1 -11 -37   83.77    6.48
   1 -11 -37   80.55    6.35
 -11  -1 -37   81.61    6.40
 -11   1 -37   81.49    6.65
  11  -1 -37   82.64    6.47
  11   1 -37   73.15    5.66
  -1  11 -37   84.74    6.51
   1  11 -37   82.19    6.57
 -11 -37   1   76.32    7.38
 -11 -37  -1   84.21    8.60
 -11 -37   3   68.56    5.73
 -11 -37  -3   64.72    5.30
   3 -37 -11   62.58    5.12
  -3 -37 -11   64.60    5.13
  -3 -11 -37   56.99    4.72
 -11  -3 -37   58.52    4.71
   3 -11 -37   68.43    5.43
 -11   3 -37   66.30    5.33
  11  -3 -37   59.96    4.88
  11   3 -37   67.05    5.38
  -3  11 -37   72.65    5.96
   3  11 -37   61.22    5.00
 -11 -37   3   42.25    5.13
 -11 -37  -3   58.17    7.18
 -11 -37  -5   53.93    4.62
   5 -37 -11   51.08    4.44
  -5 -37 -11   44.55    4.17
  -5 -11 -37   53.14    4.46
 -11  -5 -37   45.52    4.03
   5 -11 -37   49.38    4.21
 -11   5 -37   45.93    4.08
  11  -5 -37   51.15    4.28
  -5  11 -37   57.29    4.80
  11   5 -37   46.54    3.96
 -11 -37   5   35.89    4.95
 -11 -37  -5   48.80    7.64
   0 -38   0   79.68    7.35
   0   0 -38   67.51    6.35
   0 -38   0   77.85    8.48
   0 -38   2   59.71    6.08
   2 -38   0   57.19    5.58
  -2 -38   0   69.15    6.69
   0 -38  -2   73.45    6.84
   0  -2 -38   59.87    5.58
  -2   0 -38   62.41    5.94
   2   0 -38   69.88    6.55
   0   2 -38   55.28    5.43
  -2 -38   0   64.84    7.97
   2 -38   0   62.11    7.53
   0 -38  -2   62.54    7.68
   2 -38   2   48.04    4.81
  -2 -38   2   57.39    5.58
   2 -38  -2   52.90    5.23
  -2 -38  -2   49.60    4.91
  -2  -2 -38   59.24    5.63
   2  -2 -38   48.42    4.75
  -2   2 -38   62.38    5.78
   2   2 -38   57.31    5.46
   2 -38   2   32.97    5.24
  -2 -38   2   38.44    5.92
  -2 -38  -2   44.39    7.02
   2 -38  -2   27.70    6.19
   4 -38   0   55.33    4.62
  -4 -38   0   43.87    4.06
   0 -38  -4   51.42    4.31
   0  -4 -38   42.20    3.65
  -4   0 -38   45.46    4.00
   4   0 -38   53.77    4.39
   0   4 -38   47.43    3.98
   0 -38   4   36.90    4.77
  -4 -38   0   43.11    6.14
   0 -38  -4   60.35    7.13
  -4 -38   2   40.48    3.87
   4 -38  -2   40.40    4.07
  -4 -38  -2   41.84    3.90
  -2 -38  -4   36.45    3.58
   2 -38  -4   35.63    3.52
  -2  -4 -38   38.10    3.52
  -4  -2 -38   39.64    3.63
   2  -4 -38   29.83    3.04
  -4   2 -38   43.79    3.86
   4  -2 -38   41.58    3.71
  -2   4 -38   38.49    3.90
   4   2 -38   43.35    3.86
   2   4 -38   34.77    3.40
  -2 -38   4   25.82    4.68
  -4 -38   2   31.46    5.60
  -4 -38  -2   37.00    5.69
  -2 -38  -4   32.95    5.96
   2 -38  -4   37.40    5.91
   4 -38  -4   28.37    3.07
  -4 -38  -4   28.16    3.15
  -4  -4 -38   24.98    2.80
   4  -4 -38   29.53    2.89
  -4   4 -38   28.93    3.03
   4   4 -38   21.51    2.50
  -4 -38   4   15.25    4.17
  -4 -38  -4   18.78    5.39
   4 -38  -4   20.49    5.77
   6 -38   0   42.77    3.88
  -6 -38   0   42.87    4.01
   0 -38  -6   35.11    3.30
   0  -6 -38   41.26    3.74
  -6   0 -38   33.24    3.09
   6   0 -38   40.14    3.66
   0   6 -38   32.82    3.14
   0 -38  -6   47.63    6.40
  -6 -38   2   33.30    3.49
   6 -38  -2   32.71    3.43
  -6 -38  -2   33.06    3.22
  -2 -38  -6   30.95    3.21
   2 -38  -6   29.61    3.17
  -2  -6 -38   29.55    2.91
   2  -6 -38   28.04    2.81
  -6  -2 -38   35.34    3.41
  -6   2 -38   36.43    3.45
   6  -2 -38   34.85    3.31
  -2   6 -38   30.72    3.01
   6   2 -38   28.73    3.05
   2   6 -38   29.35    3.14
  -2 -38   6   25.35    3.51
  -6 -38   2   25.18    5.52
  -6 -38  -2   28.59    6.13
   2 -38  -6   20.18    5.31
  -2 -38  -6   34.98    6.06
   6 -38  -4   20.65    2.71
  -6 -38  -4   16.75    2.61
   4 -38  -6   17.45    2.57
  -4 -38  -6   16.09    2.32
  -4  -6 -38   20.34    2.43
  -6  -4 -38   22.71    2.53
   4  -6 -38   23.24    2.68
   6  -4 -38   26.94    2.87
  -6   4 -38   26.01    2.87
  -4   6 -38   24.14    2.80
   6   4 -38   26.42    2.92
   4   6 -38   13.50    2.40
  -4 -38   6   23.14    3.76
  -6 -38   4   22.34    7.28
  -6 -38  -4   24.18    5.81
  -4 -38  -6   16.80    5.46
   4 -38  -6   11.93    4.99
   6 -38  -6   12.61    2.40
  -6 -38  -6    7.95    2.55
  -6  -6 -38   24.68    2.80
   6  -6 -38   22.39    2.45
  -6   6 -38   17.68    2.52
   6   6 -38   21.18    2.73
  -6 -38   6   17.32    3.49
  -6 -38  -6    7.60    6.01
   8 -38   0   41.53    4.81
  -8 -38   0   43.00    4.04
   0 -38  -8   38.62    3.67
   0  -8 -38   42.91    3.82
  -8   0 -38   44.12    3.93
   8   0 -38   43.26    3.85
   0   8 -38   35.02    3.50
  -8 -38   0   44.13    6.54
   0 -38  -8   34.83    5.77
   8 -38  -2   35.47    3.58
  -8 -38  -2   31.21    3.16
  -2 -38  -8   36.02    3.49
   2 -38  -8   33.28    3.34
  -2  -8 -38   38.22    3.56
  -8  -2 -38   27.40    2.80
   2  -8 -38   32.48    3.22
  -8   2 -38   32.82    3.11
   8  -2 -38   41.47    3.71
   8   2 -38   33.81    3.16
  -2   8 -38   33.13    3.31
   2   8 -38   35.57    3.34
  -8 -38   2   34.66    5.94
  -8 -38  -2   34.23    6.55
  -2 -38  -8   45.78    6.48
   2 -38  -8   28.85    4.93
   8 -38  -4   25.41    2.78
  -8 -38  -4   21.97    2.86
   4 -38  -8   21.55    2.82
  -4 -38  -8   21.24    2.75
  -4  -8 -38   18.07    2.32
  -8  -4 -38   21.43    2.68
   4  -8 -38   22.73    2.70
   8  -4 -38   24.36    2.53
  -8   4 -38   21.61    2.67
  -4   8 -38   23.38    2.64
   8   4 -38   32.01    3.23
   4   8 -38   26.87    3.02
  -8 -38   4   13.43    3.62
  -8 -38  -4   21.91    5.83
  -4 -38  -8   10.39    5.51
   4 -38  -8   28.77    5.40
  -1 -39   1   24.49    2.97
   1 -39   1   31.04    3.15
  -1 -39  -1   31.32    3.37
   1 -39  -1   21.72    2.66
  -1  -1 -39   23.62    2.59
   1  -1 -39   31.88    3.17
  -1   1 -39   21.55    2.49
   1   1 -39   19.44    2.37
  -1 -39   1   13.40    4.71
   1 -39   1   33.13    6.51
  -1 -39  -1   24.67    5.25
   1 -39  -1   24.65    5.27
   0   0   0    0.00    0.00
;
_shelx_hkl_checksum              37694
_shelx_fab_checksum              18290
_shelx_fab_file
;
    2    2    2   -515.61      0.00
    1    3    3    129.25      0.00
    3    3    3   -198.86      0.00
    0    0    4   -501.77      0.00
    0    2    4    229.59      0.00
    2    2    4    -61.73      0.00
    0    4    4    368.02      0.00
    2    4    4     56.76      0.00
    4    4    4    -50.36      0.00
    1    1    5   -183.64      0.00
    1    3    5    118.20      0.00
    3    3    5   -138.25      0.00
    1    5    5     85.79      0.00
    3    5    5    -35.57      0.00
    5    5    5     56.01      0.00
    0    0    6     47.29      0.00
    0    2    6   -131.19      0.00
    2    2    6     27.04      0.00
    0    4    6      2.43      0.00
    2    4    6    -57.71      0.00
    4    4    6     27.35      0.00
    0    6    6     89.39      0.00
    2    6    6    -33.81      0.00
    4    6    6    -59.99      0.00
    6    6    6    -24.47      0.00
    1    1    7     62.76      0.00
    1    3    7    -39.86      0.00
    3    3    7     59.70      0.00
    1    5    7     31.74      0.00
    3    5    7    -16.18      0.00
    5    5    7     -7.26      0.00
    1    7    7    -48.01      0.00
    3    7    7    -88.80      0.00
    5    7    7     14.96      0.00
    7    7    7     19.04      0.00
    0    0    8     47.79      0.00
    0    2    8      4.24      0.00
    2    2    8     51.00      0.00
    0    4    8    -19.17      0.00
    2    4    8     16.97      0.00
    4    4    8      8.94      0.00
    0    6    8     26.84      0.00
    2    6    8    -25.60      0.00
    4    6    8     13.35      0.00
    6    6    8     27.28      0.00
    0    8    8     48.55      0.00
    2    8    8     -1.38      0.00
    4    8    8     12.21      0.00
    6    8    8      0.20      0.00
    8    8    8     -5.61      0.00
    1    1    9     31.14      0.00
    1    3    9    -74.89      0.00
    3    3    9     24.69      0.00
    1    5    9    -20.20      0.00
    3    5    9     24.10      0.00
    5    5    9     44.21      0.00
    1    7    9      4.66      0.00
    3    7    9     -1.51      0.00
    5    7    9     19.18      0.00
    7    7    9    -10.67      0.00
    1    9    9     15.43      0.00
    3    9    9      1.87      0.00
    5    9    9     -1.37      0.00
    7    9    9    -19.11      0.00
    9    9    9     15.30      0.00
    0    0   10    111.36      0.00
    0    2   10     35.99      0.00
    2    2   10    -20.32      0.00
    0    4   10    -45.34      0.00
    2    4   10    -11.95      0.00
    4    4   10     35.59      0.00
    0    6   10    -29.68      0.00
    2    6   10    -22.24      0.00
    4    6   10     30.50      0.00
    6    6   10     17.84      0.00
    0    8   10     -3.73      0.00
    2    8   10     -8.33      0.00
    4    8   10     -2.02      0.00
    6    8   10    -10.60      0.00
    8    8   10     -3.60      0.00
    0   10   10     43.57      0.00
    2   10   10     14.87      0.00
    4   10   10     -6.37      0.00
    6   10   10    -10.30      0.00
    8   10   10      2.50      0.00
   10   10   10     14.57      0.00
    1    1   11     31.11      0.00
    1    3   11     20.51      0.00
    3    3   11     -7.85      0.00
    1    5   11    -25.09      0.00
    3    5   11     13.47      0.00
    5    5   11     32.02      0.00
    1    7   11    -12.79      0.00
    3    7   11     18.20      0.00
    5    7   11      4.32      0.00
    7    7   11    -12.86      0.00
    1    9   11     23.12      0.00
    3    9   11      4.01      0.00
    5    9   11    -61.25      0.00
    7    9   11      2.82      0.00
    9    9   11     16.43      0.00
    1   11   11     -2.46      0.00
    3   11   11    -15.55      0.00
    5   11   11    -10.96      0.00
    7   11   11      2.81      0.00
    9   11   11      5.87      0.00
   11   11   11     -4.79      0.00
    0    0   12     16.35      0.00
    0    2   12      3.18      0.00
    2    2   12    -13.25      0.00
    0    4   12     -4.70      0.00
    2    4   12    -22.17      0.00
    4    4   12     17.83      0.00
    0    6   12    -12.77      0.00
    2    6   12     11.14      0.00
    4    6   12     13.99      0.00
    6    6   12    -12.67      0.00
    0    8   12     15.62      0.00
    2    8   12      5.37      0.00
    4    8   12      1.14      0.00
    6    8   12    -15.62      0.00
    8    8   12      3.57      0.00
    0   10   12      4.77      0.00
    2   10   12     -0.15      0.00
    4   10   12     -5.39      0.00
    6   10   12      6.48      0.00
    8   10   12      8.37      0.00
   10   10   12      4.83      0.00
    0   12   12     -7.43      0.00
    2   12   12      1.04      0.00
    4   12   12      4.98      0.00
    6   12   12      1.86      0.00
    8   12   12      3.95      0.00
   10   12   12     -2.28      0.00
   12   12   12    -10.95      0.00
    1    1   13    -16.41      0.00
    1    3   13    -20.86      0.00
    3    3   13    -23.07      0.00
    1    5   13     -0.32      0.00
    3    5   13     16.68      0.00
    5    5   13     -4.04      0.00
    1    7   13      0.84      0.00
    3    7   13      1.72      0.00
    5    7   13    -18.22      0.00
    7    7   13     -6.44      0.00
    1    9   13      2.02      0.00
    3    9   13     -0.88      0.00
    5    9   13      3.37      0.00
    7    9   13      6.09      0.00
    9    9   13     -5.80      0.00
    1   11   13     -6.59      0.00
    3   11   13      1.37      0.00
    5   11   13      6.72      0.00
    7   11   13      4.89      0.00
    9   11   13     -1.02      0.00
   11   11   13     -4.88      0.00
    1   13   13     -7.85      0.00
    3   13   13      5.03      0.00
    5   13   13     -1.42      0.00
    7   13   13      5.45      0.00
    9   13   13     -7.16      0.00
   11   13   13      2.52      0.00
   13   13   13      4.70      0.00
    0    0   14     -1.68      0.00
    0    2   14     -2.99      0.00
    2    2   14     -3.68      0.00
    0    4   14     12.82      0.00
    2    4   14      9.48      0.00
    4    4   14     -6.29      0.00
    0    6   14      7.03      0.00
    2    6   14      8.55      0.00
    4    6   14    -12.42      0.00
    6    6   14    -22.45      0.00
    0    8   14     -3.30      0.00
    2    8   14      0.39      0.00
    4    8   14     -9.98      0.00
    6    8   14      7.35      0.00
    8    8   14     -0.38      0.00
    0   10   14    -14.09      0.00
    2   10   14     -7.09      0.00
    4   10   14      1.81      0.00
    6   10   14      9.63      0.00
    8   10   14      3.37      0.00
   10   10   14     -2.34      0.00
    0   12   14     -9.03      0.00
    2   12   14      1.20      0.00
    4   12   14      3.59      0.00
    6   12   14      2.61      0.00
    8   12   14     -0.25      0.00
   10   12   14     -3.63      0.00
   12   12   14     -3.67      0.00
    0   14   14      5.49      0.00
    2   14   14      2.33      0.00
    4   14   14      3.19      0.00
    6   14   14     -0.34      0.00
    8   14   14      3.33      0.00
   10   14   14     -2.72      0.00
   12   14   14     -1.93      0.00
   14   14   14     -0.13      0.00
    1    1   15     14.89      0.00
    1    3   15     11.27      0.00
    3    3   15     20.27      0.00
    1    5   15     18.86      0.00
    3    5   15     -3.50      0.00
    5    5   15    -20.19      0.00
    1    7   15      5.12      0.00
    3    7   15     -1.00      0.00
    5    7   15     -6.00      0.00
    7    7   15     -3.97      0.00
    1    9   15     -7.87      0.00
    3    9   15     -2.44      0.00
    5    9   15     18.43      0.00
    7    9   15      5.81      0.00
    9    9   15      2.89      0.00
    1   11   15     -7.88      0.00
    3   11   15      0.81      0.00
    5   11   15      3.77      0.00
    7   11   15      0.91      0.00
    9   11   15     -1.26      0.00
   11   11   15     -4.55      0.00
    1   13   15     -0.75      0.00
    3   13   15      2.93      0.00
    5   13   15      2.36      0.00
    7   13   15      2.30      0.00
    9   13   15      0.11      0.00
   11   13   15     -4.44      0.00
   13   13   15      0.34      0.00
    1   15   15      1.73      0.00
    3   15   15      1.45      0.00
    5   15   15     -4.46      0.00
    7   15   15      0.74      0.00
    9   15   15     -9.60      0.00
   11   15   15      3.84      0.00
   13   15   15      3.74      0.00
   15   15   15     -1.41      0.00
    0    0   16     -0.16      0.00
    0    2   16     -9.55      0.00
    2    2   16    -11.15      0.00
    0    4   16    -17.61      0.00
    2    4   16      4.01      0.00
    4    4   16      1.78      0.00
    0    6   16      7.13      0.00
    2    6   16      3.34      0.00
    4    6   16     -5.16      0.00
    6    6   16    -13.44      0.00
    0    8   16      3.13      0.00
    2    8   16     -6.30      0.00
    4    8   16      9.18      0.00
    6    8   16      7.80      0.00
    8    8   16     -2.04      0.00
    0   10   16     -7.95      0.00
    2   10   16      1.02      0.00
    4   10   16      7.86      0.00
    6   10   16      9.95      0.00
    8   10   16     -3.61      0.00
   10   10   16     -1.49      0.00
    0   12   16      3.48      0.00
    2   12   16      0.55      0.00
    4   12   16     -0.79      0.00
    6   12   16     -1.25      0.00
    8   12   16    -13.09      0.00
   10   12   16     -4.52      0.00
   12   12   16      3.56      0.00
    0   14   16      8.03      0.00
    2   14   16      5.76      0.00
    4   14   16     -9.33      0.00
    6   14   16      0.83      0.00
    8   14   16     -0.03      0.00
   10   14   16     -4.24      0.00
   12   14   16      6.05      0.00
   14   14   16      1.48      0.00
    0   16   16     -4.72      0.00
    2   16   16     12.86      0.00
    4   16   16     -8.55      0.00
    6   16   16     -4.12      0.00
    8   16   16     -2.49      0.00
   10   16   16      3.23      0.00
   12   16   16      6.41      0.00
   14   16   16     -1.17      0.00
   16   16   16     -8.08      0.00
    1    1   17    -12.81      0.00
    1    3   17    -11.75      0.00
    3    3   17      1.19      0.00
    1    5   17      8.04      0.00
    3    5   17     -1.50      0.00
    5    5   17     -4.39      0.00
    1    7   17     -3.80      0.00
    3    7   17      0.01      0.00
    5    7   17      4.03      0.00
    7    7   17      4.19      0.00
    1    9   17     -7.09      0.00
    3    9   17      3.28      0.00
    5    9   17      7.50      0.00
    7    9   17     -2.10      0.00
    9    9   17     -4.26      0.00
    1   11   17      2.56      0.00
    3   11   17     -5.60      0.00
    5   11   17      1.26      0.00
    7   11   17     -2.97      0.00
    9   11   17     -1.32      0.00
   11   11   17      0.51      0.00
    1   13   17      7.62      0.00
    3   13   17     -7.40      0.00
    5   13   17     -2.60      0.00
    7   13   17      0.05      0.00
    9   13   17     -7.42      0.00
   11   13   17      5.72      0.00
   13   13   17     11.10      0.00
    1   15   17      2.16      0.00
    3   15   17     -3.24      0.00
    5   15   17     -6.40      0.00
    7   15   17     -1.48      0.00
    9   15   17      0.74      0.00
   11   15   17      6.72      0.00
   13   15   17      5.84      0.00
   15   15   17     -8.56      0.00
    1   17   17     -8.11      0.00
    3   17   17      0.14      0.00
    5   17   17     -2.06      0.00
    7   17   17      5.00      0.00
    9   17   17      6.88      0.00
   11   17   17     -2.93      0.00
   13   17   17     -5.06      0.00
   15   17   17     -5.72      0.00
   17   17   17      9.38      0.00
    0    0   18     -8.21      0.00
    0    2   18      8.29      0.00
    2    2   18      7.35      0.00
    0    4   18     10.64      0.00
    2    4   18      6.42      0.00
    4    4   18     -7.02      0.00
    0    6   18     -0.24      0.00
    2    6   18     -1.23      0.00
    4    6   18     -7.25      0.00
    6    6   18    -10.46      0.00
    0    8   18     -1.89      0.00
    2    8   18     -0.34      0.00
    4    8   18      6.61      0.00
    6    8   18      1.83      0.00
    8    8   18      7.12      0.00
    0   10   18     13.73      0.00
    2   10   18     -2.31      0.00
    4   10   18     -2.30      0.00
    6   10   18     -4.08      0.00
    8   10   18     -3.88      0.00
   10   10   18      3.12      0.00
    0   12   18      4.25      0.00
    2   12   18     -2.74      0.00
    4   12   18     -1.11      0.00
    6   12   18     -1.95      0.00
    8   12   18     -0.94      0.00
   10   12   18      1.23      0.00
   12   12   18      4.54      0.00
    0   14   18      2.11      0.00
    2   14   18      6.67      0.00
    4   14   18     -2.17      0.00
    6   14   18     -3.86      0.00
    8   14   18      1.45      0.00
   10   14   18      1.58      0.00
   12   14   18      3.24      0.00
   14   14   18      1.61      0.00
    0   16   18     -4.96      0.00
    2   16   18      2.55      0.00
    4   16   18      0.65      0.00
    6   16   18      2.14      0.00
    8   16   18      7.28      0.00
   10   16   18      3.68      0.00
   12   16   18     -6.05      0.00
   14   16   18     -5.30      0.00
   16   16   18     -4.38      0.00
    0   18   18     -8.06      0.00
    2   18   18     -0.07      0.00
    4   18   18     -1.42      0.00
    6   18   18      2.82      0.00
    8   18   18     -2.84      0.00
   10   18   18     -4.14      0.00
   12   18   18     -6.76      0.00
   14   18   18      4.23      0.00
   16   18   18      9.68      0.00
   18   18   18      4.70      0.00
    1    1   19      2.93      0.00
    1    3   19      2.86      0.00
    3    3   19      0.76      0.00
    1    5   19     -0.47      0.00
    3    5   19     -2.53      0.00
    5    5   19      0.04      0.00
    1    7   19     -3.31      0.00
    3    7   19      3.39      0.00
    5    7   19     -1.12      0.00
    7    7   19     -0.26      0.00
    1    9   19     -3.99      0.00
    3    9   19      3.31      0.00
    5    9   19      2.14      0.00
    7    9   19     -3.16      0.00
    9    9   19      1.81      0.00
    1   11   19      2.30      0.00
    3   11   19     -1.97      0.00
    5   11   19      1.54      0.00
    7   11   19     -2.59      0.00
    9   11   19     -0.76      0.00
   11   11   19      6.56      0.00
    1   13   19      2.66      0.00
    3   13   19     -1.45      0.00
    5   13   19     -0.76      0.00
    7   13   19     -1.77      0.00
    9   13   19      1.87      0.00
   11   13   19      4.00      0.00
   13   13   19     -0.09      0.00
    1   15   19     -7.37      0.00
    3   15   19      2.61      0.00
    5   15   19      1.93      0.00
    7   15   19      4.65      0.00
    9   15   19      6.96      0.00
   11   15   19     -2.68      0.00
   13   15   19     -8.62      0.00
   15   15   19     -6.21      0.00
    1   17   19     -5.01      0.00
    3   17   19      1.53      0.00
    5   17   19      2.39      0.00
    7   17   19      1.03      0.00
    9   17   19     -2.16      0.00
   11   17   19     -7.40      0.00
   13   17   19     -3.25      0.00
   15   17   19      2.97      0.00
   17   17   19      5.61      0.00
    1   19   19      3.21      0.00
    3   19   19      2.21      0.00
    5   19   19     -1.61      0.00
    7   19   19      3.14      0.00
    9   19   19     -6.13      0.00
   11   19   19      3.50      0.00
   13   19   19      8.14      0.00
   15   19   19      3.38      0.00
   17   19   19      0.80      0.00
   19   19   19     -8.71      0.00
    0    0   20     -0.35      0.00
    0    2   20     -0.58      0.00
    2    2   20    -11.90      0.00
    0    4   20      4.06      0.00
    2    4   20     -2.05      0.00
    4    4   20      3.09      0.00
    0    6   20     -7.47      0.00
    2    6   20     -1.65      0.00
    4    6   20     -0.28      0.00
    6    6   20      4.31      0.00
    0    8   20     -3.90      0.00
    2    8   20     -1.83      0.00
    4    8   20      3.12      0.00
    6    8   20     -3.49      0.00
    8    8   20      3.37      0.00
    0   10   20      7.17      0.00
    2   10   20    -11.95      0.00
    4   10   20      4.26      0.00
    6   10   20      4.04      0.00
    8   10   20     -0.87      0.00
   10   10   20    -22.45      0.00
    0   12   20      7.93      0.00
    2   12   20     -1.58      0.00
    4   12   20      0.05      0.00
    6   12   20      0.12      0.00
    8   12   20      0.27      0.00
   10   12   20      3.51      0.00
   12   12   20      4.16      0.00
    0   14   20     -0.31      0.00
    2   14   20     -5.20      0.00
    4   14   20     -0.37      0.00
    6   14   20      2.15      0.00
    8   14   20      1.78      0.00
   10   14   20      1.96      0.00
   12   14   20     -5.28      0.00
   14   14   20     -9.22      0.00
    0   16   20     -4.22      0.00
    2   16   20      0.45      0.00
    4   16   20      8.19      0.00
    6   16   20      4.28      0.00
    8   16   20      2.88      0.00
   10   16   20     -5.02      0.00
   12   16   20     -0.81      0.00
   14   16   20      4.83      0.00
   16   16   20      4.51      0.00
    0   18   20     -0.86      0.00
    2   18   20      3.21      0.00
    4   18   20     -2.40      0.00
    6   18   20      2.75      0.00
    8   18   20     -1.63      0.00
   10   18   20     -1.07      0.00
   12   18   20      1.78      0.00
   14   18   20      4.27      0.00
   16   18   20      0.06      0.00
   18   18   20     -2.12      0.00
    0   20   20      3.35      0.00
    2   20   20      3.19      0.00
    4   20   20     -3.33      0.00
    6   20   20     -0.10      0.00
    8   20   20     -5.75      0.00
   10   20   20      3.94      0.00
   12   20   20      1.87      0.00
   14   20   20     -0.39      0.00
   16   20   20     -8.72      0.00
   18   20   20      2.14      0.00
   20   20   20     -3.07      0.00
    1    1   21     -4.98      0.00
    1    3   21      4.58      0.00
    3    3   21     -0.94      0.00
    1    5   21     -0.76      0.00
    3    5   21     -2.74      0.00
    5    5   21      1.73      0.00
    1    7   21     -5.37      0.00
    3    7   21      1.21      0.00
    5    7   21      2.30      0.00
    7    7   21     15.57      0.00
    1    9   21      6.12      0.00
    3    9   21      7.02      0.00
    5    9   21     -0.69      0.00
    7    9   21     -4.57      0.00
    9    9   21     -0.60      0.00
    1   11   21      2.66      0.00
    3   11   21     -3.78      0.00
    5   11   21     -2.31      0.00
    7   11   21     -0.28      0.00
    9   11   21      4.24      0.00
   11   11   21      2.62      0.00
    1   13   21     -0.38      0.00
    3   13   21     -3.19      0.00
    5   13   21     -9.52      0.00
    7   13   21     -2.18      0.00
    9   13   21     10.71      0.00
   11   13   21     -1.82      0.00
   13   13   21     -5.30      0.00
    1   15   21     -2.73      0.00
    3   15   21      9.32      0.00
    5   15   21     -1.16      0.00
    7   15   21     -1.29      0.00
    9   15   21      4.47      0.00
   11   15   21     -5.87      0.00
   13   15   21      0.21      0.00
   15   15   21      5.89      0.00
    1   17   21     -0.87      0.00
    3   17   21      1.87      0.00
    5   17   21     -1.42      0.00
    7   17   21     -3.58      0.00
    9   17   21     -2.85      0.00
   11   17   21     -2.29      0.00
   13   17   21      3.14      0.00
   15   17   21      4.02      0.00
   17   17   21     -4.98      0.00
    1   19   21     -0.14      0.00
    3   19   21      1.38      0.00
    5   19   21      0.23      0.00
    7   19   21     -2.87      0.00
    9   19   21     -2.62      0.00
   11   19   21      1.14      0.00
   13   19   21     -3.59      0.00
   15   19   21     -3.30      0.00
   17   19   21     -1.65      0.00
   19   19   21      3.51      0.00
    1   21   21     14.12      0.00
    3   21   21     -6.92      0.00
    5   21   21     -1.07      0.00
    7   21   21     -6.06      0.00
    9   21   21      0.90      0.00
   11   21   21     12.06      0.00
   13   21   21     -3.80      0.00
   15   21   21     -0.85      0.00
   17   21   21     -4.87      0.00
   19   21   21      5.95      0.00
   21   21   21     -0.29      0.00
    0    0   22     -2.08      0.00
    0    2   22      1.70      0.00
    2    2   22      5.16      0.00
    0    4   22      8.55      0.00
    2    4   22     -0.46      0.00
    4    4   22      5.60      0.00
    0    6   22      5.07      0.00
    2    6   22     -9.75      0.00
    4    6   22      1.87      0.00
    6    6   22     11.48      0.00
    0    8   22      9.53      0.00
    2    8   22      3.56      0.00
    4    8   22      2.25      0.00
    6    8   22     -5.03      0.00
    8    8   22      3.79      0.00
    0   10   22      1.42      0.00
    2   10   22      3.83      0.00
    4   10   22     -2.31      0.00
    6   10   22    -16.10      0.00
    8   10   22     -3.02      0.00
   10   10   22      5.37      0.00
    0   12   22      5.05      0.00
    2   12   22      0.24      0.00
    4   12   22      3.23      0.00
    6   12   22      7.25      0.00
    8   12   22      4.79      0.00
   10   12   22      1.05      0.00
   12   12   22     -0.84      0.00
    0   14   22      0.24      0.00
    2   14   22     -2.99      0.00
    4   14   22      3.43      0.00
    6   14   22     -0.52      0.00
    8   14   22     -4.57      0.00
   10   14   22     -0.18      0.00
   12   14   22     -3.12      0.00
   14   14   22      2.37      0.00
    0   16   22      0.15      0.00
    2   16   22     -1.77      0.00
    4   16   22      4.10      0.00
    6   16   22     -7.62      0.00
    8   16   22     -2.46      0.00
   10   16   22     -7.20      0.00
   12   16   22     -0.47      0.00
   14   16   22     -2.61      0.00
   16   16   22      8.06      0.00
    0   18   22    -15.81      0.00
    2   18   22      2.34      0.00
    4   18   22     -1.57      0.00
    6   18   22     -3.28      0.00
    8   18   22      2.33      0.00
   10   18   22      0.77      0.00
   12   18   22     10.16      0.00
   14   18   22     -7.39      0.00
   16   18   22     -1.06      0.00
   18   18   22     -4.12      0.00
    0   20   22     13.41      0.00
    2   20   22     -6.78      0.00
    4   20   22      0.24      0.00
    6   20   22     -1.21      0.00
    8   20   22     -0.39      0.00
   10   20   22     -2.87      0.00
   12   20   22      1.21      0.00
   14   20   22      7.72      0.00
   16   20   22     -4.15      0.00
   18   20   22      1.16      0.00
   20   20   22      2.89      0.00
    0   22   22     -1.19      0.00
    2   22   22     -5.94      0.00
    4   22   22      6.80      0.00
    6   22   22      7.98      0.00
    8   22   22      3.37      0.00
   10   22   22     -4.31      0.00
   12   22   22     -1.42      0.00
   14   22   22     -2.82      0.00
   16   22   22      6.72      0.00
   18   22   22      3.54      0.00
   20   22   22     -9.97      0.00
   22   22   22     17.88      0.00
    1    1   23     -6.85      0.00
    1    3   23      3.10      0.00
    3    3   23     -5.09      0.00
    1    5   23      3.50      0.00
    3    5   23      2.29      0.00
    5    5   23     -2.01      0.00
    1    7   23      1.88      0.00
    3    7   23     -2.90      0.00
    5    7   23    -10.66      0.00
    7    7   23     -0.83      0.00
    1    9   23     -6.11      0.00
    3    9   23     -2.32      0.00
    5    9   23      3.31      0.00
    7    9   23      3.24      0.00
    9    9   23      1.18      0.00
    1   11   23     -0.24      0.00
    3   11   23      4.18      0.00
    5   11   23      0.12      0.00
    7   11   23      0.13      0.00
    9   11   23     -1.18      0.00
   11   11   23      1.12      0.00
    1   13   23     -5.09      0.00
    3   13   23      0.45      0.00
    5   13   23      3.23      0.00
    7   13   23      1.54      0.00
    9   13   23     -4.44      0.00
   11   13   23     -1.65      0.00
   13   13   23     -1.77      0.00
    1   15   23      3.45      0.00
    3   15   23      2.51      0.00
    5   15   23      1.56      0.00
    7   15   23     -4.88      0.00
    9   15   23     -0.30      0.00
   11   15   23      4.86      0.00
   13   15   23      5.62      0.00
   15   15   23      2.95      0.00
    1   17   23      4.80      0.00
    3   17   23      2.93      0.00
    5   17   23     -2.55      0.00
    7   17   23      0.63      0.00
    9   17   23     12.68      0.00
   11   17   23      1.46      0.00
   13   17   23      4.13      0.00
   15   17   23     -5.53      0.00
   17   17   23     -2.99      0.00
    1   19   23      5.81      0.00
    3   19   23    -13.58      0.00
    5   19   23      1.26      0.00
    7   19   23      2.86      0.00
    9   19   23      5.52      0.00
   11   19   23     -0.05      0.00
   13   19   23     -0.76      0.00
   15   19   23      1.11      0.00
   17   19   23      0.63      0.00
   19   19   23      3.25      0.00
    1   21   23     -0.60      0.00
    3   21   23     -1.64      0.00
    5   21   23      6.00      0.00
    7   21   23      8.10      0.00
    9   21   23     -1.29      0.00
   11   21   23     -0.99      0.00
   13   21   23     -1.56      0.00
   15   21   23      1.46      0.00
   17   21   23     -6.72      0.00
   19   21   23     -3.53      0.00
   21   21   23      0.83      0.00
    1   23   23     -9.27      0.00
    3   23   23     -1.90      0.00
    5   23   23     -1.91      0.00
    7   23   23      4.29      0.00
    9   23   23      4.99      0.00
   11   23   23     -6.44      0.00
   13   23   23      0.80      0.00
   15   23   23     -5.38      0.00
   17   23   23     -1.02      0.00
   19   23   23     -0.85      0.00
   21   23   23     -1.81      0.00
    0    0   24     -2.92      0.00
    0    2   24      1.89      0.00
    2    2   24     -3.71      0.00
    0    4   24      5.11      0.00
    2    4   24     -3.71      0.00
    4    4   24      4.24      0.00
    0    6   24     -3.31      0.00
    2    6   24     -2.28      0.00
    4    6   24     -3.58      0.00
    6    6   24    -13.97      0.00
    0    8   24     -1.23      0.00
    2    8   24     -8.75      0.00
    4    8   24     -3.43      0.00
    6    8   24     25.41      0.00
    8    8   24     10.42      0.00
    0   10   24     -1.50      0.00
    2   10   24     -1.90      0.00
    4   10   24     -0.02      0.00
    6   10   24     -4.91      0.00
    8   10   24     -5.57      0.00
   10   10   24     -2.32      0.00
    0   12   24     -5.23      0.00
    2   12   24     -1.62      0.00
    4   12   24      2.48      0.00
    6   12   24      1.97      0.00
    8   12   24     -1.40      0.00
   10   12   24     -4.22      0.00
   12   12   24      0.89      0.00
    0   14   24      0.99      0.00
    2   14   24     -0.07      0.00
    4   14   24      0.04      0.00
    6   14   24     -4.60      0.00
    8   14   24     -4.43      0.00
   10   14   24      2.44      0.00
   12   14   24      4.31      0.00
   14   14   24      0.47      0.00
    0   16   24      5.94      0.00
    2   16   24      0.88      0.00
    4   16   24     -2.79      0.00
    6   16   24      4.30      0.00
    8   16   24      0.50      0.00
   10   16   24      2.05      0.00
   12   16   24      5.49      0.00
   14   16   24     -2.13      0.00
   16   16   24      3.40      0.00
    0   18   24     -3.53      0.00
    2   18   24     -2.65      0.00
    4   18   24     11.59      0.00
    6   18   24      2.76      0.00
    8   18   24     -4.71      0.00
   10   18   24     -1.64      0.00
   12   18   24     -1.91      0.00
   14   18   24     -3.94      0.00
   16   18   24      4.37      0.00
   18   18   24     -8.15      0.00
    0   20   24     -0.06      0.00
    2   20   24      2.11      0.00
    4   20   24      1.24      0.00
    6   20   24    -13.37      0.00
    8   20   24      4.34      0.00
   10   20   24     -2.18      0.00
   12   20   24     -0.95      0.00
   14   20   24      0.18      0.00
   16   20   24      1.75      0.00
   18   20   24      1.43      0.00
   20   20   24     -0.38      0.00
    0   22   24     -1.65      0.00
    2   22   24     -4.25      0.00
    4   22   24     -0.31      0.00
    6   22   24      1.33      0.00
    8   22   24      2.89      0.00
   10   22   24     -0.88      0.00
   12   22   24     -4.94      0.00
   14   22   24     -0.45      0.00
   16   22   24      0.02      0.00
   18   22   24      9.01      0.00
   20   22   24     -5.41      0.00
    0   24   24      2.57      0.00
    2   24   24     -4.00      0.00
    4   24   24     -2.52      0.00
    6   24   24      6.62      0.00
    8   24   24     -3.21      0.00
   10   24   24     -8.81      0.00
   12   24   24      2.26      0.00
   14   24   24     -1.23      0.00
   16   24   24      3.11      0.00
   18   24   24      3.49      0.00
    1    1   25      2.71      0.00
    1    3   25      2.31      0.00
    3    3   25      3.30      0.00
    1    5   25     -4.30      0.00
    3    5   25     -2.82      0.00
    5    5   25     -4.25      0.00
    1    7   25     -1.16      0.00
    3    7   25     -2.29      0.00
    5    7   25     25.80      0.00
    7    7   25    -31.15      0.00
    1    9   25      5.10      0.00
    3    9   25      1.87      0.00
    5    9   25     -8.71      0.00
    7    9   25      0.54      0.00
    9    9   25      2.98      0.00
    1   11   25     -1.40      0.00
    3   11   25      4.13      0.00
    5   11   25     -1.33      0.00
    7   11   25      5.49      0.00
    9   11   25     -1.20      0.00
   11   11   25      0.87      0.00
    1   13   25     -1.23      0.00
    3   13   25      1.99      0.00
    5   13   25     -2.31      0.00
    7   13   25      2.63      0.00
    9   13   25      0.85      0.00
   11   13   25     -2.11      0.00
   13   13   25      0.39      0.00
    1   15   25      1.11      0.00
    3   15   25      1.52      0.00
    5   15   25     -7.37      0.00
    7   15   25     -2.78      0.00
    9   15   25     -0.84      0.00
   11   15   25     -2.17      0.00
   13   15   25      1.25      0.00
   15   15   25     -3.30      0.00
    1   17   25     -2.64      0.00
    3   17   25    -10.69      0.00
    5   17   25      8.62      0.00
    7   17   25    -11.89      0.00
    9   17   25      1.04      0.00
   11   17   25     -3.47      0.00
   13   17   25     -3.26      0.00
   15   17   25     -3.26      0.00
   17   17   25     10.51      0.00
    1   19   25     -2.97      0.00
    3   19   25      2.83      0.00
    5   19   25    -10.60      0.00
    7   19   25     -5.02      0.00
    9   19   25      3.71      0.00
   11   19   25     -0.85      0.00
   13   19   25      2.14      0.00
   15   19   25      4.10      0.00
   17   19   25     -4.06      0.00
   19   19   25     -8.79      0.00
    1   21   25      3.73      0.00
    3   21   25      3.53      0.00
    5   21   25     -2.99      0.00
    7   21   25      8.44      0.00
    9   21   25     -3.62      0.00
   11   21   25     -1.94      0.00
   13   21   25      2.84      0.00
   15   21   25     -4.69      0.00
   17   21   25      2.93      0.00
   19   21   25     10.96      0.00
   21   21   25      4.03      0.00
    1   23   25      0.22      0.00
    3   23   25     -1.19      0.00
    5   23   25      2.92      0.00
    7   23   25     -6.49      0.00
    9   23   25     -2.41      0.00
   11   23   25     -0.53      0.00
   13   23   25      4.38      0.00
   15   23   25      3.57      0.00
   17   23   25      1.15      0.00
   19   23   25      6.65      0.00
    1   25   25      3.31      0.00
    3   25   25      0.77      0.00
    5   25   25      4.83      0.00
    7   25   25     -0.87      0.00
    9   25   25     -1.23      0.00
   11   25   25     -3.46      0.00
   13   25   25      2.57      0.00
   15   25   25      0.20      0.00
    0    0   26      0.71      0.00
    0    2   26      2.56      0.00
    2    2   26     -1.13      0.00
    0    4   26     -0.05      0.00
    2    4   26     -0.83      0.00
    4    4   26     -0.21      0.00
    0    6   26     -4.49      0.00
    2    6   26      4.96      0.00
    4    6   26     24.14      0.00
    6    6   26    -18.23      0.00
    0    8   26     11.83      0.00
    2    8   26      5.68      0.00
    4    8   26     -1.47      0.00
    6    8   26    -21.71      0.00
    8    8   26     19.78      0.00
    0   10   26     -2.73      0.00
    2   10   26      5.14      0.00
    4   10   26     -4.69      0.00
    6   10   26      0.53      0.00
    8   10   26     -0.07      0.00
   10   10   26     -2.24      0.00
    0   12   26     -4.89      0.00
    2   12   26      3.37      0.00
    4   12   26      0.84      0.00
    6   12   26      5.96      0.00
    8   12   26      5.52      0.00
   10   12   26      1.07      0.00
   12   12   26      0.03      0.00
    0   14   26      0.76      0.00
    2   14   26     -3.53      0.00
    4   14   26     -1.11      0.00
    6   14   26     -2.94      0.00
    8   14   26     -1.81      0.00
   10   14   26      0.10      0.00
   12   14   26     -2.70      0.00
   14   14   26     -4.50      0.00
    0   16   26      1.88      0.00
    2   16   26     -2.26      0.00
    4   16   26     -7.82      0.00
    6   16   26     16.63      0.00
    8   16   26      3.21      0.00
   10   16   26      2.47      0.00
   12   16   26     -4.44      0.00
   14   16   26     -4.12      0.00
   16   16   26      4.97      0.00
    0   18   26      3.33      0.00
    2   18   26     -1.91      0.00
    4   18   26     -2.90      0.00
    6   18   26     -4.28      0.00
    8   18   26      4.16      0.00
   10   18   26      1.90      0.00
   12   18   26      2.69      0.00
   14   18   26      4.29      0.00
   16   18   26    -14.80      0.00
   18   18   26      3.38      0.00
    0   20   26     -8.26      0.00
    2   20   26     -2.05      0.00
    4   20   26      5.68      0.00
    6   20   26     -1.19      0.00
    8   20   26     -0.46      0.00
   10   20   26     -1.44      0.00
   12   20   26     -3.33      0.00
   14   20   26      3.68      0.00
   16   20   26      6.00      0.00
   18   20   26      4.48      0.00
   20   20   26     -4.58      0.00
    0   22   26      3.85      0.00
    2   22   26      5.74      0.00
    4   22   26      2.19      0.00
    6   22   26     -4.53      0.00
    8   22   26     -1.86      0.00
   10   22   26      0.62      0.00
   12   22   26      0.18      0.00
   14   22   26      1.01      0.00
   16   22   26     -5.47      0.00
   18   22   26      0.50      0.00
    0   24   26      1.15      0.00
    2   24   26      2.29      0.00
    4   24   26      0.13      0.00
    6   24   26     -2.32      0.00
    8   24   26      0.15      0.00
   10   24   26      6.52      0.00
   12   24   26     -1.16      0.00
   14   24   26      1.72      0.00
   16   24   26     -4.37      0.00
    0   26   26      0.36      0.00
    2   26   26      2.08      0.00
    4   26   26     -3.63      0.00
    6   26   26      0.11      0.00
    8   26   26     -0.15      0.00
   10   26   26      4.11      0.00
   12   26   26     -1.48      0.00
    1    1   27    -10.89      0.00
    1    3   27     -2.17      0.00
    3    3   27      3.71      0.00
    1    5   27      5.74      0.00
    3    5   27    -20.31      0.00
    5    5   27      2.62      0.00
    1    7   27     15.27      0.00
    3    7   27     -9.03      0.00
    5    7   27     -2.90      0.00
    7    7   27      1.65      0.00
    1    9   27      3.34      0.00
    3    9   27     -0.90      0.00
    5    9   27      1.48      0.00
    7    9   27     -7.76      0.00
    9    9   27     -2.16      0.00
    1   11   27     -4.17      0.00
    3   11   27      0.60      0.00
    5   11   27      3.33      0.00
    7   11   27      1.19      0.00
    9   11   27      3.33      0.00
   11   11   27     -0.19      0.00
    1   13   27     -5.47      0.00
    3   13   27      1.78      0.00
    5   13   27      6.23      0.00
    7   13   27      4.63      0.00
    9   13   27      1.63      0.00
   11   13   27      3.06      0.00
   13   13   27     -4.89      0.00
    1   15   27     -0.24      0.00
    3   15   27     -7.15      0.00
    5   15   27     19.61      0.00
    7   15   27      8.64      0.00
    9   15   27     -5.93      0.00
   11   15   27     -2.73      0.00
   13   15   27      1.19      0.00
   15   15   27    -10.76      0.00
    1   17   27     12.47      0.00
    3   17   27      6.24      0.00
    5   17   27     -5.31      0.00
    7   17   27     -2.88      0.00
    9   17   27      1.27      0.00
   11   17   27     -1.88      0.00
   13   17   27     -4.99      0.00
   15   17   27     18.64      0.00
   17   17   27     -2.98      0.00
    1   19   27     14.85      0.00
    3   19   27      2.62      0.00
    5   19   27     -0.23      0.00
    7   19   27     -2.35      0.00
    9   19   27     -2.52      0.00
   11   19   27      3.59      0.00
   13   19   27      5.43      0.00
   15   19   27     -7.75      0.00
   17   19   27      2.61      0.00
   19   19   27     -7.09      0.00
    1   21   27     -3.41      0.00
    3   21   27      2.29      0.00
    5   21   27      6.03      0.00
    7   21   27      1.80      0.00
    9   21   27      1.99      0.00
   11   21   27     -4.57      0.00
   13   21   27      2.69      0.00
   15   21   27     -6.48      0.00
   17   21   27      6.32      0.00
    1   23   27      0.81      0.00
    3   23   27      5.90      0.00
    5   23   27     -9.15      0.00
    7   23   27     -6.60      0.00
    9   23   27      5.47      0.00
   11   23   27      4.01      0.00
   13   23   27      2.11      0.00
   15   23   27      1.57      0.00
    1   25   27     -1.29      0.00
    3   25   27     -5.06      0.00
    5   25   27      2.90      0.00
    7   25   27     -5.54      0.00
    9   25   27     -1.40      0.00
   11   25   27      1.49      0.00
   13   25   27     -2.76      0.00
    1   27   27      4.92      0.00
    3   27   27     -8.23      0.00
    5   27   27      0.13      0.00
    7   27   27     12.69      0.00
    0    0   28    -23.74      0.00
    0    2   28      0.10      0.00
    2    2   28      4.70      0.00
    0    4   28     22.22      0.00
    2    4   28     -4.70      0.00
    4    4   28      4.52      0.00
    0    6   28    -20.97      0.00
    2    6   28     -1.47      0.00
    4    6   28      0.19      0.00
    6    6   28      9.15      0.00
    0    8   28    -29.94      0.00
    2    8   28      1.44      0.00
    4    8   28      3.71      0.00
    6    8   28     -0.05      0.00
    8    8   28     -3.84      0.00
    0   10   28     -0.11      0.00
    2   10   28     -4.53      0.00
    4   10   28      1.71      0.00
    6   10   28     -7.45      0.00
    8   10   28      4.03      0.00
   10   10   28     -7.80      0.00
    0   12   28     -5.00      0.00
    2   12   28     -3.43      0.00
    4   12   28      4.66      0.00
    6   12   28    -15.71      0.00
    8   12   28      4.93      0.00
   10   12   28     -4.19      0.00
   12   12   28     -2.80      0.00
    0   14   28      7.93      0.00
    2   14   28      2.66      0.00
    4   14   28    -14.12      0.00
    6   14   28     -2.66      0.00
    8   14   28     -5.81      0.00
   10   14   28     -1.77      0.00
   12   14   28      2.50      0.00
   14   14   28      3.07      0.00
    0   16   28    -16.22      0.00
    2   16   28      3.53      0.00
    4   16   28      0.55      0.00
    6   16   28      0.67      0.00
    8   16   28      1.19      0.00
   10   16   28     -0.71      0.00
   12   16   28      6.53      0.00
   14   16   28     12.47      0.00
   16   16   28     -7.96      0.00
    0   18   28     -6.40      0.00
    2   18   28     -5.50      0.00
    4   18   28     -4.14      0.00
    6   18   28      2.07      0.00
    8   18   28     -3.04      0.00
   10   18   28      1.45      0.00
   12   18   28     -4.34      0.00
   14   18   28     -1.71      0.00
   16   18   28      2.00      0.00
   18   18   28     -0.58      0.00
    0   20   28    -10.77      0.00
    2   20   28     -0.25      0.00
    4   20   28      3.44      0.00
    6   20   28     -1.62      0.00
    8   20   28      4.77      0.00
   10   20   28      6.15      0.00
   12   20   28    -10.26      0.00
   14   20   28      6.18      0.00
   16   20   28     -3.57      0.00
   18   20   28      5.65      0.00
    0   22   28    -12.64      0.00
    2   22   28     -1.10      0.00
    4   22   28      1.43      0.00
    6   22   28     -1.81      0.00
    8   22   28     -5.95      0.00
   10   22   28      0.61      0.00
   12   22   28      2.50      0.00
   14   22   28      3.87      0.00
   16   22   28     -0.03      0.00
    0   24   28      0.90      0.00
    2   24   28     -2.67      0.00
    4   24   28      2.51      0.00
    6   24   28     13.45      0.00
    8   24   28      2.80      0.00
   10   24   28     -0.44      0.00
   12   24   28     -2.72      0.00
    0   26   28     -8.15      0.00
    2   26   28     -5.47      0.00
    4   26   28      1.53      0.00
    6   26   28     11.94      0.00
    8   26   28      7.05      0.00
    1    1   29     33.03      0.00
    1    3   29    -12.11      0.00
    3    3   29      6.57      0.00
    1    5   29    -11.60      0.00
    3    5   29      4.86      0.00
    5    5   29      4.69      0.00
    1    7   29      4.13      0.00
    3    7   29      0.66      0.00
    5    7   29      4.59      0.00
    7    7   29      9.04      0.00
    1    9   29     -3.16      0.00
    3    9   29     -1.71      0.00
    5    9   29      2.29      0.00
    7    9   29      0.43      0.00
    9    9   29      5.51      0.00
    1   11   29     15.04      0.00
    3   11   29     -4.08      0.00
    5   11   29     -4.27      0.00
    7   11   29     -1.41      0.00
    9   11   29      3.06      0.00
   11   11   29     10.55      0.00
    1   13   29      8.92      0.00
    3   13   29     -1.37      0.00
    5   13   29      0.37      0.00
    7   13   29     -2.65      0.00
    9   13   29     -0.15      0.00
   11   13   29      3.81      0.00
   13   13   29     12.52      0.00
    1   15   29      0.88      0.00
    3   15   29      0.41      0.00
    5   15   29      1.10      0.00
    7   15   29     -0.76      0.00
    9   15   29      0.30      0.00
   11   15   29     -1.30      0.00
   13   15   29    -17.93      0.00
   15   15   29      2.40      0.00
    1   17   29      2.69      0.00
    3   17   29     -4.46      0.00
    5   17   29      1.08      0.00
    7   17   29      2.41      0.00
    9   17   29     -3.89      0.00
   11   17   29      2.70      0.00
   13   17   29      1.57      0.00
   15   17   29     -9.69      0.00
   17   17   29      2.78      0.00
    1   19   29     -6.75      0.00
    3   19   29      0.78      0.00
    5   19   29      2.59      0.00
    7   19   29      3.08      0.00
    9   19   29     -1.42      0.00
   11   19   29     -5.10      0.00
   13   19   29      4.85      0.00
   15   19   29      3.25      0.00
   17   19   29      1.21      0.00
    1   21   29      1.94      0.00
    3   21   29     -1.00      0.00
    5   21   29     -2.32      0.00
    7   21   29     -1.01      0.00
    9   21   29      2.64      0.00
   11   21   29      2.57      0.00
   13   21   29     -7.02      0.00
   15   21   29      2.78      0.00
    1   23   29      4.99      0.00
    3   23   29     -4.76      0.00
    5   23   29     -2.59      0.00
    7   23   29     -4.21      0.00
    9   23   29      2.83      0.00
   11   23   29      5.03      0.00
    1   25   29     -2.82      0.00
    3   25   29      6.06      0.00
    5   25   29    -11.23      0.00
    7   25   29    -10.43      0.00
    0    0   30    -15.08      0.00
    0    2   30     -5.38      0.00
    2    2   30     -2.34      0.00
    0    4   30      0.51      0.00
    2    4   30      2.69      0.00
    4    4   30      5.28      0.00
    0    6   30      1.99      0.00
    2    6   30      1.11      0.00
    4    6   30     -4.43      0.00
    6    6   30      2.32      0.00
    0    8   30     11.60      0.00
    2    8   30     -0.21      0.00
    4    8   30     -0.78      0.00
    6    8   30      2.39      0.00
    8    8   30     -1.44      0.00
    0   10   30      3.38      0.00
    2   10   30      1.31      0.00
    4   10   30      2.24      0.00
    6   10   30      0.83      0.00
    8   10   30     -0.95      0.00
   10   10   30     -5.07      0.00
    0   12   30    -15.52      0.00
    2   12   30      1.61      0.00
    4   12   30      4.63      0.00
    6   12   30      1.57      0.00
    8   12   30      3.34      0.00
   10   12   30     -0.85      0.00
   12   12   30     -9.42      0.00
    0   14   30     -2.79      0.00
    2   14   30     -0.64      0.00
    4   14   30     -0.14      0.00
    6   14   30     -0.46      0.00
    8   14   30     -0.73      0.00
   10   14   30      1.07      0.00
   12   14   30     -2.63      0.00
   14   14   30      9.98      0.00
    0   16   30      8.43      0.00
    2   16   30     -2.43      0.00
    4   16   30      1.06      0.00
    6   16   30     -5.72      0.00
    8   16   30     -1.05      0.00
   10   16   30      3.61      0.00
   12   16   30     -0.17      0.00
   14   16   30     -0.50      0.00
   16   16   30      1.99      0.00
    0   18   30     -0.62      0.00
    2   18   30      2.89      0.00
    4   18   30     -5.37      0.00
    6   18   30      4.39      0.00
    8   18   30     -2.37      0.00
   10   18   30     -4.91      0.00
   12   18   30     -2.14      0.00
   14   18   30     -0.34      0.00
   16   18   30      0.92      0.00
    0   20   30     -1.77      0.00
    2   20   30     -3.99      0.00
    4   20   30      3.17      0.00
    6   20   30      2.35      0.00
    8   20   30     -0.08      0.00
   10   20   30      2.06      0.00
   12   20   30     -0.17      0.00
   14   20   30     -2.62      0.00
    0   22   30      1.78      0.00
    2   22   30     -1.96      0.00
    4   22   30     -2.12      0.00
    6   22   30     -3.04      0.00
    8   22   30      5.57      0.00
   10   22   30     -3.77      0.00
   12   22   30     -5.84      0.00
    0   24   30     15.45      0.00
    2   24   30     13.47      0.00
    4   24   30     -7.18      0.00
    6   24   30      3.92      0.00
    1    1   31     -3.94      0.00
    1    3   31      3.84      0.00
    3    3   31     -3.21      0.00
    1    5   31      4.23      0.00
    3    5   31      4.49      0.00
    5    5   31     -5.16      0.00
    1    7   31      3.64      0.00
    3    7   31     -3.58      0.00
    5    7   31     -3.70      0.00
    7    7   31     -3.20      0.00
    1    9   31      3.63      0.00
    3    9   31     -1.96      0.00
    5    9   31     -2.34      0.00
    7    9   31     -0.25      0.00
    9    9   31     -2.07      0.00
    1   11   31     -2.55      0.00
    3   11   31      3.89      0.00
    5   11   31      7.15      0.00
    7   11   31      5.55      0.00
    9   11   31      2.84      0.00
   11   11   31     -5.20      0.00
    1   13   31     -4.72      0.00
    3   13   31      4.97      0.00
    5   13   31      3.19      0.00
    7   13   31     -0.70      0.00
    9   13   31     -1.38      0.00
   11   13   31     -0.10      0.00
   13   13   31      0.86      0.00
    1   15   31      2.27      0.00
    3   15   31      4.13      0.00
    5   15   31     -4.23      0.00
    7   15   31     -3.45      0.00
    9   15   31     -0.54      0.00
   11   15   31      9.75      0.00
   13   15   31      0.12      0.00
   15   15   31      3.51      0.00
    1   17   31      1.12      0.00
    3   17   31     -0.90      0.00
    5   17   31     -0.76      0.00
    7   17   31     -1.33      0.00
    9   17   31     -2.37      0.00
   11   17   31      5.78      0.00
   13   17   31      8.82      0.00
   15   17   31      2.96      0.00
    1   19   31      0.64      0.00
    3   19   31     -2.46      0.00
    5   19   31      2.53      0.00
    7   19   31      2.77      0.00
    9   19   31     -1.75      0.00
   11   19   31     -0.50      0.00
   13   19   31     -2.88      0.00
    1   21   31      2.58      0.00
    3   21   31      4.38      0.00
    5   21   31      2.45      0.00
    7   21   31     -0.61      0.00
    9   21   31     -0.44      0.00
   11   21   31     -1.17      0.00
    1   23   31     -8.57      0.00
    3   23   31      3.00      0.00
    5   23   31      3.25      0.00
    0    0   32     -7.56      0.00
    0    2   32     -1.80      0.00
    2    2   32     -4.49      0.00
    0    4   32     -1.45      0.00
    2    4   32      0.31      0.00
    4    4   32      0.85      0.00
    0    6   32      3.32      0.00
    2    6   32     -1.48      0.00
    4    6   32     -2.61      0.00
    6    6   32     -3.49      0.00
    0    8   32      3.63      0.00
    2    8   32     -5.15      0.00
    4    8   32     -2.97      0.00
    6    8   32      5.90      0.00
    8    8   32      3.75      0.00
    0   10   32    -12.61      0.00
    2   10   32     -6.18      0.00
    4   10   32     -3.62      0.00
    6   10   32     -1.74      0.00
    8   10   32      0.63      0.00
   10   10   32     -5.68      0.00
    0   12   32     -7.54      0.00
    2   12   32     -2.83      0.00
    4   12   32     -3.44      0.00
    6   12   32     -0.13      0.00
    8   12   32     -2.53      0.00
   10   12   32     -0.20      0.00
   12   12   32    -18.72      0.00
    0   14   32      2.12      0.00
    2   14   32     -2.07      0.00
    4   14   32      1.07      0.00
    6   14   32     -3.98      0.00
    8   14   32     -3.08      0.00
   10   14   32     -1.44      0.00
   12   14   32     -2.95      0.00
   14   14   32      4.19      0.00
    0   16   32      5.31      0.00
    2   16   32     -1.01      0.00
    4   16   32     -4.47      0.00
    6   16   32     -0.37      0.00
    8   16   32     -3.52      0.00
   10   16   32     -3.47      0.00
   12   16   32      1.29      0.00
   14   16   32      7.86      0.00
    0   18   32     -6.00      0.00
    2   18   32      0.83      0.00
    4   18   32      2.32      0.00
    6   18   32      3.13      0.00
    8   18   32      7.37      0.00
   10   18   32      1.81      0.00
   12   18   32     -0.86      0.00
    0   20   32      5.59      0.00
    2   20   32     -2.78      0.00
    4   20   32      0.81      0.00
    6   20   32      2.84      0.00
    8   20   32     -2.35      0.00
   10   20   32     -1.57      0.00
    0   22   32     -8.89      0.00
    2   22   32     -4.53      0.00
    4   22   32     -2.38      0.00
    1    1   33     20.36      0.00
    1    3   33    -14.49      0.00
    3    3   33      1.84      0.00
    1    5   33     -7.12      0.00
    3    5   33      7.28      0.00
    5    5   33     -2.08      0.00
    1    7   33     -5.62      0.00
    3    7   33      2.30      0.00
    5    7   33      0.23      0.00
    7    7   33     -4.09      0.00
    1    9   33     -8.62      0.00
    3    9   33     -0.57      0.00
    5    9   33      1.08      0.00
    7    9   33      5.30      0.00
    9    9   33      3.26      0.00
    1   11   33     18.48      0.00
    3   11   33     -6.52      0.00
    5   11   33     -8.98      0.00
    7   11   33      1.05      0.00
    9   11   33     -4.56      0.00
   11   11   33     24.55      0.00
    1   13   33     10.98      0.00
    3   13   33     -5.50      0.00
    5   13   33     -1.92      0.00
    7   13   33    -10.74      0.00
    9   13   33     -7.46      0.00
   11   13   33     12.01      0.00
   13   13   33      8.45      0.00
    1   15   33    -11.35      0.00
    3   15   33      8.59      0.00
    5   15   33      2.99      0.00
    7   15   33      7.62      0.00
    9   15   33      8.11      0.00
   11   15   33    -18.15      0.00
   13   15   33      9.90      0.00
    1   17   33      3.05      0.00
    3   17   33      4.29      0.00
    5   17   33      2.73      0.00
    7   17   33      1.74      0.00
    9   17   33      5.38      0.00
   11   17   33      1.60      0.00
    1   19   33    -11.55      0.00
    3   19   33      2.79      0.00
    5   19   33     -2.55      0.00
    7   19   33      0.08      0.00
    0    0   34     -4.98      0.00
    0    2   34     -5.94      0.00
    2    2   34      1.05      0.00
    0    4   34     -3.84      0.00
    2    4   34      6.75      0.00
    4    4   34      4.29      0.00
    0    6   34     25.54      0.00
    2    6   34    -12.73      0.00
    4    6   34     -4.88      0.00
    6    6   34     -8.10      0.00
    0    8   34      5.78      0.00
    2    8   34     12.60      0.00
    4    8   34     -2.85      0.00
    6    8   34     -6.30      0.00
    8    8   34     -4.09      0.00
    0   10   34      1.81      0.00
    2   10   34     -0.62      0.00
    4   10   34     16.10      0.00
    6   10   34     -4.15      0.00
    8   10   34    -16.38      0.00
   10   10   34     18.00      0.00
    0   12   34     -2.14      0.00
    2   12   34     -0.91      0.00
    4   12   34      3.77      0.00
    6   12   34     16.03      0.00
    8   12   34      7.10      0.00
   10   12   34     -3.71      0.00
   12   12   34     -6.14      0.00
    0   14   34     -1.45      0.00
    2   14   34      7.85      0.00
    4   14   34     -5.28      0.00
    6   14   34     13.17      0.00
    8   14   34      4.26      0.00
   10   14   34      0.72      0.00
   12   14   34     -0.01      0.00
    0   16   34    -13.47      0.00
    2   16   34      2.60      0.00
    4   16   34     -0.27      0.00
    6   16   34     -1.51      0.00
    8   16   34     -1.62      0.00
   10   16   34      3.44      0.00
    0   18   34     24.57      0.00
    2   18   34    -13.03      0.00
    4   18   34      4.24      0.00
    6   18   34     -3.71      0.00
    1    1   35     -1.01      0.00
    1    3   35      1.61      0.00
    3    3   35     -4.24      0.00
    1    5   35      6.87      0.00
    3    5   35      4.21      0.00
    5    5   35      3.27      0.00
    1    7   35      2.03      0.00
    3    7   35      6.16      0.00
    5    7   35      9.81      0.00
    7    7   35     13.16      0.00
    1    9   35      4.02      0.00
    3    9   35     -1.63      0.00
    5    9   35     -1.28      0.00
    7    9   35      4.89      0.00
    9    9   35      5.68      0.00
    1   11   35     -2.49      0.00
    3   11   35      0.84      0.00
    5   11   35     -3.69      0.00
    7   11   35      0.91      0.00
    9   11   35     -0.14      0.00
   11   11   35     -2.16      0.00
    1   13   35     -4.29      0.00
    3   13   35      0.54      0.00
    5   13   35     -1.30      0.00
    7   13   35     -4.03      0.00
    9   13   35     -2.58      0.00
   11   13   35     -9.16      0.00
    1   15   35     -5.41      0.00
    3   15   35     -7.62      0.00
    5   15   35      0.84      0.00
    7   15   35      0.58      0.00
    1   17   35     -0.38      0.00
    3   17   35      4.45      0.00
    0    0   36     16.70      0.00
    0    2   36      0.60      0.00
    2    2   36      1.66      0.00
    0    4   36      2.17      0.00
    2    4   36     -2.49      0.00
    4    4   36      7.47      0.00
    0    6   36     -3.69      0.00
    2    6   36     -2.82      0.00
    4    6   36     -4.13      0.00
    6    6   36     -3.16      0.00
    0    8   36     -5.75      0.00
    2    8   36     -9.99      0.00
    4    8   36     -0.25      0.00
    6    8   36      3.49      0.00
    8    8   36     -5.16      0.00
    0   10   36      0.11      0.00
    2   10   36     -1.86      0.00
    4   10   36     -0.70      0.00
    6   10   36      0.91      0.00
    8   10   36     -4.50      0.00
   10   10   36     -4.88      0.00
    0   12   36     -2.59      0.00
    2   12   36     -1.07      0.00
    4   12   36     -3.44      0.00
    6   12   36     -1.19      0.00
    8   12   36     -1.51      0.00
    0   14   36     -5.92      0.00
    2   14   36     -1.93      0.00
    4   14   36     -7.76      0.00
    6   14   36     -4.42      0.00
    1    1   37     -0.74      0.00
    1    3   37      3.23      0.00
    3    3   37     -2.19      0.00
    1    5   37     -5.61      0.00
    3    5   37     -4.41      0.00
    5    5   37     -5.52      0.00
    1    7   37     -2.82      0.00
    3    7   37     -0.39      0.00
    5    7   37     -3.54      0.00
    7    7   37     -4.95      0.00
    1    9   37     -3.20      0.00
    3    9   37     -5.67      0.00
    5    9   37      4.27      0.00
    7    9   37      0.91      0.00
    1   11   37     -5.31      0.00
    3   11   37     -5.07      0.00
    5   11   37      3.26      0.00
    0    0   38      0.66      0.00
    0    2   38     -7.46      0.00
    2    2   38     -8.48      0.00
    0    4   38      5.56      0.00
    2    4   38     -6.65      0.00
    4    4   38     -3.72      0.00
    0    6   38     -0.95      0.00
    2    6   38      2.69      0.00
    4    6   38      2.99      0.00
    6    6   38      6.22      0.00
    0    8   38      1.75      0.00
    2    8   38     -0.95      0.00
    4    8   38      5.30      0.00
    1    1   39     -8.78      0.00
    1    1    1    -17.90      0.00
    0    0    2   -456.85      0.00
    0    2    2     91.87      0.00
    1    1    3    -64.30      0.00
   22   22   24      3.63      0.00
   17   25   25      0.64      0.00
   14   26   26      1.26      0.00
   19   21   27    -14.60      0.00
   17   23   27    -12.49      0.00
    9   27   27     -6.26      0.00
   13   23   29      6.59      0.00
    9   25   29     -4.69      0.00
   18   18   30      4.09      0.00
    8   24   30     -3.55      0.00
   17   17   31     -4.96      0.00
   15   19   31     -4.81      0.00
    7   23   31     -1.64      0.00
   16   16   32    -16.21      0.00
   14   18   32     -6.32      0.00
    6   22   32     -0.19      0.00
   15   15   33     -4.71      0.00
   13   17   33    -14.73      0.00
    9   19   33     -1.63      0.00
    1   21   33     14.32      0.00
    3   21   33     -4.92      0.00
   14   14   34     -8.49      0.00
    8   18   34     -3.22      0.00
    9   15   35      6.65      0.00
    5   17   35     -4.62      0.00
   10   12   36      4.91      0.00
    9    9   37     -6.12      0.00
    7   11   37      4.69      0.00
    1   13   37     11.84      0.00
    3   13   37     10.73      0.00
    6    8   38     -8.28      0.00
    0   10   38      5.22      0.00
    2   10   38     13.23      0.00
    1    3   39     18.31      0.00
    3    3   39    -14.22      0.00
    1    5   39      5.99      0.00
    0    0    0      0.00      0.00
loop_
  _platon_squeeze_void_nr
  _platon_squeeze_void_average_x
  _platon_squeeze_void_average_y
  _platon_squeeze_void_average_z
  _platon_squeeze_void_volume
  _platon_squeeze_void_count_electrons
  _platon_squeeze_void_content
   1  0.285 -0.005 -0.004     20364      3439 ' '
loop_
  _platon_missing_refln_index_h
  _platon_missing_refln_index_k
  _platon_missing_refln_index_l
  _platon_missing_refln_theta
    1    1    1     1.171
    0    0    2     1.353
    0    2    2     1.913
    1    1    3     2.243
_platon_squeeze_void_probe_radius                  1.20
_platon_squeeze_details
)
TITL 2015ncs0069 in Fm-3m
CELL   30.1107   30.1107   30.1107     90.00     90.00     90.00
SPGR Fm-3m
C101 0.099 0.103 0.091 !       1.37 eA-3
C102 0.138 0.138 0.138 !       1.03 eA-3
C103 0.884 0.116 0.116 !       0.93 eA-3
Q104 0.450 0.453 0.052 !       0.89 eA-3
C105 0.126 0.164 0.128 !       0.89 eA-3
C106 0.500 0.500 0.234 !       0.82 eA-3
Q107 0.987 0.016 0.060 !       0.75 eA-3
C108 0.242 0.500 0.000 !       0.72 eA-3
C109 0.121 0.192 0.115 !       0.65 eA-3
Q110 1.000 0.102 0.102 !       0.65 eA-3
Q111 0.008 0.117 0.182 !       0.61 eA-3
C112 0.096 0.091 0.151 !       0.60 eA-3
C113 0.130 0.161 0.161 !       0.56 eA-3
C114 0.674 0.228 0.177 !       0.55 eA-3
C115 1.000 0.203 0.006 !       0.55 eA-3
C116 0.671 0.327 0.173 !       0.54 eA-3
Q117 0.572 0.369 0.072 !       0.54 eA-3
C118 0.931 0.280 0.068 !       0.52 eA-3
C119 0.325 0.179 0.179 !       0.51 eA-3
)
;
_shelx_shelxl_version_number     2014/7
_olex2_submission_special_instructions 'No special instructions were received'
_platon_squeeze_void_probe_radius 1.20
loop_
_space_group_symop_operation_xyz
'x, y, z'
'-y, x, z'
'-x, -y, z'
'y, -x, z'
'x, -z, y'
'x, -y, -z'
'x, z, -y'
'z, y, -x'
'-x, y, -z'
'-z, y, x'
'z, x, y'
'y, z, x'
'-y, -z, x'
'z, -x, -y'
'-y, z, -x'
'-z, -x, y'
'-z, x, -y'
'y, -z, -x'
'y, x, -z'
'-y, -x, -z'
'-x, z, y'
'-x, -z, -y'
'z, -y, x'
'-z, -y, -x'
'x, y+1/2, z+1/2'
'-y, x+1/2, z+1/2'
'-x, -y+1/2, z+1/2'
'y, -x+1/2, z+1/2'
'x, -z+1/2, y+1/2'
'x, -y+1/2, -z+1/2'
'x, z+1/2, -y+1/2'
'z, y+1/2, -x+1/2'
'-x, y+1/2, -z+1/2'
'-z, y+1/2, x+1/2'
'z, x+1/2, y+1/2'
'y, z+1/2, x+1/2'
'-y, -z+1/2, x+1/2'
'z, -x+1/2, -y+1/2'
'-y, z+1/2, -x+1/2'
'-z, -x+1/2, y+1/2'
'-z, x+1/2, -y+1/2'
'y, -z+1/2, -x+1/2'
'y, x+1/2, -z+1/2'
'-y, -x+1/2, -z+1/2'
'-x, z+1/2, y+1/2'
'-x, -z+1/2, -y+1/2'
'z, -y+1/2, x+1/2'
'-z, -y+1/2, -x+1/2'
'x+1/2, y, z+1/2'
'-y+1/2, x, z+1/2'
'-x+1/2, -y, z+1/2'
'y+1/2, -x, z+1/2'
'x+1/2, -z, y+1/2'
'x+1/2, -y, -z+1/2'
'x+1/2, z, -y+1/2'
'z+1/2, y, -x+1/2'
'-x+1/2, y, -z+1/2'
'-z+1/2, y, x+1/2'
'z+1/2, x, y+1/2'
'y+1/2, z, x+1/2'
'-y+1/2, -z, x+1/2'
'z+1/2, -x, -y+1/2'
'-y+1/2, z, -x+1/2'
'-z+1/2, -x, y+1/2'
'-z+1/2, x, -y+1/2'
'y+1/2, -z, -x+1/2'
'y+1/2, x, -z+1/2'
'-y+1/2, -x, -z+1/2'
'-x+1/2, z, y+1/2'
'-x+1/2, -z, -y+1/2'
'z+1/2, -y, x+1/2'
'-z+1/2, -y, -x+1/2'
'x+1/2, y+1/2, z'
'-y+1/2, x+1/2, z'
'-x+1/2, -y+1/2, z'
'y+1/2, -x+1/2, z'
'x+1/2, -z+1/2, y'
'x+1/2, -y+1/2, -z'
'x+1/2, z+1/2, -y'
'z+1/2, y+1/2, -x'
'-x+1/2, y+1/2, -z'
'-z+1/2, y+1/2, x'
'z+1/2, x+1/2, y'
'y+1/2, z+1/2, x'
'-y+1/2, -z+1/2, x'
'z+1/2, -x+1/2, -y'
'-y+1/2, z+1/2, -x'
'-z+1/2, -x+1/2, y'
'-z+1/2, x+1/2, -y'
'y+1/2, -z+1/2, -x'
'y+1/2, x+1/2, -z'
'-y+1/2, -x+1/2, -z'
'-x+1/2, z+1/2, y'
'-x+1/2, -z+1/2, -y'
'z+1/2, -y+1/2, x'
'-z+1/2, -y+1/2, -x'
'-x, -y, -z'
'y, -x, -z'
'x, y, -z'
'-y, x, -z'
'-x, z, -y'
'-x, y, z'
'-x, -z, y'
'-z, -y, x'
'x, -y, z'
'z, -y, -x'
'-z, -x, -y'
'-y, -z, -x'
'y, z, -x'
'-z, x, y'
'y, -z, x'
'z, x, -y'
'z, -x, y'
'-y, z, x'
'-y, -x, z'
'y, x, z'
'x, -z, -y'
'x, z, y'
'-z, y, -x'
'z, y, x'
'-x, -y+1/2, -z+1/2'
'y, -x+1/2, -z+1/2'
'x, y+1/2, -z+1/2'
'-y, x+1/2, -z+1/2'
'-x, z+1/2, -y+1/2'
'-x, y+1/2, z+1/2'
'-x, -z+1/2, y+1/2'
'-z, -y+1/2, x+1/2'
'x, -y+1/2, z+1/2'
'z, -y+1/2, -x+1/2'
'-z, -x+1/2, -y+1/2'
'-y, -z+1/2, -x+1/2'
'y, z+1/2, -x+1/2'
'-z, x+1/2, y+1/2'
'y, -z+1/2, x+1/2'
'z, x+1/2, -y+1/2'
'z, -x+1/2, y+1/2'
'-y, z+1/2, x+1/2'
'-y, -x+1/2, z+1/2'
'y, x+1/2, z+1/2'
'x, -z+1/2, -y+1/2'
'x, z+1/2, y+1/2'
'-z, y+1/2, -x+1/2'
'z, y+1/2, x+1/2'
'-x+1/2, -y, -z+1/2'
'y+1/2, -x, -z+1/2'
'x+1/2, y, -z+1/2'
'-y+1/2, x, -z+1/2'
'-x+1/2, z, -y+1/2'
'-x+1/2, y, z+1/2'
'-x+1/2, -z, y+1/2'
'-z+1/2, -y, x+1/2'
'x+1/2, -y, z+1/2'
'z+1/2, -y, -x+1/2'
'-z+1/2, -x, -y+1/2'
'-y+1/2, -z, -x+1/2'
'y+1/2, z, -x+1/2'
'-z+1/2, x, y+1/2'
'y+1/2, -z, x+1/2'
'z+1/2, x, -y+1/2'
'z+1/2, -x, y+1/2'
'-y+1/2, z, x+1/2'
'-y+1/2, -x, z+1/2'
'y+1/2, x, z+1/2'
'x+1/2, -z, -y+1/2'
'x+1/2, z, y+1/2'
'-z+1/2, y, -x+1/2'
'z+1/2, y, x+1/2'
'-x+1/2, -y+1/2, -z'
'y+1/2, -x+1/2, -z'
'x+1/2, y+1/2, -z'
'-y+1/2, x+1/2, -z'
'-x+1/2, z+1/2, -y'
'-x+1/2, y+1/2, z'
'-x+1/2, -z+1/2, y'
'-z+1/2, -y+1/2, x'
'x+1/2, -y+1/2, z'
'z+1/2, -y+1/2, -x'
'-z+1/2, -x+1/2, -y'
'-y+1/2, -z+1/2, -x'
'y+1/2, z+1/2, -x'
'-z+1/2, x+1/2, y'
'y+1/2, -z+1/2, x'
'z+1/2, x+1/2, -y'
'z+1/2, -x+1/2, y'
'-y+1/2, z+1/2, x'
'-y+1/2, -x+1/2, z'
'y+1/2, x+1/2, z'
'x+1/2, -z+1/2, -y'
'x+1/2, z+1/2, y'
'-z+1/2, y+1/2, -x'
'z+1/2, y+1/2, x'
loop_
_atom_site_label
_atom_site_type_symbol
_atom_site_fract_x
_atom_site_fract_y
_atom_site_fract_z
_atom_site_U_iso_or_equiv
_atom_site_adp_type
_atom_site_occupancy
_atom_site_site_symmetry_order
_atom_site_calc_flag
_atom_site_refinement_flags_posn
_atom_site_refinement_flags_adp
_atom_site_refinement_flags_occupancy
Hf2 Hf 0.5000 0.08137(2) 0.5000 0.0514(2) Uani 1 8 d S TU P
O1 O 0.5617(3) 0.1188(2) 0.5000 0.137(3) Uani 1 2 d S TU P
O2 O 0.53932(19) 0.03932(19) 0.46068(19) 0.083(3) Uani 1 6 d S TU P
C1 C 0.6019(8) 0.1019(8) 0.5000 0.184(9) Uiso 1 4 d DS TU P
C2 C 0.6368(8) 0.1368(8) 0.5000 0.379(19) Uiso 1 4 d DS TU P
C3 C 0.6817(7) 0.1231(5) 0.5000 0.441(19) Uiso 1 2 d DS TU P
H3 H 0.6893 0.0932 0.5000 0.529 Uiso 1 2 calc RS T P
C4 C 0.7144(7) 0.1565(5) 0.5000 0.59(2) Uiso 1 2 d DS TU P
H4 H 0.7444 0.1490 0.5000 0.714 Uiso 1 2 calc RS T P
C5 C 0.7015(5) 0.2015(5) 0.5000 0.65(3) Uiso 1 4 d DS TU P
C6 C 0.7360(2) 0.2360(2) 0.5000 0.67(4) Uiso 1 4 d DS TU P
loop_
_atom_site_aniso_label
_atom_site_aniso_U_11
_atom_site_aniso_U_22
_atom_site_aniso_U_33
_atom_site_aniso_U_23
_atom_site_aniso_U_13
_atom_site_aniso_U_12
Hf2 0.0685(3) 0.0173(2) 0.0685(3) 0.000 0.000 0.000
O1 0.142(6) 0.068(3) 0.199(8) 0.000 0.000 -0.072(4)
O2 0.083(3) 0.083(3) 0.083(3) -0.028(3) -0.028(3) 0.028(3)
loop_
_atom_type_symbol
_atom_type_description
_atom_type_scat_dispersion_real
_atom_type_scat_dispersion_imag
_atom_type_scat_source
C C 0.0033 0.0016 'International Tables Vol C Tables 4.2.6.8 and 6.1.1.4'
H H 0.0000 0.0000 'International Tables Vol C Tables 4.2.6.8 and 6.1.1.4'
Hf Hf -0.5830 6.1852 'International Tables Vol C Tables 4.2.6.8 and 6.1.1.4'
O O 0.0106 0.0060 'International Tables Vol C Tables 4.2.6.8 and 6.1.1.4'
loop_
_geom_angle_atom_site_label_1
_geom_angle_atom_site_label_2
_geom_angle_atom_site_label_3
_geom_angle
_geom_angle_site_symmetry_1
_geom_angle_site_symmetry_3
Hf2 Hf2 Hf2 60.0 74_545 125_645
Hf2 Hf2 Hf2 60.0 74_545 29
Hf2 Hf2 Hf2 90.0 125_645 29
Hf2 Hf2 Hf2 60.0 29 170_556
Hf2 Hf2 Hf2 90.0 74_545 170_556
Hf2 Hf2 Hf2 60.0 125_645 170_556
O1 Hf2 Hf2 111.51(15) 8_556 74_545
O1 Hf2 Hf2 166.2(2) 102_655 170_556
O1 Hf2 Hf2 166.2(2) 8_556 29
O1 Hf2 Hf2 76.2(2) 102_655 74_545
O1 Hf2 Hf2 76.2(2) . 170_556
O1 Hf2 Hf2 111.51(15) . 29
O1 Hf2 Hf2 111.51(15) . 125_645
O1 Hf2 Hf2 76.2(2) 8_556 125_645
O1 Hf2 Hf2 111.51(15) 10_655 170_556
O1 Hf2 Hf2 111.51(15) 102_655 29
O1 Hf2 Hf2 111.51(15) 102_655 125_645
O1 Hf2 Hf2 166.2(2) . 74_545
O1 Hf2 Hf2 111.51(15) 10_655 74_545
O1 Hf2 Hf2 111.51(15) 8_556 170_556
O1 Hf2 Hf2 76.2(2) 10_655 29
O1 Hf2 Hf2 166.2(2) 10_655 125_645
O1 Hf2 O1 74.4(2) 10_655 .
O1 Hf2 O1 117.5(5) 10_655 8_556
O1 Hf2 O1 74.4(2) 10_655 102_655
O1 Hf2 O1 117.5(5) 102_655 .
O1 Hf2 O1 74.4(2) 8_556 .
O1 Hf2 O1 74.4(2) 8_556 102_655
O2 Hf2 Hf2 88.4(2) 99_556 74_545
O2 Hf2 Hf2 88.4(2) 74_545 170_556
O2 Hf2 Hf2 34.38(12) 74_545 74_545
O2 Hf2 Hf2 34.38(12) . 125_645
O2 Hf2 Hf2 34.38(12) 99_556 29
O2 Hf2 Hf2 34.38(12) 74_545 125_645
O2 Hf2 Hf2 88.4(2) . 74_545
O2 Hf2 Hf2 34.38(12) 99_556 170_556
O2 Hf2 Hf2 88.4(2) . 29
O2 Hf2 Hf2 88.4(2) 172_546 170_556
O2 Hf2 Hf2 34.38(12) . 170_556
O2 Hf2 Hf2 88.4(2) 172_546 125_645
O2 Hf2 Hf2 34.38(12) 172_546 29
O2 Hf2 Hf2 88.4(2) 74_545 29
O2 Hf2 Hf2 34.38(12) 172_546 74_545
O2 Hf2 Hf2 88.4(2) 99_556 125_645
O2 Hf2 O1 80.2(3) 74_545 8_556
O2 Hf2 O1 142.66(9) 74_545 10_655
O2 Hf2 O1 142.66(9) 74_545 .
O2 Hf2 O1 80.2(3) 74_545 102_655
O2 Hf2 O1 142.66(9) 99_556 8_556
O2 Hf2 O1 80.2(3) 99_556 10_655
O2 Hf2 O1 142.66(9) 99_556 102_655
O2 Hf2 O1 142.66(9) . 102_655
O2 Hf2 O1 80.2(3) 172_546 102_655
O2 Hf2 O1 80.2(3) . .
O2 Hf2 O1 80.2(3) . 8_556
O2 Hf2 O1 142.66(9) 172_546 .
O2 Hf2 O1 142.66(9) . 10_655
O2 Hf2 O1 80.2(3) 172_546 10_655
O2 Hf2 O1 142.66(9) 172_546 8_556
O2 Hf2 O1 80.2(3) 99_556 .
O2 Hf2 O2 105.8(5) 74_545 99_556
O2 Hf2 O2 68.7(3) . 99_556
O2 Hf2 O2 68.7(3) 172_546 99_556
O2 Hf2 O2 105.8(5) . 172_546
O2 Hf2 O2 68.7(3) 74_545 172_546
O2 Hf2 O2 68.7(3) . 74_545
C1 O1 Hf2 125.9(14) . .
Hf2 O2 Hf2 111.2(2) 170_556 .
Hf2 O2 Hf2 111.2(2) 125_645 .
Hf2 O2 Hf2 111.2(2) 125_645 170_556
O1 C1 O1 136(3) . 91_546
O1 C1 C2 112.2(14) 91_546 .
O1 C1 C2 112.2(14) . .
C3 C2 C1 118.0(10) 91_546 .
C3 C2 C1 118.0(10) . .
C3 C2 C3 124(2) 91_546 .
C4 C3 C2 117.4(13) . .
C3 C4 C5 119.5(13) . .
C4 C5 C4 122(2) . 91_546
C4 C5 C6 118.9(10) . .
C4 C5 C6 118.9(10) 91_546 .
C6 C6 C5 180.0(18) 20_666 .
loop_
_geom_bond_atom_site_label_1
_geom_bond_atom_site_label_2
_geom_bond_distance
_geom_bond_site_symmetry_2
Hf2 Hf2 3.4650(5) 170_556
Hf2 Hf2 3.4650(5) 29
Hf2 Hf2 3.4650(5) 125_645
Hf2 Hf2 3.4650(5) 74_545
Hf2 O1 2.172(6) 8_556
Hf2 O1 2.172(6) 10_655
Hf2 O1 2.172(6) 102_655
Hf2 O1 2.172(6) .
Hf2 O2 2.099(3) 99_556
Hf2 O2 2.099(3) 74_545
Hf2 O2 2.099(3) .
Hf2 O2 2.099(3) 172_546
O1 C1 1.313(13) .
O2 Hf2 2.099(3) 170_556
O2 Hf2 2.099(3) 125_645
C1 O1 1.313(13) 91_546
C1 C2 1.489(10) .
C2 C3 1.413(10) 91_546
C2 C3 1.413(10) .
C3 C4 1.408(10) .
C4 C5 1.408(10) .
C5 C4 1.408(10) 91_546
C5 C6 1.473(19) .
C6 C6 1.19(2) 20_666
loop_
_platon_squeeze_void_nr
_platon_squeeze_void_average_x
_platon_squeeze_void_average_y
_platon_squeeze_void_average_z
_platon_squeeze_void_volume
_platon_squeeze_void_count_electrons
_platon_squeeze_void_content
1 0.285 -0.005 -0.004 20364 3439 ' '
