#------------------------------------------------------------------------------
#$Date: 2015-07-24 02:12:31 +0300 (Fri, 24 Jul 2015) $
#$Revision: 152486 $
#$URL: svn://www.crystallography.net/cod/cif/4/12/41/4124190.cif $
#------------------------------------------------------------------------------
#
# This file is available in the Crystallography Open Database (COD),
# http://www.crystallography.net/
#
# All data on this site have been placed in the public domain by the
# contributors.
#
data_4124190
loop_
_publ_author_name
'Vukotic, V. Nicholas'
'O'Keefe, Christopher A'
'Zhu, Kelong'
'Harris, Kristopher J.'
'To, Christine'
'Schurko, Robert W.'
'Loeb, Stephen J.'
_publ_section_title
;
 Mechanically Interlocked Linkers inside Metal-Organic Frameworks: Effect
 of Ring Size on Rotational Dynamics.
;
_journal_name_full               'Journal of the American Chemical Society'
_journal_page_first              150723135020006
_journal_paper_doi               10.1021/jacs.5b04674
_journal_year                    2015
_chemical_formula_moiety         'C25 H29 N O8, C16 H32 O6'
_chemical_formula_sum            'C41 H61 N O14'
_chemical_formula_weight         791.90
_chemical_name_systematic
;
 ?
;
_space_group_crystal_system      monoclinic
_space_group_IT_number           4
_space_group_name_Hall           'P 2yb'
_space_group_name_H-M_alt        'P 1 21 1'
_symmetry_space_group_name_Hall  'P 2yb'
_symmetry_space_group_name_H-M   'P 1 21 1'
_atom_sites_solution_hydrogens   geom
_audit_creation_date             2015-01-30
_audit_creation_method
;
Olex2 1.2
(compiled 2015.01.19 svn.r3143 for OlexSys, GUI svn.r4992)
;
_cell_angle_alpha                90
_cell_angle_beta                 93.937(5)
_cell_angle_gamma                90
_cell_formula_units_Z            2
_cell_length_a                   8.5899(11)
_cell_length_b                   20.674(3)
_cell_length_c                   12.1902(15)
_cell_measurement_reflns_used    9724
_cell_measurement_temperature    150(2)
_cell_measurement_theta_max      65.08
_cell_measurement_theta_min      3.63
_cell_volume                     2159.7(5)
_computing_cell_refinement       'SAINT v8.34A (Bruker, 2013)'
_computing_data_collection       'APEX II'
_computing_data_reduction        'SAINT v8.34A (Bruker, 2013)'
_computing_molecular_graphics    'Olex2 (Dolomanov et al., 2009)'
_computing_publication_material  'Olex2 (Dolomanov et al., 2009)'
_computing_structure_refinement  'XL (Sheldrick, 2008)'
_diffrn_ambient_temperature      150.21
_diffrn_measured_fraction_theta_full 0.936
_diffrn_measured_fraction_theta_max 0.986
_diffrn_measurement_device_type  'Bruker D8 Venture'
_diffrn_measurement_method       '\f and \w scans'
_diffrn_radiation_type           CuK\a
_diffrn_radiation_wavelength     1.54178
_diffrn_reflns_av_R_equivalents  0.0250
_diffrn_reflns_av_unetI/netI     0.0190
_diffrn_reflns_laue_measured_fraction_full 0.936
_diffrn_reflns_laue_measured_fraction_max 0.986
_diffrn_reflns_limit_h_max       9
_diffrn_reflns_limit_h_min       -10
_diffrn_reflns_limit_k_max       24
_diffrn_reflns_limit_k_min       -22
_diffrn_reflns_limit_l_max       14
_diffrn_reflns_limit_l_min       -14
_diffrn_reflns_number            32210
_diffrn_reflns_point_group_measured_fraction_full 0.907
_diffrn_reflns_point_group_measured_fraction_max 0.956
_diffrn_reflns_theta_full        67.679
_diffrn_reflns_theta_max         65.403
_diffrn_reflns_theta_min         3.634
_diffrn_standards_number         0
_exptl_absorpt_coefficient_mu    0.755
_exptl_absorpt_correction_T_max  0.7526
_exptl_absorpt_correction_T_min  0.6737
_exptl_absorpt_correction_type   multi-scan
_exptl_absorpt_process_details
;
SADABS-2012/1 (Bruker,2012) was used for absorption correction.
wR2(int) was 0.0743 before and 0.0485 after correction.
The Ratio of minimum to maximum transmission is 0.8952.
The \l/2 correction factor is 0.0015.
;
_exptl_crystal_colour            colorless
_exptl_crystal_density_diffrn    1.218
_exptl_crystal_description       block
_exptl_crystal_F_000             852
_exptl_crystal_size_max          0.22
_exptl_crystal_size_mid          0.20
_exptl_crystal_size_min          0.16
_refine_diff_density_max         0.668
_refine_diff_density_min         -0.271
_refine_diff_density_rms         0.057
_refine_ls_abs_structure_details
;
 Flack x determined using 3008 quotients [(I+)-(I-)]/[(I+)+(I-)]
 (Parsons and Flack (2004), Acta Cryst. A60, s61).
;
_refine_ls_abs_structure_Flack   0.53(4)
_refine_ls_extinction_method     none
_refine_ls_goodness_of_fit_ref   1.068
_refine_ls_hydrogen_treatment    constr
_refine_ls_matrix_type           full
_refine_ls_number_parameters     505
_refine_ls_number_reflns         7097
_refine_ls_number_restraints     1
_refine_ls_restrained_S_all      1.068
_refine_ls_R_factor_all          0.0819
_refine_ls_R_factor_gt           0.0783
_refine_ls_shift/su_max          0.000
_refine_ls_shift/su_mean         0.000
_refine_ls_structure_factor_coef Fsqd
_refine_ls_weighting_details
'w=1/[\s^2^(Fo^2^)+(0.1247P)^2^+1.2398P] where P=(Fo^2^+2Fc^2^)/3'
_refine_ls_weighting_scheme      calc
_refine_ls_wR_factor_gt          0.2089
_refine_ls_wR_factor_ref         0.2141
_reflns_Friedel_coverage         0.881
_reflns_friedel_fraction_full    0.876
_reflns_friedel_fraction_max     0.924
_reflns_number_gt                6696
_reflns_number_total             7097
_reflns_threshold_expression     'I > 2\s(I)'
_iucr_refine_instructions_details
;
TITL cu_R22C6_0m in P2(1)
CELL 1.54178 8.5899 20.6736 12.1902 90 93.9368 90
ZERR 2 0.0011 0.0025 0.0015 0 0.0052 0
LATT -1
SYMM -X,0.5+Y,-Z
SFAC C H N O
UNIT 82 122 2 28
 
L.S. 100
PLAN  10
TEMP -122.94
HTAB C13 O9
HTAB C13 O10
HTAB N1 O13
BOND
MORE -1
BOND $H
CONF
fmap 2
acta
OMIT 0 2 0
REM <olex2.extras>
REM <HklSrc "%.\\cu_R22C6_0m.hkl">
REM </olex2.extras>
 
WGHT    0.124700    1.239800
FVAR       0.20996
O1    4    0.405495    0.361605    0.861838    11.00000    0.08478    0.05670 =
         0.11474   -0.01914   -0.01081    0.02765
O2    4    0.270525    0.396448    0.712072    11.00000    0.07076    0.06644 =
         0.12792    0.00442   -0.00451    0.02775
O3    4    0.354348    0.288235    0.363579    11.00000    0.10856    0.17990 =
         0.06677    0.05449    0.03047    0.08880
O4    4    0.526755    0.208604    0.352798    11.00000    0.17836    0.27379 =
         0.05031    0.04271    0.04324    0.17072
O5    4    1.089868   -0.023417    1.097600    11.00000    0.08383    0.07945 =
         0.05025   -0.00480   -0.01044    0.03048
O6    4    0.934200    0.060343    1.116140    11.00000    0.11671    0.09549 =
         0.04122   -0.00610    0.00970    0.05200
O7    4    0.977100   -0.102089    0.606028    11.00000    0.09744    0.07664 =
         0.08502   -0.04175   -0.00061    0.01412
O8    4    1.092843   -0.144176    0.754712    11.00000    0.30235    0.06447 =
         0.07419    0.00704    0.03989    0.08502
O9    4    0.821624    0.240567    0.977511    11.00000    0.08742    0.04931 =
         0.06475   -0.00960    0.00960    0.00469
O10   4    0.560803    0.159669    1.000031    11.00000    0.07923    0.06265 =
         0.07646    0.01613    0.02255    0.01093
O11   4    0.463231    0.049500    0.844592    11.00000    0.05650    0.07236 =
         0.16282    0.00368    0.01785   -0.01529
O12   4    0.482221    0.016433    0.600165    11.00000    0.08633    0.08576 =
         0.14430   -0.00065   -0.02772   -0.00511
O13   4    0.742167    0.051356    0.464133    11.00000    0.11190    0.13305 =
         0.05584   -0.02424   -0.02739    0.02471
O14   4    0.995276    0.132769    0.514885    11.00000    0.06842    0.15054 =
         0.06638   -0.01332    0.02062    0.02043
C26   1    0.727686    0.245585    1.066244    11.00000    0.09549    0.07368 =
         0.05597   -0.02083    0.01607    0.01443
AFIX  23
H26A  2    0.642128    0.276722    1.048344    11.00000   -1.20000
H26B  2    0.790462    0.261818    1.131652    11.00000   -1.20000
AFIX   0
C27   1    0.661307    0.181240    1.090718    11.00000    0.09261    0.07290 =
         0.05147    0.00084    0.02396    0.02930
AFIX  23
H27A  2    0.746889    0.149674    1.105349    11.00000   -1.20000
H27B  2    0.601869    0.184201    1.157300    11.00000   -1.20000
AFIX   0
C28   1    0.491160    0.098930    1.021182    11.00000    0.08150    0.07574 =
         0.13149    0.03293    0.04941   -0.00493
AFIX  23
H28A  2    0.433234    0.102607    1.088368    11.00000   -1.20000
H28B  2    0.574611    0.066384    1.035580    11.00000   -1.20000
AFIX   0
C29   1    0.383741    0.076021    0.930142    11.00000    0.07099    0.08874 =
         0.17218    0.02222    0.03509   -0.00757
AFIX  23
H29A  2    0.313195    0.042945    0.958185    11.00000   -1.20000
H29B  2    0.318842    0.112661    0.901454    11.00000   -1.20000
AFIX   0
C30   1    0.368928    0.009302    0.774294    11.00000    0.05621    0.08276 =
         0.18673    0.01538   -0.01054   -0.00993
AFIX  23
H30A  2    0.285065    0.035829    0.737132    11.00000   -1.20000
H30B  2    0.318804   -0.023555    0.819290    11.00000   -1.20000
AFIX   0
C31   1    0.456796   -0.025022    0.687551    11.00000    0.07551    0.07410 =
         0.18729   -0.00168   -0.02144   -0.01466
AFIX  23
H31A  2    0.558282   -0.040637    0.720820    11.00000   -1.20000
H31B  2    0.396016   -0.063033    0.659829    11.00000   -1.20000
AFIX   0
C32   1    0.545246   -0.019845    0.513866    11.00000    0.09449    0.11533 =
         0.11845   -0.04377   -0.03680    0.00096
AFIX  23
H32A  2    0.464693   -0.049394    0.480345    11.00000   -1.20000
H32B  2    0.634282   -0.046276    0.544029    11.00000   -1.20000
AFIX   0
C33   1    0.598594    0.025481    0.428531    11.00000    0.10878    0.14494 =
         0.09066   -0.05320   -0.04827    0.02059
AFIX  23
H33A  2    0.607627    0.001990    0.358483    11.00000   -1.20000
H33B  2    0.521380    0.060673    0.415463    11.00000   -1.20000
AFIX   0
C34   1    0.807934    0.087690    0.382753    11.00000    0.12264    0.19534 =
         0.03204   -0.01643    0.00354    0.07669
AFIX  23
H34A  2    0.756162    0.130396    0.375226    11.00000   -1.20000
H34B  2    0.794794    0.065033    0.311168    11.00000   -1.20000
AFIX   0
C35   1    0.976004    0.095988    0.415893    11.00000    0.09531    0.17541 =
         0.05548   -0.01588    0.01664    0.04431
AFIX  23
H35A  2    1.025508    0.053048    0.427299    11.00000   -1.20000
H35B  2    1.028031    0.118406    0.356666    11.00000   -1.20000
AFIX   0
C36   1    1.153891    0.146606    0.551354    11.00000    0.06971    0.13863 =
         0.09577    0.00471    0.03442    0.01582
AFIX  23
H36A  2    1.194376    0.182071    0.506750    11.00000   -1.20000
H36B  2    1.219461    0.107850    0.542252    11.00000   -1.20000
AFIX   0
C37   1    1.160753    0.165981    0.669827    11.00000    0.05238    0.09822 =
         0.08398    0.01407    0.01486   -0.00184
AFIX  23
H37A  2    1.122518    0.129407    0.712985    11.00000   -1.20000
H37B  2    1.271265    0.173486    0.695121    11.00000   -1.20000
AFIX   0
C38   1    1.069384    0.224764    0.694767    11.00000    0.05224    0.08250 =
         0.08204    0.03047    0.00870   -0.00973
AFIX  23
H38A  2    0.961792    0.219867    0.661177    11.00000   -1.20000
H38B  2    1.116645    0.262688    0.660242    11.00000   -1.20000
AFIX   0
C39   1    1.061850    0.237826    0.816902    11.00000    0.04940    0.05654 =
         0.08411    0.01063   -0.00031   -0.00527
AFIX  23
H39A  2    1.168613    0.246515    0.849368    11.00000   -1.20000
H39B  2    1.022965    0.198555    0.852605    11.00000   -1.20000
AFIX   0
C40   1    0.956618    0.294987    0.841979    11.00000    0.05823    0.05531 =
         0.09079    0.00778   -0.00168   -0.01389
AFIX  23
H40A  2    1.013325    0.335492    0.827763    11.00000   -1.20000
H40B  2    0.863138    0.293617    0.789796    11.00000   -1.20000
AFIX   0
C41   1    0.904079    0.297913    0.954974    11.00000    0.08167    0.04702 =
         0.08468   -0.00712   -0.00898    0.00212
AFIX  23
H41A  2    0.995461    0.302585    1.008445    11.00000   -1.20000
H41B  2    0.835500    0.335933    0.962328    11.00000   -1.20000
AFIX   0
 
C13   1    0.692275    0.164299    0.762421    11.00000    0.03300    0.06006 =
         0.03371   -0.00560    0.00627    0.00757
AFIX  23
H13A  2    0.626212    0.147926    0.819785    11.00000   -1.20000
H13B  2    0.781114    0.187468    0.800649    11.00000   -1.20000
AFIX   0
C1    1    0.331262    0.411174    0.928524    11.00000    0.07769    0.06580 =
         0.13141   -0.03646    0.00058    0.01773
AFIX  23
H1A   2    0.341144    0.454417    0.894814    11.00000   -1.20000
H1B   2    0.218989    0.401409    0.932671    11.00000   -1.20000
AFIX   0
C2    1    0.408333    0.410253    1.035349    11.00000    0.18246    0.08832 =
         0.12840   -0.02182    0.02712    0.05175
AFIX  33
H2A   2    0.361522    0.442748    1.081489    11.00000   -1.50000
H2B   2    0.519226    0.420059    1.030272    11.00000   -1.50000
H2C   2    0.397445    0.367315    1.068016    11.00000   -1.50000
AFIX   0
C3    1    0.363240    0.359743    0.754010    11.00000    0.06054    0.05101 =
         0.10088    0.00173   -0.00211   -0.00006
C4    1    0.442967    0.307000    0.697327    11.00000    0.03832    0.05218 =
         0.08363    0.01239    0.00480    0.00125
C5    1    0.533662    0.260813    0.753672    11.00000    0.03926    0.04993 =
         0.06958    0.00298    0.00481   -0.00680
AFIX  43
H5    2    0.549015    0.263473    0.831464    11.00000   -1.20000
AFIX   0
C6    1    0.603086    0.210346    0.698366    11.00000    0.02860    0.05878 =
         0.05892    0.01227    0.01231    0.00274
C7    1    0.580117    0.208032    0.586002    11.00000    0.04644    0.09087 =
         0.05782    0.02011    0.02667    0.02128
AFIX  43
H7    2    0.628141    0.174647    0.546758    11.00000   -1.20000
AFIX   0
C8    1    0.487281    0.253919    0.528082    11.00000    0.05235    0.10475 =
         0.06325    0.03648    0.02458    0.03043
C9    1    0.418270    0.303823    0.583324    11.00000    0.04472    0.07666 =
         0.08229    0.02888    0.01948    0.00964
AFIX  43
H9    2    0.355496    0.335169    0.544234    11.00000   -1.20000
AFIX   0
C10   1    0.462286    0.247392    0.408043    11.00000    0.10258    0.18506 =
         0.05990    0.05322    0.04076    0.08689
C11   1    0.203843    0.231445    0.216107    11.00000    0.32726    0.30081 =
         0.06518    0.00449   -0.00997    0.21490
AFIX  33
H11A  2    0.182698    0.229837    0.136125    11.00000   -1.50000
H11B  2    0.106622    0.240202    0.251042    11.00000   -1.50000
H11C  2    0.246715    0.189849    0.242229    11.00000   -1.50000
AFIX   0
C12   1    0.310676    0.280191    0.242889    11.00000    0.21190    0.30309 =
         0.07209    0.09340    0.06850    0.18974
AFIX  23
H12A  2    0.267044    0.321609    0.213932    11.00000   -1.20000
H12B  2    0.406812    0.271386    0.205054    11.00000   -1.20000
AFIX   0
N1    3    0.755056    0.108357    0.707022    11.00000    0.06138    0.06158 =
         0.04394   -0.00444    0.00901    0.00639
AFIX  43
H1    2    0.741878    0.104569    0.635081    11.00000   -1.20000
AFIX   0
C14   1    0.836728    0.060632    0.769749    11.00000    0.03467    0.04546 =
         0.04187   -0.00194    0.00870   -0.00654
C15   1    0.870565    0.063965    0.884382    11.00000    0.03588    0.04524 =
         0.03890   -0.00185    0.00875    0.00193
AFIX  43
H15   2    0.836485    0.100119    0.924446    11.00000   -1.20000
AFIX   0
C16   1    0.953393    0.014673    0.938854    11.00000    0.04205    0.04399 =
         0.04158    0.00232    0.01006   -0.00174
C17   1    1.000932   -0.039805    0.883672    11.00000    0.05165    0.03982 =
         0.05525    0.00705    0.01216    0.00194
AFIX  43
H17   2    1.054962   -0.073954    0.922016    11.00000   -1.20000
AFIX   0
C18   1    0.966786   -0.042976    0.769354    11.00000    0.05168    0.03770 =
         0.04992   -0.00695    0.01340   -0.01087
C19   1    0.888414    0.005693    0.714508    11.00000    0.04290    0.04762 =
         0.04368   -0.00786    0.00745   -0.00836
AFIX  43
H19   2    0.868086    0.002528    0.637103    11.00000   -1.20000
AFIX   0
C20   1    0.988670    0.020875    1.060505    11.00000    0.05361    0.05777 =
         0.04410    0.00593    0.00657    0.01094
C21   1    1.131399   -0.021288    1.215567    11.00000    0.11999    0.09469 =
         0.05240   -0.00317   -0.02149    0.03619
AFIX  23
H21A  2    1.137782    0.024011    1.241828    11.00000   -1.20000
H21B  2    1.052818   -0.044532    1.256375    11.00000   -1.20000
AFIX   0
C22   1    1.282389   -0.052674    1.231057    11.00000    0.10568    0.15459 =
         0.10727   -0.00604   -0.04023    0.00268
AFIX  33
H22A  2    1.316706   -0.052687    1.309405    11.00000   -1.50000
H22B  2    1.358468   -0.029190    1.189833    11.00000   -1.50000
H22C  2    1.273977   -0.097342    1.204396    11.00000   -1.50000
AFIX   0
C23   1    1.021096   -0.102414    0.712085    11.00000    0.08390    0.04111 =
         0.06122   -0.00596    0.02603   -0.00276
C24   1    1.018436   -0.157521    0.541127    11.00000    0.10752    0.07331 =
         0.08986   -0.03669    0.02100    0.00431
AFIX  23
H24A  2    1.036996   -0.195407    0.589951    11.00000   -1.20000
H24B  2    0.930705   -0.168048    0.487153    11.00000   -1.20000
AFIX   0
C25   1    1.148428   -0.145471    0.487203    11.00000    0.14692    0.19276 =
         0.24277   -0.16337    0.11706   -0.09191
AFIX  33
H25A  2    1.173871   -0.183581    0.444098    11.00000   -1.50000
H25B  2    1.235730   -0.135709    0.540643    11.00000   -1.50000
H25C  2    1.129552   -0.108421    0.437929    11.00000   -1.50000
AFIX   0
HKLF 4
 
REM  cu_R22C6_0m in P2(1)
REM R1 =  0.0783 for    6696 Fo > 4sig(Fo)  and  0.0819 for all    7097 data
REM    505 parameters refined using      1 restraints
 
END  
     
WGHT      0.1243      1.2449 

REM Highest difference peak  0.668,  deepest hole -0.271,  1-sigma level  0.057
Q1    1   1.2462  0.0106  1.2512  11.00000  0.05    0.67
Q2    1   0.4939  0.3779  0.8183  11.00000  0.05    0.32
Q3    1   0.9766  0.1966  0.5780  11.00000  0.05    0.28
Q4    1   0.2739  0.2556  0.2012  11.00000  0.05    0.27
Q5    1   1.1206 -0.1544  0.5565  11.00000  0.05    0.27
Q6    1   0.6690  0.2065  1.0188  11.00000  0.05    0.27
Q7    1   0.4355  0.4298  0.9005  11.00000  0.05    0.26
Q8    1   0.3249  0.2618  0.3025  11.00000  0.05    0.25
Q9    1   1.0373 -0.1491  0.7462  11.00000  0.05    0.25
Q10   1   1.0176  0.2689  0.7657  11.00000  0.05    0.25

REM The information below was added by Olex2.
REM
REM R1 = 0.0783 for 6696 Fo > 4sig(Fo) and 0.0819 for all 32254 data
REM n/a parameters refined using n/a restraints
REM Highest difference peak 0.67, deepest hole -0.27
REM Mean Shift 0, Max Shift 0.000.

REM +++ Tabular Listing of Refinement Information +++
REM R1_all = 0.0819
REM R1_gt = 0.0783
REM wR_ref = 0.2141
REM GOOF = 1.068
REM Shift_max = 0.000
REM Shift_mean = 0
REM Reflections_all = 32254
REM Reflections_gt = 6696
REM Parameters = n/a
REM Hole = -0.27
REM Peak = 0.67
REM Flack = 0.53(4)

;
_cod_data_source_file            ja5b04674_si_002.cif
_cod_data_source_block           cu_r22c6_0m
_cod_database_code               4124190
_shelxl_version_number           2013-4
_shelx_space_group_comment
;
The symmetry employed for this shelxl refinement is uniquely defined
by the following loop, which should always be used as a source of
symmetry information in preference to the above space-group names.
They are only intended as comments.
;
_olex2_refinement_description
;
1. Fixed Uiso
 At 1.2 times of:
  All C(H) groups, All C(H,H) groups, All N(H) groups
 At 1.5 times of:
  All C(H,H,H) groups
2.a Secondary CH2 refined with riding coordinates:
 C26(H26A,H26B), C27(H27A,H27B), C28(H28A,H28B), C29(H29A,H29B), C30(H30A,
 H30B), C31(H31A,H31B), C32(H32A,H32B), C33(H33A,H33B), C34(H34A,H34B),
 C35(H35A,H35B), C36(H36A,H36B), C37(H37A,H37B), C38(H38A,H38B), C39(H39A,H39B),
  C40(H40A,H40B), C41(H41A,H41B), C13(H13A,H13B), C1(H1A,H1B), C12(H12A,H12B),
 C21(H21A,H21B), C24(H24A,H24B)
2.b Me refined with riding coordinates:
 C2(H2A,H2B,H2C), C11(H11A,H11B,H11C), C22(H22A,H22B,H22C), C25(H25A,H25B,H25C)
2.c Aromatic/amide H refined with riding coordinates:
 C5(H5), C7(H7), C9(H9), N1(H1), C15(H15), C17(H17), C19(H19)
;
_olex2_submission_special_instructions 'No special instructions were received'
loop_
_space_group_symop_operation_xyz
'x, y, z'
'-x, y+1/2, -z'
loop_
_atom_site_label
_atom_site_type_symbol
_atom_site_fract_x
_atom_site_fract_y
_atom_site_fract_z
_atom_site_U_iso_or_equiv
_atom_site_adp_type
_atom_site_occupancy
_atom_site_site_symmetry_order
_atom_site_calc_flag
_atom_site_refinement_flags_posn
O1 O 0.4055(6) 0.3616(2) 0.8618(5) 0.0862(15) Uani 1 1 d .
O2 O 0.2705(6) 0.3964(2) 0.7121(5) 0.0889(15) Uani 1 1 d .
O3 O 0.3543(7) 0.2882(4) 0.3636(4) 0.117(3) Uani 1 1 d .
O4 O 0.5268(10) 0.2086(5) 0.3528(4) 0.166(5) Uani 1 1 d .
O5 O 1.0899(6) -0.0234(2) 1.0976(3) 0.0719(12) Uani 1 1 d .
O6 O 0.9342(7) 0.0603(3) 1.1161(3) 0.0843(15) Uani 1 1 d .
O7 O 0.9771(6) -0.1021(3) 0.6060(4) 0.0867(15) Uani 1 1 d .
O8 O 1.0928(13) -0.1442(3) 0.7547(5) 0.146(4) Uani 1 1 d .
O9 O 0.8216(6) 0.2406(2) 0.9775(3) 0.0670(11) Uani 1 1 d .
O10 O 0.5608(5) 0.1597(2) 1.0000(4) 0.0720(12) Uani 1 1 d .
O11 O 0.4632(6) 0.0495(3) 0.8446(6) 0.0967(17) Uani 1 1 d .
O12 O 0.4822(7) 0.0164(3) 0.6002(6) 0.107(2) Uani 1 1 d .
O13 O 0.7422(7) 0.0514(3) 0.4641(4) 0.1018(19) Uani 1 1 d .
O14 O 0.9953(6) 0.1328(4) 0.5149(4) 0.0944(18) Uani 1 1 d .
C26 C 0.7277(9) 0.2456(4) 1.0662(5) 0.0745(18) Uani 1 1 d .
H26A H 0.6421 0.2767 1.0483 0.089 Uiso 1 1 calc R
H26B H 0.7905 0.2618 1.1317 0.089 Uiso 1 1 calc R
C27 C 0.6613(9) 0.1812(3) 1.0907(5) 0.0715(18) Uani 1 1 d .
H27A H 0.7469 0.1497 1.1053 0.086 Uiso 1 1 calc R
H27B H 0.6019 0.1842 1.1573 0.086 Uiso 1 1 calc R
C28 C 0.4912(10) 0.0989(4) 1.0212(8) 0.094(3) Uani 1 1 d .
H28A H 0.4332 0.1026 1.0884 0.113 Uiso 1 1 calc R
H28B H 0.5746 0.0664 1.0356 0.113 Uiso 1 1 calc R
C29 C 0.3837(11) 0.0760(5) 0.9301(10) 0.109(3) Uani 1 1 d .
H29A H 0.3132 0.0429 0.9582 0.131 Uiso 1 1 calc R
H29B H 0.3188 0.1127 0.9015 0.131 Uiso 1 1 calc R
C30 C 0.3689(9) 0.0093(5) 0.7743(10) 0.109(3) Uani 1 1 d .
H30A H 0.2851 0.0358 0.7371 0.131 Uiso 1 1 calc R
H30B H 0.3188 -0.0236 0.8193 0.131 Uiso 1 1 calc R
C31 C 0.4568(11) -0.0250(5) 0.6876(10) 0.114(3) Uani 1 1 d .
H31A H 0.5583 -0.0406 0.7208 0.136 Uiso 1 1 calc R
H31B H 0.3960 -0.0630 0.6598 0.136 Uiso 1 1 calc R
C32 C 0.5452(12) -0.0198(6) 0.5139(10) 0.111(3) Uani 1 1 d .
H32A H 0.4647 -0.0494 0.4803 0.134 Uiso 1 1 calc R
H32B H 0.6343 -0.0463 0.5440 0.134 Uiso 1 1 calc R
C33 C 0.5986(12) 0.0255(6) 0.4285(8) 0.117(4) Uani 1 1 d .
H33A H 0.6076 0.0020 0.3585 0.141 Uiso 1 1 calc R
H33B H 0.5214 0.0607 0.4155 0.141 Uiso 1 1 calc R
C34 C 0.8079(12) 0.0877(6) 0.3828(5) 0.117(4) Uani 1 1 d .
H34A H 0.7562 0.1304 0.3752 0.140 Uiso 1 1 calc R
H34B H 0.7948 0.0650 0.3112 0.140 Uiso 1 1 calc R
C35 C 0.9760(11) 0.0960(6) 0.4159(6) 0.108(3) Uani 1 1 d .
H35A H 1.0255 0.0530 0.4273 0.130 Uiso 1 1 calc R
H35B H 1.0280 0.1184 0.3567 0.130 Uiso 1 1 calc R
C36 C 1.1539(9) 0.1466(6) 0.5514(7) 0.100(3) Uani 1 1 d .
H36A H 1.1944 0.1821 0.5067 0.120 Uiso 1 1 calc R
H36B H 1.2195 0.1078 0.5423 0.120 Uiso 1 1 calc R
C37 C 1.1608(8) 0.1660(4) 0.6698(6) 0.0777(18) Uani 1 1 d .
H37A H 1.1225 0.1294 0.7130 0.093 Uiso 1 1 calc R
H37B H 1.2713 0.1735 0.6951 0.093 Uiso 1 1 calc R
C38 C 1.0694(7) 0.2248(3) 0.6948(6) 0.0721(18) Uani 1 1 d .
H38A H 0.9618 0.2199 0.6612 0.086 Uiso 1 1 calc R
H38B H 1.1166 0.2627 0.6602 0.086 Uiso 1 1 calc R
C39 C 1.0619(7) 0.2378(3) 0.8169(5) 0.0636(14) Uani 1 1 d .
H39A H 1.1686 0.2465 0.8494 0.076 Uiso 1 1 calc R
H39B H 1.0230 0.1986 0.8526 0.076 Uiso 1 1 calc R
C40 C 0.9566(7) 0.2950(3) 0.8420(6) 0.0684(16) Uani 1 1 d .
H40A H 1.0133 0.3355 0.8278 0.082 Uiso 1 1 calc R
H40B H 0.8631 0.2936 0.7898 0.082 Uiso 1 1 calc R
C41 C 0.9041(8) 0.2979(3) 0.9550(6) 0.0718(17) Uani 1 1 d .
H41A H 0.9955 0.3026 1.0084 0.086 Uiso 1 1 calc R
H41B H 0.8355 0.3359 0.9623 0.086 Uiso 1 1 calc R
C13 C 0.6923(5) 0.1643(2) 0.7624(4) 0.0421(10) Uani 1 1 d .
H13A H 0.6262 0.1479 0.8198 0.050 Uiso 1 1 calc R
H13B H 0.7811 0.1875 0.8006 0.050 Uiso 1 1 calc R
C1 C 0.3313(10) 0.4112(4) 0.9285(8) 0.092(2) Uani 1 1 d .
H1A H 0.3411 0.4544 0.8948 0.110 Uiso 1 1 calc R
H1B H 0.2190 0.4014 0.9327 0.110 Uiso 1 1 calc R
C2 C 0.4083(18) 0.4103(5) 1.0353(10) 0.132(4) Uani 1 1 d .
H2A H 0.3615 0.4427 1.0815 0.198 Uiso 1 1 calc R
H2B H 0.5192 0.4201 1.0303 0.198 Uiso 1 1 calc R
H2C H 0.3974 0.3673 1.0680 0.198 Uiso 1 1 calc R
C3 C 0.3632(8) 0.3597(3) 0.7540(7) 0.0712(17) Uani 1 1 d .
C4 C 0.4430(6) 0.3070(3) 0.6973(5) 0.0580(14) Uani 1 1 d .
C5 C 0.5337(6) 0.2608(2) 0.7537(5) 0.0529(12) Uani 1 1 d .
H5 H 0.5490 0.2635 0.8315 0.063 Uiso 1 1 calc R
C6 C 0.6031(5) 0.2103(3) 0.6984(4) 0.0483(11) Uani 1 1 d .
C7 C 0.5801(6) 0.2080(3) 0.5860(5) 0.0640(16) Uani 1 1 d .
H7 H 0.6281 0.1746 0.5468 0.077 Uiso 1 1 calc R
C8 C 0.4873(7) 0.2539(4) 0.5281(5) 0.073(2) Uani 1 1 d .
C9 C 0.4183(7) 0.3038(3) 0.5833(6) 0.0672(16) Uani 1 1 d .
H9 H 0.3555 0.3352 0.5442 0.081 Uiso 1 1 calc R
C10 C 0.4623(10) 0.2474(6) 0.4080(6) 0.114(4) Uani 1 1 d .
C11 C 0.204(3) 0.2314(12) 0.2161(12) 0.232(16) Uani 1 1 d .
H11A H 0.1827 0.2298 0.1361 0.348 Uiso 1 1 calc R
H11B H 0.1066 0.2402 0.2510 0.348 Uiso 1 1 calc R
H11C H 0.2467 0.1898 0.2422 0.348 Uiso 1 1 calc R
C12 C 0.311(2) 0.2802(11) 0.2429(10) 0.193(11) Uani 1 1 d .
H12A H 0.2670 0.3216 0.2139 0.232 Uiso 1 1 calc R
H12B H 0.4068 0.2714 0.2051 0.232 Uiso 1 1 calc R
N1 N 0.7551(5) 0.1084(2) 0.7070(4) 0.0554(11) Uani 1 1 d .
H1 H 0.7419 0.1046 0.6351 0.066 Uiso 1 1 calc R
C14 C 0.8367(5) 0.0606(2) 0.7697(4) 0.0404(10) Uani 1 1 d .
C15 C 0.8706(5) 0.0640(2) 0.8844(4) 0.0397(9) Uani 1 1 d .
H15 H 0.8365 0.1001 0.9244 0.048 Uiso 1 1 calc R
C16 C 0.9534(5) 0.0147(2) 0.9389(4) 0.0422(10) Uani 1 1 d .
C17 C 1.0009(6) -0.0398(2) 0.8837(4) 0.0485(11) Uani 1 1 d .
H17 H 1.0550 -0.0740 0.9220 0.058 Uiso 1 1 calc R
C18 C 0.9668(6) -0.0430(2) 0.7694(4) 0.0460(11) Uani 1 1 d .
C19 C 0.8884(5) 0.0057(2) 0.7145(4) 0.0445(11) Uani 1 1 d .
H19 H 0.8681 0.0025 0.6371 0.053 Uiso 1 1 calc R
C20 C 0.9887(6) 0.0209(3) 1.0605(4) 0.0517(12) Uani 1 1 d .
C21 C 1.1314(11) -0.0213(4) 1.2156(5) 0.090(2) Uani 1 1 d .
H21A H 1.1378 0.0240 1.2418 0.108 Uiso 1 1 calc R
H21B H 1.0528 -0.0445 1.2564 0.108 Uiso 1 1 calc R
C22 C 1.2824(13) -0.0527(6) 1.2311(9) 0.125(4) Uani 1 1 d .
H22A H 1.3167 -0.0527 1.3094 0.187 Uiso 1 1 calc R
H22B H 1.3585 -0.0292 1.1898 0.187 Uiso 1 1 calc R
H22C H 1.2740 -0.0973 1.2044 0.187 Uiso 1 1 calc R
C23 C 1.0211(8) -0.1024(3) 0.7121(5) 0.0611(15) Uani 1 1 d .
C24 C 1.0184(11) -0.1575(4) 0.5411(7) 0.090(2) Uani 1 1 d .
H24A H 1.0370 -0.1954 0.5900 0.107 Uiso 1 1 calc R
H24B H 0.9307 -0.1680 0.4872 0.107 Uiso 1 1 calc R
C25 C 1.1484(16) -0.1455(8) 0.4872(14) 0.189(9) Uani 1 1 d .
H25A H 1.1739 -0.1836 0.4441 0.284 Uiso 1 1 calc R
H25B H 1.2357 -0.1357 0.5406 0.284 Uiso 1 1 calc R
H25C H 1.1296 -0.1084 0.4379 0.284 Uiso 1 1 calc R
loop_
_atom_site_aniso_label
_atom_site_aniso_U_11
_atom_site_aniso_U_22
_atom_site_aniso_U_33
_atom_site_aniso_U_23
_atom_site_aniso_U_13
_atom_site_aniso_U_12
O1 0.085(3) 0.057(3) 0.115(4) -0.019(2) -0.011(3) 0.028(2)
O2 0.071(3) 0.066(3) 0.128(4) 0.004(3) -0.005(3) 0.028(2)
O3 0.109(4) 0.180(6) 0.067(3) 0.054(3) 0.030(3) 0.089(4)
O4 0.178(7) 0.274(10) 0.050(3) 0.043(4) 0.043(3) 0.171(8)
O5 0.084(3) 0.079(3) 0.050(2) -0.005(2) -0.0104(19) 0.030(2)
O6 0.117(4) 0.095(3) 0.0412(19) -0.006(2) 0.010(2) 0.052(3)
O7 0.097(3) 0.077(3) 0.085(3) -0.042(3) -0.001(3) 0.014(3)
O8 0.302(11) 0.064(3) 0.074(3) 0.007(3) 0.040(5) 0.085(5)
O9 0.087(3) 0.049(2) 0.065(2) -0.0096(18) 0.010(2) 0.0047(19)
O10 0.079(3) 0.063(2) 0.076(3) 0.016(2) 0.023(2) 0.011(2)
O11 0.056(2) 0.072(3) 0.163(5) 0.004(3) 0.018(3) -0.015(2)
O12 0.086(4) 0.086(4) 0.144(6) -0.001(4) -0.028(4) -0.005(3)
O13 0.112(4) 0.133(5) 0.056(3) -0.024(3) -0.027(3) 0.025(4)
O14 0.068(3) 0.151(5) 0.066(3) -0.013(3) 0.021(2) 0.020(3)
C26 0.095(5) 0.074(4) 0.056(3) -0.021(3) 0.016(3) 0.014(4)
C27 0.093(5) 0.073(4) 0.051(3) 0.001(3) 0.024(3) 0.029(4)
C28 0.081(5) 0.076(5) 0.131(7) 0.033(5) 0.049(5) -0.005(4)
C29 0.071(5) 0.089(6) 0.172(10) 0.022(6) 0.035(6) -0.008(4)
C30 0.056(4) 0.083(5) 0.187(11) 0.015(6) -0.011(5) -0.010(4)
C31 0.076(5) 0.074(5) 0.187(11) -0.002(6) -0.021(6) -0.015(4)
C32 0.094(6) 0.115(7) 0.118(8) -0.044(7) -0.037(5) 0.001(5)
C33 0.109(6) 0.145(9) 0.091(6) -0.053(6) -0.048(5) 0.021(6)
C34 0.123(7) 0.195(10) 0.032(3) -0.016(4) 0.004(3) 0.077(7)
C35 0.095(6) 0.175(10) 0.055(4) -0.016(5) 0.017(4) 0.044(6)
C36 0.070(4) 0.139(8) 0.096(5) 0.005(5) 0.034(4) 0.016(5)
C37 0.052(3) 0.098(5) 0.084(4) 0.014(4) 0.015(3) -0.002(3)
C38 0.052(3) 0.083(5) 0.082(4) 0.030(3) 0.009(3) -0.010(3)
C39 0.049(3) 0.057(3) 0.084(4) 0.011(3) 0.000(3) -0.005(2)
C40 0.058(3) 0.055(3) 0.091(4) 0.008(3) -0.002(3) -0.014(3)
C41 0.082(4) 0.047(3) 0.085(4) -0.007(3) -0.009(3) 0.002(3)
C13 0.033(2) 0.060(3) 0.034(2) -0.0056(19) 0.0063(17) 0.008(2)
C1 0.078(4) 0.066(4) 0.131(7) -0.036(4) 0.001(4) 0.018(3)
C2 0.182(12) 0.088(6) 0.128(9) -0.022(6) 0.027(8) 0.052(7)
C3 0.061(3) 0.051(3) 0.101(5) 0.002(3) -0.002(3) 0.000(3)
C4 0.038(2) 0.052(3) 0.084(4) 0.012(3) 0.005(2) 0.001(2)
C5 0.039(2) 0.050(3) 0.070(3) 0.003(2) 0.005(2) -0.007(2)
C6 0.029(2) 0.059(3) 0.059(3) 0.012(2) 0.0123(19) 0.003(2)
C7 0.046(3) 0.091(4) 0.058(3) 0.020(3) 0.027(2) 0.021(3)
C8 0.052(3) 0.105(5) 0.063(3) 0.036(3) 0.025(3) 0.030(3)
C9 0.045(3) 0.077(4) 0.082(4) 0.029(3) 0.019(3) 0.010(3)
C10 0.103(6) 0.185(10) 0.060(4) 0.053(5) 0.041(4) 0.087(7)
C11 0.33(3) 0.30(3) 0.065(6) 0.004(12) -0.010(12) 0.21(3)
C12 0.212(17) 0.30(3) 0.072(8) 0.093(11) 0.068(9) 0.190(18)
N1 0.061(3) 0.062(3) 0.044(2) -0.004(2) 0.0090(19) 0.006(2)
C14 0.035(2) 0.045(2) 0.042(2) -0.0019(19) 0.0087(17) -0.0065(18)
C15 0.036(2) 0.045(2) 0.039(2) -0.0019(18) 0.0088(17) 0.0019(18)
C16 0.042(2) 0.044(2) 0.042(2) 0.0023(19) 0.0101(18) -0.0017(19)
C17 0.052(3) 0.040(2) 0.055(3) 0.007(2) 0.012(2) 0.002(2)
C18 0.052(3) 0.038(2) 0.050(3) -0.007(2) 0.013(2) -0.011(2)
C19 0.043(2) 0.048(3) 0.044(2) -0.008(2) 0.0075(19) -0.008(2)
C20 0.054(3) 0.058(3) 0.044(3) 0.006(2) 0.007(2) 0.011(2)
C21 0.120(6) 0.095(5) 0.052(4) -0.003(3) -0.021(4) 0.036(5)
C22 0.106(7) 0.155(10) 0.107(7) -0.006(7) -0.040(6) 0.003(7)
C23 0.084(4) 0.041(3) 0.061(3) -0.006(3) 0.026(3) -0.003(3)
C24 0.108(6) 0.073(4) 0.090(5) -0.037(4) 0.021(4) 0.004(4)
C25 0.147(10) 0.193(13) 0.243(16) -0.163(13) 0.117(11) -0.092(10)
loop_
_atom_type_symbol
_atom_type_description
_atom_type_scat_dispersion_real
_atom_type_scat_dispersion_imag
_atom_type_scat_source
C C 0.0181 0.0091 'International Tables Vol C Tables 4.2.6.8 and 6.1.1.4'
H H 0.0000 0.0000 'International Tables Vol C Tables 4.2.6.8 and 6.1.1.4'
N N 0.0311 0.0180 'International Tables Vol C Tables 4.2.6.8 and 6.1.1.4'
O O 0.0492 0.0322 'International Tables Vol C Tables 4.2.6.8 and 6.1.1.4'
loop_
_geom_angle_atom_site_label_1
_geom_angle_atom_site_label_2
_geom_angle_atom_site_label_3
_geom_angle
C3 O1 C1 117.4(6)
C10 O3 C12 116.5(8)
C20 O5 C21 115.3(5)
C23 O7 C24 117.7(6)
C26 O9 C41 114.3(5)
C28 O10 C27 112.0(6)
C29 O11 C30 113.3(7)
C31 O12 C32 109.1(9)
C33 O13 C34 112.4(7)
C35 O14 C36 114.9(6)
O9 C26 H26A 109.7
O9 C26 H26B 109.7
O9 C26 C27 109.8(5)
H26A C26 H26B 108.2
C27 C26 H26A 109.7
C27 C26 H26B 109.7
O10 C27 C26 110.1(5)
O10 C27 H27A 109.6
O10 C27 H27B 109.6
C26 C27 H27A 109.6
C26 C27 H27B 109.6
H27A C27 H27B 108.1
O10 C28 H28A 108.9
O10 C28 H28B 108.9
O10 C28 C29 113.4(7)
H28A C28 H28B 107.7
C29 C28 H28A 108.9
C29 C28 H28B 108.9
O11 C29 C28 112.1(7)
O11 C29 H29A 109.2
O11 C29 H29B 109.2
C28 C29 H29A 109.2
C28 C29 H29B 109.2
H29A C29 H29B 107.9
O11 C30 H30A 108.7
O11 C30 H30B 108.7
O11 C30 C31 114.0(6)
H30A C30 H30B 107.6
C31 C30 H30A 108.7
C31 C30 H30B 108.7
O12 C31 C30 110.9(8)
O12 C31 H31A 109.5
O12 C31 H31B 109.5
C30 C31 H31A 109.5
C30 C31 H31B 109.5
H31A C31 H31B 108.1
O12 C32 H32A 109.8
O12 C32 H32B 109.8
O12 C32 C33 109.5(9)
H32A C32 H32B 108.2
C33 C32 H32A 109.8
C33 C32 H32B 109.8
O13 C33 C32 109.4(7)
O13 C33 H33A 109.8
O13 C33 H33B 109.8
C32 C33 H33A 109.8
C32 C33 H33B 109.8
H33A C33 H33B 108.2
O13 C34 H34A 110.2
O13 C34 H34B 110.2
O13 C34 C35 107.6(7)
H34A C34 H34B 108.5
C35 C34 H34A 110.2
C35 C34 H34B 110.2
O14 C35 C34 110.3(6)
O14 C35 H35A 109.6
O14 C35 H35B 109.6
C34 C35 H35A 109.6
C34 C35 H35B 109.6
H35A C35 H35B 108.1
O14 C36 H36A 109.9
O14 C36 H36B 109.9
O14 C36 C37 109.1(6)
H36A C36 H36B 108.3
C37 C36 H36A 109.9
C37 C36 H36B 109.9
C36 C37 H37A 108.4
C36 C37 H37B 108.4
H37A C37 H37B 107.5
C38 C37 C36 115.4(7)
C38 C37 H37A 108.4
C38 C37 H37B 108.4
C37 C38 H38A 108.8
C37 C38 H38B 108.8
C37 C38 C39 113.8(5)
H38A C38 H38B 107.7
C39 C38 H38A 108.8
C39 C38 H38B 108.8
C38 C39 H39A 108.9
C38 C39 H39B 108.9
C38 C39 C40 113.5(5)
H39A C39 H39B 107.7
C40 C39 H39A 108.9
C40 C39 H39B 108.9
C39 C40 H40A 108.3
C39 C40 H40B 108.3
H40A C40 H40B 107.4
C41 C40 C39 116.1(6)
C41 C40 H40A 108.3
C41 C40 H40B 108.3
O9 C41 C40 109.5(5)
O9 C41 H41A 109.8
O9 C41 H41B 109.8
C40 C41 H41A 109.8
C40 C41 H41B 109.8
H41A C41 H41B 108.2
H13A C13 H13B 107.1
C6 C13 H13A 107.7
C6 C13 H13B 107.7
C6 C13 N1 118.6(4)
N1 C13 H13A 107.7
N1 C13 H13B 107.7
O1 C1 H1A 110.2
O1 C1 H1B 110.2
H1A C1 H1B 108.5
C2 C1 O1 107.7(7)
C2 C1 H1A 110.2
C2 C1 H1B 110.2
C1 C2 H2A 109.5
C1 C2 H2B 109.5
C1 C2 H2C 109.5
H2A C2 H2B 109.5
H2A C2 H2C 109.5
H2B C2 H2C 109.5
O1 C3 C4 112.1(5)
O2 C3 O1 122.1(7)
O2 C3 C4 125.8(7)
C5 C4 C3 122.5(6)
C5 C4 C9 120.3(6)
C9 C4 C3 117.1(5)
C4 C5 H5 119.3
C4 C5 C6 121.3(5)
C6 C5 H5 119.3
C5 C6 C13 117.8(5)
C7 C6 C13 124.1(5)
C7 C6 C5 118.1(5)
C6 C7 H7 119.4
C6 C7 C8 121.2(6)
C8 C7 H7 119.4
C7 C8 C10 118.6(6)
C9 C8 C7 120.5(6)
C9 C8 C10 120.9(6)
C4 C9 H9 120.7
C8 C9 C4 118.6(5)
C8 C9 H9 120.7
O3 C10 C8 113.2(7)
O4 C10 O3 121.6(7)
O4 C10 C8 125.1(6)
H11A C11 H11B 109.5
H11A C11 H11C 109.5
H11B C11 H11C 109.5
C12 C11 H11A 109.5
C12 C11 H11B 109.5
C12 C11 H11C 109.5
O3 C12 H12A 108.4
O3 C12 H12B 108.4
C11 C12 O3 115.3(15)
C11 C12 H12A 108.4
C11 C12 H12B 108.4
H12A C12 H12B 107.5
C13 N1 H1 120.3
C14 N1 C13 119.4(4)
C14 N1 H1 120.3
N1 C14 C15 124.5(4)
N1 C14 C19 117.9(4)
C19 C14 C15 117.6(4)
C14 C15 H15 119.9
C16 C15 C14 120.2(4)
C16 C15 H15 119.9
C15 C16 C17 121.5(4)
C15 C16 C20 118.3(4)
C17 C16 C20 120.2(4)
C16 C17 H17 121.0
C16 C17 C18 118.0(4)
C18 C17 H17 121.0
C17 C18 C23 116.6(5)
C19 C18 C17 121.0(4)
C19 C18 C23 122.4(5)
C14 C19 H19 119.2
C18 C19 C14 121.6(4)
C18 C19 H19 119.2
O5 C20 C16 111.3(4)
O6 C20 O5 124.1(5)
O6 C20 C16 124.6(5)
O5 C21 H21A 110.6
O5 C21 H21B 110.6
H21A C21 H21B 108.7
C22 C21 O5 105.7(7)
C22 C21 H21A 110.6
C22 C21 H21B 110.6
C21 C22 H22A 109.5
C21 C22 H22B 109.5
C21 C22 H22C 109.5
H22A C22 H22B 109.5
H22A C22 H22C 109.5
H22B C22 H22C 109.5
O7 C23 C18 111.9(5)
O8 C23 O7 123.2(5)
O8 C23 C18 124.9(6)
O7 C24 H24A 109.4
O7 C24 H24B 109.4
H24A C24 H24B 108.0
C25 C24 O7 111.1(8)
C25 C24 H24A 109.4
C25 C24 H24B 109.4
C24 C25 H25A 109.5
C24 C25 H25B 109.5
C24 C25 H25C 109.5
H25A C25 H25B 109.5
H25A C25 H25C 109.5
H25B C25 H25C 109.5
loop_
_geom_bond_atom_site_label_1
_geom_bond_atom_site_label_2
_geom_bond_distance
O1 C1 1.479(8)
O1 C3 1.340(9)
O2 C3 1.190(8)
O3 C10 1.341(9)
O3 C12 1.502(16)
O4 C10 1.206(11)
O5 C20 1.321(7)
O5 C21 1.458(7)
O6 C20 1.178(7)
O7 C23 1.322(8)
O7 C24 1.450(8)
O8 C23 1.162(9)
O9 C26 1.397(8)
O9 C41 1.418(8)
O10 C27 1.427(9)
O10 C28 1.422(8)
O11 C29 1.397(12)
O11 C30 1.409(11)
O12 C31 1.396(13)
O12 C32 1.428(12)
O13 C33 1.386(12)
O13 C34 1.394(13)
O14 C35 1.426(10)
O14 C36 1.433(10)
C26 H26A 0.9900
C26 H26B 0.9900
C26 C27 1.486(11)
C27 H27A 0.9900
C27 H27B 0.9900
C28 H28A 0.9900
C28 H28B 0.9900
C28 C29 1.472(15)
C29 H29A 0.9900
C29 H29B 0.9900
C30 H30A 0.9900
C30 H30B 0.9900
C30 C31 1.517(15)
C31 H31A 0.9900
C31 H31B 0.9900
C32 H32A 0.9900
C32 H32B 0.9900
C32 C33 1.495(16)
C33 H33A 0.9900
C33 H33B 0.9900
C34 H34A 0.9900
C34 H34B 0.9900
C34 C35 1.482(14)
C35 H35A 0.9900
C35 H35B 0.9900
C36 H36A 0.9900
C36 H36B 0.9900
C36 C37 1.496(12)
C37 H37A 0.9900
C37 H37B 0.9900
C37 C38 1.489(11)
C38 H38A 0.9900
C38 H38B 0.9900
C38 C39 1.519(10)
C39 H39A 0.9900
C39 H39B 0.9900
C39 C40 1.531(9)
C40 H40A 0.9900
C40 H40B 0.9900
C40 C41 1.480(10)
C41 H41A 0.9900
C41 H41B 0.9900
C13 H13A 0.9900
C13 H13B 0.9900
C13 C6 1.422(7)
C13 N1 1.461(6)
C1 H1A 0.9900
C1 H1B 0.9900
C1 C2 1.420(15)
C2 H2A 0.9800
C2 H2B 0.9800
C2 H2C 0.9800
C3 C4 1.483(9)
C4 C5 1.385(8)
C4 C9 1.393(9)
C5 H5 0.9500
C5 C6 1.398(8)
C6 C7 1.371(8)
C7 H7 0.9500
C7 C8 1.399(8)
C8 C9 1.387(10)
C8 C10 1.471(10)
C9 H9 0.9500
C11 H11A 0.9800
C11 H11B 0.9800
C11 H11C 0.9800
C11 C12 1.39(3)
C12 H12A 0.9900
C12 H12B 0.9900
N1 H1 0.8800
N1 C14 1.406(7)
C14 C15 1.409(6)
C14 C19 1.408(7)
C15 H15 0.9500
C15 C16 1.386(7)
C16 C17 1.388(7)
C16 C20 1.499(7)
C17 H17 0.9500
C17 C18 1.406(7)
C18 C19 1.360(7)
C18 C23 1.503(7)
C19 H19 0.9500
C21 H21A 0.9900
C21 H21B 0.9900
C21 C22 1.451(14)
C22 H22A 0.9800
C22 H22B 0.9800
C22 H22C 0.9800
C24 H24A 0.9900
C24 H24B 0.9900
C24 C25 1.357(13)
C25 H25A 0.9800
C25 H25B 0.9800
C25 H25C 0.9800
loop_
_geom_hbond_atom_site_label_D
_geom_hbond_atom_site_label_H
_geom_hbond_atom_site_label_A
_geom_hbond_distance_DH
_geom_hbond_distance_HA
_geom_hbond_distance_DA
_geom_hbond_angle_DHA
C13 H13A O10 0.99 2.32 3.182(6) 145.3
C13 H13B O9 0.99 2.42 3.193(6) 134.2
N1 H1 O13 0.88 2.36 3.182(6) 156.2
loop_
_geom_torsion_atom_site_label_1
_geom_torsion_atom_site_label_2
_geom_torsion_atom_site_label_3
_geom_torsion_atom_site_label_4
_geom_torsion
O1 C3 C4 C5 7.8(8)
O1 C3 C4 C9 -174.7(5)
O2 C3 C4 C5 -171.2(6)
O2 C3 C4 C9 6.3(9)
O9 C26 C27 O10 -63.9(7)
O10 C28 C29 O11 78.4(9)
O11 C30 C31 O12 -79.4(10)
O12 C32 C33 O13 79.0(9)
O13 C34 C35 O14 -64.1(11)
O14 C36 C37 C38 -60.7(10)
C26 O9 C41 C40 -161.7(6)
C27 O10 C28 C29 178.6(6)
C28 O10 C27 C26 -178.4(5)
C29 O11 C30 C31 -174.4(8)
C30 O11 C29 C28 160.8(7)
C31 O12 C32 C33 -170.2(7)
C32 O12 C31 C30 -172.0(7)
C33 O13 C34 C35 -163.2(8)
C34 O13 C33 C32 172.4(8)
C35 O14 C36 C37 -162.3(8)
C36 O14 C35 C34 -176.9(9)
C36 C37 C38 C39 172.4(6)
C37 C38 C39 C40 -175.2(5)
C38 C39 C40 C41 161.4(5)
C39 C40 C41 O9 -58.4(7)
C41 O9 C26 C27 -173.6(6)
C13 C6 C7 C8 178.2(6)
C13 N1 C14 C15 -3.3(7)
C13 N1 C14 C19 176.7(4)
C1 O1 C3 O2 0.5(10)
C1 O1 C3 C4 -178.6(6)
C3 O1 C1 C2 -172.0(8)
C3 C4 C5 C6 177.8(5)
C3 C4 C9 C8 -178.1(6)
C4 C5 C6 C13 -179.0(5)
C4 C5 C6 C7 0.6(7)
C5 C4 C9 C8 -0.5(8)
C5 C6 C7 C8 -1.3(8)
C6 C13 N1 C14 -176.8(4)
C6 C7 C8 C9 1.2(10)
C6 C7 C8 C10 -177.7(7)
C7 C8 C9 C4 -0.3(9)
C7 C8 C10 O3 171.0(8)
C7 C8 C10 O4 -7.0(16)
C9 C4 C5 C6 0.3(8)
C9 C8 C10 O3 -7.9(13)
C9 C8 C10 O4 174.1(11)
C10 O3 C12 C11 81.1(17)
C10 C8 C9 C4 178.6(7)
C12 O3 C10 O4 3.8(19)
C12 O3 C10 C8 -174.2(12)
N1 C13 C6 C5 175.1(4)
N1 C13 C6 C7 -4.4(7)
N1 C14 C15 C16 -179.3(4)
N1 C14 C19 C18 -179.3(4)
C14 C15 C16 C17 -2.0(7)
C14 C15 C16 C20 179.1(4)
C15 C14 C19 C18 0.7(6)
C15 C16 C17 C18 1.9(7)
C15 C16 C20 O5 -169.1(5)
C15 C16 C20 O6 10.4(8)
C16 C17 C18 C19 -0.5(7)
C16 C17 C18 C23 179.5(4)
C17 C16 C20 O5 11.9(7)
C17 C16 C20 O6 -168.5(6)
C17 C18 C19 C14 -0.8(7)
C17 C18 C23 O7 177.1(5)
C17 C18 C23 O8 -2.7(10)
C19 C14 C15 C16 0.7(6)
C19 C18 C23 O7 -2.9(7)
C19 C18 C23 O8 177.3(8)
C20 O5 C21 C22 -156.9(8)
C20 C16 C17 C18 -179.2(5)
C21 O5 C20 O6 0.5(10)
C21 O5 C20 C16 -179.9(6)
C23 O7 C24 C25 -98.2(13)
C23 C18 C19 C14 179.2(4)
C24 O7 C23 O8 1.3(11)
C24 O7 C23 C18 -178.5(6)
loop_
_refln_index_h
_refln_index_k
_refln_index_l
_refln_F_squared_meas
_refln_F_squared_sigma
1 0 0 0.48 0.02
3 0 0 10.8 0.34
3 0 0 11.03 0.33
3 0 0 10.52 0.34
-3 0 0 10.76 0.31
3 0 0 10.92 0.32
3 0 0 10.64 0.31
-3 0 0 10.26 0.32
-4 0 0 17.39 0.52
-4 0 0 16.95 0.5
4 0 0 17.31 0.54
4 0 0 17.9 0.53
-4 0 0 17.56 0.56
4 0 0 16.85 0.56
-5 0 0 6.22 0.19
5 0 0 6.07 0.2
5 0 0 5.81 0.21
-5 0 0 5.73 0.2
5 0 0 5.93 0.2
-5 0 0 5.81 0.19
5 0 0 6.05 0.19
6 0 0 2.82 0.12
-6 0 0 3.14 0.13
-6 0 0 3.06 0.12
-6 0 0 2.95 0.12
6 0 0 2.76 0.11
6 0 0 2.96 0.13
6 0 0 3.12 0.12
7 0 0 8.6 0.31
-7 0 0 8.66 0.28
7 0 0 8.89 0.3
-7 0 0 9.13 0.3
7 0 0 8.56 0.28
7 0 0 8.47 0.28
-8 0 0 0.22 0.04
-8 0 0 0.34 0.08
8 0 0 0.33 0.07
8 0 0 0.27 0.07
9 0 0 0.15 0.04
-9 0 0 0.18 0.03
-10 0 0 0.43 0.07
0 -1 0 -0.05 0
1 -1 0 176.29 5.58
-1 -1 0 177.21 5.46
1 -1 0 168.46 5.32
1 1 0 179.54 5.33
2 -1 0 169.3 4.93
2 -1 0 161.4 5.05
-2 -1 0 166.56 5.14
-2 -1 0 153.52 5.05
2 -1 0 159.56 5.15
2 1 0 156.15 5.04
-2 1 0 169.44 5.06
-2 1 0 164.96 5.16
2 1 0 154.06 4.92
3 -1 0 4.07 0.14
-3 -1 0 4 0.13
3 -1 0 3.69 0.13
3 -1 0 3.95 0.13
-3 -1 0 4.06 0.13
3 -1 0 4.04 0.12
3 -1 0 4.13 0.13
3 -1 0 4.08 0.14
3 1 0 3.97 0.14
3 1 0 3.88 0.13
-3 1 0 3.96 0.14
3 1 0 3.9 0.13
-3 1 0 3.72 0.13
4 -1 0 2.65 0.1
4 -1 0 2.48 0.1
-4 -1 0 2.6 0.1
-4 -1 0 2.61 0.09
4 -1 0 2.36 0.1
4 1 0 2.67 0.09
4 1 0 2.55 0.1
-4 1 0 2.59 0.09
-4 1 0 2.51 0.1
-4 1 0 2.49 0.09
-4 1 0 2.36 0.1
4 1 0 2.48 0.1
5 -1 0 7.11 0.22
-5 -1 0 7.44 0.22
5 -1 0 7.21 0.25
5 -1 0 7.04 0.23
-5 -1 0 6.99 0.23
5 -1 0 6.91 0.24
-5 -1 0 7.17 0.24
5 -1 0 7.31 0.24
5 1 0 7.5 0.24
5 1 0 7.1 0.23
5 1 0 7.09 0.24
5 1 0 7.14 0.22
-5 1 0 7.3 0.25
-5 1 0 7.25 0.24
-5 1 0 7.04 0.23
6 -1 0 5.19 0.18
6 -1 0 5.2 0.18
-6 -1 0 5.13 0.18
6 -1 0 5.27 0.17
-6 -1 0 5.13 0.19
6 -1 0 5.12 0.19
6 1 0 4.94 0.19
-6 1 0 5.16 0.18
6 1 0 4.99 0.18
6 1 0 5.21 0.18
-6 1 0 5.18 0.19
7 -1 0 0.1 0.04
7 -1 0 0.07 0.02
7 -1 0 0.09 0.03
-7 -1 0 0.03 0.02
7 1 0 0.11 0.03
-7 1 0 0.1 0.03
-7 1 0 0.06 0.03
7 1 0 0.12 0.03
7 1 0 0.03 0.03
-8 -1 0 4.32 0.17
8 -1 0 3.91 0.17
-8 -1 0 4.39 0.16
8 -1 0 4.38 0.16
-8 1 0 4.18 0.17
8 1 0 4.15 0.16
8 1 0 4.14 0.17
-8 1 0 4 0.17
9 -1 0 0.01 0.03
-9 -1 0 0.03 0.03
-9 1 0 0.05 0.02
9 1 0 0 0.04
-10 -1 0 2.2 0.1
-10 1 0 2.19 0.1
0 2 0 29.24 0.95
1 -2 0 124.4 3.95
1 -2 0 123.19 3.77
1 -2 0 123.1 3.86
-1 2 0 128.97 3.96
-1 2 0 122.89 3.86
1 2 0 120 3.78
2 -2 0 57.18 1.85
-2 -2 0 56.91 1.8
2 -2 0 59.33 1.78
-2 2 0 56.96 1.85
2 2 0 59.48 1.78
3 -2 0 102.35 3.14
3 -2 0 107.58 3.06
3 -2 0 110.16 3.25
3 -2 0 107.88 3.02
-3 -2 0 105.9 3.08
3 -2 0 103.26 3.36
3 -2 0 108.07 3.33
-3 2 0 105.33 2.96
-3 2 0 109.99 3.06
-3 2 0 102.43 3.08
-3 2 0 107.39 3.29
3 2 0 105.62 3.24
3 2 0 103.98 3.05
-3 2 0 108.84 3.39
3 2 0 101.39 3.14
3 2 0 104.31 3.22
4 -2 0 8.07 0.26
-4 -2 0 7.95 0.25
4 -2 0 7.79 0.26
4 -2 0 7.28 0.25
-4 2 0 7.97 0.26
-4 2 0 7.46 0.24
-4 2 0 8.09 0.24
4 2 0 7.83 0.26
4 2 0 7.79 0.23
4 2 0 7.53 0.25
-4 2 0 7.69 0.23
-5 -2 0 2.41 0.11
5 -2 0 2.52 0.09
5 -2 0 2.35 0.11
5 -2 0 2.46 0.1
-5 -2 0 2.35 0.09
5 -2 0 2.59 0.1
5 -2 0 2.43 0.11
-5 -2 0 2.39 0.1
-5 2 0 2.55 0.1
5 2 0 2.56 0.09
-5 2 0 2.44 0.12
-5 2 0 2.23 0.1
-5 2 0 2.43 0.1
-5 2 0 2.42 0.1
5 2 0 2.61 0.1
6 -2 0 3.19 0.12
6 -2 0 3.25 0.14
-6 -2 0 3.08 0.12
6 -2 0 3.12 0.12
-6 -2 0 3.2 0.12
-6 -2 0 2.93 0.13
6 -2 0 3.17 0.13
-6 2 0 3.38 0.12
6 2 0 3.18 0.12
6 2 0 2.99 0.14
-6 2 0 3.38 0.13
6 2 0 2.97 0.13
-7 -2 0 0.63 0.07
7 -2 0 0.59 0.08
7 -2 0 0.55 0.07
7 -2 0 0.44 0.08
-7 -2 0 0.35 0.08
7 2 0 0.6 0.07
-7 2 0 0.49 0.07
7 2 0 0.49 0.07
8 -2 0 6.92 0.24
-8 -2 0 6.88 0.25
8 -2 0 6.94 0.27
-8 -2 0 6.67 0.23
8 -2 0 6.63 0.24
8 2 0 6.54 0.24
-8 2 0 6.88 0.24
8 2 0 6.6 0.24
-8 2 0 7.29 0.24
-9 -2 0 0.8 0.09
-9 -2 0 0.71 0.09
9 -2 0 0.66 0.08
9 2 0 0.88 0.09
-9 2 0 0.64 0.08
-9 2 0 0.73 0.1
-10 -2 0 0.05 0.03
-10 2 0 0 0.02
0 -3 0 0.04 0.01
-1 -3 0 93.87 2.97
1 -3 0 93.02 2.99
1 -3 0 90.19 2.92
1 3 0 96.51 2.97
-1 3 0 91.69 3
-1 3 0 95.44 2.89
-3 -3 0 3.42 0.13
3 -3 0 3.41 0.12
3 -3 0 3.78 0.12
3 -3 0 3.68 0.13
-3 3 0 3.72 0.12
-3 3 0 3.4 0.12
3 3 0 3.57 0.12
3 3 0 3.48 0.12
4 -3 0 32.07 1
4 -3 0 32.17 0.95
-4 -3 0 31.52 0.94
4 -3 0 31.66 0.98
-4 3 0 32.57 0.91
-4 3 0 30.95 1.02
4 3 0 31.47 0.96
4 3 0 32.45 0.92
-4 3 0 31.47 0.92
-4 3 0 31.68 0.9
-4 3 0 31.76 1.04
4 3 0 30.51 0.98
5 -3 0 0.88 0.07
5 -3 0 0.95 0.07
5 -3 0 0.85 0.06
-5 -3 0 0.68 0.07
-5 -3 0 0.72 0.05
5 -3 0 0.88 0.06
5 -3 0 0.78 0.05
-5 3 0 0.9 0.06
-5 3 0 0.82 0.06
-5 3 0 0.81 0.06
5 3 0 0.69 0.07
5 3 0 0.89 0.06
-5 3 0 0.86 0.07
5 3 0 0.95 0.06
5 3 0 0.78 0.06
6 -3 0 1.91 0.08
-6 -3 0 2.01 0.1
6 -3 0 2.01 0.1
6 -3 0 1.91 0.09
-6 -3 0 1.83 0.08
-6 -3 0 1.84 0.09
6 3 0 1.79 0.1
-6 3 0 1.97 0.09
6 3 0 2.12 0.1
-6 3 0 1.82 0.1
6 3 0 1.81 0.09
-7 -3 0 1.11 0.08
-7 -3 0 1.25 0.1
7 -3 0 1.2 0.1
7 -3 0 1.23 0.09
7 -3 0 1.15 0.07
7 3 0 1.27 0.09
-7 3 0 1.3 0.09
8 -3 0 1.37 0.1
-8 -3 0 1.53 0.09
8 -3 0 1.69 0.1
8 -3 0 1.51 0.11
8 -3 0 1.52 0.15
-8 3 0 1.69 0.1
8 3 0 1.43 0.11
8 3 0 1.61 0.1
9 -3 0 0.51 0.07
-9 -3 0 0.55 0.09
-9 -3 0 0.41 0.08
9 3 0 0.64 0.08
-9 3 0 0.56 0.08
-10 -3 0 0.04 0.05
0 -4 0 238.97 7.35
0 4 0 222.74 7.34
1 -4 0 47.3 1.5
-1 -4 0 47.77 1.51
1 -4 0 45.35 1.52
1 4 0 49.62 1.52
-1 4 0 47.94 1.53
-2 4 0 83.87 2.72
-2 4 0 92.39 2.82
-2 4 0 85.72 2.45
-2 4 0 86.77 2.54
-2 4 0 85.52 2.57
2 4 0 85.99 2.66
2 4 0 93.6 2.59
-2 4 0 87.82 2.48
2 4 0 84.65 2.63
3 -4 0 77.72 2.33
3 -4 0 79.2 2.2
-3 -4 0 72.41 2.16
-3 -4 0 72.71 2.2
3 -4 0 78.3 2.39
3 -4 0 78.24 2.26
3 -4 0 74.49 2.16
-3 4 0 76.77 2.17
-3 4 0 74.86 2.22
-3 4 0 75.69 2.43
3 4 0 76.14 2.3
-3 4 0 78.3 2.14
3 4 0 78.53 2.2
3 4 0 75.31 2.33
-3 4 0 76.87 2.36
3 4 0 73.63 2.2
4 -4 0 2.57 0.1
4 -4 0 2.54 0.1
-4 -4 0 2.37 0.1
4 -4 0 2.32 0.1
4 -4 0 2.39 0.09
-4 -4 0 2.36 0.09
4 -4 0 2.56 0.09
-4 4 0 2.32 0.09
-4 4 0 2.61 0.09
4 4 0 2.64 0.09
-4 4 0 2.39 0.1
-4 4 0 2.48 0.08
4 4 0 2.34 0.1
-4 4 0 2.44 0.09
-5 -4 0 21.44 0.65
5 -4 0 20.57 0.66
5 -4 0 22.47 0.64
5 -4 0 21.52 0.69
5 -4 0 22.26 0.62
-5 -4 0 21.32 0.62
5 -4 0 21.56 0.68
-5 -4 0 21.58 0.64
5 4 0 21.45 0.68
5 4 0 21.11 0.66
-5 4 0 21.55 0.65
-5 4 0 21.75 0.62
-5 4 0 21.26 0.71
5 4 0 21.8 0.64
-5 4 0 21.22 0.63
5 4 0 21.09 0.64
-5 4 0 21.56 0.64
6 -4 0 2.88 0.11
-6 -4 0 2.76 0.11
6 -4 0 2.94 0.12
6 -4 0 2.75 0.13
-6 -4 0 2.85 0.13
6 -4 0 2.92 0.12
-6 -4 0 2.89 0.12
-6 4 0 2.65 0.12
-6 4 0 2.98 0.12
6 4 0 2.67 0.12
-6 4 0 2.68 0.12
6 4 0 2.7 0.12
7 -4 0 4.52 0.18
7 -4 0 4.7 0.18
-7 -4 0 4.66 0.18
-7 -4 0 5.07 0.17
7 -4 0 4.74 0.2
-7 4 0 4.74 0.18
7 4 0 4.81 0.19
7 4 0 4.96 0.18
8 -4 0 1.95 0.1
8 -4 0 1.76 0.14
8 -4 0 2.05 0.17
-8 -4 0 1.89 0.1
8 -4 0 2.2 0.11
8 4 0 1.91 0.13
8 4 0 2.18 0.11
9 -4 0 0 0.03
-9 -4 0 0 0.03
-9 -4 0 0.04 0.04
9 4 0 0.09 0.04
-9 4 0 0.04 0.03
1 -5 0 72.39 2.26
-1 -5 0 72.27 2.29
1 -5 0 75.77 2.23
1 -5 0 68 2.28
1 5 0 71.67 2.3
-1 5 0 70.96 2.31
2 -5 0 214.16 6.64
2 -5 0 218.49 6.48
2 5 0 208.75 6.48
-2 5 0 219.06 5.99
-2 5 0 214.18 6.29
-2 5 0 214.29 6.83
-2 5 0 219.1 6.65
2 5 0 201.6 6.13
-2 5 0 213.78 6.07
-2 5 0 204.54 6.18
3 -5 0 26.31 0.76
-3 -5 0 26.24 0.78
-3 -5 0 26.99 0.76
3 -5 0 28.03 0.84
3 -5 0 27.22 0.82
3 -5 0 25.92 0.78
-3 5 0 26.78 0.77
-3 5 0 26.19 0.78
-3 5 0 26.52 0.76
3 5 0 25.37 0.78
-3 5 0 26.93 0.86
-3 5 0 27.71 0.8
3 5 0 26.43 0.78
4 -5 0 19.84 0.63
4 -5 0 20.94 0.65
4 -5 0 19.83 0.6
4 -5 0 20.04 0.62
-4 -5 0 19.19 0.61
4 -5 0 20.02 0.59
4 5 0 20.75 0.6
-4 5 0 20.19 0.59
4 5 0 19.83 0.6
-4 5 0 21.06 0.6
-4 5 0 20.3 0.67
4 5 0 21.16 0.62
-4 5 0 20.4 0.61
-4 5 0 21.07 0.59
5 -5 0 5.63 0.2
5 -5 0 5.93 0.21
5 -5 0 5.74 0.19
-5 -5 0 5.96 0.2
5 -5 0 5.99 0.19
5 -5 0 5.97 0.21
-5 -5 0 6.18 0.19
-5 -5 0 6.13 0.21
-5 5 0 6.2 0.19
-5 5 0 5.78 0.19
5 5 0 6.03 0.2
5 5 0 5.86 0.2
-5 5 0 5.73 0.2
5 5 0 5.82 0.19
-5 5 0 5.75 0.22
6 -5 0 0.34 0.05
6 -5 0 0.31 0.05
-6 -5 0 0.32 0.06
-6 -5 0 0.36 0.05
6 -5 0 0.48 0.07
6 -5 0 0.48 0.07
-6 -5 0 0.23 0.08
-6 5 0 0.42 0.06
-6 5 0 0.46 0.09
-6 5 0 0.25 0.07
6 5 0 0.34 0.06
6 5 0 0.38 0.07
-6 5 0 0.23 0.06
-7 -5 0 3.24 0.16
7 -5 0 3.06 0.15
-7 -5 0 2.89 0.12
7 -5 0 3.05 0.12
-7 -5 0 2.82 0.13
7 -5 0 2.86 0.15
7 -5 0 3.17 0.13
-7 5 0 3.18 0.13
7 5 0 3 0.14
8 -5 0 2.97 0.12
8 -5 0 2.98 0.13
-8 -5 0 2.74 0.15
-8 -5 0 2.79 0.13
-8 5 0 3.24 0.15
-8 5 0 3.06 0.13
8 5 0 3.03 0.14
-9 -5 0 1.44 0.13
-9 -5 0 1.44 0.1
9 -5 0 1.35 0.09
-9 5 0 1.38 0.08
9 5 0 1.58 0.1
0 -6 0 80.95 2.59
0 6 0 81.01 2.44
1 -6 0 8.61 0.26
1 -6 0 8.17 0.27
-1 6 0 8.33 0.28
-1 6 0 8.37 0.25
1 6 0 8.35 0.27
1 6 0 8.13 0.26
1 6 0 8.46 0.27
-1 6 0 8.47 0.25
2 -6 0 30.06 0.89
2 -6 0 29.87 0.9
-2 -6 0 28.59 0.84
2 6 0 30.33 0.87
-2 6 0 30.36 0.94
2 6 0 28.93 0.9
2 6 0 29.1 0.91
2 6 0 28.8 0.89
-2 6 0 29.52 0.84
-2 6 0 27.98 0.86
-2 6 0 28.22 0.82
-2 6 0 28.57 0.85
2 6 0 27.18 0.85
3 -6 0 5.3 0.17
3 -6 0 5.29 0.16
3 -6 0 5.36 0.18
-3 -6 0 5.44 0.17
3 -6 0 5.49 0.19
-3 6 0 5.5 0.18
-3 6 0 5.55 0.17
-3 6 0 5.52 0.2
-3 6 0 5.4 0.17
4 -6 0 43 1.34
4 -6 0 43.78 1.24
4 -6 0 43.88 1.22
-4 -6 0 43.14 1.22
-4 -6 0 42.45 1.26
4 -6 0 40.55 1.31
-4 6 0 42.82 1.23
-4 6 0 42.49 1.21
-4 6 0 41.89 1.38
4 6 0 43.6 1.28
4 6 0 41.22 1.24
-4 6 0 43.32 1.25
5 -6 0 1.14 0.08
5 -6 0 1.15 0.06
5 -6 0 1.22 0.06
-5 -6 0 1 0.07
-5 -6 0 1.29 0.09
5 -6 0 1.17 0.07
5 -6 0 1.17 0.08
5 6 0 1.18 0.07
-5 6 0 1.2 0.07
-5 6 0 1.04 0.06
5 6 0 0.97 0.08
-5 6 0 1 0.08
-5 6 0 1.2 0.07
5 6 0 1.16 0.07
6 -6 0 1.89 0.11
6 -6 0 1.86 0.08
6 -6 0 2.03 0.09
-6 -6 0 1.82 0.11
6 -6 0 1.84 0.11
-6 -6 0 1.82 0.09
-6 -6 0 1.86 0.09
6 -6 0 2.01 0.11
-6 6 0 1.9 0.09
6 6 0 2.04 0.1
-6 6 0 1.98 0.09
6 6 0 1.88 0.1
6 6 0 2.02 0.11
-6 6 0 1.92 0.1
-7 -6 0 1.22 0.08
7 -6 0 1.25 0.09
-7 -6 0 1.16 0.09
7 -6 0 1.13 0.08
-7 -6 0 1.11 0.11
-7 6 0 1.33 0.09
7 6 0 1.24 0.09
-9 -6 0 2.91 0.16
-9 6 0 2.78 0.14
0 -7 0 0.25 0.03
0 7 0 0.23 0.03
1 -7 0 129.38 3.95
-1 -7 0 124.59 4.04
-1 7 0 125.16 3.66
1 7 0 126.69 3.67
-1 7 0 129.13 3.63
1 7 0 122.38 3.85
-1 7 0 128.69 4.09
1 7 0 127.8 3.97
-1 7 0 129.55 3.58
-1 7 0 128.5 3.86
2 -7 0 6.43 0.21
-2 -7 0 6.22 0.19
-2 -7 0 6.36 0.2
2 -7 0 6.2 0.2
2 -7 0 6.48 0.22
-2 7 0 6.46 0.21
-2 7 0 6.57 0.2
2 7 0 6.61 0.22
2 7 0 6.59 0.21
2 7 0 6.7 0.21
-2 7 0 6.36 0.23
3 -7 0 12.62 0.4
-3 -7 0 12.64 0.36
3 -7 0 12.63 0.36
3 -7 0 12.02 0.39
3 -7 0 12.24 0.37
-3 7 0 12.17 0.42
3 7 0 12.16 0.39
-3 7 0 12.7 0.38
-3 7 0 12.72 0.37
4 -7 0 61.31 1.91
-4 -7 0 64.73 1.78
4 -7 0 64.35 1.78
-4 -7 0 59.27 1.84
4 -7 0 61.45 1.82
4 -7 0 64.08 1.96
-4 7 0 61.58 1.83
4 7 0 62.46 1.87
-4 7 0 63.9 2.01
4 7 0 63.75 1.82
-4 7 0 62.02 1.79
4 7 0 61.51 1.9
-4 7 0 64.34 1.77
-5 -7 0 11.93 0.37
5 -7 0 12.06 0.37
-5 -7 0 11.95 0.36
-5 -7 0 11.48 0.39
5 -7 0 12.69 0.36
5 -7 0 12.14 0.4
5 -7 0 11.96 0.39
5 7 0 12.17 0.37
-5 7 0 11.86 0.37
-5 7 0 11.85 0.36
5 7 0 12.74 0.39
-5 7 0 11.7 0.37
-5 7 0 11.47 0.41
-6 -7 0 0.9 0.11
6 -7 0 1.08 0.09
-6 -7 0 0.87 0.06
6 -7 0 0.75 0.1
6 -7 0 1.01 0.07
-6 -7 0 0.89 0.07
6 -7 0 0.88 0.07
-6 7 0 0.88 0.07
6 7 0 0.9 0.08
-6 7 0 1.09 0.08
-6 7 0 1.06 0.11
6 7 0 0.93 0.08
-6 7 0 1.04 0.07
7 -7 0 0.57 0.07
7 -7 0 0.63 0.06
-7 7 0 0.63 0.08
7 7 0 0.56 0.08
-7 7 0 0.49 0.1
-7 7 0 0.63 0.08
-8 -7 0 1.14 0.08
8 -7 0 1.06 0.08
8 -7 0 1.08 0.08
-8 -7 0 1.11 0.09
8 7 0 1.11 0.09
-8 7 0 1.21 0.08
-8 7 0 1.2 0.1
-9 -7 0 0.7 0.07
9 -7 0 0.66 0.07
-9 7 0 0.69 0.07
-9 7 0 0.69 0.09
9 7 0 0.87 0.09
9 7 0 0.8 0.07
0 -8 0 21.75 0.69
0 8 0 21 0.64
0 8 0 22.22 0.62
0 8 0 21.57 0.69
0 8 0 21.86 0.63
0 8 0 22.05 0.71
0 8 0 22.14 0.67
0 8 0 22.63 0.66
-1 -8 0 38.79 1.24
1 -8 0 40.8 1.21
1 8 0 40.21 1.16
-1 8 0 38.39 1.25
-1 8 0 38.35 1.13
1 8 0 38.75 1.22
-1 8 0 37.88 1.15
1 8 0 40.91 1.24
-1 8 0 38.18 1.1
-1 8 0 37.46 1.11
-1 8 0 39.5 1.18
1 8 0 37.43 1.11
2 -8 0 6.46 0.2
-2 -8 0 5.95 0.18
2 -8 0 6.26 0.21
2 -8 0 6.13 0.19
2 -8 0 6.42 0.2
-2 -8 0 5.99 0.19
-2 8 0 6.41 0.22
2 8 0 6.29 0.2
-2 8 0 6.05 0.19
-2 8 0 6.02 0.2
2 8 0 6.04 0.21
-2 8 0 6.05 0.19
2 8 0 5.9 0.2
-3 -8 0 14.39 0.44
3 -8 0 14.12 0.44
3 -8 0 13.97 0.46
3 -8 0 14.44 0.43
3 -8 0 14.69 0.47
-3 8 0 14.67 0.48
-3 8 0 14.85 0.49
3 8 0 14.93 0.44
-3 8 0 15.35 0.44
-3 8 0 14.86 0.43
3 8 0 14.57 0.45
-3 8 0 14.73 0.44
3 8 0 14.78 0.46
-3 8 0 15.24 0.45
4 -8 0 14.33 0.45
4 -8 0 13.92 0.42
4 -8 0 13.41 0.4
-4 -8 0 13.4 0.4
-4 8 0 13.23 0.41
4 8 0 13.52 0.43
-4 8 0 13.33 0.41
4 8 0 14.29 0.42
-4 8 0 13.99 0.45
-4 8 0 14.06 0.42
-4 8 0 13.71 0.47
4 8 0 14.14 0.44
-5 -8 0 6.17 0.24
-5 -8 0 6.27 0.21
5 -8 0 6.45 0.21
5 -8 0 6.31 0.22
5 -8 0 5.91 0.23
5 -8 0 6.4 0.2
5 8 0 6.25 0.21
-5 8 0 6.42 0.21
-5 8 0 6.1 0.23
-5 8 0 6.59 0.21
-5 8 0 6.16 0.24
-5 8 0 6.21 0.2
5 8 0 6.43 0.22
6 -8 0 4.66 0.16
-6 -8 0 4.25 0.15
-6 -8 0 4.31 0.19
6 -8 0 4.26 0.15
6 -8 0 4.23 0.18
-6 -8 0 4.66 0.17
-6 -8 0 4.34 0.2
-6 8 0 4.24 0.21
-6 8 0 4.63 0.16
6 8 0 4.35 0.17
-6 8 0 4.51 0.18
6 8 0 4.31 0.17
-6 8 0 4.26 0.16
-7 -8 0 2.05 0.11
-7 -8 0 2.2 0.1
7 -8 0 2.23 0.11
7 -8 0 2.24 0.1
7 -8 0 2.25 0.16
-7 8 0 2.3 0.11
-7 8 0 2.45 0.12
-7 8 0 2.08 0.12
7 8 0 2.36 0.12
8 -8 0 2.03 0.1
8 -8 0 2.04 0.11
-8 -8 0 2.11 0.11
-8 -8 0 2.08 0.11
-8 8 0 1.91 0.11
-8 8 0 1.93 0.1
8 8 0 2.1 0.11
-9 -8 0 0.35 0.06
9 -8 0 0.45 0.1
-9 8 0 0.32 0.08
9 8 0 0.37 0.07
0 -9 0 0.05 0.02
0 9 0 0.09 0.03
0 9 0 0.13 0.03
0 9 0 0.05 0.03
0 9 0 0.09 0.03
1 -9 0 9.17 0.31
-1 9 0 9.43 0.29
-1 9 0 9.9 0.32
1 9 0 9.62 0.32
1 9 0 9.6 0.28
-1 9 0 9.38 0.28
1 9 0 9.41 0.3
-1 9 0 9.31 0.3
1 9 0 9.75 0.28
2 -9 0 3.43 0.12
2 -9 0 3.36 0.12
-2 -9 0 3.54 0.11
2 -9 0 3.25 0.11
-2 -9 0 3.57 0.12
2 -9 0 3.51 0.11
-2 9 0 3.4 0.13
2 9 0 3.14 0.12
-2 9 0 3.23 0.13
-2 9 0 3.24 0.12
-2 9 0 3.41 0.12
2 9 0 3.19 0.12
-2 9 0 3.21 0.11
2 9 0 3.39 0.12
-2 9 0 3.21 0.11
2 9 0 3.62 0.12
3 -9 0 6.62 0.22
-3 -9 0 7.27 0.22
-3 -9 0 7.03 0.21
3 -9 0 6.71 0.23
3 -9 0 7.17 0.24
-3 9 0 7.22 0.22
-3 9 0 6.72 0.22
-3 9 0 7.39 0.23
3 9 0 7.48 0.23
3 9 0 6.76 0.23
-3 9 0 7.18 0.24
-3 9 0 7.22 0.25
-3 9 0 6.87 0.22
3 9 0 6.81 0.23
-3 9 0 6.8 0.22
-4 -9 0 2.37 0.09
4 -9 0 2.36 0.11
4 -9 0 2.41 0.11
4 -9 0 2.3 0.09
4 -9 0 2.21 0.09
4 9 0 2.51 0.1
-4 9 0 2.58 0.09
-4 9 0 2.47 0.1
4 9 0 2.58 0.11
-4 9 0 2.22 0.09
-4 9 0 2.23 0.11
-4 9 0 2.46 0.11
4 9 0 2.46 0.1
5 -9 0 0.53 0.06
-5 9 0 0.37 0.07
-5 9 0 0.48 0.05
5 9 0 0.58 0.06
-5 9 0 0.52 0.06
-5 9 0 0.51 0.05
5 9 0 0.58 0.06
6 -9 0 2.57 0.14
6 -9 0 2.56 0.17
-6 -9 0 2.41 0.14
-6 9 0 2.48 0.11
-6 9 0 2.24 0.12
-6 9 0 2.7 0.17
6 9 0 2.55 0.12
-6 9 0 2.43 0.12
7 -9 0 0.24 0.06
-7 -9 0 0.13 0.03
7 -9 0 0.22 0.07
7 -9 0 0.46 0.16
-7 9 0 0.3 0.07
-7 9 0 0.31 0.09
-7 9 0 0.2 0.06
7 9 0 0.21 0.07
8 -9 0 1 0.08
-8 -9 0 0.9 0.08
-8 -9 0 1 0.08
8 -9 0 0.82 0.08
8 9 0 0.89 0.08
-8 9 0 1.01 0.09
-8 9 0 0.99 0.08
-9 -9 0 0.22 0.06
-9 9 0 0.33 0.08
0 -10 0 23.37 0.74
0 10 0 23.36 0.71
0 10 0 23.89 0.77
0 10 0 24.08 0.67
0 10 0 24.02 0.7
0 10 0 23.3 0.71
0 10 0 22.93 0.75
-1 -10 0 4.42 0.15
1 -10 0 4.19 0.15
-1 10 0 4.61 0.17
1 10 0 4.41 0.16
1 10 0 4.4 0.14
1 10 0 4.21 0.15
-1 10 0 4.33 0.15
1 10 0 4.23 0.15
1 10 0 4.32 0.15
1 10 0 4.34 0.16
-1 10 0 4.33 0.14
-1 10 0 4.38 0.16
-1 10 0 4.56 0.15
-1 10 0 4.62 0.15
2 -10 0 2.83 0.1
2 -10 0 2.63 0.11
2 -10 0 2.64 0.1
-2 -10 0 2.9 0.1
-2 -10 0 2.83 0.09
-2 10 0 2.8 0.11
2 10 0 2.9 0.11
-2 10 0 2.8 0.1
-2 10 0 2.9 0.12
2 10 0 2.59 0.11
2 10 0 2.84 0.11
-2 10 0 2.76 0.11
-2 10 0 2.78 0.1
2 10 0 2.97 0.11
3 -10 0 13.91 0.43
-3 -10 0 14 0.43
-3 -10 0 14.19 0.41
3 -10 0 14 0.41
3 -10 0 14.26 0.46
3 -10 0 14.07 0.45
-3 10 0 14.21 0.48
3 10 0 14.43 0.43
3 10 0 14.29 0.45
-3 10 0 14.14 0.46
-3 10 0 13.75 0.42
-3 10 0 14.43 0.44
-3 10 0 14.22 0.42
3 10 0 14.36 0.44
4 -10 0 4.34 0.14
-4 -10 0 4.66 0.15
4 -10 0 4.65 0.17
4 -10 0 4.55 0.17
4 -10 0 4.41 0.15
-4 10 0 4.21 0.15
-4 10 0 4.21 0.15
4 10 0 4.17 0.16
4 10 0 4.76 0.17
4 10 0 4.53 0.16
-4 10 0 4.57 0.17
-4 10 0 4.4 0.18
-4 10 0 4.51 0.15
5 -10 0 4.2 0.19
5 -10 0 4.42 0.18
-5 -10 0 4.15 0.17
5 -10 0 4.66 0.15
-5 -10 0 4.12 0.16
-5 10 0 4.45 0.16
-5 10 0 4.69 0.15
5 10 0 4.5 0.17
5 10 0 4.45 0.16
-5 10 0 4.3 0.16
-5 10 0 4.61 0.17
6 -10 0 4.23 0.16
6 -10 0 4 0.24
6 -10 0 4.53 0.15
-6 -10 0 4.41 0.16
-6 -10 0 4.01 0.19
-6 -10 0 4.1 0.17
6 -10 0 4.14 0.19
-6 10 0 4.45 0.18
-6 10 0 4.07 0.22
-6 10 0 4.24 0.16
6 10 0 4.25 0.17
-7 -10 0 0.31 0.06
-7 -10 0 0.36 0.08
7 -10 0 0.39 0.06
-7 10 0 0.41 0.09
-7 10 0 0.4 0.07
7 10 0 0.47 0.07
-8 -10 0 0.35 0.06
-8 -10 0 0.49 0.07
8 -10 0 0.3 0.06
8 -10 0 0.29 0.06
8 10 0 0.39 0.07
-8 10 0 0.42 0.08
8 10 0 0.28 0.07
9 -10 0 0.05 0.03
-9 -10 0 0.05 0.02
-9 10 0 0.07 0.05
9 10 0 0.03 0.03
0 -11 0 0.13 0.03
0 11 0 0.17 0.04
0 11 0 0.15 0.04
0 11 0 0.17 0.04
0 11 0 0.14 0.04
0 11 0 0.17 0.04
0 11 0 0.17 0.04
1 -11 0 7.87 0.26
-1 -11 0 7.81 0.26
1 -11 0 7.92 0.25
-1 11 0 8.01 0.24
-1 11 0 7.54 0.25
1 11 0 7.25 0.23
-1 11 0 7.88 0.27
1 11 0 7.69 0.25
-1 11 0 7.68 0.24
1 11 0 7.49 0.24
-1 11 0 7.31 0.26
1 11 0 7.84 0.26
-1 11 0 7.75 0.25
1 11 0 7.69 0.26
-1 11 0 7.68 0.24
1 11 0 7.38 0.25
-2 -11 0 6.44 0.2
-2 -11 0 6.28 0.22
2 -11 0 6.02 0.19
2 -11 0 5.88 0.21
2 -11 0 6.38 0.21
-2 -11 0 6.2 0.19
-2 11 0 6.25 0.2
-2 11 0 6.36 0.2
-2 11 0 5.99 0.21
-2 11 0 6.25 0.2
2 11 0 6.12 0.21
2 11 0 6.15 0.21
-2 11 0 5.89 0.21
2 11 0 6.1 0.2
2 11 0 6.02 0.2
-2 11 0 6.34 0.2
2 11 0 6.21 0.21
-2 11 0 6.09 0.23
2 11 0 6.33 0.21
-2 11 0 6.24 0.21
2 11 0 6.07 0.2
3 -11 0 8.39 0.28
-3 -11 0 8.81 0.28
3 -11 0 9.33 0.3
3 -11 0 8.42 0.27
-3 -11 0 9.03 0.27
3 11 0 8.78 0.3
3 11 0 9.48 0.29
-3 11 0 8.92 0.32
3 11 0 9.02 0.29
-3 11 0 9.05 0.29
-3 11 0 8.98 0.29
-3 11 0 9.24 0.28
-3 11 0 9.28 0.31
-3 11 0 9.03 0.3
-3 11 0 8.64 0.28
4 -11 0 2.67 0.13
-4 -11 0 2.77 0.12
4 -11 0 2.77 0.1
4 -11 0 2.56 0.12
-4 -11 0 2.74 0.1
-4 11 0 2.81 0.13
-4 11 0 2.92 0.11
4 11 0 2.89 0.12
4 11 0 2.73 0.12
-4 11 0 2.66 0.12
-4 11 0 2.72 0.1
-4 11 0 2.89 0.11
-5 -11 0 4.77 0.17
5 -11 0 4.68 0.19
5 -11 0 4.72 0.17
-5 -11 0 4.68 0.19
5 -11 0 4.37 0.21
5 -11 0 4.79 0.16
5 11 0 4.65 0.18
-5 11 0 4.47 0.17
-5 11 0 4.66 0.16
5 11 0 4.91 0.18
-5 11 0 4.77 0.17
-5 11 0 4.65 0.19
6 -11 0 4.84 0.16
6 -11 0 4.58 0.17
6 -11 0 4.65 0.23
-6 -11 0 4.65 0.18
-6 -11 0 4.61 0.17
-6 11 0 4.73 0.16
-6 11 0 4.76 0.18
6 11 0 4.4 0.18
6 11 0 4.93 0.19
-6 11 0 4.86 0.19
-6 11 0 4.74 0.18
7 -11 0 2.54 0.12
-7 -11 0 2.69 0.12
7 -11 0 2.59 0.11
-7 -11 0 2.53 0.11
7 11 0 2.61 0.13
-7 11 0 2.5 0.13
-7 11 0 2.53 0.12
-7 11 0 2.51 0.13
8 -11 0 0.64 0.06
8 -11 0 0.66 0.07
-8 -11 0 0.74 0.07
-8 11 0 0.76 0.12
-8 11 0 0.81 0.08
8 11 0 0.88 0.08
9 11 0 -0.03 0.03
0 -12 0 19.36 0.62
0 12 0 18.83 0.57
0 12 0 19.72 0.58
0 12 0 19.7 0.64
0 12 0 19.65 0.63
0 12 0 18.73 0.56
0 12 0 20.34 0.61
1 -12 0 19.45 0.59
1 -12 0 18.64 0.6
-1 -12 0 19.7 0.6
-1 12 0 18.35 0.62
-1 12 0 18.56 0.56
1 12 0 19.46 0.57
1 12 0 18.4 0.59
-1 12 0 19.48 0.59
-1 12 0 17.98 0.55
-1 12 0 18.24 0.54
-1 12 0 19.56 0.6
1 12 0 18.7 0.6
1 12 0 17.91 0.61
-1 12 0 18.79 0.57
1 12 0 18.06 0.57
1 12 0 19.45 0.55
1 12 0 17.9 0.54
-2 -12 0 10.29 0.33
2 -12 0 10.26 0.33
-2 -12 0 9.69 0.3
2 -12 0 10.22 0.32
-2 -12 0 9.25 0.29
-2 12 0 10.03 0.35
-2 12 0 9.83 0.31
2 12 0 9.16 0.31
-2 12 0 9.95 0.31
2 12 0 9.91 0.32
2 12 0 9.51 0.32
-2 12 0 9.57 0.3
-2 12 0 10.11 0.32
2 12 0 9.58 0.33
2 12 0 9.84 0.31
-2 12 0 10.2 0.31
-3 -12 0 6.82 0.24
3 -12 0 6.89 0.23
3 -12 0 6.81 0.22
3 -12 0 6.93 0.24
-3 -12 0 6.98 0.21
-3 -12 0 7.15 0.22
3 -12 0 6.64 0.21
3 12 0 6.51 0.23
-3 12 0 6.66 0.23
-3 12 0 6.58 0.25
3 12 0 6.47 0.22
3 12 0 6.74 0.23
-3 12 0 6.46 0.22
-3 12 0 6.56 0.22
-3 12 0 6.4 0.22
3 12 0 6.48 0.23
-3 12 0 7.18 0.23
4 -12 0 1.8 0.08
-4 -12 0 1.85 0.09
-4 -12 0 1.7 0.08
4 -12 0 1.68 0.08
4 -12 0 1.7 0.1
-4 12 0 1.69 0.09
-4 12 0 1.54 0.09
4 12 0 1.75 0.09
-4 12 0 1.84 0.09
4 12 0 1.56 0.09
-4 12 0 1.56 0.1
4 12 0 1.71 0.1
5 -12 0 1.59 0.08
5 -12 0 1.56 0.12
5 -12 0 1.32 0.17
-5 -12 0 1.68 0.11
-5 -12 0 1.66 0.1
5 12 0 1.39 0.1
-5 12 0 1.41 0.1
-6 -12 0 6.17 0.21
6 -12 0 5.74 0.2
-6 -12 0 5.72 0.2
6 -12 0 5.68 0.19
6 12 0 5.69 0.22
-6 12 0 6.2 0.23
-6 12 0 5.79 0.21
6 12 0 5.97 0.21
-6 12 0 5.84 0.22
-6 12 0 5.58 0.21
7 -12 0 2.6 0.1
7 -12 0 2.4 0.11
-7 -12 0 2.57 0.12
-7 12 0 2.58 0.13
7 12 0 2.41 0.12
-7 12 0 2.62 0.13
-8 -12 0 2.95 0.12
8 -12 0 2.65 0.11
8 -12 0 2.76 0.12
-8 12 0 2.91 0.13
-8 12 0 2.44 0.15
0 -13 0 0.4 0.05
0 -13 0 0.24 0.05
0 13 0 0.32 0.05
0 13 0 0.32 0.04
0 13 0 0.28 0.05
0 13 0 0.39 0.06
0 13 0 0.28 0.04
0 13 0 0.33 0.05
1 -13 0 0.17 0.04
1 -13 0 0.17 0.05
-1 -13 0 0.21 0.05
-1 13 0 0.21 0.05
-1 13 0 0.21 0.04
-1 13 0 0.16 0.05
-1 13 0 0.16 0.04
1 13 0 0.2 0.04
-2 -13 0 2.76 0.12
-2 -13 0 2.73 0.09
-2 -13 0 2.64 0.11
2 -13 0 2.75 0.11
2 -13 0 2.74 0.12
2 13 0 2.63 0.11
-2 13 0 2.68 0.13
2 13 0 2.66 0.11
-2 13 0 2.79 0.12
-2 13 0 2.78 0.12
-2 13 0 2.79 0.11
-2 13 0 2.65 0.11
-2 13 0 2.82 0.11
2 13 0 2.6 0.11
-2 13 0 2.66 0.11
3 -13 0 0.66 0.07
3 -13 0 0.62 0.08
3 -13 0 0.66 0.05
-3 -13 0 0.62 0.05
3 -13 0 0.79 0.07
-3 13 0 0.81 0.07
-3 13 0 0.75 0.06
3 13 0 0.66 0.07
-3 13 0 0.7 0.06
3 13 0 0.61 0.07
-3 13 0 0.86 0.08
-3 13 0 0.8 0.08
4 -13 0 0.79 0.09
-4 -13 0 0.92 0.08
4 -13 0 0.99 0.07
-4 -13 0 0.8 0.06
4 -13 0 0.87 0.06
4 13 0 1 0.08
-4 13 0 0.9 0.08
-4 13 0 1 0.08
4 13 0 0.91 0.08
-4 13 0 0.77 0.08
4 13 0 1.01 0.08
5 -13 0 2.51 0.17
5 -13 0 2.5 0.12
5 -13 0 2.75 0.11
-5 -13 0 2.62 0.12
5 13 0 2.67 0.14
-5 13 0 2.66 0.14
-5 13 0 2.72 0.14
5 13 0 2.91 0.13
5 13 0 2.91 0.13
-5 13 0 2.82 0.13
-6 -13 0 1.76 0.09
6 -13 0 1.66 0.08
6 -13 0 1.56 0.1
-6 -13 0 1.66 0.1
-6 13 0 1.65 0.11
-6 13 0 1.64 0.09
-6 13 0 1.66 0.1
6 13 0 1.65 0.11
-6 13 0 1.51 0.11
6 13 0 1.61 0.11
7 -13 0 0.08 0.02
7 -13 0 0.1 0.03
-7 -13 0 0.09 0.02
-7 -13 0 0.12 0.03
-7 13 0 0.18 0.05
-7 13 0 0.07 0.03
7 13 0 0.11 0.03
8 -13 0 0.25 0.07
8 -13 0 0.34 0.06
-8 -13 0 0.33 0.06
8 13 0 0.4 0.06
-8 13 0 0.37 0.07
0 -14 0 5.88 0.21
0 14 0 5.96 0.19
0 14 0 5.93 0.21
0 14 0 5.93 0.22
0 14 0 5.66 0.19
0 14 0 5.72 0.2
0 14 0 5.93 0.21
0 14 0 5.7 0.2
-1 -14 0 0.06 0.03
1 -14 0 0.08 0.04
1 -14 0 0.09 0.03
1 14 0 0.1 0.02
1 14 0 0.07 0.02
-1 14 0 0.14 0.05
-1 14 0 0.03 0.02
1 14 0 0.07 0.03
-1 14 0 0.05 0.03
-1 14 0 0.08 0.03
1 14 0 0.04 0.02
2 -14 0 0.95 0.07
2 -14 0 1 0.08
-2 -14 0 1.02 0.05
-2 14 0 1.16 0.07
-2 14 0 1.02 0.07
2 14 0 0.87 0.07
-2 14 0 0.93 0.08
-2 14 0 1.02 0.07
-2 14 0 0.97 0.07
2 14 0 1.07 0.08
2 14 0 1.06 0.07
-2 14 0 1.1 0.07
2 14 0 0.9 0.07
2 14 0 0.89 0.08
3 -14 0 0.84 0.08
-3 -14 0 0.62 0.05
3 -14 0 0.56 0.1
3 -14 0 0.78 0.08
3 -14 0 0.69 0.06
-3 14 0 0.85 0.07
-3 14 0 0.62 0.07
-3 14 0 0.74 0.07
3 14 0 0.86 0.07
3 14 0 0.66 0.07
-3 14 0 0.87 0.1
-3 14 0 0.79 0.08
-3 14 0 0.69 0.08
-3 14 0 0.67 0.06
3 14 0 0.63 0.07
4 -14 0 35.02 1.05
4 -14 0 35.04 1.12
-4 -14 0 37.04 1.06
4 -14 0 35.11 1.03
-4 -14 0 37.36 1.03
-4 -14 0 34.62 1.14
4 14 0 34.34 1.07
4 14 0 37.59 1.09
-4 14 0 34.1 1.19
-4 14 0 37.67 1.11
5 -14 0 3.72 0.13
5 -14 0 3.52 0.14
-5 -14 0 3.69 0.15
5 14 0 3.75 0.15
-5 14 0 3.8 0.15
-5 14 0 3.86 0.15
5 14 0 3.47 0.15
-5 14 0 3.66 0.16
-5 14 0 3.66 0.16
-6 -14 0 1.61 0.1
-6 -14 0 1.57 0.09
6 -14 0 1.58 0.09
6 -14 0 1.72 0.08
-6 14 0 1.67 0.1
-6 14 0 1.82 0.1
6 14 0 1.52 0.1
-6 14 0 1.82 0.12
6 14 0 1.53 0.1
-6 14 0 1.71 0.1
7 -14 0 0.04 0.02
-7 -14 0 0.01 0.02
-7 -14 0 0.02 0.02
7 -14 0 0.04 0.03
7 14 0 0.01 0.02
-7 14 0 0.03 0.04
-8 -14 0 0.92 0.07
8 -14 0 0.71 0.06
8 -14 0 0.65 0.08
8 14 0 0.83 0.07
0 -15 0 0.38 0.07
0 -15 0 0.24 0.06
0 15 0 0.29 0.06
0 15 0 0.22 0.06
0 15 0 0.23 0.05
1 -15 0 1.61 0.1
-1 15 0 1.53 0.08
1 15 0 1.69 0.09
1 15 0 1.78 0.09
1 15 0 1.58 0.08
-1 15 0 1.52 0.09
-1 15 0 1.59 0.09
1 15 0 1.64 0.09
-1 15 0 1.54 0.1
-1 15 0 1.66 0.09
-1 15 0 1.61 0.09
-1 15 0 1.56 0.08
1 15 0 1.64 0.09
2 -15 0 2.66 0.13
2 -15 0 2.57 0.14
-2 -15 0 3.04 0.13
-2 -15 0 2.76 0.1
2 15 0 2.88 0.13
-2 15 0 2.62 0.11
-2 15 0 2.95 0.13
2 15 0 2.85 0.13
2 15 0 2.81 0.12
-2 15 0 2.89 0.13
-2 15 0 2.92 0.13
-2 15 0 2.8 0.12
-2 15 0 2.71 0.12
2 15 0 2.74 0.12
-2 15 0 2.9 0.14
-3 -15 0 21.59 0.63
3 -15 0 21.07 0.63
3 -15 0 20.45 0.72
-3 -15 0 21.91 0.71
3 -15 0 21.05 0.69
-3 15 0 20.93 0.64
3 15 0 22.83 0.69
3 15 0 22.16 0.68
-3 15 0 21.49 0.74
-3 15 0 22.61 0.69
-3 15 0 21.42 0.66
3 15 0 22.88 0.67
-3 15 0 22.34 0.67
-3 15 0 22.83 0.71
-3 15 0 21.45 0.65
-4 -15 0 3.04 0.12
4 -15 0 3.02 0.11
-4 15 0 3.17 0.14
-4 15 0 3.25 0.13
-4 15 0 2.81 0.14
-4 15 0 2.81 0.14
4 15 0 3.05 0.14
4 15 0 2.8 0.14
4 15 0 3.2 0.14
5 -15 0 7.87 0.26
5 -15 0 8.3 0.25
-5 -15 0 7.89 0.27
-5 15 0 8.07 0.29
-5 15 0 7.65 0.26
-5 15 0 8.17 0.26
5 15 0 8.26 0.27
-5 15 0 7.7 0.29
-6 -15 0 0.01 0.02
-6 -15 0 0.01 0.03
6 -15 0 -0.02 0.03
6 -15 0 0.02 0.02
-6 15 0 -0.02 0.03
6 15 0 -0.04 0.03
-6 15 0 -0.02 0.03
-6 15 0 0 0.03
6 15 0 0.02 0.03
-7 -15 0 0.41 0.07
-7 15 0 0.48 0.08
-7 15 0 0.47 0.12
0 -16 0 6.68 0.25
0 16 0 7.2 0.25
0 16 0 6.91 0.24
0 16 0 7.01 0.25
0 16 0 6.75 0.24
0 16 0 6.64 0.23
0 16 0 6.68 0.22
1 -16 0 2.59 0.12
-1 -16 0 2.42 0.13
1 16 0 2.81 0.12
1 16 0 2.66 0.12
-1 16 0 2.72 0.11
-1 16 0 2.65 0.11
-1 16 0 2.63 0.13
-1 16 0 2.75 0.12
-1 16 0 2.84 0.15
-1 16 0 2.5 0.13
1 16 0 2.6 0.12
1 16 0 2.66 0.12
-1 16 0 2.75 0.13
1 16 0 2.62 0.12
-2 -16 0 6.42 0.2
-2 -16 0 6.45 0.25
2 16 0 6.77 0.23
-2 16 0 6.44 0.27
2 16 0 6.35 0.24
-2 16 0 6.55 0.23
-2 16 0 6.71 0.23
2 16 0 6.41 0.24
-2 16 0 6.42 0.22
-2 16 0 6.7 0.22
2 16 0 6.55 0.23
-2 16 0 6.64 0.24
3 -16 0 12.61 0.45
-3 -16 0 12.75 0.46
3 16 0 13.88 0.44
3 16 0 14.28 0.43
-3 16 0 13.38 0.44
-3 16 0 14.17 0.41
-3 16 0 12.67 0.48
-3 16 0 13.24 0.41
-3 16 0 13.16 0.46
-3 16 0 13.61 0.44
3 16 0 13.38 0.44
4 -16 0 9.79 0.3
-4 -16 0 9.92 0.3
-4 -16 0 9.38 0.32
-4 16 0 9.62 0.34
4 16 0 10.21 0.33
-4 16 0 9.84 0.32
4 16 0 9.47 0.33
-4 16 0 9.86 0.31
4 16 0 10.13 0.34
-5 -16 0 1.38 0.08
5 -16 0 1.37 0.07
-5 -16 0 1.44 0.1
5 -16 0 1.31 0.1
5 16 0 1.46 0.1
-5 16 0 1.27 0.09
-5 16 0 1.55 0.11
-5 16 0 1.41 0.09
5 16 0 1.24 0.1
-5 16 0 1.56 0.09
-6 -16 0 2.38 0.12
6 -16 0 2.58 0.1
-6 -16 0 2.57 0.1
-6 16 0 2.59 0.14
6 16 0 2.37 0.12
-6 16 0 2.27 0.11
-6 16 0 2.66 0.12
-7 -16 0 0.11 0.03
7 -16 0 0.08 0.02
-7 16 0 0.13 0.04
-7 16 0 0.07 0.05
0 -17 0 0.17 0.08
0 17 0 0.1 0.04
0 17 0 0.1 0.03
0 17 0 0.2 0.06
0 17 0 0.23 0.07
-1 -17 0 1.59 0.15
-1 -17 0 1.88 0.14
-1 17 0 1.68 0.11
1 17 0 1.6 0.11
1 17 0 1.82 0.1
-1 17 0 1.8 0.1
2 -17 0 39.42 1.28
-2 17 0 42.46 1.28
2 17 0 42.36 1.28
-2 17 0 40.38 1.18
-2 17 0 41.5 1.2
3 -17 0 0.66 0.06
-3 -17 0 0.62 0.06
3 17 0 0.62 0.08
-3 17 0 0.57 0.07
-3 17 0 0.46 0.09
3 17 0 0.56 0.08
-3 17 0 0.77 0.08
4 -17 0 4.96 0.16
-4 -17 0 4.83 0.17
4 17 0 4.76 0.19
-4 17 0 4.69 0.2
-4 17 0 4.64 0.17
-4 17 0 4.87 0.18
4 17 0 4.66 0.19
4 17 0 5.12 0.19
-4 17 0 4.89 0.2
-5 -17 0 0.28 0.06
5 -17 0 0.29 0.05
-5 17 0 0.32 0.07
5 17 0 0.34 0.07
-5 17 0 0.33 0.06
5 17 0 0.29 0.07
-5 17 0 0.32 0.09
6 -17 0 0.37 0.06
-6 -17 0 0.51 0.06
-6 -17 0 0.36 0.09
6 17 0 0.6 0.08
-6 17 0 0.68 0.11
-6 17 0 0.5 0.07
7 -17 0 0.45 0.05
-7 -17 0 0.53 0.06
7 17 0 0.7 0.08
-7 17 0 0.55 0.1
-7 17 0 0.67 0.08
0 18 0 19.54 0.58
0 18 0 18.85 0.63
0 18 0 20.25 0.64
0 18 0 19.35 0.6
-1 18 0 28.62 0.89
1 18 0 28.66 0.85
1 18 0 27.59 0.86
1 18 0 27.91 0.91
-1 18 0 28.13 0.85
1 18 0 27.54 0.83
-1 18 0 28.65 0.83
-1 18 0 29.32 0.91
-2 -18 0 4.23 0.15
2 18 0 4.28 0.17
2 18 0 4.02 0.17
-2 18 0 4.27 0.18
-2 18 0 4.22 0.18
-2 18 0 4.04 0.18
-2 18 0 4.15 0.16
2 18 0 4.27 0.18
2 18 0 3.81 0.17
-2 18 0 4.15 0.16
3 -18 0 12.19 0.36
-3 -18 0 11.76 0.37
-3 18 0 12.01 0.42
-3 18 0 12.09 0.38
3 18 0 12.02 0.41
3 18 0 12.46 0.4
3 18 0 12.59 0.4
-3 18 0 12.06 0.38
-3 18 0 12.2 0.41
4 -18 0 0.4 0.06
4 18 0 0.41 0.07
-4 18 0 0.4 0.07
-4 18 0 0.36 0.07
4 18 0 0.42 0.08
-4 18 0 0.51 0.09
4 18 0 0.29 0.08
-4 18 0 0.42 0.07
5 -18 0 1.21 0.07
-5 -18 0 1.26 0.08
5 18 0 1.24 0.1
-5 18 0 1.34 0.08
5 18 0 1.18 0.09
-5 18 0 1.25 0.09
6 -18 0 0.55 0.05
-6 -18 0 0.64 0.06
6 18 0 0.62 0.09
-6 18 0 0.72 0.07
-6 18 0 0.52 0.13
0 19 0 0.38 0.08
0 19 0 0.43 0.07
0 19 0 0.35 0.08
0 19 0 0.54 0.08
-1 19 0 2.6 0.13
-1 19 0 2.83 0.12
1 19 0 2.46 0.13
-1 19 0 2.44 0.13
1 19 0 2.75 0.13
-1 19 0 2.72 0.14
1 19 0 2.61 0.14
-1 19 0 2.88 0.14
-2 -19 0 1.07 0.08
2 19 0 1.23 0.1
-2 19 0 0.88 0.11
-2 19 0 1.15 0.09
2 19 0 0.95 0.09
2 19 0 0.92 0.09
-2 19 0 1.18 0.09
-2 19 0 1.14 0.09
2 19 0 1.05 0.11
-2 19 0 1.03 0.1
-3 -19 0 1.47 0.08
-3 19 0 1.54 0.09
3 19 0 1.32 0.11
-3 19 0 1.68 0.1
-3 19 0 1.55 0.1
3 19 0 1.6 0.1
3 19 0 1.51 0.1
-3 19 0 1.7 0.11
4 -19 0 0.05 0.02
-4 19 0 0.08 0.03
-4 19 0 -0.01 0.03
-4 19 0 0.03 0.03
-4 19 0 0.04 0.03
4 19 0 0.06 0.03
4 19 0 0.01 0.03
4 19 0 0.01 0.02
5 -19 0 0.21 0.05
5 19 0 0.11 0.03
-5 19 0 0.12 0.03
6 -19 0 0.39 0.05
-6 -19 0 0.42 0.05
6 19 0 0.25 0.07
6 19 0 0.39 0.09
-6 19 0 0.41 0.06
0 20 0 23.23 0.78
0 20 0 25.65 0.77
0 20 0 24.79 0.74
0 20 0 23.34 0.72
-1 20 0 2.39 0.14
1 20 0 2.54 0.13
1 20 0 2.48 0.13
-1 20 0 2.43 0.13
-1 20 0 2.67 0.14
-1 20 0 2.45 0.12
-2 -20 0 2.1 0.1
-2 20 0 2.21 0.11
2 20 0 2.39 0.12
-2 20 0 2.3 0.12
-2 20 0 2.16 0.12
-2 20 0 2.18 0.14
-2 20 0 2.49 0.13
2 20 0 2.21 0.12
-3 -20 0 0.05 0.02
-3 20 0 0.07 0.03
3 20 0 0.11 0.04
3 20 0 0.06 0.03
4 -20 0 1.13 0.07
4 20 0 1.02 0.11
-4 20 0 0.98 0.08
-4 20 0 1.12 0.08
5 -20 0 0.23 0.06
-5 -20 0 0.29 0.05
-5 20 0 0.29 0.06
-5 20 0 0.29 0.06
0 21 0 0.06 0.04
0 21 0 0.05 0.03
0 21 0 0.06 0.03
1 21 0 3.07 0.14
1 21 0 2.96 0.14
-1 21 0 2.84 0.15
1 21 0 2.96 0.14
-1 21 0 2.93 0.14
-1 21 0 3.08 0.14
-1 21 0 3.11 0.13
-2 21 0 1.44 0.09
-2 21 0 1.41 0.1
-2 21 0 1.64 0.11
2 21 0 1.57 0.11
2 21 0 1.43 0.1
3 21 0 2.04 0.11
3 21 0 2.17 0.11
-3 21 0 2.22 0.1
-3 21 0 2.22 0.11
4 -21 0 0.21 0.03
-4 21 0 0.45 0.12
4 21 0 0.31 0.06
-4 21 0 0.23 0.06
-5 21 0 0.75 0.06
-5 21 0 0.66 0.06
5 21 0 0.51 0.07
0 22 0 0.4 0.08
-1 22 0 1.48 0.12
-1 22 0 1.82 0.13
1 22 0 1.72 0.11
-2 22 0 0.05 0.03
2 22 0 0 0.02
-2 22 0 0.03 0.04
3 22 0 0.74 0.08
3 22 0 0.77 0.08
-3 22 0 1.01 0.07
-3 22 0 0.8 0.08
-3 22 0 0.94 0.11
-4 22 0 0.1 0.03
4 22 0 0.08 0.03
0 23 0 -0.02 0.03
0 23 0 0.05 0.04
-1 23 0 0.5 0.09
1 23 0 0.48 0.08
2 23 0 1.7 0.1
2 23 0 1.8 0.1
-2 23 0 1.55 0.1
-3 23 0 0.97 0.08
3 23 0 0.87 0.07
0 24 0 0.34 0.1
1 24 0 0.05 0.03
-10 0 1 0.99 0.07
-9 0 1 -0.01 0.02
9 0 -1 -0.01 0.03
9 0 -1 0 0.04
8 0 -1 0.03 0.04
8 0 -1 0 0.03
-8 0 1 0 0.02
-8 0 1 -0.02 0.03
7 0 -1 3.53 0.14
7 0 -1 3.56 0.15
-7 0 1 3.72 0.15
-6 0 1 4.21 0.15
6 0 -1 4.17 0.16
6 0 -1 4.02 0.14
-6 0 1 4.26 0.16
6 0 -1 4.39 0.17
6 0 -1 4.33 0.15
5 0 -1 25.19 0.76
5 0 -1 26.33 0.78
-5 0 1 24.51 0.72
5 0 -1 25.19 0.74
5 0 -1 24.33 0.72
-5 0 1 24 0.72
-5 0 1 24.52 0.75
-5 0 1 25.11 0.74
4 0 -1 14.46 0.45
4 0 -1 15.01 0.46
4 0 -1 14.5 0.46
-4 0 1 15.14 0.45
-4 0 1 14.28 0.42
4 0 -1 14.34 0.48
3 0 -1 0.13 0.02
-2 0 1 16.56 0.54
2 0 -1 17.83 0.52
2 0 -1 16.92 0.55
-1 0 1 63.91 1.95
1 0 -1 63.38 2.01
-1 0 1 62.1 1.96
1 0 -1 61.33 1.91
0 0 -1 4.56 0.15
0 0 1 5.04 0.15
0 0 1 4.93 0.15
-1 0 -1 18.98 0.63
1 0 1 20.54 0.63
-1 0 -1 20.84 0.62
-2 0 -1 152.78 4.62
2 0 1 146.28 4.53
2 0 1 141.51 4.42
-2 0 -1 138.59 4.52
3 0 1 92.62 2.64
-3 0 -1 90.71 2.64
-3 0 -1 93.01 2.72
-3 0 -1 96.2 2.98
-3 0 -1 91.02 2.69
3 0 1 95.15 2.69
3 0 1 93.13 2.77
3 0 1 95.34 2.94
-4 0 -1 67.37 2.11
4 0 1 65.2 1.97
4 0 1 65.92 1.91
-4 0 -1 65.49 1.91
-4 0 -1 64.16 1.93
4 0 1 67.75 2.02
4 0 1 67.55 2.07
5 0 1 0.06 0.02
-5 0 -1 0.03 0.01
5 0 1 0 0.03
-5 0 -1 0.06 0.02
5 0 1 0.04 0.01
5 0 1 0.06 0.02
-5 0 -1 0.05 0.02
6 0 1 0.21 0.06
6 0 1 0.31 0.05
-6 0 -1 0.3 0.05
-6 0 -1 0.29 0.06
6 0 1 0.21 0.05
-6 0 -1 0.25 0.08
7 0 1 0.7 0.08
7 0 1 0.67 0.08
-7 0 -1 0.57 0.1
-7 0 -1 0.65 0.07
7 0 1 0.76 0.07
8 0 1 2.06 0.12
-8 0 -1 2.19 0.11
-8 0 -1 2.08 0.12
8 0 1 1.99 0.11
-9 0 -1 0.04 0.05
-9 0 -1 0.04 0.02
-10 0 -1 1.64 0.1
-10 1 1 0.53 0.06
9 -1 -1 1.25 0.11
-9 -1 1 1.23 0.09
9 -1 -1 1.21 0.09
9 1 -1 1.16 0.09
-9 1 1 1.33 0.09
8 -1 -1 0.21 0.07
-8 -1 1 0.24 0.07
-8 -1 1 0.14 0.03
8 -1 -1 0.15 0.04
8 1 -1 0.2 0.04
8 1 -1 0.13 0.03
-8 1 1 0.1 0.03
-7 -1 1 0.84 0.08
7 -1 -1 0.79 0.09
-7 -1 1 0.67 0.08
7 -1 -1 0.81 0.07
7 -1 -1 0.85 0.07
7 -1 -1 0.82 0.07
-7 1 1 0.83 0.08
-7 1 1 0.69 0.08
7 1 -1 0.79 0.08
7 1 -1 0.8 0.07
-6 -1 1 6.51 0.22
6 -1 -1 6.32 0.21
-6 -1 1 6.73 0.21
6 -1 -1 6.39 0.23
6 -1 -1 6.66 0.22
-6 -1 1 6.54 0.23
6 -1 -1 6.63 0.23
-6 1 1 6.68 0.22
6 1 -1 6.72 0.22
6 1 -1 6.32 0.23
-6 1 1 6.28 0.22
6 1 -1 6.38 0.23
-5 -1 1 6.73 0.22
-5 -1 1 6.8 0.22
5 -1 -1 7.01 0.21
-5 -1 1 6.68 0.21
5 -1 -1 6.81 0.22
5 -1 -1 6.95 0.22
5 1 -1 6.61 0.22
5 1 -1 6.89 0.22
-5 1 1 6.5 0.21
-5 1 1 6.49 0.21
5 1 -1 6.28 0.23
5 1 -1 6.59 0.21
-5 1 1 6.73 0.22
4 -1 -1 10.79 0.33
-4 -1 1 10.27 0.32
-4 -1 1 10.12 0.33
4 -1 -1 10.68 0.34
4 1 -1 10.75 0.33
4 1 -1 10.52 0.34
-4 1 1 10.27 0.31
-4 1 1 10.62 0.31
-4 1 1 10.49 0.32
-4 1 1 10.37 0.33
4 1 -1 11.08 0.34
3 -1 -1 29.14 0.85
3 -1 -1 29.82 0.83
3 -1 -1 30.48 0.89
3 -1 -1 27.66 0.87
3 -1 -1 28.05 0.93
-3 -1 1 28.25 0.85
-3 1 1 29.19 0.85
3 1 -1 27.85 0.9
3 1 -1 29.94 0.87
-3 1 1 30.74 0.93
-3 1 1 30.18 0.86
3 1 -1 28.13 0.83
3 1 -1 30.12 0.89
3 1 -1 27.5 0.85
-2 -1 1 21.25 0.7
2 -1 -1 22.83 0.68
2 -1 -1 21.54 0.7
-2 1 1 23.22 0.71
2 1 -1 22.01 0.71
2 1 -1 22.61 0.68
1 -1 -1 136.56 4.21
1 -1 -1 140.29 4.42
-1 -1 1 136.52 4.29
-1 1 1 140.2 4.42
-1 -1 -1 5.71 0.19
1 -1 1 5.86 0.19
1 -1 1 6.04 0.19
1 -1 1 6.15 0.19
1 1 1 6.12 0.19
-1 1 -1 5.93 0.19
-1 1 -1 5.68 0.19
-1 1 -1 6.02 0.2
2 -1 1 156.69 5.02
2 -1 1 156.36 4.89
-2 -1 -1 153.81 5.02
-2 -1 -1 167.9 5.11
-2 1 -1 156.11 4.98
-2 1 -1 167.92 5.13
2 1 1 165.06 4.9
-3 -1 -1 0.99 0.04
-3 -1 -1 0.94 0.04
3 -1 1 1.07 0.04
3 -1 1 0.97 0.05
3 -1 1 0.98 0.05
-3 -1 -1 0.99 0.04
3 -1 1 0.94 0.05
-3 1 -1 1.04 0.05
3 1 1 0.96 0.05
3 1 1 1.05 0.05
3 1 1 1.08 0.05
-3 1 -1 0.93 0.05
-3 1 -1 0.99 0.04
-3 1 -1 1.1 0.05
3 1 1 1.07 0.05
-4 -1 -1 7.13 0.22
4 -1 1 6.58 0.23
4 -1 1 6.73 0.22
4 -1 1 6.81 0.24
4 -1 1 6.67 0.21
4 1 1 7.08 0.23
4 1 1 7.04 0.22
4 1 1 6.88 0.24
5 -1 1 0.66 0.06
-5 -1 -1 0.7 0.06
-5 -1 -1 0.65 0.05
5 -1 1 0.65 0.06
5 -1 1 0.78 0.05
-5 -1 -1 0.66 0.05
5 -1 1 0.62 0.06
5 1 1 0.73 0.06
-5 1 -1 0.82 0.05
-5 1 -1 0.78 0.06
-5 1 -1 0.73 0.05
5 1 1 0.75 0.06
-5 1 -1 0.79 0.06
-5 1 -1 0.8 0.07
5 1 1 0.73 0.05
6 -1 1 23.38 0.69
6 -1 1 22.47 0.71
6 -1 1 23.41 0.74
6 -1 1 22.72 0.67
-6 -1 -1 23.21 0.71
-6 -1 -1 23.25 0.69
-6 -1 -1 23.88 0.67
-6 1 -1 23.58 0.78
6 1 1 23.28 0.69
-6 1 -1 22.73 0.7
-6 1 -1 23.08 0.69
6 1 1 24.31 0.74
6 1 1 23.03 0.72
-7 -1 -1 7.14 0.28
7 -1 1 7.42 0.27
7 -1 1 6.98 0.23
7 -1 1 7.44 0.25
-7 1 -1 7.47 0.24
7 1 1 7.03 0.25
7 1 1 7.31 0.27
-8 -1 -1 2.13 0.12
8 -1 1 2.2 0.12
8 -1 1 2.1 0.11
8 -1 1 1.98 0.14
-8 -1 -1 2.09 0.11
8 1 1 2.13 0.11
-8 1 -1 2.25 0.11
8 1 1 2.14 0.12
-8 1 -1 2.15 0.12
-9 -1 -1 0.42 0.08
-9 1 -1 0.54 0.13
-9 1 -1 0.5 0.08
-10 -2 1 0.98 0.08
9 -2 -1 0 0.03
-9 -2 1 0.06 0.03
-9 2 1 0.05 0.02
9 2 -1 0.06 0.04
-8 -2 1 2.01 0.12
8 -2 -1 1.86 0.11
8 -2 -1 1.8 0.11
8 -2 -1 2.15 0.11
-8 -2 1 2.2 0.11
-8 2 1 1.9 0.12
8 2 -1 1.95 0.11
-8 2 1 2.02 0.11
8 2 -1 1.97 0.11
7 -2 -1 3.39 0.14
-7 -2 1 3.45 0.15
7 -2 -1 3.16 0.14
7 -2 -1 3.39 0.13
7 -2 -1 3.55 0.16
-7 -2 1 3.44 0.14
7 2 -1 3.38 0.14
-7 2 1 3.52 0.14
7 2 -1 3.09 0.14
6 -2 -1 0.97 0.07
6 -2 -1 0.89 0.06
-6 -2 1 0.97 0.07
6 -2 -1 1 0.08
6 -2 -1 0.98 0.07
-6 -2 1 1 0.08
-6 -2 1 0.88 0.07
-6 -2 1 0.99 0.08
-6 2 1 1.04 0.07
-6 2 1 1.02 0.08
6 2 -1 1.06 0.07
6 2 -1 1.07 0.07
6 2 -1 0.81 0.07
5 -2 -1 2.39 0.1
-5 -2 1 2.46 0.11
-5 -2 1 2.38 0.09
5 -2 -1 2.46 0.1
5 -2 -1 2.51 0.09
5 -2 -1 2.59 0.1
-5 -2 1 2.34 0.1
-5 2 1 2.28 0.1
-5 2 1 2.3 0.1
5 2 -1 2.38 0.1
5 2 -1 2.54 0.11
-5 2 1 2.37 0.1
5 2 -1 2.38 0.1
5 2 -1 2.42 0.09
-5 2 1 2.58 0.1
4 -2 -1 6.31 0.22
-4 -2 1 6.56 0.21
4 -2 -1 6.3 0.21
-4 2 1 6.59 0.22
-4 2 1 6.25 0.2
4 2 -1 6.14 0.21
4 2 -1 6.64 0.2
-4 2 1 6.28 0.2
-4 2 1 6.71 0.2
-4 2 1 6.08 0.21
3 -2 -1 30.31 0.92
3 -2 -1 29.1 0.88
-3 -2 1 29.85 0.86
-3 -2 1 30.1 0.84
-3 -2 1 28.22 0.87
3 -2 -1 28.53 0.94
3 -2 -1 30 0.84
-3 2 1 28.26 0.86
-3 2 1 27.71 0.85
3 2 -1 28.87 0.9
-3 2 1 29.63 0.83
3 2 -1 28.88 0.85
-3 2 1 30.74 0.94
3 2 -1 30.04 0.88
3 2 -1 29.92 0.84
1 -2 -1 0.79 0.03
-1 -2 1 0.75 0.03
1 -2 -1 0.7 0.03
-1 2 1 0.75 0.04
0 -2 -1 47.19 1.5
0 -2 1 47.07 1.46
0 -2 -1 45.92 1.43
0 2 -1 47 1.46
-1 -2 -1 108.49 3.49
1 -2 1 108.63 3.4
1 -2 1 109.91 3.49
1 -2 1 113.8 3.46
-1 2 -1 111.91 3.46
1 2 1 114.18 3.49
1 2 1 110.63 3.4
-1 2 -1 113.64 3.57
-1 2 -1 113.78 3.49
2 -2 1 110.11 3.27
2 -2 1 101.08 3.18
-2 -2 -1 99.97 3.24
-2 2 -1 109.72 3.34
-2 2 -1 98.99 3.24
-2 2 -1 103.48 3.23
2 2 1 105.04 3.18
2 2 1 103.8 3.26
3 -2 1 1.55 0.06
3 -2 1 1.51 0.05
3 -2 1 1.47 0.06
3 -2 1 1.67 0.07
-3 -2 -1 1.58 0.07
3 2 1 1.59 0.06
3 2 1 1.56 0.07
3 2 1 1.56 0.07
3 2 1 1.62 0.06
-3 2 -1 1.48 0.06
-3 2 -1 1.44 0.06
3 2 1 1.47 0.06
-3 2 -1 1.52 0.07
-3 2 -1 1.5 0.06
-3 2 -1 1.65 0.06
4 -2 1 24.94 0.74
4 -2 1 24.41 0.76
4 -2 1 23.78 0.78
-4 -2 -1 25.42 0.78
-4 -2 -1 25.24 0.73
-4 2 -1 25.22 0.79
-4 2 -1 24.18 0.81
-4 2 -1 25.45 0.7
-4 2 -1 23.45 0.7
4 2 1 24.81 0.72
4 2 1 24.03 0.76
-4 2 -1 23.97 0.71
-4 2 -1 24.37 0.73
4 2 1 24.71 0.7
-5 -2 -1 3.44 0.13
5 -2 1 3.54 0.12
5 -2 1 3.27 0.13
5 -2 1 3.37 0.14
5 -2 1 3.39 0.13
5 -2 1 3.48 0.12
-5 -2 -1 3.47 0.13
-5 -2 -1 3.4 0.12
5 2 1 3.68 0.13
-5 2 -1 3.36 0.13
5 2 1 3.31 0.14
-5 2 -1 3.55 0.12
5 2 1 3.47 0.13
6 -2 1 2.01 0.09
-6 -2 -1 1.97 0.08
-6 -2 -1 2.01 0.09
6 -2 1 1.89 0.1
6 -2 1 1.91 0.09
-6 -2 -1 1.96 0.1
6 -2 1 1.92 0.11
6 2 1 1.78 0.11
-6 2 -1 1.9 0.09
6 2 1 2.08 0.1
-6 2 -1 1.94 0.1
-7 -2 -1 2.76 0.12
-7 -2 -1 3.14 0.15
7 -2 1 2.94 0.15
7 -2 1 2.87 0.13
7 -2 1 2.81 0.12
7 2 1 2.98 0.13
7 2 1 2.91 0.14
-7 2 -1 2.83 0.12
-8 -2 -1 0.87 0.1
8 -2 1 0.97 0.09
8 -2 1 1 0.13
8 2 1 1.11 0.09
-8 2 -1 1.15 0.1
-8 2 -1 0.95 0.09
8 2 1 0.87 0.1
9 -2 1 0.21 0.04
-9 2 -1 0.36 0.13
9 2 1 0.22 0.06
-10 3 1 1.42 0.08
-9 -3 1 0.32 0.09
-9 3 1 0.21 0.07
8 -3 -1 0.15 0.03
-8 -3 1 0.1 0.04
8 -3 -1 0.13 0.05
-8 3 1 0.14 0.03
8 3 -1 0.12 0.04
8 3 -1 0.26 0.07
7 -3 -1 2.16 0.11
7 -3 -1 2.13 0.12
7 -3 -1 2.04 0.09
-7 -3 1 1.88 0.12
-7 -3 1 1.91 0.1
7 3 -1 2.24 0.11
-7 3 1 2.09 0.11
-6 -3 1 2.2 0.1
-6 -3 1 2.53 0.12
-6 -3 1 2.43 0.1
6 -3 -1 2.42 0.11
6 -3 -1 2.35 0.11
-6 -3 1 2.22 0.11
6 -3 -1 2.34 0.09
6 -3 -1 2.36 0.11
-6 3 1 2.22 0.1
6 3 -1 2.3 0.11
-6 3 1 2.21 0.11
-6 3 1 2.36 0.11
-6 3 1 2.34 0.1
6 3 -1 2.23 0.1
5 -3 -1 16.17 0.49
-5 -3 1 15.75 0.49
5 -3 -1 16.56 0.48
-5 -3 1 16.41 0.48
5 -3 -1 16.65 0.52
-5 -3 1 16.24 0.5
5 -3 -1 16.81 0.51
5 -3 -1 16.48 0.53
5 3 -1 16.12 0.49
-5 3 1 16.31 0.48
5 3 -1 16.89 0.51
-5 3 1 16.08 0.5
-5 3 1 16.33 0.48
-5 3 1 15.7 0.49
-4 -3 1 35.57 1.07
4 -3 -1 35.81 1.14
4 -3 -1 37.1 1.11
4 -3 -1 35.99 1.09
-4 3 1 36.37 1.16
-4 3 1 35.69 1.05
4 3 -1 36.27 1.12
4 3 -1 35.22 1.03
4 3 -1 34.38 1.11
-4 3 1 37.94 1.03
-4 3 1 38.19 1.04
-4 3 1 36.12 1.12
-3 -3 1 44.14 1.32
3 -3 -1 44.03 1.29
3 -3 -1 45.09 1.32
-3 -3 1 44.25 1.33
-3 3 1 48.24 1.41
3 3 -1 45.3 1.32
-3 3 1 47.34 1.28
3 3 -1 48.59 1.39
-3 3 1 46.17 1.33
-3 3 1 44.32 1.3
3 3 -1 46.81 1.4
-3 3 1 46.15 1.41
-3 3 1 43.41 1.32
3 3 -1 43.16 1.38
-3 3 1 45.16 1.35
-2 -3 1 928.22 29.92
-2 3 1 1000 28.33
-1 -3 1 25.23 0.81
1 -3 -1 26.04 0.82
1 -3 -1 25.2 0.8
1 -3 -1 25.75 0.83
1 -3 -1 25.63 0.8
-1 3 1 26.22 0.83
1 3 -1 27.51 0.84
0 -3 1 11.8 0.36
0 -3 -1 11.14 0.37
0 3 -1 11.59 0.37
0 3 1 11.17 0.37
2 -3 1 206.87 6.51
2 -3 1 212.38 6.4
-2 -3 -1 200.07 6.38
2 -3 1 205.69 6.23
-2 3 -1 206.69 6.53
2 3 1 209.3 6.09
2 3 1 207.09 6.18
-2 3 -1 198.97 5.95
-2 3 -1 200.26 6.33
-2 3 -1 199.02 6.38
-3 -3 -1 11.62 0.36
-3 -3 -1 12.43 0.37
3 -3 1 11.9 0.36
3 -3 1 11.86 0.38
3 -3 1 11.72 0.39
3 3 1 12.95 0.38
-3 3 -1 12.88 0.4
3 3 1 12.08 0.36
-3 3 -1 11.89 0.36
-3 3 -1 12.54 0.36
-3 3 -1 12.5 0.35
3 3 1 11.65 0.36
3 3 1 11.77 0.38
4 -3 1 16.58 0.52
-4 -3 -1 16.69 0.51
-4 -3 -1 16.28 0.52
-4 -3 -1 17.53 0.5
4 -3 1 17.02 0.55
4 -3 1 16.79 0.51
4 -3 1 17.17 0.54
-4 3 -1 17.19 0.49
4 3 1 17.64 0.53
-4 3 -1 17.38 0.56
4 3 1 17.27 0.51
-4 3 -1 16.79 0.57
4 3 1 17.54 0.54
-4 3 -1 17.37 0.5
-5 -3 -1 18.83 0.59
5 -3 1 19.16 0.61
5 -3 1 19.95 0.56
5 -3 1 19.53 0.58
5 -3 1 19.02 0.63
-5 -3 -1 19.99 0.58
5 -3 1 18.96 0.59
5 3 1 19.73 0.6
5 3 1 19.07 0.61
5 3 1 20.38 0.58
-5 3 -1 18.35 0.58
-5 3 -1 19.46 0.58
-5 3 -1 19.15 0.57
-5 3 -1 19.52 0.64
6 -3 1 4.69 0.16
6 -3 1 4.84 0.17
6 -3 1 4.65 0.19
6 -3 1 4.83 0.19
-6 -3 -1 4.63 0.18
-6 -3 -1 4.63 0.17
6 -3 1 4.62 0.17
-6 -3 -1 4.92 0.16
6 3 1 4.46 0.18
-6 3 -1 4.98 0.17
6 3 1 4.88 0.17
-6 3 -1 4.9 0.17
6 3 1 4.63 0.18
-7 -3 -1 -0.04 0.02
7 -3 1 0.03 0.04
-7 -3 -1 0.06 0.03
7 -3 1 0 0.03
7 -3 1 -0.03 0.03
-7 3 -1 -0.01 0.02
7 3 1 -0.02 0.03
-7 3 -1 -0.06 0.03
8 -3 1 4.42 0.17
8 -3 1 4.5 0.19
8 -3 1 4.46 0.18
-8 -3 -1 4.33 0.17
8 -3 1 4.78 0.21
-8 -3 -1 4.56 0.19
-8 3 -1 4.61 0.18
8 3 1 4.54 0.18
9 -3 1 0.57 0.07
-9 -3 -1 0.61 0.1
9 3 1 0.55 0.13
-9 3 -1 0.48 0.07
-9 3 -1 0.39 0.12
-9 -4 1 0.35 0.09
-9 -4 1 0.26 0.07
9 4 -1 0.47 0.07
-9 4 1 0.36 0.08
-9 4 1 0.34 0.07
8 -4 -1 1.2 0.08
-8 -4 1 1.11 0.08
-8 -4 1 1.11 0.11
8 -4 -1 1.18 0.11
8 4 -1 0.95 0.11
-8 4 1 1.17 0.09
8 4 -1 1.29 0.09
-7 -4 1 0.93 0.08
7 -4 -1 0.95 0.1
7 -4 -1 0.97 0.09
7 -4 -1 0.77 0.08
-7 -4 1 0.93 0.08
7 4 -1 0.76 0.09
7 4 -1 0.82 0.08
-7 4 1 0.82 0.09
6 -4 -1 2.98 0.11
6 -4 -1 3.07 0.13
6 -4 -1 3 0.12
-6 -4 1 2.96 0.12
6 -4 -1 2.94 0.13
-6 -4 1 3.13 0.11
-6 -4 1 2.81 0.13
-6 -4 1 2.78 0.13
6 4 -1 2.78 0.12
-6 4 1 2.86 0.12
-6 4 1 2.88 0.12
-6 4 1 2.95 0.12
6 4 -1 3.07 0.12
-6 4 1 3.02 0.12
-5 -4 1 21.53 0.64
5 -4 -1 21.4 0.63
5 -4 -1 22.05 0.68
5 -4 -1 20.84 0.66
-5 -4 1 20.2 0.65
5 -4 -1 21.47 0.69
5 -4 -1 22.61 0.64
-5 -4 1 21.57 0.63
-5 4 1 20.63 0.65
-5 4 1 21.72 0.62
-5 4 1 21.59 0.71
-5 4 1 20.72 0.64
5 4 -1 22.33 0.66
-5 4 1 22.36 0.63
5 4 -1 22.19 0.64
-4 -4 1 7.27 0.22
4 -4 -1 7.12 0.23
4 -4 -1 7.25 0.24
4 -4 -1 7.4 0.24
4 -4 -1 7.34 0.22
-4 -4 1 7.07 0.24
4 -4 -1 7.03 0.23
-4 -4 1 7.39 0.23
-4 4 1 7.35 0.22
-4 4 1 7.18 0.23
-4 4 1 7.06 0.25
4 4 -1 6.93 0.23
-4 4 1 7.22 0.23
-4 4 1 7.28 0.23
3 -4 -1 157.33 4.55
-3 -4 1 155.71 4.55
-3 -4 1 149.19 4.57
3 -4 -1 165.27 4.82
3 -4 -1 157.16 4.66
3 -4 -1 162.65 4.48
-3 4 1 155.62 5.03
-3 4 1 159.18 4.47
-3 4 1 155.42 4.6
-3 4 1 156.49 4.42
3 4 -1 159.58 4.55
3 4 -1 160.03 4.77
3 4 -1 153.8 4.55
2 -4 -1 166.06 5.06
-2 -4 1 160.2 4.59
2 4 -1 159.93 4.81
-2 4 1 155.29 4.55
2 4 -1 159.77 4.96
-2 4 1 169.66 5.2
2 4 -1 162.42 4.89
-2 4 1 159.74 4.78
-2 4 1 157.47 4.61
2 4 -1 167.66 5.06
0 -4 -1 31.97 1.04
0 -4 1 32.59 1.03
0 4 -1 33.63 1.05
0 4 1 32.76 1.06
2 -4 1 72.21 2.23
2 -4 1 68.43 2.07
2 -4 1 74.18 2.2
2 -4 1 75.72 2.26
-2 4 -1 72.35 2.01
2 4 1 69.72 2.16
2 4 1 71.85 2.07
-2 4 -1 69.18 2.04
2 4 1 74.16 2.13
-2 4 -1 70.25 2.09
-2 4 -1 70.09 2.22
-2 4 -1 73.87 2.32
3 -4 1 11.2 0.35
-3 -4 -1 10.69 0.33
3 -4 1 10.55 0.33
3 -4 1 11.17 0.36
3 -4 1 10.98 0.32
-3 -4 -1 10.94 0.34
3 4 1 11.38 0.33
-3 4 -1 11.38 0.35
-3 4 -1 11.29 0.33
-3 4 -1 11.35 0.33
3 4 1 11.35 0.34
-3 4 -1 11.33 0.37
4 -4 1 8.3 0.28
4 -4 1 8.48 0.29
4 -4 1 8.75 0.27
-4 -4 -1 8.65 0.26
4 -4 1 8.69 0.26
-4 -4 -1 8.57 0.27
-4 -4 -1 8.6 0.27
4 -4 1 8.22 0.27
-4 4 -1 8.82 0.26
4 4 1 8.1 0.28
-4 4 -1 8.58 0.29
4 4 1 8.8 0.27
4 4 1 8.98 0.27
-4 4 -1 8.05 0.3
-4 4 -1 8.83 0.27
4 4 1 9 0.28
-4 4 -1 8.49 0.26
5 -4 1 26.24 0.75
5 -4 1 26.52 0.73
5 -4 1 24.38 0.77
-5 -4 -1 26.74 0.75
5 -4 1 25.25 0.82
-5 -4 -1 24.64 0.76
-5 -4 -1 26 0.73
5 -4 1 24.79 0.79
-5 4 -1 25.16 0.75
5 4 1 24.7 0.8
-5 4 -1 24.84 0.76
5 4 1 24.94 0.78
5 4 1 26.09 0.75
-5 4 -1 25.3 0.74
5 4 1 25.5 0.75
-5 4 -1 25.32 0.83
-5 4 -1 25.12 0.73
6 -4 1 4.76 0.17
6 -4 1 4.77 0.18
-6 -4 -1 4.62 0.18
-6 -4 -1 4.68 0.17
-6 -4 -1 4.61 0.16
6 -4 1 4.72 0.18
6 -4 1 4.76 0.19
6 -4 1 4.71 0.16
-6 4 -1 4.35 0.19
6 4 1 4.92 0.17
6 4 1 4.66 0.19
-6 4 -1 4.96 0.17
6 4 1 4.84 0.18
7 -4 1 2.16 0.13
-7 -4 -1 2.31 0.11
7 -4 1 2.27 0.11
7 -4 1 2.06 0.1
7 -4 1 2.37 0.13
7 4 1 2.26 0.11
-7 4 -1 2.32 0.12
-8 -4 -1 0.41 0.1
8 -4 1 0.67 0.08
-8 -4 -1 0.47 0.07
8 -4 1 0.49 0.07
-8 4 -1 0.65 0.09
-8 4 -1 0.55 0.08
8 4 1 0.53 0.08
9 -4 1 1.91 0.1
-9 4 -1 1.93 0.1
9 4 1 1.7 0.13
9 -5 -1 3.32 0.13
-9 -5 1 3.34 0.14
-9 5 1 3.07 0.13
9 5 -1 3.3 0.14
8 -5 -1 0.08 0.05
-8 -5 1 -0.02 0.03
8 -5 -1 0.05 0.02
-8 -5 1 -0.03 0.03
8 -5 -1 0.02 0.03
8 5 -1 0.03 0.03
-8 5 1 0.01 0.02
-7 -5 1 11.42 0.36
7 -5 -1 11.26 0.34
7 -5 -1 11.41 0.36
7 -5 -1 10.73 0.38
7 5 -1 11.06 0.37
-7 5 1 11.18 0.36
6 -5 -1 2.77 0.13
-6 -5 1 2.67 0.12
6 -5 -1 2.81 0.12
6 -5 -1 2.8 0.12
-6 -5 1 2.65 0.11
-6 -5 1 2.68 0.13
6 -5 -1 2.68 0.11
-6 5 1 2.9 0.12
6 5 -1 2.71 0.12
-6 5 1 2.66 0.12
6 5 -1 2.8 0.12
-6 5 1 2.61 0.12
5 -5 -1 12.56 0.37
-5 -5 1 11.55 0.38
5 -5 -1 12.54 0.36
5 -5 -1 11.67 0.38
-5 -5 1 11.46 0.36
-5 -5 1 12.27 0.37
5 -5 -1 11.65 0.4
5 -5 -1 12.33 0.39
-5 5 1 12.01 0.37
5 5 -1 12.18 0.37
-5 5 1 12.14 0.37
5 5 -1 11.69 0.38
-5 5 1 11.96 0.41
5 5 -1 12.85 0.37
4 -5 -1 38.45 1.24
-4 -5 1 39.2 1.17
4 -5 -1 38.91 1.21
4 -5 -1 40.91 1.19
-4 -5 1 39.81 1.16
-4 -5 1 39.35 1.13
4 -5 -1 40.97 1.13
4 -5 -1 39.16 1.15
4 5 -1 40.88 1.15
-4 5 1 37.79 1.14
-4 5 1 38.78 1.28
4 5 -1 39.94 1.19
4 5 -1 39.11 1.22
-4 5 1 40.15 1.16
-4 5 1 40.66 1.18
3 -5 -1 184.43 5.34
-3 -5 1 188.1 5.36
3 -5 -1 197.98 5.91
3 -5 -1 179.19 5.58
3 -5 -1 184.02 5.43
-3 -5 1 192.98 5.46
3 -5 -1 193.63 5.75
3 5 -1 192.65 5.63
3 5 -1 198.64 5.79
3 5 -1 182.43 5.71
3 5 -1 189.54 5.45
-3 5 1 184.52 5.35
-3 5 1 188.84 6.05
-3 5 1 192.28 5.31
3 5 -1 182.95 5.44
-3 5 1 182.49 5.49
2 -5 -1 51.08 1.52
-2 -5 1 49.15 1.41
2 -5 -1 48.89 1.56
2 5 -1 48.72 1.5
-2 5 1 48.29 1.4
-2 5 1 53.06 1.42
2 5 -1 47.51 1.44
-2 5 1 50.35 1.47
-2 5 1 49.9 1.59
-2 5 1 50.36 1.45
2 5 -1 49.46 1.52
-1 -5 1 14.99 0.48
-1 5 1 15.32 0.49
0 -5 -1 12.31 0.38
0 -5 1 11.59 0.37
0 5 1 11.47 0.38
0 5 -1 11.37 0.38
1 -5 1 96.94 2.99
-1 -5 -1 97.81 3.05
1 -5 1 97.81 2.96
-1 5 -1 91.42 3.04
-1 5 -1 91.93 2.94
2 -5 1 170.21 5.01
-2 -5 -1 176.92 4.92
2 -5 1 178.48 5.37
2 -5 1 167.51 4.91
2 -5 1 174.66 5.43
-2 -5 -1 177.95 5.5
-2 5 -1 163.01 5.1
2 5 1 171.12 5.24
-2 5 -1 173.13 4.86
2 5 1 175.6 5.13
-2 5 -1 181.18 5.56
2 5 1 172.23 5
-2 5 -1 168 5.42
-2 5 -1 174.41 5.36
-2 5 -1 174.27 4.94
3 -5 1 19.7 0.57
-3 -5 -1 19.24 0.58
3 -5 1 20.69 0.63
-3 -5 -1 20.43 0.57
3 -5 1 19.8 0.58
-3 5 -1 19.08 0.64
3 5 1 20.87 0.61
-3 5 -1 20.43 0.57
3 5 1 19.05 0.58
-3 5 -1 20.2 0.57
-3 5 -1 18.91 0.65
-3 5 -1 18.79 0.62
4 -5 1 0.82 0.05
4 -5 1 0.63 0.06
-4 -5 -1 0.72 0.05
4 -5 1 0.71 0.06
4 -5 1 0.72 0.04
-4 -5 -1 0.73 0.07
-4 5 -1 0.61 0.05
-4 5 -1 0.79 0.07
-4 5 -1 0.69 0.05
-4 5 -1 0.77 0.05
4 5 1 0.69 0.05
4 5 1 0.81 0.05
-5 -5 -1 8.32 0.26
5 -5 1 8.46 0.26
-5 -5 -1 7.69 0.27
5 -5 1 7.61 0.26
-5 -5 -1 8.14 0.25
5 -5 1 7.98 0.28
5 -5 1 7.64 0.27
5 -5 1 8.29 0.25
5 5 1 8.23 0.28
5 5 1 7.95 0.26
-5 5 -1 8.28 0.29
5 5 1 8.26 0.26
-5 5 -1 7.93 0.25
-5 5 -1 7.7 0.25
-5 5 -1 8.42 0.25
-5 5 -1 8 0.26
5 5 1 8.14 0.27
6 -5 1 1.12 0.07
-6 -5 -1 1.04 0.09
-6 -5 -1 1.21 0.08
6 -5 1 1.2 0.09
6 -5 1 1.31 0.08
6 -5 1 1.1 0.1
-6 -5 -1 1.2 0.07
-6 5 -1 1.29 0.08
-6 5 -1 1.07 0.11
6 5 1 1.31 0.09
-6 5 -1 1.1 0.09
6 5 1 1.27 0.08
7 -5 1 0.84 0.07
-7 -5 -1 0.72 0.07
-7 -5 -1 0.73 0.09
7 -5 1 0.75 0.07
-7 -5 -1 0.84 0.07
7 -5 1 0.74 0.1
-7 5 -1 0.88 0.09
7 5 1 0.81 0.08
8 -5 1 0.26 0.07
-8 -5 -1 0.16 0.03
-8 -5 -1 0.32 0.1
8 -5 1 0.14 0.03
-8 -5 -1 0.16 0.04
-8 5 -1 0.23 0.07
8 5 1 0.29 0.07
-9 -5 -1 0.39 0.08
9 -5 1 0.36 0.08
9 5 1 0.48 0.09
-9 5 -1 0.29 0.07
9 -6 -1 1.08 0.09
-9 -6 1 1.16 0.12
9 6 -1 1.36 0.1
8 -6 -1 1.26 0.08
-8 -6 1 1.32 0.09
-8 -6 1 1.4 0.1
-8 -6 1 1.09 0.11
8 -6 -1 1.28 0.09
-8 6 1 1.33 0.09
-8 6 1 1.36 0.1
8 6 -1 1.31 0.1
7 -6 -1 1.44 0.12
-7 -6 1 1.27 0.08
-7 -6 1 1.38 0.12
7 -6 -1 1.3 0.08
7 -6 -1 1.44 0.09
-7 -6 1 1.26 0.09
7 6 -1 1.41 0.09
-7 6 1 1.52 0.09
6 -6 -1 1.53 0.1
6 -6 -1 1.48 0.1
-6 -6 1 1.56 0.08
-6 -6 1 1.59 0.1
6 -6 -1 1.43 0.08
-6 -6 1 1.35 0.11
-6 -6 1 1.31 0.08
6 -6 -1 1.33 0.08
6 6 -1 1.4 0.09
-6 6 1 1.54 0.08
-6 6 1 1.48 0.09
6 6 -1 1.47 0.09
6 6 -1 1.37 0.1
-6 6 1 1.43 0.09
5 -6 -1 3.82 0.13
-5 -6 1 3.64 0.14
5 -6 -1 3.73 0.14
-5 -6 1 3.46 0.15
5 -6 -1 3.79 0.14
5 -6 -1 3.79 0.14
5 -6 -1 3.59 0.15
-5 6 1 3.83 0.15
-5 6 1 3.87 0.13
-5 6 1 3.72 0.13
-5 6 1 3.77 0.13
5 6 -1 3.63 0.14
5 6 -1 3.54 0.14
5 6 -1 3.77 0.14
-4 -6 1 126.41 3.72
-4 -6 1 134 3.8
4 -6 -1 130.1 3.9
4 -6 -1 129.07 4.01
-4 -6 1 125.47 3.83
4 -6 -1 126.72 4.1
4 -6 -1 132.59 3.8
4 -6 -1 133.33 3.75
4 6 -1 129.33 3.79
-4 6 1 134.38 3.88
4 6 -1 127.42 3.96
4 6 -1 133.52 3.9
-4 6 1 138.48 3.7
4 6 -1 135.88 3.79
-4 6 1 133.25 4.21
4 6 -1 130.38 4.01
-4 6 1 133.57 3.84
-4 6 1 133.97 3.74
3 -6 -1 17.61 0.55
3 -6 -1 17.51 0.54
-3 -6 1 16.92 0.51
3 -6 -1 17.78 0.57
3 -6 -1 18.22 0.51
-3 -6 1 17 0.54
-3 -6 1 18.39 0.53
3 -6 -1 18.24 0.53
-3 6 1 17.9 0.53
3 6 -1 17.65 0.53
3 6 -1 18.05 0.55
-3 6 1 18.24 0.52
-3 6 1 18.5 0.59
-3 6 1 18.72 0.52
3 6 -1 16.74 0.53
2 -6 -1 44.91 1.38
-2 -6 1 46.16 1.29
-2 -6 1 47.14 1.31
2 -6 -1 46.79 1.42
-2 6 1 44.07 1.32
-2 6 1 43.02 1.28
2 6 -1 47.78 1.45
-2 6 1 46.08 1.35
-2 6 1 44.98 1.3
2 6 -1 44.73 1.31
2 6 -1 43.37 1.39
2 6 -1 46.14 1.38
2 6 -1 43.74 1.42
-2 6 1 46.85 1.34
-2 6 1 44.86 1.45
-1 -6 1 126.33 3.94
1 -6 -1 132.9 3.9
1 -6 -1 123.88 3.94
-1 6 1 121.23 3.93
-1 6 1 120.53 3.72
1 6 -1 127.23 3.85
-1 6 1 121.01 3.57
-1 6 1 130 3.54
1 6 -1 130.62 3.64
1 6 -1 125.42 3.82
1 6 -1 127.57 3.94
-1 6 1 124.36 4.08
0 -6 1 51.05 1.58
0 -6 -1 49.05 1.59
0 6 -1 52.45 1.61
0 6 -1 48.78 1.5
0 6 -1 49.77 1.41
0 6 1 49.46 1.58
0 6 -1 47.25 1.55
1 -6 1 79.81 2.38
1 -6 1 77.2 2.39
-1 -6 -1 75.26 2.42
-1 6 -1 79.57 2.17
-1 6 -1 77.39 2.37
-1 6 -1 75.14 2.14
1 6 1 73.35 2.3
1 6 1 75.03 2.2
1 6 1 73.47 2.25
2 -6 1 14.56 0.41
-2 -6 -1 13.36 0.41
2 -6 1 13.9 0.42
2 -6 1 15.08 0.44
-2 -6 -1 14.88 0.46
-2 -6 -1 13.61 0.42
-2 6 -1 14.68 0.42
-2 6 -1 14.72 0.47
2 6 1 13.65 0.42
-2 6 -1 14.77 0.45
-2 6 -1 13.98 0.43
2 6 1 13.35 0.44
-2 6 -1 13.82 0.42
2 6 1 13.52 0.45
2 6 1 15.01 0.44
3 -6 1 37.23 1.07
-3 -6 -1 37.92 1.07
3 -6 1 37.99 1.09
-3 6 -1 37.24 1.06
-3 6 -1 36.31 1.16
-3 6 -1 38.11 1.23
3 6 1 37.49 1.09
-3 6 -1 37.78 1.08
-3 6 -1 38.03 1.21
-4 -6 -1 26.01 0.81
4 -6 1 28.68 0.86
-4 -6 -1 26.99 0.8
4 -6 1 27.82 0.8
4 -6 1 27.59 0.78
-4 6 -1 27.98 0.79
4 6 1 26.46 0.82
-4 6 -1 27.8 0.89
-4 6 -1 26.3 0.8
4 6 1 25.67 0.79
-4 6 -1 26.94 0.78
-4 6 -1 26.93 0.9
-5 -6 -1 21.99 0.64
5 -6 1 21.31 0.63
-5 -6 -1 21.05 0.62
-5 -6 -1 21.27 0.65
5 -6 1 20.89 0.67
5 -6 1 21.6 0.62
5 -6 1 22.2 0.69
5 6 1 20.64 0.63
-5 6 -1 21.24 0.62
5 6 1 20.47 0.66
-5 6 -1 21.91 0.62
-5 6 -1 20.29 0.71
5 6 1 21.09 0.63
-5 6 -1 21.8 0.64
6 -6 1 7.11 0.23
6 -6 1 7.24 0.27
-6 -6 -1 6.96 0.26
6 -6 1 7.1 0.24
-6 -6 -1 7.31 0.24
6 -6 1 7.55 0.26
-6 -6 -1 7.36 0.23
-6 6 -1 6.82 0.28
-6 6 -1 7.18 0.24
6 6 1 7.19 0.25
-6 6 -1 7.56 0.24
-7 -6 -1 0.42 0.1
7 -6 1 0.58 0.06
7 -6 1 0.54 0.07
-7 -6 -1 0.6 0.07
-7 -6 -1 0.51 0.07
7 6 1 0.67 0.07
-7 6 -1 0.66 0.08
-7 6 -1 0.64 0.08
-8 -6 -1 0.89 0.12
-8 -6 -1 1 0.09
8 -6 1 1.07 0.08
8 -6 1 1.07 0.08
-8 -6 -1 0.98 0.12
-8 -6 -1 1.04 0.08
8 -6 1 1.14 0.17
-8 6 -1 0.95 0.1
-8 6 -1 0.94 0.08
8 6 1 1.07 0.09
-9 -6 -1 3.04 0.12
-9 -6 -1 2.54 0.18
9 6 1 2.59 0.14
-9 6 -1 3.05 0.12
-9 6 -1 2.66 0.15
-9 -7 1 0.14 0.04
9 -7 -1 0.21 0.04
-9 7 1 0.24 0.07
-9 7 1 0.2 0.04
8 -7 -1 3.56 0.14
8 -7 -1 3.76 0.15
-8 -7 1 3.64 0.15
-8 -7 1 3.42 0.18
-8 -7 1 3.59 0.15
-8 7 1 3.94 0.15
8 7 -1 3.62 0.16
-8 7 1 3.96 0.17
-7 -7 1 2.6 0.15
-7 -7 1 2.54 0.11
7 -7 -1 2.6 0.11
7 -7 -1 2.75 0.13
-7 -7 1 2.66 0.13
7 7 -1 2.9 0.13
-7 7 1 2.87 0.12
-7 7 1 2.94 0.13
-6 -7 1 0.68 0.07
-6 -7 1 0.69 0.1
6 -7 -1 0.66 0.09
-6 -7 1 0.62 0.06
6 -7 -1 0.61 0.11
6 -7 -1 0.62 0.07
6 -7 -1 0.54 0.06
6 -7 -1 0.61 0.09
-6 7 1 0.51 0.06
-6 7 1 0.71 0.07
6 7 -1 0.7 0.07
6 7 -1 0.66 0.08
-6 7 1 0.53 0.07
5 -7 -1 29.8 0.85
5 -7 -1 28.36 0.94
5 -7 -1 28.75 0.91
5 -7 -1 28.58 0.89
-5 -7 1 28.96 0.93
-5 -7 1 28.58 0.89
5 -7 -1 30.52 0.87
-5 7 1 29.74 0.86
5 7 -1 27.9 0.86
5 7 -1 29.79 0.87
-5 7 1 31.18 0.87
-5 7 1 29.03 0.96
-5 7 1 30.49 0.85
4 -7 -1 44.48 1.38
4 -7 -1 46.16 1.45
4 -7 -1 43.34 1.31
-4 -7 1 45.03 1.36
-4 -7 1 45.17 1.31
-4 -7 1 46.84 1.34
4 -7 -1 46.34 1.34
4 -7 -1 47.56 1.41
-4 7 1 46.2 1.35
-4 7 1 46.3 1.49
4 7 -1 47.48 1.38
4 7 -1 44.75 1.42
4 7 -1 44.84 1.4
-4 7 1 47.15 1.32
-4 7 1 47.21 1.37
4 7 -1 47.02 1.34
-4 7 1 47.15 1.31
3 -7 -1 117.37 3.33
-3 -7 1 115.46 3.38
-3 -7 1 117.2 3.34
3 -7 -1 119.9 3.67
3 -7 -1 117.82 3.57
-3 7 1 111.85 3.75
3 7 -1 119.8 3.38
-2 -7 1 14.66 0.46
-2 -7 1 15.27 0.45
2 -7 -1 15.15 0.49
2 7 -1 16.42 0.47
-2 7 1 15.11 0.46
-2 7 1 15.49 0.51
2 7 -1 15.84 0.48
-2 7 1 15.38 0.5
2 7 -1 16.21 0.5
-2 7 1 15.47 0.47
-2 7 1 15.34 0.47
2 7 -1 15.6 0.49
1 -7 -1 9.6 0.31
1 -7 -1 9.93 0.3
-1 -7 1 9.81 0.31
1 7 -1 9.64 0.31
-1 7 1 9.25 0.29
-1 7 1 9.77 0.28
1 7 -1 9.36 0.3
-1 7 1 9.47 0.29
-1 7 1 9.57 0.3
-1 7 1 9.41 0.3
1 7 -1 9.6 0.28
1 7 -1 9.76 0.31
-1 7 1 9.47 0.29
-1 7 1 9.82 0.32
0 7 1 6.53 0.22
0 7 1 6.6 0.21
0 7 1 6.67 0.2
0 7 -1 6.87 0.22
0 7 1 6.85 0.21
0 7 -1 6.9 0.2
0 7 1 6.5 0.21
0 7 1 6.69 0.21
0 7 -1 6.76 0.22
1 -7 1 63.81 1.91
1 -7 1 62.06 1.92
-1 -7 -1 61.59 1.94
-1 7 -1 61.76 1.95
-1 7 -1 56.95 1.98
1 7 1 63.45 1.81
1 7 1 58.68 1.84
1 7 1 61.29 1.76
-1 7 -1 61.51 1.77
1 7 1 61.89 1.81
1 7 1 60.36 1.8
-1 7 -1 60.43 1.71
-1 7 -1 58.61 1.9
-1 7 -1 61.96 1.74
-1 7 -1 60.69 1.84
-2 -7 -1 9.66 0.31
2 -7 1 10.09 0.3
-2 -7 -1 9.39 0.28
-2 -7 -1 9.26 0.29
2 -7 1 9.64 0.28
-2 7 -1 9.16 0.3
-2 7 -1 10.13 0.31
-2 7 -1 9.72 0.29
-2 7 -1 9.75 0.32
2 7 1 9.87 0.3
-2 7 -1 9.73 0.29
-2 7 -1 9.19 0.33
2 7 1 9.22 0.31
3 -7 1 19.08 0.57
-3 -7 -1 18.91 0.56
3 -7 1 19.51 0.56
3 -7 1 19.72 0.6
-3 7 -1 19.86 0.62
-3 7 -1 19.57 0.58
-3 7 -1 18.65 0.64
3 7 1 19.91 0.6
4 -7 1 1.65 0.07
4 -7 1 1.75 0.09
4 -7 1 1.76 0.08
-4 -7 -1 1.6 0.07
-4 -7 -1 1.62 0.11
4 -7 1 1.61 0.07
-4 7 -1 1.63 0.08
4 7 1 1.79 0.08
-4 7 -1 1.63 0.07
-4 7 -1 1.59 0.07
-5 -7 -1 0.38 0.09
5 -7 1 0.45 0.05
5 -7 1 0.33 0.06
-5 -7 -1 0.43 0.05
5 -7 1 0.37 0.05
5 -7 1 0.48 0.06
-5 7 -1 0.44 0.07
-5 7 -1 0.36 0.05
-5 7 -1 0.35 0.05
-5 7 -1 0.37 0.05
5 7 1 0.43 0.05
-6 -7 -1 3.66 0.14
6 -7 1 3.68 0.14
-6 -7 -1 3.73 0.14
6 -7 1 3.64 0.17
6 -7 1 3.73 0.13
-6 -7 -1 3.82 0.17
6 -7 1 3.93 0.16
-6 7 -1 3.97 0.15
-6 7 -1 3.72 0.16
6 7 1 3.82 0.15
-6 7 -1 3.78 0.14
-6 7 -1 3.62 0.19
6 7 1 3.67 0.15
7 -7 1 1.83 0.09
7 -7 1 1.86 0.1
-7 -7 -1 1.84 0.1
-7 -7 -1 2.01 0.14
7 -7 1 2 0.13
-7 -7 -1 1.89 0.1
-7 7 -1 2.09 0.1
7 7 1 1.98 0.11
-7 7 -1 1.8 0.11
8 -7 1 0.73 0.07
-8 -7 -1 0.62 0.07
-8 -7 -1 0.46 0.13
8 -7 1 0.82 0.07
-8 -7 -1 0.67 0.08
8 7 1 0.84 0.08
-8 7 -1 0.63 0.09
-8 7 -1 0.72 0.07
9 -7 1 0.57 0.07
-9 7 -1 0.62 0.07
9 -8 -1 0.5 0.06
9 -8 -1 0.47 0.09
9 8 -1 0.49 0.08
-9 8 1 0.34 0.09
-9 8 1 0.33 0.08
-8 -8 1 12.15 0.41
-8 -8 1 11.69 0.37
8 -8 -1 12.04 0.38
8 -8 -1 12.2 0.37
-8 -8 1 11.87 0.38
-8 8 1 12.2 0.38
8 8 -1 12.51 0.4
-7 -8 1 2.62 0.16
-7 -8 1 2.5 0.12
-7 -8 1 2.77 0.13
7 -8 -1 2.5 0.18
7 -8 -1 2.59 0.11
7 -8 -1 2.78 0.13
-7 8 1 2.81 0.13
-7 8 1 3 0.12
7 8 -1 2.75 0.13
-7 8 1 2.99 0.14
6 -8 -1 10.7 0.35
6 -8 -1 11.03 0.34
-6 -8 1 10.77 0.34
6 -8 -1 10.9 0.37
-6 -8 1 11.41 0.35
-6 8 1 10.87 0.35
-6 8 1 11.12 0.35
6 8 -1 11.07 0.36
-6 8 1 11.18 0.34
6 8 -1 10.75 0.35
5 -8 -1 18.14 0.52
5 -8 -1 17.5 0.56
5 -8 -1 17.73 0.53
-5 -8 1 16.58 0.55
5 -8 -1 16.89 0.58
-5 8 1 17.96 0.53
5 8 -1 16.46 0.53
-5 8 1 17.6 0.59
5 8 -1 17.9 0.55
-5 8 1 18.24 0.53
-5 8 1 18.29 0.52
-4 -8 1 8.67 0.29
-4 -8 1 8.31 0.29
4 -8 -1 8.54 0.29
4 -8 -1 8.31 0.26
-4 -8 1 8.82 0.27
4 -8 -1 8.56 0.27
4 -8 -1 8.42 0.28
-4 8 1 8.23 0.3
-4 8 1 8.2 0.28
4 8 -1 8.84 0.27
4 8 -1 8.84 0.28
4 8 -1 8.62 0.28
-4 8 1 8.73 0.26
-4 8 1 8.49 0.27
-4 8 1 8.39 0.26
3 -8 -1 9.08 0.28
3 -8 -1 8.63 0.29
3 -8 -1 8.4 0.26
3 -8 -1 8.67 0.27
3 8 -1 9.03 0.28
3 8 -1 9.21 0.28
-3 8 1 8.16 0.29
-3 8 1 8.67 0.3
-3 8 1 8.82 0.27
-3 8 1 8.73 0.27
-3 8 1 8.58 0.28
3 8 -1 9.08 0.27
-3 8 1 8.48 0.28
3 8 -1 8.35 0.29
-2 -8 1 30.46 0.93
-2 -8 1 31.25 1
2 -8 -1 31.15 0.98
2 -8 -1 32.9 1
-2 -8 1 31.69 0.91
-2 8 1 33.2 0.96
2 8 -1 32.62 0.96
-2 8 1 32.49 0.98
-2 8 1 30.3 0.93
-2 8 1 32.29 0.93
-2 8 1 33.01 1.04
2 8 -1 33.13 0.94
1 -8 -1 25.18 0.75
-1 -8 1 23.84 0.76
-1 8 1 23.83 0.73
-1 8 1 24.89 0.74
-1 8 1 24.43 0.77
-1 8 1 23.58 0.78
1 8 -1 23.91 0.7
-1 8 1 24 0.72
-1 8 1 25.12 0.7
1 8 -1 23.27 0.75
1 8 -1 25.29 0.78
-1 8 1 23.48 0.71
-1 8 1 23.95 0.69
0 -8 1 12.7 0.39
0 8 1 12.55 0.39
0 8 -1 11.94 0.36
0 8 1 12.21 0.37
0 8 1 12.08 0.37
0 8 1 11.31 0.35
0 8 -1 11.48 0.41
0 8 1 12.3 0.36
0 8 -1 12.42 0.4
0 8 -1 11.74 0.35
0 8 1 12.75 0.4
0 8 -1 12.09 0.36
0 8 1 12.23 0.38
0 8 1 12.06 0.36
1 -8 1 0.44 0.03
1 -8 1 0.42 0.04
1 8 1 0.34 0.03
-1 8 -1 0.44 0.04
1 8 1 0.38 0.04
1 8 1 0.32 0.04
1 8 1 0.45 0.03
1 8 1 0.33 0.03
-1 8 -1 0.38 0.03
-2 -8 -1 47.36 1.45
-2 -8 -1 49.89 1.42
2 -8 1 49.05 1.45
2 -8 1 52.44 1.53
2 -8 1 52.38 1.55
-2 -8 -1 48.76 1.59
2 -8 1 50.99 1.57
-2 8 -1 48.49 1.46
2 8 1 51.78 1.57
-2 8 -1 50.29 1.48
-2 8 -1 49.47 1.61
3 -8 1 3 0.11
3 -8 1 2.95 0.11
3 -8 1 2.78 0.1
3 8 1 2.69 0.11
3 8 1 3.02 0.11
-3 8 -1 2.63 0.1
3 8 1 2.69 0.11
-3 8 -1 2.87 0.1
4 -8 1 6.15 0.19
-4 -8 -1 5.82 0.2
4 -8 1 6.36 0.21
4 -8 1 6 0.22
-4 8 -1 5.83 0.19
4 8 1 6.05 0.2
-4 8 -1 6.39 0.22
-4 8 -1 5.92 0.23
-4 8 -1 6.09 0.2
4 8 1 6.05 0.21
4 8 1 6.23 0.21
-4 8 -1 6.32 0.2
-5 -8 -1 0.81 0.06
5 -8 1 0.81 0.06
5 -8 1 0.79 0.05
-5 -8 -1 0.78 0.06
5 -8 1 0.8 0.08
-5 8 -1 0.91 0.08
-5 8 -1 0.8 0.06
-5 8 -1 0.89 0.06
-5 8 -1 0.87 0.06
5 8 1 0.81 0.07
-6 -8 -1 2.62 0.16
6 -8 1 2.5 0.1
-6 -8 -1 2.46 0.11
6 -8 1 2.4 0.15
6 -8 1 2.52 0.11
-6 -8 -1 2.49 0.11
6 -8 1 2.68 0.14
-6 8 -1 2.5 0.12
-6 8 -1 2.57 0.12
6 8 1 2.44 0.12
6 8 1 2.45 0.12
-6 8 -1 2.7 0.11
-7 -8 -1 0.97 0.14
7 -8 1 1.13 0.07
7 -8 1 1.09 0.08
7 -8 1 1.4 0.14
-7 -8 -1 1.08 0.08
7 8 1 1.18 0.09
-7 8 -1 1.07 0.09
-7 8 -1 1.25 0.08
8 -8 1 0.33 0.07
-8 -8 -1 0.49 0.07
-8 -8 -1 0.49 0.08
8 -8 1 0.4 0.06
8 8 1 0.5 0.08
-8 8 -1 0.43 0.08
-8 8 -1 0.42 0.07
8 8 1 0.55 0.08
9 -8 1 0.99 0.07
-9 8 -1 0.84 0.09
9 8 1 0.85 0.09
9 -9 -1 0.19 0.06
9 -9 -1 0.16 0.03
-9 9 1 0.27 0.07
8 -9 -1 1.38 0.08
-8 -9 1 1.18 0.09
8 -9 -1 1.17 0.08
-8 -9 1 1.23 0.09
8 9 -1 1.27 0.09
-8 9 1 1.35 0.09
-7 -9 1 16.59 0.55
7 -9 -1 17.67 0.51
-7 -9 1 16.22 0.51
7 -9 -1 17.28 0.52
-7 -9 1 17.87 0.53
-7 9 1 16.06 0.57
-7 9 1 16.99 0.52
7 9 -1 17.46 0.55
-7 9 1 17.54 0.52
6 -9 -1 8.13 0.3
-6 -9 1 8.07 0.31
6 -9 -1 8.84 0.28
-6 9 1 8.63 0.28
-6 9 1 8.87 0.28
5 -9 -1 1.98 0.1
-5 -9 1 1.95 0.09
-5 -9 1 2.09 0.1
5 -9 -1 1.92 0.08
5 -9 -1 1.99 0.12
5 -9 -1 1.96 0.09
-5 9 1 2.08 0.09
-5 9 1 2.08 0.09
-5 9 1 2.16 0.09
5 9 -1 1.92 0.1
-5 9 1 1.97 0.11
-5 9 1 1.85 0.1
5 9 -1 2.07 0.1
-4 -9 1 3.66 0.14
4 -9 -1 3.7 0.12
-4 -9 1 3.76 0.13
-4 -9 1 3.77 0.13
4 -9 -1 3.62 0.13
4 -9 -1 3.76 0.15
4 9 -1 3.64 0.14
4 9 -1 3.84 0.14
-4 9 1 3.49 0.15
-4 9 1 3.68 0.15
-4 9 1 3.49 0.13
-4 9 1 3.84 0.13
-4 9 1 3.57 0.14
4 9 -1 3.96 0.14
-4 9 1 3.88 0.14
3 -9 -1 67.32 2
3 -9 -1 71.88 2.1
-3 -9 1 66.61 2.15
-3 -9 1 69.15 2
-3 -9 1 68.18 1.96
3 -9 -1 70.53 2.16
3 -9 -1 65.82 1.96
-3 9 1 66.93 1.97
3 9 -1 70.67 2.09
-3 9 1 71.75 2.16
-3 9 1 68.85 1.95
3 9 -1 69.88 2.06
-3 9 1 69.28 2.04
3 9 -1 71.5 2
-3 9 1 67.8 2.21
-2 -9 1 2.95 0.12
2 -9 -1 3.27 0.1
2 -9 -1 3.17 0.11
2 -9 -1 3.01 0.11
-2 -9 1 2.93 0.1
2 -9 -1 2.88 0.11
-2 -9 1 2.96 0.11
-2 9 1 2.92 0.12
2 9 -1 3.31 0.12
-2 9 1 3.26 0.11
2 9 -1 3.08 0.11
2 9 -1 3.24 0.12
-2 9 1 2.98 0.11
-2 9 1 3.09 0.11
-2 9 1 3.14 0.11
1 -9 -1 28.27 0.88
-1 9 1 27.87 0.82
-1 9 1 29.07 0.83
-1 9 1 27.59 0.84
1 9 -1 27.96 0.8
-1 9 1 27.21 0.9
-1 9 1 26.76 0.85
1 9 -1 28.74 0.87
0 -9 1 2.17 0.08
0 9 1 2.07 0.08
0 9 1 2.32 0.09
0 9 -1 2.2 0.08
0 9 1 2.07 0.08
0 9 -1 2.21 0.09
0 9 -1 2.11 0.09
0 9 1 2.16 0.08
0 9 -1 2.16 0.08
0 9 1 2.18 0.08
0 9 1 2.12 0.08
0 9 1 2.25 0.09
1 -9 1 7.86 0.24
1 -9 1 8.44 0.26
1 9 1 8.04 0.24
-1 9 -1 7.79 0.28
-1 9 -1 7.68 0.25
-1 9 -1 8.15 0.28
1 9 1 8.43 0.25
1 9 1 8.1 0.24
1 9 1 8.52 0.27
-1 9 -1 8.06 0.24
2 -9 1 8.08 0.27
2 -9 1 8.29 0.25
2 -9 1 7.97 0.27
-2 -9 -1 8.11 0.26
-2 -9 -1 8.07 0.25
2 -9 1 8.38 0.25
2 -9 1 8.67 0.28
-2 -9 -1 8.42 0.28
-2 9 -1 8.19 0.25
-2 9 -1 8.17 0.29
-2 9 -1 8.55 0.28
-2 9 -1 8.5 0.25
2 9 1 8.68 0.27
-2 9 -1 8.73 0.26
-2 9 -1 8.78 0.26
2 9 1 8.7 0.27
-2 9 -1 8.36 0.29
3 -9 1 1.26 0.07
3 -9 1 1.37 0.07
3 -9 1 1.37 0.06
-3 -9 -1 1.25 0.05
3 -9 1 1.37 0.06
-3 9 -1 1.23 0.07
-3 9 -1 1.29 0.07
3 9 1 1.31 0.07
-3 9 -1 1.34 0.08
-3 9 -1 1.27 0.09
-3 9 -1 1.35 0.06
-3 9 -1 1.37 0.06
3 9 1 1.19 0.07
3 9 1 1.27 0.07
4 -9 1 11.19 0.37
-4 -9 -1 10.77 0.35
4 -9 1 11.4 0.38
-4 -9 -1 11.2 0.33
4 -9 1 11.86 0.34
4 -9 1 10.98 0.33
-4 9 -1 11.23 0.34
-4 9 -1 11.13 0.37
-4 9 -1 11.34 0.34
-4 9 -1 11.44 0.34
-4 9 -1 11.3 0.39
4 9 1 11.27 0.37
4 9 1 10.98 0.36
4 9 1 11.15 0.35
5 -9 1 0.62 0.07
-5 -9 -1 0.57 0.05
-5 -9 -1 0.52 0.06
5 -9 1 0.61 0.06
5 9 1 0.77 0.07
-5 9 -1 0.61 0.08
-5 9 -1 0.75 0.06
-5 9 -1 0.59 0.06
-5 9 -1 0.71 0.06
-5 9 -1 0.54 0.06
6 -9 1 3.14 0.19
6 -9 1 3.26 0.16
-6 9 -1 3.28 0.2
-6 9 -1 3.54 0.14
6 9 1 3.13 0.14
-7 -9 -1 4.02 0.16
7 -9 1 4.11 0.21
7 -9 1 4.05 0.16
7 -9 1 4.1 0.15
-7 -9 -1 4 0.15
-7 9 -1 4.29 0.18
7 9 1 4.4 0.17
-7 9 -1 4.18 0.16
8 -9 1 0.08 0.03
-8 -9 -1 0.06 0.02
8 -9 1 0.05 0.02
-8 9 -1 0.06 0.03
-8 9 -1 0.04 0.03
8 9 1 0.05 0.03
-9 -9 -1 0.03 0.02
9 9 1 -0.05 0.03
-9 9 -1 -0.09 0.06
9 -10 -1 0.11 0.03
9 10 -1 0.09 0.03
8 -10 -1 0.07 0.02
-8 -10 1 0.07 0.03
8 -10 -1 0.01 0.03
-8 -10 1 0.05 0.03
-8 10 1 0.12 0.04
8 10 -1 0.07 0.03
7 -10 -1 15.74 0.45
-7 -10 1 14.89 0.47
7 -10 -1 15.16 0.47
-7 -10 1 15.77 0.46
-7 10 1 14.34 0.46
7 10 -1 14.71 0.49
-7 10 1 15.05 0.46
6 -10 -1 18.12 0.57
-6 -10 1 18.5 0.55
-6 -10 1 18.75 0.57
6 -10 -1 18.41 0.55
-6 10 1 18.5 0.56
-6 10 1 18.84 0.55
6 10 -1 18.97 0.59
-5 -10 1 6.54 0.2
5 -10 -1 6.11 0.23
5 -10 -1 6.2 0.21
5 -10 -1 6.17 0.2
-5 -10 1 5.76 0.23
-5 10 1 6.24 0.21
-5 10 1 6.01 0.24
5 10 -1 6.46 0.22
-5 10 1 6.25 0.23
-5 10 1 6.02 0.21
-5 10 1 6.51 0.2
5 10 -1 6.34 0.21
4 -10 -1 1.71 0.1
-4 -10 1 1.88 0.07
4 -10 -1 1.85 0.08
4 -10 -1 1.76 0.07
-4 -10 1 1.8 0.09
4 10 -1 1.77 0.09
-4 10 1 1.82 0.08
-4 10 1 1.68 0.07
-4 10 1 1.91 0.09
-4 10 1 1.7 0.08
4 10 -1 1.8 0.09
-4 10 1 1.61 0.09
4 10 -1 1.81 0.09
3 -10 -1 24.99 0.74
-3 -10 1 23.67 0.69
-3 -10 1 24.43 0.7
-3 -10 1 23.45 0.76
3 -10 -1 23.15 0.76
-3 10 1 23.47 0.74
3 10 -1 23.5 0.71
-3 10 1 24.44 0.7
-3 10 1 25.15 0.76
-3 10 1 24.69 0.69
-3 10 1 22.7 0.72
-3 10 1 22.6 0.78
3 10 -1 24.4 0.76
3 10 -1 23.94 0.73
3 10 -1 23.08 0.74
-2 -10 1 19.18 0.58
2 -10 -1 19.81 0.61
2 -10 -1 19.81 0.62
-2 -10 1 20.45 0.56
-2 -10 1 19.76 0.63
2 -10 -1 19.16 0.61
2 10 -1 19.91 0.59
2 10 -1 19.74 0.61
2 10 -1 19.05 0.63
-2 10 1 20 0.58
2 10 -1 19.71 0.57
-2 10 1 19.97 0.57
-2 10 1 18.89 0.61
-2 10 1 19.29 0.59
2 10 -1 19.85 0.63
-2 10 1 20.08 0.65
-2 10 1 19.05 0.58
-1 -10 1 9.68 0.3
1 -10 -1 9.69 0.32
-1 -10 1 10.11 0.33
-1 10 1 9.85 0.31
-1 10 1 10.2 0.34
1 10 -1 10.69 0.34
1 10 -1 10.26 0.31
-1 10 1 9.95 0.32
0 -10 1 38.13 1.15
0 -10 -1 36.93 1.15
0 10 -1 36.36 1.04
0 10 -1 37.35 1.19
0 10 -1 36.54 1.16
0 10 1 37.09 1.05
0 10 1 35.49 1.08
0 10 -1 37.29 1.1
0 10 1 35.55 1.12
0 10 1 37.03 1.1
0 10 1 37.96 1.19
1 -10 1 2.5 0.09
1 -10 1 2.41 0.1
-1 10 -1 2.67 0.09
-1 10 -1 2.58 0.1
-1 10 -1 2.66 0.1
1 10 1 2.58 0.1
-1 10 -1 2.74 0.1
1 10 1 2.34 0.09
-1 10 -1 2.53 0.1
1 10 1 2.71 0.1
-1 10 -1 2.5 0.11
1 10 1 2.52 0.1
1 10 1 2.59 0.1
2 -10 1 15.8 0.49
2 -10 1 16.67 0.52
-2 -10 -1 16.4 0.49
2 -10 1 16.76 0.48
-2 -10 -1 16.17 0.48
2 -10 1 17.4 0.54
-2 10 -1 16.71 0.55
-2 10 -1 16.93 0.48
2 10 1 17.29 0.5
-2 10 -1 16.22 0.56
-2 10 -1 17.38 0.52
-2 10 -1 16.51 0.49
-2 10 -1 16.81 0.49
-2 10 -1 15.92 0.53
2 10 1 16.7 0.51
2 10 1 16.34 0.52
3 -10 1 10.06 0.33
3 -10 1 9.73 0.29
-3 -10 -1 9.77 0.29
3 -10 1 9.65 0.3
-3 10 -1 9.62 0.3
-3 10 -1 9.56 0.29
-3 10 -1 9.44 0.29
-3 10 -1 10.11 0.33
-3 10 -1 9.6 0.34
3 10 1 9.62 0.32
3 10 1 9.53 0.31
3 10 1 9.72 0.31
-4 -10 -1 17.25 0.52
4 -10 1 16.86 0.56
4 -10 1 16.93 0.55
4 -10 1 17.36 0.5
-4 -10 -1 17.66 0.5
-4 10 -1 17.35 0.51
-4 10 -1 16.27 0.56
4 10 1 16.89 0.54
-4 10 -1 16.57 0.58
-4 10 -1 16.64 0.51
4 10 1 17.05 0.54
-4 10 -1 18.04 0.51
4 10 1 17.65 0.52
5 -10 1 3.2 0.12
-5 -10 -1 3.04 0.13
-5 -10 -1 3.21 0.12
5 -10 1 3.33 0.15
5 -10 1 3.31 0.13
5 -10 1 3.09 0.16
-5 10 -1 3.36 0.16
-5 10 -1 3.27 0.12
-5 10 -1 3.45 0.13
5 10 1 3.4 0.13
-5 10 -1 3.03 0.14
5 10 1 3.34 0.14
6 -10 1 0.06 0.02
6 -10 1 0.18 0.12
6 -10 1 0.09 0.04
6 -10 1 0.07 0.03
6 10 1 0.09 0.04
-6 10 -1 0.09 0.02
-6 10 -1 0.11 0.06
-6 10 -1 0.19 0.06
-6 10 -1 0.1 0.04
7 -10 1 0.57 0.07
-7 -10 -1 0.76 0.07
7 -10 1 0.59 0.06
7 -10 1 0.68 0.17
-7 -10 -1 0.48 0.07
-7 10 -1 0.54 0.1
7 10 1 0.53 0.09
7 10 1 0.7 0.08
-7 10 -1 0.62 0.08
-7 10 -1 0.73 0.08
-8 -10 -1 1.54 0.09
-8 -10 -1 1.64 0.09
8 -10 1 1.44 0.08
8 10 1 1.38 0.09
-8 10 -1 1.61 0.1
9 -11 -1 -0.01 0.03
-9 -11 1 0.05 0.02
9 11 -1 0.03 0.03
-9 11 1 0.01 0.04
-8 -11 1 2.14 0.1
8 -11 -1 2.2 0.09
-8 11 1 2.12 0.11
8 11 -1 1.97 0.11
-7 -11 1 1.05 0.08
-7 -11 1 0.84 0.07
7 -11 -1 0.95 0.07
7 11 -1 1.01 0.09
-7 11 1 0.74 0.08
-7 11 1 0.93 0.09
-7 11 1 0.9 0.1
6 -11 -1 27.65 0.81
-6 -11 1 26.49 0.79
6 -11 -1 28.14 0.79
-6 -11 1 28.26 0.82
-6 11 1 27.72 0.79
-6 11 1 26.84 0.88
-6 11 1 27.08 0.8
6 11 -1 26.29 0.81
-6 11 1 27.25 0.85
6 11 -1 26.32 0.84
-6 11 1 26.81 0.8
-5 -11 1 1.5 0.09
5 -11 -1 1.37 0.08
5 -11 -1 1.48 0.08
-5 -11 1 1.41 0.09
-5 -11 1 1.58 0.08
5 11 -1 1.54 0.09
-5 11 1 1.59 0.09
-5 11 1 1.41 0.08
-5 11 1 1.57 0.1
-5 11 1 1.64 0.1
-5 11 1 1.32 0.07
5 11 -1 1.55 0.1
-4 -11 1 10.72 0.32
4 -11 -1 10.87 0.33
-4 -11 1 10.24 0.35
4 -11 -1 9.81 0.36
4 -11 -1 10.69 0.31
4 -11 -1 10.18 0.35
4 11 -1 10.4 0.33
-4 11 1 10.16 0.36
-4 11 1 10.1 0.32
-4 11 1 10.74 0.34
-4 11 1 10.53 0.33
4 11 -1 11.03 0.34
-4 11 1 10.51 0.34
-4 11 1 10.28 0.37
4 11 -1 10.53 0.35
-3 -11 1 4.38 0.17
3 -11 -1 4.87 0.17
3 -11 -1 4.96 0.17
3 -11 -1 4.62 0.15
-3 -11 1 4.56 0.15
3 -11 -1 4.7 0.16
3 11 -1 4.54 0.16
-3 11 1 4.76 0.16
3 11 -1 4.58 0.17
-3 11 1 4.49 0.18
-3 11 1 4.42 0.16
-3 11 1 4.72 0.16
3 11 -1 4.57 0.17
-3 11 1 4.45 0.16
-3 11 1 4.75 0.17
-2 -11 1 5.98 0.21
-2 -11 1 5.8 0.19
2 -11 -1 5.96 0.2
2 -11 -1 5.92 0.2
-2 11 1 5.93 0.19
2 11 -1 6.01 0.19
-2 11 1 5.98 0.2
2 11 -1 5.63 0.2
-2 11 1 5.57 0.21
-2 11 1 5.84 0.2
-2 11 1 5.93 0.19
-2 11 1 6.04 0.22
2 11 -1 6.03 0.2
-2 11 1 6.21 0.2
-2 11 1 5.62 0.19
-1 -11 1 5.59 0.17
-1 -11 1 5.55 0.18
-1 -11 1 5.87 0.2
1 -11 -1 5.92 0.19
1 -11 -1 5.62 0.19
1 11 -1 5.72 0.2
1 11 -1 5.56 0.18
1 11 -1 6.04 0.2
1 11 -1 6.13 0.2
-1 11 1 5.64 0.19
-1 11 1 5.94 0.21
-1 11 1 5.51 0.18
1 11 -1 5.39 0.19
-1 11 1 5.58 0.19
-1 11 1 5.71 0.18
-1 11 1 6.06 0.2
0 -11 1 2.72 0.1
0 -11 1 3.01 0.11
0 -11 -1 2.91 0.11
0 11 -1 2.97 0.12
0 11 -1 2.94 0.11
0 11 1 2.85 0.1
0 11 1 3.08 0.11
0 11 1 2.8 0.11
0 11 -1 2.9 0.11
0 11 -1 3.13 0.11
0 11 -1 2.98 0.11
0 11 -1 2.97 0.11
0 11 1 2.91 0.11
0 11 1 3.1 0.12
1 -11 1 5.34 0.19
1 -11 1 5.51 0.18
1 -11 1 5.2 0.17
-1 11 -1 5.58 0.2
-1 11 -1 5.48 0.17
-1 11 -1 5.51 0.18
1 11 1 5.45 0.18
-1 11 -1 5.5 0.18
1 11 1 5.58 0.18
-1 11 -1 5.62 0.18
1 11 1 5.46 0.19
1 11 1 5.54 0.18
2 -11 1 9.09 0.3
2 -11 1 8.91 0.29
2 -11 1 8.66 0.29
2 -11 1 9.25 0.27
-2 -11 -1 8.68 0.26
-2 11 -1 8.81 0.3
2 11 1 9.33 0.28
2 11 1 8.97 0.3
-2 11 -1 9.27 0.29
-2 11 -1 8.78 0.31
2 11 1 9.33 0.29
-2 11 -1 8.64 0.28
2 11 1 8.5 0.28
-2 11 -1 8.85 0.27
-2 11 -1 8.55 0.28
2 11 1 8.83 0.29
-2 11 -1 8.55 0.27
3 -11 1 2.52 0.09
3 -11 1 2.5 0.11
3 -11 1 2.67 0.12
-3 -11 -1 2.57 0.09
3 -11 1 2.86 0.1
-3 11 -1 2.71 0.11
-3 11 -1 2.47 0.11
-3 11 -1 2.53 0.1
-3 11 -1 2.77 0.12
3 11 1 2.45 0.11
3 11 1 2.54 0.11
3 11 1 2.77 0.11
3 11 1 2.67 0.11
-3 11 -1 2.8 0.09
-3 11 -1 2.62 0.1
3 11 1 2.54 0.11
-4 -11 -1 11.25 0.35
4 -11 1 11.33 0.38
4 -11 1 11.7 0.35
-4 -11 -1 11.92 0.36
4 -11 1 11.58 0.36
4 -11 1 11.07 0.4
-4 11 -1 11.48 0.36
-4 11 -1 11.86 0.41
4 11 1 11.65 0.37
-4 11 -1 11.37 0.35
-4 11 -1 12.25 0.35
-4 11 -1 12.42 0.39
5 -11 1 1.13 0.13
5 -11 1 1.14 0.06
-5 -11 -1 0.97 0.08
5 -11 1 1.08 0.1
-5 11 -1 0.98 0.06
5 11 1 1.18 0.08
-5 11 -1 1.13 0.08
-5 11 -1 0.88 0.08
-5 11 -1 0.83 0.11
5 11 1 0.89 0.08
-5 11 -1 1.05 0.08
-6 -11 -1 3.23 0.13
6 -11 1 3.47 0.13
6 -11 1 3.48 0.14
-6 -11 -1 3.2 0.14
-6 11 -1 3.35 0.13
6 11 1 3.28 0.14
-6 11 -1 3.19 0.14
6 11 1 3.26 0.15
6 11 1 3.4 0.15
-7 -11 -1 0.62 0.07
-7 -11 -1 0.43 0.07
7 -11 1 0.52 0.06
7 -11 1 1 0.2
7 -11 1 0.64 0.07
7 11 1 0.66 0.08
-7 11 -1 0.66 0.08
-7 11 -1 0.52 0.08
-7 11 -1 0.52 0.09
-8 -11 -1 0.25 0.06
8 -11 1 0.32 0.06
8 11 1 0.41 0.07
-8 -12 1 2.95 0.12
8 -12 -1 2.83 0.12
-7 -12 1 1.69 0.09
7 -12 -1 1.69 0.09
-7 -12 1 1.89 0.1
7 -12 -1 1.58 0.09
-7 12 1 1.66 0.13
-7 12 1 1.63 0.1
-7 12 1 1.63 0.1
7 12 -1 1.77 0.11
6 -12 -1 20.03 0.62
-6 -12 1 20.21 0.6
6 -12 -1 20.1 0.6
-6 -12 1 21.54 0.62
6 12 -1 20.93 0.62
-6 12 1 20.19 0.6
6 12 -1 19.54 0.64
-6 12 1 20.74 0.65
-6 12 1 20.55 0.67
-6 12 1 19.95 0.61
5 -12 -1 40.07 1.15
5 -12 -1 41.02 1.18
-5 -12 1 41.6 1.18
-5 -12 1 37.83 1.27
-5 12 1 41.79 1.24
-5 12 1 37.21 1.17
5 12 -1 41.09 1.22
4 -12 -1 11.89 0.41
4 -12 -1 12.54 0.38
-4 -12 1 12.59 0.39
-4 -12 1 12.54 0.42
4 -12 -1 12.49 0.37
-4 -12 1 12.73 0.37
4 12 -1 12.59 0.4
-4 12 1 12.36 0.41
4 12 -1 12.74 0.41
-4 12 1 12.11 0.4
4 12 -1 12.84 0.39
-4 12 1 12.29 0.44
-4 12 1 11.95 0.38
-4 12 1 12.99 0.42
-4 12 1 12.08 0.38
3 -12 -1 0.71 0.07
3 -12 -1 0.56 0.06
3 -12 -1 0.63 0.05
-3 -12 1 0.7 0.06
3 -12 -1 0.75 0.07
-3 -12 1 0.7 0.06
3 12 -1 0.69 0.06
-3 12 1 0.61 0.06
3 12 -1 0.73 0.06
-3 12 1 0.71 0.06
3 12 -1 0.6 0.06
-3 12 1 0.71 0.06
-3 12 1 0.61 0.06
-3 12 1 0.62 0.05
-3 12 1 0.7 0.06
-3 12 1 0.72 0.07
2 -12 -1 4.78 0.18
-2 -12 1 5.04 0.16
-2 -12 1 4.98 0.17
2 -12 -1 4.93 0.18
-2 -12 1 5.03 0.18
2 12 -1 5.08 0.18
-2 12 1 5.06 0.17
-2 12 1 4.94 0.17
-2 12 1 4.97 0.17
2 12 -1 5.31 0.18
2 12 -1 4.97 0.18
-2 12 1 5.13 0.18
-2 12 1 4.83 0.19
2 12 -1 5 0.18
-2 12 1 5.03 0.17
-2 12 1 5.19 0.17
1 -12 -1 17.17 0.56
-1 -12 1 17.49 0.5
-1 -12 1 18.34 0.56
1 -12 -1 18.24 0.55
-1 -12 1 17.13 0.51
-1 12 1 17.7 0.52
1 12 -1 17.27 0.53
1 12 -1 17.38 0.56
-1 12 1 16.96 0.51
-1 12 1 16.75 0.58
-1 12 1 16.66 0.53
-1 12 1 17.83 0.51
1 12 -1 17.17 0.51
-1 12 1 17.92 0.54
1 12 -1 17.34 0.55
-1 12 1 17.74 0.53
1 12 -1 16.46 0.57
-1 12 1 16.58 0.56
1 12 -1 17.36 0.53
0 -12 -1 8.86 0.3
0 -12 1 9.45 0.3
0 12 -1 8.78 0.3
0 12 1 9.51 0.29
0 12 -1 8.89 0.28
0 12 1 9.35 0.29
0 12 -1 8.94 0.31
0 12 1 8.55 0.31
0 12 1 9.3 0.3
0 12 1 8.84 0.28
0 12 1 8.4 0.27
0 12 -1 8.74 0.27
0 12 -1 9.31 0.3
0 12 1 9.2 0.28
0 12 1 8.48 0.27
1 -12 1 8.17 0.28
-1 -12 -1 8.35 0.28
1 -12 1 7.86 0.27
1 12 1 8.06 0.27
-1 12 -1 8.37 0.26
1 12 1 8.48 0.25
1 12 1 8 0.27
-1 12 -1 8.36 0.29
1 12 1 8.42 0.27
-1 12 -1 8.43 0.26
1 12 1 8.31 0.28
-1 12 -1 8.32 0.25
-1 12 -1 7.98 0.28
1 12 1 8.3 0.26
-1 12 -1 8.1 0.27
2 -12 1 7.41 0.25
2 -12 1 7.59 0.26
2 -12 1 7.11 0.23
-2 12 -1 7.45 0.25
2 12 1 7.94 0.25
2 12 1 7.84 0.25
2 12 1 7.58 0.25
-2 12 -1 7.33 0.24
-2 12 -1 7.51 0.28
2 12 1 7.97 0.26
-2 12 -1 7.37 0.25
-2 12 -1 7.34 0.24
2 12 1 7.96 0.26
-2 12 -1 7.67 0.26
-2 12 -1 7.4 0.26
-3 -12 -1 23.24 0.67
3 -12 1 23.96 0.75
3 -12 1 23.11 0.67
3 -12 1 23.19 0.69
3 -12 1 23.6 0.73
-3 -12 -1 23.63 0.69
3 12 1 24.03 0.73
-3 12 -1 23.24 0.68
3 12 1 23.07 0.71
-3 12 -1 22.02 0.73
-3 12 -1 24.68 0.75
3 12 1 23.97 0.7
-3 12 -1 22.27 0.79
-3 12 -1 23.97 0.69
3 12 1 22.32 0.71
-3 12 -1 22.59 0.7
-4 -12 -1 1.87 0.08
4 -12 1 1.86 0.09
4 -12 1 1.91 0.11
4 -12 1 1.84 0.08
4 -12 1 1.76 0.12
-4 -12 -1 1.74 0.09
4 12 1 1.9 0.1
-4 12 -1 1.83 0.1
-4 12 -1 1.72 0.08
4 12 1 1.92 0.1
-4 12 -1 2.03 0.1
-4 12 -1 1.9 0.09
4 12 1 1.9 0.1
-4 12 -1 1.9 0.09
4 12 1 1.78 0.1
5 -12 1 5.2 0.24
-5 -12 -1 5.08 0.19
5 -12 1 5.32 0.21
-5 12 -1 4.76 0.17
5 12 1 4.85 0.19
-6 -12 -1 4.6 0.16
6 -12 1 4.75 0.17
6 -12 1 4.73 0.16
6 -12 1 4.48 0.22
-6 -12 -1 4.61 0.17
-6 12 -1 4.43 0.17
-6 12 -1 4.54 0.16
6 12 1 4.63 0.18
6 12 1 4.39 0.18
6 12 1 4.56 0.19
-6 12 -1 4.75 0.19
-6 12 -1 4.78 0.19
7 -12 1 0.08 0.02
-7 -12 -1 0.01 0.03
7 -12 1 0.06 0.03
-7 -12 -1 0.07 0.02
-7 12 -1 0.24 0.08
-7 12 -1 0.12 0.05
-7 12 -1 0.22 0.08
8 -12 1 0.83 0.07
8 -12 1 1 0.06
-8 -12 -1 0.85 0.07
-8 12 -1 0.83 0.08
8 12 1 0.9 0.07
-8 -13 1 1.35 0.08
8 -13 -1 1.14 0.07
-8 -13 1 1.25 0.09
8 13 -1 1.22 0.08
7 -13 -1 2.38 0.1
-7 -13 1 2.48 0.11
-7 -13 1 2.64 0.12
-7 13 1 2.65 0.13
-7 13 1 2.5 0.12
7 13 -1 2.44 0.12
-6 -13 1 0.67 0.07
6 -13 -1 0.53 0.08
-6 -13 1 0.71 0.08
6 -13 -1 0.62 0.06
-6 13 1 0.72 0.08
6 13 -1 0.68 0.09
-6 13 1 0.7 0.1
6 13 -1 0.64 0.09
6 13 -1 0.62 0.08
-5 -13 1 32.86 0.98
5 -13 -1 32.95 0.95
-5 -13 1 33.35 0.96
-5 13 1 33.94 0.96
5 13 -1 31.18 1.01
-5 13 1 31.88 1.03
5 13 -1 33.11 0.98
-5 13 1 33.88 0.97
-5 13 1 33.66 1.06
4 -13 -1 3.94 0.15
-4 -13 1 4.06 0.14
4 -13 -1 3.8 0.13
-4 -13 1 4.11 0.17
4 13 -1 3.89 0.16
-4 13 1 3.86 0.15
-4 13 1 3.64 0.16
4 13 -1 3.91 0.15
-4 13 1 4.01 0.16
-4 13 1 4.11 0.16
-4 13 1 3.95 0.18
4 13 -1 3.89 0.16
-4 13 1 3.82 0.15
3 -13 -1 7.2 0.22
-3 -13 1 7.06 0.22
3 -13 -1 6.89 0.25
-3 -13 1 7.2 0.24
-3 -13 1 7.52 0.26
-3 13 1 7.23 0.24
-3 13 1 7.33 0.24
3 13 -1 7.62 0.26
-3 13 1 7.51 0.25
3 13 -1 7.51 0.25
3 13 -1 7.29 0.26
-3 13 1 7.49 0.25
-3 13 1 7.23 0.27
3 13 -1 7.06 0.24
-3 13 1 6.89 0.26
3 13 -1 7.19 0.25
2 -13 -1 3.37 0.14
-2 -13 1 3.3 0.13
2 -13 -1 3.22 0.13
-2 -13 1 3.19 0.12
-2 13 1 3.35 0.13
-2 13 1 3.4 0.13
-2 13 1 3.4 0.12
-2 13 1 3.45 0.13
-2 13 1 3.26 0.13
2 13 -1 3.12 0.13
-2 13 1 3.13 0.12
2 13 -1 3.18 0.13
2 13 -1 3.45 0.13
-2 13 1 3.14 0.13
-2 13 1 3.36 0.14
2 13 -1 3.34 0.13
1 -13 -1 2.26 0.1
-1 -13 1 2.11 0.09
-1 -13 1 2.25 0.1
1 13 -1 2.22 0.1
-1 13 1 2.39 0.1
1 13 -1 2.21 0.1
-1 13 1 2.43 0.09
-1 13 1 2.23 0.1
-1 13 1 2.07 0.09
1 13 -1 2.28 0.1
-1 13 1 2.16 0.1
1 13 -1 2.25 0.1
1 13 -1 2.19 0.09
-1 13 1 2.12 0.11
-1 13 1 2.04 0.09
0 -13 -1 3.72 0.14
0 -13 1 3.96 0.14
0 -13 1 3.8 0.14
0 -13 -1 3.95 0.14
0 13 1 3.64 0.14
0 13 -1 3.59 0.13
0 13 1 3.75 0.13
0 13 -1 3.48 0.14
0 13 1 3.63 0.14
0 13 1 4 0.14
0 13 -1 3.7 0.13
0 13 1 3.71 0.13
0 13 -1 4.02 0.15
0 13 1 3.53 0.14
0 13 1 3.98 0.14
0 13 -1 3.67 0.14
0 13 -1 3.56 0.15
1 -13 1 27.9 0.86
1 -13 1 27.65 0.87
-1 -13 -1 27.34 0.86
-1 13 -1 26.62 0.81
1 13 1 26.13 0.78
1 13 1 26.69 0.82
1 13 1 27.35 0.79
-1 13 -1 25.83 0.78
-1 13 -1 27.66 0.87
-1 13 -1 26.5 0.84
1 13 1 28.74 0.83
1 13 1 27.67 0.81
-1 13 -1 26.75 0.9
-1 13 -1 27.95 0.79
1 13 1 26.84 0.87
1 13 1 27.65 0.84
2 -13 1 11.04 0.37
2 -13 1 10.59 0.32
2 -13 1 10.5 0.33
2 -13 1 10.54 0.35
-2 -13 -1 11.36 0.37
-2 -13 -1 10.43 0.32
-2 13 -1 11.19 0.36
-2 13 -1 10.64 0.34
2 13 1 10.61 0.36
-2 13 -1 10.73 0.36
2 13 1 11.18 0.34
-2 13 -1 10.71 0.33
-2 13 -1 10.94 0.38
2 13 1 11.28 0.35
2 13 1 11.18 0.36
2 13 1 10.45 0.34
-2 13 -1 10.8 0.33
-2 13 -1 11.05 0.34
3 -13 1 3.1 0.12
-3 -13 -1 2.87 0.11
-3 -13 -1 2.96 0.12
3 -13 1 3.07 0.13
3 -13 1 3.02 0.11
3 13 1 3.13 0.13
3 13 1 3.08 0.13
-3 13 -1 3 0.12
3 13 1 2.88 0.12
-3 13 -1 3.05 0.12
-3 13 -1 3.15 0.13
-3 13 -1 2.99 0.13
-3 13 -1 3.07 0.13
3 13 1 3.27 0.13
-3 13 -1 3.07 0.14
-4 -13 -1 10.46 0.38
-4 -13 -1 10.92 0.35
-4 -13 -1 11.25 0.33
4 -13 1 11.1 0.37
4 -13 1 10.79 0.33
4 -13 1 11 0.34
-4 13 -1 11.3 0.34
-4 13 -1 11.25 0.37
4 13 1 10.83 0.36
4 13 1 11.17 0.37
-4 13 -1 11.1 0.35
-4 13 -1 11.1 0.38
4 13 1 11 0.35
4 13 1 11.24 0.36
5 -13 1 1.19 0.12
-5 -13 -1 1.26 0.08
-5 -13 -1 1.11 0.08
5 -13 1 1.29 0.07
5 -13 1 1.09 0.08
-5 13 -1 1.12 0.08
-5 13 -1 1.06 0.1
-5 13 -1 1.18 0.09
5 13 1 1.23 0.09
5 13 1 1.14 0.09
-6 -13 -1 0.99 0.09
-6 -13 -1 1.14 0.07
6 -13 1 1.14 0.08
6 -13 1 1.03 0.19
6 -13 1 1.21 0.07
-6 13 -1 1.12 0.09
6 13 1 1.13 0.09
6 13 1 1.14 0.09
-6 13 -1 1.29 0.09
-6 13 -1 1.12 0.1
7 -13 1 0.16 0.03
7 -13 1 0.27 0.05
-7 13 -1 0.21 0.04
7 13 1 0.12 0.03
8 -13 1 0.03 0.03
8 -13 1 0.04 0.02
-8 13 -1 0.05 0.04
8 13 1 0.03 0.02
-8 -14 1 0.28 0.06
-8 -14 1 0.38 0.08
8 -14 -1 0.23 0.05
8 14 -1 0.19 0.06
7 -14 -1 0.15 0.05
-7 -14 1 0.22 0.06
-7 14 1 0.16 0.06
-7 14 1 0.07 0.04
-7 14 1 0.15 0.04
6 -14 -1 3.3 0.14
-6 -14 1 3.57 0.15
6 -14 -1 3.53 0.13
-6 -14 1 3.68 0.14
-6 14 1 3.73 0.15
6 14 -1 3.34 0.15
-6 14 1 3.72 0.16
6 14 -1 3.33 0.15
-6 14 1 3.48 0.16
-6 14 1 3.87 0.15
-5 -14 1 3.86 0.15
5 -14 -1 3.72 0.13
-5 -14 1 3.76 0.14
5 -14 -1 3.55 0.15
-5 14 1 3.39 0.16
-5 14 1 3.86 0.15
5 14 -1 3.5 0.16
5 14 -1 3.76 0.16
-5 14 1 3.74 0.15
-4 -14 1 27.05 0.92
4 -14 -1 29.08 0.83
4 -14 -1 28.18 0.84
-4 -14 1 29.3 0.83
-4 14 1 29.67 0.87
-4 14 1 29.37 0.89
4 14 -1 28.44 0.88
-4 14 1 27.56 0.96
3 -14 -1 0.57 0.05
-3 -14 1 0.44 0.05
-3 -14 1 0.51 0.07
3 14 -1 0.36 0.06
3 14 -1 0.47 0.06
3 14 -1 0.38 0.06
3 14 -1 0.62 0.07
-3 14 1 0.51 0.06
-3 14 1 0.53 0.06
-3 14 1 0.5 0.06
-3 14 1 0.51 0.07
-3 14 1 0.45 0.07
-3 14 1 0.47 0.08
-2 -14 1 3.8 0.14
2 -14 -1 3.62 0.16
2 -14 -1 3.54 0.15
-2 -14 1 3.82 0.15
-2 -14 1 3.72 0.12
-2 14 1 4.02 0.14
2 14 -1 3.82 0.15
-2 14 1 3.91 0.16
-2 14 1 3.65 0.15
-2 14 1 3.86 0.15
-2 14 1 3.92 0.14
2 14 -1 3.72 0.15
2 14 -1 3.81 0.15
-2 14 1 3.81 0.14
-2 14 1 3.72 0.15
-2 14 1 3.81 0.15
1 -14 -1 2.48 0.11
-1 -14 1 2.55 0.11
1 14 -1 2.44 0.12
1 14 -1 2.42 0.11
-1 14 1 2.52 0.1
-1 14 1 2.59 0.1
1 14 -1 2.42 0.11
-1 14 1 2.36 0.1
1 14 -1 2.56 0.11
-1 14 1 2.45 0.11
-1 14 1 2.35 0.11
1 14 -1 2.3 0.1
-1 14 1 2.32 0.12
-1 14 1 2.49 0.11
1 14 -1 2.41 0.11
-1 14 1 2.63 0.11
0 -14 -1 4.62 0.18
0 -14 -1 4.85 0.18
0 -14 1 4.85 0.18
0 -14 1 4.9 0.18
0 14 -1 4.71 0.18
0 14 1 4.92 0.17
0 14 -1 4.83 0.16
0 14 -1 4.83 0.18
0 14 -1 4.64 0.16
0 14 -1 4.98 0.18
0 14 -1 4.86 0.19
0 14 1 4.85 0.17
0 14 1 5.11 0.17
0 14 1 5.16 0.18
0 14 1 5.04 0.18
0 14 1 4.81 0.17
0 14 -1 4.83 0.17
0 14 1 4.64 0.16
-1 -14 -1 6.27 0.22
1 -14 1 6.21 0.22
1 -14 1 6.04 0.21
1 -14 1 5.88 0.19
-1 14 -1 6.34 0.21
1 14 1 6.03 0.2
-1 14 -1 6.2 0.2
1 14 1 5.9 0.21
1 14 1 6.33 0.22
1 14 1 6.23 0.2
-1 14 -1 6 0.2
1 14 1 5.62 0.21
-1 14 -1 6.02 0.23
-1 14 -1 6.14 0.22
-1 14 -1 5.94 0.22
1 14 1 5.84 0.21
-2 -14 -1 3.87 0.13
2 -14 1 4.09 0.18
2 -14 1 4.13 0.16
2 -14 1 4.01 0.13
2 14 1 3.86 0.16
2 14 1 3.8 0.15
-2 14 -1 3.96 0.17
-2 14 -1 4.14 0.16
2 14 1 4.19 0.16
-2 14 -1 4.37 0.15
-2 14 -1 4.11 0.16
-2 14 -1 4.25 0.16
2 14 1 4.15 0.16
-2 14 -1 4.32 0.16
-2 14 -1 4.06 0.15
2 14 1 4.12 0.16
-3 -14 -1 6.46 0.22
3 -14 1 6.56 0.21
-3 -14 -1 7.04 0.24
-3 -14 -1 6.36 0.2
3 -14 1 6.77 0.2
3 -14 1 6.15 0.25
3 -14 1 6.44 0.24
-3 14 -1 6.57 0.22
-3 14 -1 6.85 0.24
-3 14 -1 6.37 0.23
3 14 1 6.38 0.23
3 14 1 6.82 0.23
3 14 1 6.42 0.23
-3 14 -1 6.75 0.24
-3 14 -1 6.6 0.26
3 14 1 6.36 0.23
-3 14 -1 6.7 0.22
4 -14 1 0.2 0.1
4 -14 1 0.12 0.02
4 -14 1 0.13 0.04
-4 -14 -1 0.08 0.03
-5 -14 -1 0.49 0.06
5 -14 1 0.64 0.06
5 -14 1 0.64 0.14
5 -14 1 0.55 0.07
5 14 1 0.61 0.08
5 14 1 0.58 0.08
-5 14 -1 0.56 0.07
-5 14 -1 0.62 0.07
-5 14 -1 0.59 0.09
-5 14 -1 0.41 0.08
-6 -14 -1 0.22 0.06
-6 -14 -1 0.16 0.03
6 -14 1 0.2 0.05
6 14 1 0.33 0.08
-6 14 -1 0.22 0.07
6 14 1 0.18 0.03
-6 14 -1 0.22 0.07
-7 -14 -1 0.03 0.02
-7 -14 -1 0.02 0.03
7 -14 1 0.01 0.02
7 14 1 0.02 0.03
-7 14 -1 0.04 0.03
8 -14 1 0.26 0.05
8 -14 1 0.33 0.08
-7 -15 1 1.32 0.09
-7 15 1 1.37 0.09
6 -15 -1 0.05 0.03
-6 -15 1 0.12 0.03
-6 -15 1 0.06 0.02
6 15 -1 0.06 0.03
-6 15 1 0.07 0.03
6 15 -1 0.07 0.04
-6 15 1 0.06 0.03
-5 -15 1 0.74 0.08
5 -15 -1 0.59 0.09
5 -15 -1 0.71 0.06
-5 15 1 0.86 0.08
-5 15 1 0.85 0.08
-5 15 1 0.79 0.1
5 15 -1 0.78 0.09
-4 -15 1 18.65 0.54
4 -15 -1 18.18 0.54
4 15 -1 18.3 0.58
-4 15 1 18.82 0.61
-4 15 1 18.32 0.59
4 15 -1 18.81 0.57
-4 15 1 17.25 0.55
4 15 -1 18.5 0.59
3 -15 -1 6.61 0.22
-3 -15 1 6.86 0.22
-3 -15 1 7.24 0.24
-3 -15 1 7.02 0.26
3 15 -1 7.1 0.25
3 15 -1 6.88 0.25
3 15 -1 7.18 0.25
-3 15 1 6.96 0.23
-3 15 1 7.46 0.24
-3 15 1 6.69 0.28
-3 15 1 7.01 0.25
-3 15 1 7.1 0.26
-3 15 1 7.06 0.24
-2 -15 1 6.79 0.22
-2 -15 1 6.77 0.24
-2 -15 1 7.21 0.26
2 -15 -1 6.8 0.25
-2 15 1 7.5 0.28
2 15 -1 7.03 0.25
2 15 -1 7.5 0.25
-2 15 1 7.07 0.25
2 15 -1 6.81 0.24
-2 15 1 7.46 0.24
2 15 -1 7.51 0.25
-2 15 1 6.94 0.24
-2 15 1 7.04 0.24
-2 15 1 7.37 0.25
-2 15 1 7.27 0.23
-2 15 1 7.1 0.26
-1 -15 1 3.78 0.13
-1 -15 1 3.96 0.16
1 -15 -1 3.64 0.15
-1 15 1 3.67 0.14
1 15 -1 3.79 0.16
1 15 -1 3.91 0.15
-1 15 1 3.96 0.15
-1 15 1 3.91 0.15
-1 15 1 3.79 0.15
1 15 -1 3.9 0.15
-1 15 1 3.92 0.15
-1 15 1 3.97 0.14
1 15 -1 3.9 0.14
-1 15 1 3.97 0.15
1 15 -1 3.77 0.15
0 -15 1 3.82 0.16
0 -15 1 3.97 0.16
0 -15 -1 4.09 0.16
0 -15 -1 3.66 0.16
0 15 1 3.94 0.15
0 15 1 3.79 0.15
0 15 -1 3.8 0.15
0 15 1 4 0.15
0 15 -1 3.96 0.16
0 15 1 3.94 0.15
0 15 1 4 0.14
0 15 -1 3.82 0.14
0 15 -1 4.13 0.16
0 15 1 3.98 0.15
0 15 -1 3.7 0.17
0 15 -1 4.06 0.14
0 15 1 3.74 0.14
1 -15 1 4.44 0.15
1 -15 1 4.81 0.18
-1 15 -1 4.51 0.17
1 15 1 4.44 0.17
1 15 1 4.37 0.17
-1 15 -1 4.38 0.16
1 15 1 4.5 0.16
-1 15 -1 4.5 0.16
1 15 1 4.57 0.17
-1 15 -1 4.41 0.17
1 15 1 4.36 0.17
-1 15 -1 4.6 0.17
-1 15 -1 4.48 0.19
1 15 1 4.45 0.17
-2 -15 -1 4.45 0.18
2 -15 1 4.39 0.17
-2 15 -1 4.24 0.16
2 15 1 4.53 0.17
-2 15 -1 4.45 0.19
2 15 1 4.34 0.17
2 15 1 4.56 0.17
2 15 1 4.36 0.17
-2 15 -1 4.55 0.17
-2 15 -1 4.53 0.18
-2 15 -1 4.54 0.17
2 15 1 4.45 0.17
-2 15 -1 4.59 0.16
-3 -15 -1 11.7 0.41
3 -15 1 11.35 0.4
3 -15 1 11.53 0.36
-3 -15 -1 11.69 0.36
3 -15 1 11.76 0.35
-3 15 -1 12.38 0.4
-3 15 -1 11.81 0.37
-3 15 -1 12.07 0.37
-3 15 -1 11.68 0.43
-3 15 -1 11.38 0.38
-3 15 -1 12.28 0.41
3 15 1 11.93 0.38
3 15 1 12.41 0.4
3 15 1 12.11 0.39
-4 -15 -1 0.97 0.09
4 -15 1 1.05 0.12
4 -15 1 0.91 0.08
4 -15 1 1.15 0.07
-4 15 -1 1.15 0.09
4 15 1 0.98 0.09
-4 15 -1 1.09 0.1
4 15 1 1.16 0.09
4 15 1 1.04 0.1
-4 15 -1 1.02 0.08
5 -15 1 2.04 0.09
5 -15 1 2.01 0.1
-5 -15 -1 1.92 0.09
5 -15 1 1.84 0.2
-5 -15 -1 1.77 0.11
5 15 1 2.12 0.11
-5 15 -1 1.94 0.1
-5 15 -1 1.97 0.11
-5 15 -1 1.91 0.11
-5 15 -1 2.02 0.12
5 15 1 1.78 0.11
-6 -15 -1 0.02 0.03
6 -15 1 0.07 0.03
6 -15 1 0.01 0.02
-6 -15 -1 0 0.02
6 15 1 0 0.03
-6 15 -1 0.09 0.04
6 15 1 0 0.03
-6 15 -1 -0.03 0.03
-6 15 -1 -0.03 0.02
7 -15 1 0.05 0.03
-7 -15 -1 0.02 0.03
-7 15 -1 -0.03 0.05
-7 15 -1 0.01 0.04
-7 -16 1 1.12 0.07
7 -16 -1 1.09 0.06
-7 -16 1 0.96 0.08
7 16 -1 1.05 0.08
-7 16 1 1.11 0.08
6 -16 -1 0.58 0.06
-6 -16 1 0.54 0.08
-6 -16 1 0.56 0.06
-6 16 1 0.55 0.07
-6 16 1 0.58 0.07
-6 16 1 0.54 0.07
5 -16 -1 2.35 0.1
-5 -16 1 2.4 0.12
5 16 -1 2.4 0.12
-5 16 1 2.41 0.11
-5 16 1 2.49 0.13
-5 16 1 2.45 0.14
-5 16 1 2.42 0.12
4 -16 -1 0.69 0.06
-4 -16 1 0.73 0.06
-4 -16 1 0.73 0.09
4 16 -1 0.78 0.08
-4 16 1 0.71 0.09
-4 16 1 0.72 0.08
4 16 -1 0.6 0.09
-4 16 1 0.8 0.08
-4 16 1 0.87 0.08
4 16 -1 0.81 0.09
3 -16 -1 19.65 0.58
-3 -16 1 19.14 0.66
-3 16 1 20.29 0.6
3 16 -1 20.59 0.62
-3 16 1 19.74 0.59
3 16 -1 20.67 0.64
-3 16 1 19.69 0.66
-2 -16 1 2.34 0.09
-2 -16 1 2.35 0.13
-2 16 1 2.67 0.12
-2 16 1 2.61 0.12
-2 16 1 2.55 0.12
-2 16 1 2.49 0.13
2 16 -1 2.62 0.13
2 16 -1 2.42 0.12
-2 16 1 2.43 0.13
-2 16 1 2.55 0.12
2 16 -1 2.55 0.12
2 16 -1 2.64 0.12
-1 -16 1 5 0.17
1 -16 -1 5.15 0.2
-1 -16 1 5.29 0.21
-1 -16 1 5.51 0.21
-1 16 1 5.25 0.18
1 16 -1 5.28 0.18
-1 16 1 5.03 0.19
1 16 -1 4.94 0.19
-1 16 1 5.16 0.2
1 16 -1 5.39 0.2
-1 16 1 5.19 0.19
-1 16 1 5.33 0.19
1 16 -1 5.34 0.2
1 16 -1 5.31 0.2
-1 16 1 5.22 0.2
-1 16 1 5.42 0.18
0 -16 1 6.72 0.2
0 -16 1 6.27 0.24
0 -16 1 6.84 0.24
0 16 1 6.44 0.23
0 16 1 6.21 0.22
0 16 1 6.25 0.21
0 16 1 6.27 0.22
0 16 -1 6.31 0.21
0 16 -1 6.5 0.21
0 16 1 6.24 0.23
0 16 -1 6.44 0.23
0 16 -1 6.1 0.23
0 16 1 6.35 0.21
0 16 -1 6.52 0.23
0 16 -1 6.27 0.26
0 16 1 6.38 0.22
1 -16 1 1.82 0.1
-1 -16 -1 1.43 0.12
1 -16 1 1.64 0.08
1 -16 1 1.61 0.12
-1 -16 -1 1.58 0.12
-1 16 -1 1.56 0.09
1 16 1 1.69 0.09
1 16 1 1.62 0.09
1 16 1 1.52 0.09
1 16 1 1.65 0.11
-1 16 -1 1.51 0.13
-1 16 -1 1.69 0.1
-1 16 -1 1.77 0.09
-1 16 -1 1.7 0.09
1 16 1 1.77 0.1
-1 16 -1 1.63 0.1
1 16 1 1.6 0.1
-2 -16 -1 8.75 0.28
-2 -16 -1 9.01 0.34
2 -16 1 9.24 0.28
2 -16 1 9.28 0.32
2 16 1 9.63 0.31
-2 16 -1 9.29 0.36
2 16 1 9.73 0.32
2 16 1 9.7 0.32
-2 16 -1 9.53 0.33
-2 16 -1 9.82 0.32
-2 16 -1 9.43 0.3
-2 16 -1 9.02 0.29
-2 16 -1 9.35 0.31
2 16 1 8.81 0.31
3 -16 1 1.5 0.12
-3 -16 -1 1.66 0.13
-3 16 -1 1.37 0.1
3 16 1 1.32 0.1
3 16 1 1.61 0.11
-3 16 -1 1.39 0.1
3 16 1 1.45 0.1
-3 16 -1 1.53 0.1
-4 -16 -1 1.38 0.11
4 -16 1 1.43 0.08
4 -16 1 1.63 0.1
4 16 1 1.73 0.1
-4 16 -1 1.62 0.09
-4 16 -1 1.72 0.1
-4 16 -1 1.58 0.11
4 16 1 1.66 0.11
-5 -16 -1 0.56 0.09
5 -16 1 0.9 0.09
5 -16 1 0.7 0.06
-5 -16 -1 0.65 0.07
-5 16 -1 0.85 0.08
5 16 1 0.66 0.08
5 16 1 0.85 0.08
-5 16 -1 0.85 0.08
-5 16 -1 0.81 0.09
-6 -16 -1 0.52 0.09
6 -16 1 0.54 0.05
-6 -16 -1 0.58 0.06
6 16 1 0.7 0.08
6 16 1 0.52 0.08
-6 16 -1 0.66 0.07
-6 16 -1 0.56 0.09
-6 16 -1 0.55 0.08
-7 -16 -1 -0.02 0.03
7 -16 1 0.05 0.04
7 -16 1 0.03 0.02
-7 16 -1 0.09 0.06
7 16 1 0.05 0.02
-7 16 -1 0.02 0.04
-7 16 -1 0.02 0.04
-7 17 1 0.37 0.08
7 17 -1 0.49 0.08
-7 17 1 0.42 0.06
-6 -17 1 0.54 0.06
-6 -17 1 0.57 0.09
-6 17 1 0.43 0.06
-6 17 1 0.47 0.07
-5 -17 1 0.07 0.04
5 17 -1 0.1 0.03
-5 17 1 0.1 0.03
-5 17 1 0.09 0.03
-5 17 1 0.17 0.04
-5 17 1 0.1 0.03
-4 -17 1 2.5 0.11
-4 -17 1 2.62 0.13
4 -17 -1 2.6 0.11
-4 17 1 2.92 0.14
4 17 -1 2.63 0.13
-4 17 1 2.42 0.13
4 17 -1 2.46 0.13
4 17 -1 2.62 0.13
-4 17 1 2.86 0.13
-3 -17 1 1.57 0.08
3 -17 -1 1.37 0.08
-3 17 1 1.45 0.11
-3 17 1 1.73 0.1
-3 17 1 1.48 0.11
3 17 -1 1.43 0.11
-3 17 1 1.62 0.1
-3 17 1 1.5 0.1
3 17 -1 1.58 0.1
3 17 -1 1.48 0.1
-2 -17 1 7.86 0.31
-2 17 1 8.34 0.29
-2 17 1 8.09 0.27
2 17 -1 8.15 0.28
2 17 -1 8.57 0.29
-2 17 1 7.84 0.29
-2 17 1 8.28 0.27
2 17 -1 8.11 0.29
-1 -17 1 0.36 0.05
1 17 -1 0.41 0.07
-1 17 1 0.31 0.08
-1 17 1 0.23 0.04
0 -17 1 5.32 0.17
0 -17 1 5.41 0.23
0 17 1 5.16 0.19
0 17 1 5.52 0.2
0 17 1 5.17 0.2
0 17 -1 5.14 0.18
0 17 1 5.25 0.18
0 17 1 5.31 0.2
0 17 1 4.84 0.21
0 17 1 4.93 0.2
1 -17 1 9.21 0.32
1 -17 1 8.98 0.28
-1 17 -1 9.15 0.29
1 17 1 9.13 0.29
-1 17 -1 9.2 0.36
1 17 1 9.44 0.31
2 -17 1 15.19 0.52
-2 17 -1 16.1 0.5
-2 17 -1 15.88 0.49
-2 17 -1 15.9 0.48
2 17 1 16.14 0.5
2 17 1 16.35 0.51
2 17 1 16.67 0.52
-2 17 -1 15.23 0.53
-2 17 -1 15.91 0.52
-3 -17 -1 0.99 0.07
3 -17 1 1.05 0.07
3 17 1 0.98 0.09
3 17 1 0.85 0.09
3 17 1 1.17 0.1
-3 17 -1 1 0.08
-3 17 -1 0.84 0.12
-3 17 -1 1.05 0.09
-3 17 -1 1.12 0.08
-3 17 -1 0.99 0.09
4 -17 1 0.88 0.06
-4 17 -1 0.93 0.08
-4 17 -1 0.89 0.08
4 17 1 1.03 0.09
-4 17 -1 0.97 0.09
4 17 1 0.97 0.09
4 17 1 0.8 0.09
-4 17 -1 0.96 0.08
-5 -17 -1 2.66 0.11
-5 -17 -1 2.47 0.14
5 -17 1 2.75 0.11
5 17 1 2.69 0.13
5 17 1 2.89 0.13
-5 17 -1 2.76 0.13
-5 17 -1 2.62 0.13
-5 17 -1 2.72 0.12
-6 -17 -1 0.09 0.04
-6 -17 -1 0.06 0.02
-6 17 -1 0.07 0.03
-6 17 -1 0.06 0.04
-7 -17 -1 0.38 0.06
7 -17 1 0.32 0.04
7 17 1 0.29 0.07
-7 17 -1 0.25 0.08
-6 -18 1 -0.05 0.04
6 -18 -1 0.01 0.02
-6 -18 1 0.03 0.02
6 18 -1 -0.03 0.04
6 18 -1 0.06 0.03
-6 18 1 0.08 0.03
-5 -18 1 0.98 0.07
5 18 -1 1.06 0.09
-5 18 1 1 0.08
-5 18 1 1.04 0.08
-5 18 1 1.03 0.08
5 18 -1 0.87 0.08
-4 -18 1 1.53 0.08
4 -18 -1 1.69 0.08
-4 18 1 1.48 0.1
4 18 -1 1.44 0.1
-4 18 1 1.46 0.09
-4 18 1 1.55 0.11
4 18 -1 1.59 0.11
-4 18 1 1.61 0.1
4 18 -1 1.48 0.1
3 -18 -1 1.91 0.09
-3 -18 1 1.81 0.09
-3 18 1 1.82 0.12
-3 18 1 1.65 0.11
-3 18 1 1.82 0.11
3 18 -1 1.64 0.11
-3 18 1 1.91 0.1
3 18 -1 1.86 0.12
3 18 -1 1.93 0.11
-2 -18 1 1.13 0.07
2 18 -1 1.31 0.1
-2 18 1 1.33 0.09
-2 18 1 1.17 0.09
2 18 -1 1.33 0.1
2 18 -1 1.34 0.11
-2 18 1 1.29 0.1
-2 18 1 1.18 0.11
-2 18 1 1.33 0.09
-1 -18 1 0.78 0.06
-1 18 1 0.74 0.1
1 18 -1 0.9 0.09
-1 18 1 0.86 0.09
1 18 -1 0.74 0.08
1 18 -1 0.95 0.09
-1 18 1 0.91 0.09
-1 18 1 1.01 0.08
-1 18 1 0.96 0.08
0 -18 1 3.91 0.14
0 18 1 4.29 0.18
0 18 1 4.02 0.17
0 18 -1 4 0.17
0 18 1 3.99 0.17
0 18 1 4.23 0.17
0 18 -1 4.43 0.17
0 18 1 4.33 0.16
0 18 1 4.29 0.17
0 18 -1 4.32 0.18
0 18 -1 4.21 0.16
1 -18 1 11.93 0.37
-1 18 -1 12.48 0.4
-1 18 -1 11.68 0.38
-1 18 -1 12.65 0.39
-1 18 -1 12.91 0.42
-1 18 -1 12.41 0.42
1 18 1 12.19 0.4
1 18 1 13.18 0.42
1 18 1 12.47 0.4
1 18 1 12.43 0.42
-2 -18 -1 5.04 0.17
2 -18 1 5.01 0.17
2 18 1 5.33 0.2
-2 18 -1 5.17 0.19
2 18 1 5.14 0.2
-2 18 -1 5.21 0.2
-2 18 -1 5.36 0.2
2 18 1 5.15 0.2
-2 18 -1 5.17 0.18
2 18 1 4.77 0.2
-2 18 -1 4.91 0.2
3 -18 1 2.96 0.11
-3 -18 -1 2.94 0.12
3 18 1 3.23 0.14
-3 18 -1 3.04 0.13
-3 18 -1 2.93 0.18
-3 18 -1 2.94 0.14
3 18 1 3.12 0.14
-3 18 -1 3.13 0.15
3 18 1 2.92 0.14
-3 18 -1 3.18 0.13
4 18 1 0.24 0.08
-4 18 -1 0.21 0.06
-4 18 -1 0.25 0.07
-4 18 -1 0.36 0.09
-5 -18 -1 0.52 0.06
5 -18 1 0.53 0.05
-5 18 -1 0.69 0.09
-5 18 -1 0.46 0.07
5 18 1 0.54 0.08
5 18 1 0.51 0.07
6 -18 1 0.38 0.05
-6 -18 -1 0.33 0.06
-6 18 -1 0.32 0.06
-6 18 -1 0.48 0.07
6 18 1 0.48 0.07
-6 -19 1 0.21 0.05
6 19 -1 0.03 0.04
-6 19 1 0.05 0.04
5 -19 -1 0.44 0.06
5 19 -1 0.63 0.1
-5 19 1 0.63 0.06
-4 -19 1 0.26 0.05
4 -19 -1 0.2 0.03
4 19 -1 0.31 0.07
-4 19 1 0.44 0.11
-4 19 1 0.26 0.07
-3 -19 1 0.89 0.07
-3 19 1 0.77 0.08
3 19 -1 0.92 0.09
-3 19 1 0.84 0.08
3 19 -1 0.79 0.08
-3 19 1 0.92 0.1
-3 19 1 0.89 0.08
3 19 -1 0.86 0.11
-2 -19 1 0.63 0.07
2 19 -1 0.78 0.09
2 19 -1 0.6 0.08
-2 19 1 0.77 0.08
-2 19 1 0.64 0.1
-2 19 1 0.84 0.12
2 19 -1 0.7 0.09
-2 19 1 0.8 0.08
-2 19 1 0.81 0.08
-1 -19 1 3.47 0.13
-1 19 1 3.75 0.15
1 19 -1 3.93 0.16
1 19 -1 3.92 0.17
-1 19 1 3.65 0.16
1 19 -1 3.6 0.16
-1 19 1 3.73 0.16
-1 19 1 3.74 0.15
-1 19 1 3.66 0.16
0 -19 1 8.75 0.31
0 -19 1 8.13 0.26
0 19 -1 9.02 0.3
0 19 -1 8.47 0.28
0 19 -1 8.65 0.29
0 19 1 8.01 0.29
0 19 -1 8.69 0.3
0 19 1 8.41 0.3
0 19 1 8.17 0.3
1 -19 1 7.21 0.23
-1 19 -1 7.31 0.26
1 19 1 7.65 0.26
-1 19 -1 7.67 0.27
-1 19 -1 7.4 0.25
1 19 1 7.69 0.27
1 19 1 7.89 0.27
1 19 1 7.07 0.26
-2 -19 -1 2.17 0.1
-2 19 -1 2.25 0.12
-2 19 -1 2.35 0.11
2 19 1 2.15 0.12
-2 19 -1 2.36 0.13
-2 19 -1 2.05 0.13
2 19 1 2.25 0.12
2 19 1 2.37 0.12
3 -19 1 0.7 0.06
-3 19 -1 0.64 0.07
3 19 1 0.54 0.08
3 19 1 0.43 0.08
3 19 1 0.41 0.08
-3 19 -1 0.59 0.08
-4 -19 -1 0.55 0.07
4 -19 1 0.64 0.06
4 19 1 0.46 0.07
-4 19 -1 0.55 0.06
-4 19 -1 0.59 0.07
4 19 1 0.45 0.08
5 -19 1 0.52 0.05
-5 -19 -1 0.65 0.06
-5 19 -1 0.37 0.1
5 19 1 0.51 0.08
6 -19 1 0.45 0.05
-6 19 -1 0.37 0.07
6 19 1 0.38 0.07
-5 -20 1 2.01 0.09
5 -20 -1 1.67 0.09
-5 20 1 1.83 0.1
5 20 -1 1.85 0.1
-5 20 1 1.75 0.09
-4 20 1 0.22 0.06
-4 20 1 0.26 0.07
-4 20 1 0.18 0.06
4 20 -1 0.23 0.06
-4 20 1 0.41 0.13
-3 -20 1 1.05 0.07
3 20 -1 0.85 0.09
3 20 -1 0.97 0.09
-3 20 1 0.93 0.08
-3 20 1 0.86 0.08
-3 20 1 1.03 0.11
-2 -20 1 2.83 0.11
-2 20 1 2.76 0.14
2 20 -1 2.63 0.13
-2 20 1 2.55 0.13
-2 20 1 2.75 0.13
-2 20 1 2.5 0.12
2 20 -1 2.6 0.13
-1 -20 1 1.32 0.08
-1 20 1 1.24 0.11
1 20 -1 1.31 0.1
-1 20 1 1.56 0.1
-1 20 1 1.51 0.11
-1 20 1 1.18 0.11
-1 20 1 1.41 0.1
1 20 -1 1.26 0.1
1 20 -1 1.39 0.1
0 20 -1 0.8 0.09
0 20 1 0.96 0.1
0 20 1 0.89 0.09
0 20 -1 1.02 0.09
0 20 1 0.86 0.1
0 20 -1 0.99 0.09
0 20 1 0.85 0.1
-1 20 -1 0.37 0.07
1 20 1 0.25 0.08
-1 20 -1 0.29 0.07
-1 20 -1 0.26 0.08
-2 20 -1 0.28 0.08
-2 20 -1 0.43 0.07
2 20 1 0.32 0.08
-2 20 -1 0.3 0.07
2 20 1 0.21 0.07
3 -20 1 2.8 0.11
3 20 1 2.53 0.14
3 20 1 2.89 0.14
3 20 1 2.76 0.13
-3 20 -1 2.79 0.12
-3 20 -1 2.92 0.14
-3 20 -1 3 0.13
-4 -20 -1 0.23 0.06
-4 20 -1 0.12 0.03
4 20 1 0.07 0.03
-4 20 -1 0.2 0.06
-5 -20 -1 0.4 0.06
-5 20 -1 0.37 0.06
-5 20 -1 0.35 0.06
5 20 1 0.4 0.09
5 21 -1 0.41 0.07
-5 21 1 0.55 0.06
4 21 -1 0.1 0.03
-4 21 1 0.19 0.05
-4 21 1 0.06 0.03
-3 -21 1 3.29 0.12
-3 21 1 3.3 0.15
3 21 -1 3.49 0.14
-3 21 1 3.27 0.17
3 21 -1 3.29 0.14
-3 21 1 3.19 0.13
2 21 -1 1.95 0.11
-2 21 1 2.06 0.1
-2 21 1 1.91 0.11
2 21 -1 1.76 0.11
-2 21 1 2.05 0.12
-1 -21 1 4.59 0.17
-1 21 1 4.81 0.2
-1 21 1 4.95 0.19
1 21 -1 5.12 0.2
1 21 -1 5.19 0.2
1 21 -1 4.73 0.19
-1 21 1 5 0.2
-1 21 1 4.98 0.18
0 21 1 1.94 0.12
0 21 -1 2.11 0.12
0 21 1 2.04 0.13
0 21 1 2.26 0.12
0 21 -1 2.07 0.12
0 21 1 2.19 0.12
-1 21 -1 10.42 0.35
-1 21 -1 10.14 0.32
1 21 1 9.91 0.33
1 21 1 10.22 0.35
-1 21 -1 10.48 0.35
-1 21 -1 9.7 0.34
1 21 1 9.71 0.35
-2 21 -1 0.97 0.08
2 21 1 0.92 0.08
-2 21 -1 0.82 0.09
2 21 1 0.68 0.08
-2 21 -1 0.81 0.08
3 -21 1 0.09 0.03
-3 -21 -1 0.1 0.03
3 21 1 0.07 0.03
-3 21 -1 0.08 0.03
-4 -21 -1 0.3 0.07
4 -21 1 0.15 0.03
-4 21 -1 0.22 0.05
4 21 1 0.21 0.05
-4 22 1 0.01 0.04
-4 22 1 0.09 0.03
3 22 -1 0.21 0.07
-3 22 1 0.24 0.06
-3 22 1 0.25 0.08
-2 -22 1 2.33 0.11
-2 22 1 2.55 0.12
-2 22 1 2.5 0.15
-1 22 1 5.85 0.22
1 22 -1 6.24 0.24
1 22 -1 6.7 0.23
0 22 -1 2.88 0.13
0 22 -1 2.69 0.14
0 22 -1 2.71 0.13
-1 22 -1 0.01 0.02
-1 22 -1 0.07 0.03
-1 22 -1 0.02 0.03
-2 22 -1 0.25 0.07
3 22 1 0.38 0.06
-3 22 -1 0.5 0.07
-4 22 -1 0.24 0.06
-4 22 -1 0.24 0.05
3 23 -1 0.06 0.03
-3 23 1 0 0.05
-2 23 1 0.97 0.1
2 23 -1 1.18 0.08
2 23 -1 1.23 0.08
1 23 -1 0.29 0.07
-1 23 1 0.14 0.05
0 23 -1 0.16 0.03
0 23 1 0.09 0.03
0 23 1 0.1 0.06
0 23 1 0.17 0.05
0 23 -1 0.32 0.09
-1 23 -1 0.66 0.14
1 23 1 0.73 0.09
-1 23 -1 0.63 0.08
-1 23 -1 0.53 0.08
-2 23 -1 -0.05 0.03
2 23 1 0.06 0.03
2 23 1 -0.05 0.02
-3 23 -1 0.1 0.03
3 23 1 0.02 0.03
1 24 -1 0.65 0.08
0 24 -1 0.23 0.07
-1 24 -1 0.08 0.04
-1 24 -1 0.11 0.03
-10 0 2 1.52 0.09
-9 0 2 0.47 0.07
9 0 -2 0.61 0.08
9 0 -2 0.44 0.08
8 0 -2 1.68 0.11
-8 0 2 1.81 0.11
8 0 -2 1.71 0.1
-8 0 2 1.7 0.11
7 0 -2 1.68 0.09
7 0 -2 1.74 0.1
-7 0 2 1.78 0.1
7 0 -2 1.61 0.1
6 0 -2 0.29 0.05
6 0 -2 0.27 0.06
-6 0 2 0.41 0.08
6 0 -2 0.19 0.05
-6 0 2 0.27 0.06
-5 0 2 20.17 0.59
-5 0 2 19.22 0.58
5 0 -2 20.36 0.57
5 0 -2 19.03 0.58
-5 0 2 19.3 0.61
5 0 -2 19.5 0.61
5 0 -2 19.32 0.6
5 0 -2 19.15 0.62
3 0 -2 12.39 0.35
3 0 -2 12.28 0.38
3 0 -2 12.37 0.4
-3 0 2 11.8 0.37
-3 0 2 11.77 0.36
3 0 -2 11.74 0.36
3 0 -2 11.9 0.38
3 0 -2 11.99 0.37
-3 0 2 11.93 0.37
-3 0 2 12.48 0.38
1 0 -2 0.22 0.02
0 0 2 1.6 0.06
0 0 -2 1.55 0.06
1 0 2 35.13 1.07
-1 0 -2 32.16 1.06
1 0 2 34.68 1.04
-1 0 -2 33.22 1.05
-2 0 -2 8.24 0.25
-2 0 -2 8.41 0.27
2 0 2 8.6 0.26
2 0 2 8.73 0.27
-2 0 -2 7.76 0.27
2 0 2 8.09 0.25
-2 0 -2 8.08 0.24
-3 0 -2 6.66 0.21
-3 0 -2 7.03 0.23
3 0 2 6.95 0.22
3 0 2 6.77 0.2
-3 0 -2 6.75 0.2
-3 0 -2 6.53 0.21
3 0 2 6.46 0.21
3 0 2 6.73 0.21
3 0 2 7 0.23
4 0 2 37.52 1.16
-4 0 -2 38.88 1.09
4 0 2 37.89 1.19
4 0 2 37.43 1.13
4 0 2 37.93 1.09
-4 0 -2 35.83 1.07
5 0 2 4.81 0.17
5 0 2 4.32 0.17
-5 0 -2 4.7 0.16
-5 0 -2 4.74 0.16
-5 0 -2 4.63 0.17
5 0 2 4.68 0.15
-5 0 -2 4.87 0.15
5 0 2 4.67 0.16
5 0 2 4.51 0.18
6 0 2 14.09 0.47
6 0 2 13.84 0.42
-6 0 -2 14.28 0.49
-6 0 -2 14.18 0.42
-6 0 -2 14.07 0.43
-6 0 -2 14.53 0.44
6 0 2 14.12 0.45
6 0 2 14.21 0.43
7 0 2 0.11 0.03
-7 0 -2 0.14 0.03
-7 0 -2 0.19 0.06
-8 0 -2 0.05 0.03
-8 0 -2 0.01 0.03
8 0 2 0.06 0.05
-9 0 -2 0.2 0.04
-9 0 -2 0.27 0.03
9 0 2 0.43 0.1
-10 -1 2 0.34 0.07
-10 1 2 0.36 0.07
9 -1 -2 0.43 0.09
9 -1 -2 0.38 0.07
-9 -1 2 0.46 0.08
-9 1 2 0.39 0.07
9 1 -2 0.32 0.09
9 1 -2 0.42 0.08
-8 -1 2 0.03 0.03
-8 -1 2 0.01 0.03
8 -1 -2 -0.01 0.03
8 -1 -2 -0.02 0.03
8 1 -2 0 0.03
8 1 -2 -0.03 0.03
-8 1 2 -0.03 0.04
-8 1 2 -0.03 0.02
7 -1 -2 1.45 0.09
-7 -1 2 1.56 0.11
-7 -1 2 1.48 0.09
7 -1 -2 1.5 0.09
7 1 -2 1.29 0.1
-7 1 2 1.55 0.09
7 1 -2 1.31 0.1
7 1 -2 1.48 0.09
6 -1 -2 1.08 0.07
6 -1 -2 1.27 0.08
6 -1 -2 1.19 0.08
-6 -1 2 1.17 0.08
-6 -1 2 0.99 0.08
-6 -1 2 1.03 0.07
6 -1 -2 1.21 0.07
6 1 -2 1.17 0.07
-6 1 2 1.11 0.08
-6 1 2 1.11 0.07
6 1 -2 1.13 0.07
-6 1 2 1.11 0.09
6 1 -2 1.22 0.08
-5 -1 2 1.84 0.09
5 -1 -2 2.08 0.08
-5 -1 2 1.93 0.08
5 -1 -2 1.8 0.1
5 -1 -2 1.95 0.09
5 -1 -2 1.83 0.08
-5 -1 2 1.87 0.09
-5 1 2 1.82 0.09
5 1 -2 1.87 0.09
-5 1 2 1.92 0.09
5 1 -2 1.95 0.09
5 1 -2 2.03 0.09
-5 1 2 1.89 0.09
-5 1 2 1.8 0.09
-4 -1 2 1.77 0.07
4 -1 -2 1.64 0.08
4 -1 -2 1.65 0.07
4 -1 -2 1.76 0.07
-4 -1 2 1.69 0.07
-4 -1 2 1.72 0.08
-4 1 2 1.78 0.08
4 1 -2 1.66 0.08
-4 1 2 1.8 0.07
4 1 -2 1.77 0.07
-4 1 2 1.75 0.07
3 -1 -2 23.51 0.74
3 -1 -2 22.11 0.67
3 -1 -2 23.95 0.71
3 -1 -2 22.73 0.69
-3 -1 2 24.05 0.72
-3 -1 2 22.07 0.67
-3 -1 2 23.13 0.66
-3 1 2 22.03 0.68
3 1 -2 23.04 0.71
3 1 -2 22.65 0.67
3 1 -2 23.62 0.71
3 1 -2 22.9 0.66
-3 1 2 22.23 0.69
3 1 -2 23.19 0.74
-3 1 2 23.65 0.71
2 -1 -2 7.48 0.26
-2 -1 2 7.63 0.25
2 -1 -2 7.45 0.24
-2 -1 2 7.79 0.25
-2 1 2 7.78 0.25
-2 1 2 8.27 0.24
-1 -1 2 72.07 2.37
1 -1 -2 77.82 2.37
1 1 -2 77.4 2.38
-1 1 2 74.97 2.37
-1 1 2 79.19 2.38
0 -1 2 65.87 2.01
0 -1 -2 66.13 2.01
0 -1 -2 62.42 2.01
0 -1 2 60.09 2.01
0 1 2 65.12 2.01
0 1 2 65.78 1.96
0 1 2 65.54 2.01
1 -1 2 144.9 4.39
1 -1 2 147.29 4.42
-1 -1 -2 134.86 4.4
-1 -1 -2 141.89 4.39
1 -1 2 144.75 4.31
-1 1 -2 137.13 4.41
1 1 2 138.73 4.29
1 1 2 140.61 4.41
2 -1 2 214.97 6.36
-2 -1 -2 214.61 6.37
-2 -1 -2 214.31 6.88
2 -1 2 228.68 6.9
2 -1 2 228.37 6.73
2 -1 2 218.95 6.26
-2 -1 -2 218.19 6.26
-2 1 -2 221.6 6.43
-2 1 -2 219.47 6.84
2 1 2 228.97 6.33
3 -1 2 14.95 0.44
-3 -1 -2 14.69 0.45
-3 -1 -2 15.8 0.48
-3 -1 -2 15.03 0.43
3 -1 2 15.01 0.43
3 -1 2 15.11 0.48
3 -1 2 15.21 0.47
3 -1 2 14.95 0.45
-3 1 -2 15.4 0.49
3 1 2 15 0.46
3 1 2 14.49 0.48
-3 1 -2 14.67 0.43
3 1 2 14.7 0.43
3 1 2 14.47 0.47
3 1 2 14.31 0.44
-3 1 -2 15.13 0.44
-3 1 -2 14.57 0.45
4 -1 2 2.51 0.09
-4 -1 -2 2.47 0.09
4 -1 2 2.48 0.09
4 -1 2 2.37 0.1
-4 -1 -2 2.45 0.1
-4 -1 -2 2.27 0.09
4 -1 2 2.36 0.1
-4 1 -2 2.35 0.09
-4 1 -2 2.45 0.09
4 1 2 2.31 0.1
4 1 2 2.48 0.09
4 1 2 2.35 0.1
4 1 2 2.38 0.1
-4 1 -2 2.45 0.1
5 -1 2 17.49 0.52
-5 -1 -2 18.2 0.53
-5 -1 -2 18.47 0.52
5 -1 2 18.69 0.53
5 -1 2 16.96 0.55
-5 -1 -2 17.5 0.58
-5 -1 -2 18.28 0.54
5 -1 2 17.6 0.58
5 -1 2 17.49 0.57
-5 1 -2 17.26 0.52
-5 1 -2 18.04 0.54
5 1 2 18.4 0.53
5 1 2 16.98 0.55
5 1 2 17.32 0.57
5 1 2 17.52 0.52
-5 1 -2 18.49 0.53
-5 1 -2 17.41 0.58
-5 1 -2 17.68 0.6
-6 -1 -2 5.92 0.19
6 -1 2 5.77 0.2
6 -1 2 5.91 0.22
-6 -1 -2 5.57 0.2
6 -1 2 5.9 0.2
-6 -1 -2 5.81 0.2
6 -1 2 5.88 0.19
-6 1 -2 5.66 0.22
6 1 2 5.82 0.21
6 1 2 5.52 0.22
-6 1 -2 6.2 0.21
-6 1 -2 5.87 0.2
6 1 2 5.98 0.2
-7 -1 -2 5.31 0.21
-7 -1 -2 5.51 0.19
7 -1 2 5.46 0.21
7 -1 2 5.4 0.19
-7 1 -2 5.28 0.2
-7 1 -2 5.04 0.22
-8 -1 -2 -0.03 0.03
-8 -1 -2 0 0.03
8 -1 2 -0.06 0.03
8 -1 2 0.07 0.05
-8 1 -2 0 0.06
8 1 2 0.04 0.04
-8 1 -2 -0.01 0.03
-8 1 -2 -0.05 0.03
9 -1 2 0.08 0.04
-9 -1 -2 0.1 0.04
-9 -1 -2 0.02 0.03
-9 1 -2 0.03 0.02
-10 2 2 0.2 0.06
9 -2 -2 0.35 0.07
9 -2 -2 0.62 0.11
-9 -2 2 0.45 0.08
-9 -2 2 0.4 0.1
-9 2 2 0.48 0.07
9 2 -2 0.37 0.07
8 -2 -2 1.64 0.1
8 -2 -2 1.57 0.1
8 -2 -2 1.61 0.1
-8 -2 2 1.64 0.1
-8 -2 2 1.59 0.11
8 2 -2 1.74 0.1
8 2 -2 1.51 0.1
-8 2 2 1.58 0.1
7 -2 -2 4.47 0.18
7 -2 -2 4.89 0.16
-6 -2 2 1.19 0.09
-6 -2 2 1.19 0.07
6 -2 -2 1.24 0.08
-6 -2 2 1.31 0.07
6 -2 -2 1.22 0.08
6 -2 -2 1.31 0.08
6 -2 -2 1.22 0.07
-6 2 2 1.16 0.09
-6 2 2 1.09 0.09
-6 2 2 1.16 0.08
6 2 -2 1.25 0.08
-6 2 2 1.16 0.08
6 2 -2 1.14 0.08
6 2 -2 1.16 0.08
-5 -2 2 7.75 0.24
5 -2 -2 7.87 0.24
-5 -2 2 7.71 0.25
-5 -2 2 7.34 0.25
-5 -2 2 7.54 0.26
5 -2 -2 7.5 0.25
5 -2 -2 7.66 0.25
5 2 -2 7.43 0.25
5 2 -2 8 0.24
-5 2 2 7.89 0.25
5 2 -2 8.13 0.26
-5 2 2 7.39 0.24
5 2 -2 7.69 0.26
-5 2 2 7.61 0.24
-5 2 2 7.69 0.25
-4 -2 2 9.9 0.31
-4 -2 2 10.25 0.33
-4 -2 2 10.34 0.32
4 -2 -2 10.03 0.32
4 -2 -2 9.93 0.32
-4 2 2 10.02 0.32
4 2 -2 10.1 0.33
4 2 -2 10.26 0.33
-4 2 2 10.1 0.3
-4 2 2 9.92 0.31
4 2 -2 10.38 0.3
-3 -2 2 31.64 0.99
3 -2 -2 34.07 0.95
3 -2 -2 33 1
-3 -2 2 34.78 1.04
3 -2 -2 32.75 0.97
3 -2 -2 32.65 1.02
-3 -2 2 34.07 0.95
3 2 -2 33.45 1.03
3 2 -2 34.57 1.07
-3 2 2 33.07 0.95
3 2 -2 32.56 0.97
-3 2 2 34.61 1.04
-3 2 2 33.45 1
3 2 -2 34.05 0.95
-2 -2 2 196.68 5.84
2 -2 -2 191.33 6.01
-2 -2 2 178.41 5.33
-2 -2 2 177.39 5.43
2 -2 -2 195.3 5.72
-2 2 2 189.11 5.58
-2 2 2 190.92 5.86
2 2 -2 189.95 5.6
-2 2 2 183.27 5.49
-1 -2 2 2.96 0.1
1 -2 -2 3.2 0.1
1 -2 -2 2.92 0.11
1 2 -2 2.83 0.1
-1 2 2 2.88 0.1
-1 2 2 3.12 0.09
0 -2 -2 133.95 4.12
0 -2 2 127.83 4.11
0 -2 -2 135.96 4.12
0 2 -2 132.71 4.12
1 -2 2 91.54 2.75
-1 -2 -2 85.49 2.73
1 -2 2 82.73 2.72
1 -2 2 88.75 2.68
1 2 2 92.28 2.68
-1 2 -2 84.36 2.74
-2 -2 -2 78.68 2.32
-2 -2 -2 80.78 2.36
-2 -2 -2 77.6 2.55
2 -2 2 77.88 2.36
2 -2 2 78.05 2.32
2 -2 2 86.93 2.52
2 2 2 82.68 2.36
-2 2 -2 79.63 2.36
2 2 2 84.78 2.43
2 2 2 87.11 2.59
-2 2 -2 86.01 2.63
2 2 2 85.51 2.52
-2 2 -2 79.83 2.38
-2 2 -2 82.92 2.53
3 -2 2 35.72 1.09
3 -2 2 35.45 1.12
-3 -2 -2 37.46 1.14
3 -2 2 35.44 1.01
-3 -2 -2 33.41 1.05
3 -2 2 34.36 1.06
3 2 2 35.44 1.07
3 2 2 35.08 1.03
-3 2 -2 34.82 1.16
3 2 2 36.67 1.03
3 2 2 37 1.09
-3 2 -2 35.32 1.04
3 2 2 36.7 1.12
-3 2 -2 35.54 1.14
-3 2 -2 35.68 1.03
-4 -2 -2 27.85 0.77
4 -2 2 27.08 0.77
4 -2 2 26.89 0.81
4 -2 2 26.18 0.83
4 -2 2 26.47 0.85
-4 -2 -2 26.44 0.79
4 -2 2 27.48 0.79
-4 -2 -2 26.77 0.86
-4 -2 -2 26.24 0.8
-4 2 -2 27.29 0.8
4 2 2 26.92 0.83
-4 2 -2 26.13 0.77
4 2 2 27.4 0.79
-4 2 -2 26.26 0.87
4 2 2 26.91 0.85
4 2 2 27.32 0.81
5 -2 2 23.64 0.68
5 -2 2 23.41 0.76
-5 -2 -2 24.78 0.68
5 -2 2 24.12 0.72
-5 -2 -2 24.85 0.7
5 -2 2 23.73 0.7
-5 -2 -2 22.89 0.71
5 -2 2 23 0.74
5 2 2 24.27 0.72
-5 2 -2 22.83 0.7
-5 2 -2 24.36 0.71
5 2 2 23.65 0.7
-5 2 -2 22.48 0.77
5 2 2 22.94 0.74
-5 2 -2 23.62 0.79
6 -2 2 2.17 0.1
6 -2 2 2.08 0.11
-6 -2 -2 2.12 0.09
-6 -2 -2 2.12 0.09
6 -2 2 2.09 0.09
6 -2 2 1.98 0.09
-6 -2 -2 2.14 0.11
6 2 2 1.99 0.11
6 2 2 2.22 0.1
-6 2 -2 1.97 0.09
-6 2 -2 2.06 0.1
-6 2 -2 1.92 0.11
6 2 2 2.12 0.1
-7 -2 -2 0 0.03
7 -2 2 0.03 0.03
-7 -2 -2 0.05 0.03
7 -2 2 0.02 0.03
7 -2 2 0.07 0.04
-7 -2 -2 0.05 0.03
7 2 2 0.07 0.03
7 2 2 0.05 0.03
-8 -2 -2 0.98 0.11
8 -2 2 1.15 0.09
-8 -2 -2 1.07 0.12
-8 -2 -2 1.12 0.08
-8 2 -2 1.35 0.12
-8 2 -2 1.21 0.1
8 2 2 1.34 0.1
-8 2 -2 1.21 0.1
-9 -2 -2 0.02 0.03
-9 2 -2 -0.01 0.02
-9 -3 2 3.1 0.14
9 -3 -2 3.02 0.13
9 3 -2 2.89 0.13
-9 3 2 3.19 0.13
-8 -3 2 0.17 0.03
8 -3 -2 0.09 0.03
-8 -3 2 0.09 0.03
8 -3 -2 0.12 0.04
8 3 -2 0.11 0.04
8 3 -2 0.1 0.04
-8 3 2 0.15 0.03
7 -3 -2 1.44 0.1
-7 -3 2 1.51 0.11
-7 3 2 1.32 0.1
6 -3 -2 1.07 0.08
6 -3 -2 1.02 0.07
-6 -3 2 1.16 0.08
-6 -3 2 1.08 0.09
-6 -3 2 1.09 0.07
6 -3 -2 1.11 0.08
-6 -3 2 1.11 0.08
6 3 -2 1.08 0.08
-6 3 2 1.12 0.08
-6 3 2 1.19 0.08
-6 3 2 1.05 0.08
-6 3 2 1.1 0.08
6 3 -2 1.01 0.07
-5 -3 2 24.7 0.72
5 -3 -2 23.79 0.73
-5 -3 2 22.7 0.75
5 -3 -2 22.7 0.7
-5 -3 2 24.47 0.69
5 -3 -2 23.82 0.69
5 3 -2 23.78 0.71
-5 3 2 23.64 0.71
5 3 -2 23.16 0.75
-5 3 2 22.88 0.7
5 3 -2 23.99 0.73
-5 3 2 24.5 0.7
-5 3 2 24.68 0.68
4 -3 -2 6.58 0.21
-4 -3 2 7.01 0.22
4 -3 -2 7.06 0.22
4 -3 -2 6.75 0.22
-4 -3 2 6.69 0.23
4 -3 -2 6.72 0.21
-4 3 2 7.2 0.22
4 3 -2 6.57 0.21
4 3 -2 6.35 0.22
-4 3 2 7.14 0.21
4 3 -2 6.93 0.23
4 3 -2 6.38 0.21
-4 3 2 6.57 0.22
-4 3 2 6.8 0.21
-4 3 2 6.99 0.21
3 -3 -2 88.18 2.59
3 -3 -2 92.28 2.77
-3 -3 2 91.9 2.59
3 -3 -2 92.26 2.71
-3 -3 2 92.15 2.86
3 -3 -2 90.91 2.63
-3 -3 2 92.56 2.66
3 -3 -2 90.25 2.84
3 3 -2 90.35 2.78
3 3 -2 92.8 2.58
3 3 -2 86.77 2.75
-3 3 2 92.73 2.56
-3 3 2 90 2.65
3 3 -2 91.89 2.71
-3 3 2 94.64 2.69
3 3 -2 85.9 2.63
3 3 -2 94.6 2.91
-2 -3 2 44.63 1.31
-2 -3 2 45.95 1.42
2 -3 -2 45.5 1.39
2 3 -2 44.15 1.35
-2 3 2 43.86 1.35
-2 3 2 46.2 1.42
-2 3 2 46.41 1.34
-2 3 2 45.42 1.32
2 3 -2 46.2 1.39
-1 -3 2 87.47 2.88
1 -3 -2 95.28 2.97
1 -3 -2 90.68 2.81
1 -3 -2 91.51 2.88
1 -3 -2 97.8 2.87
0 -3 -2 199.2 6.05
0 3 -2 179.5 5.87
1 -3 2 293.62 9.41
-1 -3 -2 311.22 9.65
1 -3 2 309.72 9.65
-1 3 -2 321.87 9.88
-1 3 -2 310.36 9.59
1 3 2 314.36 9.41
-2 -3 -2 121.07 3.57
2 -3 2 122.86 3.63
2 -3 2 126.16 3.56
-2 -3 -2 120.11 3.63
2 -3 2 126.25 3.91
2 -3 2 125.48 3.84
2 3 2 123.51 3.61
2 3 2 131.49 3.95
2 3 2 132.93 3.74
-2 3 -2 120.4 3.89
-2 3 -2 126.57 3.51
-2 3 -2 128.23 3.67
2 3 2 127.82 3.84
3 -3 2 13.97 0.44
-3 -3 -2 14.54 0.45
-3 -3 -2 14.23 0.42
3 -3 2 14.11 0.45
-3 -3 -2 13.56 0.42
-3 3 -2 13.98 0.41
-3 3 -2 13.69 0.46
-3 3 -2 13.97 0.4
3 3 2 14.07 0.41
-3 3 -2 14.27 0.41
3 3 2 13.57 0.43
3 3 2 13.94 0.44
-4 -3 -2 7.43 0.23
4 -3 2 7.86 0.26
-4 -3 -2 8.05 0.25
4 -3 2 7.45 0.25
-4 -3 -2 7.65 0.24
-4 -3 -2 7.54 0.25
4 -3 2 7.61 0.24
4 -3 2 7.8 0.23
4 -3 2 8.19 0.27
4 3 2 8.22 0.25
-4 3 -2 7.39 0.24
-4 3 -2 7.81 0.27
4 3 2 7.75 0.26
-4 3 -2 7.85 0.25
5 -3 2 36.05 1.03
5 -3 2 35.82 1.12
5 -3 2 35.29 1
-5 -3 -2 34.56 1.03
-5 -3 -2 35.44 1.04
5 -3 2 34.16 1.06
-5 -3 -2 36.86 1.01
5 -3 2 34.35 1.09
5 3 2 34.84 1.09
5 3 2 35.31 1.06
-5 3 -2 34.52 1.04
-5 3 -2 35.35 1.03
-5 3 -2 33.37 1.15
-5 3 -2 34.35 1.14
5 3 2 35.68 1.03
6 -3 2 1.41 0.09
6 -3 2 1.38 0.07
6 -3 2 1.46 0.09
-6 -3 -2 1.53 0.08
-6 -3 -2 1.34 0.07
6 -3 2 1.21 0.08
6 -3 2 1.3 0.09
-6 -3 -2 1.47 0.09
-6 3 -2 1.26 0.08
-6 3 -2 1.31 0.1
6 3 2 1.41 0.08
-6 3 -2 1.29 0.08
6 3 2 1.48 0.08
6 3 2 1.42 0.09
7 -3 2 0.36 0.09
-7 -3 -2 0.4 0.07
-7 -3 -2 0.37 0.09
-7 -3 -2 0.41 0.09
7 -3 2 0.36 0.07
-7 3 -2 0.29 0.07
7 3 2 0.47 0.08
7 3 2 0.47 0.07
-8 -3 -2 0.04 0.03
8 3 2 0.09 0.04
-8 3 -2 0.11 0.05
-8 3 -2 0.05 0.04
-8 3 -2 0.09 0.03
9 -3 2 0.75 0.09
-9 -3 -2 0.81 0.11
-9 3 -2 0.65 0.07
-9 -4 2 2.49 0.12
9 -4 -2 2.26 0.11
9 4 -2 2.15 0.11
-9 4 2 2.57 0.11
8 -4 -2 2.35 0.13
-8 -4 2 2.49 0.14
8 -4 -2 2.61 0.11
8 -4 -2 2.61 0.12
8 4 -2 2.31 0.12
8 4 -2 2.51 0.13
-8 4 2 2.7 0.12
7 -4 -2 0.08 0.02
7 -4 -2 0.15 0.03
7 -4 -2 0.12 0.04
-7 -4 2 0.22 0.07
-7 4 2 0.16 0.05
-7 4 2 0.07 0.02
-6 -4 2 0.23 0.06
-6 -4 2 0.09 0.03
6 -4 -2 0.11 0.03
6 -4 -2 0.15 0.05
-6 -4 2 0.07 0.02
6 -4 -2 0.11 0.03
6 4 -2 0.12 0.03
-6 4 2 0.12 0.03
-6 4 2 0.11 0.03
-6 4 2 0.13 0.04
6 4 -2 0.07 0.03
5 -4 -2 2.82 0.11
-5 -4 2 2.92 0.12
5 -4 -2 2.73 0.1
-5 -4 2 3.01 0.11
5 -4 -2 2.95 0.12
-5 -4 2 2.9 0.13
5 4 -2 2.79 0.12
-5 4 2 2.88 0.11
5 4 -2 2.9 0.11
-5 4 2 2.91 0.11
5 4 -2 2.85 0.12
-5 4 2 2.73 0.11
4 -4 -2 6.95 0.23
4 -4 -2 6.95 0.23
-4 -4 2 6.86 0.23
4 -4 -2 6.99 0.21
-4 -4 2 6.73 0.22
4 -4 -2 6.69 0.22
-4 -4 2 6.63 0.23
4 -4 -2 6.76 0.22
4 4 -2 7.04 0.23
-4 4 2 7.21 0.22
4 4 -2 6.84 0.22
-4 4 2 6.79 0.22
-4 4 2 6.6 0.21
-4 4 2 6.71 0.22
4 4 -2 7.01 0.22
4 4 -2 7 0.23
3 -4 -2 35.76 1.01
3 -4 -2 34.12 1.04
3 -4 -2 34.48 1.08
-3 -4 2 33.72 1.08
3 -4 -2 34.75 1.05
-3 -4 2 34.13 1.02
3 -4 -2 34.37 0.98
-3 4 2 34.52 1.09
3 4 -2 33.24 1.05
3 4 -2 33.35 1.07
3 4 -2 33.37 1
-3 4 2 36.45 1.11
-3 4 2 35.68 0.98
3 4 -2 36.83 1.04
3 4 -2 33.61 1.01
2 -4 -2 52.35 1.58
2 -4 -2 51.13 1.54
-2 -4 2 48.5 1.42
-2 -4 2 51.4 1.45
-2 4 2 51.55 1.41
2 4 -2 51.97 1.54
-2 4 2 50.23 1.48
2 4 -2 48.76 1.49
-2 4 2 52.8 1.49
2 4 -2 46.93 1.52
2 4 -2 48.58 1.57
-2 4 2 48.27 1.46
1 -4 -2 101.22 3
-1 -4 2 101.87 3.09
1 -4 -2 100.64 3.07
1 -4 -2 95.9 3.06
1 -4 -2 94.05 3.14
0 -4 -2 60.78 1.98
0 -4 -2 62.12 1.94
0 -4 2 63.72 1.95
0 4 -2 61.18 1.93
0 4 -2 62.73 2
1 -4 2 35.58 1.08
-1 -4 -2 33.68 1.07
1 -4 2 34.84 1.08
-1 -4 -2 33.26 1.1
-1 4 -2 33.47 1.07
1 4 2 34.61 1
-1 4 -2 35.38 1.1
1 4 2 34.42 1.05
-2 -4 -2 22.19 0.67
2 -4 2 22.71 0.66
2 -4 2 22.94 0.73
-2 4 -2 23.69 0.68
-2 4 -2 22.75 0.76
-2 4 -2 22.65 0.73
2 4 2 24.7 0.71
2 4 2 24.41 0.68
2 4 2 22.62 0.71
-2 4 -2 23.47 0.66
-2 4 -2 22.28 0.72
2 4 2 23.38 0.7
3 -4 2 30.23 0.91
-3 -4 -2 28.93 0.82
-3 -4 -2 27.69 0.84
3 -4 2 29.69 0.89
-3 -4 -2 28.72 0.92
3 -4 2 27.99 0.84
3 4 2 29.94 0.89
-3 4 -2 27.6 0.83
3 4 2 28.85 0.84
-3 4 -2 29.23 0.82
3 4 2 29.83 0.84
-3 4 -2 27.87 0.93
-3 4 -2 28.52 0.84
-3 4 -2 28.61 0.95
4 -4 2 28.64 0.8
-4 -4 -2 26.78 0.83
-4 -4 -2 28.87 0.82
-4 -4 -2 28.19 0.8
4 -4 2 26.78 0.82
4 -4 2 27.9 0.89
4 -4 2 27.42 0.84
4 4 2 28.89 0.85
-4 4 -2 27.39 0.81
-4 4 -2 26.9 0.82
4 4 2 28.1 0.82
-4 4 -2 28.59 0.91
-4 4 -2 28.9 0.83
-5 -4 -2 10.25 0.32
5 -4 2 10.72 0.32
5 -4 2 9.59 0.32
-5 -4 -2 10.77 0.33
5 -4 2 10.28 0.3
5 -4 2 10.15 0.35
-5 4 -2 10.23 0.32
-5 4 -2 10.02 0.31
5 4 2 9.68 0.34
-5 4 -2 9.87 0.35
5 4 2 10.6 0.33
-5 4 -2 10.24 0.31
5 4 2 9.55 0.31
-5 4 -2 9.48 0.35
6 -4 2 1.39 0.08
6 -4 2 1.57 0.1
6 -4 2 1.35 0.1
-6 -4 -2 1.48 0.1
6 -4 2 1.53 0.07
-6 -4 -2 1.4 0.07
-6 -4 -2 1.58 0.08
-6 4 -2 1.51 0.09
-6 4 -2 1.31 0.12
6 4 2 1.57 0.09
6 4 2 1.3 0.09
6 4 2 1.29 0.08
-6 4 -2 1.24 0.11
-6 4 -2 1.49 0.08
7 -4 2 0.05 0.04
-7 -4 -2 0.01 0.02
7 -4 2 -0.03 0.03
-7 -4 -2 0.01 0.03
7 -4 2 0.02 0.02
-7 -4 -2 -0.01 0.03
-7 4 -2 -0.02 0.04
-7 4 -2 -0.01 0.02
7 4 2 0.01 0.03
7 4 2 -0.04 0.04
-7 4 -2 0.02 0.03
8 4 2 0.22 0.07
-9 -4 -2 0.71 0.12
9 -4 2 0.75 0.09
-9 4 -2 0.76 0.08
9 -5 -2 1.09 0.08
-9 -5 2 1.06 0.1
-9 5 2 1.11 0.1
9 5 -2 1.06 0.08
-9 5 2 1.22 0.08
8 -5 -2 3.06 0.15
-8 -5 2 3.44 0.14
-8 -5 2 3.37 0.16
8 -5 -2 3.26 0.14
-8 5 2 3.58 0.14
8 5 -2 3.16 0.15
-7 -5 2 0.02 0.02
-7 -5 2 0.09 0.03
7 -5 -2 0.07 0.02
7 -5 -2 0.09 0.03
-7 -5 2 0.05 0.03
7 -5 -2 0.04 0.04
-7 5 2 0.03 0.02
6 -5 -2 2.11 0.11
6 -5 -2 2.17 0.11
-6 -5 2 2.03 0.09
6 -5 -2 1.93 0.1
6 -5 -2 2.02 0.09
-6 -5 2 2.21 0.1
-6 -5 2 2.22 0.12
-6 5 2 2 0.1
-6 5 2 2.03 0.1
-6 5 2 1.97 0.1
6 5 -2 2.21 0.1
6 5 -2 1.97 0.1
5 -5 -2 7.34 0.25
-5 -5 2 7.55 0.25
5 -5 -2 7.56 0.23
5 -5 -2 7.2 0.24
5 -5 -2 7.32 0.24
-5 -5 2 7.13 0.25
5 5 -2 7.49 0.26
5 5 -2 7.06 0.24
-5 5 2 7.12 0.24
-5 5 2 7.58 0.23
5 5 -2 7.45 0.24
5 5 -2 7.37 0.25
4 -5 -2 139.96 4.09
4 -5 -2 142.93 4.31
4 -5 -2 138.05 4.42
-4 -5 2 136.19 4.11
-4 -5 2 142.38 3.99
-4 -5 2 136.73 4.07
4 -5 -2 146.61 4.03
-4 -5 2 137.28 4.4
4 5 -2 142.72 4.22
-4 5 2 140.85 3.95
-4 5 2 146.8 4.02
-4 5 2 146.63 4.18
4 5 -2 138.01 4.08
-4 5 2 142.1 4.13
3 -5 -2 9.58 0.3
-3 -5 2 9.65 0.31
3 -5 -2 9.6 0.29
3 -5 -2 10.23 0.3
-3 -5 2 9.36 0.3
-3 -5 2 9.41 0.29
3 -5 -2 9.41 0.28
-3 5 2 9.45 0.29
3 5 -2 9.83 0.31
3 5 -2 9.26 0.29
3 5 -2 10.05 0.31
-3 5 2 10.01 0.33
3 5 -2 9.42 0.29
-3 5 2 9.77 0.29
-3 5 2 9.97 0.3
-2 -5 2 108.91 3.44
2 -5 -2 112.43 3.45
-2 -5 2 109.74 3.13
-2 5 2 108.55 3.13
2 5 -2 104.1 3.33
2 5 -2 106.81 3.27
-2 5 2 109.79 3.27
-2 5 2 108.21 3.21
2 5 -2 112.24 3.38
2 5 -2 110.38 3.44
-2 5 2 111.25 3.09
-2 5 2 109.81 3.26
2 5 -2 116.31 3.52
2 5 -2 110.34 3.18
-2 5 2 113.71 3.55
-1 -5 2 141.55 4.18
1 -5 -2 132.37 4.15
1 -5 -2 136.4 4.06
1 -5 -2 135.45 4.17
-1 5 2 126.58 3.75
1 5 -2 139.91 4.28
1 5 -2 131.59 4.04
1 5 -2 134.25 4.37
-1 5 2 131.96 3.96
1 5 -2 134.08 4.1
-1 5 2 129.97 3.97
1 5 -2 130.58 4.19
1 5 -2 137.24 3.81
0 -5 -2 145.37 4.43
0 -5 2 145.14 4.31
0 5 -2 131.41 3.92
0 5 -2 136.91 4.29
0 5 2 136.62 4.09
0 5 -2 139.21 4.49
0 5 2 132.75 4.07
-1 -5 -2 5.01 0.16
-1 -5 -2 4.61 0.16
1 -5 2 4.96 0.16
-1 5 -2 4.61 0.15
1 5 2 4.64 0.15
-1 5 -2 5.01 0.15
-1 5 -2 4.58 0.15
1 5 2 4.9 0.16
-1 5 -2 4.98 0.17
-2 -5 -2 11.88 0.36
2 -5 2 11.88 0.36
2 -5 2 11.86 0.38
2 -5 2 12.99 0.39
2 -5 2 12.53 0.37
-2 -5 -2 13.06 0.4
-2 -5 -2 12.45 0.36
2 -5 2 12.37 0.4
-2 5 -2 11.84 0.39
-2 5 -2 12.24 0.36
2 5 2 12.08 0.37
2 5 2 12.7 0.39
-2 5 -2 11.85 0.41
-2 5 -2 12.74 0.41
-2 5 -2 12.11 0.39
-2 5 -2 12.48 0.37
2 5 2 12.18 0.38
2 5 2 12.46 0.38
3 -5 2 91.59 2.69
-3 -5 -2 88.28 2.64
3 -5 2 88.43 2.64
3 -5 2 91.52 2.91
-3 -5 -2 94.75 2.69
3 -5 2 94.54 2.84
-3 -5 -2 97.71 2.96
-3 5 -2 89.6 2.69
3 5 2 95.59 2.84
-3 5 -2 96.83 2.65
-3 5 -2 92.14 2.91
-3 5 -2 97.84 3.03
-3 5 -2 96.34 2.62
-3 5 -2 92.45 2.98
4 -5 2 14.76 0.46
4 -5 2 14.65 0.48
4 -5 2 14.54 0.44
-4 -5 -2 13.88 0.45
4 -5 2 14.91 0.42
-4 -5 -2 14.19 0.42
-4 -5 -2 14.11 0.44
-4 5 -2 15.07 0.43
-4 5 -2 14.54 0.44
4 5 2 13.88 0.43
4 5 2 14.5 0.45
4 5 2 14.75 0.44
4 5 2 14.4 0.47
-4 5 -2 14.78 0.49
-4 5 -2 15.12 0.43
-5 -5 -2 11.82 0.38
5 -5 2 12.26 0.37
-5 -5 -2 12.72 0.36
5 -5 2 12.47 0.4
5 -5 2 11.95 0.41
-5 -5 -2 12.47 0.37
5 -5 2 11.96 0.36
5 5 2 11.47 0.37
-5 5 -2 11.56 0.41
-5 5 -2 11.47 0.36
5 5 2 11.76 0.38
-5 5 -2 11.64 0.37
-5 5 -2 11.99 0.41
-5 5 -2 12.09 0.36
5 5 2 12.26 0.37
5 5 2 11.62 0.39
6 -5 2 4.92 0.2
6 -5 2 4.92 0.19
6 -5 2 5 0.16
-6 -5 -2 5.06 0.18
-6 -5 -2 4.76 0.17
6 -5 2 4.97 0.18
-6 -5 -2 5.12 0.19
6 5 2 4.72 0.18
-6 5 -2 4.99 0.17
-6 5 -2 4.99 0.18
-6 5 -2 4.92 0.19
7 -5 2 0.13 0.03
-7 -5 -2 0.16 0.03
7 -5 2 0.13 0.03
-7 -5 -2 0.07 0.03
-7 -5 -2 0.08 0.03
7 5 2 0.22 0.07
-7 5 -2 0.16 0.04
8 -5 2 0.33 0.09
8 -5 2 0.14 0.06
8 5 2 0.22 0.07
9 -5 2 1.2 0.08
-9 -5 -2 1.32 0.08
-9 5 -2 1.12 0.08
9 5 2 0.95 0.13
-9 -6 2 1.85 0.12
9 -6 -2 1.56 0.12
-9 6 2 1.76 0.1
-8 -6 2 2.73 0.13
8 -6 -2 3.06 0.13
8 -6 -2 3.04 0.12
-8 -6 2 2.61 0.15
-8 6 2 3.11 0.13
8 6 -2 2.85 0.14
7 -6 -2 5.19 0.18
-7 -6 2 5.39 0.2
-7 -6 2 5.47 0.22
7 -6 -2 5.62 0.2
7 -6 -2 5.53 0.21
-7 -6 2 5.25 0.19
7 6 -2 5.23 0.2
-7 6 2 5.73 0.2
-7 6 2 5.56 0.2
-7 6 2 5.49 0.2
7 6 -2 4.95 0.2
-6 -6 2 1.78 0.11
6 -6 -2 1.7 0.09
6 -6 -2 1.79 0.08
6 -6 -2 1.66 0.1
6 -6 -2 1.73 0.1
-6 -6 2 1.91 0.12
-6 -6 2 1.63 0.09
6 6 -2 1.54 0.09
6 6 -2 1.68 0.1
-6 6 2 1.61 0.09
-6 6 2 1.55 0.09
-6 6 2 1.59 0.09
5 -6 -2 22.06 0.68
5 -6 -2 21.86 0.64
5 -6 -2 22.07 0.66
5 -6 -2 22.56 0.69
-5 -6 2 21.58 0.71
-5 -6 2 22.47 0.68
-5 6 2 22.03 0.66
5 6 -2 22.12 0.7
-5 6 2 22.08 0.65
-5 6 2 23.04 0.64
5 6 -2 21.58 0.66
-4 -6 2 38.58 1.05
4 -6 -2 36.6 1.08
4 -6 -2 36.32 1.13
4 -6 -2 36.85 1.05
-4 -6 2 36.13 1.08
4 -6 -2 37.63 1.16
-4 -6 2 36.74 1.1
-4 6 2 35.77 1.19
-4 6 2 38.56 1.1
4 6 -2 37.5 1.11
4 6 -2 37.95 1.14
4 6 -2 34.62 1.07
-4 6 2 36.87 1.08
-4 6 2 36.69 1.05
-4 6 2 36.22 1.06
4 6 -2 36.1 1.13
-3 -6 2 59.28 1.84
-3 -6 2 61.82 1.82
-3 -6 2 60.01 1.95
3 -6 -2 61.78 1.82
3 -6 -2 65.33 1.96
-3 -6 2 65.26 1.79
3 -6 -2 62.05 1.91
3 -6 -2 62.78 1.87
3 -6 -2 62.75 1.78
3 6 -2 61.61 1.82
3 6 -2 63.89 1.9
-3 6 2 64.34 1.77
-3 6 2 64.16 1.8
3 6 -2 65.79 1.82
-3 6 2 63.26 2.01
-2 -6 2 27.77 0.9
2 -6 -2 29.12 0.88
-2 -6 2 29.02 0.84
2 6 -2 29.14 0.92
2 6 -2 28.1 0.84
2 6 -2 27.71 0.86
2 6 -2 29.22 0.88
-2 6 2 29.66 0.86
-2 6 2 29.28 0.93
-2 6 2 28.24 0.84
1 -6 -2 60.88 1.86
-1 -6 2 57.37 1.68
1 6 -2 59.92 1.8
-1 6 2 63.39 1.92
1 6 -2 56.68 1.86
-1 6 2 62.59 1.7
-1 6 2 59.16 1.76
-1 6 2 57.48 1.86
-1 6 2 57.77 1.67
-1 6 2 56.37 1.76
1 6 -2 59.5 1.94
1 6 -2 60.24 1.69
1 6 -2 62.53 1.82
0 -6 2 5.99 0.19
0 6 -2 5.92 0.2
0 6 2 5.91 0.18
0 6 -2 5.6 0.19
0 6 2 5.47 0.18
0 6 -2 5.91 0.19
0 6 -2 5.97 0.18
0 6 2 5.61 0.18
1 -6 2 8.66 0.28
1 -6 2 8.66 0.25
-1 -6 -2 9.09 0.29
-1 -6 -2 8.98 0.28
1 -6 2 8.52 0.26
1 6 2 8.39 0.27
-1 6 -2 9.25 0.3
-1 6 -2 9.25 0.26
1 6 2 8.55 0.28
-1 6 -2 8.65 0.28
1 6 2 8.51 0.27
-1 6 -2 8.84 0.26
2 -6 2 17.48 0.51
2 -6 2 17.93 0.54
2 -6 2 17.75 0.55
2 -6 2 17.25 0.5
-2 -6 -2 16.67 0.5
-2 -6 -2 17.52 0.56
-2 -6 -2 16.86 0.51
-2 6 -2 17.62 0.5
2 6 2 18.03 0.53
2 6 2 17.57 0.54
-2 6 -2 17.24 0.51
-2 6 -2 16.87 0.58
-2 6 -2 17 0.55
-2 6 -2 16.92 0.57
-3 -6 -2 109 3.16
3 -6 2 109.71 3.41
3 -6 2 112.07 3.35
3 -6 2 111.1 3.16
-3 6 -2 113.45 3.51
-3 6 -2 104.02 3.16
-3 6 -2 108.22 3.11
-3 6 -2 108.3 3.41
-3 6 -2 109.63 3.56
-3 6 -2 111.43 3.07
4 -6 2 5.76 0.19
4 -6 2 5.92 0.21
-4 -6 -2 5.93 0.18
4 -6 2 6.06 0.21
-4 -6 -2 5.9 0.19
-4 -6 -2 5.92 0.21
4 -6 2 5.67 0.18
-4 6 -2 5.84 0.19
4 6 2 5.77 0.19
-4 6 -2 5.67 0.22
-4 6 -2 5.95 0.19
-4 6 -2 6.29 0.2
-4 6 -2 6.16 0.19
4 6 2 5.67 0.21
-5 -6 -2 4.03 0.15
5 -6 2 3.99 0.16
5 -6 2 4.02 0.16
5 -6 2 3.92 0.14
-5 -6 -2 4.17 0.16
5 -6 2 4.14 0.14
-5 -6 -2 4.17 0.14
-5 6 -2 4.09 0.14
5 6 2 4.13 0.15
5 6 2 4.18 0.15
-5 6 -2 4.14 0.16
-5 6 -2 4.07 0.17
-5 6 -2 4.07 0.15
-5 6 -2 3.86 0.17
-6 -6 -2 0.75 0.06
-6 -6 -2 0.92 0.1
-6 -6 -2 0.68 0.06
6 -6 2 0.93 0.09
6 -6 2 0.68 0.06
6 -6 2 0.79 0.07
6 -6 2 0.87 0.1
-6 6 -2 0.95 0.09
-6 6 -2 0.63 0.12
6 6 2 0.84 0.07
-6 6 -2 0.7 0.07
-6 6 -2 0.72 0.07
7 -6 2 0.4 0.07
7 -6 2 0.43 0.06
-7 -6 -2 0.45 0.07
7 -6 2 0.55 0.1
-7 -6 -2 0.48 0.06
-7 6 -2 0.4 0.07
-7 6 -2 0.37 0.08
-8 -6 -2 0.32 0.07
-8 -6 -2 0.33 0.1
8 -6 2 0.35 0.07
-8 -6 -2 0.28 0.05
-8 -6 -2 0.5 0.09
-8 6 -2 0.32 0.09
-8 6 -2 0.42 0.07
8 6 2 0.41 0.09
9 -6 2 0.02 0.02
9 -7 -2 3.78 0.15
-9 -7 2 3.7 0.18
9 -7 -2 3.89 0.15
9 7 -2 3.99 0.16
-9 7 2 3.63 0.14
-9 7 2 4.03 0.16
-8 -7 2 5.65 0.2
8 -7 -2 5.68 0.19
-8 -7 2 5.19 0.2
8 -7 -2 5.51 0.2
-8 -7 2 5.5 0.22
-8 7 2 5.44 0.22
8 7 -2 5.28 0.21
-8 7 2 5.87 0.2
-7 -7 2 7.83 0.28
-7 -7 2 7.7 0.25
7 -7 -2 7.71 0.25
7 -7 -2 7.79 0.26
7 -7 -2 7.69 0.28
-7 -7 2 7.86 0.27
7 7 -2 8.03 0.28
-7 7 2 7.41 0.26
-7 7 2 8.13 0.26
6 -7 -2 7.97 0.28
-6 -7 2 7.74 0.29
6 -7 -2 8.08 0.27
6 -7 -2 7.74 0.28
-6 -7 2 8.41 0.29
6 -7 -2 8.46 0.26
-6 -7 2 8.58 0.26
-6 -7 2 8.42 0.27
-6 7 2 7.72 0.26
6 7 -2 8.43 0.29
6 7 -2 7.87 0.28
-6 7 2 8.04 0.27
-6 7 2 8.37 0.26
5 -7 -2 36.87 1.18
-5 -7 2 37.57 1.21
-5 -7 2 38.7 1.15
5 -7 -2 37.8 1.1
-5 -7 2 40.12 1.1
5 -7 -2 36.4 1.21
5 -7 -2 38.65 1.16
5 7 -2 37.99 1.16
5 7 -2 38.22 1.12
5 7 -2 38.27 1.12
-5 7 2 39.59 1.1
-5 7 2 38.1 1.11
-5 7 2 40.48 1.13
4 -7 -2 6.21 0.2
-4 -7 2 5.52 0.21
-4 -7 2 5.81 0.21
4 -7 -2 5.82 0.19
-4 -7 2 5.94 0.19
-4 -7 2 5.77 0.19
4 -7 -2 5.9 0.2
4 -7 -2 5.79 0.18
4 -7 -2 5.68 0.2
4 7 -2 6 0.2
4 7 -2 5.51 0.19
-4 7 2 6.15 0.19
-4 7 2 5.84 0.19
-4 7 2 6.09 0.2
4 7 -2 6.2 0.2
4 7 -2 5.73 0.21
-4 7 2 5.93 0.19
3 -7 -2 83.43 2.43
-3 -7 2 85.25 2.62
3 -7 -2 83.45 2.38
3 -7 -2 81.65 2.64
3 7 -2 85.98 2.43
-3 7 2 82.52 2.68
-3 7 2 85.62 2.36
3 7 -2 86.37 2.5
-3 7 2 83.12 2.4
-3 7 2 83.79 2.48
2 -7 -2 0.95 0.04
-2 -7 2 0.86 0.04
2 7 -2 0.8 0.05
2 7 -2 1.01 0.05
-2 7 2 0.86 0.05
-2 7 2 0.92 0.05
-2 7 2 0.89 0.04
2 7 -2 0.89 0.05
-2 7 2 0.89 0.06
2 7 -2 0.93 0.04
-1 -7 2 33.21 1.03
1 -7 -2 31.91 1.03
1 7 -2 32.8 1.01
1 7 -2 34.95 1.02
-1 7 2 31.59 0.98
-1 7 2 34.09 1.06
-1 7 2 31.12 1
-1 7 2 31.89 1.04
-1 7 2 31.97 0.96
-1 7 2 34.5 0.95
-1 7 2 34.11 0.99
-1 7 2 34.45 0.94
0 -7 2 43.43 1.27
0 -7 2 39.78 1.18
0 7 -2 39.7 1.15
0 7 -2 42.29 1.34
0 7 -2 40.61 1.26
0 7 2 41.36 1.16
0 7 2 38.79 1.28
0 7 2 40.5 1.24
0 7 2 40.99 1.19
0 7 -2 42.79 1.24
0 7 -2 41.37 1.31
0 7 2 40.56 1.21
0 7 2 41.32 1.22
0 7 2 41.49 1.17
0 7 -2 42.43 1.17
0 7 -2 38.66 1.28
1 -7 2 18.64 0.56
1 -7 2 20.57 0.62
-1 -7 -2 20.39 0.64
1 7 2 20.6 0.59
-1 7 -2 20.4 0.58
-1 7 -2 19.24 0.65
1 7 2 18.86 0.56
-1 7 -2 18.39 0.62
-1 7 -2 19.2 0.56
-1 7 -2 20.43 0.64
1 7 2 19.36 0.58
1 7 2 18.87 0.59
1 7 2 19.72 0.6
2 -7 2 84.69 2.6
-2 -7 -2 86.14 2.72
2 -7 2 88.97 2.67
2 -7 2 81 2.66
2 -7 2 83.96 2.46
-2 -7 -2 80.91 2.42
-2 -7 -2 83.22 2.46
2 -7 2 86.5 2.42
-2 7 -2 86.7 2.66
2 7 2 88.45 2.58
-2 7 -2 84.69 2.48
-2 7 -2 86.76 2.43
-2 7 -2 89.36 2.78
3 -7 2 94.46 2.77
3 -7 2 91.13 2.84
3 -7 2 90.95 2.58
3 -7 2 87.3 2.63
-3 -7 -2 88.42 2.63
-3 7 -2 91.89 2.91
-3 7 -2 91.65 2.56
3 7 2 93.13 2.63
3 7 2 89.48 2.71
-3 7 -2 90.65 2.96
3 7 2 91.73 2.75
-3 7 -2 93.08 2.65
-3 7 -2 92.11 2.59
-3 7 -2 90.38 2.84
-4 -7 -2 7.35 0.22
-4 -7 -2 7.09 0.23
4 -7 2 7.17 0.23
4 -7 2 7.33 0.22
4 -7 2 7.34 0.26
4 -7 2 7.05 0.25
-4 7 -2 7.42 0.23
-4 7 -2 7.16 0.25
-4 7 -2 7.53 0.27
-4 7 -2 7.41 0.23
4 7 2 7.09 0.24
4 7 2 7.51 0.24
-4 7 -2 7.22 0.23
-4 7 -2 7.38 0.26
-5 -7 -2 0.4 0.1
5 -7 2 0.48 0.05
5 -7 2 0.53 0.05
-5 -7 -2 0.53 0.05
-5 -7 -2 0.44 0.05
-5 7 -2 0.5 0.06
-5 7 -2 0.4 0.07
5 7 2 0.44 0.06
-5 7 -2 0.58 0.05
-5 7 -2 0.52 0.06
6 -7 2 2.31 0.14
6 -7 2 2.22 0.1
6 -7 2 2.07 0.09
-6 -7 -2 2.16 0.14
-6 -7 -2 2.41 0.1
-6 -7 -2 2.31 0.1
6 -7 2 2.25 0.13
6 7 2 2.3 0.11
-6 7 -2 2.22 0.12
-6 7 -2 2.2 0.11
-6 7 -2 2.14 0.1
-7 -7 -2 1.36 0.09
-7 -7 -2 1.2 0.14
7 -7 2 1.35 0.08
7 -7 2 1.38 0.13
7 -7 2 1.39 0.08
-7 7 -2 1.35 0.09
7 7 2 1.4 0.1
-7 7 -2 1.21 0.1
-8 -7 -2 0 0.05
8 -7 2 0.05 0.03
-8 -7 -2 0.04 0.03
-8 -7 -2 0.03 0.03
-8 7 -2 0.03 0.02
-8 7 -2 0.09 0.05
8 7 2 0.06 0.03
9 -7 2 0.2 0.06
-9 7 -2 0.16 0.03
-9 -8 2 0.76 0.07
-9 -8 2 0.6 0.15
9 -8 -2 0.69 0.07
-9 8 2 0.64 0.07
8 -8 -2 6.64 0.23
8 -8 -2 6.63 0.21
-8 -8 2 6.99 0.23
-8 -8 2 6.25 0.22
-8 -8 2 6.39 0.26
-8 8 2 6.38 0.22
7 -8 -2 5.61 0.2
-7 -8 2 5.73 0.19
-7 -8 2 5.69 0.21
-7 -8 2 5.84 0.23
7 -8 -2 5.48 0.19
-7 8 2 5.18 0.22
-7 8 2 5.72 0.2
7 8 -2 5.75 0.21
-7 8 2 5.71 0.2
-7 8 2 5.44 0.2
6 -8 -2 16.25 0.49
6 -8 -2 15.76 0.52
-6 -8 2 15.92 0.55
6 -8 -2 16.9 0.5
-6 -8 2 17.19 0.49
-6 -8 2 15.42 0.52
-6 -8 2 16.2 0.5
-6 8 2 16.81 0.5
6 8 -2 16.32 0.52
-6 8 2 16.91 0.5
6 8 -2 15.49 0.5
-6 8 2 16.38 0.49
-5 -8 2 5.88 0.22
5 -8 -2 5.61 0.21
-5 -8 2 5.72 0.19
5 -8 -2 5.51 0.2
5 -8 -2 5.91 0.19
5 -8 -2 5.79 0.2
5 8 -2 5.79 0.21
-5 8 2 5.98 0.19
-5 8 2 5.8 0.19
-5 8 2 5.76 0.2
4 -8 -2 17.91 0.51
-4 -8 2 17.19 0.54
-4 -8 2 18.18 0.52
-4 -8 2 17.33 0.56
-4 -8 2 17.92 0.51
4 -8 -2 17.05 0.53
4 -8 -2 17.63 0.52
4 -8 -2 16.82 0.54
4 -8 -2 16.45 0.56
4 8 -2 17.36 0.52
-4 8 2 17.43 0.58
4 8 -2 16.91 0.56
4 8 -2 17.06 0.54
-4 8 2 17.72 0.54
-4 8 2 17.4 0.51
4 8 -2 17.29 0.55
-4 8 2 16.9 0.52
-4 8 2 17.79 0.52
-3 -8 2 2 0.08
3 -8 -2 2.02 0.08
-3 -8 2 1.91 0.09
3 -8 -2 1.95 0.07
3 -8 -2 2.02 0.08
-3 -8 2 1.93 0.07
-3 -8 2 1.73 0.12
3 -8 -2 1.88 0.08
-3 8 2 1.97 0.08
3 8 -2 2.07 0.08
3 8 -2 1.78 0.08
-3 8 2 1.79 0.09
3 8 -2 1.97 0.08
3 8 -2 1.87 0.09
-3 8 2 1.92 0.08
-3 8 2 1.87 0.08
2 -8 -2 0.77 0.04
2 -8 -2 0.76 0.05
2 -8 -2 0.83 0.04
-2 -8 2 0.76 0.04
-2 -8 2 0.85 0.04
-2 -8 2 0.76 0.05
2 8 -2 0.8 0.05
-2 8 2 0.86 0.05
2 8 -2 0.84 0.05
2 8 -2 0.85 0.06
2 8 -2 0.75 0.05
-2 8 2 0.71 0.06
-1 -8 2 6.39 0.2
1 -8 -2 7.1 0.22
-1 8 2 6.69 0.2
1 8 -2 6.79 0.23
1 8 -2 6.76 0.21
1 8 -2 6.97 0.22
-1 8 2 6.9 0.21
1 8 -2 6.61 0.22
-1 8 2 6.58 0.22
-1 8 2 6.45 0.21
-1 8 2 6.85 0.21
-1 8 2 6.79 0.23
-1 8 2 6.5 0.22
0 -8 2 14.96 0.44
0 -8 2 15.03 0.45
0 8 -2 14.93 0.51
0 8 -2 15.3 0.48
0 8 -2 15.31 0.5
0 8 2 15.16 0.44
0 8 2 15.31 0.46
0 8 2 15.71 0.45
0 8 2 15.69 0.45
0 8 -2 15.44 0.44
0 8 2 15.46 0.47
0 8 -2 14.38 0.44
0 8 2 14.77 0.46
1 -8 2 7.17 0.24
1 -8 2 7.24 0.22
1 -8 2 6.94 0.21
1 -8 2 7.49 0.23
1 8 2 7.2 0.24
1 8 2 6.82 0.22
-1 8 -2 7.26 0.22
1 8 2 7.16 0.22
1 8 2 7.3 0.23
-1 8 -2 7.38 0.25
1 8 2 7.29 0.23
-1 8 -2 7.28 0.22
2 -8 2 91.72 2.74
2 -8 2 90.64 2.78
-2 -8 -2 88.79 2.6
2 -8 2 94.07 2.81
-2 -8 -2 91.09 2.87
2 -8 2 93.35 2.55
2 -8 2 91.87 2.6
-2 -8 -2 84.42 2.55
-2 8 -2 86.17 2.81
-2 8 -2 92.16 2.93
2 8 2 90.47 2.72
2 8 2 84.86 2.52
-2 8 -2 91.64 2.88
3 -8 2 11.36 0.34
3 -8 2 11.79 0.38
-3 -8 -2 11.14 0.33
3 -8 2 11.32 0.33
3 8 2 11.05 0.36
-3 8 -2 11.06 0.34
-3 8 -2 11.28 0.34
-3 8 -2 11.38 0.39
3 8 2 11.49 0.36
3 8 2 10.97 0.35
-3 8 -2 11.39 0.37
-3 8 -2 11.4 0.34
4 -8 2 4.71 0.16
4 -8 2 4.58 0.15
-4 -8 -2 4.58 0.16
4 -8 2 4.68 0.18
4 -8 2 4.53 0.17
-4 -8 -2 4.56 0.15
-4 8 -2 4.67 0.16
-4 8 -2 4.61 0.16
-4 8 -2 4.54 0.16
-4 8 -2 4.81 0.17
4 8 2 4.81 0.17
-4 8 -2 4.36 0.18
4 8 2 4.6 0.16
5 -8 2 1.15 0.09
-5 -8 -2 1.2 0.07
-5 -8 -2 1.12 0.06
5 -8 2 1.29 0.07
5 -8 2 1.21 0.09
5 -8 2 1.15 0.06
5 8 2 1.19 0.08
-5 8 -2 1.28 0.07
-5 8 -2 1.26 0.07
5 8 2 1.29 0.08
-5 8 -2 1.29 0.08
-5 8 -2 1.16 0.09
6 -8 2 10.2 0.35
6 -8 2 9.35 0.36
-6 8 -2 9.21 0.38
-6 8 -2 9.93 0.34
-6 8 -2 10.33 0.31
6 8 2 10.06 0.32
-7 -8 -2 0.73 0.07
7 -8 2 0.78 0.07
7 -8 2 0.82 0.07
7 -8 2 0.68 0.12
-7 -8 -2 0.81 0.17
-7 8 -2 0.78 0.08
-7 8 -2 0.74 0.08
7 8 2 0.91 0.09
7 8 2 0.69 0.09
8 -8 2 2.32 0.1
8 -8 2 2.09 0.11
-8 -8 -2 2.41 0.11
-8 -8 -2 2.37 0.11
-8 8 -2 2.16 0.13
8 8 2 1.99 0.11
-8 8 -2 2.28 0.11
9 -8 2 0.37 0.06
-9 -8 -2 0.45 0.06
-9 8 -2 0.35 0.09
9 -9 -2 0.12 0.03
9 -9 -2 0.12 0.03
-9 9 2 0.14 0.03
9 9 -2 0.06 0.03
-8 -9 2 14.07 0.42
8 -9 -2 13.47 0.4
8 -9 -2 13.49 0.42
-8 -9 2 12.99 0.41
8 9 -2 12.93 0.43
-8 9 2 13.85 0.45
-8 9 2 12.84 0.41
7 -9 -2 9.22 0.3
-7 -9 2 9.13 0.3
-7 -9 2 8.73 0.29
-7 -9 2 9.09 0.33
7 -9 -2 9.32 0.29
-7 9 2 9.18 0.33
-7 9 2 8.95 0.29
-7 9 2 9.37 0.29
7 9 -2 9.12 0.31
-7 9 2 9.08 0.3
-6 -9 2 45.98 1.41
-6 -9 2 45.13 1.49
-6 9 2 49.6 1.39
-5 -9 2 2.93 0.17
5 -9 -2 2.89 0.14
-5 -9 2 3.3 0.13
5 -9 -2 2.8 0.14
5 -9 -2 3.04 0.11
5 -9 -2 2.97 0.13
5 -9 -2 3.17 0.12
-5 9 2 3.23 0.12
5 9 -2 3.2 0.13
-5 9 2 3.09 0.12
5 9 -2 2.93 0.13
-5 9 2 3.11 0.11
4 -9 -2 16.9 0.58
4 -9 -2 19.02 0.54
4 -9 -2 17.07 0.56
4 -9 -2 17.04 0.52
4 -9 -2 17.19 0.55
-4 -9 2 17.79 0.58
-4 -9 2 18.07 0.54
-4 -9 2 18.68 0.52
-4 9 2 17.83 0.53
4 9 -2 18.32 0.54
-4 9 2 18.48 0.55
4 9 -2 18.1 0.58
-4 9 2 17.96 0.53
-4 9 2 17.56 0.6
-4 9 2 18.31 0.54
4 9 -2 18.97 0.56
4 9 -2 17.27 0.56
-4 9 2 18.04 0.58
-3 -9 2 3.81 0.13
3 -9 -2 3.54 0.13
3 -9 -2 3.61 0.13
3 -9 -2 3.42 0.11
-3 -9 2 3.67 0.12
3 -9 -2 3.83 0.13
-3 -9 2 3.52 0.14
3 9 -2 3.71 0.13
-3 9 2 3.48 0.14
-3 9 2 3.55 0.13
3 9 -2 3.64 0.14
-3 9 2 3.72 0.13
-3 9 2 3.44 0.14
-3 9 2 3.67 0.13
3 9 -2 3.61 0.13
-3 9 2 3.41 0.13
3 9 -2 3.52 0.13
-2 -9 2 41.33 1.29
2 -9 -2 41.63 1.26
-2 -9 2 42.79 1.17
2 -9 -2 39.91 1.29
2 9 -2 42.02 1.32
-2 9 2 39.44 1.33
-2 9 2 40.15 1.3
-2 9 2 41.75 1.23
2 9 -2 43.54 1.2
2 9 -2 40.16 1.23
2 9 -2 41.52 1.27
-2 9 2 41.13 1.17
-2 9 2 41.36 1.19
2 9 -2 40.27 1.26
-1 -9 2 80.76 2.48
-1 -9 2 86.95 2.68
1 -9 -2 87.45 2.7
1 9 -2 86.5 2.6
1 9 -2 88.22 2.76
-1 9 2 87.68 2.48
-1 9 2 84.09 2.6
-1 9 2 87.83 2.76
0 -9 2 31.46 1
0 -9 2 32.13 0.91
0 9 2 32.5 0.91
0 9 -2 30.91 0.91
0 9 2 31.32 0.94
0 9 2 32.34 0.92
0 9 -2 32.88 1.04
0 9 -2 32.65 0.99
0 9 2 33.03 0.98
1 -9 2 7.53 0.23
1 -9 2 7.78 0.24
1 -9 2 7.84 0.26
1 9 2 7.87 0.24
1 9 2 8.47 0.26
1 9 2 8.07 0.24
1 9 2 8 0.25
1 9 2 7.68 0.26
-1 9 -2 8.31 0.28
-2 -9 -2 0.47 0.04
2 -9 2 0.41 0.04
2 -9 2 0.47 0.04
2 -9 2 0.44 0.03
-2 -9 -2 0.42 0.03
-2 9 -2 0.55 0.04
-2 9 -2 0.5 0.04
2 9 2 0.49 0.06
-2 9 -2 0.49 0.04
2 9 2 0.58 0.04
-2 9 -2 0.52 0.06
-2 9 -2 0.52 0.03
2 9 2 0.46 0.05
3 -9 2 6.21 0.2
3 -9 2 6.16 0.21
3 -9 2 6.21 0.19
-3 -9 -2 5.88 0.19
3 -9 2 6.09 0.22
-3 -9 -2 6.15 0.2
-3 9 -2 6.12 0.19
3 9 2 6.06 0.21
3 9 2 6.28 0.21
-3 9 -2 6.38 0.2
-3 9 -2 6.16 0.2
-3 9 -2 6.29 0.23
3 9 2 6.08 0.21
-3 9 -2 6.1 0.21
3 9 2 6.25 0.2
-3 9 -2 6.35 0.23
-4 -9 -2 1.92 0.08
4 -9 2 1.86 0.07
4 -9 2 2.01 0.08
4 -9 2 1.88 0.1
4 -9 2 1.91 0.1
-4 9 -2 1.79 0.08
-4 9 -2 2.02 0.1
-4 9 -2 1.9 0.08
4 9 2 1.83 0.09
-4 9 -2 1.85 0.12
-4 9 -2 1.95 0.09
-4 9 -2 1.88 0.09
5 -9 2 0.59 0.07
-5 -9 -2 0.58 0.06
5 -9 2 0.58 0.05
5 -9 2 0.56 0.08
-5 -9 -2 0.61 0.05
5 -9 2 0.77 0.06
5 9 2 0.61 0.07
-5 9 -2 0.71 0.06
5 9 2 0.65 0.06
-5 9 -2 0.75 0.06
-5 9 -2 0.77 0.06
-5 9 -2 0.68 0.09
6 -9 2 3.16 0.12
-6 -9 -2 3.02 0.13
6 -9 2 3.06 0.13
6 -9 2 3.11 0.16
-6 -9 -2 3.09 0.12
6 9 2 3.09 0.14
-6 9 -2 3.16 0.13
-6 9 -2 3.03 0.14
6 9 2 3.12 0.14
-7 -9 -2 4.06 0.15
-7 -9 -2 3.87 0.14
7 -9 2 4.02 0.15
7 -9 2 3.77 0.14
7 -9 2 3.61 0.2
7 9 2 3.75 0.16
-7 9 -2 3.73 0.15
-7 9 -2 3.88 0.17
-8 -9 -2 0.01 0.02
-8 -9 -2 -0.01 0.03
8 -9 2 0.06 0.02
8 -9 2 0.03 0.03
-8 -9 -2 0.04 0.03
8 9 2 0.03 0.03
-8 9 -2 0.07 0.05
9 -9 2 0.34 0.06
-9 -9 -2 0.4 0.06
9 9 2 0.49 0.08
9 -10 -2 0.32 0.07
9 -10 -2 0.15 0.03
9 10 -2 0.21 0.06
-9 10 2 0.28 0.06
-8 -10 2 2.52 0.13
-8 -10 2 2.47 0.11
8 -10 -2 2.43 0.11
8 -10 -2 2.59 0.1
8 10 -2 2.52 0.12
-8 10 2 2.49 0.12
-7 -10 2 4.48 0.17
7 -10 -2 4.39 0.17
7 -10 -2 4.68 0.16
-7 -10 2 4.68 0.16
-7 10 2 4.3 0.18
-7 10 2 4.27 0.16
7 10 -2 4.31 0.18
-7 10 2 4.55 0.17
-7 10 2 4.22 0.19
-7 10 2 4.47 0.17
-6 -10 2 9.72 0.31
6 -10 -2 9.64 0.29
-6 -10 2 9.72 0.3
6 -10 -2 9.35 0.31
-6 10 2 8.99 0.3
6 10 -2 9.4 0.32
-6 10 2 9.11 0.34
-6 10 2 8.78 0.3
-6 10 2 9.69 0.3
5 -10 -2 6.36 0.21
-5 -10 2 6.55 0.24
5 -10 -2 6.76 0.22
-5 -10 2 6.88 0.22
-5 10 2 6.62 0.22
-5 10 2 6.7 0.21
5 10 -2 6.92 0.24
-5 10 2 7.01 0.25
-5 10 2 6.58 0.23
-4 -10 2 3.09 0.13
-4 -10 2 3.17 0.12
4 -10 -2 3.16 0.12
4 -10 -2 3.15 0.13
4 -10 -2 3.26 0.11
4 -10 -2 3.41 0.14
-4 -10 2 3.08 0.11
-4 10 2 2.99 0.12
-4 10 2 3.3 0.13
4 10 -2 3.14 0.13
-4 10 2 3.2 0.13
4 10 -2 3.35 0.13
-4 10 2 3.21 0.13
4 10 -2 2.99 0.14
-4 10 2 3.16 0.13
4 10 -2 3.43 0.13
-4 10 2 3.19 0.11
3 -10 -2 22.57 0.68
-3 -10 2 22.46 0.7
-3 -10 2 23.11 0.65
3 -10 -2 20.94 0.67
-3 -10 2 22.69 0.64
-3 10 2 22.07 0.65
-3 10 2 22.43 0.73
-3 10 2 20.8 0.64
-3 10 2 22.24 0.67
-3 10 2 20.71 0.71
-3 10 2 22.21 0.68
3 10 -2 22.15 0.7
3 10 -2 21.9 0.68
3 10 -2 22.66 0.67
3 10 -2 21.93 0.66
-3 10 2 21.18 0.67
2 -10 -2 23.97 0.76
-2 -10 2 25.78 0.71
-2 -10 2 24.99 0.78
2 -10 -2 25.82 0.78
2 10 -2 25.1 0.78
2 10 -2 25.05 0.8
-2 10 2 24.92 0.75
2 10 -2 24.01 0.75
-2 10 2 24.8 0.81
-2 10 2 24.05 0.72
-2 10 2 24.05 0.71
2 10 -2 24.54 0.76
2 10 -2 24.16 0.73
-2 10 2 24.04 0.73
-2 10 2 24.61 0.79
-2 10 2 24.88 0.74
-1 -10 2 1.86 0.06
1 -10 -2 1.85 0.07
-1 -10 2 1.89 0.07
1 -10 -2 1.87 0.07
-1 -10 2 1.81 0.08
1 10 -2 1.72 0.09
-1 10 2 1.86 0.09
1 10 -2 1.98 0.08
1 10 -2 1.8 0.08
-1 10 2 1.7 0.08
-1 10 2 1.83 0.08
-1 10 2 1.83 0.07
1 10 -2 1.77 0.08
0 -10 2 22.56 0.69
0 -10 2 21.67 0.62
0 -10 2 20.66 0.64
0 10 -2 21.97 0.7
0 10 -2 22.69 0.65
0 10 2 22.33 0.66
0 10 -2 22.38 0.64
0 10 -2 22.41 0.68
0 10 -2 21.46 0.62
0 10 2 20.63 0.65
0 10 -2 21.56 0.68
1 -10 2 6.49 0.21
1 -10 2 6.9 0.23
1 -10 2 6.49 0.21
1 -10 2 6.93 0.24
1 10 2 7.18 0.22
-1 10 -2 7.3 0.25
1 10 2 7.16 0.22
-1 10 -2 7.32 0.25
1 10 2 6.92 0.21
-1 10 -2 7.14 0.22
1 10 2 6.89 0.23
1 10 2 6.55 0.23
-1 10 -2 7.22 0.23
2 -10 2 26.98 0.79
-2 -10 -2 26.47 0.81
2 -10 2 26.66 0.86
2 -10 2 28.68 0.87
-2 -10 -2 26.87 0.79
-2 10 -2 28.73 0.88
-2 10 -2 26.97 0.79
2 10 2 26.95 0.85
-2 10 -2 29.08 0.92
2 10 2 27.95 0.82
2 10 2 28.76 0.83
2 10 2 28.7 0.84
-2 10 -2 28.29 0.8
-2 10 -2 26.92 0.91
-2 10 -2 27.93 0.86
3 -10 2 1.85 0.07
-3 -10 -2 1.81 0.08
3 -10 2 1.85 0.09
3 -10 2 1.91 0.08
3 -10 2 1.87 0.09
-3 -10 -2 1.84 0.07
-3 10 -2 1.85 0.08
3 10 2 2.01 0.09
3 10 2 1.91 0.09
-3 10 -2 1.81 0.07
3 10 2 2.04 0.09
-3 10 -2 2.01 0.09
-3 10 -2 1.8 0.08
-3 10 -2 1.73 0.1
-3 10 -2 1.79 0.1
4 -10 2 3.59 0.15
-4 -10 -2 3.39 0.13
4 -10 2 3.61 0.14
4 -10 2 3.44 0.12
4 -10 2 3.54 0.13
4 10 2 3.35 0.14
4 10 2 3.45 0.13
-4 10 -2 3.51 0.13
-4 10 -2 3.38 0.13
-4 10 -2 3.31 0.12
4 10 2 3.61 0.14
-4 10 -2 3.26 0.14
5 -10 2 12.46 0.38
5 -10 2 12.54 0.39
5 -10 2 11.97 0.44
-5 -10 -2 12.65 0.39
5 -10 2 12.99 0.42
-5 -10 -2 12.84 0.38
5 10 2 13.24 0.4
5 10 2 12.19 0.41
-5 10 -2 12.41 0.39
5 10 2 12.56 0.41
-5 10 -2 12.77 0.39
-5 10 -2 12.37 0.45
-6 -10 -2 4.15 0.15
-6 -10 -2 4.39 0.16
6 -10 2 4.5 0.15
6 -10 2 4.4 0.16
6 10 2 4.05 0.17
-6 10 -2 4.49 0.16
6 10 2 4.27 0.17
-6 10 -2 4.36 0.16
-6 10 -2 4.42 0.18
-7 -10 -2 1.98 0.09
7 -10 2 1.86 0.09
7 -10 2 1.84 0.1
-7 -10 -2 1.95 0.1
7 10 2 1.79 0.11
-7 10 -2 1.78 0.1
-7 10 -2 2.04 0.11
8 -10 2 0.54 0.07
-8 -10 -2 0.44 0.06
8 -10 2 0.37 0.06
8 -11 -2 2.23 0.11
-8 -11 2 2.36 0.11
8 -11 -2 2.27 0.1
-8 11 2 2.37 0.11
-7 -11 2 4.11 0.15
7 -11 -2 4.28 0.16
7 -11 -2 4.43 0.15
-7 11 2 4.08 0.16
7 11 -2 3.88 0.17
-7 11 2 4.24 0.18
-7 11 2 4.11 0.16
6 -11 -2 14.86 0.45
-6 -11 2 14.67 0.46
-6 -11 2 14.86 0.44
6 -11 -2 14.98 0.44
-6 11 2 13.94 0.49
6 11 -2 14.28 0.47
-6 11 2 14.86 0.45
6 11 -2 14.73 0.46
-6 11 2 14.63 0.48
5 -11 -2 5.37 0.19
-5 -11 2 5.43 0.18
-5 -11 2 5.07 0.21
5 -11 -2 5.37 0.18
-5 11 2 5.79 0.21
-5 11 2 5.4 0.19
5 11 -2 5.29 0.2
-5 11 2 5.79 0.2
5 11 -2 5.26 0.2
-5 11 2 5.6 0.2
-4 -11 2 8.82 0.27
4 -11 -2 8.84 0.27
4 -11 -2 8.3 0.26
-4 -11 2 8.8 0.26
-4 -11 2 8.36 0.29
4 11 -2 8.11 0.28
-4 11 2 8.1 0.28
-4 11 2 8.27 0.27
4 11 -2 8.24 0.27
-4 11 2 8.43 0.28
-4 11 2 8.08 0.27
4 11 -2 8.52 0.29
-3 -11 2 3.55 0.12
3 -11 -2 3.57 0.13
3 -11 -2 3.36 0.12
-3 -11 2 3.48 0.14
3 -11 -2 3.73 0.14
-3 -11 2 3.54 0.13
3 -11 -2 3.36 0.14
-3 11 2 3.69 0.13
3 11 -2 3.41 0.14
-3 11 2 3.42 0.13
-3 11 2 3.53 0.15
-3 11 2 3.53 0.14
-3 11 2 3.67 0.13
3 11 -2 3.72 0.14
3 11 -2 3.42 0.14
3 11 -2 3.38 0.14
-3 11 2 3.54 0.14
3 11 -2 3.55 0.14
-3 11 2 3.45 0.13
2 -11 -2 4.32 0.15
-2 -11 2 4.42 0.15
-2 -11 2 4.15 0.14
-2 -11 2 4.28 0.16
2 -11 -2 4.46 0.15
-2 11 2 4.29 0.17
-2 11 2 4.44 0.15
-2 11 2 4.46 0.15
2 11 -2 4.4 0.16
-2 11 2 4.4 0.15
2 11 -2 4.36 0.15
2 11 -2 4.25 0.16
2 11 -2 4.15 0.16
-2 11 2 4.39 0.15
-2 11 2 4.54 0.16
-2 11 2 4.21 0.15
1 -11 -2 23.7 0.79
-1 -11 2 24.74 0.73
-1 -11 2 24.37 0.71
-1 11 2 24.97 0.75
1 11 -2 25.16 0.78
1 11 -2 26.09 0.74
-1 11 2 25 0.74
-1 11 2 24.03 0.75
-1 11 2 25.35 0.77
1 11 -2 24.35 0.8
1 11 -2 25.63 0.77
1 11 -2 24.9 0.73
-1 11 2 26.4 0.73
-1 11 2 25.72 0.72
0 -11 2 4.4 0.15
0 -11 2 4.19 0.13
0 -11 2 4.1 0.14
0 11 -2 4.4 0.16
0 11 -2 4.23 0.16
0 11 2 4.21 0.14
0 11 2 4.17 0.15
0 11 -2 4.45 0.14
0 11 2 4.39 0.15
0 11 -2 4.19 0.15
0 11 2 4.29 0.14
0 11 2 3.92 0.14
0 11 -2 4.04 0.15
1 -11 2 23.96 0.73
1 -11 2 22.59 0.67
1 -11 2 23.65 0.73
1 -11 2 22.78 0.66
1 11 2 22.99 0.68
1 11 2 23.04 0.71
1 11 2 23.38 0.7
-1 11 -2 23.21 0.66
1 11 2 22.71 0.7
-1 11 -2 22.74 0.73
-1 11 -2 21.62 0.77
-1 11 -2 23.95 0.69
-1 11 -2 22.77 0.76
-1 11 -2 23.66 0.67
-1 11 -2 22.35 0.71
2 -11 2 13.36 0.39
2 -11 2 12.93 0.38
-2 -11 -2 12.83 0.39
-2 -11 -2 12.48 0.38
2 -11 2 13.39 0.43
2 -11 2 13.01 0.42
2 -11 2 13.73 0.42
-2 11 -2 13.12 0.39
-2 11 -2 12.9 0.45
2 11 2 13.07 0.4
2 11 2 12.98 0.42
2 11 2 13.03 0.41
-2 11 -2 13.13 0.39
-2 11 -2 13.1 0.42
-2 11 -2 13.7 0.43
-2 11 -2 13.16 0.45
2 11 2 12.69 0.43
-3 -11 -2 6.12 0.2
3 -11 2 6.22 0.22
3 -11 2 6.17 0.2
3 -11 2 6.15 0.19
3 -11 2 6.18 0.22
-3 -11 -2 6.15 0.19
3 11 2 6.07 0.21
-3 11 -2 6.01 0.2
-3 11 -2 5.78 0.2
3 11 2 6.13 0.21
-3 11 -2 5.92 0.19
-3 11 -2 6.13 0.23
-3 11 -2 5.84 0.21
3 11 2 6.14 0.21
4 -11 2 5.69 0.22
4 -11 2 5.84 0.21
4 -11 2 5.53 0.19
-4 -11 -2 5.3 0.19
4 -11 2 5.6 0.18
-4 11 -2 5.68 0.21
-4 11 -2 5.54 0.22
4 11 2 5.79 0.2
-4 11 -2 5.85 0.19
-4 11 -2 5.33 0.18
-4 11 -2 5.77 0.19
4 11 2 5.77 0.2
5 -11 2 2.85 0.15
-5 -11 -2 3.08 0.12
-5 -11 -2 2.99 0.11
5 -11 2 2.85 0.11
5 -11 2 3.02 0.12
-5 11 -2 3.02 0.13
-5 11 -2 2.88 0.16
5 11 2 2.92 0.13
-5 11 -2 2.82 0.12
5 11 2 3.05 0.14
6 -11 2 0.37 0.06
-6 -11 -2 0.23 0.06
6 -11 2 0.36 0.06
6 -11 2 0.39 0.11
-6 11 -2 0.48 0.08
-6 11 -2 0.33 0.07
6 11 2 0.36 0.08
7 -11 2 0.33 0.06
-7 -11 -2 0.26 0.07
7 -11 2 0.36 0.06
-7 -11 -2 0.35 0.06
-7 11 -2 0.42 0.08
7 11 2 0.35 0.07
-8 -11 -2 0.3 0.09
-8 -11 -2 0.5 0.07
8 -11 2 0.46 0.06
8 11 2 0.37 0.08
-8 11 -2 0.33 0.09
8 -12 -2 0.2 0.05
-8 12 2 0.08 0.06
8 12 -2 0.27 0.07
7 -12 -2 0.82 0.07
-7 -12 2 0.72 0.07
7 -12 -2 0.62 0.08
-7 -12 2 0.93 0.08
-7 12 2 0.76 0.08
-7 12 2 0.71 0.08
-7 12 2 0.89 0.08
7 12 -2 0.8 0.09
-6 -12 2 4.33 0.17
6 -12 -2 4.12 0.16
-6 -12 2 4.23 0.16
6 -12 -2 4.37 0.15
6 12 -2 4.05 0.17
6 12 -2 4.18 0.17
-6 12 2 4.39 0.19
-6 12 2 4.38 0.16
-6 12 2 4.37 0.18
-6 12 2 4.58 0.17
5 -12 -2 1.81 0.1
-5 -12 2 1.71 0.11
-5 12 2 2.04 0.12
5 12 -2 2.09 0.12
5 12 -2 1.86 0.11
-4 -12 2 7.76 0.26
4 -12 -2 7.78 0.24
-4 -12 2 8.25 0.25
4 -12 -2 7.82 0.26
4 12 -2 7.84 0.27
-4 12 2 8.12 0.28
-4 12 2 8.1 0.26
4 12 -2 7.94 0.26
-4 12 2 8.33 0.27
4 12 -2 7.56 0.27
-4 12 2 7.76 0.26
-4 12 2 7.8 0.27
3 -12 -2 1.94 0.11
3 -12 -2 2 0.08
-3 -12 2 2.17 0.09
-3 -12 2 1.86 0.08
3 -12 -2 2.02 0.1
3 -12 -2 1.85 0.1
-3 12 2 2.08 0.1
3 12 -2 2 0.1
3 12 -2 1.91 0.1
-3 12 2 2.11 0.1
3 12 -2 2.15 0.1
-3 12 2 2.02 0.09
-3 12 2 1.92 0.09
-3 12 2 2.11 0.1
3 12 -2 2.08 0.09
-3 12 2 2.09 0.09
2 -12 -2 7.13 0.24
-2 -12 2 7 0.24
2 -12 -2 7.15 0.24
-2 -12 2 6.99 0.21
-2 12 2 7.24 0.25
-2 12 2 7.24 0.24
-2 12 2 6.99 0.23
2 12 -2 7 0.24
2 12 -2 6.87 0.24
-2 12 2 6.98 0.22
2 12 -2 7.09 0.25
2 12 -2 6.95 0.23
-2 12 2 6.9 0.23
-2 12 2 6.94 0.23
-2 12 2 6.87 0.23
1 -12 -2 7.34 0.25
-1 -12 2 7.73 0.25
-1 -12 2 7.51 0.22
1 12 -2 7.19 0.25
1 12 -2 7.38 0.23
1 12 -2 7.25 0.25
-1 12 2 7.57 0.24
-1 12 2 7.16 0.23
-1 12 2 7.34 0.25
1 12 -2 7.35 0.24
1 12 -2 7.32 0.25
-1 12 2 7.46 0.24
-1 12 2 7.23 0.24
-1 12 2 7.65 0.24
1 12 -2 7.16 0.26
0 -12 2 16.13 0.5
0 -12 -2 17.73 0.54
0 -12 2 17.39 0.54
0 -12 2 17.46 0.55
0 12 2 17.17 0.52
0 12 2 16.76 0.54
0 12 -2 17.33 0.51
0 12 2 16.52 0.53
0 12 -2 16.43 0.53
0 12 -2 16.78 0.56
0 12 -2 16.5 0.49
0 12 -2 16.7 0.54
0 12 2 16.51 0.51
0 12 2 16.27 0.49
0 12 2 17.1 0.5
0 12 2 16.01 0.51
0 12 -2 17.44 0.5
1 -12 2 26.65 0.86
1 -12 2 27.99 0.85
1 -12 2 27.55 0.77
1 12 2 27.07 0.86
-1 12 -2 27.63 0.79
1 12 2 27.12 0.81
1 12 2 25.95 0.77
-1 12 -2 27.22 0.84
-1 12 -2 27.11 0.89
1 12 2 27.59 0.83
1 12 2 26.93 0.8
1 12 2 25.93 0.82
-1 12 -2 27.25 0.8
-1 12 -2 26.21 0.77
2 -12 2 10.91 0.37
2 -12 2 11.13 0.33
2 -12 2 10.75 0.34
2 -12 2 11.19 0.37
2 -12 2 11.95 0.38
-2 12 -2 11.53 0.4
-2 12 -2 11.83 0.38
-2 12 -2 11.13 0.34
2 12 2 11.35 0.36
-2 12 -2 11.41 0.4
-2 12 -2 11.5 0.37
2 12 2 11.68 0.36
2 12 2 11.16 0.37
-2 12 -2 11.3 0.35
2 12 2 11.42 0.36
2 12 2 10.75 0.37
-2 12 -2 11.39 0.35
-3 -12 -2 1.7 0.08
-3 -12 -2 1.61 0.07
3 -12 2 1.7 0.09
3 -12 2 1.61 0.07
3 -12 2 1.73 0.08
3 -12 2 1.81 0.1
-3 12 -2 1.72 0.09
3 12 2 1.87 0.09
-3 12 -2 1.7 0.08
-3 12 -2 1.67 0.12
-3 12 -2 1.63 0.1
3 12 2 1.76 0.09
-3 12 -2 1.6 0.08
3 12 2 1.72 0.09
-3 12 -2 1.67 0.09
-3 12 -2 1.61 0.09
4 -12 2 4.72 0.16
4 -12 2 4.99 0.19
4 -12 2 4.8 0.2
-4 -12 -2 4.75 0.17
4 -12 2 4.91 0.17
-4 12 -2 4.59 0.18
4 12 2 5.11 0.18
-4 12 -2 4.67 0.16
4 12 2 5.05 0.18
-4 12 -2 4.96 0.19
-4 12 -2 4.93 0.17
-4 12 -2 4.84 0.21
4 12 2 4.71 0.18
-4 12 -2 4.78 0.18
-4 12 -2 4.79 0.17
4 12 2 4.86 0.18
-5 -12 -2 5.1 0.17
5 -12 2 5.16 0.17
5 -12 2 4.91 0.21
5 -12 2 4.56 0.25
-5 12 -2 5.02 0.19
5 12 2 5.27 0.19
5 12 2 5.06 0.19
-5 12 -2 5.34 0.2
-5 12 -2 4.67 0.2
6 -12 2 0.59 0.13
-6 -12 -2 0.48 0.07
-6 -12 -2 0.48 0.06
6 -12 2 0.55 0.06
6 12 2 0.7 0.1
6 12 2 0.42 0.08
-6 12 -2 0.48 0.08
-6 12 -2 0.56 0.07
-6 12 -2 0.5 0.07
6 12 2 0.54 0.08
-6 12 -2 0.62 0.09
-7 -12 -2 0.39 0.06
7 -12 2 0.28 0.05
-7 -12 -2 0.44 0.07
7 -12 2 0.27 0.07
-7 12 -2 0.35 0.12
7 12 2 0.39 0.12
-7 12 -2 0.32 0.08
-8 -12 -2 0.75 0.09
-8 -12 -2 0.78 0.07
8 -12 2 0.59 0.07
8 -12 2 0.68 0.06
-8 -12 -2 0.64 0.06
8 12 2 0.66 0.07
-8 12 -2 0.54 0.1
-8 12 -2 0.78 0.1
8 -13 -2 5.21 0.16
-8 -13 2 4.81 0.18
-8 -13 2 5.26 0.18
8 -13 -2 4.99 0.18
8 13 -2 5.01 0.18
7 -13 -2 0.87 0.07
-7 -13 2 0.92 0.08
7 -13 -2 0.71 0.08
-7 -13 2 0.76 0.07
-7 13 2 0.92 0.08
-7 13 2 0.88 0.08
7 13 -2 0.67 0.08
-7 13 2 0.89 0.08
7 13 -2 0.98 0.09
-6 -13 2 5.62 0.2
-6 -13 2 5.86 0.19
6 -13 -2 5.41 0.19
6 13 -2 5.29 0.2
-6 13 2 5.1 0.22
-6 13 2 5.72 0.2
6 13 -2 5.43 0.21
-6 13 2 5.7 0.2
-6 13 2 5.85 0.22
5 -13 -2 7.71 0.25
-5 -13 2 7.71 0.25
-5 13 2 7.94 0.26
-5 13 2 7.6 0.28
5 13 -2 7.97 0.27
5 13 -2 7.72 0.28
5 13 -2 8.37 0.28
-5 13 2 7.93 0.27
-5 13 2 7.98 0.29
4 -13 -2 0.05 0.02
-4 -13 2 0.11 0.03
-4 -13 2 0.05 0.02
4 13 -2 0.06 0.03
-4 13 2 0.13 0.04
-4 13 2 0.08 0.02
4 13 -2 0.03 0.02
-4 13 2 0.19 0.06
4 13 -2 0.1 0.04
-4 13 2 0.07 0.03
-3 -13 2 5.81 0.22
-3 -13 2 6.09 0.19
-3 -13 2 6.23 0.2
3 -13 -2 5.8 0.19
-3 13 2 5.96 0.2
-3 13 2 6.07 0.21
3 13 -2 6.25 0.21
3 13 -2 5.67 0.22
3 13 -2 5.82 0.21
-3 13 2 6.29 0.21
3 13 -2 5.84 0.21
-3 13 2 6.02 0.22
-3 13 2 5.85 0.21
-3 13 2 6.16 0.21
-2 -13 2 1.72 0.09
-2 -13 2 1.55 0.06
-2 -13 2 1.64 0.08
2 -13 -2 1.48 0.09
2 -13 -2 1.57 0.1
-2 13 2 1.69 0.09
2 13 -2 1.58 0.08
-2 13 2 1.5 0.09
-2 13 2 1.75 0.08
-2 13 2 1.62 0.08
-2 13 2 1.65 0.08
-2 13 2 1.46 0.09
2 13 -2 1.57 0.08
-2 13 2 1.55 0.08
1 -13 -2 9.29 0.3
-1 -13 2 9.66 0.31
1 -13 -2 8.74 0.3
-1 -13 2 9.45 0.28
1 -13 -2 8.84 0.31
-1 -13 2 9.16 0.29
-1 13 2 9.31 0.3
1 13 -2 9.39 0.29
-1 13 2 9.32 0.29
-1 13 2 9.52 0.31
1 13 -2 9.43 0.32
-1 13 2 9.03 0.29
1 13 -2 9.29 0.3
1 13 -2 9.25 0.3
-1 13 2 9.46 0.3
-1 13 2 9.26 0.3
-1 13 2 9.43 0.31
1 13 -2 9.68 0.31
0 -13 2 0.18 0.05
0 -13 -2 0.25 0.05
0 -13 2 0.25 0.04
0 -13 2 0.2 0.03
0 -13 -2 0.16 0.05
0 13 2 0.19 0.05
0 13 2 0.24 0.05
0 13 -2 0.18 0.05
0 13 -2 0.17 0.05
0 13 2 0.16 0.05
0 13 2 0.2 0.05
0 13 -2 0.15 0.05
1 -13 2 24.94 0.72
1 -13 2 23.58 0.74
1 13 2 24.82 0.73
-1 13 -2 25.5 0.79
1 13 2 24.92 0.75
1 13 2 25.11 0.76
-1 13 -2 25.3 0.75
-1 13 -2 25.61 0.81
-1 13 -2 25.98 0.74
-1 13 -2 25.39 0.73
1 13 2 25.78 0.78
-1 13 -2 25.71 0.84
2 -13 2 12.72 0.37
-2 -13 -2 12.83 0.37
2 -13 2 12.54 0.41
2 -13 2 13.12 0.39
2 13 2 12.18 0.4
2 13 2 12.51 0.41
2 13 2 12.26 0.42
-2 13 -2 12.88 0.39
2 13 2 13.22 0.4
-2 13 -2 12.92 0.4
2 13 2 12.52 0.4
-2 13 -2 13.28 0.42
-2 13 -2 13.07 0.43
-2 13 -2 12.65 0.38
3 -13 2 1.2 0.06
3 -13 2 1.06 0.08
3 -13 2 1.29 0.07
-3 -13 -2 1.26 0.08
3 -13 2 1.23 0.09
-3 13 -2 1.23 0.1
3 13 2 1.19 0.08
3 13 2 1.27 0.08
-3 13 -2 1.25 0.08
-3 13 -2 1.24 0.08
-3 13 -2 1.22 0.08
-3 13 -2 1.13 0.09
-3 13 -2 1.24 0.08
3 13 2 1.31 0.08
3 13 2 1.39 0.08
-4 -13 -2 3.2 0.13
4 -13 2 3.46 0.13
4 -13 2 3.33 0.12
4 -13 2 3.35 0.15
4 13 2 3.24 0.14
-4 13 -2 3.26 0.13
-4 13 -2 3.27 0.17
-4 13 -2 3.04 0.13
-4 13 -2 2.94 0.15
-4 13 -2 3.22 0.14
4 13 2 3.37 0.14
4 13 2 3.33 0.14
4 13 2 3.3 0.14
-4 13 -2 2.98 0.14
5 -13 2 3.74 0.13
5 -13 2 3.58 0.14
-5 -13 -2 3.64 0.14
-5 -13 -2 3.73 0.13
-5 13 -2 3.45 0.14
-5 13 -2 3.35 0.16
5 13 2 3.78 0.15
5 13 2 3.68 0.16
5 13 2 3.53 0.15
-5 13 -2 3.6 0.16
6 -13 2 0.34 0.07
-6 -13 -2 0.41 0.06
-6 -13 -2 0.37 0.07
6 -13 2 0.39 0.06
-6 13 -2 0.53 0.08
6 13 2 0.4 0.07
6 13 2 0.47 0.07
-6 13 -2 0.37 0.08
-6 13 -2 0.4 0.08
7 -13 2 0.42 0.05
-7 -13 -2 0.37 0.06
-7 -13 -2 0.39 0.07
7 -13 2 0.51 0.07
7 13 2 0.39 0.07
-7 13 -2 0.42 0.08
-7 13 -2 0.55 0.08
8 -13 2 0.68 0.07
-8 -13 -2 0.7 0.07
-8 -13 -2 0.54 0.07
-8 13 -2 0.55 0.1
-8 13 -2 0.61 0.1
8 13 2 0.72 0.07
8 -14 -2 0.37 0.05
-8 -14 2 0.34 0.07
8 14 -2 0.31 0.06
-7 -14 2 5.55 0.2
-7 -14 2 5.72 0.19
7 -14 -2 5.6 0.18
7 14 -2 5.57 0.2
-7 14 2 5.64 0.2
-7 14 2 5.4 0.21
-6 -14 2 2.62 0.12
6 -14 -2 2.73 0.11
6 -14 -2 2.49 0.12
-6 -14 2 2.71 0.11
-6 14 2 2.72 0.12
-6 14 2 2.89 0.13
6 14 -2 2.69 0.13
-6 14 2 2.59 0.12
6 14 -2 2.78 0.14
-6 14 2 2.36 0.17
-5 -14 2 2.75 0.11
5 -14 -2 2.73 0.11
5 -14 -2 2.56 0.13
-5 14 2 2.56 0.14
-5 14 2 2.83 0.13
5 14 -2 2.77 0.13
5 14 -2 2.98 0.14
5 14 -2 2.75 0.13
5 14 -2 2.67 0.13
-5 14 2 2.69 0.13
-5 14 2 2.88 0.13
4 -14 -2 8.26 0.26
-4 -14 2 8.83 0.28
-4 -14 2 7.8 0.3
4 14 -2 8.18 0.29
-4 14 2 8.58 0.29
3 -14 -2 2.83 0.11
-3 -14 2 2.9 0.13
-3 -14 2 2.88 0.11
-3 -14 2 2.89 0.12
-3 14 2 2.83 0.12
-3 14 2 2.94 0.13
3 14 -2 2.93 0.13
-3 14 2 2.85 0.13
-3 14 2 2.9 0.12
-3 14 2 2.97 0.12
-3 14 2 3.15 0.13
3 14 -2 2.93 0.13
-2 -14 2 5.42 0.19
-2 -14 2 5.21 0.16
-2 -14 2 5.28 0.18
2 14 -2 5.31 0.19
-2 14 2 4.81 0.18
-2 14 2 5.17 0.19
2 14 -2 5.2 0.19
-2 14 2 4.9 0.18
-2 14 2 4.98 0.19
-2 14 2 5.05 0.18
-2 14 2 5.07 0.18
-2 14 2 5.05 0.18
2 14 -2 5.07 0.19
2 14 -2 5.18 0.19
-1 -14 2 0.11 0.03
1 -14 -2 0.07 0.04
-1 -14 2 0.06 0.02
1 14 -2 0.05 0.03
1 14 -2 0.05 0.02
1 14 -2 0.07 0.03
1 14 -2 0.05 0.02
1 14 -2 0.03 0.02
1 14 -2 0.06 0.03
-1 14 2 0.05 0.02
-1 14 2 0.08 0.03
-1 14 2 0.01 0.02
-1 14 2 0.08 0.02
0 -14 -2 0.54 0.06
0 -14 2 0.51 0.04
0 -14 2 0.63 0.06
0 -14 2 0.64 0.06
0 -14 2 0.48 0.06
0 -14 -2 0.45 0.07
0 14 -2 0.6 0.06
0 14 2 0.54 0.06
0 14 2 0.46 0.06
0 14 -2 0.49 0.07
0 14 2 0.52 0.06
0 14 -2 0.63 0.06
0 14 2 0.45 0.06
0 14 2 0.5 0.06
0 14 -2 0.43 0.06
0 14 -2 0.62 0.05
0 14 2 0.57 0.06
1 -14 2 2.17 0.11
-1 -14 -2 2.33 0.11
1 -14 2 2.47 0.09
1 -14 2 2.38 0.1
1 14 2 2.25 0.1
1 14 2 2.23 0.1
-1 14 -2 2.27 0.12
-1 14 -2 2.29 0.11
-1 14 -2 2.36 0.11
-1 14 -2 2.24 0.1
1 14 2 2.15 0.1
-1 14 -2 2.35 0.11
1 14 2 2.3 0.11
1 14 2 2.39 0.1
1 14 2 2.36 0.11
-1 14 -2 2.23 0.1
2 -14 2 5.19 0.17
2 -14 2 5.11 0.2
2 -14 2 5.3 0.19
2 -14 2 5.01 0.17
-2 -14 -2 5.08 0.17
2 14 2 5.07 0.19
-2 14 -2 5.1 0.19
-2 14 -2 5.2 0.18
-2 14 -2 5.25 0.21
2 14 2 5.3 0.19
-2 14 -2 5.02 0.19
2 14 2 5.48 0.19
-2 14 -2 5.14 0.18
2 14 2 5.43 0.19
-2 14 -2 5.51 0.2
3 -14 2 9.73 0.33
-3 -14 -2 9.31 0.29
3 -14 2 9.61 0.3
3 -14 2 9.15 0.28
3 -14 2 9.37 0.34
-3 -14 -2 9.15 0.3
3 14 2 9.58 0.32
3 14 2 9.34 0.31
-3 14 -2 9.92 0.33
-3 14 -2 8.94 0.3
-3 14 -2 9.45 0.32
3 14 2 9.31 0.32
-3 14 -2 9.52 0.31
-3 14 -2 9.1 0.35
3 14 2 10.08 0.31
-3 14 -2 9.69 0.3
-4 -14 -2 3.32 0.13
4 -14 2 2.84 0.2
4 -14 2 3.28 0.16
-4 14 -2 3.15 0.13
-4 14 -2 3.14 0.13
4 14 2 3.11 0.14
4 14 2 3.18 0.14
4 14 2 3.31 0.15
4 14 2 3.04 0.14
-4 14 -2 3.1 0.15
-4 14 -2 2.8 0.16
-4 14 -2 3.23 0.14
-5 -14 -2 0.3 0.06
5 -14 2 0.46 0.06
5 -14 2 0.46 0.07
5 14 2 0.4 0.07
-5 14 -2 0.33 0.07
-5 14 -2 0.45 0.07
5 14 2 0.4 0.08
-5 14 -2 0.36 0.08
6 -14 2 0.01 0.02
6 -14 2 0.03 0.02
-6 -14 -2 0.04 0.02
-6 -14 -2 0.04 0.03
-6 14 -2 0.05 0.04
6 14 2 0.04 0.03
6 14 2 0.02 0.03
-6 14 -2 0.03 0.02
-6 14 -2 0.06 0.04
7 -14 2 0.61 0.05
-7 -14 -2 0.59 0.06
-7 14 -2 0.5 0.12
7 14 2 0.68 0.07
-8 -14 -2 0.05 0.03
8 -14 2 0.01 0.02
8 14 2 0.04 0.03
-7 15 2 0.39 0.07
7 15 -2 0.32 0.07
-6 -15 2 0.94 0.08
6 -15 -2 0.86 0.06
6 -15 -2 0.69 0.1
-6 -15 2 0.86 0.07
-6 15 2 0.85 0.07
-6 15 2 0.74 0.08
-6 15 2 0.8 0.08
-5 -15 2 1.19 0.09
5 -15 -2 0.93 0.1
-5 -15 2 1.14 0.07
5 -15 -2 1.07 0.07
5 15 -2 1.07 0.1
-5 15 2 1.11 0.08
5 15 -2 1.13 0.1
-5 15 2 1.13 0.09
-5 15 2 1.18 0.09
-5 15 2 0.97 0.12
-4 -15 2 1.56 0.08
4 -15 -2 1.38 0.08
-4 -15 2 1.59 0.1
-4 15 2 1.4 0.11
-4 15 2 1.61 0.1
4 15 -2 1.33 0.1
4 15 -2 1.71 0.11
4 15 -2 1.65 0.11
-4 15 2 1.63 0.1
-4 15 2 1.52 0.09
-4 15 2 1.49 0.1
3 -15 -2 7.04 0.23
-3 -15 2 7.19 0.23
-3 -15 2 7.09 0.27
-3 -15 2 7.69 0.25
3 15 -2 7.63 0.26
-3 15 2 7.38 0.26
-3 15 2 6.99 0.25
3 15 -2 7.24 0.26
-3 15 2 7.08 0.26
-3 15 2 7.32 0.25
-3 15 2 7.18 0.24
-2 -15 2 0.2 0.03
2 15 -2 0.13 0.03
-2 15 2 0.33 0.08
-2 15 2 0.28 0.06
2 15 -2 0.3 0.07
-2 15 2 0.18 0.03
-2 15 2 0.19 0.06
2 15 -2 0.31 0.08
2 15 -2 0.23 0.06
-2 15 2 0.18 0.06
-2 15 2 0.29 0.06
-1 -15 2 3.18 0.14
-1 -15 2 3.61 0.15
-1 -15 2 3.29 0.11
1 15 -2 3.49 0.13
-1 15 2 3.69 0.14
1 15 -2 3.39 0.14
-1 15 2 3.22 0.14
-1 15 2 3.48 0.13
-1 15 2 3.29 0.14
1 15 -2 3.58 0.14
1 15 -2 3.37 0.15
-1 15 2 3.35 0.14
-1 15 2 3.45 0.13
-1 15 2 3.62 0.14
0 -15 2 2.51 0.09
0 -15 -2 2.46 0.13
0 15 -2 2.36 0.11
0 15 2 2.4 0.11
0 15 2 2.37 0.11
0 15 2 2.72 0.12
0 15 -2 2.54 0.12
0 15 2 2.48 0.11
0 15 2 2.7 0.12
0 15 2 2.63 0.11
0 15 -2 2.44 0.1
0 15 -2 2.61 0.12
0 15 2 2.3 0.11
1 -15 2 0.7 0.09
1 -15 2 0.62 0.05
1 -15 2 0.53 0.08
1 15 2 0.74 0.07
-1 15 -2 0.68 0.07
-1 15 -2 0.72 0.07
1 15 2 0.71 0.08
-1 15 -2 0.66 0.07
1 15 2 0.78 0.07
1 15 2 0.67 0.07
1 15 2 0.72 0.06
-1 15 -2 0.58 0.07
-1 15 -2 0.69 0.07
1 15 2 0.64 0.07
1 15 2 0.69 0.07
2 -15 2 1.33 0.07
2 -15 2 1.37 0.09
-2 -15 -2 1.28 0.07
2 -15 2 1.17 0.08
-2 -15 -2 1.52 0.11
2 -15 2 1.29 0.11
-2 15 -2 1.42 0.09
-2 15 -2 1.36 0.08
-2 15 -2 1.33 0.09
2 15 2 1.37 0.09
2 15 2 1.29 0.09
-2 15 -2 1.18 0.08
2 15 2 1.51 0.09
-2 15 -2 1.51 0.11
-3 -15 -2 14.51 0.42
3 -15 2 13.7 0.5
-3 -15 -2 14.11 0.49
3 -15 2 14.51 0.43
3 -15 2 14.55 0.47
-3 15 -2 14.51 0.45
-3 15 -2 13.5 0.51
3 15 2 14.32 0.45
-4 -15 -2 2.52 0.12
4 -15 2 2.85 0.1
4 -15 2 2.72 0.12
-4 -15 -2 2.8 0.11
4 15 2 2.94 0.13
-4 15 -2 2.58 0.13
4 15 2 2.66 0.13
4 15 2 2.62 0.14
-4 15 -2 2.66 0.14
-4 15 -2 2.61 0.12
5 -15 2 0 0.02
-5 -15 -2 -0.01 0.02
5 -15 2 0.01 0.06
-5 -15 -2 -0.03 0.03
5 -15 2 0.01 0.03
-5 15 -2 -0.01 0.02
5 15 2 0 0.03
5 15 2 0.02 0.03
-5 15 -2 0.01 0.04
-5 15 -2 0 0.04
-6 -15 -2 0.5 0.06
6 -15 2 0.49 0.06
-6 -15 -2 0.47 0.08
6 -15 2 0.48 0.07
-6 15 -2 0.5 0.09
-6 15 -2 0.54 0.08
-6 15 -2 0.5 0.08
6 15 2 0.49 0.07
6 15 2 0.44 0.07
7 -15 2 0.02 0.02
7 -15 2 0 0.03
-7 -15 -2 0.01 0.02
-7 -15 -2 -0.03 0.03
-7 15 -2 -0.05 0.04
-7 15 -2 0.06 0.07
-7 15 -2 -0.06 0.03
7 15 2 -0.02 0.02
-7 -16 2 0.63 0.06
7 -16 -2 0.57 0.05
-7 -16 2 0.65 0.08
-7 16 2 0.66 0.07
-7 16 2 0.75 0.07
-6 -16 2 0 0.03
6 -16 -2 0.07 0.02
-6 -16 2 0.05 0.02
-6 16 2 0.03 0.03
6 16 -2 0.07 0.03
-6 16 2 0.04 0.03
-6 16 2 0.2 0.06
-5 -16 2 3.33 0.13
5 -16 -2 3.29 0.12
-5 -16 2 3.57 0.14
5 16 -2 3.21 0.15
-5 16 2 3.36 0.15
-5 16 2 3.37 0.14
-5 16 2 3.43 0.14
5 16 -2 3.08 0.15
-5 16 2 3.18 0.17
-4 -16 2 0.04 0.02
4 -16 -2 0.04 0.02
-4 16 2 0.07 0.03
4 16 -2 0.1 0.03
4 16 -2 0.04 0.02
4 16 -2 0.06 0.04
-4 16 2 0.05 0.03
-4 16 2 0.05 0.03
-4 16 2 0.07 0.03
-3 -16 2 0.1 0.02
-3 16 2 0.07 0.03
3 16 -2 0.07 0.04
-3 16 2 0.05 0.04
3 16 -2 0.11 0.03
-3 16 2 0.08 0.03
3 16 -2 0.12 0.03
-2 -16 2 2.53 0.12
-2 -16 2 2.32 0.12
-2 -16 2 2.17 0.09
-2 16 2 2.36 0.12
-2 16 2 2.12 0.11
-2 16 2 2.17 0.12
-2 16 2 2.24 0.12
2 16 -2 2.21 0.12
-2 16 2 2.38 0.11
-2 16 2 2.45 0.12
-2 16 2 2.49 0.12
-1 -16 2 0.91 0.06
-1 -16 2 1.06 0.1
1 16 -2 1.13 0.09
-1 16 2 0.93 0.08
-1 16 2 0.96 0.08
-1 16 2 0.99 0.08
-1 16 2 1.08 0.08
1 16 -2 1.02 0.08
-1 16 2 0.97 0.08
1 16 -2 0.94 0.08
1 16 -2 0.97 0.08
0 -16 2 0.46 0.05
0 -16 2 0.45 0.1
0 -16 2 0.6 0.09
0 16 -2 0.34 0.07
0 16 2 0.54 0.07
0 16 -2 0.49 0.07
0 16 2 0.32 0.06
0 16 -2 0.34 0.12
0 16 2 0.49 0.07
0 16 2 0.46 0.07
0 16 2 0.44 0.07
0 16 2 0.51 0.07
1 -16 2 2.94 0.15
1 -16 2 2.83 0.1
-1 -16 -2 3 0.16
1 -16 2 3.01 0.13
1 16 2 2.94 0.13
-1 16 -2 2.82 0.12
1 16 2 3 0.13
1 16 2 2.81 0.13
-1 16 -2 3.01 0.14
1 16 2 2.91 0.13
1 16 2 2.83 0.13
-1 16 -2 2.68 0.16
-1 16 -2 2.72 0.13
2 -16 2 1.67 0.11
2 -16 2 1.79 0.08
-2 -16 -2 1.95 0.14
2 -16 2 1.64 0.14
-2 -16 -2 1.6 0.09
2 16 2 1.79 0.11
-2 16 -2 1.64 0.09
2 16 2 1.65 0.11
-2 16 -2 1.58 0.1
2 16 2 1.68 0.11
3 -16 2 5.19 0.17
3 -16 2 4.79 0.21
3 16 2 4.75 0.2
3 16 2 5.18 0.2
-3 16 -2 4.95 0.18
-3 16 -2 5.3 0.2
3 16 2 5.09 0.19
-3 16 -2 5.1 0.2
-3 16 -2 5.49 0.21
3 16 2 5.06 0.2
-4 -16 -2 1.3 0.08
4 -16 2 1.39 0.07
4 -16 2 1.29 0.15
4 -16 2 1.6 0.1
4 16 2 1.34 0.1
-4 16 -2 1.6 0.1
4 16 2 1.28 0.1
-4 16 -2 1.49 0.1
-4 16 -2 1.47 0.09
5 -16 2 0.08 0.03
-5 -16 -2 0.08 0.02
-5 -16 -2 0.08 0.03
5 -16 2 0.06 0.02
5 16 2 0.09 0.03
5 16 2 0.07 0.03
-5 16 -2 0.02 0.03
-6 -16 -2 0.05 0.04
-6 -16 -2 0.05 0.02
6 16 2 0.09 0.03
-6 16 -2 0.06 0.03
-6 16 -2 0.07 0.04
-6 16 -2 0.09 0.03
-7 -16 -2 0.4 0.05
-7 16 -2 0.46 0.09
7 16 2 0.46 0.07
7 -17 -2 0.06 0.02
-7 -17 2 0.04 0.02
-7 17 2 0.09 0.04
-7 17 2 0.07 0.04
-6 -17 2 2.54 0.1
-6 -17 2 2.48 0.12
-6 17 2 2.47 0.11
-6 17 2 2.47 0.11
6 17 -2 2.15 0.12
5 -17 -2 0.69 0.06
5 17 -2 0.58 0.08
5 17 -2 0.6 0.08
-5 17 2 0.66 0.08
-5 17 2 0.7 0.08
-5 17 2 0.74 0.08
-4 -17 2 7.74 0.24
4 -17 -2 7.55 0.24
-4 17 2 7.44 0.25
4 17 -2 7.8 0.27
-4 17 2 7.69 0.25
4 17 -2 7.87 0.27
4 17 -2 7.23 0.27
-4 17 2 7.43 0.28
-3 -17 2 0.02 0.04
-3 -17 2 0.08 0.02
3 17 -2 0.05 0.03
-3 17 2 0.22 0.07
-3 17 2 0.08 0.03
3 17 -2 0.05 0.04
-3 17 2 0.04 0.03
-3 17 2 0.04 0.03
-3 17 2 0.09 0.03
3 17 -2 0.07 0.02
-2 -17 2 1.75 0.08
2 17 -2 1.76 0.11
-2 17 2 1.9 0.1
-2 17 2 1.83 0.1
2 17 -2 1.59 0.1
2 17 -2 1.62 0.1
-2 17 2 1.68 0.1
-2 17 2 1.62 0.11
-2 17 2 1.65 0.1
-1 17 2 0.13 0.04
1 17 -2 0.08 0.03
1 17 -2 0.12 0.03
0 -17 2 4.8 0.21
0 -17 2 4.32 0.15
0 17 -2 4.51 0.18
0 17 2 4.75 0.18
0 17 2 4.54 0.17
0 17 2 4.48 0.17
0 17 2 4.38 0.18
-1 17 -2 1.24 0.18
1 17 2 1.27 0.1
-1 17 -2 1.53 0.1
-1 17 -2 1.56 0.1
1 17 2 1.22 0.1
-1 17 -2 1.34 0.09
2 -17 2 1.19 0.12
2 -17 2 1.39 0.07
2 17 2 1.34 0.12
-2 17 -2 1.4 0.1
-2 17 -2 1.31 0.09
2 17 2 1.18 0.1
-2 17 -2 1.27 0.1
2 17 2 1.24 0.1
2 17 2 1.36 0.09
-2 17 -2 1.28 0.09
2 17 2 1.34 0.1
3 -17 2 0.38 0.05
-3 17 -2 0.29 0.05
-3 17 -2 0.33 0.1
3 17 2 0.27 0.08
-3 17 -2 0.3 0.06
3 17 2 0.36 0.07
-3 17 -2 0.39 0.08
-4 -17 -2 0.1 0.02
4 -17 2 0.07 0.02
4 17 2 0.11 0.03
-4 17 -2 0.09 0.03
4 17 2 0.08 0.03
-5 17 -2 0.09 0.04
5 17 2 0.03 0.03
-6 17 -2 0.12 0.04
6 -18 -2 0.02 0.02
-6 -18 2 0.11 0.04
-6 -18 2 0.04 0.02
6 18 -2 0.1 0.04
-6 18 2 0 0.03
-6 18 2 0.09 0.04
5 -18 -2 1.99 0.09
-5 18 2 1.98 0.1
-5 18 2 2.04 0.11
5 18 -2 2.12 0.11
-5 18 2 1.85 0.1
-4 -18 2 0.93 0.11
4 -18 -2 0.78 0.07
-4 -18 2 0.85 0.07
-4 18 2 0.81 0.12
4 18 -2 0.7 0.09
-4 18 2 1.04 0.09
4 18 -2 0.87 0.09
-4 18 2 0.96 0.08
4 18 -2 0.98 0.11
-4 18 2 0.95 0.08
-3 -18 2 1.67 0.08
-3 18 2 1.59 0.1
-3 18 2 1.44 0.11
3 18 -2 1.66 0.11
-3 18 2 1.56 0.1
-3 18 2 1.4 0.1
-3 18 2 1.56 0.12
3 18 -2 1.46 0.12
3 18 -2 1.59 0.11
-2 -18 2 0.01 0.02
-2 18 2 0 0.03
2 18 -2 0 0.02
2 18 -2 -0.02 0.03
2 18 -2 -0.04 0.03
-2 18 2 0.02 0.03
-2 18 2 -0.01 0.03
-2 18 2 -0.01 0.04
-2 18 2 0.01 0.02
-1 -18 2 1.2 0.07
-1 18 2 1.11 0.1
1 18 -2 1.14 0.09
-1 18 2 1.13 0.09
-1 18 2 1.18 0.1
1 18 -2 1.22 0.1
-1 18 2 1.24 0.1
-1 18 2 1.2 0.09
-1 18 2 1.28 0.1
-1 18 2 1.34 0.09
1 18 -2 1.27 0.1
0 -18 2 4.39 0.14
0 18 2 4.19 0.16
0 18 2 4.21 0.17
0 18 2 4.31 0.18
0 18 2 4.16 0.17
0 18 2 4.05 0.17
0 18 -2 4.4 0.18
0 18 -2 4.28 0.16
0 18 2 4.46 0.18
0 18 -2 4.58 0.18
0 18 2 4.08 0.18
0 18 -2 4.39 0.18
1 -18 2 2.65 0.15
1 -18 2 2.58 0.1
1 18 2 2.47 0.13
-1 18 -2 2.61 0.13
-1 18 -2 2.56 0.12
1 18 2 2.69 0.13
-1 18 -2 2.5 0.12
1 18 2 2.44 0.12
-1 18 -2 2.57 0.13
1 18 2 2.62 0.13
2 -18 2 1.65 0.08
2 -18 2 1.87 0.14
2 18 2 1.88 0.11
2 18 2 1.76 0.11
-2 18 -2 1.77 0.12
-2 18 -2 1.69 0.1
-2 18 -2 1.94 0.1
2 18 2 1.9 0.11
3 -18 2 0.59 0.06
3 18 2 0.49 0.08
-3 18 -2 0.5 0.07
-3 18 -2 0.59 0.07
-3 18 -2 0.7 0.08
3 18 2 0.4 0.08
4 -18 2 0.4 0.05
-4 -18 -2 0.29 0.06
4 18 2 0.42 0.08
-4 18 -2 0.44 0.07
4 18 2 0.38 0.07
-4 18 -2 0.35 0.07
-4 18 -2 0.4 0.08
5 -18 2 0.88 0.06
-5 -18 -2 0.82 0.07
-5 18 -2 0.91 0.09
-5 18 -2 0.79 0.08
5 18 2 0.78 0.08
-5 18 -2 0.95 0.07
5 18 2 0.87 0.08
-6 18 -2 0.11 0.04
-6 18 -2 0.21 0.07
6 -19 -2 0.28 0.06
-6 19 2 0.37 0.05
-6 19 2 0.26 0.07
5 -19 -2 0.3 0.06
5 19 -2 0.43 0.08
5 19 -2 0.42 0.12
-5 19 2 0.44 0.09
-4 -19 2 0.32 0.05
4 19 -2 0.29 0.07
-4 19 2 0.32 0.06
-4 19 2 0.32 0.07
-4 19 2 0.37 0.06
-3 -19 2 0.86 0.07
3 19 -2 0.85 0.08
-3 19 2 0.83 0.07
-3 19 2 0.73 0.12
3 19 -2 0.85 0.09
-3 19 2 0.92 0.09
-3 19 2 0.97 0.08
-2 -19 2 0.58 0.06
-2 19 2 0.59 0.07
-2 19 2 0.46 0.1
2 19 -2 0.57 0.08
-2 19 2 0.6 0.08
-2 19 2 0.63 0.08
2 19 -2 0.47 0.08
-1 -19 2 0.69 0.06
-1 19 2 0.59 0.09
-1 19 2 0.7 0.08
-1 19 2 0.55 0.08
1 19 -2 0.63 0.08
1 19 -2 0.73 0.09
1 19 -2 0.73 0.09
-1 19 2 0.54 0.1
-1 19 2 0.69 0.09
-1 19 2 0.74 0.1
0 -19 2 0.73 0.12
0 -19 2 0.56 0.06
0 19 2 0.38 0.08
0 19 -2 0.39 0.08
0 19 2 0.5 0.09
0 19 2 0.42 0.09
0 19 2 0.46 0.09
0 19 -2 0.56 0.07
0 19 -2 0.45 0.09
0 19 -2 0.59 0.09
1 -19 2 5.86 0.25
1 -19 2 5.98 0.19
1 19 2 5.71 0.22
1 19 2 5.95 0.23
-1 19 -2 6.22 0.23
1 19 2 5.96 0.22
1 19 2 5.75 0.22
-1 19 -2 5.72 0.21
-1 19 -2 5.8 0.22
2 -19 2 1.87 0.18
2 -19 2 1.86 0.08
2 19 2 1.85 0.12
2 19 2 1.82 0.11
-2 19 -2 2 0.12
2 19 2 1.95 0.11
-2 19 -2 1.95 0.11
-2 19 -2 2.03 0.1
-2 19 -2 1.84 0.13
-3 -19 -2 0.14 0.03
3 -19 2 0.16 0.05
-3 19 -2 0.13 0.06
-3 19 -2 0.18 0.06
3 19 2 0.14 0.03
-3 19 -2 0.21 0.06
3 19 2 0.29 0.08
4 -19 2 0.19 0.05
-4 -19 -2 0.35 0.06
4 19 2 0.27 0.07
-4 19 -2 0.32 0.07
-4 19 -2 0.29 0.06
4 19 2 0.32 0.08
5 -19 2 0.52 0.05
-5 -19 -2 0.49 0.06
-5 19 -2 0.64 0.07
5 19 2 0.64 0.08
-5 19 -2 0.6 0.07
6 -19 2 0.38 0.04
-6 19 -2 0.41 0.08
5 -20 -2 0.18 0.03
5 20 -2 0.24 0.07
-5 20 2 0.2 0.05
4 20 -2 0.52 0.07
-4 20 2 0.56 0.09
-4 20 2 0.52 0.06
-3 -20 2 1.43 0.08
-3 20 2 1.44 0.1
3 20 -2 1.34 0.09
-3 20 2 1.36 0.09
3 20 -2 1.23 0.09
-3 20 2 1.3 0.09
-2 -20 2 2.44 0.1
2 20 -2 2.54 0.13
-2 20 2 2.21 0.11
-2 20 2 2.21 0.14
2 20 -2 2.21 0.12
-2 20 2 2.37 0.12
-2 20 2 2.4 0.12
-1 -20 2 0.48 0.05
1 20 -2 0.54 0.08
-1 20 2 0.24 0.08
-1 20 2 0.39 0.1
1 20 -2 0.33 0.07
1 20 -2 0.37 0.08
-1 20 2 0.36 0.08
-1 20 2 0.42 0.1
-1 20 2 0.56 0.1
0 -20 2 3.28 0.2
0 -20 2 3.71 0.13
0 20 2 3.73 0.16
0 20 2 3.55 0.16
0 20 2 3.78 0.16
0 20 -2 3.54 0.16
0 20 -2 3.77 0.16
0 20 2 3.3 0.16
0 20 -2 3.71 0.16
1 -20 2 0.53 0.06
-1 20 -2 0.47 0.08
-1 20 -2 0.61 0.07
1 20 2 0.35 0.1
1 20 2 0.45 0.08
-1 20 -2 0.64 0.08
1 20 2 0.48 0.09
1 20 2 0.5 0.08
2 -20 2 0.12 0.02
-2 20 -2 0.26 0.06
2 20 2 0.13 0.04
2 20 2 0.08 0.03
-2 20 -2 0.17 0.06
3 -20 2 1.13 0.07
3 20 2 1.07 0.1
-3 20 -2 1.25 0.08
-3 20 -2 1.19 0.08
-3 20 -2 1.12 0.1
3 20 2 1.29 0.09
-4 -20 -2 0.42 0.07
4 -20 2 0.3 0.05
4 20 2 0.35 0.09
5 -20 2 0.04 0.02
5 20 2 0.07 0.04
-5 20 -2 0.08 0.03
-4 21 2 0.18 0.04
-4 21 2 0.13 0.03
4 21 -2 0.27 0.07
-3 -21 2 0.62 0.06
3 21 -2 0.64 0.08
-3 21 2 0.69 0.09
-2 -21 2 1.55 0.09
2 21 -2 1.62 0.1
-2 21 2 1.68 0.1
2 21 -2 1.8 0.1
-2 21 2 1.71 0.11
-1 -21 2 2.76 0.11
1 21 -2 2.92 0.14
1 21 -2 3.19 0.14
1 21 -2 3.07 0.14
-1 21 2 3.26 0.15
-1 21 2 3.13 0.15
-1 21 2 2.74 0.14
0 -21 2 0.99 0.07
0 21 2 1 0.11
0 21 2 1.09 0.11
0 21 -2 1.07 0.09
0 21 2 1.02 0.11
0 21 -2 1.17 0.09
1 -21 2 3.25 0.12
-1 21 -2 3.37 0.15
1 21 2 3.54 0.15
-1 21 -2 3.41 0.15
1 21 2 3.14 0.15
2 21 2 1.04 0.1
-2 21 -2 1.23 0.1
2 21 2 1.16 0.09
-2 21 -2 1.26 0.09
3 -21 2 0.43 0.07
3 21 2 0.35 0.1
-3 21 -2 0.58 0.08
-4 -21 -2 0.41 0.08
4 -21 2 0.44 0.06
-4 21 -2 0.63 0.09
-4 21 -2 0.52 0.07
-3 -22 2 0.65 0.06
3 22 -2 0.72 0.08
-3 22 2 0.53 0.07
3 22 -2 0.47 0.06
-3 22 2 0.68 0.09
-2 -22 2 1.76 0.09
-2 22 2 1.64 0.1
-2 22 2 1.94 0.11
-1 -22 2 1.2 0.09
1 22 -2 1.31 0.09
-1 22 2 1.17 0.14
-1 22 2 1.22 0.12
-1 22 2 1.24 0.1
0 -22 2 2.27 0.1
0 22 2 2.21 0.13
0 22 -2 2.24 0.12
0 22 -2 2.35 0.11
0 22 2 2.27 0.13
0 22 2 1.97 0.15
1 -22 2 0.04 0.02
1 22 2 0.07 0.03
-1 22 -2 0.08 0.03
1 22 2 0.04 0.03
-1 22 -2 0.03 0.02
2 22 2 0.21 0.04
2 22 2 0.12 0.03
3 -22 2 0.63 0.08
-3 22 -2 0.64 0.07
3 22 2 0.45 0.07
3 23 -2 0.6 0.07
2 23 -2 1.22 0.08
2 23 -2 1.34 0.09
1 23 -2 0.03 0.02
1 23 -2 -0.05 0.03
0 23 -2 0.02 0.03
0 23 2 0.04 0.04
-1 23 -2 0.09 0.03
1 23 2 0.1 0.04
-1 23 -2 0.11 0.05
2 23 2 0.88 0.09
-2 23 -2 1.11 0.08
1 24 -2 0.16 0.02
9 0 -3 0 0.03
9 0 -3 0.02 0.04
-9 0 3 0 0.02
-8 0 3 3.23 0.15
8 0 -3 3.12 0.14
8 0 -3 2.94 0.14
-7 0 3 1.47 0.11
7 0 -3 1.66 0.09
6 0 -3 0.48 0.06
6 0 -3 0.45 0.06
6 0 -3 0.45 0.06
-6 0 3 0.36 0.07
-6 0 3 0.37 0.07
-6 0 3 0.46 0.06
-5 0 3 0.1 0.02
5 0 -3 0.17 0.06
-4 0 3 0.15 0.04
3 0 -3 7.83 0.24
3 0 -3 8.23 0.26
-3 0 3 7.96 0.25
-3 0 3 7.74 0.25
-3 0 3 7.36 0.24
-3 0 3 8.06 0.25
2 0 -3 18.51 0.54
2 0 -3 18.27 0.58
-2 0 3 18.25 0.56
-2 0 3 19.72 0.59
2 0 -3 18.05 0.55
-2 0 3 19.41 0.59
-2 0 3 19.61 0.55
0 0 3 5.05 0.16
0 0 -3 4.65 0.16
0 0 3 5.02 0.16
1 0 3 12.06 0.37
1 0 3 12.06 0.36
1 0 3 12.08 0.37
-1 0 -3 11.22 0.37
-1 0 -3 11.3 0.37
2 0 3 60.88 1.77
2 0 3 55.85 1.65
2 0 3 57.98 1.68
-2 0 -3 60.52 1.7
-2 0 -3 56.09 1.68
-2 0 -3 59.1 1.65
-2 0 -3 56.98 1.89
-3 0 -3 66.95 2.14
3 0 3 67.06 1.99
3 0 3 67.81 1.94
-3 0 -3 68.37 1.9
3 0 3 65.88 2.04
-3 0 -3 66.9 1.96
3 0 3 68.14 2.1
3 0 3 65.82 1.9
4 0 3 9.55 0.31
-4 0 -3 10.12 0.32
-4 0 -3 10.7 0.35
-4 0 -3 10.81 0.36
-4 0 -3 10.51 0.31
5 0 3 0.05 0.02
-5 0 -3 0.06 0.02
5 0 3 0.14 0.04
-5 0 -3 0.04 0.02
-5 0 -3 0.09 0.02
5 0 3 0.04 0.04
5 0 3 0.04 0.03
-5 0 -3 0.08 0.02
-6 0 -3 7.42 0.23
6 0 3 7.28 0.24
-6 0 -3 7.05 0.27
6 0 3 7.2 0.25
6 0 3 7.14 0.26
-6 0 -3 7.09 0.24
-6 0 -3 7.42 0.25
7 0 3 0.02 0.03
-7 0 -3 0.04 0.03
7 0 3 0.12 0.04
-7 0 -3 0.05 0.03
-8 0 -3 0.01 0.03
8 0 3 -0.01 0.03
-9 0 -3 0.03 0.03
-9 0 -3 0.06 0.04
9 -1 -3 0.31 0.08
-9 -1 3 0.35 0.08
9 -1 -3 0.3 0.07
-9 1 3 0.27 0.07
9 1 -3 0.27 0.07
8 -1 -3 0.95 0.09
-8 -1 3 0.87 0.09
8 -1 -3 1.09 0.09
-8 -1 3 0.84 0.09
-8 1 3 0.89 0.09
-8 1 3 1.03 0.11
8 1 -3 0.85 0.09
8 1 -3 0.98 0.09
7 -1 -3 1.93 0.11
-7 -1 3 1.7 0.12
-7 1 3 1.94 0.11
7 1 -3 1.81 0.11
6 -1 -3 2.16 0.09
-6 -1 3 2.08 0.1
-6 -1 3 1.94 0.11
6 -1 -3 2.19 0.1
6 -1 -3 2.05 0.1
6 1 -3 2.14 0.09
-6 1 3 2.15 0.1
-6 1 3 2.04 0.11
6 1 -3 2.19 0.1
6 1 -3 1.96 0.1
-6 1 3 2.2 0.11
5 -1 -3 0.06 0.02
-5 -1 3 0.03 0.02
5 -1 -3 0.09 0.02
-5 -1 3 0.02 0.02
5 -1 -3 0.04 0.01
5 1 -3 0.09 0.02
-5 1 3 0.05 0.02
-5 1 3 0.03 0.02
-5 1 3 0.09 0.03
5 1 -3 0.06 0.02
5 1 -3 0.07 0.02
-4 -1 3 6.59 0.21
-4 -1 3 6.5 0.2
4 -1 -3 6.19 0.19
4 -1 -3 6.46 0.21
-4 -1 3 6.37 0.21
4 -1 -3 6.22 0.21
4 -1 -3 6.31 0.2
4 1 -3 6.42 0.2
-4 1 3 6.22 0.2
-4 1 3 6.45 0.21
-4 1 3 6.13 0.2
4 1 -3 6.43 0.21
-3 -1 3 28.38 0.87
-3 -1 3 29.14 0.8
-3 -1 3 26.52 0.83
3 -1 -3 27.18 0.86
-3 -1 3 28.46 0.82
-3 -1 3 28.17 0.81
3 1 -3 27.95 0.9
3 1 -3 28.9 0.8
-3 1 3 26.71 0.79
-3 1 3 27.98 0.83
-3 1 3 26.5 0.81
3 1 -3 27.64 0.86
2 -1 -3 0.65 0.03
-2 -1 3 0.66 0.03
-2 -1 3 0.62 0.04
-2 -1 3 0.59 0.03
-2 -1 3 0.64 0.03
-2 1 3 0.65 0.03
2 1 -3 0.61 0.03
-2 1 3 0.59 0.04
2 1 -3 0.61 0.04
2 1 -3 0.58 0.03
2 1 -3 0.64 0.03
1 -1 -3 85.76 2.8
-1 -1 3 90.56 2.81
1 1 -3 87.85 2.8
-1 1 3 95.21 2.81
0 -1 -3 144.38 4.66
0 -1 3 153.67 4.67
0 -1 3 152.8 4.69
0 1 -3 147.37 4.67
0 1 3 152.77 4.67
1 -1 3 33.54 1
1 -1 3 33.9 1.03
-1 -1 -3 32.71 1.03
1 -1 3 33.2 1.02
1 1 3 33.02 1.03
1 1 3 31.58 1
-1 1 -3 33.96 1.08
-1 1 -3 33.75 0.96
-1 1 -3 30.86 1.03
-2 -1 -3 3.55 0.12
2 -1 3 3.4 0.12
2 -1 3 3.79 0.11
-2 -1 -3 3.65 0.11
2 -1 3 3.62 0.11
2 -1 3 3.47 0.12
-2 -1 -3 3.49 0.11
-2 1 -3 3.5 0.11
-2 1 -3 3.4 0.12
-2 1 -3 3.58 0.11
-2 1 -3 3.5 0.13
2 1 3 3.6 0.12
3 -1 3 12.67 0.4
-3 -1 -3 12.45 0.38
3 -1 3 12.75 0.39
3 -1 3 11.84 0.38
3 -1 3 12.22 0.36
3 1 3 12.33 0.4
-3 1 -3 12.6 0.42
3 1 3 12.44 0.37
3 1 3 11.7 0.36
-3 1 -3 12.97 0.41
3 1 3 12.25 0.38
-3 1 -3 12.9 0.38
-3 1 -3 12.69 0.36
3 1 3 12.34 0.39
4 -1 3 68.93 2.08
4 -1 3 70.03 2.02
4 -1 3 72 1.99
-4 -1 -3 67.5 2.02
-4 -1 -3 71.35 1.99
4 -1 3 72.01 2.19
-4 -1 -3 70.47 2.23
-4 -1 -3 69.34 2.05
4 1 3 69.92 2.19
-4 1 -3 68.07 2.05
4 1 3 70.29 2.02
-4 1 -3 70.89 2.24
4 1 3 69.66 2.09
4 1 3 67.84 1.98
-4 1 -3 72.06 2.02
-5 -1 -3 4.72 0.17
5 -1 3 4.89 0.17
-5 -1 -3 4.73 0.17
-5 -1 -3 4.81 0.16
5 -1 3 5.05 0.19
5 -1 3 5.07 0.16
5 -1 3 5.22 0.17
5 -1 3 4.9 0.18
5 1 3 4.95 0.19
-5 1 -3 4.97 0.17
-5 1 -3 4.94 0.16
-5 1 -3 5.01 0.17
-5 1 -3 4.86 0.19
5 1 3 4.68 0.18
5 1 3 4.93 0.17
5 1 3 5.03 0.17
-5 1 -3 4.72 0.19
-6 -1 -3 1.36 0.09
-6 -1 -3 1.28 0.07
6 -1 3 1.25 0.08
-6 -1 -3 1.32 0.08
-6 -1 -3 1.33 0.07
6 -1 3 1.3 0.09
6 -1 3 1.19 0.08
6 1 3 1.43 0.08
6 1 3 1.21 0.08
-6 1 -3 1.28 0.09
-6 1 -3 1.22 0.07
-6 1 -3 1.22 0.08
6 1 3 1.08 0.09
7 -1 3 0.05 0.03
-7 -1 -3 0.25 0.08
-7 -1 -3 0.24 0.06
-7 -1 -3 0.1 0.03
-7 1 -3 0.07 0.03
-7 1 -3 0.11 0.03
7 1 3 0.11 0.03
8 -1 3 0.08 0.03
-8 -1 -3 0.11 0.04
-8 -1 -3 0.05 0.03
8 1 3 0.05 0.04
-8 1 -3 0.11 0.03
-8 1 -3 0.05 0.03
-9 -1 -3 0.15 0.04
-9 -1 -3 0.08 0.03
9 -1 3 0.31 0.1
-9 1 -3 0.07 0.03
9 -2 -3 2.31 0.11
-9 -2 3 1.98 0.13
-9 -2 3 2.12 0.11
9 2 -3 2.13 0.14
-9 2 3 2.16 0.11
9 2 -3 2.16 0.11
-8 -2 3 0.1 0.03
-8 -2 3 0.16 0.03
8 -2 -3 0.11 0.04
8 -2 -3 0.08 0.03
8 2 -3 0.17 0.04
8 2 -3 0.11 0.04
-8 2 3 0.25 0.08
-7 -2 3 2.62 0.14
7 -2 -3 2.86 0.13
7 2 -3 2.92 0.14
-7 2 3 2.67 0.14
-7 2 3 3.14 0.14
-6 -2 3 2.19 0.11
-6 -2 3 2.14 0.1
-6 -2 3 2.31 0.1
6 -2 -3 2.5 0.11
6 -2 -3 2.25 0.1
6 -2 -3 2.23 0.11
6 2 -3 2.3 0.11
6 2 -3 2.32 0.11
-6 2 3 2.34 0.11
-6 2 3 2.41 0.11
-6 2 3 2.18 0.11
5 -2 -3 1.38 0.07
5 -2 -3 1.48 0.09
5 -2 -3 1.21 0.06
5 -2 -3 1.27 0.07
5 -2 -3 1.29 0.07
-5 -2 3 1.22 0.07
-5 -2 3 1.25 0.08
5 2 -3 1.21 0.07
-5 2 3 1.41 0.08
-5 2 3 1.35 0.08
-5 2 3 1.25 0.07
5 2 -3 1.25 0.07
5 2 -3 1.34 0.07
5 2 -3 1.41 0.08
-4 -2 3 26.35 0.82
4 -2 -3 26.88 0.79
-4 -2 3 28.31 0.81
4 -2 -3 26.67 0.85
4 -2 -3 27.6 0.84
-4 -2 3 27.45 0.86
4 -2 -3 28.65 0.83
4 -2 -3 27.28 0.81
4 2 -3 25.97 0.81
4 2 -3 27.78 0.79
-4 2 3 28.5 0.83
4 2 -3 28.06 0.83
-4 2 3 27.1 0.78
-4 2 3 27.62 0.85
3 -2 -3 30.51 0.9
3 -2 -3 32.19 0.95
3 -2 -3 30.53 0.95
-3 -2 3 31.12 0.92
-3 -2 3 32.25 0.97
-3 -2 3 31.84 0.91
-3 2 3 29.71 0.88
-3 2 3 31.05 0.97
3 2 -3 30.55 0.88
3 2 -3 31.06 0.99
-3 2 3 31.92 0.92
-3 2 3 30.67 0.96
3 2 -3 29.9 0.9
3 2 -3 31.2 0.96
-3 2 3 30.08 0.9
-2 -2 3 16.53 0.5
2 -2 -3 17.04 0.52
-2 -2 3 16.2 0.5
2 -2 -3 15.97 0.48
-2 -2 3 17.21 0.53
2 -2 -3 16.37 0.49
-2 -2 3 16.52 0.48
2 2 -3 16.96 0.5
-2 2 3 17.63 0.51
2 2 -3 17.51 0.48
-2 2 3 16.84 0.52
2 2 -3 17.54 0.51
-2 2 3 16.67 0.53
-2 2 3 16.53 0.48
-2 2 3 16.8 0.51
-1 -2 3 304.72 8.46
-1 -2 3 289.99 9.06
1 -2 -3 288.68 9.05
1 2 -3 288.11 9.07
0 -2 3 77.04 2.45
0 -2 3 76.81 2.44
0 2 3 79.9 2.43
-1 -2 -3 80.44 2.57
1 -2 3 84.47 2.53
1 -2 3 85.57 2.6
-1 2 -3 80.89 2.68
1 2 3 81.24 2.38
-1 2 -3 79.08 2.56
-1 2 -3 87.01 2.38
2 -2 3 28.34 0.82
2 -2 3 29 0.89
2 -2 3 29.36 0.84
2 -2 3 29.68 0.91
-2 -2 -3 28.69 0.84
-2 -2 -3 29 0.82
-2 2 -3 28.26 0.82
2 2 3 29.28 0.84
2 2 3 28.93 0.87
2 2 3 28.29 0.86
2 2 3 27.58 0.84
-2 2 -3 30.32 0.93
-2 2 -3 29.62 0.95
-2 2 -3 27.61 0.84
-2 2 -3 29.82 0.85
-3 -2 -3 32.3 0.99
3 -2 3 32.12 1.01
3 -2 3 34.79 1.06
3 -2 3 34.47 1.03
3 2 3 34.91 1.06
3 2 3 34.44 1.03
-3 2 -3 33.41 1.08
-3 2 -3 32.8 0.99
3 2 3 33.51 0.98
-3 2 -3 32.4 0.96
3 2 3 35 1.01
-3 2 -3 32.57 0.96
-3 2 -3 34.75 1.1
4 -2 3 5.21 0.17
4 -2 3 5.2 0.17
-4 -2 -3 5.29 0.16
-4 -2 -3 4.96 0.17
4 -2 3 5.29 0.16
4 -2 3 4.93 0.18
4 -2 3 4.99 0.19
-4 -2 -3 5.21 0.18
4 2 3 5.31 0.18
4 2 3 5.07 0.17
-4 2 -3 5.52 0.19
-4 2 -3 5.35 0.17
4 2 3 5.1 0.19
-4 2 -3 4.9 0.17
5 -2 3 2.73 0.1
-5 -2 -3 2.51 0.1
5 -2 3 2.61 0.12
5 -2 3 2.71 0.11
5 -2 3 2.72 0.1
5 -2 3 2.61 0.12
-5 -2 -3 2.49 0.1
-5 -2 -3 2.72 0.11
5 2 3 2.67 0.11
-5 2 -3 2.65 0.12
-5 2 -3 2.79 0.12
-5 2 -3 2.52 0.1
5 2 3 2.59 0.1
-5 2 -3 2.65 0.11
-5 2 -3 2.85 0.11
-6 -2 -3 1.55 0.1
6 -2 3 1.6 0.1
-6 -2 -3 1.42 0.08
-6 -2 -3 1.44 0.08
6 -2 3 1.53 0.1
6 -2 3 1.48 0.09
6 -2 3 1.41 0.08
6 -2 3 1.5 0.08
-6 -2 -3 1.57 0.09
-6 2 -3 1.6 0.1
6 2 3 1.56 0.09
6 2 3 1.58 0.08
-6 2 -3 1.63 0.09
7 -2 3 0.35 0.07
-7 -2 -3 0.39 0.08
-7 -2 -3 0.37 0.09
-7 -2 -3 0.47 0.06
-7 -2 -3 0.39 0.09
-7 2 -3 0.53 0.11
-7 2 -3 0.47 0.08
7 2 3 0.46 0.08
-7 2 -3 0.38 0.07
-8 -2 -3 0.09 0.04
8 -2 3 0.17 0.04
-8 -2 -3 0.1 0.03
-8 -2 -3 0.23 0.07
8 2 3 0.31 0.09
-8 2 -3 0.12 0.04
-8 2 -3 0.09 0.03
-9 -2 -3 0.05 0.03
-9 -2 -3 0.09 0.03
-9 -3 3 0.07 0.04
9 -3 -3 0.07 0.03
-9 -3 3 0.06 0.03
-9 3 3 0.19 0.06
9 3 -3 0.08 0.04
8 -3 -3 0.58 0.08
-8 -3 3 0.56 0.09
-8 -3 3 0.64 0.08
8 -3 -3 0.63 0.07
8 3 -3 0.53 0.08
-8 3 3 0.5 0.08
8 3 -3 0.48 0.08
7 -3 -3 2.25 0.12
7 -3 -3 2.31 0.11
-7 -3 3 2.35 0.13
-7 -3 3 2.57 0.12
7 -3 -3 2.45 0.12
-7 3 3 2.38 0.13
-7 3 3 2.45 0.12
7 3 -3 2.33 0.12
-6 -3 3 0.03 0.02
6 -3 -3 0.06 0.02
6 -3 -3 0.09 0.03
-6 -3 3 0.1 0.02
-6 -3 3 0.09 0.03
-6 -3 3 0.09 0.04
6 -3 -3 0.09 0.02
6 3 -3 0.07 0.03
-6 3 3 0.12 0.04
-6 3 3 0.09 0.04
-6 3 3 0.06 0.03
6 3 -3 0.07 0.03
6 3 -3 0.08 0.03
-5 -3 3 10.34 0.33
5 -3 -3 10.65 0.32
5 -3 -3 10.06 0.31
5 -3 -3 10.44 0.33
-5 -3 3 10.25 0.31
5 -3 -3 10.25 0.33
-5 -3 3 10.2 0.34
5 3 -3 10.04 0.34
-5 3 3 10.15 0.32
-5 3 3 10.48 0.31
5 3 -3 9.69 0.32
-5 3 3 10.55 0.32
-5 3 3 10.21 0.33
5 3 -3 9.86 0.33
-4 -3 3 10.98 0.34
-4 -3 3 10.53 0.32
4 -3 -3 10.1 0.34
-4 -3 3 10.3 0.33
4 -3 -3 10.73 0.34
4 -3 -3 10.67 0.33
-4 -3 3 10.37 0.34
4 -3 -3 10.39 0.32
4 -3 -3 11.27 0.34
4 3 -3 10.33 0.33
-4 3 3 10.86 0.32
-4 3 3 11.13 0.33
-4 3 3 10.89 0.33
-4 3 3 10.15 0.33
4 3 -3 11.12 0.35
-3 -3 3 2.14 0.08
3 -3 -3 2.17 0.08
-3 -3 3 2.26 0.09
3 -3 -3 2.08 0.07
3 -3 -3 2.03 0.09
3 -3 -3 2.07 0.08
3 3 -3 2.21 0.08
3 3 -3 2.29 0.09
-3 3 3 2.18 0.08
3 3 -3 2.24 0.09
3 3 -3 2.19 0.09
-3 3 3 2.18 0.08
2 -3 -3 78.46 2.25
-2 -3 3 76.56 2.21
-2 -3 3 75.25 2.44
-2 -3 3 80.99 2.27
-2 -3 3 79.26 2.25
2 -3 -3 77.11 2.42
2 -3 -3 75.94 2.21
-2 3 3 77.55 2.27
2 3 -3 76.12 2.25
-2 3 3 78.23 2.3
-2 3 3 74.94 2.18
-2 3 3 81.45 2.31
2 3 -3 78.67 2.53
2 3 -3 80.71 2.38
-2 3 3 77.9 2.43
-1 -3 3 0.23 0.02
-1 -3 3 0.27 0.02
1 3 -3 0.26 0.02
0 -3 3 39.73 1.22
0 -3 3 38.66 1.13
0 -3 3 37.97 1.11
0 3 -3 39.86 1.15
0 3 -3 39.22 1.22
0 3 -3 40.13 1.28
1 -3 3 162.62 4.86
1 -3 3 173.11 5.27
1 -3 3 167.37 5.14
1 -3 3 168.46 4.78
-1 -3 -3 159.68 5.24
1 -3 3 174.67 5.25
-1 3 -3 169.73 5.48
-1 3 -3 170.17 4.79
1 3 3 173.31 4.87
1 3 3 166.23 4.99
-2 -3 -3 2.58 0.09
2 -3 3 2.89 0.1
2 -3 3 2.67 0.09
2 -3 3 2.68 0.09
2 -3 3 2.79 0.1
2 -3 3 2.54 0.1
-2 -3 -3 2.64 0.08
2 3 3 2.79 0.09
2 3 3 2.73 0.1
-2 3 -3 2.7 0.09
-2 3 -3 2.67 0.1
-2 3 -3 2.74 0.1
-2 3 -3 2.62 0.09
-2 3 -3 2.55 0.09
-3 -3 -3 3.15 0.11
-3 -3 -3 3.23 0.12
3 -3 3 3.25 0.12
3 -3 3 3.41 0.12
-3 3 -3 3.25 0.13
3 3 3 3.34 0.12
-4 -3 -3 34.24 1
4 -3 3 34.53 0.98
4 -3 3 33.78 1
4 -3 3 32.38 1.03
-4 -3 -3 34.73 0.98
4 -3 3 34.31 1.09
-4 -3 -3 35.79 1.1
4 -3 3 34 1.06
-4 3 -3 33.11 1.01
-4 3 -3 34.41 1
-4 3 -3 33.35 0.98
-4 3 -3 35.1 1.11
4 3 3 35.41 1.03
5 -3 3 25.69 0.82
5 -3 3 27.4 0.87
-5 -3 -3 27.6 0.78
5 -3 3 27.76 0.78
-5 -3 -3 26.72 0.81
5 -3 3 27.7 0.8
-5 -3 -3 27.59 0.8
5 -3 3 26.06 0.84
5 3 3 27.52 0.79
-5 3 -3 26.93 0.81
-5 3 -3 27.51 0.79
5 3 3 26.29 0.82
-5 3 -3 25.72 0.88
5 3 3 27.02 0.85
-5 3 -3 26.66 0.9
6 -3 3 0.58 0.08
6 -3 3 0.67 0.06
-6 -3 -3 0.82 0.08
-6 -3 -3 0.66 0.06
6 -3 3 0.72 0.08
-6 -3 -3 0.72 0.06
6 -3 3 0.6 0.06
6 3 3 0.57 0.07
-6 3 -3 0.65 0.06
-6 3 -3 0.81 0.08
-6 3 -3 0.6 0.08
-6 3 -3 0.69 0.07
6 3 3 0.62 0.08
-7 -3 -3 0.54 0.09
7 -3 3 0.62 0.07
-7 -3 -3 0.66 0.07
-7 -3 -3 0.68 0.09
7 -3 3 0.74 0.08
-7 -3 -3 0.64 0.08
-7 3 -3 0.76 0.08
-7 3 -3 0.6 0.1
7 3 3 0.71 0.08
-7 3 -3 0.6 0.08
7 3 3 0.54 0.09
-7 3 -3 0.71 0.12
7 3 3 0.61 0.09
-8 -3 -3 1.9 0.1
8 -3 3 1.78 0.1
-8 -3 -3 1.82 0.13
-8 -3 -3 1.78 0.13
8 3 3 1.67 0.14
-8 3 -3 1.63 0.13
-8 3 -3 1.9 0.11
-9 -3 -3 0.84 0.11
-9 -3 -3 1.08 0.08
9 -3 3 1.05 0.09
-9 3 -3 0.96 0.08
9 -4 -3 1.71 0.09
9 -4 -3 1.76 0.13
-9 -4 3 1.58 0.11
9 4 -3 1.65 0.1
-9 4 3 1.83 0.09
8 -4 -3 0.22 0.07
8 -4 -3 0.25 0.06
8 -4 -3 0.1 0.04
-8 -4 3 0.15 0.03
8 4 -3 0.13 0.04
8 4 -3 0.11 0.04
7 -4 -3 1.06 0.07
-7 -4 3 1.16 0.09
7 -4 -3 0.97 0.08
7 -4 -3 1.12 0.09
-7 -4 3 1.05 0.1
7 4 -3 0.96 0.09
-7 4 3 1.09 0.09
7 4 -3 1.09 0.09
6 -4 -3 4.5 0.17
-6 -4 3 4.63 0.17
6 -4 -3 4.39 0.17
6 -4 -3 4.63 0.16
-6 -4 3 4.16 0.18
-6 -4 3 4.29 0.18
-6 -4 3 4.65 0.16
-6 4 3 4.45 0.17
-6 4 3 4.75 0.17
6 4 -3 4.46 0.18
-6 4 3 4.58 0.17
6 4 -3 4.46 0.17
-5 -4 3 12.33 0.38
-5 -4 3 11.72 0.37
5 -4 -3 12.06 0.38
5 -4 -3 12.15 0.35
5 -4 -3 11.3 0.36
-5 -4 3 11.55 0.39
5 4 -3 11.62 0.37
-5 4 3 12.43 0.36
-5 4 3 11.71 0.36
-5 4 3 11.97 0.37
5 4 -3 11.5 0.39
5 4 -3 11.21 0.38
4 -4 -3 21.99 0.65
-4 -4 3 22.24 0.71
-4 -4 3 22.84 0.67
-4 -4 3 22.23 0.68
4 -4 -3 23.67 0.69
4 -4 -3 21.98 0.67
4 -4 -3 21.45 0.69
-4 4 3 21.42 0.66
4 4 -3 23.74 0.69
-4 4 3 23.11 0.68
4 4 -3 23.19 0.71
-4 4 3 22.45 0.68
-4 4 3 22.81 0.65
4 4 -3 22.68 0.67
3 -4 -3 4.38 0.14
-3 -4 3 4.18 0.15
3 -4 -3 4.35 0.14
3 -4 -3 4.31 0.13
-3 -4 3 4.28 0.15
3 4 -3 4.36 0.15
3 4 -3 4.13 0.14
3 4 -3 4.48 0.15
-3 4 3 4.32 0.14
-3 4 3 4.13 0.15
3 4 -3 4.15 0.14
3 4 -3 4.55 0.15
-3 4 3 4.19 0.14
2 -4 -3 8.03 0.25
2 -4 -3 8.02 0.24
-2 -4 3 7.86 0.25
2 -4 -3 8.27 0.24
-2 -4 3 8.13 0.26
2 -4 -3 7.7 0.23
-2 -4 3 8.05 0.24
-2 4 3 8.43 0.25
-2 4 3 8.15 0.24
2 4 -3 7.82 0.25
-2 4 3 7.66 0.25
2 4 -3 7.86 0.27
2 4 -3 7.78 0.25
2 4 -3 7.75 0.24
1 -4 -3 3.05 0.1
-1 4 3 2.87 0.1
-1 4 3 2.89 0.1
-1 4 3 3 0.1
-1 4 3 2.89 0.1
1 4 -3 2.89 0.11
1 4 -3 2.92 0.1
0 -4 3 67.17 1.89
0 -4 3 65.21 1.93
0 -4 3 69.33 2.09
0 -4 -3 66.61 2.07
0 4 3 64.25 1.98
0 4 -3 67.86 2.17
0 4 3 64.54 1.97
0 4 -3 67.21 1.95
0 4 -3 70.32 1.9
1 -4 3 39.7 1.3
1 -4 3 39.51 1.18
-1 -4 -3 39.7 1.29
1 -4 3 43.81 1.3
1 4 3 42.92 1.2
-1 4 -3 41.19 1.21
-1 4 -3 42.59 1.18
1 4 3 41.78 1.23
-1 4 -3 42.63 1.35
2 -4 3 11.51 0.36
2 -4 3 11.61 0.34
2 -4 3 11.43 0.36
-2 -4 -3 11.43 0.34
2 -4 3 12.05 0.37
-2 -4 -3 11.23 0.33
2 4 3 11.62 0.35
-2 4 -3 11 0.33
-2 4 -3 10.88 0.34
-2 4 -3 11.28 0.38
-2 4 -3 11.24 0.38
-2 4 -3 10.8 0.36
3 -4 3 21.84 0.67
3 -4 3 21.57 0.66
-3 -4 -3 21.04 0.62
-3 -4 -3 20.15 0.63
3 4 3 21.76 0.66
3 4 3 20.05 0.62
-3 4 -3 21.19 0.69
-3 4 -3 21.6 0.62
3 4 3 19.91 0.62
-3 4 -3 21.42 0.67
-3 4 -3 20.94 0.61
4 -4 3 33.8 1.04
4 -4 3 32.95 1.01
-4 -4 -3 32.84 0.94
4 -4 3 32.81 0.94
-4 -4 -3 31.8 0.96
4 -4 3 31.17 0.99
-4 -4 -3 33.23 1.05
4 -4 3 33.12 0.96
-4 -4 -3 33.8 0.97
-4 4 -3 32.18 1.04
-4 4 -3 32.19 1.06
4 4 3 32.86 0.99
4 4 3 33.15 1.01
-4 4 -3 32.25 0.94
-4 4 -3 33.02 0.96
-4 4 -3 31.55 0.97
4 4 3 33.69 0.96
-4 4 -3 33.16 1.08
5 -4 3 15.11 0.44
5 -4 3 13.67 0.47
-5 -4 -3 14 0.45
-5 -4 -3 14.69 0.42
-5 -4 -3 14.39 0.44
5 -4 3 13.89 0.48
5 -4 3 14.81 0.42
-5 4 -3 14.38 0.43
5 4 3 14.28 0.45
5 4 3 14.32 0.43
5 4 3 14.57 0.47
-5 4 -3 14.82 0.44
-5 4 -3 14.46 0.49
-5 4 -3 13.87 0.47
-5 4 -3 14.25 0.49
-6 -4 -3 2.31 0.1
6 -4 3 2.25 0.12
-6 -4 -3 2.33 0.12
6 -4 3 2.37 0.1
-6 -4 -3 2.28 0.1
6 -4 3 2.25 0.1
6 -4 3 2.34 0.12
6 4 3 2.4 0.11
-6 4 -3 2.14 0.11
6 4 3 2.23 0.12
6 4 3 2.18 0.11
-6 4 -3 2.15 0.11
-6 4 -3 2.16 0.13
-6 4 -3 2.18 0.1
-7 -4 -3 0.74 0.07
-7 -4 -3 0.73 0.07
7 -4 3 0.85 0.08
7 -4 3 0.8 0.07
-7 -4 -3 0.9 0.1
7 -4 3 0.84 0.1
-7 -4 -3 0.64 0.1
-7 4 -3 0.72 0.09
7 4 3 0.66 0.09
7 4 3 0.87 0.08
-7 4 -3 0.87 0.09
-7 4 -3 0.7 0.08
-8 -4 -3 0.3 0.1
-8 -4 -3 0.19 0.04
8 -4 3 0.33 0.07
8 4 3 0.19 0.04
-8 4 -3 0.26 0.08
9 -4 3 2.02 0.1
-9 -4 -3 2.09 0.1
-9 -4 -3 1.76 0.15
-9 4 -3 2.14 0.1
9 -5 -3 0.07 0.03
-9 -5 3 0.14 0.03
-9 -5 3 0.11 0.03
8 -5 -3 1.33 0.08
8 -5 -3 1.3 0.08
8 -5 -3 1.22 0.1
-8 -5 3 1.27 0.11
-8 5 3 1.37 0.09
8 5 -3 1.12 0.09
7 -5 -3 11.57 0.35
7 -5 -3 11.8 0.37
7 -5 -3 11.24 0.38
-7 -5 3 12 0.37
-7 -5 3 10.86 0.38
7 5 -3 11.45 0.36
-7 5 3 12.12 0.37
7 5 -3 10.63 0.38
-7 5 3 10.81 0.36
6 -5 -3 0.65 0.06
6 -5 -3 0.5 0.08
-6 -5 3 0.62 0.08
-6 -5 3 0.7 0.07
-6 -5 3 0.75 0.06
6 -5 -3 0.77 0.07
-6 -5 3 0.69 0.09
-6 5 3 0.54 0.06
-6 5 3 0.57 0.07
6 5 -3 0.53 0.07
-6 5 3 0.63 0.07
6 5 -3 0.51 0.07
5 -5 -3 4.73 0.17
5 -5 -3 4.95 0.18
-5 -5 3 4.72 0.18
5 -5 -3 5.18 0.16
-5 -5 3 5.1 0.17
5 -5 -3 5.08 0.18
-5 5 3 5.16 0.17
5 5 -3 4.82 0.18
-5 5 3 4.87 0.17
5 5 -3 5.05 0.19
5 5 -3 4.79 0.17
-5 5 3 4.79 0.17
-4 -5 3 23.41 0.68
4 -5 -3 22.58 0.7
4 -5 -3 23 0.73
4 -5 -3 22.49 0.68
-4 -5 3 23.57 0.75
-4 -5 3 23.59 0.71
4 -5 -3 25.32 0.72
-4 -5 3 23.7 0.7
4 5 -3 23.76 0.7
-4 5 3 24.7 0.71
4 5 -3 22.56 0.7
-4 5 3 24.91 0.72
-4 5 3 24.15 0.68
4 5 -3 23.68 0.72
3 -5 -3 131.44 3.74
3 -5 -3 130.04 3.99
3 -5 -3 135.74 3.81
-3 -5 3 128.77 3.82
-3 -5 3 129.91 4.11
3 5 -3 130.97 3.79
-3 5 3 133.93 3.69
3 5 -3 130.57 3.96
3 5 -3 135.22 3.78
-3 5 3 126.82 3.88
2 -5 -3 15.02 0.44
-2 -5 3 14.24 0.43
-2 -5 3 14.47 0.44
2 -5 -3 14 0.43
2 -5 -3 13.97 0.42
-2 -5 3 14.02 0.46
-2 5 3 14.8 0.43
2 5 -3 14.07 0.43
2 5 -3 15.02 0.47
2 5 -3 14.77 0.45
-2 5 3 14.69 0.42
2 5 -3 14.14 0.43
2 5 -3 14.68 0.45
-2 5 3 15.42 0.44
-1 -5 3 22.4 0.66
1 -5 -3 21.29 0.66
-1 -5 3 20.87 0.61
-1 -5 3 20.47 0.62
1 5 -3 20.79 0.65
-1 5 3 21.48 0.64
-1 5 3 21.42 0.62
-1 5 3 21.09 0.61
-1 5 3 21.06 0.64
1 5 -3 21.29 0.7
0 -5 3 36.45 1.08
0 -5 3 33.4 0.99
0 -5 3 34.16 1.01
0 -5 -3 33.61 1.08
0 -5 -3 36.44 1.08
0 5 -3 33.18 1.07
0 5 -3 34.13 1.09
0 5 3 34.82 1.03
0 5 3 34.35 1.01
0 5 -3 35.48 1.02
0 5 -3 35.82 1.14
0 5 3 34.68 1.03
0 5 -3 35.15 1.05
1 -5 3 5.09 0.17
1 -5 3 4.87 0.15
1 -5 3 5.12 0.16
-1 -5 -3 4.67 0.16
1 -5 3 4.85 0.15
-1 5 -3 4.65 0.15
-1 5 -3 5.01 0.18
1 5 3 4.96 0.16
-1 5 -3 4.97 0.17
-1 5 -3 5.17 0.17
-1 5 -3 5.04 0.15
1 5 3 4.82 0.16
-2 -5 -3 2.08 0.07
-2 -5 -3 1.98 0.07
2 -5 3 2.14 0.08
2 -5 3 2.23 0.08
2 -5 3 1.95 0.07
2 -5 3 1.95 0.07
-2 5 -3 2.15 0.08
-2 5 -3 2.05 0.09
2 5 3 2.15 0.08
-2 5 -3 2.1 0.09
2 5 3 2.18 0.08
3 -5 3 2.89 0.12
3 -5 3 3.03 0.11
3 -5 3 2.95 0.1
-3 -5 -3 3.02 0.1
3 5 3 2.8 0.11
-3 5 -3 2.99 0.11
-3 5 -3 2.73 0.12
3 5 3 2.79 0.11
-3 5 -3 2.91 0.1
3 5 3 2.81 0.11
4 -5 3 17.1 0.48
4 -5 3 16.94 0.53
-4 -5 -3 15.77 0.51
4 -5 3 17.31 0.55
-4 -5 -3 17.05 0.49
-4 -5 -3 16.61 0.5
4 -5 3 16.68 0.5
-4 5 -3 16.92 0.54
-4 5 -3 16.51 0.5
4 5 3 17.3 0.52
4 5 3 15.95 0.49
4 5 3 16.26 0.53
-4 5 -3 16.31 0.56
-4 5 -3 16.86 0.56
-4 5 -3 15.86 0.49
-4 5 -3 16.98 0.49
5 -5 3 0.46 0.05
-5 -5 -3 0.39 0.05
-5 -5 -3 0.36 0.05
-5 -5 -3 0.55 0.08
5 -5 3 0.51 0.07
5 5 3 0.46 0.06
-5 5 -3 0.31 0.05
-5 5 -3 0.39 0.07
-5 5 -3 0.49 0.07
5 5 3 0.39 0.07
-5 5 -3 0.47 0.06
-5 5 -3 0.3 0.07
5 5 3 0.42 0.06
-6 -5 -3 8.37 0.27
6 -5 3 7.75 0.3
6 -5 3 8.4 0.26
6 -5 3 8 0.29
-6 -5 -3 8.24 0.26
-6 -5 -3 8.3 0.28
6 -5 3 8.65 0.27
6 5 3 8.16 0.29
6 5 3 8.19 0.28
-6 5 -3 8.13 0.29
-6 5 -3 7.71 0.31
-6 5 -3 8.63 0.27
7 -5 3 0.21 0.06
-7 -5 -3 0.26 0.06
7 -5 3 0.24 0.07
-7 -5 -3 0.23 0.04
-7 -5 -3 0.26 0.07
-7 5 -3 0.22 0.07
7 5 3 0.28 0.09
-7 5 -3 0.33 0.08
-8 -5 -3 0.02 0.03
8 -5 3 0.02 0.03
-8 -5 -3 0.05 0.02
-8 -5 -3 -0.04 0.04
8 5 3 0 0.04
-8 5 -3 0.01 0.02
9 -5 3 0.33 0.07
-9 -5 -3 0.41 0.06
-9 -6 3 0.57 0.09
-9 -6 3 0.57 0.08
-9 6 3 0.55 0.09
8 -6 -3 3.07 0.12
8 -6 -3 2.83 0.15
-8 -6 3 3.02 0.15
8 -6 -3 3.11 0.13
-8 -6 3 3.01 0.13
8 6 -3 3.08 0.14
-8 6 3 3.13 0.13
-7 -6 3 0.96 0.11
7 -6 -3 0.71 0.07
-7 -6 3 0.8 0.08
7 -6 -3 0.8 0.09
7 -6 -3 0.79 0.08
-7 -6 3 0.93 0.08
-7 6 3 0.83 0.1
7 6 -3 0.83 0.09
-7 6 3 0.76 0.08
-7 6 3 0.81 0.09
-6 -6 3 3.52 0.16
6 -6 -3 3.27 0.13
-6 -6 3 3.46 0.13
6 -6 -3 3.26 0.14
-6 -6 3 3.25 0.15
6 -6 -3 3.33 0.13
-6 6 3 3.29 0.13
-6 6 3 3.16 0.13
6 6 -3 3.12 0.14
6 6 -3 3.17 0.14
5 -6 -3 7.58 0.25
-5 -6 3 7.4 0.23
5 -6 -3 7.3 0.25
-5 -6 3 7.26 0.25
5 -6 -3 7.29 0.24
-5 -6 3 7.09 0.25
-5 -6 3 7.25 0.24
5 -6 -3 7.1 0.23
-5 6 3 7.31 0.24
5 6 -3 7.09 0.24
5 6 -3 7 0.26
5 6 -3 7.22 0.24
-5 6 3 6.96 0.24
-5 6 3 7.48 0.23
5 6 -3 7.39 0.25
-5 6 3 7.38 0.24
4 -6 -3 14.79 0.46
4 -6 -3 14.23 0.44
-4 -6 3 14.99 0.44
4 -6 -3 14.11 0.45
4 -6 -3 14.71 0.43
-4 -6 3 15.01 0.43
-4 -6 3 14.28 0.47
-4 -6 3 14.11 0.45
4 6 -3 14.89 0.44
4 6 -3 14.16 0.47
-4 6 3 15.12 0.45
-4 6 3 13.76 0.44
-4 6 3 14.76 0.44
-4 6 3 14.96 0.43
4 6 -3 14.02 0.44
4 6 -3 14.89 0.46
4 6 -3 14.5 0.46
3 -6 -3 42.36 1.17
3 -6 -3 40.17 1.19
-3 -6 3 38.46 1.21
-3 -6 3 41.78 1.19
-3 -6 3 39.98 1.28
3 -6 -3 40.96 1.25
3 6 -3 40.92 1.27
-3 6 3 40.96 1.16
-3 6 3 41.58 1.22
3 6 -3 42.45 1.19
-3 6 3 38.97 1.2
3 6 -3 41.4 1.25
-3 6 3 42.39 1.18
3 6 -3 41.44 1.23
-2 -6 3 34 1.05
2 -6 -3 36.66 1.09
2 -6 -3 36.18 1.12
2 -6 -3 36.03 1.02
-2 -6 3 36.06 1.03
2 -6 -3 35.79 1.05
-2 -6 3 37.66 1.13
2 6 -3 36.69 1.08
2 6 -3 37.95 1.15
2 6 -3 36.4 1.05
-2 6 3 35.29 1.08
-2 6 3 36.27 1.05
2 6 -3 34 1.05
1 -6 -3 77.9 2.38
-1 -6 3 74.6 2.21
-1 -6 3 76.95 2.18
-1 -6 3 78.95 2.4
1 6 -3 79.78 2.35
-1 6 3 73.68 2.39
1 6 -3 74.42 2.39
-1 6 3 76.96 2.27
1 6 -3 78.51 2.32
0 -6 3 12.48 0.37
0 -6 3 13.11 0.4
0 -6 -3 12.5 0.39
0 -6 3 12.9 0.36
0 6 3 12.14 0.38
0 6 -3 11.98 0.39
0 6 -3 12.4 0.42
0 6 3 12.52 0.37
0 6 -3 12.72 0.4
0 6 3 12.34 0.37
1 -6 3 26.15 0.8
1 -6 3 25.75 0.73
1 -6 3 24.66 0.74
1 -6 3 26.64 0.81
-1 6 -3 24.75 0.81
-1 6 -3 25.02 0.74
-1 6 -3 25.67 0.84
-1 6 -3 26.13 0.75
-1 6 -3 26.38 0.83
1 6 3 25.19 0.75
1 6 3 25.14 0.78
-2 -6 -3 17.84 0.54
2 -6 3 18.51 0.58
2 -6 3 18.43 0.52
2 -6 3 18.02 0.57
-2 -6 -3 17.83 0.52
2 -6 3 18.32 0.54
2 -6 3 18.39 0.58
-2 6 -3 17.77 0.58
-2 6 -3 18.81 0.6
-2 6 -3 19.01 0.61
-2 6 -3 18.66 0.53
2 6 3 17.86 0.55
-2 6 -3 17.51 0.54
2 6 3 18.72 0.56
3 -6 3 38.41 1.06
3 -6 3 36.68 1.08
3 -6 3 38.13 1.17
3 -6 3 36.21 1.14
-3 -6 -3 35.39 1.08
3 6 3 37.62 1.11
3 6 3 36.87 1.08
-3 6 -3 36.07 1.17
-3 6 -3 36.63 1.09
3 6 3 38.55 1.12
-3 6 -3 37.38 1.2
-3 6 -3 36.35 1.08
3 6 3 38.31 1.14
-3 6 -3 38.03 1.22
4 -6 3 1.67 0.07
4 -6 3 1.62 0.07
-4 -6 -3 1.63 0.07
4 -6 3 1.45 0.08
-4 -6 -3 1.64 0.1
-4 -6 -3 1.6 0.07
-4 6 -3 1.43 0.08
4 6 3 1.72 0.08
-4 6 -3 1.61 0.09
-4 6 -3 1.47 0.08
4 6 3 1.57 0.08
-5 -6 -3 8.28 0.26
-5 -6 -3 8.23 0.27
-5 -6 -3 8.33 0.28
5 -6 3 8.52 0.27
5 -6 3 7.85 0.29
5 -6 3 8.27 0.3
5 -6 3 8.63 0.26
-5 6 -3 8.7 0.29
-5 6 -3 7.99 0.3
-5 6 -3 8 0.27
5 6 3 8.17 0.28
-5 6 -3 8.53 0.27
-5 6 -3 8.38 0.31
5 6 3 8.75 0.27
-5 6 -3 8.34 0.26
-6 -6 -3 3.15 0.16
-6 -6 -3 3.2 0.12
6 -6 3 3.31 0.12
6 -6 3 2.94 0.16
-6 -6 -3 3.16 0.13
6 -6 3 3.25 0.15
6 -6 3 3.18 0.13
6 6 3 3.16 0.14
-6 6 -3 3.39 0.13
-6 6 -3 2.86 0.19
-6 6 -3 3.19 0.14
6 6 3 3.27 0.14
7 -6 3 0.05 0.04
-7 -6 -3 0.02 0.03
-7 -6 -3 0.04 0.02
-7 -6 -3 0.04 0.03
7 -6 3 0.04 0.03
-7 6 -3 0.06 0.02
7 6 3 0.08 0.03
-7 6 -3 0.03 0.04
-8 -6 -3 0.74 0.07
-8 -6 -3 0.47 0.1
8 -6 3 0.61 0.07
8 -6 3 0.58 0.1
-8 -6 -3 0.74 0.09
-8 6 -3 0.65 0.07
9 -6 3 0.95 0.08
-9 -6 -3 0.95 0.07
-9 -6 -3 1.06 0.2
9 -7 -3 1.49 0.1
9 -7 -3 1.77 0.09
-9 -7 3 1.55 0.13
9 7 -3 1.68 0.09
-9 7 3 1.42 0.1
8 -7 -3 0.56 0.07
-8 -7 3 0.41 0.11
8 -7 -3 0.47 0.06
-8 -7 3 0.67 0.08
-8 7 3 0.59 0.08
8 7 -3 0.51 0.07
-7 -7 3 0.99 0.09
-7 -7 3 0.86 0.08
7 -7 -3 0.82 0.08
7 -7 -3 0.76 0.07
7 -7 -3 0.77 0.1
-7 -7 3 0.87 0.11
7 7 -3 0.62 0.08
-7 7 3 0.88 0.08
-7 7 3 0.69 0.09
-7 7 3 0.79 0.09
6 -7 -3 6.49 0.21
6 -7 -3 6.19 0.23
-6 -7 3 6.39 0.24
-6 -7 3 6.13 0.25
-6 -7 3 6.33 0.21
6 -7 -3 6.54 0.22
-6 7 3 6.23 0.22
-6 7 3 6.39 0.22
-6 7 3 6.14 0.22
6 7 -3 6.71 0.23
-5 -7 3 4.39 0.17
5 -7 -3 4.34 0.15
5 -7 -3 4.49 0.16
5 -7 -3 4.56 0.17
5 -7 -3 4.51 0.17
-5 -7 3 4.89 0.19
-5 -7 3 4.83 0.17
-5 7 3 4.85 0.16
-5 7 3 4.6 0.16
-5 7 3 4.43 0.16
5 7 -3 4.58 0.18
5 7 -3 4.49 0.17
5 7 -3 4.53 0.17
5 7 -3 4.51 0.17
4 -7 -3 4.43 0.15
-4 -7 3 4.7 0.17
4 -7 -3 4.42 0.14
-4 -7 3 4.49 0.16
4 -7 -3 4.41 0.16
4 -7 -3 4.45 0.16
-4 -7 3 4.62 0.16
-4 -7 3 4.55 0.15
4 7 -3 4.47 0.16
4 7 -3 4.75 0.17
-4 7 3 4.47 0.16
4 7 -3 4.19 0.17
4 7 -3 4.65 0.16
-4 7 3 4.57 0.16
-4 7 3 4.55 0.15
-4 7 3 4.68 0.15
3 -7 -3 19.73 0.62
-3 -7 3 20.26 0.57
-3 -7 3 19.89 0.63
3 -7 -3 20.43 0.61
3 -7 -3 19.76 0.59
-3 -7 3 20.02 0.59
-3 -7 3 19.22 0.6
3 -7 -3 20.24 0.57
-3 7 3 19.43 0.6
3 7 -3 20.75 0.62
-3 7 3 18.79 0.58
3 7 -3 19.31 0.63
3 7 -3 19.86 0.63
-3 7 3 20 0.58
2 -7 -3 144.13 4.41
-2 -7 3 145.45 4.12
-2 -7 3 146.42 4.44
2 -7 -3 139.25 4.02
-2 -7 3 134.34 4.13
2 -7 -3 137.26 4.09
-2 -7 3 140.91 4.04
-2 7 3 135.21 4.27
-2 7 3 140.71 4.14
2 7 -3 147.24 4.37
2 7 -3 147.27 4.3
2 7 -3 145.01 4.2
-1 -7 3 17.9 0.52
1 -7 -3 17.37 0.56
-1 -7 3 18.08 0.56
1 -7 -3 18.02 0.54
1 -7 -3 17.85 0.56
1 7 -3 18.04 0.52
-1 7 3 18.01 0.52
-1 7 3 17.19 0.53
1 7 -3 17.43 0.56
-1 7 3 18.32 0.54
1 7 -3 18.42 0.55
1 7 -3 17.49 0.58
1 7 -3 17.84 0.57
0 -7 3 4.82 0.16
0 -7 -3 5.3 0.17
0 -7 3 5.32 0.17
0 -7 3 5.12 0.15
0 7 -3 5.31 0.19
0 7 -3 4.87 0.17
0 7 3 5.2 0.16
0 7 3 4.95 0.17
0 7 -3 5.35 0.18
0 7 3 5.17 0.17
0 7 -3 5.01 0.17
0 7 3 5.04 0.16
0 7 3 5.18 0.16
-1 -7 -3 24.81 0.73
1 -7 3 26.13 0.8
1 -7 3 25.77 0.79
1 -7 3 24.43 0.73
1 -7 3 26.02 0.72
-1 7 -3 25.66 0.8
1 7 3 25.32 0.77
1 7 3 24.82 0.74
1 7 3 25.25 0.74
-1 7 -3 24.18 0.74
-1 7 -3 24.69 0.83
2 -7 3 60.24 1.74
2 -7 3 61.18 1.87
-2 -7 -3 62.24 1.77
2 -7 3 60.92 1.77
2 -7 3 64.31 1.9
-2 7 -3 59.65 1.96
-2 7 -3 62.47 1.75
-2 7 -3 59.32 1.79
-2 7 -3 61.53 1.92
-3 -7 -3 1.11 0.05
-3 -7 -3 1.13 0.05
3 -7 3 1.08 0.05
3 -7 3 1.23 0.07
3 -7 3 1.22 0.07
-3 7 -3 1.07 0.06
-3 7 -3 1.14 0.06
3 7 3 1.1 0.06
3 7 3 1.25 0.06
-3 7 -3 1.24 0.06
-3 7 -3 1.17 0.07
4 -7 3 37.86 1.1
4 -7 3 38.31 1.2
4 -7 3 37.28 1.08
-4 -7 -3 37.06 1.1
-4 -7 -3 38.44 1.08
4 -7 3 37.74 1.17
4 7 3 36.94 1.1
-4 7 -3 37.31 1.11
4 7 3 37.15 1.14
-4 7 -3 37.36 1.09
-4 7 -3 37.73 1.23
-4 7 -3 39 1.19
4 7 3 38.4 1.14
5 -7 3 0.56 0.05
5 -7 3 0.5 0.05
-5 -7 -3 0.64 0.11
-5 -7 -3 0.54 0.05
-5 -7 -3 0.62 0.05
5 -7 3 0.63 0.07
5 -7 3 0.47 0.07
-5 7 -3 0.45 0.06
5 7 3 0.55 0.07
-5 7 -3 0.48 0.06
-5 7 -3 0.59 0.06
-5 7 -3 0.47 0.09
-5 7 -3 0.44 0.08
5 7 3 0.58 0.06
5 7 3 0.63 0.06
6 -7 3 5.43 0.24
6 -7 3 5.95 0.23
-6 -7 -3 5.72 0.23
-6 7 -3 6.1 0.22
-6 7 -3 5.46 0.27
-7 -7 -3 4.21 0.16
7 -7 3 4.09 0.15
-7 -7 -3 3.99 0.2
-7 -7 -3 4.09 0.15
7 -7 3 4.29 0.2
7 -7 3 4.19 0.16
7 7 3 4.05 0.17
-7 7 -3 3.89 0.16
-7 7 -3 3.97 0.17
8 -7 3 1.32 0.08
8 -7 3 1.25 0.09
-8 -7 -3 1.35 0.08
-8 7 -3 1.37 0.09
9 -7 3 0.32 0.06
-9 -7 -3 0.28 0.05
-9 7 -3 0.34 0.08
-9 -8 3 1.99 0.16
9 -8 -3 1.88 0.1
9 -8 -3 1.9 0.09
-8 -8 3 1.41 0.14
-8 -8 3 1.5 0.09
8 -8 -3 1.46 0.08
8 -8 -3 1.39 0.09
-8 8 3 1.26 0.12
-8 8 3 1.61 0.1
-8 8 3 1.34 0.09
8 8 -3 1.24 0.09
-7 -8 3 3.15 0.17
-7 -8 3 3.11 0.13
-7 -8 3 3.21 0.14
7 -8 -3 2.96 0.12
7 -8 -3 2.79 0.15
7 -8 -3 3.02 0.14
-7 8 3 3.12 0.13
-7 8 3 2.94 0.14
7 8 -3 2.75 0.14
-7 8 3 2.97 0.14
6 -8 -3 16.88 0.54
-6 -8 3 18.56 0.57
6 -8 -3 17.33 0.55
-6 -8 3 17.79 0.52
-6 8 3 17.55 0.53
-6 8 3 17.24 0.52
-5 -8 3 6.42 0.21
5 -8 -3 6.71 0.21
-5 -8 3 6.2 0.23
-5 -8 3 6.77 0.22
-5 -8 3 6.77 0.24
5 -8 -3 6.29 0.22
5 -8 -3 6.61 0.22
-5 8 3 6.5 0.21
-5 8 3 6.61 0.22
-5 8 3 6.45 0.23
5 8 -3 6.66 0.24
5 8 -3 6.12 0.23
5 8 -3 6.58 0.22
-4 -8 3 14.07 0.47
-4 -8 3 14.87 0.48
4 -8 -3 15.65 0.45
4 -8 -3 14.18 0.46
-4 -8 3 14.53 0.45
4 -8 -3 15.38 0.44
4 -8 -3 14.57 0.47
-4 8 3 14.89 0.46
-4 8 3 15.32 0.44
4 8 -3 14.58 0.47
-4 8 3 14.89 0.45
-4 8 3 15.25 0.45
4 8 -3 15.09 0.48
4 8 -3 15.35 0.47
4 8 -3 14.15 0.45
3 -8 -3 9.73 0.3
-3 -8 3 9.3 0.29
-3 -8 3 9.31 0.31
3 -8 -3 9.18 0.29
3 -8 -3 9.5 0.29
-3 -8 3 8.86 0.28
3 8 -3 9.29 0.3
-3 8 3 9.26 0.29
3 8 -3 9.43 0.29
-3 8 3 9.14 0.28
-3 8 3 8.91 0.29
-3 8 3 8.86 0.3
3 8 -3 9.52 0.31
-3 8 3 9.9 0.3
2 -8 -3 15.95 0.48
2 -8 -3 16.65 0.51
-2 -8 3 16.17 0.52
-2 8 3 15.62 0.5
-2 8 3 15.54 0.47
-2 8 3 15.97 0.48
-2 8 3 16.56 0.48
2 8 -3 16.74 0.52
-1 -8 3 114.71 3.49
1 -8 -3 108.63 3.44
-1 -8 3 108.36 3.17
-1 8 3 106.75 3.35
1 8 -3 114.91 3.37
-1 8 3 111.71 3.29
-1 8 3 111.3 3.12
1 8 -3 115.08 3.49
-1 8 3 109.26 3.2
1 8 -3 109.76 3.54
-1 8 3 114.67 3.48
0 -8 3 18.92 0.6
0 -8 3 19.1 0.56
0 -8 -3 18.41 0.6
0 -8 3 19.37 0.54
0 8 3 18.86 0.56
0 8 3 19.46 0.55
0 8 3 18.39 0.6
0 8 -3 20.08 0.59
0 8 -3 19.4 0.6
0 8 3 17.97 0.55
0 8 -3 19.28 0.62
0 8 3 18.41 0.58
0 8 -3 18.38 0.59
1 -8 3 28.31 0.81
1 -8 3 29.01 0.87
1 -8 3 27.35 0.88
1 -8 3 28.2 0.79
-1 8 -3 28.09 0.88
1 8 3 26.06 0.88
1 8 3 28.54 0.79
1 8 3 28.75 0.84
1 8 3 27.2 0.82
-1 8 -3 27.86 0.85
1 8 3 26.85 0.85
2 -8 3 11.56 0.34
2 -8 3 11.6 0.38
2 -8 3 11.78 0.38
2 -8 3 10.98 0.37
-2 -8 -3 11.47 0.35
-2 8 -3 11.81 0.38
-2 8 -3 12.21 0.4
2 8 3 12.03 0.37
-2 8 -3 12.13 0.35
-2 8 -3 12.14 0.35
-2 8 -3 11.13 0.35
-2 8 -3 11.89 0.4
2 8 3 11.77 0.36
3 -8 3 22.9 0.64
-3 -8 -3 21.22 0.64
-3 -8 -3 22.45 0.66
3 -8 3 22.95 0.7
3 -8 3 22.68 0.72
3 -8 3 23.44 0.66
-3 8 -3 21.6 0.75
-3 8 -3 22.68 0.65
3 8 3 21.47 0.68
-3 8 -3 23.06 0.72
3 8 3 21.89 0.66
-3 8 -3 22.18 0.66
-3 8 -3 22.51 0.74
-4 -8 -3 3.13 0.11
4 -8 3 3.27 0.12
4 -8 3 3.41 0.14
4 -8 3 3.33 0.14
-4 -8 -3 3.29 0.12
4 -8 3 3.27 0.11
-4 8 -3 3.3 0.13
-4 8 -3 3.16 0.14
-4 8 -3 3.43 0.12
4 8 3 3.49 0.13
4 8 3 3.45 0.13
-4 8 -3 3.26 0.14
-4 8 -3 3.31 0.12
-5 -8 -3 0.16 0.05
5 -8 3 0.23 0.05
5 -8 3 0.2 0.06
-5 -8 -3 0.27 0.05
5 -8 3 0.32 0.07
5 -8 3 0.26 0.05
5 8 3 0.26 0.06
-5 8 -3 0.18 0.05
-5 8 -3 0.26 0.06
-5 8 -3 0.25 0.06
6 -8 3 5.21 0.19
6 -8 3 5.31 0.18
-6 -8 -3 5.46 0.18
-6 -8 -3 5.49 0.19
6 -8 3 5.24 0.21
6 8 3 5.31 0.2
7 -8 3 2.19 0.11
7 -8 3 1.93 0.15
-7 -8 -3 2.3 0.1
7 -8 3 2.25 0.1
-7 -8 -3 2.22 0.11
-7 8 -3 2.09 0.12
7 8 3 1.94 0.11
-7 8 -3 2.32 0.11
8 -8 3 1.3 0.1
-8 -8 -3 1.58 0.11
8 -8 3 1.4 0.09
-8 8 -3 1.36 0.09
9 -8 3 0.2 0.05
-9 -9 3 3.58 0.14
9 -9 -3 3.59 0.14
9 9 -3 3.84 0.14
-9 9 3 3.64 0.15
8 -9 -3 4.38 0.16
8 -9 -3 4.25 0.15
8 9 -3 4.04 0.17
-8 9 3 4.14 0.17
7 -9 -3 3.54 0.14
7 -9 -3 3.47 0.15
-7 -9 3 3.96 0.14
-7 -9 3 3.74 0.15
-7 -9 3 3.92 0.2
-7 9 3 3.68 0.15
-7 9 3 3.44 0.17
7 9 -3 3.74 0.16
-7 9 3 3.62 0.15
-7 9 3 3.67 0.14
6 -9 -3 0.3 0.08
-6 -9 3 0.36 0.11
6 -9 -3 0.48 0.06
-6 9 3 0.42 0.08
6 9 -3 0.35 0.07
5 -9 -3 6.62 0.21
5 -9 -3 6.16 0.2
-5 -9 3 5.97 0.23
-5 -9 3 6.47 0.21
-5 -9 3 6.24 0.2
5 -9 -3 6.09 0.22
-5 -9 3 6.09 0.24
5 9 -3 6.07 0.23
-5 9 3 6.53 0.21
5 9 -3 6.21 0.22
-5 9 3 6.29 0.22
-5 9 3 5.96 0.22
-5 9 3 6.44 0.2
5 9 -3 6.53 0.22
-5 9 3 6.17 0.22
-4 -9 3 9.13 0.27
4 -9 -3 8.89 0.28
4 -9 -3 8.89 0.29
-4 -9 3 9.11 0.28
4 -9 -3 8.47 0.27
-4 -9 3 8.59 0.3
-4 9 3 8.61 0.27
4 9 -3 8.76 0.28
4 9 -3 9.11 0.31
4 9 -3 9.12 0.29
-4 9 3 8.59 0.29
-4 9 3 8.87 0.29
-4 9 3 8.8 0.28
4 9 -3 9.15 0.3
-4 9 3 9.14 0.28
3 -9 -3 31.68 1.01
-3 -9 3 32 1.01
3 -9 -3 31.11 0.92
-3 -9 3 31.49 0.92
-3 -9 3 32.51 0.94
-3 9 3 30.42 0.97
3 9 -3 32.44 1
-3 9 3 32.12 0.97
-3 9 3 33.35 0.94
-3 9 3 32.7 0.92
3 9 -3 33.13 0.99
3 9 -3 32.69 0.95
2 -9 -3 22.68 0.7
2 -9 -3 23.47 0.73
-2 -9 3 24.86 0.69
-2 -9 3 24.54 0.76
-2 -9 3 24.14 0.71
2 -9 -3 24.45 0.75
2 9 -3 24.63 0.74
2 9 -3 25.41 0.77
2 9 -3 24.65 0.71
2 9 -3 24.03 0.73
-2 9 3 23.24 0.72
-2 9 3 24.65 0.7
-2 9 3 23.42 0.69
2 9 -3 23.02 0.78
-2 9 3 23.55 0.73
1 -9 -3 61.31 1.89
1 -9 -3 58.74 1.93
-1 -9 3 59.27 1.76
-1 -9 3 64.15 1.94
-1 -9 3 60.39 1.8
1 9 -3 64.98 1.99
1 9 -3 61.75 1.78
-1 9 3 62.62 1.85
-1 9 3 62.73 1.84
1 9 -3 64.57 1.91
1 9 -3 64.62 1.89
-1 9 3 63.01 1.8
-1 9 3 61.53 1.76
-1 9 3 60.98 1.88
1 9 -3 63.78 1.81
0 -9 -3 6.6 0.23
0 -9 3 6.75 0.2
0 -9 3 6.75 0.23
0 -9 3 6.89 0.21
0 9 3 6.81 0.22
0 9 3 6.79 0.22
0 9 3 6.85 0.23
0 9 3 6.64 0.21
0 9 -3 6.85 0.22
0 9 3 6.41 0.22
0 9 -3 7.08 0.24
0 9 -3 6.75 0.25
0 9 -3 6.65 0.23
0 9 -3 6.75 0.23
0 9 -3 6.84 0.21
0 9 3 6.77 0.21
1 -9 3 80.77 2.31
1 -9 3 80.53 2.55
1 -9 3 83.31 2.36
1 -9 3 81.33 2.53
-1 9 -3 84.49 2.33
1 9 3 76.58 2.32
-1 9 -3 83.78 2.55
-1 9 -3 82.05 2.61
1 9 3 82.79 2.36
1 9 3 80.88 2.55
1 9 3 82.56 2.42
-1 9 -3 81.7 2.47
-2 -9 -3 4.42 0.14
-2 -9 -3 4.6 0.15
2 -9 3 4.6 0.15
2 -9 3 4.7 0.14
2 -9 3 4.8 0.16
2 -9 3 4.55 0.16
2 -9 3 4.46 0.17
2 9 3 4.26 0.15
-2 9 -3 4.31 0.15
-2 9 -3 4.53 0.15
-2 9 -3 4.63 0.16
-2 9 -3 4.86 0.18
-2 9 -3 4.74 0.18
2 9 3 4.51 0.16
2 9 3 4.57 0.16
2 9 3 4.62 0.16
3 -9 3 1.07 0.05
3 -9 3 1.03 0.05
-3 -9 -3 1.07 0.05
3 -9 3 0.9 0.07
-3 -9 -3 1 0.06
3 9 3 1.09 0.06
-3 9 -3 1.05 0.05
3 9 3 1.13 0.07
-3 9 -3 0.96 0.06
3 9 3 1.05 0.06
-3 9 -3 0.97 0.07
-3 9 -3 1.04 0.06
-3 9 -3 1.05 0.08
-3 9 -3 1.02 0.06
4 -9 3 12.75 0.38
-4 -9 -3 12.68 0.38
-4 -9 -3 12.45 0.39
4 -9 3 13.14 0.39
4 -9 3 13.12 0.42
4 9 3 12.91 0.39
4 9 3 12.63 0.4
-4 9 -3 12.75 0.39
-4 9 -3 12.49 0.42
-4 9 -3 12.92 0.39
-4 9 -3 11.97 0.44
5 -9 3 2.95 0.14
-5 -9 -3 2.84 0.11
5 -9 3 2.65 0.14
5 -9 3 3.02 0.11
-5 -9 -3 2.97 0.12
-5 9 -3 2.82 0.12
5 9 3 3.07 0.13
-5 9 -3 2.9 0.13
-5 9 -3 2.74 0.15
-5 9 -3 2.88 0.12
5 9 3 3.02 0.12
-6 -9 -3 2.64 0.12
6 -9 3 2.54 0.12
-6 -9 -3 2.81 0.11
6 -9 3 2.7 0.11
6 9 3 2.79 0.13
-6 9 -3 2.74 0.12
-6 9 -3 2.76 0.13
-6 9 -3 2.77 0.13
7 -9 3 0.97 0.07
7 -9 3 1.06 0.08
-7 -9 -3 1.04 0.07
-7 -9 -3 0.98 0.08
-7 9 -3 1.04 0.08
7 9 3 0.84 0.09
-7 9 -3 1.14 0.1
-8 -9 -3 0.22 0.04
-8 9 -3 0.12 0.08
-9 9 -3 0.24 0.08
9 -10 -3 0.18 0.03
-9 -10 3 0.29 0.06
-8 -10 3 4.49 0.18
8 -10 -3 5.08 0.16
-8 -10 3 4.72 0.17
8 -10 -3 4.72 0.17
-8 10 3 4.96 0.19
8 10 -3 4.38 0.18
7 -10 -3 3.28 0.13
-7 -10 3 3.58 0.14
7 -10 -3 3.13 0.14
-7 -10 3 3.38 0.13
-7 -10 3 3.11 0.21
-7 10 3 3.11 0.13
7 10 -3 3.25 0.15
-7 10 3 3.12 0.14
-7 10 3 3.27 0.14
6 -10 -3 0.08 0.03
-6 -10 3 0.08 0.06
6 -10 -3 0.19 0.06
6 10 -3 0.24 0.08
-6 10 3 0.08 0.03
-6 10 3 0.11 0.04
-6 10 3 0.13 0.05
-5 -10 3 3.2 0.15
5 -10 -3 3.33 0.13
-5 -10 3 3.55 0.14
5 -10 -3 3.21 0.15
5 10 -3 3.3 0.14
-5 10 3 3.48 0.13
-5 10 3 3.3 0.15
5 10 -3 3.16 0.14
-5 10 3 3.08 0.13
-5 10 3 3.34 0.15
-5 10 3 3.47 0.14
-5 10 3 3.28 0.12
-4 -10 3 9.55 0.3
4 -10 -3 9.5 0.28
-4 -10 3 8.94 0.32
4 -10 -3 9.15 0.31
-4 -10 3 9.58 0.29
-4 10 3 9.21 0.31
4 10 -3 9.33 0.3
4 10 -3 9.44 0.31
-4 10 3 9.94 0.3
-4 10 3 9 0.28
-4 10 3 9.54 0.3
4 10 -3 9.38 0.33
-4 10 3 10.11 0.33
-4 10 3 9.27 0.31
-3 -10 3 3.1 0.11
-3 -10 3 3.36 0.13
-3 -10 3 3.46 0.12
3 -10 -3 3.3 0.12
3 10 -3 3.55 0.14
-3 10 3 3.22 0.13
3 10 -3 3.57 0.13
-3 10 3 3.37 0.13
-3 10 3 3.46 0.13
-3 10 3 3.29 0.12
-3 10 3 3.4 0.13
3 10 -3 3.37 0.13
-3 10 3 3.22 0.13
-2 -10 3 13.92 0.41
-2 -10 3 13.64 0.44
2 -10 -3 13.42 0.43
-2 10 3 13.57 0.4
-2 10 3 13.01 0.41
2 10 -3 14 0.43
-2 10 3 13.71 0.41
2 10 -3 13.99 0.44
2 10 -3 14.31 0.43
2 10 -3 13.07 0.44
-2 10 3 13.04 0.42
2 10 -3 13.67 0.42
2 10 -3 13.35 0.45
-2 10 3 13.46 0.42
1 -10 -3 7.36 0.23
-1 -10 3 6.96 0.24
1 -10 -3 6.97 0.22
-1 10 3 6.68 0.23
-1 10 3 7.18 0.22
1 10 -3 7.38 0.25
-1 10 3 7.29 0.23
1 10 -3 6.78 0.23
1 10 -3 7.1 0.22
1 10 -3 6.97 0.23
-1 10 3 7.02 0.22
1 10 -3 6.62 0.24
0 -10 3 180.7 5.68
0 -10 3 179.42 5.22
0 -10 3 181.75 5.65
0 10 3 171.81 5.36
0 10 3 178.81 5.09
0 10 3 182.87 5.36
0 10 3 174.29 5.16
0 10 -3 180.39 5.49
0 10 -3 183.51 5.18
0 10 -3 191.95 5.67
0 10 -3 188.75 5.82
0 10 -3 187.67 5.93
0 10 3 172.76 5.2
1 -10 3 4.29 0.14
1 -10 3 4.64 0.16
-1 10 -3 4.41 0.17
1 10 3 4.38 0.16
1 10 3 4.45 0.15
1 10 3 4.59 0.16
-1 10 -3 4.67 0.16
1 10 3 4.5 0.16
1 10 3 4.51 0.16
1 10 3 4.42 0.15
-1 10 -3 4.47 0.15
-1 10 -3 4.32 0.15
-1 10 -3 4.36 0.17
-1 10 -3 4.75 0.16
2 -10 3 23.88 0.73
2 -10 3 25.21 0.78
2 -10 3 24.97 0.72
-2 -10 -3 23.92 0.71
-2 -10 -3 23.9 0.73
2 -10 3 24.58 0.79
2 10 3 25.11 0.74
-2 10 -3 25.8 0.72
2 10 3 25.06 0.77
-2 10 -3 25.57 0.74
-2 10 -3 24.27 0.82
2 10 3 25.85 0.76
-2 10 -3 25.48 0.77
-2 10 -3 24.04 0.79
-2 10 -3 25.82 0.83
2 10 3 25.11 0.75
-2 10 -3 25.82 0.73
3 -10 3 1.79 0.1
3 -10 3 1.87 0.08
3 -10 3 1.77 0.09
3 -10 3 1.88 0.07
-3 -10 -3 1.87 0.08
-3 10 -3 1.92 0.08
-3 10 -3 1.73 0.07
-3 10 -3 1.87 0.1
3 10 3 1.87 0.09
3 10 3 1.88 0.09
-3 10 -3 1.96 0.08
3 10 3 1.91 0.09
-3 10 -3 1.98 0.09
-3 10 -3 1.75 0.1
-4 -10 -3 1.64 0.07
4 -10 3 1.74 0.1
-4 -10 -3 1.66 0.08
4 -10 3 1.63 0.1
4 -10 3 1.72 0.08
4 -10 3 1.76 0.07
4 10 3 1.67 0.09
-4 10 -3 1.63 0.09
4 10 3 1.77 0.09
-4 10 -3 1.76 0.08
-4 10 -3 1.68 0.12
-4 10 -3 1.75 0.1
-4 10 -3 1.71 0.08
-5 -10 -3 7.24 0.23
5 -10 3 6.87 0.26
5 -10 3 7.23 0.23
-5 -10 -3 6.97 0.23
5 -10 3 7.21 0.23
-5 10 -3 7.23 0.23
-5 10 -3 7.23 0.23
5 10 3 7.24 0.24
-5 10 -3 7.06 0.26
5 10 3 6.95 0.25
-5 10 -3 6.57 0.28
-6 -10 -3 2.89 0.12
6 -10 3 2.91 0.12
-6 -10 -3 2.9 0.12
6 -10 3 2.92 0.11
-6 10 -3 3 0.13
-6 10 -3 2.7 0.12
-6 10 -3 2.96 0.14
6 10 3 2.62 0.13
7 -10 3 0.58 0.06
-7 -10 -3 0.56 0.07
-7 -10 -3 0.63 0.07
7 -10 3 0.45 0.07
-7 10 -3 0.66 0.08
-7 10 -3 0.37 0.09
-8 -10 -3 0.27 0.08
8 -10 3 0.23 0.07
8 10 3 0.47 0.11
8 10 3 0.3 0.08
-8 -11 3 5.86 0.21
8 -11 -3 6.19 0.2
-8 -11 3 6.13 0.21
-8 11 3 6.26 0.23
-8 11 3 5.59 0.22
7 -11 -3 1.5 0.1
-7 -11 3 1.72 0.09
-7 -11 3 1.8 0.1
7 -11 -3 1.69 0.09
-7 11 3 1.66 0.1
7 11 -3 1.68 0.11
-7 11 3 1.74 0.1
-7 11 3 1.75 0.1
6 -11 -3 4.95 0.18
-6 -11 3 4.65 0.19
6 -11 -3 5.05 0.17
-6 11 3 4.87 0.18
6 11 -3 4.81 0.19
-6 11 3 5.02 0.19
6 11 -3 4.78 0.19
-5 -11 3 0.43 0.08
5 -11 -3 0.27 0.07
-5 11 3 0.4 0.07
5 11 -3 0.41 0.08
-5 11 3 0.31 0.06
-5 11 3 0.4 0.07
-5 11 3 0.51 0.1
5 11 -3 0.35 0.08
4 -11 -3 0.59 0.05
-4 -11 3 0.61 0.05
-4 -11 3 0.62 0.06
4 -11 -3 0.53 0.08
-4 -11 3 0.73 0.06
-4 11 3 0.5 0.08
4 11 -3 0.55 0.06
4 11 -3 0.69 0.07
-4 11 3 0.72 0.07
4 11 -3 0.62 0.07
4 11 -3 0.59 0.08
-4 11 3 0.72 0.06
-4 11 3 0.58 0.07
-4 11 3 0.68 0.07
3 -11 -3 0.55 0.04
-3 -11 3 0.61 0.04
-3 -11 3 0.58 0.05
-3 -11 3 0.56 0.05
3 -11 -3 0.69 0.06
3 11 -3 0.65 0.06
-3 11 3 0.69 0.06
-3 11 3 0.56 0.06
-3 11 3 0.59 0.06
-3 11 3 0.59 0.06
3 11 -3 0.58 0.06
3 11 -3 0.56 0.06
3 11 -3 0.58 0.07
-3 11 3 0.66 0.07
-3 11 3 0.67 0.06
-2 -11 3 4.12 0.14
-2 -11 3 4.01 0.13
-2 -11 3 3.93 0.15
2 11 -3 4.26 0.16
2 11 -3 3.83 0.14
-2 11 3 4.15 0.15
-2 11 3 3.88 0.14
2 11 -3 3.92 0.15
-2 11 3 3.98 0.15
-2 11 3 4.08 0.14
-2 11 3 3.84 0.15
2 11 -3 4.01 0.15
2 11 -3 4.08 0.15
-2 11 3 4.2 0.15
1 -11 -3 1.7 0.08
-1 -11 3 1.82 0.07
1 -11 -3 1.73 0.07
-1 -11 3 1.78 0.08
1 -11 -3 1.73 0.07
-1 11 3 1.6 0.08
-1 11 3 1.88 0.08
-1 11 3 1.86 0.08
1 11 -3 1.7 0.08
1 11 -3 1.78 0.08
-1 11 3 1.74 0.08
1 11 -3 1.77 0.08
-1 11 3 1.75 0.08
-1 11 3 1.69 0.08
1 11 -3 1.73 0.09
0 -11 3 5.52 0.19
0 -11 3 5.18 0.16
0 -11 3 5.54 0.19
0 -11 3 5.23 0.17
0 11 -3 5.46 0.19
0 11 3 5.3 0.18
0 11 3 5.13 0.17
0 11 3 5.3 0.18
0 11 -3 5.68 0.18
0 11 3 5.17 0.18
0 11 -3 5.58 0.21
0 11 3 5.26 0.18
0 11 -3 5.45 0.19
0 11 -3 5.63 0.19
0 11 3 5.39 0.18
0 11 -3 5.64 0.2
1 -11 3 7.29 0.23
1 -11 3 7.49 0.23
1 -11 3 7.76 0.26
1 -11 3 7.51 0.25
1 11 3 7.62 0.25
1 11 3 7.38 0.25
1 11 3 7.5 0.24
-1 11 -3 7.6 0.26
-1 11 -3 7.59 0.27
1 11 3 7.89 0.26
-1 11 -3 7.3 0.27
1 11 3 7.37 0.25
-1 11 -3 7.87 0.24
1 11 3 7.41 0.24
-1 11 -3 7.69 0.25
2 -11 3 6.77 0.22
2 -11 3 6.19 0.23
-2 -11 -3 6.03 0.19
2 -11 3 6.23 0.19
2 -11 3 6.34 0.22
2 -11 3 6.24 0.2
-2 11 -3 6.48 0.22
-2 11 -3 6.71 0.24
2 11 3 6.26 0.22
-2 11 -3 6.59 0.22
2 11 3 6.58 0.21
2 11 3 6.47 0.21
-2 11 -3 6.43 0.21
2 11 3 6.02 0.21
-2 11 -3 6.48 0.2
2 11 3 6.43 0.22
-2 11 -3 6.07 0.24
3 -11 3 0.56 0.04
3 -11 3 0.49 0.07
3 -11 3 0.65 0.05
-3 -11 -3 0.65 0.05
-3 11 -3 0.61 0.05
3 11 3 0.65 0.06
-3 11 -3 0.5 0.06
3 11 3 0.6 0.06
-3 11 -3 0.57 0.04
-3 11 -3 0.44 0.08
-3 11 -3 0.6 0.06
3 11 3 0.6 0.06
3 11 3 0.48 0.06
-4 -11 -3 3.33 0.12
4 -11 3 3.43 0.15
4 -11 3 3.36 0.15
-4 -11 -3 3.43 0.13
4 -11 3 3.39 0.12
4 -11 3 3.3 0.12
-4 11 -3 3.38 0.16
-4 11 -3 3.28 0.17
-4 11 -3 3.18 0.12
-4 11 -3 3.21 0.14
4 11 3 3.41 0.14
-4 11 -3 3.46 0.13
4 11 3 3.4 0.14
5 -11 3 5.18 0.21
-5 -11 -3 5.1 0.17
5 11 3 4.99 0.19
-5 11 -3 4.57 0.22
-6 -11 -3 1.74 0.09
6 -11 3 1.33 0.13
6 -11 3 1.54 0.09
-6 -11 -3 1.69 0.09
6 -11 3 1.48 0.08
-6 11 -3 1.64 0.09
-6 11 -3 1.54 0.1
-6 11 -3 1.61 0.1
6 11 3 1.45 0.1
-7 -11 -3 1.53 0.09
-7 -11 -3 1.43 0.08
7 -11 3 1.54 0.08
7 -11 3 1.43 0.08
-7 11 -3 1.38 0.11
-7 11 -3 1.53 0.09
7 11 3 1.32 0.1
-8 -11 -3 2.02 0.1
8 -11 3 1.84 0.09
-8 -11 -3 1.94 0.11
8 -11 3 1.79 0.09
-8 -11 -3 2.06 0.09
-8 11 -3 2.06 0.11
8 11 3 1.83 0.1
8 -12 -3 1.06 0.06
-8 -12 3 1.09 0.08
-8 -12 3 0.75 0.1
-8 12 3 0.84 0.11
-8 12 3 0.92 0.07
7 -12 -3 0.94 0.07
7 -12 -3 0.82 0.08
-7 -12 3 1.07 0.08
-7 -12 3 0.99 0.08
-7 12 3 0.94 0.09
-7 12 3 0.87 0.08
-7 12 3 1.04 0.08
7 12 -3 1.01 0.08
-6 -12 3 3.81 0.16
6 -12 -3 3.76 0.14
6 -12 -3 3.92 0.15
-6 12 3 3.89 0.15
6 12 -3 3.72 0.16
6 12 -3 3.65 0.17
-6 12 3 3.99 0.17
-6 12 3 3.88 0.16
-5 -12 3 14.35 0.43
5 -12 -3 12.96 0.41
-5 -12 3 12.91 0.41
5 12 -3 14.26 0.45
-5 12 3 13.42 0.43
-5 12 3 14.22 0.44
-5 12 3 13.55 0.42
-4 -12 3 -0.01 0.02
-4 -12 3 0.01 0.03
4 -12 -3 0.01 0.02
4 -12 -3 0.03 0.03
4 12 -3 0.06 0.04
-4 12 3 0.03 0.03
-4 12 3 0.03 0.03
-4 12 3 0.02 0.02
-4 12 3 -0.01 0.02
4 12 -3 0.02 0.02
-4 12 3 -0.02 0.02
4 12 -3 -0.02 0.02
-3 -12 3 2.56 0.11
-3 -12 3 2.66 0.11
3 12 -3 2.57 0.11
-3 12 3 2.78 0.11
-3 12 3 2.64 0.12
3 12 -3 2.78 0.12
-3 12 3 2.46 0.11
-3 12 3 2.67 0.11
3 12 -3 2.67 0.13
-3 12 3 2.67 0.12
3 12 -3 2.87 0.12
-3 12 3 2.53 0.11
-2 -12 3 2.96 0.11
-2 -12 3 3.15 0.12
-2 -12 3 2.88 0.1
-2 12 3 3.28 0.12
-2 12 3 2.97 0.12
-2 12 3 3.09 0.12
-2 12 3 3.15 0.12
-2 12 3 3.23 0.12
2 12 -3 3.21 0.13
2 12 -3 2.89 0.13
2 12 -3 3.21 0.13
-2 12 3 2.96 0.12
1 -12 -3 2.44 0.1
-1 -12 3 2.57 0.1
1 12 -3 2.54 0.11
1 12 -3 2.57 0.11
-1 12 3 2.46 0.1
-1 12 3 2.31 0.1
-1 12 3 2.44 0.1
-1 12 3 2.49 0.1
-1 12 3 2.35 0.1
-1 12 3 2.44 0.1
1 12 -3 2.6 0.11
1 12 -3 2.59 0.1
-1 12 3 2.57 0.1
0 -12 3 11.15 0.33
0 -12 3 11.39 0.34
0 -12 -3 11.04 0.36
0 12 3 11.33 0.35
0 12 3 11.45 0.36
0 12 3 11.22 0.34
0 12 3 10.93 0.37
0 12 -3 11.15 0.34
0 12 3 11.14 0.35
0 12 3 11.01 0.36
0 12 -3 11.84 0.37
0 12 -3 10.91 0.39
0 12 -3 10.97 0.37
0 12 -3 11.65 0.37
0 12 3 11.49 0.34
0 12 -3 10.96 0.35
1 -12 3 16.75 0.52
1 -12 3 16.01 0.46
1 -12 3 15.52 0.47
1 -12 3 16.72 0.51
1 12 3 15.65 0.49
-1 12 -3 16.15 0.55
1 12 3 15.47 0.47
1 12 3 15.1 0.51
1 12 3 16.18 0.5
-1 12 -3 15.72 0.54
-1 12 -3 15.72 0.51
-1 12 -3 15.95 0.52
-1 12 -3 16.39 0.48
1 12 3 15.49 0.48
1 12 3 16.07 0.49
2 -12 3 0.47 0.04
2 -12 3 0.41 0.05
2 -12 3 0.37 0.04
-2 -12 -3 0.46 0.04
2 -12 3 0.44 0.06
2 -12 3 0.46 0.06
-2 -12 -3 0.43 0.06
-2 12 -3 0.5 0.05
2 12 3 0.44 0.06
2 12 3 0.36 0.05
2 12 3 0.37 0.05
-2 12 -3 0.4 0.05
-2 12 -3 0.38 0.05
-2 12 -3 0.36 0.07
2 12 3 0.46 0.07
2 12 3 0.49 0.05
-2 12 -3 0.36 0.05
-3 -12 -3 0.96 0.06
3 -12 3 0.85 0.06
3 -12 3 0.77 0.08
3 -12 3 0.78 0.08
3 -12 3 0.83 0.05
-3 12 -3 0.77 0.08
3 12 3 0.87 0.07
-3 12 -3 0.88 0.06
-3 12 -3 0.78 0.07
-3 12 -3 0.81 0.06
3 12 3 0.89 0.07
-3 12 -3 0.93 0.07
3 12 3 0.86 0.07
3 12 3 0.82 0.07
4 -12 3 1.71 0.12
4 -12 3 1.83 0.08
-4 -12 -3 1.85 0.08
-4 -12 -3 1.96 0.09
4 -12 3 1.68 0.11
-4 12 -3 1.74 0.12
4 12 3 1.93 0.11
-4 12 -3 1.73 0.1
4 12 3 1.88 0.1
-4 12 -3 1.88 0.08
4 12 3 1.88 0.1
-4 12 -3 2 0.1
-4 12 -3 1.85 0.09
-5 -12 -3 0.08 0.02
-5 -12 -3 0.09 0.03
-5 12 -3 0.22 0.07
5 12 3 0.11 0.03
5 12 3 0.09 0.03
5 12 3 0.23 0.07
-5 12 -3 0.12 0.04
-5 12 -3 0.04 0.02
-5 12 -3 0.09 0.02
6 -12 3 0.09 0.02
6 -12 3 0.03 0.05
6 -12 3 0.09 0.03
-6 -12 -3 0.22 0.06
-6 -12 -3 0.1 0.03
6 12 3 0.06 0.03
-6 12 -3 0.12 0.03
-6 12 -3 0.15 0.04
7 -12 3 2.01 0.09
-7 -12 -3 1.89 0.1
7 -12 3 1.89 0.1
-7 -12 -3 2.05 0.09
7 12 3 1.93 0.11
-7 12 -3 1.81 0.12
-7 12 -3 2.04 0.11
-8 -12 -3 0.75 0.09
8 -12 3 0.67 0.07
8 -12 3 0.84 0.07
-8 -12 -3 0.78 0.08
-8 -12 -3 0.71 0.07
8 12 3 0.64 0.08
8 -13 -3 0.71 0.05
-8 -13 3 0.73 0.07
-8 13 3 0.51 0.11
-8 13 3 0.79 0.07
-7 -13 3 4.8 0.18
7 -13 -3 4.68 0.18
-7 -13 3 5.03 0.17
7 -13 -3 5.02 0.17
-7 13 3 4.96 0.18
7 13 -3 4.7 0.19
-7 13 3 5.21 0.19
-7 13 3 4.58 0.17
-6 -13 3 0.55 0.08
6 -13 -3 0.28 0.08
6 -13 -3 0.45 0.06
-6 13 3 0.47 0.07
-6 13 3 0.39 0.07
6 13 -3 0.35 0.1
-6 13 3 0.62 0.08
5 -13 -3 1.67 0.1
-5 -13 3 1.63 0.09
5 13 -3 1.66 0.11
5 13 -3 1.55 0.11
5 13 -3 1.66 0.11
-5 13 3 1.52 0.1
-5 13 3 1.6 0.1
-5 13 3 1.56 0.11
-5 13 3 1.65 0.1
-4 -13 3 2.45 0.12
4 -13 -3 2.66 0.1
-4 -13 3 2.66 0.1
4 -13 -3 2.44 0.13
-4 13 3 2.58 0.12
-4 13 3 2.82 0.13
4 13 -3 2.84 0.13
-4 13 3 2.54 0.13
4 13 -3 2.7 0.12
-4 13 3 2.81 0.12
4 13 -3 2.8 0.13
-4 13 3 2.71 0.12
-3 -13 3 3.36 0.14
-3 -13 3 3.28 0.12
3 -13 -3 3.25 0.12
-3 -13 3 3.34 0.13
3 13 -3 3.36 0.15
-3 13 3 3.41 0.13
-3 13 3 3.42 0.14
-3 13 3 3.33 0.14
-3 13 3 3.41 0.13
-3 13 3 3.33 0.13
3 13 -3 3.12 0.13
3 13 -3 3.13 0.15
3 13 -3 3.39 0.14
-3 13 3 3.3 0.14
-2 -13 3 13.07 0.42
-2 -13 3 13.01 0.4
-2 -13 3 13.54 0.45
-2 13 3 14.09 0.41
2 13 -3 13.33 0.45
-2 13 3 14.32 0.43
2 13 -3 14.05 0.44
2 13 -3 13.78 0.43
-2 13 3 12.84 0.44
-2 13 3 14.11 0.45
2 13 -3 13.46 0.43
-2 13 3 14.08 0.42
-2 13 3 14.32 0.43
2 13 -3 14.04 0.45
-1 -13 3 1.6 0.06
-1 -13 3 1.55 0.08
1 13 -3 1.44 0.1
-1 13 3 1.43 0.08
-1 13 3 1.54 0.08
1 13 -3 1.52 0.09
-1 13 3 1.6 0.08
1 13 -3 1.39 0.09
1 13 -3 1.55 0.08
-1 13 3 1.57 0.08
1 13 -3 1.6 0.08
-1 13 3 1.43 0.08
-1 13 3 1.65 0.08
1 13 -3 1.6 0.08
0 -13 -3 6.18 0.22
0 -13 3 6.66 0.23
0 -13 3 6.42 0.2
0 -13 3 6.52 0.23
0 -13 3 6.29 0.21
0 13 -3 6.55 0.23
0 13 -3 6.15 0.24
0 13 3 6.55 0.21
0 13 -3 6.58 0.23
0 13 -3 6.66 0.23
0 13 -3 6.25 0.21
0 13 3 6.3 0.22
0 13 3 6.55 0.22
0 13 3 6.16 0.21
0 13 3 6.58 0.22
0 13 3 6.12 0.22
0 13 3 6.57 0.21
0 13 -3 6.61 0.22
1 -13 3 0.42 0.04
1 -13 3 0.52 0.06
1 -13 3 0.47 0.05
-1 13 -3 0.52 0.05
1 13 3 0.47 0.06
1 13 3 0.46 0.06
-1 13 -3 0.53 0.06
1 13 3 0.51 0.06
-1 13 -3 0.48 0.07
1 13 3 0.44 0.07
-1 13 -3 0.41 0.05
1 13 3 0.43 0.06
2 -13 3 5.84 0.2
2 -13 3 5.22 0.2
2 -13 3 5.72 0.21
-2 -13 -3 5.36 0.17
2 -13 3 5.22 0.18
2 -13 3 5.36 0.17
-2 13 -3 5.87 0.21
-2 13 -3 5.87 0.22
2 13 3 5.35 0.21
2 13 3 5.55 0.2
2 13 3 5.67 0.19
-2 13 -3 5.61 0.2
2 13 3 5.55 0.19
2 13 3 5.59 0.2
-2 13 -3 5.7 0.22
-2 13 -3 5.56 0.2
-2 13 -3 5.53 0.19
3 -13 3 0.91 0.08
3 -13 3 1.07 0.06
3 -13 3 1.05 0.06
3 -13 3 0.88 0.08
-3 -13 -3 0.95 0.07
-3 13 -3 0.98 0.12
-3 13 -3 1.02 0.08
3 13 3 1.1 0.08
3 13 3 1.09 0.08
-3 13 -3 0.98 0.07
-3 13 -3 0.91 0.09
3 13 3 0.89 0.08
-3 13 -3 0.96 0.07
3 13 3 1.1 0.08
-3 13 -3 0.94 0.08
4 -13 3 0.6 0.06
4 -13 3 0.62 0.09
4 -13 3 0.58 0.12
-4 -13 -3 0.57 0.07
4 13 3 0.73 0.08
5 -13 3 -0.07 0.04
5 -13 3 0.03 0.02
-5 -13 -3 0.01 0.03
-5 -13 -3 0.01 0.02
5 -13 3 0.06 0.02
5 13 3 0.02 0.03
5 13 3 -0.02 0.03
5 13 3 0 0.03
-5 13 -3 0.01 0.04
-5 13 -3 0.03 0.03
-5 13 -3 0.01 0.02
-6 -13 -3 0.15 0.03
6 -13 3 0.21 0.06
-6 -13 -3 0.24 0.06
6 -13 3 0.11 0.07
6 -13 3 0.18 0.05
6 13 3 0.08 0.04
6 13 3 0.27 0.07
-6 13 -3 0.16 0.05
-6 13 -3 0.29 0.07
-7 -13 -3 0.6 0.07
7 -13 3 0.57 0.07
-7 -13 -3 0.66 0.06
7 -13 3 0.61 0.06
7 13 3 0.71 0.08
-7 13 -3 0.71 0.09
-8 -13 -3 0.14 0.03
-8 -13 -3 0.25 0.08
8 -13 3 0.12 0.03
-8 13 -3 0.31 0.09
8 13 3 0.12 0.03
-8 -14 3 0.61 0.06
8 -14 -3 0.62 0.05
-7 -14 3 1.53 0.09
-7 -14 3 1.49 0.08
7 -14 -3 1.52 0.08
7 14 -3 1.55 0.1
6 -14 -3 0.98 0.09
6 -14 -3 0.93 0.07
-6 -14 3 1.16 0.09
6 14 -3 1.08 0.09
-6 14 3 0.96 0.08
-6 14 3 0.95 0.08
6 14 -3 1.19 0.1
6 14 -3 0.98 0.11
-6 14 3 1.04 0.09
5 -14 -3 1.36 0.08
-5 -14 3 1.37 0.08
5 -14 -3 1.24 0.1
5 14 -3 1.62 0.1
-5 14 3 1.37 0.09
5 14 -3 1.35 0.1
5 14 -3 1.54 0.11
-5 14 3 1.51 0.1
-5 14 3 1.48 0.09
-4 -14 3 0.14 0.04
4 14 -3 0.12 0.05
-4 14 3 0.05 0.03
-4 14 3 0.09 0.03
4 14 -3 0.1 0.03
4 14 -3 0.1 0.03
-4 14 3 0.23 0.07
-3 -14 3 5.56 0.19
-3 -14 3 5.48 0.18
3 -14 -3 5.09 0.17
-3 -14 3 5.21 0.2
3 14 -3 5.56 0.2
3 14 -3 5.35 0.2
-3 14 3 5.52 0.2
-3 14 3 5.8 0.21
-3 14 3 5.6 0.2
3 14 -3 5.33 0.2
-3 14 3 5.36 0.2
-3 14 3 5.45 0.2
-3 14 3 5.37 0.19
-2 -14 3 5.39 0.19
-2 -14 3 5.68 0.18
-2 -14 3 5.62 0.21
2 14 -3 5.86 0.21
-2 14 3 5.6 0.2
2 14 -3 5.56 0.2
-2 14 3 5.6 0.2
-2 14 3 5.65 0.2
2 14 -3 5.74 0.21
-2 14 3 5.94 0.21
2 14 -3 5.77 0.21
-2 14 3 5.59 0.19
-2 14 3 5.7 0.21
-2 14 3 5.46 0.19
-1 -14 3 0.62 0.04
-1 -14 3 0.6 0.06
-1 -14 3 0.71 0.06
1 14 -3 0.71 0.07
1 14 -3 0.7 0.06
-1 14 3 0.73 0.06
-1 14 3 0.64 0.06
1 14 -3 0.66 0.09
1 14 -3 0.64 0.06
-1 14 3 0.77 0.07
-1 14 3 0.65 0.07
-1 14 3 0.59 0.06
-1 14 3 0.74 0.06
0 -14 -3 18.38 0.6
0 -14 3 18.16 0.56
0 -14 3 17.6 0.54
0 -14 3 19.05 0.6
0 14 3 18.58 0.57
0 14 3 19.23 0.58
0 14 -3 18.09 0.57
0 14 3 18.85 0.57
0 14 -3 18.5 0.63
0 14 3 18.49 0.55
0 14 3 18.85 0.59
0 14 -3 18.24 0.55
0 14 3 19.69 0.6
0 14 3 18.99 0.55
0 14 -3 18.82 0.59
1 -14 3 2.71 0.1
1 -14 3 2.83 0.13
1 -14 3 2.83 0.11
-1 14 -3 2.79 0.12
1 14 3 2.63 0.12
1 14 3 2.72 0.12
1 14 3 2.55 0.12
1 14 3 2.77 0.12
-1 14 -3 2.74 0.11
-1 14 -3 2.71 0.14
-1 14 -3 2.81 0.12
1 14 3 2.57 0.12
-1 14 -3 2.8 0.12
1 14 3 2.77 0.12
2 -14 3 1.95 0.11
2 -14 3 2.11 0.08
-2 -14 -3 2.05 0.09
2 -14 3 2.08 0.09
2 -14 3 2.09 0.11
2 14 3 1.82 0.12
-2 14 -3 1.98 0.12
-2 14 -3 2.06 0.1
2 14 3 2.15 0.1
-2 14 -3 2.08 0.1
-2 14 -3 1.94 0.1
-2 14 -3 2.07 0.11
2 14 3 2.14 0.1
3 -14 3 6.53 0.24
3 -14 3 6.02 0.2
3 -14 3 5.97 0.2
3 -14 3 6.09 0.25
-3 -14 -3 6.05 0.2
-3 14 -3 6.27 0.21
-3 14 -3 6.23 0.23
3 14 3 6.15 0.22
3 14 3 6.5 0.22
3 14 3 6.34 0.22
-3 14 -3 6.28 0.22
-3 14 -3 6.33 0.23
-3 14 -3 5.78 0.25
4 -14 3 1.75 0.09
-4 -14 -3 1.58 0.1
4 -14 3 1.64 0.08
4 -14 3 1.59 0.12
-4 -14 -3 1.65 0.08
4 14 3 1.52 0.11
-4 14 -3 1.71 0.1
-4 14 -3 1.52 0.12
-4 14 -3 1.46 0.09
4 14 3 1.61 0.1
4 14 3 1.71 0.1
-5 -14 -3 0.3 0.07
5 -14 3 0.41 0.07
5 -14 3 0.48 0.06
-5 14 -3 0.43 0.07
5 14 3 0.37 0.08
5 14 3 0.3 0.09
5 14 3 0.5 0.08
-5 14 -3 0.44 0.08
-5 14 -3 0.44 0.07
-6 -14 -3 0.12 0.03
6 -14 3 0.19 0.06
-6 14 -3 0.15 0.05
-6 14 -3 0.26 0.08
6 14 3 0.04 0.05
-6 14 -3 0.08 0.04
-7 -14 -3 0.38 0.07
7 -14 3 0.31 0.07
-7 -14 -3 0.32 0.06
7 -14 3 0.24 0.05
-7 14 -3 0.39 0.09
7 14 3 0.28 0.08
-7 -15 3 0.05 0.03
7 -15 -3 0.08 0.02
-7 -15 3 0.04 0.02
-7 15 3 0.07 0.03
-7 15 3 0.08 0.04
-7 15 3 0.09 0.03
7 15 -3 0.04 0.03
6 -15 -3 0.1 0.02
-6 -15 3 0.08 0.02
-6 -15 3 0.09 0.03
6 15 -3 0.03 0.04
-6 15 3 0.08 0.03
6 15 -3 0.23 0.08
-6 15 3 0.2 0.06
-6 15 3 0.16 0.04
-5 -15 3 1.93 0.09
5 -15 -3 2 0.09
5 15 -3 2.02 0.12
-5 15 3 2.28 0.11
5 15 -3 2.03 0.12
-5 15 3 2.05 0.12
-5 15 3 2.03 0.11
4 -15 -3 0.79 0.06
-4 -15 3 0.7 0.06
-4 -15 3 0.72 0.08
4 15 -3 0.76 0.09
-4 15 3 0.9 0.08
4 15 -3 0.62 0.09
4 15 -3 0.84 0.09
-4 15 3 0.85 0.08
-4 15 3 0.87 0.09
-4 15 3 0.81 0.08
-3 -15 3 2.64 0.12
-3 -15 3 2.57 0.13
3 -15 -3 2.36 0.1
-3 15 3 2.2 0.12
-3 15 3 2.45 0.12
-3 15 3 2.46 0.13
3 15 -3 2.62 0.13
-2 -15 3 0.37 0.05
-2 15 3 0.39 0.06
-2 15 3 0.37 0.07
-2 15 3 0.46 0.07
2 15 -3 0.32 0.06
-2 15 3 0.44 0.06
-2 15 3 0.25 0.08
-2 15 3 0.44 0.07
2 15 -3 0.38 0.06
2 15 -3 0.38 0.07
-1 -15 3 0.62 0.05
-1 -15 3 0.71 0.07
-1 15 3 0.64 0.07
-1 15 3 0.47 0.07
1 15 -3 0.58 0.07
1 15 -3 0.49 0.07
-1 15 3 0.56 0.07
-1 15 3 0.62 0.07
-1 15 3 0.54 0.07
-1 15 3 0.61 0.07
1 15 -3 0.61 0.07
0 -15 3 5.64 0.18
0 -15 3 5.51 0.21
0 -15 3 5.77 0.22
0 -15 3 5.89 0.19
0 15 -3 5.74 0.21
0 15 3 5.97 0.21
0 15 -3 5.94 0.24
0 15 3 5.84 0.2
0 15 -3 5.86 0.21
0 15 3 5.42 0.2
0 15 -3 5.58 0.19
0 15 3 5.76 0.21
0 15 3 5.63 0.2
0 15 3 5.61 0.2
0 15 -3 5.81 0.21
1 -15 3 5.36 0.2
1 -15 3 4.91 0.2
-1 -15 -3 4.94 0.21
1 -15 3 4.91 0.17
1 -15 3 5.18 0.16
1 -15 3 5.36 0.2
1 15 3 5.07 0.18
1 15 3 5.1 0.19
1 15 3 4.99 0.19
1 15 3 4.79 0.18
1 15 3 5.01 0.19
1 15 3 5.06 0.19
-1 15 -3 5.11 0.22
-1 15 -3 5.2 0.2
-1 15 -3 5.21 0.18
-1 15 -3 5.3 0.19
-1 15 -3 5.22 0.19
2 -15 3 1.61 0.07
2 -15 3 1.35 0.11
2 -15 3 1.58 0.08
2 -15 3 1.62 0.1
-2 15 -3 1.55 0.09
-2 15 -3 1.51 0.09
-2 15 -3 1.56 0.1
-2 15 -3 1.51 0.13
2 15 3 1.69 0.1
2 15 3 1.42 0.1
2 15 3 1.62 0.09
-2 15 -3 1.67 0.1
2 15 3 1.32 0.12
3 -15 3 2.47 0.1
3 -15 3 2.07 0.16
3 -15 3 2.25 0.13
3 15 3 2.49 0.12
-3 15 -3 2.29 0.11
3 15 3 2.38 0.12
3 15 3 2.47 0.12
-3 15 -3 2.12 0.15
-3 15 -3 2.53 0.13
4 -15 3 0.03 0.04
-4 -15 -3 0.02 0.02
4 -15 3 0.2 0.06
4 -15 3 0.06 0.02
-4 -15 -3 0.02 0.03
4 15 3 0.06 0.03
-4 15 -3 0.05 0.02
4 15 3 0.06 0.03
-4 15 -3 0.08 0.04
4 15 3 0.06 0.03
-4 15 -3 0.09 0.03
-4 15 -3 0.09 0.05
5 -15 3 0.85 0.08
5 -15 3 0.81 0.06
-5 -15 -3 0.61 0.08
-5 -15 -3 0.7 0.06
5 15 3 0.88 0.11
5 15 3 0.77 0.08
-5 15 -3 0.77 0.08
-5 15 -3 0.86 0.08
5 15 3 0.77 0.08
-5 15 -3 0.77 0.08
-6 -15 -3 0.54 0.06
6 -15 3 0.59 0.05
6 -15 3 0.52 0.07
-6 -15 -3 0.55 0.08
-6 15 -3 0.59 0.08
-6 15 -3 0.59 0.09
6 15 3 0.62 0.07
-6 15 -3 0.67 0.09
7 -15 3 0.4 0.05
-7 -15 -3 0.31 0.08
-7 -15 -3 0.42 0.05
-7 15 -3 0.29 0.09
7 15 3 0.24 0.06
7 -16 -3 0.22 0.04
-7 -16 3 0.13 0.03
-7 16 3 0.18 0.04
-6 -16 3 0.27 0.07
6 -16 -3 0.18 0.05
-6 16 3 0.2 0.06
-6 16 3 0.28 0.07
-6 16 3 0.2 0.06
-5 -16 3 1.12 0.07
-5 -16 3 0.97 0.09
5 -16 -3 1.17 0.07
5 16 -3 1.11 0.1
-5 16 3 1.21 0.09
5 16 -3 1.07 0.1
-5 16 3 1.06 0.08
-5 16 3 1.12 0.09
4 -16 -3 0.03 0.02
-4 -16 3 0.06 0.02
-4 16 3 0.08 0.03
4 16 -3 0.05 0.02
-4 16 3 0.03 0.03
-4 16 3 0.09 0.04
4 16 -3 0.05 0.04
-4 16 3 0.1 0.04
4 16 -3 0.05 0.03
-3 -16 3 0.63 0.06
-3 -16 3 0.61 0.08
-3 16 3 0.7 0.08
-3 16 3 0.6 0.1
3 16 -3 0.51 0.08
3 16 -3 0.68 0.08
-3 16 3 0.65 0.08
-3 16 3 0.54 0.08
3 16 -3 0.42 0.1
-3 16 3 0.76 0.08
-3 16 3 0.46 0.09
-2 -16 3 1.22 0.09
-2 16 3 1.35 0.1
2 16 -3 1.06 0.09
2 16 -3 1.4 0.1
2 16 -3 1.21 0.1
-1 -16 3 0.83 0.05
-1 -16 3 0.9 0.11
-1 -16 3 0.69 0.08
1 16 -3 0.65 0.08
-1 16 3 0.67 0.09
-1 16 3 0.86 0.08
-1 16 3 0.8 0.07
1 16 -3 0.9 0.09
1 16 -3 0.68 0.08
-1 16 3 0.67 0.08
-1 16 3 0.91 0.08
0 -16 3 5.38 0.17
0 -16 3 4.96 0.21
0 -16 3 5.04 0.18
0 -16 3 5.08 0.21
0 16 3 5.13 0.18
0 16 3 5.35 0.19
0 16 -3 4.96 0.25
0 16 3 5.01 0.18
0 16 -3 5.17 0.2
0 16 -3 5 0.18
0 16 3 5.34 0.2
0 16 -3 5.4 0.2
0 16 3 4.84 0.19
0 16 3 5.25 0.19
0 16 -3 4.92 0.2
1 -16 3 3.06 0.15
1 -16 3 2.91 0.12
1 -16 3 3.02 0.11
1 16 3 2.95 0.13
1 16 3 2.93 0.13
-1 16 -3 3.11 0.18
-1 16 -3 2.81 0.14
1 16 3 2.74 0.13
1 16 3 3.08 0.14
1 16 3 3.09 0.14
2 -16 3 4.06 0.15
-2 -16 -3 4.04 0.22
2 -16 3 4.32 0.21
2 -16 3 4.42 0.18
-2 16 -3 3.98 0.16
-2 16 -3 4.22 0.17
-2 16 -3 4.4 0.17
-2 16 -3 4.17 0.17
2 16 3 3.87 0.17
2 16 3 4.28 0.17
-2 16 -3 4 0.21
3 -16 3 4.43 0.2
-3 -16 -3 4.63 0.16
3 -16 3 5.06 0.17
3 -16 3 4.87 0.16
3 16 3 4.84 0.19
-3 16 -3 4.69 0.19
-3 16 -3 4.71 0.18
-3 16 -3 4.75 0.19
3 16 3 4.71 0.19
3 16 3 4.81 0.18
3 16 3 5.04 0.19
-3 16 -3 4.9 0.19
-4 -16 -3 0.09 0.02
4 -16 3 0.01 0.05
-4 16 -3 0.22 0.06
-4 16 -3 0.1 0.04
-4 16 -3 0.05 0.03
4 16 3 0.31 0.1
4 16 3 0.14 0.03
4 16 3 0.11 0.03
-4 16 -3 0.06 0.05
-5 -16 -3 1.36 0.11
5 -16 3 1.57 0.08
-5 -16 -3 1.58 0.08
5 16 3 1.56 0.1
-5 16 -3 1.64 0.09
5 16 3 1.45 0.1
-5 16 -3 1.49 0.1
-5 16 -3 1.47 0.1
-6 -16 -3 0.39 0.09
-6 -16 -3 0.24 0.05
6 -16 3 0.19 0.05
-6 16 -3 0.29 0.08
6 16 3 0.21 0.06
-7 -16 -3 0.02 0.02
7 16 3 0.07 0.03
-7 16 -3 0.04 0.03
-7 -17 3 -0.02 0.02
7 -17 -3 -0.01 0.02
-7 17 3 0.07 0.03
-7 17 3 0 0.04
-6 -17 3 0.42 0.08
6 -17 -3 0.48 0.06
5 -17 -3 0.23 0.06
-5 -17 3 0.29 0.08
-5 17 3 0.28 0.07
5 17 -3 0.21 0.04
-5 17 3 0.37 0.07
-5 17 3 0.24 0.04
4 -17 -3 1.17 0.08
-4 -17 3 1.36 0.08
-4 17 3 1.3 0.1
-4 17 3 1.37 0.09
-4 17 3 1.18 0.1
4 17 -3 1.34 0.1
4 17 -3 1.39 0.12
4 17 -3 1.35 0.1
-4 17 3 1.25 0.09
-3 -17 3 0.1 0.04
3 17 -3 0.08 0.03
-3 17 3 0.08 0.03
3 17 -3 0.08 0.02
-3 17 3 0.2 0.07
-3 17 3 0.03 0.03
-3 17 3 0.24 0.07
-2 -17 3 0.64 0.09
-2 -17 3 0.76 0.05
-2 17 3 0.59 0.08
2 17 -3 0.6 0.08
-2 17 3 0.59 0.09
-2 17 3 0.58 0.07
-2 17 3 0.67 0.08
-2 17 3 0.65 0.08
2 17 -3 0.6 0.08
2 17 -3 0.69 0.08
-1 -17 3 0.23 0.05
1 17 -3 0.07 0.03
1 17 -3 0.12 0.04
1 17 -3 0.25 0.07
-1 17 3 0.28 0.07
-1 17 3 0.12 0.04
-1 17 3 0.16 0.04
-1 17 3 0.14 0.03
-1 17 3 0.17 0.04
0 -17 3 3.86 0.13
0 17 3 3.34 0.16
0 17 -3 3.8 0.16
0 17 -3 3.48 0.15
0 17 3 3.84 0.15
0 17 -3 3.8 0.16
0 17 3 3.37 0.15
0 17 3 3.55 0.15
0 17 -3 3.59 0.15
1 -17 3 1.03 0.1
1 -17 3 1.03 0.06
-1 17 -3 1.05 0.09
-1 17 -3 1.01 0.08
1 17 3 0.95 0.09
1 17 3 1.1 0.09
-1 17 -3 1.01 0.09
-1 17 -3 0.95 0.08
1 17 3 1.07 0.11
1 17 3 1.01 0.09
2 -17 3 0.47 0.08
2 -17 3 0.65 0.1
2 -17 3 0.49 0.05
2 17 3 0.58 0.09
-2 17 -3 0.57 0.07
-2 17 -3 0.59 0.08
-2 17 -3 0.42 0.09
2 17 3 0.46 0.07
-2 17 -3 0.42 0.07
2 17 3 0.39 0.08
2 17 3 0.56 0.08
3 -17 3 1.23 0.09
-3 -17 -3 1.25 0.08
3 -17 3 1.1 0.07
3 -17 3 0.97 0.13
3 17 3 1.15 0.09
3 17 3 0.96 0.11
-3 17 -3 1.13 0.09
-3 17 -3 1.2 0.11
-3 17 -3 1.06 0.08
-3 17 -3 1.14 0.09
3 17 3 1.1 0.09
4 -17 3 0.89 0.09
-4 -17 -3 0.68 0.06
4 -17 3 0.7 0.06
-4 17 -3 0.75 0.08
-4 17 -3 0.67 0.09
4 17 3 0.75 0.08
-4 17 -3 0.77 0.08
4 17 3 0.76 0.08
5 -17 3 0.65 0.06
-5 -17 -3 0.62 0.06
-5 17 -3 0.68 0.08
5 17 3 0.67 0.07
-5 17 -3 0.64 0.08
5 17 3 0.74 0.08
-5 17 -3 0.75 0.08
6 -17 3 0.19 0.04
-6 -17 -3 0.28 0.05
6 -17 3 0.33 0.09
-6 17 -3 0.25 0.08
6 17 3 0.23 0.06
-6 -18 3 0 0.04
6 -18 -3 0.04 0.02
-6 -18 3 -0.01 0.02
-6 18 3 -0.02 0.02
-6 18 3 -0.02 0.03
-6 18 3 0.06 0.04
-5 -18 3 0.31 0.1
-5 18 3 0.22 0.07
4 -18 -3 0 0.03
-4 -18 3 0 0.02
-4 18 3 0.07 0.04
4 18 -3 0.02 0.02
-4 18 3 0.04 0.03
4 18 -3 0.05 0.04
-4 18 3 0.06 0.03
-3 -18 3 0.03 0.04
-3 18 3 0.05 0.03
3 18 -3 0.09 0.03
3 18 -3 0.07 0.03
-3 18 3 0.13 0.04
-2 -18 3 0.82 0.06
2 18 -3 0.82 0.09
-2 18 3 0.82 0.11
-2 18 3 0.85 0.09
-2 18 3 0.85 0.08
-2 18 3 0.89 0.09
-2 18 3 0.9 0.09
2 18 -3 0.75 0.09
-1 18 3 -0.02 0.03
1 18 -3 0 0.02
1 18 -3 0.01 0.03
-1 18 3 0 0.04
1 18 -3 0.01 0.03
-1 18 3 0 0.03
-1 18 3 0.06 0.03
-1 18 3 0.08 0.04
-1 18 3 0.02 0.04
-1 18 3 -0.01 0.03
0 -18 3 0.59 0.05
0 18 3 0.58 0.08
0 18 3 0.61 0.08
0 18 -3 0.58 0.09
0 18 -3 0.47 0.07
0 18 3 0.4 0.09
0 18 3 0.41 0.09
0 18 -3 0.62 0.08
0 18 3 0.55 0.09
0 18 3 0.55 0.09
1 -18 3 2.01 0.13
1 -18 3 1.83 0.08
-1 18 -3 1.78 0.11
1 18 3 1.93 0.11
-1 18 -3 1.92 0.11
1 18 3 1.94 0.12
1 18 3 1.71 0.13
-1 18 -3 1.71 0.11
1 18 3 1.81 0.11
-1 18 -3 1.95 0.1
1 18 3 1.9 0.11
2 -18 3 2.93 0.11
2 -18 3 2.93 0.17
2 18 3 2.99 0.14
-2 18 -3 3.01 0.15
-2 18 -3 3.21 0.14
-2 18 -3 2.83 0.13
2 18 3 2.83 0.14
2 18 3 2.82 0.14
2 18 3 2.81 0.14
-2 18 -3 3.07 0.14
3 -18 3 2 0.09
-3 -18 -3 2.02 0.1
3 18 3 1.89 0.11
-3 18 -3 2.08 0.12
-3 18 -3 2.04 0.14
-3 18 -3 1.93 0.11
-3 18 -3 2.01 0.1
3 18 3 1.99 0.11
-4 -18 -3 0.04 0.02
4 -18 3 0.04 0.02
-4 18 -3 0.07 0.03
4 18 3 0.05 0.03
-4 18 -3 0.04 0.02
4 18 3 0.07 0.03
5 18 3 0.88 0.08
5 18 3 1.1 0.09
6 -18 3 0.6 0.05
-6 -18 -3 0.81 0.06
6 18 3 0.73 0.08
-6 -19 3 0.03 0.02
-6 19 3 -0.03 0.03
-6 19 3 -0.04 0.05
-5 19 3 0.5 0.07
5 19 -3 0.39 0.09
-5 19 3 0.46 0.06
-4 -19 3 0.69 0.06
4 19 -3 0.65 0.08
-4 19 3 0.73 0.08
-4 19 3 0.67 0.07
-4 19 3 0.8 0.08
4 19 -3 0.77 0.08
-3 -19 3 0.04 0.02
-3 19 3 0.06 0.04
-3 19 3 0.08 0.03
3 19 -3 0.02 0.02
-3 19 3 -0.03 0.03
3 19 -3 0.06 0.03
-2 -19 3 2.21 0.09
-2 19 3 2.09 0.11
-2 19 3 2.11 0.12
2 19 -3 2.18 0.12
-2 19 3 2.1 0.11
-2 19 3 2.1 0.12
-2 19 3 1.86 0.14
2 19 -3 2.36 0.12
2 19 -3 2.04 0.12
-1 19 3 0.05 0.04
1 19 -3 0.07 0.04
-1 19 3 0.03 0.04
-1 19 3 0.11 0.04
1 19 -3 0.07 0.04
-1 19 3 0.06 0.03
-1 19 3 0.05 0.04
1 19 -3 0.04 0.02
-1 19 3 0.1 0.04
-1 19 3 0.06 0.04
0 -19 3 1.14 0.06
0 19 3 0.9 0.1
0 19 3 1.05 0.1
0 19 -3 0.94 0.1
0 19 -3 1 0.09
0 19 -3 0.96 0.09
0 19 3 1.06 0.1
0 19 3 0.95 0.11
0 19 3 0.91 0.11
0 19 3 1.27 0.12
0 19 3 0.97 0.11
1 -19 3 1.3 0.07
1 -19 3 1.2 0.14
1 19 3 1.13 0.1
1 19 3 1.35 0.09
-1 19 -3 1.37 0.09
-1 19 -3 1.3 0.08
-1 19 -3 1.31 0.1
-1 19 -3 1.08 0.1
2 -19 3 3.81 0.13
2 -19 3 3.54 0.21
-2 19 -3 3.99 0.17
2 19 3 3.58 0.16
2 19 3 3.78 0.16
-2 19 -3 3.8 0.17
-2 19 -3 3.82 0.15
-2 19 -3 3.7 0.16
2 19 3 3.78 0.16
3 -19 3 0.66 0.06
-3 -19 -3 0.66 0.08
-3 19 -3 0.8 0.08
-3 19 -3 0.51 0.12
3 19 3 0.68 0.09
-3 19 -3 0.63 0.09
-3 19 -3 0.73 0.07
3 19 3 0.69 0.08
4 -19 3 0.23 0.05
4 19 3 0.34 0.07
-4 19 -3 0.27 0.07
-4 19 -3 0.34 0.06
-4 19 -3 0.27 0.08
5 -19 3 0.42 0.05
-5 19 -3 0.54 0.07
-5 19 -3 0.27 0.09
-5 19 -3 0.35 0.07
-5 20 3 0.28 0.05
5 20 -3 0.17 0.03
-5 20 3 0.25 0.05
-4 20 3 0.27 0.08
-3 -20 3 0.05 0.02
-3 20 3 0.02 0.03
3 20 -3 0.01 0.02
3 20 -3 0.04 0.03
-3 20 3 0.02 0.03
-3 20 3 -0.03 0.04
-2 -20 3 0.93 0.07
2 20 -3 0.89 0.08
-2 20 3 0.93 0.1
-2 20 3 0.84 0.09
2 20 -3 0.85 0.09
-2 20 3 0.99 0.09
-1 -20 3 0.98 0.06
-1 20 3 0.97 0.1
1 20 -3 0.87 0.09
-1 20 3 0.88 0.09
-1 20 3 0.81 0.12
1 20 -3 0.96 0.09
-1 20 3 0.89 0.1
1 20 -3 0.96 0.09
-1 20 3 0.81 0.12
0 20 3 0.06 0.04
0 20 -3 0.23 0.07
0 20 3 0.14 0.07
1 20 3 0.04 0.03
-1 20 -3 0.03 0.03
-1 20 -3 0.04 0.03
1 20 3 0 0.03
1 20 3 0.01 0.03
2 -20 3 0.76 0.06
-2 20 -3 0.88 0.08
-2 20 -3 0.75 0.09
2 20 3 0.84 0.09
2 20 3 0.78 0.08
-2 20 -3 0.84 0.08
3 -20 3 0.11 0.02
-3 -20 -3 0.07 0.03
3 20 3 0.11 0.03
-3 20 -3 0.08 0.03
3 20 3 0.07 0.03
-3 20 -3 0.12 0.03
-4 -20 -3 0.1 0.03
4 -20 3 0.16 0.05
-4 20 -3 0.07 0.03
4 20 3 0.05 0.03
-4 20 -3 0.15 0.03
4 20 3 0.08 0.03
-4 20 -3 0.11 0.03
-5 20 -3 0.13 0.04
-5 20 -3 0.09 0.03
5 20 3 0.17 0.03
-4 21 3 0.49 0.06
-4 21 3 0.57 0.07
-3 -21 3 0 0.02
-3 21 3 -0.06 0.04
-3 21 3 -0.03 0.04
2 21 -3 1.65 0.1
-2 21 3 1.66 0.12
2 21 -3 1.57 0.1
-1 -21 3 1.06 0.06
1 21 -3 0.95 0.1
1 21 -3 1.12 0.09
1 21 -3 1.15 0.09
0 -21 3 0.01 0.02
0 21 -3 0.04 0.03
0 21 -3 -0.02 0.02
1 -21 3 0.32 0.06
-1 21 -3 0.36 0.07
1 21 3 0.38 0.09
2 -21 3 0.71 0.07
2 21 3 0.75 0.09
2 21 3 0.62 0.08
-2 21 -3 0.88 0.09
-2 21 -3 0.82 0.07
3 -21 3 0.25 0.05
3 21 3 0.27 0.08
-3 21 -3 0.23 0.08
4 -21 3 0.03 0.02
-4 21 -3 -0.02 0.02
4 21 3 -0.02 0.03
-4 21 -3 0.01 0.04
4 21 3 -0.03 0.02
-3 -22 3 0.47 0.06
-3 22 3 0.39 0.08
-2 -22 3 1.38 0.08
-2 22 3 1.43 0.11
2 22 -3 1.54 0.09
-2 22 3 1.14 0.12
2 22 -3 1.37 0.09
-1 -22 3 0.38 0.06
0 -22 3 0.81 0.06
1 -22 3 0.29 0.06
1 22 3 0.16 0.04
2 -22 3 0.22 0.06
-2 22 -3 0.23 0.06
2 22 3 0.39 0.12
-2 22 -3 0.17 0.05
3 22 3 0.31 0.06
-3 22 -3 0.34 0.07
2 23 -3 0.06 0.03
1 23 -3 0.68 0.09
1 23 -3 0.61 0.07
-1 23 -3 -0.03 0.02
-1 23 -3 -0.08 0.04
-9 0 4 0.22 0.07
-8 0 4 0.06 0.04
8 0 -4 0.12 0.04
-8 0 4 0.11 0.03
8 0 -4 0.1 0.03
-7 0 4 1.69 0.11
7 0 -4 1.6 0.1
7 0 -4 1.37 0.1
-7 0 4 1.66 0.11
7 0 -4 1.55 0.1
-6 0 4 6.78 0.24
6 0 -4 7.35 0.22
6 0 -4 6.48 0.24
6 0 -4 6.71 0.25
6 0 -4 7.42 0.24
-6 0 4 7 0.24
5 0 -4 1.68 0.08
5 0 -4 1.65 0.08
-5 0 4 1.67 0.09
5 0 -4 1.85 0.09
5 0 -4 1.87 0.09
4 0 -4 0.94 0.05
-4 0 4 0.85 0.05
-4 0 4 0.86 0.07
-4 0 4 0.91 0.07
-4 0 4 0.93 0.06
-4 0 4 0.98 0.05
-3 0 4 0.85 0.05
-3 0 4 0.79 0.05
3 0 -4 0.77 0.05
-3 0 4 0.75 0.05
-2 0 4 13.7 0.43
-2 0 4 14.88 0.45
-2 0 4 13.89 0.43
-2 0 4 14.69 0.43
-2 0 4 14.54 0.46
2 0 -4 14.71 0.45
1 0 -4 0.54 0.03
-1 0 4 0.48 0.03
1 0 -4 0.52 0.03
-1 0 4 0.55 0.03
0 0 4 66.46 1.96
0 0 -4 68.86 1.91
0 0 4 70.51 2.07
0 0 -4 67.6 1.95
0 0 4 66.22 1.95
0 0 -4 65.32 2.19
1 0 4 1.19 0.05
-1 0 -4 1.36 0.06
-1 0 -4 1.35 0.05
1 0 4 1.19 0.05
1 0 4 1.33 0.06
-1 0 -4 1.25 0.05
1 0 4 1.25 0.05
2 0 4 119.05 3.5
-2 0 -4 113.5 3.24
-2 0 -4 112.16 3.32
2 0 4 108.08 3.3
2 0 4 118.84 3.59
3 0 4 20.75 0.62
3 0 4 20.58 0.64
-3 0 -4 19.29 0.59
3 0 4 19.52 0.58
3 0 4 18.96 0.6
3 0 4 19.27 0.57
-3 0 -4 20.5 0.66
-4 0 -4 8.49 0.26
-4 0 -4 7.73 0.26
-4 0 -4 8.26 0.25
4 0 4 8.5 0.26
4 0 4 8.43 0.29
-4 0 -4 8.31 0.29
4 0 4 8.29 0.28
4 0 4 7.88 0.26
-5 0 -4 0.65 0.08
-5 0 -4 0.56 0.07
5 0 4 0.82 0.08
-5 0 -4 0.58 0.05
5 0 4 0.61 0.06
-5 0 -4 0.76 0.06
5 0 4 0.57 0.07
-6 0 -4 0.66 0.07
-6 0 -4 0.58 0.06
6 0 4 0.51 0.08
-6 0 -4 0.58 0.08
-7 0 -4 8.65 0.29
7 0 4 8.97 0.32
-7 0 -4 8.46 0.33
7 0 4 8.85 0.29
-7 0 -4 9.3 0.3
-8 0 -4 0.27 0.04
-8 0 -4 0.42 0.07
8 0 4 0.37 0.09
-9 0 -4 0.01 0.03
-9 0 -4 0.01 0.05
-9 -1 4 0.63 0.08
9 1 -4 0.56 0.09
9 1 -4 0.51 0.08
-9 1 4 0.54 0.07
-8 -1 4 0.38 0.09
8 -1 -4 0.38 0.07
-8 -1 4 0.48 0.08
8 -1 -4 0.42 0.08
-8 1 4 0.44 0.08
8 1 -4 0.43 0.07
8 1 -4 0.36 0.08
7 -1 -4 1.89 0.11
-7 -1 4 1.77 0.11
7 -1 -4 1.97 0.11
7 -1 -4 1.84 0.1
-7 -1 4 1.74 0.1
-7 1 4 1.88 0.11
7 1 -4 1.9 0.11
6 -1 -4 1.1 0.08
-6 -1 4 1.27 0.08
6 -1 -4 1.1 0.11
6 -1 -4 1.1 0.08
6 -1 -4 1.14 0.07
-6 -1 4 1.06 0.09
6 1 -4 1.14 0.08
-6 1 4 1.22 0.08
-6 1 4 1.08 0.09
6 1 -4 1.3 0.1
6 1 -4 1.12 0.08
-6 1 4 1.15 0.08
-5 -1 4 1.56 0.09
5 -1 -4 1.37 0.08
5 -1 -4 1.43 0.09
5 -1 -4 1.35 0.07
-5 -1 4 1.37 0.07
-5 1 4 1.6 0.08
-5 1 4 1.31 0.08
5 1 -4 1.55 0.08
5 1 -4 1.32 0.07
5 1 -4 1.51 0.08
5 1 -4 1.37 0.07
-4 -1 4 6.29 0.22
-4 -1 4 6.46 0.21
4 -1 -4 6.8 0.23
4 -1 -4 6.89 0.22
4 -1 -4 7.06 0.21
4 -1 -4 6.55 0.21
-4 -1 4 6.42 0.22
-4 1 4 6.47 0.22
-4 1 4 6.68 0.22
4 1 -4 6.67 0.21
-4 1 4 6.9 0.21
4 1 -4 6.68 0.22
4 1 -4 6.5 0.23
-4 1 4 6.66 0.21
-4 1 4 6.85 0.22
-3 -1 4 17.6 0.51
-3 -1 4 18.78 0.54
-3 -1 4 18.23 0.56
-3 -1 4 17.11 0.54
-3 -1 4 17.6 0.52
3 -1 -4 17.4 0.56
-3 1 4 17.62 0.53
-3 1 4 17.28 0.57
3 1 -4 18.4 0.56
-3 1 4 17.87 0.51
-3 1 4 18.37 0.54
2 -1 -4 16.67 0.54
-2 -1 4 17.59 0.5
-2 -1 4 16.97 0.51
2 -1 -4 18.16 0.54
-2 -1 4 17.48 0.51
2 -1 -4 16.43 0.51
2 1 -4 16.56 0.57
-2 1 4 18.16 0.54
-2 1 4 16.22 0.51
-2 1 4 17.58 0.52
-2 1 4 17.28 0.52
-2 1 4 16.45 0.54
2 1 -4 17.25 0.5
2 1 -4 18.04 0.54
1 -1 -4 11.84 0.4
-1 -1 4 12.44 0.37
1 -1 -4 12.21 0.37
-1 -1 4 12.44 0.36
-1 -1 4 11.97 0.38
-1 -1 4 12.49 0.38
1 -1 -4 12.21 0.39
1 -1 -4 12.58 0.36
-1 1 4 12.9 0.37
1 1 -4 12.53 0.37
-1 1 4 12.93 0.38
-1 1 4 13.4 0.38
1 1 -4 11.93 0.42
1 1 -4 12.62 0.36
-1 1 4 13.07 0.39
0 -1 -4 3.52 0.11
0 -1 4 3.65 0.11
0 -1 4 3.62 0.12
0 -1 -4 3.54 0.11
0 -1 4 3.54 0.12
0 -1 4 3.6 0.12
0 -1 -4 3.72 0.13
0 1 4 3.77 0.12
0 1 -4 3.72 0.11
0 1 -4 3.56 0.12
0 1 4 3.82 0.12
0 1 -4 3.63 0.12
0 1 -4 3.69 0.13
1 -1 4 65.85 2.02
1 -1 4 68.63 2.07
1 -1 4 66.46 1.91
-1 -1 -4 65.02 1.91
-1 -1 -4 66.87 1.88
1 -1 4 65.22 1.88
-1 -1 -4 67.89 2.15
-1 1 -4 66.15 1.91
-1 1 -4 68.14 1.88
1 1 4 64.92 1.91
-1 1 -4 64.41 2.15
2 -1 4 52.83 1.56
2 -1 4 51.13 1.48
2 -1 4 50.51 1.45
2 -1 4 50.65 1.6
2 1 4 51.92 1.56
2 1 4 52.43 1.6
2 1 4 50.75 1.48
-2 1 -4 51.95 1.5
-2 1 -4 50.94 1.45
2 1 4 48.82 1.52
-3 -1 -4 2.23 0.1
3 -1 4 2.15 0.09
-3 -1 -4 2.19 0.09
3 -1 4 2.3 0.09
-3 -1 -4 2.13 0.08
3 -1 4 2.12 0.09
3 -1 4 2.25 0.1
-3 1 -4 2.25 0.1
-3 1 -4 2.04 0.09
3 1 4 2.23 0.1
3 1 4 2.22 0.09
3 1 4 2.01 0.08
-3 1 -4 2.18 0.08
3 1 4 2.25 0.09
-4 -1 -4 13.74 0.44
-4 -1 -4 12.9 0.4
4 -1 4 12.9 0.42
-4 -1 -4 13.49 0.45
4 -1 4 13.06 0.38
4 -1 4 13.17 0.4
-4 -1 -4 13.29 0.39
4 -1 4 12.45 0.41
-4 -1 -4 13.02 0.4
4 -1 4 13.08 0.44
4 1 4 13.19 0.39
4 1 4 13.12 0.42
4 1 4 13.35 0.44
-4 1 -4 13.23 0.38
-4 1 -4 12.61 0.39
-4 1 -4 13.14 0.45
-4 1 -4 13.83 0.44
-4 1 -4 12.51 0.4
5 -1 4 10.21 0.31
5 -1 4 9.9 0.3
5 -1 4 9.36 0.33
-5 -1 -4 10.06 0.32
-5 -1 -4 10.38 0.31
-5 -1 -4 10.23 0.3
-5 -1 -4 9.96 0.35
-5 1 -4 10.25 0.31
-5 1 -4 9.15 0.35
5 1 4 9.89 0.34
-5 1 -4 9.97 0.3
5 1 4 9.66 0.34
5 1 4 9.35 0.32
-5 1 -4 10.07 0.32
-6 -1 -4 15.07 0.44
6 -1 4 15.11 0.44
6 -1 4 13.9 0.47
6 -1 4 13.64 0.49
-6 -1 -4 14.07 0.43
-6 1 -4 13.72 0.5
6 1 4 14.61 0.44
6 1 4 13.56 0.45
6 1 4 14.23 0.48
-6 1 -4 14.67 0.44
-6 1 -4 14.86 0.45
-7 -1 -4 1.43 0.11
7 -1 4 1.35 0.09
7 -1 4 1.31 0.12
-7 -1 -4 1.38 0.11
-7 -1 -4 1.42 0.09
-7 1 -4 1.5 0.09
7 1 4 1.47 0.09
-7 1 -4 1.33 0.1
7 1 4 1.42 0.11
-7 1 -4 1.53 0.11
-8 -1 -4 0.42 0.11
8 -1 4 0.28 0.09
-8 1 -4 0.32 0.08
-8 1 -4 0.31 0.08
8 1 4 0.34 0.09
-9 -1 -4 0.29 0.09
-9 1 -4 0.25 0.08
-9 -2 4 0.95 0.09
9 -2 -4 0.97 0.11
9 2 -4 0.87 0.11
9 2 -4 0.93 0.08
-9 2 4 1.13 0.09
8 -2 -4 0.86 0.08
8 -2 -4 0.83 0.09
-8 -2 4 0.93 0.09
8 -2 -4 0.85 0.09
-8 -2 4 0.81 0.09
-8 2 4 0.87 0.09
8 2 -4 0.86 0.09
8 2 -4 0.71 0.08
7 -2 -4 1.88 0.11
-7 -2 4 1.93 0.1
-7 -2 4 1.71 0.12
7 -2 -4 1.83 0.11
7 -2 -4 1.89 0.09
7 2 -4 1.7 0.11
-7 2 4 1.76 0.12
7 2 -4 1.83 0.11
-7 2 4 1.91 0.12
6 -2 -4 9.24 0.31
6 -2 -4 8.92 0.3
-6 -2 4 9.58 0.31
6 -2 -4 9.04 0.29
6 2 -4 9.21 0.31
6 2 -4 8.78 0.3
-6 2 4 9.3 0.31
-6 2 4 9.2 0.3
-6 2 4 9.45 0.3
6 2 -4 9.56 0.32
-5 -2 4 38.9 1.28
-5 -2 4 42.73 1.2
5 -2 -4 39.94 1.17
5 -2 -4 39.9 1.26
-5 -2 4 41.18 1.22
5 -2 -4 40.93 1.24
5 2 -4 41.53 1.27
5 2 -4 40.1 1.24
5 2 -4 40.99 1.17
5 2 -4 42.69 1.2
4 -2 -4 7.15 0.24
-4 -2 4 7.37 0.23
4 -2 -4 6.95 0.22
4 -2 -4 7.67 0.24
-4 -2 4 6.87 0.22
4 -2 -4 7.47 0.23
-4 -2 4 6.83 0.24
4 2 -4 6.78 0.23
-4 2 4 7.48 0.23
-4 2 4 7.37 0.22
-4 2 4 7.14 0.23
4 2 -4 7.36 0.24
4 2 -4 7.33 0.24
-4 2 4 6.89 0.23
4 2 -4 7.4 0.22
-3 -2 4 9.93 0.31
-3 -2 4 10.86 0.3
3 -2 -4 10.02 0.33
-3 -2 4 10 0.32
-3 -2 4 9.93 0.33
3 -2 -4 10.21 0.31
-3 2 4 10.1 0.32
3 2 -4 10.34 0.33
3 2 -4 10.45 0.31
-3 2 4 10.43 0.3
-3 2 4 10.06 0.31
2 -2 -4 23.17 0.7
2 -2 -4 22.62 0.68
-2 -2 4 23.57 0.75
2 -2 -4 24.44 0.74
-2 -2 4 24.1 0.68
-2 -2 4 24.79 0.7
-2 -2 4 24.82 0.71
2 -2 -4 23.47 0.75
-2 2 4 24.3 0.72
2 2 -4 24.22 0.68
-2 2 4 23.9 0.7
2 2 -4 23.69 0.72
-2 2 4 23.48 0.71
2 2 -4 23.38 0.74
-2 2 4 25.38 0.68
2 2 -4 24.61 0.7
2 2 -4 22.56 0.79
-1 -2 4 0.18 0.02
1 -2 -4 0.2 0.02
-1 -2 4 0.2 0.02
-1 2 4 0.19 0.03
0 -2 -4 22.27 0.67
0 -2 4 22.25 0.68
0 -2 4 23.4 0.67
0 -2 4 24.52 0.73
0 -2 -4 23.25 0.68
0 -2 4 23.03 0.69
0 -2 -4 24.58 0.77
0 -2 4 23.8 0.74
0 2 4 23.92 0.7
0 2 4 22.95 0.69
0 2 -4 23.85 0.72
0 2 -4 22.26 0.69
0 2 -4 24.44 0.67
0 2 -4 24.46 0.77
0 2 -4 23.22 0.68
0 2 4 23.34 0.7
1 -2 4 87.47 2.42
1 -2 4 84.59 2.45
-1 -2 -4 83.11 2.76
-1 -2 -4 81.28 2.65
1 -2 4 90.42 2.68
-1 -2 -4 83.35 2.45
-1 -2 -4 81.89 2.41
1 2 4 85.84 2.66
-1 2 -4 88.43 2.77
1 2 4 86.27 2.52
-1 2 -4 83.75 2.48
1 2 4 83.5 2.59
-1 2 -4 85.85 2.45
-1 2 -4 87.62 2.41
2 -2 4 5.05 0.16
-2 -2 -4 5.12 0.17
-2 -2 -4 5.21 0.17
2 2 4 5.52 0.18
2 2 4 5.36 0.18
-2 2 -4 5.37 0.17
2 2 4 5.44 0.17
-2 2 -4 5.4 0.16
-2 2 -4 5.17 0.17
3 -2 4 28.86 0.82
3 -2 4 28.05 0.8
-3 -2 -4 28.93 0.82
-3 -2 -4 28.16 0.8
3 -2 4 28.1 0.86
-3 -2 -4 26.4 0.83
3 -2 4 28.43 0.89
3 2 4 27.59 0.86
3 2 4 27.4 0.84
-3 2 -4 28.18 0.82
-3 2 -4 28.87 0.83
-3 2 -4 27.58 0.92
-3 2 -4 26.8 0.88
3 2 4 27.75 0.89
-4 -2 -4 2.57 0.09
4 -2 4 2.61 0.12
4 -2 4 2.73 0.1
-4 -2 -4 2.5 0.1
4 -2 4 2.43 0.11
4 -2 4 2.68 0.09
-4 -2 -4 2.59 0.1
4 2 4 2.46 0.12
-4 2 -4 2.57 0.11
4 2 4 2.7 0.1
-4 2 -4 2.48 0.11
4 2 4 2.7 0.1
-4 2 -4 2.58 0.1
-4 2 -4 2.76 0.1
-4 2 -4 2.56 0.09
4 2 4 2.43 0.11
-5 -2 -4 1.84 0.1
-5 -2 -4 1.78 0.08
-5 -2 -4 1.94 0.09
5 -2 4 1.96 0.08
5 -2 4 1.9 0.08
5 -2 4 1.94 0.11
-5 -2 -4 1.87 0.08
-5 2 -4 1.78 0.1
-5 2 -4 1.98 0.08
-5 2 -4 1.94 0.09
5 2 4 1.97 0.08
-5 2 -4 1.73 0.11
5 2 4 1.75 0.1
-5 2 -4 1.75 0.1
5 2 4 1.87 0.1
6 -2 4 0.24 0.07
-6 -2 -4 0.19 0.05
6 -2 4 0.2 0.06
6 -2 4 0.11 0.06
6 -2 4 0.23 0.07
6 2 4 0.13 0.03
-7 -2 -4 0.88 0.1
7 -2 4 0.87 0.1
-7 -2 -4 0.83 0.08
7 -2 4 0.95 0.08
-7 -2 -4 0.75 0.1
-7 2 -4 0.85 0.09
7 2 4 0.88 0.09
7 2 4 0.63 0.11
-7 2 -4 0.85 0.08
-8 -2 -4 0.28 0.07
8 -2 4 0.25 0.08
-8 -2 -4 0.29 0.1
-8 2 -4 0.24 0.08
9 -2 4 1.07 0.11
-9 -2 -4 0.99 0.09
-9 -2 -4 1.15 0.11
-9 2 -4 1.12 0.08
9 -3 -4 0.09 0.04
-9 -3 4 0.13 0.04
9 3 -4 0.01 0.05
-8 -3 4 0.26 0.08
8 -3 -4 0.24 0.08
-8 -3 4 0.26 0.08
8 -3 -4 0.13 0.03
8 3 -4 0.08 0.03
-8 3 4 0.15 0.03
8 3 -4 0.11 0.04
7 -3 -4 0.86 0.09
-7 -3 4 0.88 0.1
7 -3 -4 0.79 0.08
-7 -3 4 0.97 0.08
7 -3 -4 0.84 0.07
-7 3 4 0.72 0.09
7 3 -4 0.7 0.08
7 3 -4 0.84 0.08
-7 3 4 0.68 0.09
-6 -3 4 0.68 0.07
6 -3 -4 0.51 0.06
6 -3 -4 0.61 0.07
-6 -3 4 0.7 0.08
-6 -3 4 0.58 0.08
6 -3 -4 0.53 0.06
-6 3 4 0.6 0.1
-6 3 4 0.43 0.07
-6 3 4 0.61 0.09
-6 3 4 0.48 0.07
6 3 -4 0.58 0.06
6 3 -4 0.44 0.07
6 3 -4 0.44 0.08
5 -3 -4 13.46 0.4
-5 -3 4 13.17 0.41
-5 -3 4 13.43 0.39
5 -3 -4 12.82 0.41
5 -3 -4 13.37 0.39
-5 3 4 12.93 0.41
-5 3 4 12.92 0.39
5 3 -4 12.52 0.41
5 3 -4 12.93 0.39
-5 3 4 12.46 0.4
5 3 -4 13.1 0.43
5 3 -4 12.77 0.4
-4 -3 4 8.08 0.27
-4 -3 4 8.46 0.25
4 -3 -4 8.53 0.27
-4 -3 4 7.85 0.27
4 -3 -4 8.4 0.26
-4 -3 4 8.3 0.26
4 -3 -4 8.39 0.27
4 -3 -4 8.18 0.25
4 3 -4 8.41 0.28
-4 3 4 8.01 0.26
-4 3 4 8.01 0.26
4 3 -4 8.44 0.26
-4 3 4 8.23 0.25
3 -3 -4 67.15 2.09
-3 -3 4 66.33 2.12
3 -3 -4 67.88 1.97
-3 -3 4 68.48 2
3 3 -4 69.27 1.98
3 3 -4 71.33 2.04
-3 3 4 69.42 1.92
-3 3 4 67.98 2.12
-3 3 4 66.84 2.02
2 -3 -4 24.09 0.74
2 -3 -4 24.19 0.7
2 -3 -4 23.74 0.68
-2 -3 4 24.23 0.71
2 -3 -4 22.86 0.74
-2 -3 4 24.92 0.75
2 3 -4 22.61 0.72
-2 3 4 23.01 0.71
2 3 -4 23.31 0.68
2 3 -4 23.91 0.79
2 3 -4 24.36 0.7
-2 3 4 24.49 0.74
-2 3 4 24.46 0.68
1 -3 -4 2.79 0.09
-1 -3 4 2.76 0.09
-1 -3 4 2.8 0.1
1 -3 -4 2.92 0.09
1 -3 -4 2.95 0.1
-1 3 4 2.81 0.1
1 3 -4 3.02 0.11
-1 3 4 2.94 0.1
1 3 -4 2.92 0.1
0 -3 4 22.94 0.68
0 -3 4 23.37 0.69
0 -3 4 23.32 0.67
0 -3 -4 23.82 0.77
0 -3 4 22.89 0.74
0 -3 -4 22.6 0.68
0 -3 -4 23.15 0.67
0 3 -4 24.55 0.73
0 3 -4 24.13 0.69
0 3 -4 23.26 0.69
0 3 4 23.83 0.69
0 3 -4 22.73 0.67
0 3 -4 24.85 0.77
0 3 4 23.59 0.7
1 -3 4 2.31 0.09
1 -3 4 2.3 0.07
-1 -3 -4 2.29 0.08
1 -3 4 2.4 0.09
1 -3 4 2.29 0.08
-1 -3 -4 2.17 0.07
1 3 4 2.31 0.08
-1 3 -4 2.23 0.08
-1 3 -4 2.26 0.09
-1 3 -4 2.3 0.08
1 3 4 2.27 0.08
2 -3 4 43.18 1.33
-2 -3 -4 40 1.24
2 -3 4 43.04 1.29
2 -3 4 43.41 1.32
-2 -3 -4 42.1 1.2
-2 -3 -4 41.59 1.22
-2 3 -4 43.15 1.24
-2 3 -4 43.8 1.36
-2 3 -4 42.18 1.23
2 3 4 42.35 1.29
2 3 4 42.63 1.32
2 3 4 42 1.26
-2 3 -4 41.22 1.21
2 3 4 42.44 1.22
-2 3 -4 41.35 1.2
-3 -3 -4 23.08 0.65
-3 -3 -4 21.95 0.66
3 -3 4 23.66 0.71
3 -3 4 22.82 0.66
-3 -3 -4 22.23 0.68
3 -3 4 23.46 0.72
3 -3 4 22.07 0.65
-3 3 -4 21.61 0.72
3 3 4 22.63 0.68
3 3 4 21.61 0.66
-3 3 -4 22.87 0.74
3 3 4 23.56 0.7
-3 3 -4 23.24 0.75
3 3 4 23.37 0.72
-3 3 -4 21.95 0.67
-3 3 -4 21.84 0.65
-4 -3 -4 3.4 0.13
-4 -3 -4 3.87 0.13
4 -3 4 3.48 0.14
4 -3 4 3.72 0.13
4 -3 4 3.52 0.15
-4 -3 -4 3.77 0.12
-4 3 -4 3.68 0.13
-4 3 -4 3.69 0.13
-4 3 -4 3.51 0.15
-4 3 -4 3.66 0.14
4 3 4 3.57 0.13
5 -3 4 0.62 0.07
5 -3 4 0.65 0.05
-5 -3 -4 0.66 0.07
-5 -3 -4 0.65 0.06
5 -3 4 0.68 0.05
5 -3 4 0.67 0.07
-5 -3 -4 0.74 0.05
-5 3 -4 0.52 0.08
-5 3 -4 0.62 0.05
5 3 4 0.71 0.07
5 3 4 0.57 0.06
-5 3 -4 0.57 0.08
5 3 4 0.58 0.08
-5 3 -4 0.71 0.07
-5 3 -4 0.71 0.06
-6 -3 -4 2.1 0.11
-6 -3 -4 1.87 0.12
6 -3 4 2.12 0.12
6 -3 4 2.01 0.13
6 -3 4 1.89 0.1
6 -3 4 1.97 0.1
-6 -3 -4 2.06 0.09
6 3 4 1.85 0.12
-6 3 -4 1.94 0.1
6 3 4 2.18 0.1
6 3 4 1.89 0.11
-6 3 -4 1.99 0.1
-6 3 -4 1.89 0.12
7 -3 4 0.81 0.11
-7 -3 -4 0.93 0.08
-7 -3 -4 0.76 0.08
-7 -3 -4 0.79 0.1
7 -3 4 0.89 0.08
-7 -3 -4 0.7 0.1
-7 3 -4 0.81 0.09
7 3 4 0.83 0.11
-7 3 -4 0.99 0.08
7 3 4 0.64 0.1
-7 3 -4 0.93 0.12
7 3 4 1.04 0.1
-8 -3 -4 1.05 0.11
-8 -3 -4 1.04 0.12
8 -3 4 1.35 0.09
-8 -3 -4 1.09 0.08
-8 3 -4 1.23 0.09
9 -3 4 0.65 0.1
-9 -3 -4 0.68 0.12
-9 -3 -4 0.64 0.07
-9 3 -4 0.46 0.07
-9 -4 4 1.03 0.09
9 -4 -4 0.82 0.11
-9 -4 4 1.16 0.1
-9 4 4 1.13 0.08
-8 -4 4 0.27 0.09
8 -4 -4 0.32 0.06
8 -4 -4 0.34 0.07
-8 -4 4 0.37 0.08
8 -4 -4 0.32 0.08
-8 4 4 0.33 0.08
8 4 -4 0.21 0.04
7 -4 -4 0.88 0.09
-7 -4 4 0.79 0.08
7 -4 -4 0.66 0.08
7 -4 -4 0.78 0.07
-7 -4 4 0.83 0.1
-7 4 4 0.8 0.08
7 4 -4 0.77 0.09
-7 4 4 0.76 0.09
7 4 -4 0.71 0.08
-6 -4 4 0.82 0.07
6 -4 -4 0.76 0.07
6 -4 -4 0.68 0.07
-6 -4 4 0.73 0.09
-6 4 4 0.57 0.08
6 4 -4 0.58 0.07
-6 4 4 0.73 0.08
6 4 -4 0.76 0.08
6 4 -4 0.86 0.07
5 -4 -4 2.82 0.11
-5 -4 4 2.7 0.12
-5 -4 4 2.84 0.13
5 -4 -4 2.85 0.12
5 -4 -4 2.97 0.11
-5 -4 4 2.91 0.11
5 4 -4 2.83 0.11
-5 4 4 2.69 0.12
5 4 -4 2.63 0.12
5 4 -4 2.67 0.12
-5 4 4 2.92 0.11
-4 -4 4 10.43 0.35
-4 -4 4 10.81 0.32
-4 -4 4 10.22 0.34
-4 -4 4 10.44 0.33
4 -4 -4 10.66 0.33
4 -4 -4 11.06 0.35
4 -4 -4 11.34 0.32
4 -4 -4 10.42 0.35
4 4 -4 10.68 0.35
-4 4 4 11.31 0.33
-4 4 4 11.12 0.34
4 4 -4 10.7 0.36
-4 4 4 11.28 0.34
4 4 -4 11.09 0.34
3 -4 -4 0.82 0.04
-3 -4 4 0.73 0.04
-3 -4 4 0.8 0.05
3 -4 -4 0.85 0.06
-3 -4 4 0.87 0.06
3 4 -4 0.85 0.06
3 4 -4 0.81 0.06
3 4 -4 0.72 0.05
-3 4 4 0.73 0.04
-3 4 4 0.87 0.05
-3 4 4 0.75 0.05
3 4 -4 0.81 0.05
3 4 -4 0.85 0.05
2 -4 -4 9.44 0.31
-2 -4 4 10.03 0.31
2 -4 -4 9.19 0.28
-2 -4 4 9.79 0.3
2 -4 -4 9.83 0.31
2 -4 -4 9.82 0.29
2 4 -4 9.66 0.33
2 4 -4 9.8 0.3
-2 4 4 9.52 0.29
2 4 -4 9.55 0.29
-2 4 4 9.55 0.3
2 4 -4 9.86 0.29
-2 4 4 9.99 0.3
2 4 -4 9.47 0.31
1 -4 -4 83.29 2.35
-1 -4 4 80.63 2.54
1 -4 -4 78.87 2.3
-1 -4 4 80.65 2.37
1 4 -4 80.61 2.35
-1 4 4 78.94 2.41
1 4 -4 85.11 2.54
1 4 -4 82.73 2.42
-1 4 4 78.18 2.37
-1 4 4 80.04 2.4
1 4 -4 83.81 2.65
1 4 -4 84.98 2.49
0 -4 4 21.72 0.65
0 -4 4 23.16 0.7
0 -4 4 23.29 0.7
0 -4 4 21.67 0.66
0 -4 -4 21.28 0.63
0 4 -4 21.68 0.65
0 4 4 22.14 0.65
0 4 4 21.97 0.67
0 4 -4 22.36 0.68
0 4 4 23.15 0.65
0 4 -4 23.26 0.69
0 4 -4 21.64 0.73
0 4 4 21.84 0.67
0 4 -4 22.38 0.7
1 -4 4 34.11 1.03
-1 -4 -4 31.35 0.95
-1 -4 -4 31.78 0.93
1 -4 4 32.97 1.01
-1 -4 -4 32.26 1.03
1 -4 4 33 1.02
-1 4 -4 35.01 0.94
1 4 4 32.91 0.96
1 4 4 32.78 0.98
-1 4 -4 32.23 0.95
-1 4 -4 31.66 1.03
-1 4 -4 34.34 1.01
2 -4 4 12.17 0.38
2 -4 4 12.3 0.39
-2 -4 -4 12.02 0.35
-2 -4 -4 11.93 0.35
2 -4 4 12.14 0.38
-2 4 -4 11.46 0.4
-2 4 -4 11.88 0.35
2 4 4 11.79 0.37
-2 4 -4 11.69 0.36
2 4 4 12.17 0.38
-2 4 -4 11.33 0.38
3 -4 4 15.72 0.49
3 -4 4 16.56 0.54
-3 -4 -4 16.5 0.48
3 -4 4 16.16 0.48
-3 -4 -4 15.95 0.49
3 -4 4 15.84 0.52
3 4 4 17.15 0.49
-3 4 -4 17.14 0.55
-3 4 -4 16.64 0.48
-3 4 -4 16.51 0.5
-3 4 -4 17.3 0.56
3 4 4 17.17 0.51
4 -4 4 12.06 0.4
4 -4 4 12.38 0.37
4 -4 4 13.06 0.42
-4 -4 -4 12.29 0.37
-4 -4 -4 12.69 0.38
4 -4 4 12.21 0.38
-4 -4 -4 12.12 0.41
-4 -4 -4 11.77 0.39
4 4 4 12.83 0.41
4 4 4 12.24 0.38
-4 4 -4 12.47 0.43
-4 4 -4 12.24 0.41
-4 4 -4 12.63 0.37
4 4 4 12.63 0.39
-4 4 -4 12.6 0.38
-4 4 -4 12.71 0.42
-4 4 -4 12.15 0.38
5 -4 4 3.96 0.13
-5 -4 -4 3.89 0.13
-5 -4 -4 3.99 0.14
5 -4 4 4.06 0.14
5 -4 4 3.77 0.16
5 -4 4 3.55 0.16
-5 -4 -4 3.72 0.15
-5 4 -4 3.67 0.14
5 4 4 3.92 0.15
-5 4 -4 3.69 0.15
5 4 4 4.02 0.14
5 4 4 3.77 0.16
-5 4 -4 4.12 0.15
6 -4 4 4.06 0.18
-6 -4 -4 4.51 0.15
-6 -4 -4 4.19 0.19
6 -4 4 4.55 0.16
-6 -4 -4 4.38 0.16
6 -4 4 4.45 0.15
6 -4 4 4.52 0.18
-6 -4 -4 4.56 0.18
-6 4 -4 4.29 0.16
6 4 4 4.41 0.19
-6 4 -4 4.19 0.18
6 4 4 4.52 0.17
-6 4 -4 4.38 0.18
6 4 4 4.18 0.17
-6 4 -4 4.44 0.19
-7 -4 -4 0.17 0.04
-7 -4 -4 0.32 0.07
7 4 4 0.14 0.04
-7 4 -4 0.23 0.07
-7 4 -4 0.23 0.04
-8 -4 -4 0.16 0.05
-8 -4 -4 0.26 0.06
-8 -4 -4 0.35 0.1
-9 -4 -4 0.03 0.02
-9 -4 -4 0.03 0.05
9 -4 4 0.02 0.04
-9 4 -4 0.03 0.03
-9 -5 4 1.36 0.1
9 -5 -4 1.24 0.08
-9 -5 4 1.39 0.1
-9 5 4 1.21 0.08
9 5 -4 1.24 0.09
-9 5 4 1.27 0.09
-8 -5 4 1.63 0.12
8 -5 -4 1.68 0.1
8 -5 -4 1.6 0.11
8 -5 -4 1.59 0.09
-8 5 4 1.65 0.1
8 5 -4 1.44 0.1
7 -5 -4 2.53 0.13
-7 -5 4 2.62 0.12
7 -5 -4 2.46 0.11
-7 -5 4 2.71 0.15
7 -5 -4 2.45 0.12
-7 5 4 2.4 0.12
7 5 -4 2.4 0.13
-7 5 4 2.45 0.13
7 5 -4 2.42 0.13
6 -5 -4 0.02 0.02
-6 -5 4 0.05 0.03
-6 -5 4 0.05 0.02
6 -5 -4 0.11 0.04
6 5 -4 -0.01 0.03
6 5 -4 0.01 0.03
-6 5 4 0.06 0.03
5 -5 -4 10.47 0.32
-5 -5 4 10.38 0.33
-5 -5 4 10.15 0.34
-5 -5 4 10.19 0.35
5 -5 -4 10.32 0.34
5 -5 -4 10.45 0.33
-5 5 4 10.5 0.32
-5 5 4 10.69 0.34
-5 5 4 10.81 0.33
5 5 -4 10.45 0.35
5 5 -4 10.74 0.33
5 5 -4 10.6 0.34
-4 -5 4 7.83 0.25
4 -5 -4 8.5 0.26
-4 -5 4 8.16 0.26
-4 -5 4 7.85 0.28
4 -5 -4 8.6 0.27
-4 -5 4 8.13 0.27
4 -5 -4 8.31 0.25
-4 5 4 8.77 0.27
4 5 -4 8.62 0.27
-4 5 4 8.6 0.27
-4 5 4 8.35 0.26
4 5 -4 7.94 0.26
4 5 -4 8.52 0.26
4 5 -4 8.05 0.28
3 -5 -4 55.33 1.57
-3 -5 4 55.16 1.72
-3 -5 4 56.94 1.57
-3 -5 4 56.11 1.61
3 -5 -4 53.23 1.69
-3 5 4 57.03 1.56
3 5 -4 53.5 1.6
3 5 -4 55.72 1.7
-3 5 4 55.63 1.62
3 5 -4 52.05 1.67
-3 5 4 56.63 1.65
-3 5 4 56.19 1.64
-2 -5 4 57.08 1.75
2 -5 -4 58.33 1.59
-2 -5 4 53.33 1.65
2 -5 -4 54.47 1.74
2 5 -4 56.92 1.7
-2 5 4 57.66 1.64
2 5 -4 54.63 1.63
-2 5 4 56.22 1.66
2 5 -4 55.99 1.68
-2 5 4 58.47 1.59
2 5 -4 55.74 1.84
-1 -5 4 9.88 0.31
1 -5 -4 9.53 0.28
-1 -5 4 9.49 0.3
-1 5 4 9.24 0.29
1 5 -4 9.46 0.3
1 5 -4 9.82 0.33
1 5 -4 9.22 0.3
-1 5 4 9.83 0.29
1 5 -4 8.95 0.29
1 5 -4 9.91 0.31
0 -5 -4 6.31 0.2
0 -5 4 6.87 0.22
0 -5 4 6.48 0.2
0 -5 -4 6.38 0.2
0 -5 4 6.89 0.22
0 5 4 6.87 0.21
0 5 4 6.71 0.21
0 5 -4 6.71 0.21
0 5 4 7.02 0.21
0 5 -4 6.45 0.22
0 5 -4 6.67 0.22
-1 -5 -4 3.11 0.11
1 -5 4 3.02 0.11
1 -5 4 3.09 0.11
1 -5 4 3.27 0.12
1 -5 4 3.15 0.11
1 -5 4 3.22 0.12
-1 5 -4 3.2 0.12
1 5 4 3.2 0.11
1 5 4 3.38 0.11
-1 5 -4 3.47 0.13
1 5 4 3.24 0.11
-1 5 -4 3.36 0.11
2 -5 4 22.55 0.68
2 -5 4 22.8 0.7
-2 -5 -4 21.19 0.63
2 -5 4 22.88 0.7
-2 -5 -4 21.32 0.65
-2 5 -4 21.19 0.65
2 5 4 22.88 0.68
-2 5 -4 22.08 0.7
-2 5 -4 22.55 0.64
-2 5 -4 21.71 0.72
2 5 4 21.43 0.67
-3 -5 -4 16.76 0.47
3 -5 4 16.07 0.48
3 -5 4 16.29 0.47
3 -5 4 15.89 0.53
3 -5 4 15.77 0.51
-3 -5 -4 16.28 0.48
3 5 4 15.87 0.5
-3 5 -4 16.17 0.52
3 5 4 15.96 0.49
-3 5 -4 16.38 0.49
3 5 4 16.92 0.51
-3 5 -4 16.66 0.55
4 -5 4 13.67 0.44
-4 -5 -4 13.78 0.4
-4 -5 -4 13.84 0.41
4 -5 4 14.01 0.45
4 -5 4 13.52 0.41
4 -5 4 13.47 0.39
-4 -5 -4 12.72 0.42
4 5 4 13.71 0.43
-4 5 -4 13.1 0.41
4 5 4 13.33 0.42
-4 5 -4 13.18 0.4
-4 5 -4 12.97 0.46
-4 5 -4 13.49 0.46
-4 5 -4 13.19 0.4
-4 5 -4 13.07 0.44
5 -5 4 4.55 0.18
5 -5 4 4.63 0.19
5 -5 4 4.74 0.15
-5 -5 -4 4.65 0.16
5 -5 4 4.63 0.16
-5 -5 -4 4.51 0.15
-5 -5 -4 4.57 0.18
-5 5 -4 4.3 0.17
-5 5 -4 4.54 0.16
5 5 4 4.55 0.17
5 5 4 4.52 0.18
-5 5 -4 4.73 0.19
6 -5 4 1.9 0.09
6 -5 4 2.03 0.12
6 -5 4 2.11 0.14
-6 -5 -4 1.96 0.12
-6 5 -4 1.92 0.12
-6 5 -4 1.86 0.12
-6 5 -4 1.77 0.11
6 5 4 1.88 0.11
6 5 4 1.71 0.12
7 -5 4 1.94 0.1
7 -5 4 2.09 0.1
-7 -5 -4 1.98 0.1
7 -5 4 2.13 0.13
-7 -5 -4 2.03 0.1
-7 -5 -4 1.92 0.13
-7 5 -4 2.03 0.11
7 5 4 1.74 0.11
-8 -5 -4 0.59 0.1
-8 -5 -4 0.64 0.07
-8 -5 -4 0.5 0.06
8 -5 4 0.76 0.07
9 -5 4 0.96 0.08
-9 -5 -4 1.23 0.07
-9 5 -4 1.14 0.08
-9 -6 4 1.21 0.1
-9 -6 4 1.14 0.09
-9 6 4 1.31 0.09
9 6 -4 1.23 0.08
-8 -6 4 0.07 0.03
-8 -6 4 0.09 0.03
8 -6 -4 0.13 0.05
8 -6 -4 0.07 0.02
8 -6 -4 0.06 0.03
-8 6 4 0.06 0.06
8 6 -4 0.05 0.04
-8 6 4 0.02 0.02
-7 -6 4 0.05 0.03
-7 -6 4 0.13 0.03
7 -6 -4 0.09 0.04
7 -6 -4 0.07 0.02
-7 -6 4 0.07 0.03
7 -6 -4 0.11 0.03
7 6 -4 0.11 0.04
-7 6 4 0.12 0.03
-7 6 4 0.14 0.04
7 6 -4 0.11 0.04
-7 6 4 0.08 0.04
6 -6 -4 0.56 0.07
6 -6 -4 0.66 0.06
6 6 -4 0.77 0.09
6 6 -4 0.69 0.08
-6 6 4 0.43 0.08
6 6 -4 0.61 0.07
-6 6 4 0.46 0.07
5 -6 -4 7.63 0.23
-5 -6 4 7.07 0.26
-5 -6 4 7.2 0.24
5 -6 -4 7.4 0.25
-5 -6 4 7.06 0.26
-5 -6 4 7.37 0.23
5 -6 -4 7.43 0.24
5 6 -4 6.9 0.24
5 6 -4 7.47 0.26
-5 6 4 7.63 0.24
-5 6 4 7.91 0.25
5 6 -4 7.09 0.25
-5 6 4 7.53 0.24
-5 6 4 7.59 0.25
4 -6 -4 13.59 0.43
-4 -6 4 13.84 0.41
4 -6 -4 14.34 0.42
-4 -6 4 13.61 0.42
-4 -6 4 14.31 0.44
-4 -6 4 13.17 0.45
-4 6 4 14.44 0.43
4 6 -4 13.49 0.42
4 6 -4 13.08 0.43
-4 6 4 13.17 0.42
4 6 -4 14.15 0.44
-4 6 4 13.74 0.41
-4 6 4 13.77 0.42
4 6 -4 14.24 0.45
3 -6 -4 55.86 1.7
-3 -6 4 60.55 1.72
-3 -6 4 57.89 1.7
3 -6 -4 55.5 1.79
-3 -6 4 56.7 1.82
-3 -6 4 60.29 1.67
3 -6 -4 61.16 1.66
3 6 -4 59.19 1.78
-3 6 4 58.87 1.75
-3 6 4 57.96 1.74
-3 6 4 61.21 1.71
3 6 -4 59.36 1.7
3 6 -4 58.51 1.75
3 6 -4 59.13 1.87
-3 6 4 59.53 1.66
3 6 -4 58.36 1.8
3 6 -4 56.49 1.7
2 -6 -4 114.28 3.17
2 -6 -4 108.3 3.4
-2 -6 4 114.72 3.5
2 -6 -4 107.98 3.21
-2 -6 4 111.71 3.25
2 -6 -4 113.13 3.45
2 6 -4 113.29 3.31
2 6 -4 105.71 3.22
-2 6 4 112.12 3.26
2 6 -4 111.4 3.63
2 6 -4 115.51 3.36
-1 -6 4 54.09 1.54
-1 -6 4 50.81 1.55
1 -6 -4 51.39 1.53
1 -6 -4 50.77 1.64
1 6 -4 52.99 1.58
-1 6 4 53.19 1.53
-1 6 4 53.48 1.66
-1 6 4 55.66 1.55
1 6 -4 54 1.61
1 6 -4 56 1.66
1 6 -4 51.56 1.54
0 -6 4 24 0.76
0 -6 -4 23.15 0.69
0 -6 4 25.52 0.69
0 -6 -4 23.5 0.7
0 -6 4 23.19 0.72
0 -6 4 24.23 0.71
0 6 4 24.12 0.71
0 6 -4 24.67 0.74
0 6 -4 24.96 0.78
0 6 -4 24.03 0.75
0 6 -4 25.32 0.76
0 6 4 24.23 0.71
0 6 -4 22.96 0.71
1 -6 4 37.38 1.08
1 -6 4 38.28 1.18
1 -6 4 35.77 1.11
-1 -6 -4 36.9 1.07
-1 -6 -4 36.59 1.09
1 -6 4 37.07 1.1
1 -6 4 38.56 1.19
1 6 4 38.54 1.1
-1 6 -4 38.7 1.08
-1 6 -4 39.29 1.19
1 6 4 37 1.15
1 6 4 38.55 1.13
-1 6 -4 37.76 1.1
-1 6 -4 38.86 1.22
-1 6 -4 37.28 1.16
2 -6 4 16.62 0.52
-2 -6 -4 16.3 0.48
2 -6 4 16.56 0.48
-2 -6 -4 17.11 0.49
2 -6 4 17.05 0.54
2 -6 4 16.93 0.53
-2 6 -4 16.04 0.49
-2 6 -4 15.96 0.5
2 6 4 17.09 0.5
-2 6 -4 17.1 0.55
-2 6 -4 17.18 0.53
-2 6 -4 15.62 0.52
3 -6 4 2.61 0.09
-3 -6 -4 2.52 0.09
3 -6 4 2.44 0.11
3 -6 4 2.52 0.11
3 -6 4 2.56 0.09
-3 -6 -4 2.58 0.09
3 6 4 2.49 0.1
-3 6 -4 2.55 0.1
-3 6 -4 2.43 0.09
3 6 4 2.63 0.1
3 6 4 2.43 0.1
-3 6 -4 2.53 0.11
-3 6 -4 2.52 0.09
-3 6 -4 2.44 0.11
4 -6 4 14.11 0.4
4 -6 4 13.89 0.42
-4 -6 -4 13.85 0.41
-4 -6 -4 14.1 0.4
4 -6 4 13.39 0.46
-4 6 -4 13.39 0.47
4 6 4 13.82 0.43
-4 6 -4 13.84 0.45
-4 6 -4 13.2 0.47
4 6 4 13.99 0.42
-4 6 -4 13.8 0.42
4 6 4 13.4 0.44
-4 6 -4 13.22 0.41
5 -6 4 0.07 0.02
-5 -6 -4 0.07 0.03
5 -6 4 0.06 0.03
-5 -6 -4 0.06 0.02
-5 6 -4 0.09 0.03
5 6 4 0.05 0.03
-5 6 -4 0.13 0.04
-5 6 -4 0.08 0.03
-5 6 -4 0.08 0.03
-5 6 -4 0.1 0.03
-5 6 -4 0.08 0.02
-6 -6 -4 0.35 0.06
-6 -6 -4 0.28 0.06
-6 -6 -4 0.34 0.11
6 -6 4 0.45 0.13
6 -6 4 0.22 0.06
-6 6 -4 0.48 0.08
-6 6 -4 0.55 0.11
-6 6 -4 0.47 0.07
-7 -6 -4 3.71 0.14
-7 -6 -4 3.57 0.14
7 -6 4 3.64 0.14
-7 -6 -4 3.26 0.18
7 -6 4 3.69 0.14
7 -6 4 3.72 0.17
7 6 4 3.31 0.15
-7 6 -4 3.76 0.15
-8 -6 -4 0.25 0.06
8 -6 4 0.42 0.07
-8 6 -4 0.31 0.07
-9 -6 -4 1.49 0.08
9 -6 4 1.36 0.09
-9 -7 4 0.12 0.03
9 -7 -4 0.07 0.03
9 -7 -4 0.11 0.02
9 7 -4 0.11 0.03
-8 -7 4 0.43 0.06
8 -7 -4 0.29 0.06
8 -7 -4 0.33 0.07
-8 -7 4 0.47 0.1
8 -7 -4 0.38 0.06
-8 7 4 0.42 0.1
-8 7 4 0.34 0.07
8 7 -4 0.36 0.07
-7 -7 4 0.03 0.03
-7 -7 4 0.04 0.04
-7 -7 4 0.08 0.03
7 -7 -4 0.02 0.03
7 -7 -4 0.08 0.04
7 -7 -4 0.01 0.02
7 7 -4 0.05 0.04
-7 7 4 0.04 0.04
-7 7 4 0.06 0.04
-7 7 4 0.03 0.02
-6 -7 4 2.45 0.11
-6 -7 4 2.52 0.15
-6 -7 4 2.01 0.14
-6 7 4 2.3 0.11
6 7 -4 2.17 0.13
6 7 -4 2.15 0.13
-6 7 4 2.17 0.11
5 -7 -4 7.11 0.22
-5 -7 4 7.09 0.22
-5 -7 4 6.74 0.24
5 -7 -4 6.8 0.23
-5 -7 4 6.84 0.25
5 -7 -4 7.16 0.24
-5 -7 4 7.01 0.25
5 7 -4 7.45 0.24
-5 7 4 7.11 0.23
-5 7 4 7.1 0.24
-5 7 4 7.26 0.24
-5 7 4 7.04 0.23
5 7 -4 6.91 0.24
4 -7 -4 2.5 0.1
4 -7 -4 2.56 0.09
-4 -7 4 2.34 0.12
-4 -7 4 2.57 0.1
4 -7 -4 2.52 0.1
-4 -7 4 2.43 0.09
-4 -7 4 2.41 0.1
-4 7 4 2.52 0.1
-4 7 4 2.4 0.1
4 7 -4 2.31 0.1
-4 7 4 2.36 0.11
-4 7 4 2.43 0.1
4 7 -4 2.49 0.11
4 7 -4 2.27 0.1
4 7 -4 2.52 0.11
-3 -7 4 20.56 0.63
-3 -7 4 21.27 0.67
3 -7 -4 21.65 0.61
-3 -7 4 21.05 0.61
3 -7 -4 21.69 0.63
-3 -7 4 21.11 0.64
3 7 -4 21.19 0.63
-3 7 4 21.6 0.61
-3 7 4 21.24 0.64
3 7 -4 20.59 0.67
-3 7 4 20.77 0.62
3 7 -4 21.15 0.66
3 7 -4 21.02 0.68
3 7 -4 21.31 0.65
-3 7 4 20.85 0.64
-2 -7 4 39.62 1.25
-2 -7 4 38.86 1.17
2 -7 -4 39.19 1.16
2 -7 -4 39.55 1.24
2 -7 -4 40.51 1.14
-2 -7 4 39.05 1.14
-2 7 4 39.46 1.17
-2 7 4 41.7 1.2
-2 7 4 40.25 1.19
-2 7 4 39.47 1.14
2 7 -4 42.22 1.32
2 7 -4 39.43 1.22
2 7 -4 40.4 1.26
2 7 -4 41.16 1.28
-1 -7 4 4.32 0.14
1 7 -4 4.17 0.15
-1 7 4 4.32 0.15
1 7 -4 4.33 0.15
-1 7 4 4.41 0.14
-1 7 4 4.18 0.14
0 -7 4 4.74 0.14
0 -7 4 4.47 0.16
0 -7 4 4.45 0.15
0 -7 4 4.26 0.16
0 -7 -4 4.49 0.14
0 7 4 4.33 0.14
0 7 -4 4.33 0.16
0 7 4 4.51 0.15
0 7 4 4.31 0.16
0 7 -4 4.63 0.15
0 7 4 4.66 0.15
-1 -7 -4 9.01 0.28
-1 -7 -4 8.74 0.3
-1 -7 -4 9.15 0.27
1 -7 4 9.33 0.31
1 -7 4 8.85 0.29
1 -7 4 9.39 0.28
1 7 4 9.27 0.29
1 7 4 9.47 0.3
-1 7 -4 9.73 0.3
-1 7 -4 9.91 0.32
-1 7 -4 9.1 0.3
2 -7 4 0.57 0.05
2 -7 4 0.64 0.04
-2 -7 -4 0.76 0.04
2 -7 4 0.67 0.05
2 -7 4 0.66 0.04
-2 7 -4 0.71 0.05
-2 7 -4 0.64 0.05
-2 7 -4 0.65 0.04
-2 7 -4 0.65 0.05
-2 7 -4 0.73 0.06
2 7 4 0.68 0.05
2 7 4 0.75 0.05
3 -7 4 4.71 0.17
-3 -7 -4 4.32 0.14
3 -7 4 4.49 0.17
3 -7 4 4.3 0.14
-3 -7 -4 4.34 0.15
3 7 4 4.65 0.16
-3 7 -4 4.62 0.15
-3 7 -4 4.82 0.18
3 7 4 4.7 0.16
-3 7 -4 4.85 0.15
-3 7 -4 4.37 0.16
4 -7 4 7.14 0.23
4 -7 4 7.35 0.26
4 -7 4 7.16 0.22
-4 -7 -4 7.19 0.23
-4 -7 -4 7.34 0.22
4 -7 4 6.96 0.25
-4 7 -4 7.12 0.23
4 7 4 7.31 0.24
-4 7 -4 6.91 0.25
4 7 4 7.15 0.24
-4 7 -4 7.36 0.23
-4 7 -4 7.62 0.27
-4 7 -4 7.43 0.27
-4 7 -4 7.03 0.23
5 -7 4 0.98 0.09
5 -7 4 0.85 0.06
5 -7 4 0.89 0.08
-5 -7 -4 0.87 0.06
-5 -7 -4 0.97 0.06
5 7 4 0.8 0.07
-5 7 -4 0.68 0.1
-5 7 -4 0.91 0.09
-5 7 -4 0.83 0.07
-5 7 -4 0.82 0.08
6 -7 4 9.96 0.3
6 -7 4 9.6 0.35
6 -7 4 9.75 0.32
-6 -7 -4 10.22 0.31
-6 -7 -4 10 0.32
-6 7 -4 9.72 0.32
6 7 4 9.81 0.33
-7 -7 -4 1.04 0.08
-7 -7 -4 1 0.08
7 -7 4 0.91 0.08
7 -7 4 1 0.08
7 -7 4 0.83 0.13
-7 7 -4 1.03 0.08
7 7 4 0.83 0.09
-8 -7 -4 4.16 0.15
8 -7 4 4.32 0.15
-8 -7 -4 3.88 0.18
-8 -7 -4 3.94 0.16
8 7 4 4.36 0.19
-8 7 -4 4.18 0.16
9 -7 4 0.55 0.07
-9 7 -4 0.69 0.09
9 -8 -4 0.54 0.08
9 -8 -4 0.34 0.06
9 8 -4 0.51 0.06
-9 8 4 0.37 0.06
8 -8 -4 1.69 0.1
-8 -8 4 1.72 0.1
8 -8 -4 1.58 0.09
-8 -8 4 1.8 0.14
-8 8 4 1.85 0.11
8 8 -4 1.54 0.1
-8 8 4 1.65 0.09
7 -8 -4 2.87 0.14
7 -8 -4 2.7 0.11
-7 -8 4 2.76 0.12
-7 -8 4 2.76 0.13
-7 -8 4 2.7 0.16
7 -8 -4 2.52 0.12
-7 8 4 2.71 0.13
-7 8 4 2.76 0.12
7 8 -4 2.44 0.13
-7 8 4 2.71 0.13
6 -8 -4 6.3 0.21
-6 -8 4 6.04 0.25
6 -8 -4 6.44 0.22
-6 8 4 6.02 0.22
6 8 -4 6.69 0.23
-5 -8 4 1.86 0.1
-5 -8 4 1.72 0.08
-5 -8 4 1.74 0.09
5 -8 -4 1.92 0.1
-5 -8 4 1.69 0.12
5 -8 -4 1.72 0.09
-5 8 4 1.58 0.09
5 8 -4 1.63 0.1
5 8 -4 2.03 0.13
-5 8 4 1.72 0.09
5 8 -4 1.7 0.11
-5 8 4 1.72 0.09
-5 8 4 1.83 0.09
-4 -8 4 1.99 0.12
-4 -8 4 2.04 0.09
-4 -8 4 2.34 0.09
4 -8 -4 2.24 0.1
4 -8 -4 2.17 0.08
4 -8 -4 2.3 0.09
-4 -8 4 2.22 0.09
4 8 -4 2.02 0.1
-4 8 4 2.28 0.09
4 8 -4 2.14 0.1
4 8 -4 2.14 0.1
4 8 -4 2.02 0.11
-4 8 4 2.08 0.09
-4 8 4 2.35 0.1
-4 8 4 2.17 0.1
-3 -8 4 19.56 0.57
3 -8 -4 19.1 0.57
-3 -8 4 19.43 0.63
-3 -8 4 19.5 0.59
3 -8 -4 20.73 0.59
-3 -8 4 19.64 0.61
-3 8 4 20.24 0.58
-3 8 4 18.98 0.59
3 8 -4 20.69 0.63
3 8 -4 20.69 0.61
3 8 -4 19.28 0.62
-3 8 4 19.42 0.6
-3 8 4 19.66 0.59
3 8 -4 19.79 0.59
-2 -8 4 19.57 0.65
-2 -8 4 20.22 0.6
2 -8 -4 19.79 0.6
-2 -8 4 18.97 0.62
-2 -8 4 20.09 0.59
-2 8 4 19.9 0.6
-2 8 4 20.24 0.62
2 8 -4 20.91 0.64
2 8 -4 20.33 0.66
2 8 -4 21.27 0.61
-2 8 4 20.92 0.6
-2 8 4 20.8 0.62
2 8 -4 20.67 0.63
2 8 -4 20.44 0.62
-2 8 4 20.77 0.59
1 -8 -4 28.75 0.86
-1 -8 4 28.61 0.87
-1 -8 4 29.65 0.85
-1 -8 4 30.28 0.93
-1 8 4 29.47 0.86
1 8 -4 29.77 0.96
1 8 -4 30.86 0.91
-1 8 4 30.85 0.89
-1 8 4 31.14 0.85
1 8 -4 27.84 0.94
-1 8 4 30.34 0.89
-1 8 4 27.91 0.93
0 -8 4 56.64 1.62
0 -8 4 58.93 1.79
0 -8 4 59.61 1.78
0 8 4 56.06 1.69
0 8 4 55.58 1.7
0 8 -4 56.89 1.74
0 8 -4 59.21 1.83
0 8 -4 57.97 1.87
0 8 4 53.82 1.73
1 -8 4 0.3 0.03
-1 -8 -4 0.25 0.04
1 -8 4 0.23 0.03
1 -8 4 0.25 0.04
-1 -8 -4 0.27 0.03
-1 8 -4 0.25 0.04
1 8 4 0.26 0.04
1 8 4 0.21 0.03
1 8 4 0.21 0.04
-1 8 -4 0.29 0.03
1 8 4 0.16 0.05
1 8 4 0.31 0.04
-1 8 -4 0.23 0.05
-1 8 -4 0.23 0.04
1 8 4 0.23 0.04
2 -8 4 1.85 0.08
-2 -8 -4 1.85 0.07
2 -8 4 1.83 0.07
2 -8 4 1.74 0.08
2 -8 4 1.82 0.08
2 -8 4 1.75 0.07
2 8 4 1.79 0.08
-2 8 -4 1.88 0.07
2 8 4 1.79 0.08
-2 8 -4 1.77 0.09
-2 8 -4 1.66 0.09
2 8 4 1.87 0.08
-2 8 -4 1.91 0.08
-2 8 -4 1.77 0.07
3 -8 4 10.03 0.31
3 -8 4 9.78 0.3
-3 -8 -4 9.92 0.3
3 -8 4 10.13 0.34
-3 -8 -4 10.33 0.31
3 -8 4 9.59 0.33
-3 8 -4 10.15 0.31
-3 8 -4 10.22 0.35
3 8 4 9.66 0.31
-3 8 -4 10.05 0.33
3 8 4 9.56 0.32
-3 8 -4 9.87 0.3
-3 8 -4 10.15 0.35
4 -8 4 6.59 0.22
4 -8 4 6.84 0.21
-4 -8 -4 7.17 0.21
4 -8 4 6.56 0.24
4 -8 4 6.55 0.24
-4 -8 -4 6.87 0.22
-4 8 -4 6.83 0.22
-4 8 -4 6.55 0.22
-4 8 -4 6.65 0.24
4 8 4 6.63 0.22
4 8 4 6.79 0.23
-4 8 -4 6.66 0.25
5 -8 4 0.92 0.06
-5 -8 -4 0.76 0.06
5 -8 4 0.91 0.07
-5 -8 -4 0.78 0.06
5 -8 4 0.99 0.09
5 -8 4 0.88 0.08
5 8 4 1.01 0.08
-5 8 -4 0.72 0.1
-5 8 -4 0.87 0.07
-5 8 -4 0.77 0.08
-5 8 -4 0.81 0.08
6 -8 4 0.33 0.06
-6 -8 -4 0.3 0.06
-6 -8 -4 0.35 0.06
6 -8 4 0.29 0.06
-6 8 -4 0.4 0.07
6 8 4 0.36 0.07
-6 8 -4 0.41 0.09
-7 -8 -4 3.97 0.19
-7 -8 -4 4.24 0.15
7 -8 4 4.06 0.15
7 -8 4 4.32 0.16
7 8 4 3.97 0.17
-7 8 -4 4.18 0.16
-8 -8 -4 0.79 0.06
-8 -8 -4 0.69 0.08
8 -8 4 0.94 0.07
8 8 4 0.85 0.1
9 -9 -4 0 0.02
-9 -9 4 0.03 0.03
9 9 -4 0.09 0.03
8 -9 -4 0.83 0.06
-8 -9 4 0.62 0.15
-8 -9 4 0.72 0.07
8 -9 -4 0.59 0.07
-8 9 4 0.75 0.08
8 9 -4 0.58 0.08
-7 -9 4 6.06 0.21
-7 -9 4 5.82 0.25
7 -9 -4 5.59 0.2
7 -9 -4 6.16 0.21
-7 -9 4 6.14 0.22
-7 9 4 5.99 0.2
-7 9 4 6.15 0.23
7 9 -4 5.93 0.22
-7 9 4 5.85 0.21
-7 9 4 6.13 0.22
6 -9 -4 0.53 0.1
6 -9 -4 0.35 0.06
6 -9 -4 0.28 0.07
-6 -9 4 0.44 0.13
-6 9 4 0.36 0.06
6 9 -4 0.37 0.07
-6 9 4 0.25 0.08
-6 9 4 0.4 0.07
5 -9 -4 3.64 0.13
-5 -9 4 3.62 0.13
-5 -9 4 3.93 0.15
5 -9 -4 4 0.15
5 -9 -4 3.46 0.15
-5 -9 4 3.98 0.18
5 9 -4 3.92 0.16
5 9 -4 3.58 0.15
-5 9 4 3.64 0.14
5 9 -4 3.64 0.15
-5 9 4 3.53 0.15
-5 9 4 3.91 0.14
-5 9 4 3.72 0.15
-4 -9 4 10.92 0.33
-4 -9 4 10.23 0.32
-4 -9 4 10.14 0.35
4 -9 -4 9.94 0.34
4 -9 -4 10.24 0.31
4 -9 -4 10.48 0.33
-4 9 4 10.51 0.32
4 9 -4 11.05 0.34
4 9 -4 10.06 0.34
4 9 -4 10.55 0.33
-4 9 4 10.8 0.32
-4 9 4 10.3 0.33
-4 9 4 10.24 0.34
4 9 -4 10.28 0.35
-3 -9 4 6.37 0.2
-3 -9 4 5.91 0.21
3 -9 -4 5.95 0.18
-3 -9 4 6.09 0.19
3 -9 -4 5.71 0.2
-3 9 4 5.92 0.2
-3 9 4 6.14 0.21
3 9 -4 5.87 0.21
-3 9 4 6.26 0.21
3 9 -4 6.31 0.21
-3 9 4 6.25 0.2
3 9 -4 5.98 0.2
2 -9 -4 2.63 0.09
-2 -9 4 2.71 0.09
-2 -9 4 2.85 0.1
2 -9 -4 2.77 0.1
-2 -9 4 2.79 0.11
-2 9 4 2.76 0.11
-2 9 4 2.91 0.11
-2 9 4 2.91 0.11
2 9 -4 2.62 0.11
2 9 -4 2.65 0.11
-2 9 4 2.65 0.11
2 9 -4 2.64 0.11
2 9 -4 2.76 0.11
2 9 -4 2.49 0.12
2 9 -4 2.74 0.11
-2 9 4 2.64 0.11
-1 -9 4 8.53 0.24
-1 -9 4 8.53 0.27
-1 -9 4 8.61 0.25
1 -9 -4 8 0.25
-1 9 4 8.34 0.26
-1 9 4 7.62 0.26
1 9 -4 8.28 0.28
-1 9 4 7.89 0.26
-1 9 4 7.87 0.27
-1 9 4 7.98 0.26
-1 9 4 8.03 0.25
0 -9 4 26.14 0.81
0 -9 4 25.35 0.8
0 -9 4 25.53 0.74
0 -9 -4 25.47 0.79
0 -9 4 25.17 0.73
0 9 -4 25.65 0.81
0 9 4 26.05 0.77
0 9 4 24.27 0.78
0 9 -4 26.51 0.74
0 9 -4 25.2 0.85
0 9 4 24.63 0.76
0 9 4 23.8 0.75
0 9 4 25.48 0.73
0 9 -4 25.34 0.8
0 9 -4 26.62 0.78
1 -9 4 11.51 0.36
-1 -9 -4 11.16 0.35
1 -9 4 11.69 0.35
1 -9 4 12.3 0.39
1 -9 4 11.97 0.39
-1 9 -4 12.47 0.41
-1 9 -4 12.32 0.38
-1 9 -4 12.61 0.36
1 9 4 12.21 0.37
1 9 4 11.95 0.37
-1 9 -4 11.75 0.41
-1 9 -4 11.37 0.39
-1 9 -4 11.59 0.39
1 9 4 12.03 0.36
1 9 4 11.93 0.36
1 9 4 12.24 0.36
2 -9 4 24.56 0.7
-2 -9 -4 22.62 0.68
2 -9 4 25.23 0.76
2 -9 4 24.51 0.75
2 -9 4 23.1 0.76
-2 -9 -4 24.02 0.7
2 -9 4 24.15 0.69
-2 9 -4 23.31 0.69
-2 9 -4 24.13 0.8
2 9 4 23.06 0.74
2 9 4 23.91 0.72
2 9 4 23.44 0.71
-2 9 -4 23.58 0.79
2 9 4 24.51 0.73
-2 9 -4 23.4 0.71
2 9 4 23.63 0.69
-2 9 -4 24.44 0.76
-3 -9 -4 0.64 0.05
3 -9 4 0.6 0.06
-3 -9 -4 0.54 0.04
3 -9 4 0.61 0.04
3 9 4 0.62 0.06
-3 9 -4 0.47 0.07
3 9 4 0.58 0.06
3 9 4 0.48 0.07
-3 9 -4 0.67 0.06
-3 9 -4 0.6 0.06
-3 9 -4 0.63 0.05
-3 9 -4 0.53 0.05
4 -9 4 4.16 0.17
4 -9 4 3.96 0.17
4 -9 4 4.15 0.14
4 -9 4 4.06 0.14
-4 -9 -4 4.05 0.14
-4 -9 -4 4.16 0.14
-4 9 -4 4.07 0.18
-4 9 -4 4.01 0.15
-4 9 -4 4.15 0.15
-4 9 -4 3.93 0.18
4 9 4 4.29 0.15
-4 9 -4 4.02 0.16
4 9 4 4.24 0.16
5 -9 4 1.3 0.07
5 -9 4 1.3 0.1
-5 -9 -4 1.27 0.08
5 -9 4 1.32 0.08
5 -9 4 1.4 0.12
-5 -9 -4 1.26 0.07
5 9 4 1.36 0.09
-5 9 -4 1.31 0.09
-5 9 -4 1.4 0.12
-5 9 -4 1.35 0.08
-5 9 -4 1.21 0.09
5 9 4 1.3 0.09
-6 -9 -4 2.85 0.12
6 -9 4 2.7 0.12
-6 -9 -4 2.92 0.12
6 -9 4 2.87 0.11
6 9 4 2.89 0.14
-6 9 -4 2.83 0.14
-6 9 -4 2.87 0.13
-7 -9 -4 3.18 0.12
7 -9 4 3.21 0.13
-7 -9 -4 2.81 0.15
7 -9 4 2.94 0.12
-7 9 -4 3.17 0.13
-7 9 -4 2.81 0.16
7 9 4 3 0.14
-8 -9 -4 0.25 0.08
-8 -9 -4 0.26 0.08
-8 -10 4 3.15 0.13
8 -10 -4 3.04 0.12
-8 10 4 3.07 0.14
-8 10 4 2.88 0.14
-7 -10 4 4.13 0.17
-7 -10 4 4.24 0.16
7 -10 -4 4.28 0.16
-7 -10 4 4.07 0.21
7 -10 -4 4.3 0.15
7 10 -4 4.47 0.18
-7 10 4 4.17 0.17
-7 10 4 3.93 0.16
6 -10 -4 2.37 0.12
6 -10 -4 2.29 0.11
6 -10 -4 2.61 0.14
-6 -10 4 2.52 0.19
6 10 -4 2.48 0.13
-6 10 4 2.6 0.12
-6 10 4 2.63 0.13
-6 10 4 2.44 0.12
-5 -10 4 2.86 0.11
-5 -10 4 2.84 0.12
-5 -10 4 2.94 0.18
5 -10 -4 2.6 0.11
5 -10 -4 2.62 0.12
-5 -10 4 2.96 0.14
-5 10 4 2.74 0.11
5 10 -4 2.81 0.13
-5 10 4 2.71 0.13
5 10 -4 2.85 0.14
5 10 -4 2.64 0.13
-5 10 4 2.85 0.13
-5 10 4 2.73 0.12
-5 10 4 2.6 0.13
4 -10 -4 2.83 0.11
4 -10 -4 2.89 0.1
4 -10 -4 2.76 0.12
-4 -10 4 2.63 0.12
-4 -10 4 2.7 0.11
-4 -10 4 2.96 0.11
-4 10 4 2.76 0.13
-4 10 4 2.81 0.12
4 10 -4 2.8 0.12
4 10 -4 2.64 0.12
4 10 -4 2.98 0.14
-4 10 4 2.69 0.12
-4 10 4 3.04 0.12
4 10 -4 2.69 0.12
3 -10 -4 6.38 0.21
-3 -10 4 6.69 0.22
-3 -10 4 6.51 0.23
-3 10 4 6.36 0.21
3 10 -4 6.66 0.23
3 10 -4 6.57 0.23
3 10 -4 6.78 0.24
-3 10 4 6.23 0.22
-3 10 4 6.67 0.22
-3 10 4 6.31 0.22
3 10 -4 6.69 0.22
-2 -10 4 1.06 0.05
2 -10 -4 1.16 0.07
2 -10 -4 1.07 0.05
-2 10 4 1.15 0.07
-2 10 4 1.17 0.07
2 10 -4 1.17 0.07
-2 10 4 0.97 0.07
2 10 -4 0.99 0.07
2 10 -4 1.21 0.07
2 10 -4 1.07 0.07
2 10 -4 1.08 0.07
-2 10 4 1 0.06
-1 -10 4 48.43 1.41
-1 -10 4 51.52 1.55
-1 -10 4 50.95 1.44
-1 10 4 49.55 1.43
1 10 -4 51.24 1.51
-1 10 4 50.26 1.48
-1 10 4 46.57 1.5
-1 10 4 49.43 1.41
1 10 -4 47.48 1.59
1 10 -4 47.28 1.45
1 10 -4 49.86 1.63
1 10 -4 50.37 1.56
1 10 -4 50.17 1.53
-1 10 4 51.19 1.48
0 -10 4 18 0.61
0 -10 4 19.84 0.55
0 -10 4 19.52 0.6
0 -10 4 19.16 0.56
0 10 4 18.71 0.58
0 10 -4 19.05 0.63
0 10 -4 18.58 0.59
0 10 -4 19.46 0.6
0 10 -4 18.95 0.55
0 10 4 19.08 0.55
0 10 4 17.68 0.56
0 10 4 19.23 0.58
0 10 4 18.02 0.6
0 10 4 19.06 0.56
-1 -10 -4 5.31 0.18
1 -10 4 5.76 0.17
1 -10 4 5.93 0.2
1 -10 4 5.57 0.2
1 -10 4 5.81 0.18
-1 -10 -4 5.32 0.17
1 10 4 5.21 0.18
1 10 4 5.47 0.19
1 10 4 5.72 0.19
1 10 4 5.79 0.19
-1 10 -4 5.81 0.18
-1 10 -4 5.78 0.2
-1 10 -4 5.63 0.21
1 10 4 5.81 0.19
-1 10 -4 5.52 0.19
1 10 4 5.52 0.18
-1 10 -4 5.6 0.21
2 -10 4 1.16 0.05
2 -10 4 1.1 0.07
2 -10 4 1.24 0.07
-2 -10 -4 1.19 0.05
2 -10 4 1.08 0.07
-2 -10 -4 1.19 0.06
2 -10 4 1.16 0.06
-2 10 -4 1.21 0.06
-2 10 -4 1.31 0.08
-2 10 -4 1.14 0.07
-2 10 -4 1.17 0.07
2 10 4 1.18 0.07
2 10 4 1.2 0.07
-2 10 -4 1.06 0.08
2 10 4 1.07 0.07
2 10 4 1.16 0.07
-2 10 -4 1.12 0.06
2 10 4 1.06 0.07
3 -10 4 1.1 0.06
3 -10 4 1.16 0.06
3 -10 4 0.93 0.08
-3 -10 -4 1.03 0.05
-3 -10 -4 1.08 0.06
3 10 4 1.11 0.07
3 10 4 1.01 0.07
-3 10 -4 1.03 0.06
-3 10 -4 1.12 0.07
-3 10 -4 1.06 0.06
-3 10 -4 1.07 0.09
4 -10 4 1.94 0.08
4 -10 4 1.81 0.11
-4 -10 -4 1.91 0.09
-4 -10 -4 1.8 0.08
4 -10 4 1.77 0.08
-4 10 -4 1.84 0.1
4 10 4 1.82 0.1
4 10 4 1.88 0.09
-4 10 -4 1.82 0.08
-4 10 -4 1.87 0.12
-4 10 -4 1.68 0.09
-4 10 -4 1.65 0.11
5 -10 4 0.88 0.12
5 -10 4 0.87 0.09
5 -10 4 0.96 0.08
5 -10 4 1.1 0.07
-5 -10 -4 1 0.07
-5 10 -4 0.95 0.08
5 10 4 1.07 0.09
5 10 4 1.01 0.09
-5 10 -4 1.03 0.14
-5 10 -4 0.8 0.13
6 -10 4 2.32 0.1
-6 -10 -4 2.46 0.11
6 -10 4 2.4 0.11
-6 -10 -4 2.56 0.1
-6 10 -4 2.26 0.13
6 10 4 2.3 0.12
-6 10 -4 2.51 0.13
-6 10 -4 2.35 0.11
7 -10 4 1.63 0.08
-7 -10 -4 1.82 0.09
7 -10 4 1.71 0.09
-7 -10 -4 1.66 0.12
-7 -10 -4 1.85 0.09
7 10 4 1.56 0.1
-7 10 -4 1.76 0.1
-7 10 -4 1.61 0.13
8 -10 4 0.35 0.1
-8 -10 -4 0.42 0.05
8 10 4 0.31 0.09
8 10 4 0.46 0.11
-8 10 -4 0.33 0.07
-8 10 -4 0.43 0.09
8 -11 -4 0.15 0.02
-8 -11 4 0.11 0.03
8 -11 -4 0.09 0.03
-8 11 4 0.24 0.06
8 11 -4 0.18 0.04
7 -11 -4 3.93 0.15
7 -11 -4 3.76 0.14
-7 -11 4 4.1 0.15
-7 -11 4 3.99 0.16
-7 11 4 3.89 0.15
7 11 -4 3.64 0.16
-7 11 4 4.07 0.17
-7 11 4 3.84 0.16
6 -11 -4 10.55 0.33
6 -11 -4 9.88 0.31
-6 11 4 9.57 0.32
-6 11 4 10.21 0.33
6 11 -4 9.87 0.34
-6 11 4 10.28 0.36
-5 -11 4 1.86 0.11
-5 -11 4 1.73 0.09
5 -11 -4 1.65 0.12
5 -11 -4 1.8 0.1
-5 -11 4 1.67 0.1
-5 11 4 1.56 0.11
-5 11 4 1.84 0.11
5 11 -4 1.75 0.12
-4 -11 4 4.7 0.16
4 -11 -4 4.43 0.17
-4 -11 4 4.38 0.16
4 -11 -4 4.53 0.15
-4 -11 4 4.4 0.18
4 -11 -4 4.58 0.16
-4 11 4 4.76 0.17
4 11 -4 4.64 0.17
-4 11 4 4.35 0.18
4 11 -4 4.69 0.18
-4 11 4 4.51 0.16
4 11 -4 4.65 0.19
4 11 -4 4.53 0.18
-4 11 4 4.59 0.17
-3 -11 4 5.57 0.18
3 -11 -4 5.58 0.19
-3 -11 4 5.4 0.2
3 -11 -4 5.54 0.17
-3 -11 4 5.62 0.19
3 11 -4 5.57 0.2
-3 11 4 5.32 0.2
-3 11 4 5.73 0.19
3 11 -4 5.77 0.2
-3 11 4 5.74 0.2
3 11 -4 5.56 0.2
-3 11 4 5.54 0.2
-3 11 4 5.74 0.2
3 11 -4 5.86 0.21
-2 -11 4 10.91 0.33
-2 -11 4 11.52 0.37
-2 -11 4 10.77 0.34
2 11 -4 10.97 0.35
-2 11 4 10.8 0.37
-2 11 4 11.64 0.35
-2 11 4 10.9 0.36
-2 11 4 11.3 0.34
2 11 -4 11.22 0.36
-2 11 4 11.72 0.36
2 11 -4 11.18 0.37
2 11 -4 11.38 0.37
-1 -11 4 12.05 0.36
-1 -11 4 12.16 0.39
-1 11 4 12.12 0.37
1 11 -4 11.61 0.39
-1 11 4 11.49 0.37
1 11 -4 11.66 0.4
1 11 -4 12.57 0.38
-1 11 4 11.66 0.36
1 11 -4 12.09 0.37
-1 11 4 11.24 0.36
0 -11 4 1.83 0.07
0 -11 4 1.78 0.07
0 -11 4 1.81 0.08
0 -11 4 1.68 0.08
0 11 -4 1.74 0.09
0 11 -4 1.85 0.08
0 11 4 1.76 0.09
0 11 -4 1.71 0.09
0 11 4 1.65 0.08
0 11 -4 1.73 0.08
0 11 4 1.53 0.08
0 11 4 1.53 0.08
0 11 4 1.57 0.08
0 11 -4 1.71 0.08
0 11 -4 1.56 0.09
0 11 4 1.76 0.08
1 -11 4 13.61 0.44
1 -11 4 13.29 0.43
1 -11 4 12.74 0.39
1 -11 4 13.03 0.4
1 11 4 13.45 0.42
1 11 4 13.42 0.42
-1 11 -4 13.68 0.46
-1 11 -4 13.64 0.4
1 11 4 12.94 0.42
1 11 4 13.42 0.4
-1 11 -4 13.22 0.43
-1 11 -4 13.03 0.44
-1 11 -4 13.46 0.46
1 11 4 13.2 0.41
-2 -11 -4 3.06 0.11
-2 -11 -4 2.96 0.1
2 -11 4 3.12 0.11
2 -11 4 3.16 0.11
2 -11 4 3.08 0.13
2 -11 4 3.1 0.13
2 -11 4 3.24 0.13
2 11 4 3.05 0.12
-2 11 -4 2.96 0.14
2 11 4 3.02 0.12
2 11 4 2.97 0.12
-2 11 -4 3.13 0.14
-2 11 -4 2.9 0.12
-2 11 -4 3.05 0.12
2 11 4 3.17 0.12
2 11 4 3.08 0.12
-3 -11 -4 0.51 0.04
-3 -11 -4 0.51 0.05
3 -11 4 0.54 0.04
3 -11 4 0.47 0.05
-3 11 -4 0.56 0.06
3 11 4 0.5 0.07
-3 11 -4 0.46 0.08
-3 11 -4 0.49 0.06
-3 11 -4 0.64 0.07
3 11 4 0.47 0.06
-3 11 -4 0.53 0.05
-3 11 -4 0.6 0.06
-4 -11 -4 0.17 0.05
4 -11 4 0.11 0.03
4 -11 4 0.25 0.05
4 -11 4 0.13 0.06
4 11 4 0.2 0.07
-4 11 -4 0.31 0.1
-4 11 -4 0.23 0.05
-4 11 -4 0.16 0.04
-5 -11 -4 3.89 0.14
5 -11 4 3.73 0.15
-5 -11 -4 3.89 0.15
5 -11 4 4.01 0.14
-5 11 -4 3.8 0.15
5 11 4 4.05 0.16
5 11 4 3.77 0.16
-5 11 -4 3.84 0.16
-5 11 -4 4.15 0.15
6 -11 4 3.8 0.14
-6 -11 -4 3.92 0.15
6 -11 4 3.82 0.14
-6 11 -4 4 0.16
6 11 4 3.54 0.16
-6 11 -4 3.77 0.17
-6 11 -4 3.67 0.14
7 -11 4 2.8 0.11
-7 -11 -4 2.98 0.12
-7 -11 -4 2.89 0.12
-7 -11 -4 3.08 0.15
7 -11 4 3 0.12
-7 11 -4 2.95 0.14
-7 11 -4 2.69 0.12
7 11 4 2.75 0.13
-8 -11 -4 0.27 0.05
8 -11 4 0.15 0.04
-8 -11 -4 0.27 0.07
8 11 4 0.23 0.04
8 -12 -4 0.79 0.06
-8 -12 4 0.73 0.07
-8 12 4 0.63 0.09
8 12 -4 0.97 0.09
7 -12 -4 1.32 0.07
-7 -12 4 1.27 0.08
7 -12 -4 1.13 0.09
-7 -12 4 1.32 0.09
7 12 -4 1.38 0.1
-7 12 4 1.4 0.09
-7 12 4 1.21 0.09
-7 12 4 1.35 0.09
6 -12 -4 0.52 0.06
6 -12 -4 0.38 0.08
-6 12 4 0.53 0.08
6 12 -4 0.39 0.08
-6 12 4 0.51 0.08
-6 12 4 0.54 0.08
-5 -12 4 0.71 0.07
5 -12 -4 0.57 0.06
-5 -12 4 0.67 0.08
-5 12 4 0.59 0.08
-5 12 4 0.73 0.08
-5 12 4 0.59 0.08
5 12 -4 0.5 0.09
5 12 -4 0.58 0.09
-5 12 4 0.61 0.07
4 -12 -4 0.5 0.09
-4 -12 4 0.54 0.07
-4 -12 4 0.43 0.06
4 -12 -4 0.44 0.05
-4 -12 4 0.4 0.05
4 -12 -4 0.47 0.08
-4 12 4 0.52 0.07
4 12 -4 0.43 0.09
-4 12 4 0.51 0.07
4 12 -4 0.58 0.07
4 12 -4 0.56 0.07
-4 12 4 0.56 0.07
4 12 -4 0.39 0.08
-4 12 4 0.45 0.07
-3 -12 4 1.28 0.06
-3 -12 4 1.26 0.08
3 -12 -4 1.31 0.06
-3 -12 4 1.35 0.07
3 12 -4 1.46 0.08
-3 12 4 1.34 0.08
3 12 -4 1.37 0.09
3 12 -4 1.35 0.09
-3 12 4 1.4 0.08
-3 12 4 1.32 0.08
-3 12 4 1.42 0.08
-3 12 4 1.37 0.08
3 12 -4 1.32 0.11
-2 -12 4 35.26 0.99
-2 -12 4 34.49 1.02
-2 12 4 32.78 1.09
2 12 -4 33.02 1.08
-2 12 4 36.21 1.01
2 12 -4 32.85 1.02
2 12 -4 34.55 1.07
-2 12 4 36.05 1.04
-2 12 4 34.45 1.04
-2 12 4 36.04 1
-1 -12 4 31.5 0.9
-1 -12 4 31.16 0.97
-1 -12 4 29.95 0.88
-1 12 4 31.1 0.89
1 12 -4 29.54 0.97
1 12 -4 30.42 0.91
-1 12 4 28.93 0.94
-1 12 4 31.04 0.97
1 12 -4 29.49 1
-1 12 4 31.68 0.93
-1 12 4 32.08 0.92
1 12 -4 30.08 0.94
-1 12 4 29.09 0.9
-1 12 4 31.03 0.88
1 12 -4 31.37 0.96
0 -12 4 14.56 0.48
0 -12 4 14.16 0.45
0 -12 4 15.16 0.43
0 -12 4 14.71 0.49
0 12 4 15.02 0.46
0 12 4 15.11 0.44
0 12 4 14.4 0.47
0 12 -4 15.25 0.45
0 12 -4 15.46 0.52
0 12 4 14.48 0.48
0 12 -4 14.88 0.48
0 12 4 15.05 0.46
0 12 -4 15.15 0.49
0 12 -4 14.41 0.51
0 12 -4 15.27 0.46
0 12 -4 14.95 0.48
0 12 4 15.41 0.45
0 12 4 14.07 0.45
1 -12 4 1.94 0.08
1 -12 4 2.2 0.1
1 -12 4 2.1 0.08
1 -12 4 2.08 0.1
-1 12 -4 1.92 0.11
1 12 4 1.96 0.09
1 12 4 2.05 0.09
-1 12 -4 1.97 0.1
1 12 4 2 0.09
1 12 4 1.92 0.1
1 12 4 2.03 0.1
-1 12 -4 2.07 0.09
-1 12 -4 2.05 0.09
-1 12 -4 2.07 0.11
2 -12 4 5.51 0.18
2 -12 4 5.52 0.21
2 -12 4 5.74 0.19
2 -12 4 5.41 0.21
-2 -12 -4 5.52 0.18
-2 -12 -4 5.5 0.19
2 -12 4 5.65 0.21
-2 12 -4 5.82 0.23
-2 12 -4 5.86 0.21
2 12 4 6.11 0.2
2 12 4 6 0.2
2 12 4 5.87 0.2
-2 12 -4 5.9 0.21
-2 12 -4 5.74 0.19
2 12 4 5.68 0.2
2 12 4 5.83 0.2
-2 12 -4 5.66 0.23
-3 -12 -4 2.57 0.1
-3 -12 -4 2.6 0.11
3 -12 4 2.6 0.1
3 -12 4 2.62 0.12
3 -12 4 2.41 0.13
3 -12 4 2.64 0.1
-3 12 -4 2.49 0.14
3 12 4 2.81 0.12
-3 12 -4 2.84 0.12
-3 12 -4 2.62 0.12
-3 12 -4 2.48 0.11
3 12 4 2.75 0.12
4 -12 4 0.05 0.02
4 -12 4 -0.01 0.03
-4 -12 -4 0.07 0.02
4 -12 4 0.03 0.08
-4 -12 -4 0.03 0.02
-4 12 -4 0.03 0.04
4 12 4 0.07 0.03
-4 12 -4 0.07 0.04
-4 12 -4 0.07 0.03
-4 12 -4 0.03 0.02
5 -12 4 2.88 0.12
-5 -12 -4 2.71 0.12
5 -12 4 2.95 0.11
-5 -12 -4 2.9 0.11
5 12 4 2.86 0.13
-5 12 -4 2.73 0.13
5 12 4 2.96 0.14
-5 12 -4 2.64 0.12
5 12 4 2.9 0.13
-5 12 -4 2.83 0.14
-6 -12 -4 0.95 0.08
-6 -12 -4 0.97 0.07
6 -12 4 0.96 0.08
6 -12 4 0.88 0.07
-6 12 -4 0.84 0.09
6 12 4 0.78 0.09
-6 12 -4 1.04 0.11
-6 12 -4 0.9 0.1
6 12 4 1 0.09
-7 -12 -4 0.59 0.06
-7 -12 -4 0.56 0.07
-7 -12 -4 0.57 0.08
7 -12 4 0.52 0.06
7 -12 4 0.61 0.07
-7 12 -4 0.61 0.08
-7 12 -4 0.34 0.12
7 12 4 0.51 0.08
-8 -12 -4 0.24 0.07
-8 -12 -4 0.17 0.06
8 12 4 0.29 0.08
-8 12 -4 0.29 0.09
-8 -13 4 0.26 0.06
8 13 -4 0.24 0.08
-7 -13 4 0.06 0.02
7 -13 -4 0.02 0.02
-7 -13 4 0.04 0.02
-7 13 4 0.01 0.04
-7 13 4 0.08 0.03
-7 13 4 0.02 0.03
6 -13 -4 0.4 0.06
6 -13 -4 0.44 0.08
-6 13 4 0.39 0.07
-6 13 4 0.44 0.07
-6 13 4 0.35 0.07
6 13 -4 0.47 0.09
5 -13 -4 0.68 0.06
-5 -13 4 0.69 0.06
5 -13 -4 0.57 0.09
-5 13 4 0.61 0.08
5 13 -4 0.68 0.1
-5 13 4 0.64 0.08
5 13 -4 0.68 0.09
-5 13 4 0.64 0.08
-5 13 4 0.64 0.08
-4 -13 4 1.18 0.08
4 -13 -4 1.05 0.07
4 -13 -4 1.22 0.1
-4 13 4 1.08 0.09
4 13 -4 1.24 0.11
-4 13 4 1.21 0.1
-4 13 4 1.28 0.1
3 -13 -4 1.95 0.08
-3 -13 4 2.07 0.09
-3 -13 4 2.08 0.1
-3 -13 4 2.01 0.1
-3 13 4 2.06 0.1
3 13 -4 2.16 0.11
-3 13 4 2.1 0.1
3 13 -4 1.91 0.1
3 13 -4 1.95 0.11
-3 13 4 2.12 0.1
-3 13 4 2.18 0.11
-3 13 4 2.19 0.11
-2 -13 4 6.7 0.25
-2 -13 4 6.72 0.23
-2 -13 4 7.04 0.22
2 13 -4 7.03 0.26
-2 13 4 7.05 0.24
2 13 -4 6.83 0.24
2 13 -4 6.83 0.25
2 13 -4 7.2 0.25
-2 13 4 7.27 0.24
-2 13 4 7.35 0.23
-2 13 4 7.47 0.24
-1 -13 4 2.53 0.1
-1 -13 4 2.54 0.11
-1 -13 4 2.36 0.11
-1 13 4 2.41 0.11
-1 13 4 2.58 0.11
-1 13 4 2.55 0.11
1 13 -4 2.56 0.11
-1 13 4 2.56 0.11
-1 13 4 2.41 0.12
-1 13 4 2.37 0.11
1 13 -4 2.51 0.13
-1 13 4 2.6 0.11
1 13 -4 2.69 0.11
1 13 -4 2.38 0.12
0 -13 4 3.29 0.12
0 -13 4 3.41 0.11
0 -13 4 3.25 0.13
0 -13 4 3.32 0.13
0 13 4 3.02 0.13
0 13 -4 3.07 0.13
0 13 4 3.42 0.13
0 13 -4 3.13 0.13
0 13 -4 2.98 0.15
0 13 4 3.09 0.13
0 13 4 3.41 0.13
0 13 -4 3.32 0.12
0 13 -4 3.39 0.13
0 13 4 3.31 0.13
0 13 -4 3.16 0.15
1 -13 4 0.29 0.04
1 -13 4 0.36 0.06
1 13 4 0.2 0.06
-1 13 -4 0.27 0.05
-1 13 -4 0.34 0.08
1 13 4 0.22 0.06
-1 13 -4 0.39 0.05
-1 13 -4 0.24 0.06
-1 13 -4 0.2 0.07
1 13 4 0.17 0.05
-1 13 -4 0.33 0.06
1 13 4 0.37 0.05
-2 -13 -4 0.17 0.05
2 -13 4 0.1 0.02
2 -13 4 0.21 0.06
-2 13 -4 0.1 0.03
2 13 4 0.16 0.05
-2 13 -4 0.1 0.03
2 13 4 0.08 0.02
2 13 4 0.13 0.04
2 13 4 0.22 0.06
-2 13 -4 0.2 0.05
2 13 4 0.11 0.02
-3 -13 -4 0.78 0.06
3 -13 4 0.81 0.08
3 -13 4 0.81 0.06
-3 -13 -4 0.83 0.07
3 -13 4 0.78 0.05
3 13 4 0.8 0.07
3 13 4 0.86 0.08
-3 13 -4 0.76 0.11
3 13 4 0.73 0.08
-3 13 -4 0.73 0.08
-3 13 -4 0.75 0.07
-3 13 -4 0.76 0.06
-3 13 -4 0.61 0.09
4 -13 4 1.42 0.08
-4 -13 -4 1.22 0.07
4 -13 4 1.47 0.07
4 -13 4 1.3 0.11
-4 13 -4 1.4 0.09
4 13 4 1.43 0.1
-4 13 -4 1.5 0.1
4 13 4 1.49 0.1
4 13 4 1.37 0.1
-4 13 -4 1.3 0.09
5 -13 4 2.5 0.1
-5 -13 -4 2.59 0.11
5 -13 4 2.42 0.11
-5 -13 -4 2.62 0.11
-5 13 -4 2.6 0.13
-5 13 -4 2.54 0.12
-5 13 -4 2.75 0.17
-5 13 -4 2.6 0.13
5 13 4 2.55 0.12
5 13 4 2.66 0.13
5 13 4 2.56 0.13
6 -13 4 0.48 0.06
6 -13 4 0.51 0.07
-6 -13 -4 0.55 0.06
6 13 4 0.54 0.07
-6 13 -4 0.71 0.1
-6 13 -4 0.59 0.09
-6 13 -4 0.51 0.08
7 -13 4 1.21 0.07
-7 -13 -4 1.2 0.08
7 13 4 1.29 0.09
6 -14 -4 0.01 0.04
-6 -14 4 -0.01 0.03
6 -14 -4 0.01 0.02
-6 14 4 0.07 0.04
6 14 -4 0.11 0.05
-6 14 4 0.03 0.03
-6 14 4 0.07 0.04
-5 -14 4 3.54 0.14
5 -14 -4 3.49 0.15
5 -14 -4 3.4 0.13
-5 -14 4 3.56 0.15
-5 14 4 3.71 0.16
-5 14 4 3.56 0.15
5 14 -4 3.43 0.16
5 14 -4 3.86 0.16
-5 14 4 3.7 0.15
-4 -14 4 0.51 0.07
-4 -14 4 0.4 0.06
4 -14 -4 0.32 0.06
-4 14 4 0.43 0.07
-4 14 4 0.54 0.08
4 14 -4 0.38 0.08
-4 14 4 0.43 0.07
4 14 -4 0.43 0.08
-3 -14 4 1.67 0.09
-3 -14 4 1.59 0.08
3 14 -4 1.44 0.11
-3 14 4 1.5 0.1
3 14 -4 1.44 0.1
3 14 -4 1.54 0.11
3 14 -4 1.46 0.1
-3 14 4 1.58 0.1
-2 -14 4 0.09 0.02
-2 -14 4 0.04 0.03
-2 14 4 0.13 0.03
2 14 -4 0.1 0.03
-2 14 4 0.07 0.02
2 14 -4 0.09 0.03
2 14 -4 0.09 0.02
-2 14 4 0.13 0.04
2 14 -4 0.21 0.06
-2 14 4 0.18 0.06
-1 -14 4 8.55 0.26
-1 -14 4 8.62 0.31
-1 -14 4 8.74 0.28
-1 -14 4 8.77 0.3
-1 14 4 8.74 0.28
-1 14 4 8.76 0.3
1 14 -4 8.99 0.3
1 14 -4 9.28 0.31
-1 14 4 8.65 0.29
-1 14 4 8.69 0.28
-1 14 4 9.28 0.29
-1 14 4 8.37 0.3
1 14 -4 8.22 0.32
1 14 -4 8.67 0.29
1 14 -4 8.78 0.3
-1 14 4 8.61 0.28
0 -14 4 1.09 0.07
0 -14 4 1.12 0.08
0 14 4 1 0.08
0 14 -4 1.36 0.12
0 14 4 1.25 0.08
0 14 4 1.09 0.08
0 14 -4 1.26 0.07
0 14 4 1.22 0.08
0 14 -4 1.01 0.11
0 14 -4 1.17 0.08
0 14 4 1.18 0.09
0 14 -4 1.03 0.08
0 14 4 1.31 0.09
0 14 -4 1.28 0.09
1 -14 4 0.62 0.06
1 -14 4 0.72 0.07
1 -14 4 0.68 0.05
1 -14 4 0.75 0.07
1 -14 4 0.53 0.08
-1 14 -4 0.64 0.07
-1 14 -4 0.62 0.07
-1 14 -4 0.5 0.09
1 14 4 0.51 0.07
-1 14 -4 0.61 0.06
1 14 4 0.58 0.07
1 14 4 0.71 0.08
-1 14 -4 0.52 0.06
1 14 4 0.68 0.07
-2 -14 -4 2.67 0.1
2 -14 4 2.79 0.11
2 -14 4 2.91 0.1
2 -14 4 2.5 0.14
2 -14 4 2.79 0.13
2 14 4 2.69 0.12
-2 14 -4 2.94 0.15
-2 14 -4 2.6 0.12
2 14 4 2.89 0.12
-2 14 -4 2.82 0.13
2 14 4 2.84 0.13
-2 14 -4 2.71 0.12
2 14 4 2.56 0.12
-2 14 -4 2.81 0.13
2 14 4 2.73 0.14
3 -14 4 0.54 0.11
-3 -14 -4 0.73 0.06
3 -14 4 0.74 0.09
-3 -14 -4 0.56 0.08
3 14 4 0.7 0.08
-3 14 -4 0.7 0.08
-3 14 -4 0.47 0.12
-3 14 -4 0.56 0.07
3 14 4 0.69 0.08
-4 -14 -4 2.39 0.12
4 -14 4 2.5 0.1
-4 -14 -4 2.38 0.1
4 -14 4 2.43 0.14
4 -14 4 2.7 0.11
4 14 4 2.49 0.13
4 14 4 2.54 0.13
4 14 4 2.65 0.12
-4 14 -4 2.52 0.12
-4 14 -4 2.49 0.13
-4 14 -4 2.64 0.13
-4 14 -4 2.46 0.14
-5 -14 -4 0.87 0.08
5 -14 4 0.73 0.06
5 -14 4 0.8 0.07
-5 -14 -4 0.83 0.07
5 14 4 0.79 0.08
5 14 4 0.7 0.09
-5 14 -4 0.85 0.09
5 14 4 0.78 0.08
-5 14 -4 0.82 0.09
-5 14 -4 0.83 0.08
-6 -14 -4 1.73 0.08
-6 -14 -4 1.6 0.1
6 -14 4 1.64 0.09
6 -14 4 1.51 0.08
6 14 4 1.45 0.1
-6 14 -4 1.62 0.11
-6 14 -4 1.61 0.1
-6 14 -4 1.4 0.11
6 14 4 1.35 0.12
7 -14 4 0.63 0.07
-7 -14 -4 0.5 0.08
-7 -14 -4 0.4 0.07
-7 -14 -4 0.61 0.05
7 -14 4 0.48 0.05
-7 14 -4 0.45 0.08
7 14 4 0.46 0.07
-7 -15 4 0.46 0.07
-7 -15 4 0.45 0.07
7 -15 -4 0.59 0.05
-7 15 4 0.56 0.07
-7 15 4 0.64 0.07
7 15 -4 0.59 0.09
-6 -15 4 0.78 0.08
6 -15 -4 0.71 0.06
-6 15 4 0.83 0.08
-6 15 4 0.83 0.07
6 15 -4 0.93 0.09
-6 15 4 0.89 0.09
-5 -15 4 0.2 0.05
5 -15 -4 0.12 0.02
-5 15 4 0.1 0.03
5 15 -4 0.11 0.04
-5 15 4 0.2 0.07
-5 15 4 0.25 0.07
-4 -15 4 3.97 0.14
-4 -15 4 3.92 0.15
4 -15 -4 3.65 0.13
4 15 -4 3.79 0.17
-4 15 4 3.71 0.15
4 15 -4 3.55 0.16
-4 15 4 3.74 0.16
-4 15 4 3.68 0.15
4 15 -4 3.71 0.16
-4 15 4 3.61 0.16
-3 -15 4 2.79 0.13
-3 -15 4 2.72 0.11
3 15 -4 3.04 0.14
-3 15 4 2.72 0.13
-3 15 4 2.61 0.13
-3 15 4 2.91 0.13
3 15 -4 2.75 0.13
-3 15 4 2.92 0.13
-3 15 4 2.57 0.13
-2 -15 4 0.23 0.06
-2 -15 4 0.35 0.05
-2 -15 4 0.34 0.08
-2 15 4 0.27 0.07
-2 15 4 0.28 0.07
-2 15 4 0.3 0.07
-1 -15 4 3.71 0.13
-1 -15 4 3.85 0.14
-1 -15 4 3.57 0.16
-1 -15 4 3.97 0.16
-1 15 4 3.99 0.16
1 15 -4 3.75 0.16
-1 15 4 3.51 0.15
-1 15 4 3.81 0.16
-1 15 4 3.72 0.15
-1 15 4 3.55 0.15
1 15 -4 3.82 0.16
-1 15 4 3.73 0.15
-1 15 4 3.91 0.15
1 15 -4 3.68 0.15
0 -15 4 1.18 0.08
0 -15 4 1.32 0.1
0 -15 4 1.37 0.06
0 -15 4 1.32 0.1
0 15 4 1.32 0.09
0 15 4 1.44 0.09
0 15 -4 1.21 0.14
0 15 4 1.22 0.1
0 15 4 1.33 0.09
0 15 -4 1.3 0.08
0 15 -4 1.31 0.09
1 -15 4 2.61 0.11
1 -15 4 2.61 0.14
1 -15 4 2.91 0.1
1 15 4 3 0.12
-1 15 -4 2.59 0.12
1 15 4 2.64 0.13
-1 15 -4 2.74 0.13
1 15 4 2.88 0.12
-1 15 -4 2.83 0.13
-1 15 -4 2.7 0.12
-1 15 -4 2.65 0.17
1 15 4 2.84 0.13
-2 -15 -4 1.11 0.07
2 -15 4 0.87 0.11
2 -15 4 1.02 0.09
2 -15 4 0.91 0.07
2 15 4 1.18 0.1
-2 15 -4 0.91 0.13
-2 15 -4 0.99 0.08
-3 -15 -4 2 0.09
3 -15 4 2.12 0.1
3 -15 4 2.09 0.09
3 15 4 1.93 0.11
-3 15 -4 1.89 0.1
3 15 4 1.92 0.11
3 15 4 2.18 0.11
-3 15 -4 1.84 0.11
-3 15 -4 1.79 0.12
-3 15 -4 1.97 0.11
4 -15 4 0.03 0.02
4 -15 4 -0.04 0.04
4 -15 4 0.08 0.03
-4 -15 -4 0.04 0.03
-4 15 -4 0.08 0.04
4 15 4 0.04 0.03
-4 15 -4 0.13 0.05
-4 15 -4 -0.02 0.03
4 15 4 0 0.03
4 15 4 0.04 0.03
-5 -15 -4 1.9 0.11
-5 -15 -4 1.89 0.09
5 -15 4 1.66 0.08
5 15 4 1.78 0.12
-5 15 -4 1.69 0.11
-5 15 -4 1.7 0.1
-5 15 -4 1.75 0.11
5 15 4 1.71 0.1
-6 -15 -4 0.03 0.02
-6 -15 -4 -0.03 0.03
6 -15 4 0 0.02
-6 15 -4 0 0.02
6 15 4 0 0.03
6 15 4 0.08 0.05
-7 -15 -4 0.74 0.08
-7 -15 -4 0.88 0.06
7 -15 4 0.85 0.07
7 -15 4 0.74 0.06
7 15 4 0.89 0.08
-7 -16 4 0.07 0.02
-7 -16 4 0.08 0.03
-7 16 4 0.14 0.04
-6 -16 4 0.19 0.06
6 16 -4 0.31 0.09
-6 16 4 0.26 0.06
-6 16 4 0.32 0.06
5 -16 -4 1.66 0.08
-5 -16 4 1.76 0.09
-5 16 4 1.84 0.11
-5 16 4 1.59 0.1
5 16 -4 1.45 0.11
5 16 -4 1.62 0.11
-5 16 4 1.78 0.1
-4 -16 4 0.2 0.05
4 -16 -4 0.25 0.06
-4 16 4 0.26 0.07
-4 16 4 0.29 0.08
4 16 -4 0.23 0.07
4 16 -4 0.28 0.08
-4 16 4 0.25 0.07
-3 -16 4 0.86 0.06
-3 -16 4 0.99 0.09
-3 16 4 0.9 0.08
-3 16 4 0.96 0.09
-3 16 4 0.77 0.09
3 16 -4 0.84 0.09
-3 16 4 0.88 0.08
3 16 -4 0.96 0.09
-3 16 4 0.91 0.08
-2 -16 4 0.38 0.07
-2 -16 4 0.28 0.05
2 16 -4 0.22 0.04
-2 16 4 0.29 0.07
-2 16 4 0.15 0.03
-2 16 4 0.22 0.07
2 16 -4 0.23 0.07
-2 16 4 0.31 0.07
2 16 -4 0.32 0.08
-1 -16 4 1.64 0.1
-1 -16 4 1.56 0.13
1 16 -4 1.91 0.11
-1 16 4 1.67 0.11
1 16 -4 1.67 0.1
-1 16 4 1.81 0.12
1 16 -4 1.88 0.11
-1 16 4 2.02 0.11
-1 16 4 1.68 0.1
0 -16 4 0.58 0.13
0 16 4 0.6 0.08
0 16 4 0.55 0.09
0 16 -4 0.7 0.18
0 16 -4 0.86 0.09
0 16 -4 0.63 0.07
0 16 4 0.85 0.1
0 16 -4 0.81 0.08
1 -16 4 0.16 0.05
1 -16 4 -0.02 0.07
1 16 4 0.21 0.07
1 16 4 0.08 0.03
-1 16 -4 0.06 0.02
-1 16 -4 0.1 0.04
-1 16 -4 0.13 0.07
1 16 4 0.09 0.03
-1 16 -4 0.06 0.03
2 -16 4 1.73 0.09
-2 -16 -4 1.75 0.09
2 -16 4 1.8 0.08
-2 16 -4 1.62 0.09
-2 16 -4 1.74 0.11
2 16 4 1.68 0.11
-2 16 -4 1.67 0.11
-2 16 -4 1.78 0.1
2 16 4 1.67 0.1
2 16 4 1.72 0.1
3 -16 4 0.44 0.07
3 -16 4 0.57 0.05
3 -16 4 0.36 0.1
-3 -16 -4 0.38 0.06
3 16 4 0.5 0.08
3 16 4 0.42 0.08
-3 16 -4 0.51 0.1
3 16 4 0.49 0.08
-3 16 -4 0.32 0.08
-3 16 -4 0.57 0.07
-3 16 -4 0.54 0.07
4 -16 4 -0.01 0.05
4 -16 4 0.22 0.07
-4 16 -4 0.09 0.05
-4 16 -4 0.11 0.04
-4 16 -4 0.07 0.02
4 16 4 0.12 0.03
4 16 4 0.1 0.04
4 16 4 0.09 0.03
-4 16 -4 0.12 0.04
-5 -16 -4 1.07 0.07
5 -16 4 1.08 0.08
5 -16 4 0.98 0.06
-5 16 -4 1.14 0.09
-5 16 -4 1.06 0.09
-5 16 -4 1.06 0.09
5 16 4 1.22 0.12
5 16 4 0.91 0.08
5 16 4 0.96 0.08
6 -16 4 0.83 0.08
-6 -16 -4 0.93 0.06
6 -16 4 0.82 0.05
-6 -16 -4 0.89 0.12
-6 16 -4 0.82 0.09
6 16 4 0.8 0.08
-6 16 -4 0.69 0.08
6 -17 -4 0.06 0.02
-6 -17 4 0.09 0.03
-6 -17 4 0.03 0.02
-6 17 4 0.06 0.04
-6 17 4 0.01 0.03
-6 17 4 0.02 0.03
5 -17 -4 0.01 0.02
-5 -17 4 0.01 0.02
5 17 -4 0.06 0.04
-5 17 4 0.03 0.03
-5 17 4 0.08 0.04
-5 17 4 0.08 0.04
4 -17 -4 1.8 0.09
-4 -17 4 1.95 0.09
-4 17 4 1.88 0.11
-4 17 4 1.98 0.11
-4 17 4 1.93 0.1
4 17 -4 1.85 0.12
-4 17 4 1.77 0.11
4 17 -4 1.77 0.11
-3 -17 4 0.75 0.06
-3 -17 4 0.95 0.09
-3 17 4 0.91 0.08
-3 17 4 0.75 0.09
-3 17 4 0.87 0.09
3 17 -4 0.82 0.09
3 17 -4 0.91 0.09
-3 17 4 0.97 0.08
-2 -17 4 1.2 0.07
-2 -17 4 1.26 0.1
-2 17 4 1.19 0.09
-2 17 4 1.1 0.09
2 17 -4 1.12 0.09
-2 17 4 1.12 0.09
2 17 -4 1.18 0.1
2 17 -4 1.09 0.1
-2 17 4 1.06 0.09
-2 17 4 1.15 0.09
-1 -17 4 0.14 0.04
-1 17 4 0.12 0.04
-1 17 4 0.14 0.04
1 17 -4 0.08 0.03
-1 17 4 0.13 0.04
-1 17 4 0.05 0.03
1 17 -4 0.12 0.04
-1 17 4 0.08 0.04
-1 17 4 0.05 0.03
-1 17 4 0.09 0.03
0 -17 4 0.96 0.09
0 -17 4 0.91 0.06
0 17 -4 0.82 0.09
0 17 4 0.73 0.09
0 17 4 0.82 0.08
0 17 4 0.71 0.09
0 17 4 0.84 0.08
0 17 4 0.79 0.1
0 17 -4 0.87 0.09
0 17 -4 0.88 0.08
0 17 4 0.98 0.09
1 -17 4 2.98 0.15
1 -17 4 3.05 0.11
1 -17 4 3.17 0.13
1 17 4 3.02 0.14
-1 17 -4 3.05 0.13
1 17 4 3.02 0.14
1 17 4 2.71 0.15
-1 17 -4 3.08 0.14
1 17 4 2.9 0.14
-1 17 -4 3.25 0.14
-1 17 -4 3.1 0.15
1 17 4 2.94 0.14
2 -17 4 1.31 0.09
2 -17 4 1.37 0.12
-2 -17 -4 1.3 0.09
2 -17 4 1.32 0.07
-2 17 -4 1.39 0.09
2 17 4 1.39 0.1
-2 17 -4 1.31 0.1
2 17 4 1.24 0.1
-2 17 -4 1.34 0.11
-2 17 -4 1.45 0.09
2 17 4 1.11 0.1
2 17 4 1.33 0.1
3 -17 4 0.56 0.12
3 -17 4 0.82 0.06
3 -17 4 0.91 0.08
3 17 4 0.73 0.1
3 17 4 0.86 0.08
3 17 4 0.8 0.08
-3 17 -4 0.95 0.11
-3 17 -4 0.8 0.08
-3 17 -4 0.75 0.09
-3 17 -4 0.78 0.08
-4 -17 -4 2 0.09
4 -17 4 1.96 0.08
4 -17 4 1.96 0.1
4 17 4 2.09 0.11
-4 17 -4 2.04 0.11
-4 17 -4 1.9 0.11
4 17 4 1.76 0.13
-4 17 -4 2.04 0.1
4 17 4 2 0.11
-4 17 -4 1.81 0.16
5 -17 4 1.41 0.07
5 -17 4 1.22 0.09
5 17 4 1.42 0.09
5 17 4 1.26 0.08
-5 17 -4 1.56 0.1
-5 17 -4 1.4 0.1
6 -17 4 -0.01 0.04
6 -17 4 0.01 0.02
-6 17 -4 0.08 0.05
-6 17 -4 0.03 0.03
6 17 4 0.01 0.02
-6 -18 4 0.67 0.06
-6 -18 4 0.51 0.09
-6 18 4 0.85 0.09
-6 18 4 0.7 0.06
5 -18 -4 0.5 0.07
5 18 -4 0.66 0.09
-5 18 4 0.53 0.07
-5 18 4 0.61 0.07
-5 18 4 0.53 0.09
4 -18 -4 0.95 0.08
-4 -18 4 1.08 0.07
-4 18 4 0.84 0.08
4 18 -4 0.9 0.09
4 18 -4 0.99 0.09
-4 18 4 0.98 0.1
-4 18 4 0.99 0.08
-3 -18 4 0.5 0.06
-3 18 4 0.39 0.09
3 18 -4 0.44 0.08
-3 18 4 0.51 0.08
3 18 -4 0.47 0.08
-3 18 4 0.39 0.07
-3 18 4 0.35 0.08
-2 -18 4 1.78 0.08
-2 -18 4 1.83 0.12
2 18 -4 1.72 0.11
2 18 -4 1.93 0.11
-2 18 4 1.65 0.11
-2 18 4 1.98 0.12
-2 18 4 1.78 0.11
-2 18 4 1.75 0.1
2 18 -4 1.72 0.11
-2 18 4 1.74 0.11
-1 -18 4 0.91 0.06
-1 -18 4 1.08 0.1
1 18 -4 0.73 0.09
-1 18 4 0.89 0.09
-1 18 4 0.92 0.09
-1 18 4 0.92 0.11
-1 18 4 0.82 0.09
-1 18 4 0.8 0.1
-1 18 4 0.75 0.09
1 18 -4 0.89 0.09
1 18 -4 0.85 0.09
0 -18 4 0.2 0.04
0 18 -4 0.08 0.03
0 18 -4 0.14 0.04
0 18 4 0.1 0.03
0 18 4 0.12 0.04
0 18 4 0.13 0.03
0 18 4 0.14 0.03
1 -18 4 2.31 0.09
1 -18 4 2.47 0.12
1 -18 4 2.02 0.13
-1 18 -4 2.17 0.12
-1 18 -4 2.14 0.12
-1 18 -4 2.28 0.12
1 18 4 2.25 0.12
1 18 4 2.14 0.12
1 18 4 2.23 0.13
1 18 4 2.11 0.12
2 -18 4 2.97 0.14
2 -18 4 2.95 0.11
-2 18 -4 2.93 0.12
-2 18 -4 3.03 0.14
2 18 4 2.86 0.13
2 18 4 2.89 0.14
2 18 4 3.05 0.15
-2 18 -4 3.02 0.15
-2 18 -4 2.92 0.14
3 -18 4 1.36 0.07
-3 -18 -4 1.24 0.09
3 -18 4 1.22 0.1
-3 18 -4 1.35 0.09
3 18 4 1.37 0.1
3 18 4 1.37 0.09
-3 18 -4 1.39 0.1
-3 18 -4 1.38 0.12
3 18 4 1.31 0.12
4 -18 4 0.18 0.05
-4 -18 -4 0.24 0.06
4 18 4 0.14 0.03
4 18 4 0.26 0.07
-4 18 -4 0.22 0.08
-4 18 -4 0.16 0.04
-5 -18 -4 0.42 0.05
5 -18 4 0.42 0.1
5 18 4 0.44 0.07
-5 18 -4 0.35 0.08
5 -19 -4 0.08 0.03
-5 -19 4 0.1 0.04
5 19 -4 0.1 0.04
-5 19 4 0.02 0.04
-5 19 4 0.03 0.02
-4 19 4 0.21 0.05
-4 19 4 0.25 0.06
-4 19 4 0.24 0.07
-3 -19 4 1.2 0.07
3 19 -4 1.17 0.09
3 19 -4 1.21 0.09
-3 19 4 1.16 0.11
-3 19 4 1.08 0.08
-3 19 4 0.96 0.1
-3 19 4 1.2 0.09
-2 -19 4 0.66 0.06
2 19 -4 0.83 0.09
-2 19 4 0.84 0.08
-2 19 4 0.76 0.1
-2 19 4 0.89 0.09
-2 19 4 0.73 0.09
-2 19 4 0.65 0.1
2 19 -4 0.74 0.09
-1 -19 4 0.19 0.05
-1 19 4 0.09 0.04
-1 19 4 0.14 0.05
-1 19 4 0.11 0.03
-1 19 4 0.3 0.09
1 19 -4 0.11 0.03
0 -19 4 0.03 0.02
0 19 -4 -0.01 0.03
0 19 -4 0.02 0.02
0 19 -4 0.03 0.03
0 19 4 0.01 0.03
0 19 4 0 0.04
0 19 4 0.06 0.03
0 19 4 0.02 0.04
1 -19 4 1.25 0.14
1 -19 4 1.44 0.07
1 19 4 1.17 0.12
-1 19 -4 1.3 0.11
1 19 4 1.37 0.09
1 19 4 1.29 0.1
1 19 4 1.53 0.12
-1 19 -4 1.6 0.1
2 -19 4 0.76 0.06
2 19 4 0.77 0.12
2 19 4 0.82 0.08
-2 19 -4 0.8 0.09
2 19 4 0.93 0.09
-2 19 -4 0.81 0.08
-2 19 -4 0.86 0.11
3 -19 4 1.05 0.06
3 19 4 1.06 0.08
-3 19 -4 1.07 0.09
-3 19 -4 0.9 0.15
-3 19 -4 1.11 0.09
3 19 4 0.94 0.09
5 -19 4 0.04 0.02
-5 -19 -4 0.02 0.02
-5 19 -4 0.02 0.03
5 19 4 0.02 0.03
-5 20 4 0.19 0.03
-4 20 4 0.19 0.06
4 20 -4 0.17 0.04
4 20 -4 0.12 0.02
-4 20 4 0.24 0.07
-3 -20 4 0.57 0.05
-3 20 4 0.59 0.08
-3 20 4 0.55 0.11
3 20 -4 0.41 0.07
3 20 -4 0.63 0.08
-2 -20 4 0.63 0.06
-2 20 4 0.49 0.08
2 20 -4 0.54 0.08
2 20 -4 0.41 0.08
-2 20 4 0.45 0.1
-2 20 4 0.54 0.09
-1 -20 4 0.48 0.05
-1 20 4 0.39 0.11
1 20 -4 0.45 0.08
-1 20 4 0.33 0.1
-1 20 4 0.5 0.1
1 20 -4 0.33 0.08
-1 20 4 0.36 0.1
1 20 -4 0.37 0.07
0 -20 4 2.05 0.09
0 20 -4 1.79 0.12
0 20 -4 2.03 0.12
0 20 4 1.99 0.13
0 20 4 2.08 0.12
0 20 4 1.74 0.13
0 20 -4 1.92 0.11
1 -20 4 0.63 0.06
1 20 4 0.48 0.08
-1 20 -4 0.68 0.08
1 20 4 0.6 0.08
-1 20 -4 0.53 0.1
-1 20 -4 0.51 0.07
2 -20 4 0.06 0.02
-2 20 -4 -0.05 0.04
2 20 4 0.06 0.03
-2 20 -4 0.03 0.03
-2 20 -4 0 0.02
2 20 4 0.06 0.03
-3 -20 -4 0.49 0.1
-3 20 -4 0.44 0.09
4 -20 4 0.27 0.04
-4 20 -4 0.29 0.07
4 20 4 0.18 0.03
-4 20 -4 0.22 0.07
4 20 4 0.18 0.03
-4 -21 4 0.01 0.02
-4 21 4 -0.07 0.03
-3 -21 4 0.21 0.05
3 21 -4 0.23 0.04
-3 21 4 0.3 0.08
-3 21 4 0.26 0.04
-2 -21 4 0.73 0.06
-2 21 4 0.62 0.09
-2 21 4 0.51 0.09
1 21 -4 0.04 0.03
-1 21 4 0.08 0.05
1 21 -4 0.2 0.07
1 21 -4 0.08 0.03
0 21 -4 0.59 0.07
0 21 4 0.58 0.11
0 21 -4 0.46 0.07
0 21 -4 0.39 0.07
-1 21 -4 0.25 0.07
1 21 4 0.51 0.09
-1 21 -4 0.36 0.07
2 21 4 0.08 0.03
-2 21 -4 -0.01 0.05
3 -21 4 0.16 0.05
-3 21 -4 0.14 0.04
-3 21 -4 0.23 0.07
4 -21 4 0.01 0.02
-4 21 -4 -0.03 0.04
-4 21 -4 -0.03 0.03
-3 -22 4 0.01 0.02
3 22 -4 -0.04 0.03
3 22 -4 -0.01 0.02
-2 -22 4 0 0.02
2 22 -4 -0.03 0.03
2 22 -4 0.02 0.02
-1 -22 4 0.52 0.06
1 22 -4 0.45 0.07
1 22 -4 0.51 0.07
0 22 -4 0.19 0.06
0 22 -4 0.12 0.03
0 22 -4 0.06 0.03
1 -22 4 1.07 0.06
1 22 4 0.95 0.14
1 22 4 0.8 0.11
-1 22 -4 0.87 0.07
2 -22 4 0.7 0.06
2 22 4 0.79 0.11
-2 22 -4 0.81 0.07
-2 22 -4 0.58 0.08
-3 22 -4 0.45 0.07
-3 22 -4 0.36 0.08
1 23 -4 0.28 0.07
1 23 -4 0.26 0.07
0 23 -4 0.01 0.02
-1 23 -4 0.01 0.02
9 0 -5 1.83 0.1
-8 0 5 6.09 0.22
8 0 -5 5.9 0.21
8 0 -5 6.04 0.22
-7 0 5 3.32 0.14
7 0 -5 3.23 0.13
-7 0 5 3.31 0.15
-7 0 5 2.93 0.15
7 0 -5 2.9 0.14
7 0 -5 3.19 0.14
-6 0 5 0.88 0.08
6 0 -5 0.91 0.07
6 0 -5 0.85 0.08
6 0 -5 0.91 0.07
6 0 -5 0.99 0.1
-6 0 5 0.89 0.08
5 0 -5 18.85 0.56
-5 0 5 18.28 0.58
5 0 -5 19.29 0.6
5 0 -5 20.19 0.58
5 0 -5 18.54 0.61
-4 0 5 14.32 0.42
4 0 -5 13.65 0.4
4 0 -5 13.82 0.42
4 0 -5 13.66 0.44
-4 0 5 13.63 0.42
4 0 -5 12.92 0.43
-4 0 5 13.63 0.42
-4 0 5 13.05 0.4
3 0 -5 2.11 0.09
-3 0 5 2.19 0.09
3 0 -5 2.39 0.1
3 0 -5 2.44 0.09
-3 0 5 2.19 0.09
2 0 -5 21.68 0.75
-2 0 5 23.46 0.71
-2 0 5 23.05 0.71
-2 0 5 22.36 0.68
-2 0 5 22.57 0.67
2 0 -5 22.86 0.7
-1 0 5 23.01 0.7
1 0 -5 23.48 0.74
-1 0 5 21.63 0.66
-1 0 5 22.56 0.67
-1 0 5 22.78 0.7
-1 0 5 21.16 0.67
0 0 5 13.27 0.41
0 0 -5 14.14 0.45
0 0 -5 12.95 0.41
0 0 5 13.07 0.4
0 0 5 13.69 0.42
0 0 5 13.17 0.41
0 0 5 14.38 0.43
-1 0 -5 84.66 2.44
1 0 5 81.97 2.48
1 0 5 86.56 2.62
1 0 5 81.61 2.37
-1 0 -5 82.16 2.73
1 0 5 86.86 2.42
-2 0 -5 10.08 0.31
-3 0 -5 42.18 1.23
3 0 5 41.91 1.33
3 0 5 42.28 1.3
-3 0 -5 42.13 1.2
-3 0 -5 41.01 1.24
3 0 5 43.83 1.23
-3 0 -5 42.35 1.39
4 0 5 6.8 0.24
-4 0 -5 6.85 0.21
4 0 5 6.95 0.22
-4 0 -5 6.33 0.25
4 0 5 7.05 0.24
-4 0 -5 6.69 0.22
-5 0 -5 0.14 0.04
-5 0 -5 0.03 0.02
-5 0 -5 0.05 0.02
5 0 5 0.04 0.05
5 0 5 0.04 0.03
-5 0 -5 -0.02 0.03
6 0 5 11.79 0.38
-6 0 -5 11.86 0.37
6 0 5 12.24 0.41
-7 0 -5 2.67 0.12
-7 0 -5 2.84 0.14
7 0 5 2.46 0.16
-7 0 -5 2.69 0.14
7 0 5 2.73 0.13
-8 0 -5 0.69 0.08
-8 0 -5 0.99 0.1
9 -1 -5 0.94 0.08
9 -1 -5 0.83 0.08
9 1 -5 0.9 0.08
-9 1 5 1.05 0.08
9 1 -5 0.91 0.09
-8 -1 5 2.41 0.14
8 -1 -5 2.67 0.13
-8 -1 5 2.68 0.13
8 -1 -5 2.52 0.13
8 1 -5 2.75 0.13
-8 1 5 2.6 0.13
8 1 -5 2.65 0.13
-7 -1 5 4.95 0.2
-7 -1 5 4.56 0.19
7 -1 -5 5.11 0.2
-7 -1 5 4.95 0.19
7 -1 -5 5.04 0.19
7 1 -5 4.82 0.19
-7 1 5 4.67 0.19
7 1 -5 4.74 0.19
-7 1 5 4.6 0.19
-7 1 5 4.74 0.19
-6 -1 5 11.35 0.36
6 -1 -5 11.84 0.35
6 -1 -5 11.12 0.38
6 -1 -5 11.04 0.39
6 -1 -5 11.37 0.37
-6 -1 5 10.82 0.37
6 1 -5 11.91 0.35
6 1 -5 11.41 0.39
-6 1 5 11.51 0.37
6 1 -5 11.57 0.37
6 1 -5 11.67 0.38
5 -1 -5 1.73 0.09
5 -1 -5 1.74 0.08
5 -1 -5 1.76 0.09
5 -1 -5 1.75 0.1
-5 -1 5 1.71 0.09
5 1 -5 1.89 0.1
5 1 -5 1.81 0.09
-5 1 5 1.71 0.09
5 1 -5 1.86 0.08
5 1 -5 1.74 0.09
4 -1 -5 2.51 0.1
-4 -1 5 2.44 0.1
4 -1 -5 2.44 0.1
-4 -1 5 2.49 0.1
4 -1 -5 2.37 0.1
4 -1 -5 2.36 0.09
-4 1 5 2.65 0.1
4 1 -5 2.38 0.09
4 1 -5 2.45 0.11
-4 1 5 2.34 0.09
4 1 -5 2.46 0.1
-4 1 5 2.51 0.11
4 1 -5 2.35 0.1
-4 1 5 2.46 0.1
3 -1 -5 10.85 0.32
-3 -1 5 10.06 0.31
-3 -1 5 10.13 0.33
-3 -1 5 10.54 0.31
-3 -1 5 10.29 0.34
-3 -1 5 10.3 0.33
-3 -1 5 10.52 0.32
3 -1 -5 10.64 0.31
-3 1 5 10.48 0.31
-3 1 5 10.97 0.33
3 1 -5 10.11 0.33
3 1 -5 10.68 0.31
3 1 -5 10.47 0.34
-3 1 5 10.66 0.33
-3 1 5 10.63 0.34
3 1 -5 10.72 0.32
-2 -1 5 5.19 0.16
-2 -1 5 5.21 0.17
2 -1 -5 4.94 0.16
-2 -1 5 4.89 0.17
-2 -1 5 5.37 0.17
-2 1 5 4.86 0.17
-2 1 5 4.98 0.17
2 1 -5 5.4 0.18
-2 1 5 5.34 0.17
-2 1 5 4.91 0.16
-2 1 5 5.35 0.17
2 1 -5 4.9 0.19
-1 -1 5 67.4 1.98
1 -1 -5 66.5 2.2
-1 -1 5 64.89 1.92
-1 -1 5 69.69 2.12
1 -1 -5 66.69 1.96
-1 -1 5 66.73 2.13
-1 -1 5 68.43 1.96
1 -1 -5 68.69 2.07
-1 -1 5 70.91 2.01
-1 1 5 67.53 2.01
-1 1 5 70.45 2.06
-1 1 5 68.03 2.12
-1 1 5 63.99 2
1 1 -5 67.78 1.92
1 1 -5 69.88 2.21
0 -1 5 8.4 0.27
0 -1 5 8.95 0.27
0 -1 5 8.85 0.28
0 -1 5 8.62 0.27
0 -1 5 9 0.28
0 -1 5 8.22 0.26
0 -1 5 8.56 0.27
0 -1 -5 8.96 0.26
0 -1 -5 8.64 0.3
0 1 5 8.91 0.28
0 1 5 8.5 0.27
0 1 5 9.13 0.28
0 1 5 8.29 0.26
0 1 -5 8.8 0.26
0 1 -5 8.3 0.27
0 1 5 9.12 0.27
0 1 -5 8.64 0.28
0 1 -5 9.08 0.3
1 -1 5 27.55 0.79
1 -1 5 27.39 0.87
-1 -1 -5 29.18 0.91
-1 -1 -5 26.83 0.82
1 -1 5 26.71 0.81
1 -1 5 29.01 0.85
1 -1 5 27.5 0.82
1 1 5 27.18 0.85
1 1 5 26.97 0.81
-1 1 -5 28.37 0.79
1 1 5 26.47 0.87
-1 1 -5 28.83 0.82
1 1 5 26.82 0.83
-1 1 -5 28.47 0.91
-2 -1 -5 6.66 0.21
2 -1 5 6.43 0.2
-2 1 -5 6.56 0.21
2 1 5 7.22 0.22
2 1 5 6.75 0.21
-2 1 -5 6.42 0.21
3 -1 5 7.27 0.26
-3 -1 -5 7.8 0.23
3 -1 5 7.67 0.23
-3 -1 -5 7.08 0.27
-3 -1 -5 8 0.24
-3 -1 -5 7.87 0.25
3 -1 5 7.65 0.24
-3 1 -5 8.08 0.24
3 1 5 7.16 0.26
-3 1 -5 7.91 0.23
-3 1 -5 7.5 0.27
-3 1 -5 7.96 0.24
3 1 5 7.37 0.24
3 1 5 7.35 0.25
-4 -1 -5 16.21 0.56
-4 -1 -5 16.59 0.49
4 -1 5 17.06 0.56
-4 -1 -5 17.52 0.58
4 -1 5 17.96 0.54
4 -1 5 16.9 0.49
-4 -1 -5 17.16 0.51
-4 -1 -5 16.15 0.52
4 -1 5 17.24 0.51
4 1 5 17.42 0.54
4 1 5 16.84 0.51
-4 1 -5 17.03 0.57
4 1 5 17.15 0.56
-4 1 -5 16.97 0.51
-4 1 -5 17.12 0.49
-4 1 -5 16.79 0.57
4 1 5 16.03 0.52
5 -1 5 1.8 0.1
5 -1 5 1.93 0.09
-5 -1 -5 1.99 0.09
5 -1 5 1.94 0.1
-5 -1 -5 1.98 0.08
-5 -1 -5 1.86 0.1
-5 -1 -5 1.93 0.1
5 -1 5 2.02 0.11
-5 1 -5 1.7 0.12
5 1 5 1.91 0.09
-5 1 -5 1.85 0.1
-5 1 -5 1.89 0.08
-5 1 -5 1.72 0.09
-5 1 -5 1.76 0.09
5 1 5 1.83 0.11
5 1 5 1.86 0.11
5 1 5 1.82 0.1
6 -1 5 3.67 0.17
-6 -1 -5 3.51 0.15
-6 -1 -5 3.7 0.14
6 1 5 3.72 0.14
6 1 5 3.58 0.17
-7 -1 -5 0.56 0.07
-7 -1 -5 0.68 0.09
7 -1 5 0.68 0.08
7 1 5 0.48 0.09
-7 1 -5 0.79 0.11
-7 1 -5 0.82 0.1
-7 1 -5 0.75 0.08
-8 -1 -5 0.38 0.1
-8 -1 -5 0.5 0.13
-8 -1 -5 0.34 0.07
8 -1 5 0.39 0.09
-8 1 -5 0.56 0.09
-9 -1 -5 0.68 0.05
-9 1 -5 0.86 0.08
9 -2 -5 0.48 0.08
-9 -2 5 0.52 0.08
9 -2 -5 0.39 0.07
9 2 -5 0.47 0.07
-9 2 5 0.43 0.07
9 2 -5 0.44 0.1
-8 -2 5 2.22 0.12
8 -2 -5 1.99 0.12
-8 -2 5 2.14 0.13
8 -2 -5 2.24 0.11
8 -2 -5 2.06 0.12
-8 2 5 2.21 0.11
8 2 -5 2.12 0.12
8 2 -5 2.12 0.11
-7 -2 5 5.07 0.21
7 -2 -5 5.13 0.19
7 -2 -5 5.84 0.21
-7 -2 5 5.69 0.2
7 -2 -5 5.61 0.2
-7 2 5 5.62 0.21
7 2 -5 5.63 0.2
-7 2 5 5.1 0.2
7 2 -5 5.4 0.21
-6 -2 5 8.01 0.27
6 -2 -5 8.07 0.27
-6 -2 5 8.65 0.29
6 -2 -5 8.22 0.28
6 2 -5 8.12 0.27
-6 2 5 8.12 0.27
-6 2 5 8.4 0.28
6 2 -5 8.32 0.29
-6 2 5 7.89 0.27
6 2 -5 8.66 0.29
6 2 -5 7.75 0.26
5 -2 -5 0.95 0.09
-5 -2 5 1.02 0.07
-5 -2 5 0.85 0.08
5 -2 -5 1.02 0.07
5 -2 -5 1.04 0.07
-5 -2 5 0.97 0.07
-5 -2 5 0.96 0.08
-5 2 5 0.99 0.08
-5 2 5 1.01 0.08
5 2 -5 0.94 0.08
5 2 -5 0.91 0.07
5 2 -5 1.02 0.07
5 2 -5 0.98 0.07
-5 2 5 1.07 0.08
-4 -2 5 14.05 0.45
4 -2 -5 15.73 0.47
-4 -2 5 14.41 0.48
4 -2 -5 15.02 0.44
4 -2 -5 15.51 0.48
-4 -2 5 14.27 0.46
4 -2 -5 14.74 0.45
-4 2 5 15.8 0.46
4 2 -5 14.85 0.48
4 2 -5 14.9 0.45
4 2 -5 15.44 0.44
4 2 -5 14.2 0.47
-4 2 5 15.26 0.46
-4 2 5 14.66 0.44
-3 -2 5 13.51 0.43
-3 -2 5 13.99 0.41
3 -2 -5 13.98 0.43
-3 -2 5 14.27 0.42
3 -2 -5 12.92 0.41
-3 -2 5 12.81 0.4
3 -2 -5 13.02 0.4
3 2 -5 13.35 0.4
-3 2 5 13.65 0.42
3 2 -5 14.23 0.42
3 2 -5 14.1 0.44
-3 2 5 12.91 0.41
-3 2 5 13.62 0.42
-3 2 5 14.14 0.4
3 2 -5 13.32 0.41
-2 -2 5 4.04 0.13
-2 -2 5 3.99 0.14
-2 -2 5 3.94 0.14
2 -2 -5 4.02 0.13
-2 2 5 4.13 0.14
-2 2 5 4.07 0.14
-2 2 5 4.05 0.14
2 2 -5 3.94 0.14
-2 2 5 4.01 0.14
2 2 -5 3.91 0.15
-1 -2 5 35.33 1
1 -2 -5 33.51 0.97
-1 -2 5 34.95 0.99
-1 -2 5 32.71 1.06
1 -2 -5 35.22 0.99
-1 -2 5 34.9 0.97
-1 -2 5 34.24 1.06
1 2 -5 33.39 0.99
-1 2 5 33.57 1.01
-1 2 5 33.16 0.99
1 2 -5 32.4 1.11
1 2 -5 34.43 0.97
-1 2 5 33.04 1.01
-1 2 5 34.17 1.06
0 -2 -5 52.13 1.54
0 -2 5 54.11 1.59
0 -2 5 56.28 1.68
0 -2 5 52.37 1.54
0 -2 5 52.06 1.57
0 -2 -5 55.02 1.57
0 -2 -5 51.2 1.59
0 -2 -5 52.27 1.77
0 2 -5 55.5 1.57
0 2 -5 56.05 1.59
0 2 -5 56.59 1.77
0 2 -5 54.16 1.54
0 2 5 55.67 1.61
0 2 5 53.58 1.6
0 2 -5 56.97 1.66
1 -2 5 59.53 1.77
-1 -2 -5 55.9 1.68
1 -2 5 57.47 1.65
1 -2 5 57.21 1.81
1 -2 5 56.32 1.7
-1 -2 -5 60.96 1.9
-1 2 -5 57.69 1.7
1 2 5 56.75 1.68
1 2 5 58.36 1.73
-1 2 -5 59.2 1.65
1 2 5 61.23 1.81
-2 -2 -5 6.59 0.23
-2 -2 -5 6.08 0.21
-2 -2 -5 6.2 0.2
2 -2 5 6.61 0.22
2 -2 5 6.47 0.21
2 2 5 6.59 0.21
2 2 5 6.72 0.21
2 2 5 6.82 0.22
2 2 5 6 0.2
-3 -2 -5 7.74 0.25
-3 -2 -5 8.12 0.28
3 -2 5 8.36 0.25
3 -2 5 8.14 0.24
3 -2 5 8.13 0.27
-3 -2 -5 7.83 0.24
3 2 5 7.6 0.27
3 2 5 7.73 0.25
3 2 5 7.61 0.26
-3 2 -5 7.74 0.28
-3 2 -5 8.06 0.24
-3 2 -5 7.91 0.25
-3 2 -5 7.75 0.24
-3 2 -5 8.04 0.28
-4 -2 -5 2.38 0.11
4 -2 5 2.14 0.11
-4 -2 -5 2.23 0.11
4 -2 5 2.12 0.1
4 -2 5 2.28 0.09
4 -2 5 2.37 0.09
-4 -2 -5 2.3 0.09
-4 -2 -5 2.24 0.1
-4 -2 -5 2.32 0.09
4 2 5 2.18 0.09
4 2 5 2.17 0.11
-4 2 -5 2.44 0.1
4 2 5 2.23 0.11
-4 2 -5 2.18 0.09
-4 2 -5 2.4 0.11
4 2 5 2.21 0.1
-4 2 -5 2.29 0.09
-5 -2 -5 0.14 0.04
5 -2 5 0.07 0.03
5 -2 5 0.07 0.02
-5 2 -5 0.15 0.05
5 2 5 0.08 0.03
5 2 5 0.06 0.03
-5 2 -5 0.05 0.02
5 2 5 0.1 0.02
6 -2 5 1.05 0.1
-6 -2 -5 0.92 0.1
6 -2 5 1.05 0.13
6 2 5 1.12 0.08
6 2 5 0.82 0.11
-7 -2 -5 2.6 0.12
-7 -2 -5 2.64 0.14
7 -2 5 2.46 0.15
-7 -2 -5 2.78 0.15
7 -2 5 2.91 0.12
-7 2 -5 2.81 0.13
7 2 5 2.93 0.17
-7 2 -5 2.67 0.15
7 2 5 2.83 0.14
-8 -2 -5 1.06 0.08
8 -2 5 1.09 0.09
-8 -2 -5 1.25 0.12
-8 -2 -5 1.32 0.12
-8 2 -5 1.35 0.1
-8 2 -5 0.87 0.13
-9 -2 -5 0.47 0.05
-9 -3 5 0.47 0.07
9 -3 -5 0.25 0.08
9 -3 -5 0.36 0.06
-9 3 5 0.35 0.05
9 3 -5 0.39 0.07
8 -3 -5 0.59 0.08
8 -3 -5 0.51 0.08
-8 -3 5 0.63 0.09
8 -3 -5 0.68 0.09
-8 -3 5 0.74 0.09
8 3 -5 0.51 0.09
-8 3 5 0.6 0.08
8 3 -5 0.51 0.08
7 -3 -5 2.11 0.11
-7 -3 5 2.18 0.13
-7 -3 5 2.32 0.12
7 -3 -5 2.13 0.12
7 -3 -5 2.01 0.1
-7 3 5 2.24 0.12
7 3 -5 2.18 0.12
-7 3 5 1.88 0.12
7 3 -5 1.92 0.11
6 -3 -5 3.7 0.14
6 -3 -5 3.76 0.15
6 -3 -5 3.51 0.15
-6 -3 5 3.47 0.16
6 3 -5 3.59 0.15
6 3 -5 3.68 0.16
-6 3 5 3.57 0.15
6 3 -5 3.78 0.16
5 -3 -5 4.96 0.17
-5 -3 5 4.98 0.18
-5 -3 5 4.8 0.19
5 -3 -5 5.06 0.18
5 -3 -5 5.1 0.18
-5 3 5 5.04 0.17
5 3 -5 4.99 0.17
-5 3 5 4.92 0.18
5 3 -5 4.95 0.18
5 3 -5 4.92 0.18
5 3 -5 4.79 0.19
-5 3 5 5.04 0.18
4 -3 -5 19.99 0.6
4 -3 -5 19.59 0.59
-4 -3 5 19.57 0.64
-4 -3 5 19.99 0.61
4 -3 -5 20.22 0.62
4 -3 -5 20.72 0.64
-4 -3 5 20.13 0.6
4 3 -5 20 0.6
-4 3 5 20.52 0.62
4 3 -5 20 0.64
4 3 -5 20.44 0.59
-4 3 5 19.67 0.61
4 3 -5 20.61 0.62
-4 3 5 20.81 0.59
-3 -3 5 55.33 1.6
3 -3 -5 53.95 1.57
3 -3 -5 56.52 1.69
-3 -3 5 55.45 1.71
3 -3 -5 53.43 1.6
-3 -3 5 57.26 1.57
-3 -3 5 55.41 1.62
3 3 -5 54.6 1.6
-3 3 5 51.78 1.6
-3 3 5 53.64 1.62
3 3 -5 56.09 1.69
3 3 -5 57.11 1.65
3 3 -5 52.75 1.59
-3 3 5 57.26 1.56
-3 3 5 58.2 1.63
3 3 -5 53.12 1.57
-2 -3 5 1.86 0.08
2 -3 -5 1.94 0.08
-2 -3 5 1.94 0.08
2 -3 -5 1.93 0.07
2 -3 -5 2.03 0.07
-2 3 5 1.87 0.08
-2 3 5 1.91 0.08
2 3 -5 1.96 0.08
2 3 -5 1.79 0.09
-2 3 5 1.9 0.08
-1 -3 5 41.38 1.21
1 -3 -5 39.16 1.34
1 -3 -5 39.91 1.19
-1 -3 5 40.89 1.17
1 -3 -5 42.06 1.17
-1 -3 5 42.7 1.28
-1 3 5 41.74 1.22
-1 3 5 41.66 1.23
1 3 -5 40.48 1.35
1 3 -5 41.49 1.17
0 -3 5 43.2 1.16
0 -3 5 41.69 1.27
0 -3 -5 41.09 1.33
0 -3 -5 42.56 1.18
0 -3 5 39.93 1.28
0 -3 5 40.05 1.2
0 -3 -5 39.1 1.16
0 3 -5 41.35 1.16
0 3 5 39.16 1.2
0 3 5 41.86 1.24
0 3 -5 38.47 1.33
0 3 -5 40.44 1.2
0 3 -5 41.96 1.19
0 3 5 41.17 1.21
0 3 -5 42.55 1.25
0 3 -5 38.56 1.28
0 3 5 41.29 1.22
1 -3 5 59.21 1.76
1 -3 5 57.06 1.73
-1 -3 -5 55.83 1.64
-1 -3 -5 54.25 1.61
-1 -3 -5 58.13 1.85
1 -3 5 57.78 1.77
1 -3 5 55.84 1.66
1 3 5 53.8 1.64
1 3 5 56.75 1.72
-1 3 -5 57.71 1.66
1 3 5 57.15 1.68
-1 3 -5 57.46 1.74
-1 3 -5 56.74 1.61
1 3 5 56.95 1.77
-2 -3 -5 101.77 3.02
2 -3 5 104.03 3.19
2 -3 5 107.35 3.03
-2 -3 -5 106.58 3.41
2 -3 5 105.74 3.25
-2 -3 -5 103.92 2.97
2 -3 5 103.88 3.27
-2 -3 -5 100.31 3.06
2 3 5 109.93 3.19
-2 3 -5 108.23 2.97
-2 3 -5 105.06 3.06
2 3 5 103.88 3.02
2 3 5 106.48 3.27
2 3 5 104.47 3.1
-2 3 -5 103.66 3.41
3 -3 5 4.24 0.13
-3 -3 -5 4.11 0.16
3 -3 5 4.12 0.16
3 -3 5 4.26 0.14
-3 -3 -5 4.18 0.15
3 -3 5 4.07 0.15
-3 -3 -5 4.13 0.14
-3 3 -5 4.1 0.16
3 3 5 4.04 0.15
3 3 5 3.96 0.14
3 3 5 4.15 0.15
-3 3 -5 3.97 0.14
-3 3 -5 3.87 0.14
-3 3 -5 3.78 0.16
4 -3 5 6.42 0.24
4 -3 5 6.06 0.23
-4 -3 -5 6.66 0.24
-4 -3 -5 6.49 0.2
-4 -3 -5 6.56 0.21
-4 -3 -5 6.66 0.24
4 -3 5 6.54 0.21
4 -3 5 6.55 0.2
-4 -3 -5 6.21 0.22
-4 3 -5 6.61 0.21
4 3 5 6.22 0.21
-4 3 -5 6.73 0.22
4 3 5 6.58 0.23
4 3 5 6.52 0.22
-4 3 -5 6.32 0.24
-4 3 -5 6.65 0.24
-5 -3 -5 3.88 0.13
-5 -3 -5 3.96 0.15
5 -3 5 3.75 0.16
-5 -3 -5 3.73 0.16
-5 -3 -5 3.85 0.14
5 -3 5 3.91 0.14
5 -3 5 3.91 0.13
5 -3 5 3.73 0.16
5 3 5 3.97 0.14
-5 3 -5 3.61 0.16
5 3 5 3.87 0.15
-5 3 -5 3.65 0.14
5 3 5 3.78 0.16
6 -3 5 0.53 0.07
-6 -3 -5 0.57 0.09
6 -3 5 0.63 0.09
6 -3 5 0.72 0.09
6 -3 5 0.62 0.13
-6 -3 -5 0.71 0.07
6 3 5 0.51 0.1
6 3 5 0.66 0.09
-6 3 -5 0.48 0.08
6 3 5 0.55 0.09
7 -3 5 5.26 0.22
-7 -3 -5 5.23 0.22
7 -3 5 5.51 0.19
-7 -3 -5 5.3 0.19
-7 -3 -5 5.16 0.19
-7 -3 -5 5.47 0.22
-7 3 -5 4.89 0.22
-7 3 -5 5.31 0.19
-8 -3 -5 0.08 0.04
8 -3 5 0.06 0.03
-8 -3 -5 0.04 0.02
-8 -3 -5 0.05 0.04
-8 3 -5 0.08 0.03
-9 -3 -5 1.2 0.09
-9 3 -5 1.54 0.09
9 -4 -5 0.27 0.06
-9 -4 5 0.23 0.05
-9 -4 5 0.36 0.07
9 4 -5 0.3 0.07
-9 4 5 0.31 0.07
-8 -4 5 0.28 0.08
-8 -4 5 0.38 0.08
8 -4 -5 0.35 0.08
8 -4 -5 0.31 0.07
8 -4 -5 0.26 0.06
-8 4 5 0.37 0.12
8 4 -5 0.3 0.09
-8 4 5 0.23 0.07
7 -4 -5 3.39 0.13
7 -4 -5 3.51 0.15
-7 -4 5 3.68 0.16
7 -4 -5 3.35 0.15
-7 -4 5 3.32 0.15
7 4 -5 3.45 0.15
7 4 -5 3.24 0.15
-7 4 5 3.4 0.15
-7 4 5 3.36 0.15
-6 -4 5 0.93 0.09
6 -4 -5 0.86 0.07
6 -4 -5 0.94 0.08
-6 -4 5 0.85 0.09
6 -4 -5 0.83 0.07
6 4 -5 0.83 0.09
6 4 -5 0.73 0.08
-6 4 5 1.04 0.1
-6 4 5 0.78 0.07
-5 -4 5 11.5 0.38
5 -4 -5 12.04 0.38
5 -4 -5 12.39 0.36
5 -4 -5 12.29 0.39
-5 -4 5 11.59 0.39
-5 4 5 12.08 0.38
5 4 -5 12.22 0.38
-5 4 5 11.98 0.38
-5 4 5 12.24 0.37
5 4 -5 12.64 0.4
5 4 -5 11.65 0.39
4 -4 -5 2.34 0.09
-4 -4 5 2.41 0.11
-4 -4 5 2.3 0.09
-4 -4 5 2.21 0.1
-4 -4 5 2.32 0.1
4 -4 -5 2.28 0.11
4 -4 -5 2.43 0.1
4 -4 -5 2.37 0.1
-4 4 5 2.48 0.1
-4 4 5 2.38 0.1
-4 4 5 2.36 0.1
4 4 -5 2.28 0.1
4 4 -5 2.43 0.11
4 4 -5 2.32 0.1
4 4 -5 2.16 0.1
-3 -4 5 10.87 0.34
-3 -4 5 11.07 0.33
3 -4 -5 10.83 0.32
3 -4 -5 11 0.35
3 -4 -5 10.42 0.33
-3 -4 5 10.92 0.35
-3 -4 5 10.38 0.32
3 4 -5 11.49 0.36
3 4 -5 10.45 0.33
3 4 -5 10.51 0.33
-3 4 5 10.76 0.34
-3 4 5 10.75 0.34
-3 4 5 10.83 0.32
2 -4 -5 10.41 0.31
2 -4 -5 10.7 0.33
-2 -4 5 9.72 0.32
-2 -4 5 10.81 0.33
2 4 -5 10.02 0.31
-2 4 5 10.74 0.32
2 4 -5 10.22 0.35
-2 4 5 9.84 0.32
2 4 -5 9.63 0.32
-1 -4 5 24.67 0.77
1 -4 -5 24.65 0.71
1 -4 -5 24.88 0.7
-1 -4 5 24.11 0.73
-1 4 5 24.33 0.73
1 4 -5 25.12 0.81
1 4 -5 23.1 0.7
1 4 -5 24.57 0.77
-1 4 5 24.03 0.73
0 -4 -5 9.37 0.32
0 -4 -5 9.58 0.28
0 -4 -5 9.89 0.29
0 -4 5 9.64 0.31
0 -4 5 9.67 0.3
0 4 5 9.83 0.3
0 4 -5 9.68 0.29
0 4 -5 8.98 0.3
0 4 -5 9.12 0.31
1 -4 5 20.52 0.62
1 -4 5 19.59 0.62
1 -4 5 19.77 0.56
-1 -4 -5 19.86 0.57
1 -4 5 19.23 0.6
1 -4 5 18.99 0.58
-1 -4 -5 18.83 0.56
-1 -4 -5 18.97 0.65
1 4 5 20.27 0.59
-1 4 -5 18.67 0.56
-1 4 -5 18.46 0.62
-1 4 -5 20.5 0.61
2 -4 5 82.18 2.48
2 -4 5 79.4 2.26
-2 -4 -5 80.56 2.31
2 -4 5 81.83 2.43
2 -4 5 83.43 2.5
-2 -4 -5 79.15 2.26
2 -4 5 81.39 2.31
-2 -4 -5 77.54 2.33
2 4 5 83.51 2.43
-2 4 -5 80.64 2.6
-2 4 -5 79.05 2.44
-2 4 -5 76.43 2.49
-2 4 -5 81.56 2.55
-2 4 -5 76.27 2.26
-2 4 -5 76.28 2.33
-3 -4 -5 10.57 0.33
3 -4 5 10.5 0.31
-3 -4 -5 10.34 0.31
3 -4 5 10.2 0.32
-3 -4 -5 10.5 0.32
3 -4 5 10.75 0.35
3 -4 5 10.4 0.34
3 4 5 10.32 0.33
-3 4 -5 10.43 0.32
-3 4 -5 10.97 0.37
3 4 5 10.45 0.34
-3 4 -5 11.07 0.37
-3 4 -5 10.75 0.33
-4 -4 -5 1.33 0.08
4 -4 5 1.19 0.08
-4 -4 -5 1.38 0.06
-4 -4 -5 1.43 0.07
4 4 5 1.14 0.08
4 4 5 1.41 0.08
-4 4 -5 1.27 0.07
-4 4 -5 1.22 0.08
5 -4 5 1.24 0.1
-5 -4 -5 1.36 0.09
5 -4 5 1.21 0.09
-5 -4 -5 1.28 0.07
-5 -4 -5 1.26 0.07
-5 -4 -5 1.33 0.1
5 -4 5 1.4 0.07
5 4 5 1.32 0.09
-5 4 -5 1.32 0.08
-5 4 -5 1.23 0.12
-5 4 -5 1.24 0.08
5 4 5 1.35 0.1
-6 -4 -5 4.07 0.14
-6 -4 -5 3.68 0.18
-6 -4 -5 3.97 0.15
6 -4 5 3.86 0.15
6 -4 5 3.77 0.17
-6 4 -5 4.02 0.16
-6 4 -5 3.93 0.16
-6 4 -5 3.54 0.18
7 -4 5 1.57 0.14
-7 -4 -5 1.62 0.1
7 -4 5 1.8 0.1
-7 -4 -5 1.58 0.09
-7 -4 -5 1.76 0.14
-7 4 -5 1.52 0.14
7 4 5 1.89 0.13
-7 4 -5 1.52 0.11
-8 -4 -5 2.38 0.18
-8 -4 -5 2.07 0.13
8 -4 5 2.45 0.11
-8 -4 -5 2.23 0.1
-8 4 -5 2.46 0.12
-9 -4 -5 0.83 0.08
-9 -5 5 0.28 0.08
9 -5 -5 0.12 0.06
9 -5 -5 0.17 0.03
-9 -5 5 0.13 0.04
-9 5 5 0.16 0.03
-8 -5 5 0.21 0.07
8 -5 -5 0.12 0.04
-8 -5 5 0.11 0.03
8 -5 -5 0.14 0.03
8 -5 -5 0.09 0.03
8 5 -5 0.01 0.05
-8 5 5 0.18 0.06
8 5 -5 0.12 0.04
-8 5 5 0.08 0.03
-7 -5 5 1.08 0.12
7 -5 -5 1.09 0.09
-7 -5 5 1.17 0.09
7 -5 -5 1.1 0.08
7 5 -5 1 0.1
-7 5 5 1.21 0.09
7 5 -5 1.11 0.09
-7 5 5 0.98 0.09
-6 -5 5 1.91 0.1
-6 -5 5 2.1 0.12
6 -5 -5 2.13 0.11
-6 5 5 2.16 0.11
6 5 -5 2.05 0.11
6 5 -5 1.9 0.12
5 -5 -5 23.47 0.7
5 -5 -5 23.7 0.72
-5 -5 5 22.51 0.73
-5 -5 5 24.41 0.72
5 -5 -5 24.23 0.74
5 5 -5 24.58 0.74
5 5 -5 24.82 0.72
-5 5 5 23.91 0.73
5 5 -5 24.96 0.77
-5 5 5 24.49 0.7
-5 5 5 24.03 0.72
-5 5 5 23.02 0.73
4 -5 -5 4.7 0.17
4 -5 -5 5.04 0.17
-4 -5 5 5.17 0.17
-4 -5 5 4.62 0.16
-4 -5 5 4.99 0.18
4 -5 -5 5.03 0.16
-4 -5 5 4.86 0.18
4 5 -5 4.89 0.17
-4 5 5 4.96 0.17
4 5 -5 5.18 0.19
4 5 -5 5.2 0.18
-4 5 5 4.8 0.17
-4 5 5 5.1 0.17
-3 -5 5 8.12 0.27
3 -5 -5 8.46 0.25
-3 -5 5 7.97 0.27
3 -5 -5 8.21 0.26
3 -5 -5 8.23 0.27
-3 -5 5 8.16 0.26
-3 -5 5 8.46 0.25
-3 5 5 8.44 0.26
3 5 -5 7.95 0.26
-3 5 5 8.3 0.27
-3 5 5 8.33 0.25
3 5 -5 7.74 0.27
3 5 -5 8 0.27
-3 5 5 8.61 0.26
3 5 -5 8.02 0.26
-2 -5 5 8.52 0.29
-2 -5 5 8.65 0.28
2 -5 -5 9.34 0.29
2 -5 -5 8.39 0.27
-2 -5 5 8.58 0.27
-2 -5 5 9.06 0.28
-2 5 5 9.09 0.28
2 5 -5 9.07 0.3
-2 5 5 9.45 0.28
2 5 -5 8.92 0.28
2 5 -5 9.14 0.29
-2 5 5 9.02 0.27
1 -5 -5 10.96 0.33
-1 -5 5 11.26 0.36
1 -5 -5 11.41 0.34
-1 5 5 10.99 0.35
1 5 -5 11.41 0.37
1 5 -5 11.28 0.35
1 5 -5 10.95 0.37
1 5 -5 11.69 0.39
0 -5 5 0.66 0.05
0 -5 5 0.76 0.05
0 -5 -5 0.82 0.05
0 -5 5 0.76 0.05
0 -5 -5 0.76 0.04
0 5 5 0.73 0.04
0 5 -5 0.83 0.05
0 5 -5 0.83 0.05
-1 -5 -5 1.75 0.08
1 -5 5 1.74 0.08
-1 -5 -5 1.82 0.07
1 -5 5 1.76 0.08
1 -5 5 1.81 0.07
1 -5 5 1.92 0.08
-1 -5 -5 1.8 0.06
1 -5 5 1.82 0.08
-1 5 -5 1.89 0.08
1 5 5 1.88 0.07
-1 5 -5 1.93 0.09
-1 5 -5 1.78 0.08
2 -5 5 1.31 0.06
2 -5 5 1.28 0.07
-2 -5 -5 1.33 0.06
-2 -5 -5 1.35 0.05
2 -5 5 1.39 0.08
-2 -5 -5 1.5 0.1
2 -5 5 1.37 0.07
-2 5 -5 1.29 0.07
-2 5 -5 1.45 0.08
2 5 5 1.45 0.07
-2 5 -5 1.3 0.06
-3 -5 -5 23.42 0.71
3 -5 5 24.67 0.69
3 -5 5 23.79 0.75
-3 -5 -5 24.43 0.69
3 -5 5 24.51 0.71
3 -5 5 24.34 0.77
-3 -5 -5 23.23 0.72
-3 5 -5 25.32 0.72
3 5 5 23.69 0.73
-3 5 -5 24.28 0.8
-3 5 -5 24.24 0.79
-3 5 -5 23.25 0.7
-3 5 -5 23.74 0.71
3 5 5 24.98 0.75
-3 5 -5 23.36 0.76
-4 -5 -5 9.85 0.33
4 -5 5 10.59 0.31
4 -5 5 10.13 0.36
4 -5 5 10.38 0.35
-4 -5 -5 10.63 0.31
4 -5 5 10.67 0.32
-4 -5 -5 10.1 0.32
-4 5 -5 11.04 0.37
-4 5 -5 10.36 0.32
-4 5 -5 10.51 0.37
4 5 5 10.57 0.35
-4 5 -5 9.87 0.35
-4 5 -5 10.39 0.33
4 5 5 10.41 0.33
-5 -5 -5 2.92 0.14
5 -5 5 2.8 0.15
-5 -5 -5 3.05 0.11
5 -5 5 3.03 0.11
5 -5 5 2.85 0.12
-5 -5 -5 2.99 0.12
5 -5 5 3.1 0.14
-5 5 -5 2.84 0.16
-5 5 -5 3 0.14
5 5 5 3.11 0.13
-5 5 -5 2.93 0.12
-5 5 -5 2.89 0.13
5 5 5 3.11 0.14
6 -5 5 2.23 0.1
-6 -5 -5 2.03 0.14
6 -5 5 2.14 0.1
-6 -5 -5 2.31 0.11
-6 -5 -5 2.21 0.1
-6 5 -5 1.97 0.11
-6 5 -5 2.25 0.11
-6 5 -5 2.24 0.13
6 5 5 2.31 0.12
-7 -5 -5 1.74 0.1
-7 -5 -5 2.05 0.17
7 -5 5 1.94 0.1
-7 -5 -5 1.85 0.1
7 -5 5 1.91 0.14
-7 5 -5 1.56 0.16
7 5 5 1.94 0.13
-7 5 -5 2.02 0.11
8 -5 5 0.2 0.06
-9 -6 5 0.12 0.04
9 -6 -5 0.16 0.05
-9 6 5 0.15 0.04
9 6 -5 0.18 0.03
8 -6 -5 0.12 0.05
-8 -6 5 0.33 0.1
8 -6 -5 0.28 0.06
-8 -6 5 0.31 0.07
-8 6 5 0.24 0.06
8 6 -5 0.18 0.04
7 -6 -5 1.06 0.08
-7 -6 5 1.2 0.12
-7 -6 5 1.06 0.09
7 -6 -5 1.03 0.09
7 6 -5 0.97 0.09
-7 6 5 0.94 0.08
-7 6 5 1.17 0.09
7 6 -5 0.95 0.11
6 -6 -5 5.5 0.19
-6 -6 5 5.72 0.19
6 -6 -5 5.19 0.2
-6 6 5 5.32 0.19
6 6 -5 5.34 0.2
-5 -6 5 3.83 0.16
5 -6 -5 4.19 0.14
5 -6 -5 4.2 0.15
5 -6 -5 4.1 0.16
-5 -6 5 4.06 0.16
-5 -6 5 4 0.17
-5 6 5 4.05 0.15
-5 6 5 4.12 0.15
5 6 -5 4.16 0.15
-5 6 5 4.1 0.16
5 6 -5 3.93 0.16
-5 6 5 3.9 0.16
5 6 -5 4.09 0.17
4 -6 -5 9.74 0.31
4 -6 -5 9.83 0.29
-4 -6 5 9.49 0.31
-4 -6 5 9.4 0.3
-4 -6 5 9.86 0.33
4 -6 -5 9.87 0.32
-4 -6 5 9.38 0.32
4 6 -5 10.28 0.32
-4 6 5 9.91 0.32
-4 6 5 9.88 0.3
-4 6 5 10.15 0.31
4 6 -5 9.75 0.31
4 6 -5 9.44 0.33
-3 -6 5 0.83 0.05
-3 -6 5 0.9 0.05
3 -6 -5 0.8 0.05
3 -6 -5 0.87 0.07
-3 -6 5 0.92 0.07
3 6 -5 0.93 0.06
-3 6 5 1 0.06
-3 6 5 0.95 0.06
-3 6 5 0.95 0.06
3 6 -5 0.81 0.06
3 6 -5 0.99 0.07
-2 -6 5 10.78 0.33
-2 -6 5 10.61 0.36
-2 -6 5 11.47 0.32
2 -6 -5 10.78 0.35
-2 -6 5 10.72 0.34
2 6 -5 10.94 0.36
-2 6 5 10.52 0.34
2 6 -5 10.92 0.38
-2 6 5 11.28 0.33
-2 6 5 11.09 0.34
-2 6 5 11.12 0.33
2 6 -5 10.98 0.35
2 6 -5 11.1 0.33
-1 -6 5 14.48 0.41
-1 -6 5 13.9 0.43
-1 -6 5 14.47 0.45
1 -6 -5 13.58 0.41
1 -6 -5 13.69 0.42
-1 -6 5 14.34 0.42
1 6 -5 14.44 0.45
-1 6 5 14.27 0.43
-1 6 5 14.61 0.42
1 6 -5 13.67 0.44
-1 6 5 14.8 0.44
1 6 -5 13.75 0.48
1 6 -5 14.24 0.46
0 -6 5 4.31 0.15
0 -6 -5 4.29 0.14
0 -6 -5 4.05 0.13
0 -6 5 4.17 0.15
0 -6 5 4.29 0.15
0 -6 -5 4.56 0.16
0 -6 5 4.1 0.14
0 6 -5 4.15 0.14
0 6 5 4.55 0.15
0 6 5 4.52 0.15
0 6 -5 4.47 0.15
1 -6 5 14.1 0.44
-1 -6 -5 12.96 0.39
1 -6 5 13.18 0.42
-1 -6 -5 13.51 0.41
1 -6 5 13.83 0.43
1 -6 5 14.26 0.44
1 -6 5 13.52 0.4
1 -6 5 13.61 0.41
1 6 5 13.31 0.41
1 6 5 14.34 0.42
-1 6 -5 13.94 0.41
-1 6 -5 13.38 0.44
1 6 5 13.36 0.41
1 6 5 13.61 0.42
-1 6 -5 13.85 0.46
2 -6 5 5.43 0.19
2 -6 5 5.72 0.18
2 -6 5 5.6 0.17
2 -6 5 5.13 0.19
-2 -6 -5 5.71 0.17
-2 -6 -5 5.42 0.17
-2 6 -5 5.12 0.19
2 6 5 5.29 0.18
-2 6 -5 5.22 0.18
-2 6 -5 5.47 0.2
-2 6 -5 5.32 0.2
-2 6 -5 5.77 0.19
2 6 5 5.55 0.18
-2 6 -5 5.28 0.17
-3 -6 -5 22.07 0.69
3 -6 5 23.71 0.75
-3 -6 -5 23.58 0.67
3 -6 5 22.82 0.67
3 -6 5 23.45 0.73
3 -6 5 22.88 0.69
-3 6 -5 23.61 0.78
-3 6 -5 22.8 0.77
3 6 5 23.29 0.69
3 6 5 23.58 0.71
-3 6 -5 24.02 0.7
3 6 5 24 0.73
-3 6 -5 23.14 0.68
4 -6 5 18.22 0.54
-4 -6 -5 17.51 0.55
-4 -6 -5 18.49 0.54
4 -6 5 18.05 0.52
-4 -6 -5 17.96 0.52
4 -6 5 17.19 0.57
-4 6 -5 17.89 0.53
4 6 5 18.45 0.57
-4 6 -5 17.2 0.58
-4 6 -5 17.47 0.61
-4 6 -5 17.48 0.53
-4 6 -5 18.36 0.54
4 6 5 17.62 0.55
-5 -6 -5 1.7 0.12
5 -6 5 1.88 0.11
5 -6 5 1.72 0.09
-5 -6 -5 1.77 0.08
5 -6 5 1.74 0.08
-5 -6 -5 1.76 0.08
5 -6 5 1.55 0.12
-5 6 -5 1.72 0.1
-5 6 -5 1.66 0.1
-5 6 -5 1.64 0.13
-5 6 -5 1.66 0.12
5 6 5 1.75 0.1
-5 6 -5 1.78 0.11
6 -6 5 0.04 0.03
-6 -6 -5 -0.02 0.05
-6 -6 -5 0.1 0.03
-6 -6 -5 0.05 0.02
6 -6 5 0.01 0.02
-6 6 -5 0.06 0.03
6 6 5 0.08 0.03
-6 6 -5 0.02 0.02
7 -6 5 0.28 0.09
-7 -6 -5 0.35 0.07
-7 -6 -5 0.33 0.06
7 -6 5 0.4 0.13
7 -6 5 0.39 0.07
-7 6 -5 0.39 0.08
-8 -6 -5 0.73 0.07
-8 -6 -5 0.8 0.1
-8 6 -5 0.87 0.09
-9 -7 5 0.13 0.03
9 -7 -5 0.24 0.05
-9 -7 5 0.18 0.04
9 7 -5 0.21 0.03
-9 7 5 0.3 0.06
8 -7 -5 0.55 0.06
-8 -7 5 0.45 0.09
8 -7 -5 0.49 0.07
-8 -7 5 0.6 0.07
-8 7 5 0.51 0.07
8 7 -5 0.4 0.07
-8 7 5 0.66 0.08
-7 -7 5 0.03 0.04
7 -7 -5 0.02 0.03
7 -7 -5 0.02 0.02
7 -7 -5 0.11 0.04
-7 -7 5 0 0.03
-7 -7 5 0.07 0.04
-7 7 5 -0.01 0.04
-7 7 5 0.1 0.04
-7 7 5 0.02 0.02
7 7 -5 -0.02 0.03
-6 -7 5 1.72 0.13
-6 -7 5 1.76 0.1
6 -7 -5 1.81 0.11
6 -7 -5 1.72 0.09
-6 -7 5 1.76 0.17
6 -7 -5 1.8 0.1
-6 7 5 1.83 0.1
6 7 -5 1.76 0.12
-6 7 5 1.61 0.11
6 7 -5 1.67 0.11
-5 -7 5 10.71 0.35
-5 -7 5 11.21 0.33
-5 -7 5 10.46 0.37
-5 -7 5 10.29 0.36
5 -7 -5 11.33 0.33
5 -7 -5 10.79 0.34
5 -7 -5 10.67 0.36
-5 7 5 10.85 0.34
5 7 -5 10.37 0.34
-5 7 5 11.38 0.34
5 7 -5 11.03 0.36
-5 7 5 11.18 0.35
5 7 -5 10.8 0.37
-5 7 5 10.62 0.35
-4 -7 5 1.1 0.09
-4 -7 5 1 0.07
-4 -7 5 1.21 0.06
4 -7 -5 1.12 0.07
4 -7 -5 1.17 0.07
-4 -7 5 1.12 0.07
-4 7 5 1.16 0.07
4 7 -5 1.24 0.08
-4 7 5 1.19 0.07
-4 7 5 1.01 0.08
4 7 -5 1.06 0.07
4 7 -5 1.2 0.08
4 7 -5 1.11 0.08
-4 7 5 1.03 0.07
-3 -7 5 2.73 0.11
-3 -7 5 2.65 0.1
3 -7 -5 2.81 0.1
-3 -7 5 2.76 0.12
3 -7 -5 2.83 0.1
-3 -7 5 2.8 0.11
3 -7 -5 2.69 0.12
3 7 -5 2.87 0.12
-3 7 5 2.87 0.11
-3 7 5 2.74 0.11
-3 7 5 2.92 0.1
3 7 -5 2.62 0.11
-3 7 5 3.01 0.11
3 7 -5 2.88 0.11
3 7 -5 2.79 0.11
2 -7 -5 0.33 0.03
-2 -7 5 0.28 0.03
2 -7 -5 0.21 0.05
-2 -7 5 0.35 0.04
-2 -7 5 0.19 0.06
2 7 -5 0.35 0.05
2 7 -5 0.22 0.05
2 7 -5 0.35 0.05
2 7 -5 0.33 0.05
-2 7 5 0.26 0.04
-2 7 5 0.4 0.05
-2 7 5 0.28 0.04
2 7 -5 0.23 0.05
-1 -7 5 0.77 0.05
1 -7 -5 0.73 0.04
1 -7 -5 0.63 0.04
1 7 -5 0.61 0.05
-1 7 5 0.74 0.06
1 7 -5 0.74 0.07
-1 7 5 0.8 0.05
1 7 -5 0.74 0.05
-1 7 5 0.78 0.05
1 7 -5 0.6 0.05
-1 7 5 0.79 0.05
-1 7 5 0.72 0.05
0 -7 5 19.32 0.62
0 -7 5 19.23 0.56
0 -7 5 19.73 0.63
0 -7 5 20.31 0.58
0 -7 -5 19.26 0.56
0 -7 -5 19.87 0.58
0 -7 5 19.18 0.59
0 7 5 19.49 0.59
0 7 -5 19.2 0.61
0 7 5 20.39 0.58
0 7 -5 18.65 0.58
0 7 -5 20.61 0.65
1 -7 5 2.68 0.1
1 -7 5 2.37 0.1
1 -7 5 2.52 0.09
1 -7 5 2.49 0.1
1 -7 5 2.46 0.09
1 7 5 2.44 0.1
-1 7 -5 2.57 0.11
1 7 5 2.62 0.1
-1 7 -5 2.63 0.1
-1 7 -5 2.44 0.09
-1 7 -5 2.71 0.11
1 7 5 2.67 0.1
-1 7 -5 2.73 0.09
1 7 5 2.45 0.1
-1 7 -5 2.58 0.1
-1 7 -5 2.47 0.1
2 -7 5 3.83 0.15
-2 -7 -5 4.04 0.13
2 -7 5 4.04 0.13
2 -7 5 3.73 0.14
2 -7 5 3.95 0.14
2 -7 5 3.95 0.13
-2 -7 -5 3.93 0.12
2 7 5 3.92 0.14
-2 7 -5 3.78 0.14
-2 7 -5 4.01 0.14
2 7 5 3.94 0.13
-2 7 -5 3.91 0.14
-2 7 -5 3.91 0.16
-2 7 -5 3.91 0.13
-2 7 -5 3.64 0.15
-2 7 -5 3.84 0.15
2 7 5 3.85 0.14
-3 -7 -5 1.06 0.05
3 -7 5 0.88 0.07
3 -7 5 1 0.05
3 -7 5 0.99 0.06
-3 -7 -5 0.98 0.05
3 -7 5 0.93 0.07
-3 7 -5 1.04 0.08
3 7 5 0.96 0.06
-3 7 -5 1.03 0.06
-3 7 -5 1.05 0.07
3 7 5 1.14 0.07
-3 7 -5 0.87 0.07
-3 7 -5 1.03 0.06
-3 7 -5 0.91 0.07
4 -7 5 6.22 0.21
4 -7 5 6.24 0.2
4 -7 5 6.3 0.23
-4 -7 -5 6.37 0.2
4 -7 5 6 0.23
-4 -7 -5 6.08 0.2
4 7 5 6.3 0.22
-4 7 -5 6.38 0.21
-4 7 -5 5.98 0.21
-4 7 -5 6.51 0.24
-4 7 -5 6.32 0.24
-4 7 -5 6 0.22
-4 7 -5 6.21 0.2
5 -7 5 1.39 0.1
-5 -7 -5 1.22 0.07
-5 -7 -5 1.05 0.07
5 -7 5 1.24 0.07
-5 7 -5 1.27 0.1
-5 7 -5 1.16 0.09
5 7 5 1.19 0.09
-5 7 -5 0.98 0.13
-6 -7 -5 2.46 0.11
-6 -7 -5 2.14 0.14
6 -7 5 2.24 0.13
-6 -7 -5 2.32 0.1
6 -7 5 2.48 0.1
6 -7 5 2.43 0.11
6 7 5 2.46 0.12
-6 7 -5 2.5 0.15
-6 7 -5 2.38 0.12
7 -7 5 0.07 0.03
7 -7 5 0.01 0.06
-7 -7 -5 0.02 0.02
7 -7 5 0.05 0.03
-7 7 -5 0.05 0.02
-8 -7 -5 0.08 0.03
-9 -8 5 -0.05 0.03
-9 8 5 -0.01 0.04
8 -8 -5 0.26 0.06
8 -8 -5 0.23 0.06
-8 -8 5 0.23 0.07
-7 -8 5 2.11 0.11
7 -8 -5 2.08 0.13
7 -8 -5 2.2 0.11
7 -8 -5 1.97 0.1
-7 -8 5 2.03 0.15
-7 -8 5 2.27 0.12
-7 8 5 2.08 0.12
-7 8 5 2.05 0.12
7 8 -5 1.89 0.11
-7 8 5 2.15 0.1
-6 -8 5 5.62 0.23
6 -8 -5 5.79 0.19
6 -8 -5 5.69 0.22
6 -8 -5 5.64 0.21
-6 8 5 6.12 0.2
6 8 -5 5.77 0.22
-6 8 5 5.39 0.2
-6 8 5 5.59 0.21
6 8 -5 5.85 0.23
5 -8 -5 0.03 0.02
-5 -8 5 0.05 0.02
-5 -8 5 0.08 0.03
5 -8 -5 0.04 0.03
5 8 -5 0.07 0.04
5 8 -5 0.04 0.03
-5 8 5 0.07 0.03
-5 8 5 0 0.03
-5 8 5 0.05 0.02
-5 8 5 0.04 0.02
-4 -8 5 6.47 0.23
-4 -8 5 6.01 0.21
-4 -8 5 5.83 0.22
4 -8 -5 6.24 0.21
-4 -8 5 5.97 0.2
4 -8 -5 6.1 0.21
4 -8 -5 6.27 0.19
-4 8 5 6.27 0.21
-4 8 5 6.2 0.21
4 8 -5 5.84 0.22
4 8 -5 5.84 0.23
-4 8 5 6.37 0.2
4 8 -5 6.25 0.22
-4 8 5 6.08 0.21
-3 -8 5 0.95 0.06
3 -8 -5 0.82 0.05
3 -8 -5 0.95 0.06
-3 -8 5 0.83 0.06
-3 -8 5 0.87 0.05
-3 -8 5 0.98 0.08
3 8 -5 0.86 0.07
3 8 -5 0.93 0.07
3 8 -5 0.93 0.07
-3 8 5 0.9 0.06
-3 8 5 0.86 0.06
-3 8 5 0.91 0.06
-3 8 5 0.94 0.06
3 8 -5 1 0.06
2 -8 -5 16.47 0.48
2 -8 -5 16.68 0.5
-2 -8 5 16.79 0.54
-2 -8 5 17.18 0.5
-2 -8 5 16.21 0.49
2 8 -5 17.5 0.54
-2 8 5 16.96 0.51
2 8 -5 16.48 0.52
-2 8 5 17.16 0.5
2 8 -5 16.05 0.57
-2 8 5 16.69 0.49
2 8 -5 16.41 0.55
2 8 -5 16.72 0.51
-2 8 5 17.43 0.52
-2 8 5 16.52 0.54
1 -8 -5 13.92 0.41
-1 -8 5 14.95 0.43
1 -8 -5 14.43 0.42
-1 -8 5 14.8 0.46
-1 -8 5 13.86 0.44
-1 8 5 14.64 0.42
-1 8 5 14.19 0.43
1 8 -5 13.66 0.48
-1 8 5 15.09 0.44
-1 8 5 13.96 0.46
1 8 -5 13.46 0.46
-1 8 5 14.5 0.44
-1 8 5 13.78 0.42
1 8 -5 14.57 0.45
0 -8 5 6.95 0.22
0 -8 5 6.92 0.21
0 -8 5 7.02 0.23
0 -8 5 6.96 0.23
0 -8 -5 6.37 0.21
0 8 5 6.82 0.22
0 8 -5 6.94 0.23
0 8 5 6.51 0.21
0 8 5 6.95 0.23
0 8 5 6.82 0.23
0 8 -5 7.12 0.23
0 8 5 6.87 0.22
0 8 5 7.14 0.22
0 8 -5 6.46 0.25
0 8 -5 7.16 0.23
1 -8 5 2.4 0.08
1 -8 5 2.35 0.09
-1 -8 -5 2.18 0.08
1 -8 5 2.29 0.1
1 -8 5 2.45 0.1
1 -8 5 2.3 0.1
1 -8 5 2.43 0.1
-1 8 -5 2.23 0.11
-1 8 -5 2.24 0.09
1 8 5 2.22 0.08
-1 8 -5 2.27 0.1
-1 8 -5 2.14 0.1
-1 8 -5 2.27 0.09
1 8 5 2.16 0.09
-1 8 -5 2.19 0.1
1 8 5 2.31 0.09
1 8 5 2.39 0.1
2 -8 5 3.53 0.14
-2 -8 -5 3.7 0.12
-2 -8 -5 3.66 0.12
2 -8 5 3.57 0.14
2 8 5 3.62 0.14
-2 8 -5 3.43 0.15
2 8 5 3.56 0.13
-2 8 -5 3.46 0.12
2 8 5 3.55 0.13
2 8 5 3.68 0.12
-2 8 -5 3.5 0.13
-2 8 -5 3.39 0.15
3 -8 5 1 0.06
3 -8 5 0.88 0.07
-3 -8 -5 1.01 0.06
-3 -8 -5 1.05 0.05
3 -8 5 1 0.06
-3 8 -5 0.99 0.08
3 8 5 0.95 0.07
-3 8 -5 0.93 0.07
-3 8 -5 1.04 0.06
-3 8 -5 1.04 0.08
-4 -8 -5 1.34 0.07
4 -8 5 1.25 0.09
4 -8 5 1.3 0.09
-4 -8 -5 1.28 0.07
4 -8 5 1.38 0.07
4 -8 5 1.42 0.07
-4 8 -5 1.44 0.08
-4 8 -5 1.32 0.09
4 8 5 1.37 0.08
-4 8 -5 1.34 0.1
-4 8 -5 1.35 0.08
-4 8 -5 1.39 0.1
5 -8 5 1.74 0.13
-5 8 -5 1.62 0.12
-5 8 -5 1.66 0.11
-6 -8 -5 0.4 0.06
6 -8 5 0.39 0.06
6 -8 5 0.38 0.07
-6 -8 -5 0.4 0.06
6 8 5 0.42 0.08
-6 8 -5 0.36 0.14
-6 8 -5 0.37 0.08
-7 -8 -5 0.31 0.06
7 -8 5 0.28 0.06
-7 8 -5 0.4 0.08
7 8 5 0.28 0.09
8 -8 5 0.48 0.06
-8 -8 -5 0.38 0.05
-8 -8 -5 0.4 0.08
8 8 5 0.35 0.09
-8 8 -5 0.27 0.07
-8 -9 5 0.6 0.07
8 -9 -5 0.68 0.07
-8 -9 5 0.6 0.13
-8 9 5 0.73 0.09
7 -9 -5 0.09 0.03
-7 -9 5 0.05 0.04
-7 -9 5 0.04 0.03
7 -9 -5 0.09 0.05
-7 -9 5 0.11 0.03
-7 9 5 0.09 0.04
7 9 -5 0.02 0.04
-7 9 5 0.04 0.03
-7 9 5 0.09 0.05
-7 9 5 0.27 0.08
6 -9 -5 2.52 0.13
6 -9 -5 2.3 0.11
6 -9 -5 2.43 0.12
-6 -9 5 2.54 0.17
-6 9 5 2.48 0.13
-6 9 5 2.51 0.11
-6 9 5 2.44 0.12
6 9 -5 2.54 0.13
-6 9 5 2.44 0.13
6 9 -5 2.5 0.14
-5 -9 5 3.06 0.17
5 -9 -5 3.47 0.14
5 -9 -5 3.32 0.15
-5 -9 5 3.42 0.15
-5 -9 5 3.32 0.14
5 -9 -5 3.24 0.12
-5 -9 5 3.26 0.13
-5 9 5 3.18 0.14
-5 9 5 3.26 0.14
-5 9 5 3.55 0.13
5 9 -5 3.3 0.15
5 9 -5 3.27 0.15
5 9 -5 3.24 0.16
-5 9 5 3.48 0.14
-4 -9 5 5.55 0.18
-4 -9 5 5.4 0.22
4 -9 -5 5.48 0.18
-4 -9 5 5.68 0.21
4 -9 -5 5.77 0.2
4 -9 -5 5.68 0.19
-4 -9 5 5.35 0.19
4 9 -5 5.9 0.21
-4 9 5 5.44 0.2
4 9 -5 5.39 0.21
-4 9 5 5.61 0.2
-4 9 5 5.85 0.18
4 9 -5 5.85 0.2
-4 9 5 5.66 0.19
4 9 -5 5.91 0.21
3 -9 -5 6.18 0.19
3 -9 -5 6.09 0.2
-3 -9 5 6.09 0.23
-3 -9 5 6.22 0.22
-3 -9 5 6.11 0.2
-3 -9 5 6.09 0.21
3 9 -5 6.22 0.22
-3 9 5 6.41 0.21
-3 9 5 6.3 0.19
-3 9 5 6.22 0.22
-3 9 5 6.46 0.21
3 9 -5 6.13 0.21
3 9 -5 5.95 0.21
3 9 -5 6.54 0.23
-3 9 5 6.35 0.21
-3 9 5 5.86 0.21
-2 -9 5 5.21 0.18
-2 -9 5 5.01 0.17
2 9 -5 4.66 0.19
-2 9 5 5.3 0.18
2 9 -5 4.83 0.17
2 9 -5 5.14 0.18
2 9 -5 5.08 0.18
-2 9 5 4.68 0.18
-2 9 5 5.29 0.17
-2 9 5 4.96 0.17
2 9 -5 4.89 0.19
-2 9 5 4.89 0.17
-1 -9 5 2.63 0.09
1 -9 -5 2.73 0.1
1 -9 -5 2.46 0.08
-1 -9 5 2.68 0.11
1 9 -5 2.5 0.11
1 9 -5 2.55 0.11
-1 9 5 2.36 0.1
-1 9 5 2.7 0.1
1 9 -5 2.76 0.11
-1 9 5 2.53 0.1
1 9 -5 2.4 0.12
1 9 -5 2.6 0.11
-1 9 5 2.43 0.11
0 -9 -5 2.36 0.09
0 -9 5 2.46 0.1
0 -9 5 2.44 0.09
0 -9 5 2.25 0.12
0 -9 -5 2.29 0.08
0 -9 5 2.38 0.09
0 -9 5 2.51 0.1
0 9 5 2.48 0.1
0 9 -5 2.52 0.1
0 9 -5 2.58 0.12
0 9 -5 2.41 0.11
0 9 -5 2.46 0.11
0 9 5 2.56 0.1
0 9 5 2.57 0.1
0 9 5 2.35 0.1
0 9 -5 2.43 0.1
0 9 5 2.42 0.1
1 -9 5 9.92 0.29
-1 -9 -5 9.48 0.29
-1 -9 -5 10.11 0.3
1 -9 5 9.83 0.32
1 -9 5 9.94 0.3
1 -9 5 9.55 0.33
-1 9 -5 9.45 0.32
1 9 5 9.97 0.3
-1 9 -5 9.7 0.3
1 9 5 9.92 0.31
-1 9 -5 9.59 0.32
1 9 5 9.64 0.31
1 9 5 9.95 0.3
-1 9 -5 9.85 0.34
-1 9 -5 9.56 0.35
2 -9 5 0.97 0.07
2 -9 5 1.12 0.05
-2 -9 -5 1.01 0.06
-2 -9 -5 1.03 0.05
2 -9 5 0.99 0.07
2 -9 5 1.06 0.07
-2 9 -5 1.13 0.08
2 9 5 1 0.07
-2 9 -5 1.09 0.06
-2 9 -5 1.11 0.07
2 9 5 0.9 0.07
-2 9 -5 1.06 0.06
2 9 5 1 0.05
-2 9 -5 1 0.07
2 9 5 0.98 0.06
-2 9 -5 0.99 0.06
3 -9 5 0.53 0.05
3 -9 5 0.57 0.09
-3 -9 -5 0.5 0.04
3 -9 5 0.44 0.06
3 -9 5 0.42 0.05
-3 -9 -5 0.5 0.05
3 9 5 0.52 0.06
3 9 5 0.43 0.04
3 9 5 0.37 0.06
-3 9 -5 0.34 0.07
-3 9 -5 0.5 0.06
-3 9 -5 0.5 0.05
-3 9 -5 0.45 0.07
-3 9 -5 0.41 0.05
4 -9 5 3.74 0.16
-4 -9 -5 3.95 0.14
4 -9 5 4.07 0.14
4 -9 5 3.78 0.13
-4 -9 -5 3.85 0.13
4 -9 5 3.59 0.16
-4 9 -5 3.77 0.14
-4 9 -5 3.71 0.14
-4 9 -5 3.9 0.17
4 9 5 3.96 0.15
-4 9 -5 3.77 0.15
4 9 5 3.82 0.15
-4 9 -5 3.83 0.18
5 -9 5 3.58 0.14
-5 -9 -5 3.8 0.14
5 -9 5 3.26 0.19
-5 -9 -5 3.81 0.13
5 -9 5 3.44 0.16
5 -9 5 3.59 0.13
5 9 5 3.69 0.15
-5 9 -5 3.75 0.14
-6 -9 -5 2.27 0.1
-6 -9 -5 2.14 0.1
6 -9 5 2.05 0.09
6 -9 5 2.19 0.1
6 9 5 2.04 0.12
-6 9 -5 2.11 0.11
-7 -9 -5 0.9 0.07
-7 -9 -5 0.89 0.09
7 -9 5 1.04 0.07
7 -9 5 0.92 0.08
7 9 5 1.04 0.1
-7 9 -5 0.93 0.08
-8 -9 -5 0.17 0.05
-8 -9 -5 0.07 0.03
-8 9 -5 0.06 0.02
8 9 5 0.12 0.06
-8 9 -5 0.1 0.03
8 9 5 0.13 0.04
8 -10 -5 0.05 0.02
-8 -10 5 0.02 0.02
-8 10 5 0.02 0.03
-8 10 5 0.1 0.04
8 10 -5 0.04 0.03
-7 -10 5 2.11 0.11
-7 -10 5 1.78 0.17
7 -10 -5 2.16 0.11
7 -10 -5 2.04 0.09
-7 -10 5 2.12 0.11
-7 10 5 2.34 0.12
7 10 -5 1.92 0.11
-7 10 5 2.06 0.11
-7 10 5 2.18 0.12
6 -10 -5 0.85 0.11
6 -10 -5 1 0.07
6 -10 -5 0.94 0.09
-6 -10 5 0.81 0.16
-6 10 5 0.94 0.09
-6 10 5 0.92 0.09
-6 10 5 1.1 0.09
-5 -10 5 0.35 0.07
-5 -10 5 0.46 0.06
5 -10 -5 0.5 0.09
-5 10 5 0.39 0.08
5 10 -5 0.32 0.09
5 10 -5 0.43 0.1
-5 10 5 0.43 0.07
-5 10 5 0.32 0.08
-4 -10 5 1.38 0.14
-4 -10 5 1.29 0.08
4 -10 -5 1.4 0.08
4 -10 -5 1.2 0.08
4 -10 -5 1.24 0.06
-4 -10 5 1.39 0.08
-4 -10 5 1.32 0.07
4 10 -5 1.21 0.09
4 10 -5 1.16 0.1
-4 10 5 1.2 0.08
4 10 -5 1.38 0.09
-4 10 5 1.18 0.08
-4 10 5 1.25 0.09
-4 10 5 1.28 0.08
4 10 -5 1.4 0.1
-3 -10 5 0.33 0.05
-3 -10 5 0.28 0.04
3 -10 -5 0.28 0.04
-3 -10 5 0.34 0.05
3 -10 -5 0.34 0.06
3 10 -5 0.34 0.06
3 10 -5 0.35 0.06
-3 10 5 0.3 0.06
-3 10 5 0.43 0.06
3 10 -5 0.33 0.06
-3 10 5 0.33 0.06
-3 10 5 0.36 0.06
3 10 -5 0.23 0.08
-3 10 5 0.29 0.05
2 -10 -5 18.37 0.55
2 -10 -5 19.42 0.57
-2 -10 5 19.19 0.62
-2 -10 5 18.04 0.6
-2 -10 5 19.97 0.57
2 10 -5 20.33 0.62
-2 10 5 20.08 0.57
-2 10 5 18.62 0.59
2 10 -5 18.86 0.6
2 10 -5 18.55 0.62
2 10 -5 18.9 0.58
-2 10 5 19.9 0.59
2 10 -5 18.68 0.63
1 -10 -5 1.7 0.08
-1 -10 5 1.96 0.07
-1 -10 5 1.99 0.09
-1 -10 5 1.95 0.08
-1 10 5 1.95 0.09
-1 10 5 1.81 0.1
1 10 -5 1.89 0.1
1 10 -5 1.78 0.1
-1 10 5 1.72 0.09
-1 10 5 1.95 0.09
-1 10 5 1.71 0.09
1 10 -5 2.04 0.09
1 10 -5 1.83 0.1
0 -10 5 2.32 0.1
0 -10 5 2.41 0.09
0 -10 -5 2.19 0.09
0 -10 5 2.44 0.1
0 10 5 2.32 0.1
0 10 -5 2.28 0.11
0 10 5 2.22 0.09
0 10 -5 2.3 0.1
0 10 5 2.11 0.1
0 10 5 2.07 0.09
0 10 5 2.18 0.1
-1 -10 -5 3.56 0.13
1 -10 5 3.7 0.14
1 -10 5 3.82 0.13
-1 -10 -5 3.67 0.12
1 -10 5 3.88 0.15
1 -10 5 3.84 0.14
1 -10 5 3.74 0.12
-1 10 -5 3.93 0.16
1 10 5 3.76 0.14
1 10 5 3.91 0.14
1 10 5 3.66 0.14
-1 10 -5 3.98 0.14
-1 10 -5 3.72 0.14
-1 10 -5 3.9 0.16
1 10 5 3.79 0.15
1 10 5 3.89 0.14
-1 10 -5 3.94 0.15
2 -10 5 1.56 0.07
2 -10 5 1.72 0.09
2 -10 5 1.62 0.09
-2 -10 -5 1.68 0.07
-2 -10 -5 1.73 0.08
2 -10 5 1.67 0.07
-2 10 -5 1.71 0.09
-2 10 -5 1.81 0.08
-2 10 -5 1.49 0.1
2 10 5 1.78 0.08
2 10 5 1.63 0.09
2 10 5 1.7 0.09
-2 10 -5 1.74 0.1
-2 10 -5 1.73 0.09
2 10 5 1.73 0.09
-2 10 -5 1.62 0.08
3 -10 5 2.71 0.13
-3 -10 -5 2.67 0.1
-3 -10 -5 2.77 0.1
3 -10 5 2.67 0.11
3 -10 5 2.67 0.13
3 -10 5 2.64 0.1
-3 10 -5 2.76 0.12
-3 10 -5 2.75 0.11
-3 10 -5 2.66 0.13
3 10 5 2.56 0.1
3 10 5 2.68 0.12
3 10 5 2.83 0.12
3 10 5 2.43 0.12
-3 10 -5 2.77 0.11
-3 10 -5 2.75 0.12
3 10 5 2.8 0.12
-3 10 -5 2.5 0.13
4 -10 5 1.03 0.09
-4 -10 -5 0.93 0.06
-4 -10 -5 0.99 0.07
4 -10 5 1.05 0.07
4 -10 5 1.01 0.07
4 -10 5 0.94 0.1
4 10 5 0.87 0.08
4 10 5 0.87 0.06
-4 10 -5 1.04 0.11
4 10 5 1.09 0.08
-4 10 -5 1.09 0.1
-4 10 -5 0.92 0.07
-4 10 -5 1.05 0.08
5 -10 5 0.99 0.08
-5 -10 -5 1.04 0.08
5 -10 5 1.11 0.07
-5 -10 -5 1.05 0.07
5 10 5 1.14 0.09
-5 10 -5 1.22 0.09
-5 10 -5 0.95 0.13
-5 10 -5 1.08 0.08
-5 10 -5 1.11 0.1
6 -10 5 2.47 0.11
-6 -10 -5 2.52 0.11
6 -10 5 2.58 0.11
-6 -10 -5 2.63 0.11
-6 10 -5 2.46 0.12
-6 10 -5 2.27 0.15
6 10 5 2.39 0.12
-7 -10 -5 0.89 0.07
7 -10 5 0.85 0.08
-7 -10 -5 0.88 0.07
7 -10 5 1.01 0.08
-7 -10 -5 0.83 0.09
7 10 5 0.68 0.09
-7 10 -5 0.81 0.08
7 10 5 0.66 0.09
-8 -10 -5 1.12 0.06
8 10 5 1.01 0.11
-8 10 -5 1.06 0.09
-8 -11 5 0.18 0.06
8 -11 -5 0.18 0.05
-8 11 5 0.31 0.06
-8 11 5 0.2 0.05
7 -11 -5 0.08 0.02
7 -11 -5 0.11 0.03
-7 -11 5 0.19 0.06
-7 11 5 0.24 0.08
-7 11 5 0.18 0.05
7 11 -5 0.09 0.04
6 -11 -5 0.48 0.08
6 -11 -5 0.46 0.06
6 11 -5 0.48 0.09
-6 11 5 0.55 0.08
-6 11 5 0.51 0.08
-6 11 5 0.47 0.08
5 -11 -5 1.3 0.08
5 -11 -5 1.4 0.09
5 -11 -5 1.48 0.11
-5 -11 5 1.46 0.1
-5 -11 5 1.62 0.08
-5 11 5 1.58 0.1
5 11 -5 1.44 0.11
-5 11 5 1.38 0.1
5 11 -5 1.52 0.12
-5 11 5 1.35 0.1
-5 11 5 1.58 0.1
-4 -11 5 3.34 0.13
-4 -11 5 3.13 0.14
4 -11 -5 3.31 0.12
-4 -11 5 3.22 0.12
4 -11 -5 3.14 0.14
4 -11 -5 3.1 0.13
-4 11 5 3.05 0.14
4 11 -5 3.14 0.14
-4 11 5 3.29 0.14
4 11 -5 3.11 0.15
-4 11 5 3 0.13
4 11 -5 3.22 0.15
4 11 -5 3.12 0.14
-3 -11 5 1.61 0.08
-3 -11 5 1.49 0.07
3 -11 -5 1.52 0.08
-3 -11 5 1.46 0.08
3 -11 -5 1.45 0.06
3 11 -5 1.53 0.1
-3 11 5 1.51 0.09
-3 11 5 1.57 0.09
-3 11 5 1.36 0.08
-3 11 5 1.37 0.09
3 11 -5 1.51 0.11
3 11 -5 1.39 0.09
-3 11 5 1.53 0.09
3 11 -5 1.45 0.08
-2 -11 5 0.71 0.06
-2 -11 5 0.81 0.06
-2 -11 5 0.72 0.05
2 -11 -5 0.73 0.07
2 11 -5 0.66 0.08
-2 11 5 0.88 0.07
2 11 -5 0.81 0.08
-2 11 5 0.71 0.06
-2 11 5 0.83 0.07
-2 11 5 0.84 0.07
2 11 -5 0.68 0.06
2 11 -5 0.75 0.06
-1 -11 5 9.51 0.32
-1 -11 5 9.51 0.28
-1 -11 5 9.58 0.3
-1 -11 5 9.37 0.32
1 11 -5 9.18 0.34
1 11 -5 9.57 0.34
1 11 -5 9.5 0.32
1 11 -5 9.69 0.31
-1 11 5 9.38 0.31
1 11 -5 9.74 0.32
-1 11 5 9.6 0.31
1 11 -5 9.55 0.3
-1 11 5 9.5 0.3
-1 11 5 9.19 0.3
-1 11 5 8.83 0.29
0 -11 5 1.15 0.07
0 -11 5 1.19 0.06
0 -11 5 1.19 0.06
0 11 -5 0.97 0.08
0 11 -5 1.24 0.07
0 11 -5 1.19 0.09
0 11 5 1.13 0.07
0 11 5 1.13 0.07
0 11 -5 1.11 0.07
0 11 5 1.08 0.08
-1 -11 -5 3.81 0.13
1 -11 5 3.85 0.15
1 -11 5 3.86 0.13
-1 -11 -5 3.74 0.13
1 -11 5 3.92 0.15
-1 11 -5 3.59 0.16
1 11 5 3.58 0.14
-1 11 -5 3.9 0.15
1 11 5 3.92 0.15
1 11 5 3.93 0.14
-1 11 -5 3.99 0.15
-1 11 -5 3.72 0.14
-1 11 -5 4 0.17
1 11 5 3.71 0.15
2 -11 5 0.77 0.06
-2 -11 -5 0.77 0.06
-2 -11 -5 0.8 0.05
2 -11 5 0.84 0.05
2 -11 5 0.7 0.07
2 -11 5 0.75 0.08
2 11 5 0.77 0.07
-2 11 -5 0.74 0.07
-2 11 -5 0.77 0.07
2 11 5 0.83 0.07
-2 11 -5 0.77 0.06
2 11 5 0.88 0.07
2 11 5 0.75 0.07
3 -11 5 1.15 0.09
3 -11 5 1.27 0.06
-3 -11 -5 1.14 0.06
-3 -11 -5 1.07 0.07
3 -11 5 1.19 0.07
-3 11 -5 1 0.1
-3 11 -5 1.18 0.1
3 11 5 1.12 0.1
-3 11 -5 1.21 0.08
3 11 5 1.25 0.08
-3 11 -5 1.2 0.07
-3 11 -5 1.19 0.07
3 11 5 1.23 0.08
3 11 5 1.2 0.08
-3 11 -5 1.35 0.08
4 -11 5 0.25 0.08
-4 -11 -5 0.14 0.03
4 -11 5 0.01 0.08
-4 11 -5 0.36 0.11
-4 11 -5 0.27 0.1
5 -11 5 0.21 0.06
-5 -11 -5 0.28 0.07
-5 -11 -5 0.22 0.06
5 11 5 0.23 0.07
-5 11 -5 0.27 0.08
5 11 5 0.25 0.07
-5 11 -5 0.32 0.08
-5 11 -5 0.29 0.07
-5 11 -5 0.41 0.14
6 -11 5 3.89 0.15
-6 -11 -5 3.92 0.14
6 -11 5 3.77 0.14
-6 -11 -5 3.97 0.15
6 11 5 3.58 0.16
-6 11 -5 3.69 0.15
-6 11 -5 3.77 0.16
6 11 5 3.77 0.16
-6 11 -5 3.52 0.18
-7 -11 -5 1.08 0.09
-7 -11 -5 1.23 0.08
7 -11 5 1.39 0.08
-7 -11 -5 1.33 0.07
-7 11 -5 1.17 0.09
-7 11 -5 1.09 0.09
-8 -11 -5 0.72 0.06
8 -11 5 0.81 0.06
-8 11 -5 0.79 0.09
8 -12 -5 0.69 0.05
-8 -12 5 0.64 0.06
7 -12 -5 0.24 0.08
7 -12 -5 0.17 0.02
-7 -12 5 0.15 0.03
-7 12 5 0.28 0.07
-7 12 5 0.21 0.07
6 -12 -5 0.07 0.03
6 -12 -5 0.05 0.02
-6 12 5 0.1 0.04
-6 12 5 0.08 0.04
6 12 -5 0.1 0.05
-5 -12 5 0.53 0.07
-5 -12 5 0.63 0.06
5 -12 -5 0.5 0.06
5 -12 -5 0.62 0.08
5 -12 -5 0.66 0.1
5 12 -5 0.52 0.09
5 12 -5 0.55 0.1
-5 12 5 0.63 0.08
-5 12 5 0.6 0.08
5 12 -5 0.58 0.09
-5 12 5 0.57 0.07
-5 12 5 0.42 0.07
-4 -12 5 2.75 0.13
4 -12 -5 2.74 0.11
4 -12 -5 2.55 0.13
4 -12 -5 2.68 0.12
-4 12 5 2.59 0.14
4 12 -5 2.98 0.14
4 12 -5 2.75 0.14
4 12 -5 2.92 0.13
3 -12 -5 3.06 0.13
-3 -12 5 2.98 0.13
-3 -12 5 3.16 0.13
3 -12 -5 3.2 0.11
-3 -12 5 3.13 0.12
-3 12 5 3.34 0.14
-3 12 5 3.21 0.14
-3 12 5 3.16 0.13
3 12 -5 3.15 0.14
-3 12 5 3.26 0.14
3 12 -5 3.09 0.13
3 12 -5 3.17 0.15
-3 12 5 3.14 0.13
2 -12 -5 5.68 0.18
-2 -12 5 5.61 0.2
-2 -12 5 5.7 0.18
-2 -12 5 5.72 0.19
-2 12 5 5.46 0.2
2 12 -5 5.62 0.21
2 12 -5 5.36 0.2
-2 12 5 5.63 0.2
2 12 -5 5.71 0.22
-2 12 5 5.69 0.2
2 12 -5 5.62 0.2
-2 12 5 5.78 0.21
-2 12 5 5.66 0.19
-1 -12 5 0.43 0.05
-1 -12 5 0.4 0.05
-1 -12 5 0.37 0.04
-1 -12 5 0.39 0.05
-1 12 5 0.4 0.06
1 12 -5 0.36 0.06
1 12 -5 0.35 0.06
-1 12 5 0.44 0.06
1 12 -5 0.44 0.08
-1 12 5 0.24 0.07
0 -12 5 2 0.08
0 -12 5 2.02 0.08
0 12 5 2.03 0.09
0 12 -5 1.74 0.11
0 12 5 2.03 0.1
0 12 5 1.82 0.09
0 12 -5 1.81 0.11
0 12 -5 1.82 0.1
0 12 -5 2 0.09
1 -12 5 0.53 0.06
1 -12 5 0.58 0.06
1 -12 5 0.65 0.05
-1 -12 -5 0.48 0.05
1 -12 5 0.62 0.05
-1 12 -5 0.53 0.06
-1 12 -5 0.58 0.06
1 12 5 0.54 0.07
-1 12 -5 0.54 0.06
1 12 5 0.56 0.06
1 12 5 0.52 0.06
-1 12 -5 0.47 0.08
1 12 5 0.6 0.08
1 12 5 0.65 0.07
2 -12 5 4.59 0.19
-2 -12 -5 4.53 0.16
-2 -12 -5 4.66 0.15
2 -12 5 4.73 0.16
2 -12 5 4.66 0.15
2 -12 5 4.62 0.18
2 -12 5 4.46 0.19
2 12 5 4.57 0.17
2 12 5 4.83 0.17
-2 12 -5 4.51 0.16
-2 12 -5 4.76 0.18
-2 12 -5 4.77 0.18
2 12 5 4.54 0.17
-2 12 -5 4.52 0.2
-2 12 -5 4.41 0.19
2 12 5 4.81 0.17
3 -12 5 2.56 0.11
3 -12 5 2.68 0.13
-3 -12 -5 2.44 0.1
3 -12 5 2.6 0.1
-3 -12 -5 2.35 0.11
-3 12 -5 2.71 0.14
3 12 5 2.68 0.12
-3 12 -5 2.57 0.12
-3 12 -5 2.63 0.12
-3 12 -5 2.58 0.11
3 12 5 2.57 0.12
3 12 5 2.6 0.12
-4 -12 -5 3.29 0.13
4 -12 5 3.42 0.12
4 -12 5 3.51 0.14
-4 -12 -5 3.36 0.13
4 -12 5 3.34 0.16
-4 12 -5 3.26 0.15
4 12 5 3.53 0.14
4 12 5 3.5 0.15
-4 12 -5 3.44 0.13
-4 12 -5 3.43 0.14
-4 12 -5 3.43 0.18
-4 12 -5 3.5 0.15
4 12 5 3.27 0.15
-5 -12 -5 6.18 0.2
5 -12 5 5.78 0.2
5 -12 5 5.85 0.19
-5 -12 -5 5.92 0.2
5 12 5 5.87 0.22
-5 12 -5 5.84 0.22
-5 12 -5 5.38 0.22
5 12 5 5.64 0.22
-5 12 -5 6.04 0.2
-5 12 -5 5.91 0.21
6 -12 5 0.47 0.06
-6 -12 -5 0.44 0.06
-6 -12 -5 0.54 0.06
6 -12 5 0.52 0.07
-6 12 -5 0.59 0.08
-6 12 -5 0.38 0.07
6 12 5 0.43 0.08
-6 12 -5 0.33 0.11
6 12 5 0.44 0.09
-7 -12 -5 0.34 0.05
7 -12 5 0.24 0.06
-7 -12 -5 0.22 0.07
-7 -12 -5 0.36 0.06
7 12 5 0.33 0.07
-7 -13 5 0 0.03
-7 -13 5 0.06 0.03
7 -13 -5 0.04 0.02
7 -13 -5 -0.01 0.03
-7 13 5 0.01 0.03
6 -13 -5 -0.02 0.03
6 13 -5 0.02 0.05
-6 13 5 0.02 0.04
-6 13 5 0.02 0.03
-6 13 5 0.01 0.03
-5 -13 5 0.04 0.02
-5 -13 5 0.01 0.03
5 -13 -5 0.01 0.03
5 -13 -5 0.05 0.02
-5 13 5 0.05 0.04
-5 13 5 0.05 0.03
-5 13 5 0.06 0.03
5 13 -5 0.06 0.04
5 13 -5 0.04 0.05
-5 13 5 0.04 0.03
4 -13 -5 1.47 0.13
-4 -13 5 1.42 0.09
4 -13 -5 1.44 0.07
4 13 -5 1.56 0.12
-4 13 5 1.32 0.09
-4 13 5 1.54 0.1
-4 13 5 1.42 0.1
4 13 -5 1.55 0.1
4 13 -5 1.41 0.1
-4 13 5 1.44 0.1
-3 -13 5 3.58 0.15
3 -13 -5 3.57 0.12
-3 -13 5 3.67 0.14
-3 -13 5 3.54 0.13
-3 13 5 3.73 0.15
-3 13 5 3.55 0.15
3 13 -5 3.71 0.15
3 13 -5 3.8 0.17
-3 13 5 3.54 0.16
-3 13 5 3.69 0.15
3 13 -5 3.54 0.15
-3 13 5 3.58 0.16
-2 -13 5 0.79 0.05
-2 -13 5 0.82 0.06
2 13 -5 0.75 0.07
2 13 -5 0.62 0.07
-2 13 5 0.72 0.08
2 13 -5 0.74 0.07
-2 13 5 0.63 0.07
2 13 -5 0.81 0.09
-2 13 5 0.84 0.07
-2 13 5 0.74 0.07
-1 -13 5 1.05 0.07
-1 -13 5 1.01 0.06
-1 -13 5 1 0.07
-1 -13 5 0.94 0.07
1 13 -5 1.05 0.09
-1 13 5 1.03 0.08
-1 13 5 1.07 0.07
1 13 -5 0.93 0.08
-1 13 5 0.86 0.07
1 13 -5 0.88 0.07
-1 13 5 0.98 0.09
1 13 -5 0.85 0.07
-1 13 5 1.1 0.07
0 -13 5 5.32 0.17
0 -13 5 5.26 0.2
0 -13 5 5.37 0.18
0 -13 5 5.47 0.2
0 13 5 5.11 0.19
0 13 -5 5.12 0.2
0 13 -5 5.4 0.2
0 13 5 5.3 0.19
0 13 5 5.61 0.19
0 13 -5 5.29 0.22
0 13 5 5.45 0.19
0 13 -5 5.48 0.21
0 13 5 5.5 0.19
0 13 -5 4.94 0.22
0 13 -5 5.13 0.2
1 -13 5 3.9 0.15
1 -13 5 3.7 0.16
1 -13 5 3.61 0.13
1 -13 5 3.48 0.16
-1 -13 -5 3.48 0.13
1 -13 5 3.77 0.13
-1 13 -5 3.93 0.14
1 13 5 3.73 0.15
-1 13 -5 3.51 0.15
-1 13 -5 3.59 0.17
1 13 5 3.75 0.15
-1 13 -5 3.81 0.17
1 13 5 3.82 0.15
1 13 5 3.66 0.14
-1 13 -5 3.65 0.15
2 -13 5 0.36 0.05
2 -13 5 0.37 0.08
2 -13 5 0.36 0.04
2 -13 5 0.28 0.07
-2 -13 -5 0.41 0.05
2 13 5 0.31 0.09
-2 13 -5 0.28 0.06
-2 13 -5 0.38 0.06
-2 13 -5 0.41 0.07
2 13 5 0.44 0.06
3 -13 5 2.27 0.12
-3 -13 -5 2.14 0.1
3 -13 5 2.16 0.09
-3 13 -5 2.09 0.1
-3 13 -5 2.1 0.12
3 13 5 2.12 0.11
3 13 5 2.21 0.11
4 -13 5 1.91 0.1
-4 -13 -5 1.57 0.09
4 -13 5 1.5 0.12
4 -13 5 1.82 0.08
-4 -13 -5 1.66 0.08
4 13 5 1.71 0.11
-4 13 -5 1.92 0.11
4 13 5 1.74 0.11
-4 13 -5 1.72 0.1
4 13 5 1.82 0.1
-4 13 -5 1.84 0.16
-4 13 -5 1.77 0.11
-5 -13 -5 2.34 0.11
5 -13 5 2.48 0.11
5 -13 5 2.33 0.1
-5 -13 -5 2.51 0.1
-5 13 -5 2.55 0.13
-5 13 -5 2.27 0.15
-5 13 -5 2.23 0.13
5 13 5 2.43 0.12
-6 -13 -5 0.89 0.08
-6 -13 -5 0.9 0.09
-6 -13 -5 0.92 0.06
6 -13 5 0.88 0.06
6 13 5 0.77 0.08
-6 13 -5 0.84 0.09
7 -13 5 0.6 0.06
-7 -13 -5 0.4 0.07
-7 -13 -5 0.61 0.05
7 -13 5 0.56 0.07
7 13 5 0.47 0.07
-7 13 -5 0.45 0.08
-7 -14 5 0.05 0.02
7 -14 -5 0.04 0.02
7 -14 -5 -0.01 0.05
-7 -14 5 0.04 0.03
-7 14 5 0.03 0.04
-7 14 5 0.1 0.03
6 -14 -5 0.1 0.02
-6 14 5 0.09 0.04
-6 14 5 0.05 0.03
-5 -14 5 0.55 0.06
-5 -14 5 0.4 0.07
5 -14 -5 0.6 0.06
-5 14 5 0.5 0.08
-5 14 5 0.47 0.07
5 14 -5 0.62 0.11
-5 14 5 0.48 0.08
-5 14 5 0.69 0.08
-4 -14 5 3.4 0.13
-4 -14 5 3.29 0.14
4 -14 -5 3.17 0.12
-4 14 5 3.4 0.15
-4 14 5 3.38 0.14
4 14 -5 3.15 0.15
4 14 -5 3.4 0.15
-4 14 5 3.46 0.15
-3 -14 5 1.26 0.11
-3 -14 5 1.32 0.08
-3 -14 5 1.38 0.09
-3 14 5 1.39 0.1
3 14 -5 1.46 0.1
-3 14 5 1.42 0.1
-3 14 5 1.46 0.1
3 14 -5 1.43 0.1
-3 14 5 1.41 0.09
3 14 -5 1.32 0.11
-2 -14 5 5.9 0.2
-2 -14 5 5.66 0.18
-2 14 5 5.53 0.2
2 14 -5 5.37 0.21
-2 14 5 5.4 0.21
2 14 -5 5.54 0.21
-2 14 5 5.41 0.2
2 14 -5 5.85 0.22
-2 14 5 5.69 0.21
-1 -14 5 3.32 0.11
-1 -14 5 3.42 0.14
-1 -14 5 2.93 0.14
-1 -14 5 3.25 0.13
-1 14 5 3.18 0.14
1 14 -5 3.04 0.16
-1 14 5 3.23 0.13
-1 14 5 3.2 0.14
1 14 -5 3.12 0.14
-1 14 5 3.13 0.14
-1 14 5 3.15 0.13
1 14 -5 3.18 0.14
1 14 -5 3.01 0.14
0 -14 5 9.88 0.3
0 -14 5 10.04 0.31
0 -14 5 9.6 0.34
0 -14 5 9.8 0.34
0 14 5 9.25 0.31
0 14 -5 9.75 0.32
0 14 5 9.72 0.31
0 14 -5 9.42 0.35
0 14 -5 9.84 0.33
0 14 5 10.39 0.32
0 14 5 9.58 0.32
0 14 5 9.94 0.31
1 -14 5 4.04 0.16
1 -14 5 3.82 0.13
1 -14 5 3.81 0.17
1 -14 5 3.77 0.14
-1 -14 -5 3.61 0.13
1 -14 5 3.81 0.18
1 14 5 3.7 0.15
-1 14 -5 3.83 0.16
-1 14 -5 3.58 0.16
1 14 5 3.76 0.15
-1 14 -5 3.57 0.14
-1 14 -5 3.77 0.18
1 14 5 3.73 0.16
1 14 5 3.84 0.15
1 14 5 3.8 0.15
-1 14 -5 3.83 0.15
2 -14 5 0.85 0.08
-2 -14 -5 0.76 0.06
2 14 5 0.9 0.11
3 -14 5 1.28 0.08
3 -14 5 1.2 0.07
-3 -14 -5 1.15 0.09
-3 -14 -5 1.13 0.07
-3 14 -5 1.24 0.1
-3 14 -5 1.25 0.09
-3 14 -5 1.27 0.14
3 14 5 1.31 0.09
3 14 5 1.36 0.09
-3 14 -5 1.25 0.09
3 14 5 1.25 0.09
4 -14 5 3.13 0.13
4 -14 5 3.1 0.12
4 -14 5 2.95 0.15
-4 -14 -5 2.85 0.13
-4 -14 -5 3.2 0.12
-4 14 -5 3.16 0.15
4 14 5 3.17 0.14
-4 14 -5 3.39 0.15
-4 14 -5 2.79 0.2
4 14 5 3.3 0.14
4 14 5 2.94 0.14
-4 14 -5 2.94 0.14
5 -14 5 0.23 0.05
-5 -14 -5 0.28 0.05
5 -14 5 0.33 0.07
-5 14 -5 0.54 0.14
-5 14 -5 0.25 0.07
5 14 5 0.34 0.07
-5 14 -5 0.35 0.09
-6 -14 -5 0.33 0.09
6 -14 5 0.25 0.05
-6 -14 -5 0.22 0.08
6 -14 5 0.3 0.06
-6 14 -5 0.28 0.08
6 14 5 0.24 0.07
-6 14 -5 0.14 0.06
-7 -14 -5 0.35 0.09
7 -14 5 0.34 0.07
7 -14 5 0.42 0.06
-7 -14 -5 0.32 0.05
7 14 5 0.4 0.07
7 -15 -5 0.38 0.05
-7 15 5 0.39 0.08
-7 15 5 0.32 0.06
6 -15 -5 0.45 0.05
-6 -15 5 0.47 0.07
6 15 -5 0.35 0.1
-6 15 5 0.57 0.07
-5 -15 5 1.59 0.1
-5 -15 5 1.76 0.09
5 -15 -5 1.78 0.08
-5 15 5 1.86 0.1
5 15 -5 1.67 0.12
-5 15 5 1.93 0.1
5 15 -5 1.7 0.13
-5 15 5 1.85 0.11
-5 15 5 1.68 0.11
-4 -15 5 2.37 0.1
-4 -15 5 2.24 0.12
4 -15 -5 2.32 0.1
-4 15 5 2.54 0.13
-4 15 5 2.37 0.12
-4 15 5 2.31 0.12
4 15 -5 2.26 0.13
4 15 -5 2.32 0.13
-4 15 5 2.35 0.12
-3 -15 5 2.32 0.1
3 -15 -5 2.29 0.1
-3 -15 5 2.21 0.11
-3 15 5 2.18 0.12
-3 15 5 2.43 0.12
-3 15 5 2.3 0.12
-3 15 5 2.22 0.12
3 15 -5 2.38 0.12
3 15 -5 2.34 0.13
-3 15 5 2.39 0.12
-2 -15 5 6.21 0.2
2 15 -5 6.36 0.23
-2 15 5 6.16 0.22
-2 15 5 6.16 0.22
-2 15 5 6.73 0.23
2 15 -5 6.09 0.23
2 15 -5 6.45 0.23
2 15 -5 6.01 0.24
-2 15 5 5.99 0.22
-1 -15 5 3.89 0.18
-1 -15 5 4.28 0.18
-1 15 5 4.09 0.17
1 15 -5 4.04 0.19
-1 15 5 4.04 0.17
1 15 -5 4.11 0.18
1 15 -5 4.3 0.17
0 -15 5 1.26 0.11
0 -15 5 1.22 0.08
0 15 5 1.35 0.09
1 -15 5 1.13 0.07
1 -15 5 1.39 0.09
1 15 5 1.08 0.09
1 15 5 1.17 0.09
-1 15 -5 1.16 0.1
-1 15 -5 1.35 0.09
-1 15 -5 1.25 0.09
-2 -15 -5 1.81 0.09
2 -15 5 1.62 0.09
2 -15 5 1.79 0.08
-2 15 -5 1.69 0.1
-2 15 -5 1.76 0.11
2 15 5 1.82 0.11
2 15 5 1.79 0.1
2 15 5 1.78 0.1
-2 15 -5 1.75 0.1
-2 15 -5 1.66 0.1
-3 -15 -5 4.78 0.16
3 -15 5 4.58 0.19
3 -15 5 4.69 0.17
3 -15 5 4.72 0.16
3 15 5 4.77 0.18
-3 15 -5 4.79 0.17
-3 15 -5 4.32 0.19
3 15 5 4.65 0.18
3 15 5 4.75 0.18
-3 15 -5 4.57 0.19
-3 15 -5 4.47 0.18
-4 -15 -5 0.24 0.06
4 -15 5 0.2 0.05
-4 15 -5 0.2 0.07
4 15 5 0.3 0.07
-4 15 -5 0.36 0.1
4 15 5 0.25 0.07
5 -15 5 0.04 0.02
5 -15 5 0.08 0.03
-5 -15 -5 0.07 0.04
-5 15 -5 0.06 0.02
-5 15 -5 0.03 0.04
5 15 5 0.09 0.03
-6 -15 -5 0.23 0.07
-6 -15 -5 0.13 0.04
6 15 5 0.29 0.06
-6 15 -5 0.17 0.03
6 -16 -5 0.19 0.05
-6 -16 5 0.14 0.03
-6 16 5 0.17 0.04
-6 16 5 0.15 0.03
-6 16 5 0.3 0.09
5 -16 -5 0.56 0.06
-5 -16 5 0.61 0.06
-5 16 5 0.62 0.07
-5 16 5 0.57 0.09
-5 16 5 0.65 0.07
5 16 -5 0.5 0.1
-4 -16 5 1.51 0.1
4 -16 -5 1.59 0.09
-4 -16 5 1.56 0.08
4 16 -5 1.52 0.11
-4 16 5 1.64 0.1
-4 16 5 1.7 0.11
-4 16 5 1.67 0.1
-4 16 5 1.7 0.1
4 16 -5 1.62 0.11
-3 -16 5 0.76 0.07
3 -16 -5 0.75 0.07
-3 -16 5 0.86 0.08
-3 16 5 0.89 0.09
3 16 -5 0.71 0.09
3 16 -5 0.8 0.09
-3 16 5 0.84 0.09
-3 16 5 0.94 0.09
-3 16 5 0.78 0.09
-3 16 5 0.94 0.08
-2 -16 5 0.26 0.05
-2 -16 5 0.36 0.07
-2 16 5 0.32 0.08
-2 16 5 0.28 0.09
2 16 -5 0.28 0.07
-2 16 5 0.31 0.07
2 16 -5 0.24 0.08
-2 16 5 0.34 0.08
-1 -16 5 2.68 0.12
-1 -16 5 2.46 0.1
1 16 -5 2.79 0.13
-1 16 5 2.45 0.14
1 16 -5 2.56 0.13
-1 16 5 2.7 0.13
-1 16 5 2.74 0.13
-1 16 5 2.58 0.13
-1 16 5 2.62 0.13
1 16 -5 2.58 0.13
0 16 5 0.22 0.07
0 16 -5 0.25 0.07
0 16 -5 0.11 0.03
0 16 5 0.13 0.03
0 16 5 0.16 0.04
0 16 5 0.04 0.05
1 -16 5 0.43 0.07
1 -16 5 0.42 0.05
1 16 5 0.31 0.09
1 16 5 0.37 0.08
-1 16 -5 0.26 0.06
-1 16 -5 0.35 0.08
-1 16 -5 0.29 0.08
1 16 5 0.33 0.07
1 16 5 0.3 0.08
2 -16 5 1.34 0.11
-2 -16 -5 1.29 0.08
2 -16 5 1.35 0.07
2 -16 5 1.19 0.08
2 16 5 1.19 0.1
-2 16 -5 1.27 0.1
-2 16 -5 1.2 0.1
2 16 5 1.28 0.09
-2 16 -5 1.24 0.09
2 16 5 1.39 0.1
3 -16 5 0.07 0.04
3 -16 5 0.06 0.03
-3 -16 -5 0.06 0.02
3 -16 5 0.06 0.02
3 16 5 0.04 0.03
3 16 5 0.07 0.03
4 -16 5 0.01 0.06
-4 -16 -5 0.07 0.02
4 -16 5 0.05 0.02
4 -16 5 0.09 0.03
4 16 5 0.09 0.03
-4 16 -5 0.05 0.04
-4 16 -5 0.05 0.02
5 -16 5 1.97 0.09
5 -16 5 1.78 0.1
-5 -16 -5 2.1 0.09
5 16 5 1.88 0.1
5 16 5 2.25 0.15
-5 16 -5 2.03 0.11
-6 -16 -5 0.42 0.05
-6 -16 -5 0.24 0.08
6 -16 5 0.29 0.05
6 16 5 0.35 0.07
-6 16 -5 0.44 0.07
6 -17 -5 0.01 0.02
-6 -17 5 0.05 0.03
-6 17 5 0.06 0.05
-5 -17 5 0.93 0.07
5 -17 -5 0.72 0.07
-5 17 5 0.6 0.09
-5 17 5 0.9 0.07
5 17 -5 0.99 0.11
4 -17 -5 0.51 0.07
-4 -17 5 0.56 0.06
-4 17 5 0.48 0.08
-4 17 5 0.53 0.09
4 17 -5 0.43 0.08
4 17 -5 0.57 0.09
-4 17 5 0.5 0.07
-4 17 5 0.62 0.07
-3 -17 5 0.87 0.06
-3 -17 5 0.79 0.09
3 17 -5 0.83 0.09
-3 17 5 0.88 0.08
-3 17 5 0.92 0.09
-3 17 5 0.75 0.1
-3 17 5 0.79 0.09
3 17 -5 0.94 0.09
-3 17 5 0.79 0.08
-2 -17 5 2.17 0.09
-2 -17 5 2.16 0.11
-2 17 5 2.03 0.11
2 17 -5 2.08 0.12
-2 17 5 2.35 0.12
-2 17 5 2.06 0.12
2 17 -5 2.02 0.12
-2 17 5 2.2 0.14
-2 17 5 2.13 0.11
-1 -17 5 2.25 0.11
-1 -17 5 1.97 0.09
1 17 -5 2.2 0.12
-1 17 5 1.9 0.12
-1 17 5 2.05 0.11
-1 17 5 1.87 0.11
-1 17 5 2.07 0.12
1 17 -5 2.04 0.12
1 17 -5 1.97 0.12
0 -17 5 0.92 0.06
0 -17 5 0.85 0.08
0 17 -5 0.88 0.08
0 17 -5 0.83 0.09
0 17 -5 0.84 0.09
0 17 5 0.75 0.1
0 17 5 0.83 0.09
0 17 5 0.79 0.08
0 17 5 0.76 0.09
1 -17 5 -0.01 0.03
1 -17 5 0.05 0.03
1 -17 5 0.04 0.02
1 17 5 0.01 0.03
1 17 5 -0.05 0.04
-1 17 -5 0.05 0.04
1 17 5 0.02 0.03
-1 17 -5 -0.02 0.03
1 17 5 -0.02 0.03
-1 17 -5 0 0.02
2 -17 5 2.71 0.15
2 -17 5 2.86 0.11
2 -17 5 2.68 0.12
-2 -17 -5 2.84 0.12
-2 17 -5 2.97 0.13
-2 17 -5 2.94 0.14
2 17 5 2.94 0.13
-2 17 -5 2.81 0.14
2 17 5 2.8 0.13
2 17 5 2.9 0.14
-3 -17 -5 0.86 0.07
3 -17 5 0.85 0.06
3 -17 5 0.68 0.13
-3 17 -5 0.74 0.08
3 17 5 0.78 0.08
3 17 5 0.73 0.09
-3 17 -5 0.85 0.11
3 17 5 0.85 0.08
-3 17 -5 0.71 0.09
4 -17 5 2.11 0.11
-4 -17 -5 2.48 0.1
4 -17 5 2.32 0.09
-4 17 -5 2.44 0.12
-4 17 -5 2.14 0.12
4 17 5 2.4 0.12
4 17 5 2.48 0.14
4 17 5 2.35 0.11
-5 -17 -5 0.08 0.03
5 -17 5 0.09 0.02
5 -17 5 0.12 0.03
5 17 5 0.09 0.03
-5 17 -5 0.08 0.05
5 17 5 0.04 0.05
-5 17 -5 0.25 0.08
6 17 5 0.43 0.04
-6 -18 5 0.04 0.02
-6 18 5 -0.01 0.03
-5 -18 5 0 0.03
5 -18 -5 -0.01 0.02
5 18 -5 0.04 0.05
-5 18 5 0.03 0.03
-5 18 5 -0.08 0.05
-5 18 5 -0.02 0.02
-4 -18 5 0.78 0.06
4 -18 -5 0.72 0.08
-4 18 5 0.58 0.08
4 18 -5 0.7 0.09
4 18 -5 0.6 0.08
-4 18 5 0.87 0.08
-4 18 5 0.74 0.07
-3 -18 5 0.6 0.09
-3 18 5 0.72 0.08
-3 18 5 0.88 0.11
-3 18 5 0.63 0.08
3 18 -5 0.73 0.09
-3 18 5 0.72 0.08
3 18 -5 0.69 0.08
-2 -18 5 0.75 0.09
-2 -18 5 0.68 0.06
-2 18 5 0.7 0.09
-2 18 5 0.81 0.09
2 18 -5 0.65 0.09
-2 18 5 0.55 0.09
2 18 -5 0.73 0.09
-2 18 5 0.76 0.08
-1 18 5 0.09 0.04
1 18 -5 0.03 0.03
-1 18 5 0.06 0.03
-1 18 5 0.07 0.03
1 18 -5 0.04 0.03
-1 18 5 0.09 0.05
1 18 -5 0.05 0.02
0 -18 5 0.73 0.09
0 -18 5 0.75 0.11
0 -18 5 0.56 0.06
0 18 -5 0.67 0.09
0 18 5 0.53 0.09
0 18 5 0.46 0.09
0 18 5 0.69 0.08
0 18 -5 0.46 0.08
0 18 5 0.58 0.09
0 18 -5 0.53 0.08
1 -18 5 1.68 0.08
1 -18 5 1.46 0.13
-1 18 -5 1.48 0.11
1 18 5 1.5 0.1
-1 18 -5 1.6 0.1
1 18 5 1.64 0.11
1 18 5 1.54 0.1
-1 18 -5 1.6 0.11
2 -18 5 2.31 0.1
-2 -18 -5 2.07 0.11
2 -18 5 2.23 0.12
2 18 5 2.26 0.12
2 18 5 2.38 0.13
-2 18 -5 2.49 0.12
2 18 5 2.38 0.12
-2 18 -5 2.26 0.13
-2 18 -5 2.52 0.13
3 -18 5 0.45 0.05
3 -18 5 0.48 0.09
-3 -18 -5 0.52 0.07
3 18 5 0.49 0.07
-3 18 -5 0.5 0.07
-3 18 -5 0.38 0.08
-3 18 -5 0.5 0.11
3 18 5 0.4 0.07
3 18 5 0.5 0.1
4 -18 5 0.02 0.04
-4 -18 -5 0.18 0.06
4 -18 5 0.05 0.02
4 18 5 0.1 0.05
4 18 5 0.07 0.03
5 -18 5 0.4 0.11
5 -18 5 0.17 0.02
5 18 5 0.18 0.03
-5 18 -5 0.07 0.05
-5 19 5 0.04 0.03
-5 19 5 0 0.03
-4 19 5 0.29 0.06
4 19 -5 0.36 0.09
-3 -19 5 1.04 0.07
3 19 -5 0.85 0.09
-3 19 5 1.11 0.08
3 19 -5 1.06 0.09
-3 19 5 0.95 0.09
-3 19 5 1.1 0.09
-2 -19 5 1.73 0.08
-2 -19 5 1.64 0.12
-2 19 5 1.8 0.11
2 19 -5 1.76 0.11
2 19 -5 1.73 0.11
-2 19 5 1.63 0.11
-2 19 5 1.5 0.11
-2 19 5 1.78 0.11
-1 -19 5 1.99 0.13
-1 -19 5 2.04 0.09
1 19 -5 2.05 0.11
-1 19 5 1.97 0.12
-1 19 5 1.86 0.12
-1 19 5 2.23 0.12
1 19 -5 1.98 0.12
1 19 -5 2.08 0.12
0 -19 5 0.99 0.06
0 19 -5 1.07 0.09
0 19 5 1.14 0.09
0 19 5 1.02 0.1
0 19 5 0.92 0.11
0 19 -5 1.06 0.09
0 19 5 0.83 0.12
0 19 -5 0.95 0.09
-1 19 -5 0.17 0.04
1 19 5 0.07 0.03
-1 19 -5 0.07 0.03
1 19 5 0.11 0.04
2 -19 5 0.15 0.05
2 19 5 0.06 0.03
2 19 5 0.22 0.07
-2 19 -5 0.1 0.04
-2 19 -5 0.03 0.02
2 19 5 0.04 0.04
-3 -19 -5 1.17 0.08
3 -19 5 1.2 0.06
-3 19 -5 1.14 0.09
-3 19 -5 1.1 0.12
3 19 5 1.02 0.08
-3 19 -5 1.1 0.09
3 19 5 0.94 0.07
3 19 5 0.81 0.13
4 -19 5 0.14 0.04
-4 -19 -5 0.03 0.05
-4 -19 -5 0.08 0.02
-4 19 -5 0.01 0.04
-4 19 -5 0.07 0.02
-5 19 -5 -0.01 0.03
-4 -20 5 0.32 0.06
-4 20 5 0.47 0.07
-4 20 5 0.32 0.07
4 20 -5 0.25 0.07
-3 -20 5 0.61 0.06
-3 20 5 0.45 0.07
3 20 -5 0.58 0.09
3 20 -5 0.41 0.07
-3 20 5 0.49 0.09
-2 -20 5 0.55 0.05
-2 20 5 0.46 0.09
2 20 -5 0.59 0.08
2 20 -5 0.4 0.08
-2 20 5 0.56 0.1
-1 -20 5 0.55 0.05
-1 20 5 0.4 0.1
1 20 -5 0.58 0.09
1 20 -5 0.49 0.08
0 -20 5 0.94 0.06
0 20 -5 0.9 0.1
0 20 -5 0.9 0.08
0 20 5 0.97 0.09
0 20 -5 0.99 0.09
0 20 5 0.83 0.12
1 -20 5 1.88 0.08
-1 20 -5 1.93 0.12
-1 20 -5 1.93 0.11
-1 20 -5 1.91 0.1
1 20 5 1.9 0.11
-3 20 -5 0.1 0.07
-3 20 -5 0.24 0.07
-3 20 -5 0.14 0.03
4 -20 5 0.02 0.02
-4 20 -5 0 0.02
4 20 5 0.04 0.03
-3 -21 5 0.05 0.02
-3 21 5 0.02 0.05
-3 21 5 0.06 0.03
3 21 -5 -0.04 0.03
3 21 -5 0.05 0.02
2 21 -5 0.32 0.08
-2 21 5 0.3 0.09
2 21 -5 0.17 0.04
-1 -21 5 1.54 0.07
-1 21 5 1.42 0.13
1 21 -5 1.61 0.1
0 21 5 0.06 0.05
0 21 5 0.11 0.04
1 -21 5 0.81 0.06
1 21 5 0.78 0.09
-1 21 -5 0.89 0.1
-1 21 -5 0.8 0.08
-1 21 -5 0.81 0.08
2 -21 5 0.49 0.05
-2 21 -5 0.55 0.08
2 21 5 0.58 0.08
-2 21 -5 0.42 0.07
3 -21 5 0.73 0.05
-3 21 -5 0.72 0.08
-3 21 -5 0.75 0.07
3 21 5 0.7 0.08
2 22 -5 0.31 0.07
2 22 -5 0.21 0.04
-1 -22 5 0.03 0.02
1 22 -5 -0.05 0.03
1 22 -5 -0.04 0.02
0 -22 5 0.06 0.02
0 22 -5 0.04 0.03
0 22 -5 0.02 0.02
-1 22 -5 0.25 0.07
-1 22 -5 0.14 0.05
-2 22 -5 0.04 0.02
-2 22 -5 0.04 0.03
-9 0 6 0.08 0.03
9 0 -6 0.03 0.03
9 0 -6 0.05 0.03
-8 0 6 0.75 0.09
8 0 -6 0.67 0.08
8 0 -6 0.79 0.08
7 0 -6 4.03 0.16
-7 0 6 3.97 0.17
7 0 -6 3.86 0.17
7 0 -6 3.97 0.16
-7 0 6 3.87 0.17
-7 0 6 3.96 0.17
6 0 -6 0.6 0.07
6 0 -6 0.72 0.1
-6 0 6 0.49 0.09
5 0 -6 6.31 0.23
5 0 -6 6.73 0.22
-5 0 6 6.31 0.23
5 0 -6 6.66 0.21
5 0 -6 6.21 0.23
4 0 -6 4.89 0.16
-4 0 6 5.06 0.18
4 0 -6 5.25 0.18
4 0 -6 5 0.18
-4 0 6 4.98 0.18
-4 0 6 4.84 0.17
4 0 -6 5.2 0.19
-4 0 6 5.2 0.18
3 0 -6 13.5 0.44
3 0 -6 13.72 0.4
3 0 -6 14.07 0.42
3 0 -6 13.58 0.43
-3 0 6 12.88 0.42
-3 0 6 13.67 0.42
-3 0 6 14.16 0.41
-3 0 6 13.54 0.44
-3 0 6 14.08 0.42
2 0 -6 2.97 0.1
2 0 -6 3.05 0.12
2 0 -6 2.99 0.13
-2 0 6 3.07 0.11
2 0 -6 3.13 0.11
-2 0 6 3.15 0.11
-2 0 6 3.18 0.12
-2 0 6 2.98 0.11
1 0 -6 4.71 0.18
1 0 -6 5.11 0.16
-1 0 6 4.93 0.17
1 0 -6 4.92 0.18
-1 0 6 5.23 0.17
-1 0 6 5.29 0.17
-1 0 6 4.88 0.17
0 0 6 98 2.97
0 0 6 94.18 2.95
0 0 6 96.63 2.81
0 0 6 99.01 2.89
0 0 6 89.14 2.8
0 0 -6 91.15 2.77
0 0 -6 96.91 3.08
0 0 -6 94.73 2.69
1 0 6 111.37 3.23
1 0 6 114.47 3.49
-1 0 -6 113.25 3.64
1 0 6 116.44 3.4
-1 0 -6 114.53 3.18
1 0 6 108.6 3.31
1 0 6 108.43 3.26
-1 0 -6 109.32 3.23
-1 0 -6 112.95 3.26
-2 0 -6 0.29 0.03
-2 0 -6 0.29 0.04
2 0 6 0.36 0.05
-2 0 -6 0.25 0.05
2 0 6 0.29 0.06
2 0 6 0.26 0.03
-3 0 -6 26.6 0.77
-3 0 -6 27.09 0.89
-3 0 -6 26.64 0.8
3 0 6 26.79 0.86
-3 0 -6 27.33 0.79
3 0 6 27.69 0.79
3 0 6 26.17 0.84
4 0 6 0.74 0.05
-4 0 -6 0.76 0.07
-4 0 -6 0.71 0.05
4 0 6 0.66 0.07
4 0 6 0.68 0.08
-4 0 -6 0.65 0.07
-5 0 -6 0.56 0.06
-5 0 -6 0.54 0.07
5 0 6 0.47 0.08
5 0 6 0.53 0.06
-5 0 -6 0.38 0.06
-5 0 -6 0.59 0.08
-6 0 -6 0.45 0.09
6 0 6 0.51 0.08
-6 0 -6 0.68 0.1
-6 0 -6 0.53 0.07
-7 0 -6 2.45 0.14
7 0 6 2.26 0.13
-7 0 -6 2.46 0.14
-7 0 -6 2.13 0.11
-8 0 -6 2.51 0.17
-8 0 -6 2.77 0.12
-9 -1 6 0.93 0.08
9 -1 -6 0.77 0.08
9 -1 -6 0.98 0.08
9 1 -6 0.8 0.07
-9 1 6 0.93 0.08
8 -1 -6 2.65 0.12
-8 -1 6 2.49 0.13
8 -1 -6 2.49 0.13
-8 1 6 2.59 0.13
8 1 -6 2.59 0.13
8 1 -6 2.59 0.12
7 -1 -6 0.44 0.07
-7 -1 6 0.33 0.09
7 -1 -6 0.4 0.07
7 -1 -6 0.35 0.07
-7 1 6 0.31 0.06
7 1 -6 0.25 0.07
7 1 -6 0.26 0.07
-6 -1 6 1.4 0.1
6 -1 -6 1.4 0.09
6 -1 -6 1.46 0.12
6 1 -6 1.35 0.11
-6 1 6 1.29 0.11
6 1 -6 1.32 0.09
5 -1 -6 0.1 0.03
5 -1 -6 0.11 0.03
-5 -1 6 0.1 0.03
5 -1 -6 0.21 0.07
-5 -1 6 0.12 0.03
5 -1 -6 0.19 0.05
5 1 -6 0.18 0.05
5 1 -6 0.09 0.02
-5 1 6 0.09 0.02
5 1 -6 0.19 0.07
-4 -1 6 3.3 0.14
-4 -1 6 3.34 0.13
4 -1 -6 3.58 0.14
4 -1 -6 3.38 0.12
-4 -1 6 3.47 0.13
4 -1 -6 3.5 0.13
4 -1 -6 3.6 0.14
4 1 -6 3.34 0.13
4 1 -6 3.51 0.12
-4 1 6 3.55 0.13
-4 1 6 3.53 0.13
-4 1 6 3.3 0.13
4 1 -6 3.46 0.14
4 1 -6 3.38 0.14
-4 1 6 3.42 0.13
-3 -1 6 10.15 0.31
-3 -1 6 9.44 0.32
-3 -1 6 10.52 0.32
3 -1 -6 10.39 0.33
-3 -1 6 9.78 0.33
-3 -1 6 10.13 0.31
3 -1 -6 10.66 0.3
3 -1 -6 10.06 0.31
3 1 -6 9.94 0.33
-3 1 6 10.09 0.31
3 1 -6 9.8 0.3
3 1 -6 9.88 0.32
3 1 -6 10.45 0.32
-3 1 6 10.13 0.31
-3 1 6 10.14 0.33
-3 1 6 10.4 0.32
2 -1 -6 0.63 0.04
-2 -1 6 0.69 0.05
-2 -1 6 0.61 0.06
2 -1 -6 0.58 0.05
-2 -1 6 0.69 0.05
2 -1 -6 0.68 0.04
2 -1 -6 0.74 0.07
-2 1 6 0.74 0.03
2 1 -6 0.72 0.04
-2 1 6 0.7 0.05
2 1 -6 0.67 0.06
2 1 -6 0.58 0.05
-2 1 6 0.62 0.05
-2 1 6 0.64 0.05
1 -1 -6 51.64 1.6
1 -1 -6 52.01 1.52
-1 -1 6 54.46 1.54
-1 -1 6 50.15 1.63
-1 -1 6 51.8 1.49
1 -1 -6 51.72 1.71
-1 -1 6 54.05 1.63
-1 -1 6 51.95 1.52
-1 1 6 54.4 1.56
1 1 -6 52.79 1.71
-1 1 6 51.22 1.52
1 1 -6 54.52 1.49
-1 1 6 50.93 1.63
-1 1 6 51.11 1.55
0 -1 -6 65.78 2.25
0 -1 -6 69.32 2
0 -1 6 70.73 2
0 -1 6 67.45 2.04
0 -1 6 69.56 2.05
0 -1 6 73.01 2.1
0 -1 6 69.66 2.15
0 -1 -6 68.67 2.02
0 -1 6 68.14 1.96
0 -1 6 66.05 2.02
0 1 6 65.77 2
0 1 6 67.91 2.05
0 1 -6 72.28 2.02
0 1 6 73.72 2.15
0 1 -6 67.56 2.11
0 1 6 69.74 2.1
0 1 6 69.46 2.15
0 1 6 69.42 2.04
1 -1 6 25.03 0.78
-1 -1 -6 24.28 0.73
1 -1 6 24.62 0.76
-1 -1 -6 24.66 0.82
1 -1 6 23.73 0.73
1 -1 6 23.49 0.78
-1 -1 -6 25.15 0.71
1 -1 6 24.42 0.72
1 -1 6 23.86 0.71
-1 -1 -6 24.99 0.72
-1 1 -6 24.43 0.72
1 1 6 25.98 0.78
-1 1 -6 25.32 0.71
-1 1 -6 25.2 0.82
1 1 6 24.03 0.73
1 1 6 24.44 0.74
1 1 6 25.91 0.76
-2 -1 -6 8.23 0.28
-2 -1 -6 7.83 0.26
2 -1 6 7.96 0.25
2 -1 6 8.46 0.27
2 -1 6 8.36 0.26
-2 -1 -6 8.04 0.24
-2 -1 -6 7.88 0.25
2 1 6 8.03 0.27
-2 1 -6 8.18 0.28
-2 1 -6 7.8 0.25
2 1 6 7.9 0.26
2 1 6 8.09 0.25
2 1 6 8.05 0.26
-2 1 -6 7.78 0.24
-2 1 -6 7.73 0.25
3 -1 6 2.22 0.09
3 -1 6 2.29 0.1
3 -1 6 2.3 0.09
3 -1 6 2.45 0.11
-3 -1 -6 2.31 0.09
-3 -1 -6 2.28 0.11
-3 -1 -6 2.32 0.09
-3 -1 -6 2.13 0.1
3 1 6 2.51 0.1
-3 1 -6 2.29 0.11
3 1 6 2.34 0.09
-3 1 -6 2.42 0.1
-3 1 -6 2.37 0.09
-3 1 -6 2.22 0.09
3 1 6 2.5 0.11
-4 -1 -6 3.85 0.13
-4 -1 -6 3.94 0.15
-4 -1 -6 3.69 0.16
-4 -1 -6 3.92 0.14
-4 -1 -6 3.77 0.16
4 -1 6 3.78 0.13
4 -1 6 3.89 0.16
4 -1 6 3.67 0.15
-4 1 -6 3.63 0.17
4 1 6 3.91 0.16
-4 1 -6 3.86 0.14
4 1 6 3.87 0.16
4 1 6 3.56 0.13
-4 1 -6 3.65 0.13
-4 1 -6 3.8 0.14
-4 1 -6 3.82 0.16
-5 -1 -6 0.86 0.07
5 -1 6 0.87 0.1
-5 -1 -6 0.67 0.06
-5 -1 -6 0.95 0.08
-5 -1 -6 0.87 0.08
5 -1 6 0.68 0.08
5 -1 6 0.81 0.07
5 1 6 0.81 0.09
5 1 6 0.9 0.11
-5 1 -6 0.85 0.07
-5 1 -6 0.7 0.14
-5 1 -6 0.93 0.09
-5 1 -6 0.74 0.08
5 1 6 0.79 0.07
-6 -1 -6 7.82 0.26
-6 -1 -6 7.71 0.3
-6 -1 -6 7.76 0.25
6 -1 6 7.81 0.26
-6 1 -6 7.84 0.27
-6 1 -6 7.69 0.26
-6 1 -6 7.6 0.3
6 1 6 8.08 0.26
-7 -1 -6 6.16 0.26
-7 -1 -6 7.06 0.25
-7 -1 -6 6.54 0.22
-7 1 -6 6.57 0.22
-7 1 -6 6.22 0.26
-7 1 -6 6.87 0.24
7 1 6 6.44 0.27
7 1 6 6.66 0.24
-8 -1 -6 2.37 0.15
-8 -1 -6 2.64 0.16
-8 1 -6 2.63 0.18
9 -2 -6 0.59 0.07
-9 -2 6 0.68 0.07
9 -2 -6 0.66 0.08
9 2 -6 0.65 0.07
9 2 -6 0.45 0.11
-9 2 6 0.48 0.06
8 -2 -6 1.49 0.1
-8 -2 6 1.38 0.13
-8 -2 6 1.54 0.1
8 -2 -6 1.42 0.09
8 2 -6 1.47 0.1
8 2 -6 1.47 0.1
-8 2 6 1.58 0.1
-7 -2 6 2.35 0.12
-7 -2 6 2.11 0.14
7 -2 -6 2.09 0.11
-7 -2 6 2.17 0.13
7 -2 -6 2.25 0.12
7 -2 -6 2.05 0.11
-7 2 6 1.89 0.12
7 2 -6 2.06 0.12
7 2 -6 2.14 0.15
-7 2 6 2.09 0.12
7 2 -6 2.1 0.12
6 2 -6 1.04 0.1
6 2 -6 1.13 0.1
5 -2 -6 2.88 0.11
-5 -2 6 2.74 0.12
-5 -2 6 2.61 0.13
5 -2 -6 2.72 0.12
5 -2 -6 2.48 0.13
5 -2 -6 2.67 0.12
-5 2 6 2.65 0.12
-5 2 6 2.49 0.12
5 2 -6 2.67 0.12
5 2 -6 2.57 0.13
5 2 -6 2.63 0.12
-5 2 6 2.65 0.13
-4 -2 6 7.99 0.27
4 -2 -6 8.45 0.26
4 -2 -6 8.59 0.28
-4 -2 6 8.19 0.28
-4 -2 6 8.52 0.28
4 -2 -6 8.44 0.27
4 -2 -6 9.03 0.29
-4 2 6 8.89 0.28
4 2 -6 8.38 0.27
-4 2 6 8.55 0.26
-4 2 6 7.91 0.27
4 2 -6 8.84 0.28
4 2 -6 8.48 0.26
4 2 -6 8.27 0.29
3 -2 -6 3.98 0.15
-3 -2 6 3.67 0.14
-3 -2 6 4.08 0.14
-3 -2 6 4.13 0.15
3 -2 -6 3.92 0.13
3 -2 -6 4.11 0.14
3 2 -6 3.73 0.15
-3 2 6 4.01 0.14
-3 2 6 3.69 0.14
-3 2 6 4.03 0.15
3 2 -6 3.85 0.14
-3 2 6 3.92 0.14
-3 2 6 4.05 0.14
3 2 -6 4.13 0.14
3 2 -6 3.76 0.13
-2 -2 6 68.33 1.99
-2 -2 6 68.43 1.97
-2 -2 6 68.15 2.11
2 -2 -6 68.2 1.97
2 -2 -6 67.37 1.93
2 -2 -6 68.06 2.08
-2 2 6 68.26 1.97
-2 2 6 70.13 2.02
2 2 -6 68.16 1.93
2 2 -6 67.38 2.22
-2 2 6 64.78 1.99
2 2 -6 71.36 2.08
-2 2 6 67.92 2.11
-2 2 6 65.94 2.01
2 2 -6 67.47 1.97
-1 -2 6 117.65 3.76
-1 -2 6 125.39 3.51
1 -2 -6 125.19 3.91
-1 -2 6 119.44 3.74
-1 -2 6 116.68 3.47
1 -2 -6 122.18 3.42
1 -2 -6 124.36 3.48
1 2 -6 121.48 3.68
-1 2 6 118.28 3.47
-1 2 6 114.27 3.55
1 2 -6 124.91 3.48
1 2 -6 122.94 3.91
-1 2 6 117.92 3.75
-1 2 6 119.13 3.58
-1 2 6 118.53 3.51
0 -2 6 67 2.09
0 -2 -6 71.19 2.24
0 -2 -6 70.4 1.95
0 -2 6 67.19 2.15
0 -2 6 70.35 2.14
0 -2 -6 68.49 2.01
0 -2 -6 70.9 1.99
0 -2 6 66.7 2.01
0 2 6 65.32 2.01
0 2 6 68.31 2.04
0 2 6 72 2.15
0 2 -6 71.32 2.11
0 2 -6 68.09 1.95
0 2 6 67.92 2.03
0 2 6 67.28 1.99
0 2 -6 68.61 1.99
0 2 6 70.03 2.09
-1 -2 -6 46.41 1.39
-1 -2 -6 48.04 1.37
1 -2 6 49.42 1.47
1 -2 6 47.55 1.48
1 -2 6 47.34 1.37
-1 -2 -6 47.04 1.54
1 -2 6 45.59 1.38
1 -2 6 47.12 1.44
-1 -2 -6 45.71 1.34
1 2 6 48.09 1.44
-1 2 -6 48.41 1.45
-1 2 -6 47.5 1.54
1 2 6 46.24 1.48
-1 2 -6 47.56 1.37
-1 2 -6 46.59 1.38
1 2 6 46.87 1.37
1 2 6 47.64 1.4
1 2 6 45.85 1.38
2 -2 6 5.82 0.2
-2 -2 -6 5.7 0.18
2 -2 6 5.81 0.18
2 -2 6 5.88 0.19
-2 -2 -6 5.58 0.21
-2 -2 -6 5.87 0.19
2 -2 6 5.96 0.2
-2 2 -6 5.56 0.19
2 2 6 5.76 0.2
-2 2 -6 6.19 0.18
2 2 6 5.61 0.2
-2 2 -6 6.15 0.22
2 2 6 5.63 0.19
-2 2 -6 5.95 0.19
2 2 6 5.71 0.19
3 -2 6 1.77 0.07
-3 -2 -6 1.69 0.08
3 -2 6 1.69 0.08
-3 -2 -6 1.85 0.07
-3 -2 -6 1.75 0.09
3 -2 6 1.66 0.09
3 -2 6 1.82 0.09
-3 -2 -6 1.73 0.09
-3 2 -6 1.8 0.09
3 2 6 1.8 0.09
-3 2 -6 1.77 0.08
-3 2 -6 1.83 0.1
-3 2 -6 1.78 0.07
3 2 6 1.66 0.08
-3 2 -6 1.84 0.08
3 2 6 1.73 0.09
3 2 6 1.71 0.08
-4 -2 -6 0.5 0.07
-4 -2 -6 0.31 0.08
-4 -2 -6 0.53 0.05
-4 -2 -6 0.39 0.07
4 -2 6 0.46 0.06
4 -2 6 0.45 0.07
4 2 6 0.43 0.07
4 2 6 0.56 0.07
4 2 6 0.53 0.08
-4 2 -6 0.45 0.05
-4 2 -6 0.43 0.06
-4 2 -6 0.42 0.07
-4 2 -6 0.5 0.06
-5 -2 -6 6.4 0.22
-5 -2 -6 6.11 0.24
-5 -2 -6 6.37 0.21
-5 -2 -6 6.25 0.2
5 -2 6 6.2 0.21
5 -2 6 6.07 0.23
5 -2 6 6.06 0.24
5 2 6 6.07 0.21
-5 2 -6 5.81 0.26
5 2 6 6.2 0.24
-5 2 -6 6.24 0.24
-5 2 -6 6.42 0.21
-5 2 -6 6.38 0.22
6 -2 6 1.77 0.13
-6 -2 -6 1.67 0.1
-6 -2 -6 1.55 0.12
-6 -2 -6 1.52 0.09
-6 2 -6 1.54 0.11
6 2 6 1.76 0.11
-6 2 -6 1.69 0.12
7 -2 6 1.64 0.1
-7 -2 -6 1.39 0.12
7 -2 6 1.44 0.15
-7 -2 -6 1.5 0.09
-7 -2 -6 1.75 0.14
-7 2 -6 1.65 0.13
7 2 6 1.61 0.16
-7 2 -6 1.78 0.11
-7 2 -6 1.54 0.1
-8 -2 -6 2.08 0.14
8 -2 6 1.85 0.12
9 -3 -6 0.34 0.08
9 -3 -6 0.41 0.06
-9 -3 6 0.33 0.07
9 3 -6 0.34 0.07
-9 3 6 0.43 0.06
8 -3 -6 0.01 0.03
8 -3 -6 0.01 0.03
8 -3 -6 0 0.03
-8 -3 6 0.01 0.02
-8 -3 6 0 0.04
8 3 -6 -0.01 0.04
8 3 -6 0.04 0.03
-8 3 6 0.03 0.02
7 -3 -6 0.31 0.07
7 -3 -6 0.24 0.07
7 -3 -6 0.34 0.08
-7 -3 6 0.3 0.08
7 3 -6 0.14 0.04
7 3 -6 0.21 0.05
7 3 -6 0.16 0.04
-7 3 6 0.26 0.08
-7 3 6 0.26 0.06
6 -3 -6 0.03 0.04
6 -3 -6 0.01 0.02
-6 -3 6 0.03 0.03
6 -3 -6 0.04 0.03
-6 3 6 0.02 0.02
6 3 -6 0.06 0.03
5 -3 -6 4.36 0.17
5 -3 -6 4.38 0.15
-5 -3 6 4.54 0.17
5 -3 -6 4.5 0.18
-5 -3 6 4.26 0.18
5 -3 -6 4.48 0.16
-5 3 6 4.3 0.16
5 3 -6 4.4 0.17
-5 3 6 4.61 0.17
5 3 -6 4.13 0.18
5 3 -6 4.64 0.16
5 3 -6 4.47 0.16
-5 3 6 4.32 0.17
-4 -3 6 2.38 0.11
-4 -3 6 2.4 0.1
-4 -3 6 2.49 0.1
4 -3 -6 2.41 0.11
4 -3 -6 2.31 0.09
4 -3 -6 2.5 0.1
4 -3 -6 2.46 0.11
-4 -3 6 2.5 0.11
-4 3 6 2.52 0.11
4 3 -6 2.68 0.11
4 3 -6 2.51 0.11
4 3 -6 2.63 0.11
-4 3 6 2.5 0.1
4 3 -6 2.56 0.1
-4 3 6 2.41 0.1
-3 -3 6 11.66 0.38
-3 -3 6 12.32 0.38
3 -3 -6 12.18 0.39
3 -3 -6 12.72 0.36
-3 -3 6 12.38 0.4
-3 -3 6 11.8 0.36
-3 -3 6 12.45 0.36
3 -3 -6 12.86 0.37
3 3 -6 11.89 0.38
3 3 -6 12.16 0.36
3 3 -6 12.31 0.39
3 3 -6 11.95 0.4
-3 3 6 11.71 0.38
3 3 -6 12.53 0.38
-3 3 6 12.4 0.37
-3 3 6 12.47 0.38
-2 -3 6 36.28 1.04
2 -3 -6 33.29 1
2 -3 -6 34.68 1.09
-2 -3 6 34.93 1.03
-2 -3 6 34.49 1.1
2 -3 -6 34.58 1.03
-2 -3 6 35.34 1.01
2 3 -6 36.36 1.06
-2 3 6 35.31 1.05
2 3 -6 35.64 1.09
-2 3 6 34.85 1.04
2 3 -6 35.82 1.03
2 3 -6 35.82 1.01
2 3 -6 35.85 1.17
-1 -3 6 7.9 0.23
-1 -3 6 7.84 0.24
1 -3 -6 7.99 0.24
1 -3 -6 7.28 0.26
1 -3 -6 7.87 0.23
-1 -3 6 7.74 0.24
-1 -3 6 7.6 0.25
-1 3 6 7.1 0.24
-1 3 6 7.35 0.24
1 3 -6 7.54 0.25
-1 3 6 7.62 0.24
-1 3 6 7.47 0.24
1 3 -6 7.46 0.24
0 -3 -6 6.42 0.2
0 -3 6 6.06 0.19
0 -3 6 6.42 0.2
0 -3 6 6.61 0.21
0 -3 6 6.24 0.2
0 -3 -6 6.17 0.19
0 -3 6 6.23 0.21
0 -3 -6 5.83 0.21
0 3 -6 6.27 0.2
0 3 -6 6.15 0.2
0 3 -6 6.11 0.22
0 3 6 6.22 0.2
1 -3 6 42.85 1.29
1 -3 6 42.01 1.24
1 -3 6 42.8 1.2
-1 -3 -6 42.01 1.19
1 -3 6 42.84 1.31
-1 -3 -6 41.49 1.22
-1 -3 -6 41.11 1.24
-1 -3 -6 42.09 1.37
1 -3 6 41.37 1.22
1 3 6 39.97 1.22
-1 3 -6 43.2 1.22
-1 3 -6 42.56 1.29
1 3 6 43.52 1.25
1 3 6 40.9 1.31
-1 3 -6 43.87 1.38
-1 3 -6 40.99 1.2
1 3 6 41.11 1.23
-1 3 -6 41.21 1.23
1 3 6 41.77 1.28
-2 -3 -6 2.61 0.09
-2 -3 -6 2.52 0.11
-2 -3 -6 2.43 0.09
-2 -3 -6 2.67 0.11
2 -3 6 2.64 0.11
2 -3 6 2.54 0.1
2 -3 6 2.64 0.09
-2 3 -6 2.56 0.1
-2 3 -6 2.63 0.09
2 3 6 2.81 0.11
2 3 6 2.83 0.11
2 3 6 2.75 0.1
-2 3 -6 2.76 0.12
-2 3 -6 2.69 0.11
-2 3 -6 2.47 0.1
-3 -3 -6 3.56 0.12
-3 -3 -6 3.65 0.12
3 -3 6 3.62 0.12
3 -3 6 3.5 0.14
-3 -3 -6 3.6 0.15
3 -3 6 3.49 0.14
-3 -3 -6 3.32 0.14
3 -3 6 3.61 0.12
-3 3 -6 3.51 0.15
3 3 6 3.46 0.14
3 3 6 3.47 0.14
3 3 6 3.5 0.13
-3 3 -6 3.59 0.13
3 3 6 3.54 0.13
-3 3 -6 3.47 0.15
-3 3 -6 3.44 0.12
-3 3 -6 3.6 0.13
-3 3 -6 3.63 0.14
-4 -3 -6 9.64 0.3
-4 -3 -6 10.04 0.31
4 -3 6 9.52 0.33
4 -3 6 10.14 0.3
-4 -3 -6 10.16 0.35
-4 -3 -6 9.88 0.32
4 3 6 10.01 0.31
-4 3 -6 10.17 0.32
-4 3 -6 10.02 0.31
4 3 6 9.36 0.33
-4 3 -6 9.62 0.35
-4 3 -6 9.11 0.36
4 3 6 9.71 0.32
5 -3 6 0.67 0.08
5 -3 6 0.83 0.07
5 -3 6 0.75 0.09
-5 -3 -6 0.93 0.06
-5 -3 -6 0.73 0.09
-5 -3 -6 0.78 0.1
-5 3 -6 0.7 0.07
5 3 6 0.8 0.09
5 3 6 0.85 0.09
5 3 6 0.67 0.1
-5 3 -6 0.78 0.14
-5 3 -6 0.91 0.09
-5 3 -6 0.77 0.08
-6 -3 -6 0.56 0.07
6 -3 6 0.62 0.07
-6 -3 -6 0.54 0.07
-6 -3 -6 0.51 0.11
-6 3 -6 0.42 0.07
6 3 6 0.41 0.12
-6 3 -6 0.47 0.1
-6 3 -6 0.43 0.09
-7 -3 -6 1.65 0.15
7 -3 6 1.43 0.09
-7 -3 -6 1.27 0.08
-7 3 -6 1.3 0.11
-7 3 -6 1.45 0.13
7 3 6 1.49 0.17
8 -3 6 0.54 0.09
-8 -3 -6 0.4 0.05
9 -4 -6 0.02 0.02
9 -4 -6 -0.03 0.04
-9 -4 6 0.03 0.02
-9 4 6 0.06 0.02
9 4 -6 0.06 0.03
-8 -4 6 1.89 0.12
8 -4 -6 2.12 0.11
8 -4 -6 2.12 0.11
8 -4 -6 1.89 0.1
-8 -4 6 1.9 0.12
8 4 -6 1.89 0.11
-8 4 6 2.06 0.11
8 4 -6 1.97 0.12
-7 -4 6 0.27 0.08
7 -4 -6 0.32 0.06
7 -4 -6 0.38 0.08
7 -4 -6 0.25 0.07
7 4 -6 0.36 0.1
-7 4 6 0.2 0.05
7 4 -6 0.16 0.04
-7 4 6 0.29 0.07
7 4 -6 0.25 0.08
6 -4 -6 1.04 0.09
6 -4 -6 1.07 0.08
-6 -4 6 0.97 0.1
6 -4 -6 1.06 0.08
6 4 -6 1.16 0.09
6 4 -6 1.09 0.09
-6 4 6 1.13 0.1
-6 4 6 1.1 0.09
-5 -4 6 0.93 0.08
-5 -4 6 0.84 0.09
5 -4 -6 0.79 0.06
5 -4 -6 0.82 0.07
5 -4 -6 0.9 0.12
5 -4 -6 0.81 0.07
-5 4 6 0.9 0.07
-5 4 6 0.75 0.07
-5 4 6 0.79 0.07
5 4 -6 0.66 0.08
5 4 -6 0.76 0.07
5 4 -6 0.87 0.08
4 -4 -6 8.46 0.26
4 -4 -6 8.78 0.27
4 -4 -6 8.12 0.29
-4 -4 6 8.18 0.28
4 -4 -6 8.31 0.28
-4 -4 6 8.57 0.29
-4 -4 6 8.78 0.28
-4 4 6 8.98 0.28
4 4 -6 8.67 0.27
-4 4 6 8.31 0.27
4 4 -6 8.86 0.29
4 4 -6 8.88 0.28
-4 4 6 8.51 0.28
4 4 -6 8.55 0.3
-3 -4 6 33.24 1
3 -4 -6 35 0.99
3 -4 -6 35.06 1.05
-3 -4 6 31.76 1.01
-3 -4 6 32.43 1.06
-3 -4 6 33.5 0.97
3 -4 -6 33.57 0.97
-3 4 6 35.44 1.01
-3 4 6 35.26 1.02
3 4 -6 33.12 1
3 4 -6 32.79 0.99
-3 4 6 34.8 0.97
3 4 -6 34.01 1.03
-3 4 6 34.61 1.02
2 -4 -6 11.6 0.38
-2 -4 6 11.71 0.37
-2 -4 6 11.78 0.36
2 -4 -6 11.96 0.36
-2 -4 6 12.24 0.39
2 4 -6 12.07 0.38
-2 4 6 12.07 0.37
-2 4 6 12.36 0.37
2 4 -6 11.26 0.41
-2 4 6 11.82 0.37
-2 4 6 12.15 0.36
2 4 -6 12.31 0.36
1 -4 -6 5.59 0.21
-1 -4 6 5.74 0.18
1 -4 -6 5.6 0.17
-1 -4 6 5.89 0.18
-1 -4 6 5.78 0.2
-1 -4 6 5.5 0.19
1 -4 -6 5.75 0.18
1 4 -6 5.64 0.2
1 4 -6 5.62 0.18
-1 4 6 6.05 0.19
1 4 -6 5.42 0.21
-1 4 6 5.86 0.19
0 -4 -6 8.89 0.26
0 -4 -6 9.21 0.27
0 -4 6 8.9 0.27
0 -4 6 9.02 0.29
0 -4 6 9.04 0.29
0 -4 -6 8.86 0.31
0 -4 6 8.43 0.28
0 4 6 8.71 0.28
0 4 -6 8.86 0.29
0 4 6 9.09 0.27
0 4 -6 8.88 0.27
0 4 -6 8.52 0.31
0 4 -6 8.59 0.28
0 4 -6 8.5 0.26
0 4 6 9.16 0.28
1 -4 6 0.94 0.05
1 -4 6 0.89 0.05
-1 -4 -6 1.03 0.04
1 -4 6 0.88 0.06
-1 -4 -6 1.01 0.05
-1 -4 -6 1.08 0.06
1 -4 6 0.94 0.05
1 -4 6 0.94 0.06
1 -4 6 0.86 0.06
-1 -4 -6 1.02 0.08
1 4 6 1.03 0.06
1 4 6 0.98 0.06
-1 4 -6 0.92 0.05
-1 4 -6 1.08 0.07
-1 4 -6 1.04 0.06
1 4 6 0.96 0.05
2 -4 6 16.19 0.49
-2 -4 -6 15.31 0.47
-2 -4 -6 15.5 0.54
2 -4 6 16.65 0.47
2 -4 6 16.11 0.48
-2 -4 -6 16.04 0.48
2 -4 6 16.31 0.52
2 -4 6 16.03 0.51
2 -4 6 16.02 0.52
2 4 6 17.02 0.51
-2 4 -6 15.9 0.49
-2 4 -6 15.84 0.54
-2 4 -6 16.63 0.55
2 4 6 15.98 0.48
-2 4 -6 15.9 0.51
2 4 6 16.29 0.49
-2 4 -6 16.06 0.48
3 -4 6 7.69 0.23
-3 -4 -6 7.87 0.24
-3 -4 -6 7.91 0.23
3 -4 6 7.61 0.27
3 -4 6 7.43 0.26
3 -4 6 7.64 0.24
-3 -4 -6 7.44 0.26
-3 -4 -6 7.62 0.28
-3 4 -6 7.3 0.28
-3 4 -6 7.76 0.28
3 4 6 7.7 0.25
-3 4 -6 7.47 0.24
-3 4 -6 7.78 0.25
4 -4 6 1.89 0.11
4 -4 6 2.01 0.09
4 -4 6 2.13 0.09
4 -4 6 1.99 0.11
-4 -4 -6 2.12 0.09
-4 -4 -6 1.87 0.11
-4 -4 -6 2.04 0.08
-4 4 -6 2.02 0.11
-4 4 -6 2.05 0.1
-4 4 -6 1.88 0.09
4 4 6 2.02 0.1
5 -4 6 3.17 0.13
5 -4 6 3.3 0.15
-5 -4 -6 3.37 0.16
-5 -4 -6 3.42 0.12
-5 -4 -6 2.99 0.15
5 -4 6 3.35 0.17
-5 -4 -6 3.36 0.13
5 -4 6 3.09 0.13
-5 4 -6 2.96 0.19
-5 4 -6 3.05 0.14
-5 4 -6 3.51 0.16
5 4 6 3.54 0.16
5 4 6 3.17 0.14
-5 4 -6 3.33 0.13
-6 -4 -6 0.67 0.12
-6 -4 -6 0.59 0.07
6 -4 6 0.64 0.1
6 -4 6 0.61 0.07
-6 -4 -6 0.58 0.07
-6 4 -6 0.49 0.1
6 4 6 0.55 0.11
-7 -4 -6 1.37 0.15
7 -4 6 0.88 0.15
-7 -4 -6 1.04 0.1
-7 -4 -6 1.24 0.1
-7 -4 -6 1.14 0.08
-7 4 -6 1.02 0.13
-7 4 -6 1.13 0.12
-7 4 -6 1.22 0.1
8 -4 6 0.05 0.03
9 -5 -6 0.01 0.02
-9 -5 6 0.04 0.03
9 5 -6 0.08 0.03
8 -5 -6 0.83 0.09
8 -5 -6 0.74 0.08
-8 -5 6 0.77 0.09
8 -5 -6 0.73 0.07
8 5 -6 0.68 0.08
-8 5 6 0.8 0.08
7 -5 -6 1.11 0.09
7 -5 -6 0.94 0.08
-7 -5 6 1 0.1
7 -5 -6 0.9 0.09
-7 -5 6 1.05 0.09
7 5 -6 1.01 0.1
7 5 -6 0.93 0.09
-7 5 6 0.91 0.08
-7 5 6 0.97 0.1
-6 -5 6 3.18 0.15
6 -5 -6 3.18 0.14
6 -5 -6 2.95 0.14
6 -5 -6 3.09 0.12
6 5 -6 2.86 0.15
-6 5 6 3.18 0.14
6 5 -6 3.19 0.14
-6 5 6 2.93 0.15
6 5 -6 2.98 0.14
-5 -5 6 8.18 0.29
5 -5 -6 8.37 0.27
5 -5 -6 8.78 0.29
-5 -5 6 8.34 0.28
5 -5 -6 8.52 0.28
-5 5 6 8.66 0.27
5 5 -6 8.4 0.3
5 5 -6 8.5 0.28
-5 5 6 8.77 0.29
-5 5 6 8.46 0.28
4 -5 -6 7.42 0.23
4 -5 -6 8.01 0.25
4 -5 -6 7.77 0.26
4 -5 -6 7.41 0.26
-4 -5 6 7.83 0.26
-4 -5 6 7.93 0.24
-4 -5 6 7.65 0.25
-4 -5 6 7.44 0.26
-4 5 6 7.82 0.25
4 5 -6 7.61 0.27
-4 5 6 7.47 0.24
4 5 -6 7.28 0.25
4 5 -6 7.32 0.26
-4 5 6 7.32 0.25
-3 -5 6 3.55 0.14
3 -5 -6 3.75 0.14
3 -5 -6 3.42 0.13
-3 -5 6 3.77 0.13
3 -5 -6 3.61 0.12
-3 -5 6 3.76 0.14
-3 -5 6 3.5 0.13
-3 5 6 3.7 0.13
-3 5 6 3.66 0.13
3 5 -6 3.77 0.14
-3 5 6 3.55 0.13
3 5 -6 3.43 0.13
3 5 -6 3.57 0.14
3 5 -6 3.55 0.13
-3 5 6 3.81 0.14
-2 -5 6 6.62 0.23
2 -5 -6 6.6 0.21
-2 -5 6 6.97 0.24
2 -5 -6 7.07 0.23
-2 -5 6 7.47 0.22
2 -5 -6 7.22 0.22
-2 5 6 6.92 0.23
-2 5 6 6.71 0.23
2 5 -6 6.89 0.25
2 5 -6 7.04 0.23
2 5 -6 6.76 0.22
-2 5 6 7.32 0.22
2 5 -6 6.92 0.24
1 -5 -6 6.99 0.2
-1 -5 6 6.67 0.23
1 -5 -6 6.83 0.21
-1 -5 6 6.79 0.22
-1 -5 6 6.66 0.21
-1 -5 6 6.76 0.23
1 5 -6 6.43 0.22
1 5 -6 6.74 0.21
-1 5 6 6.94 0.22
1 5 -6 6.56 0.23
1 5 -6 6.51 0.22
-1 5 6 6.93 0.22
-1 5 6 6.63 0.21
1 5 -6 6.85 0.24
0 -5 6 7.67 0.26
0 -5 6 8.1 0.24
0 -5 6 7.53 0.25
0 -5 -6 7.77 0.23
0 -5 -6 7.66 0.27
0 -5 6 7.96 0.23
0 -5 6 7.56 0.26
0 -5 -6 8.13 0.24
0 5 -6 8.15 0.24
0 5 6 7.94 0.25
0 5 -6 7.9 0.28
0 5 6 7.47 0.24
0 5 -6 7.83 0.26
0 5 -6 7.4 0.25
0 5 6 7.78 0.25
0 5 -6 7.62 0.26
1 -5 6 5.31 0.17
-1 -5 -6 5.33 0.17
1 -5 6 5.37 0.18
-1 -5 -6 5.09 0.16
1 -5 6 5.01 0.18
-1 -5 -6 5.33 0.19
1 -5 6 4.91 0.18
1 -5 6 5.18 0.18
1 -5 6 5.36 0.16
1 5 6 5.35 0.17
-1 5 -6 5.04 0.18
-1 5 -6 4.91 0.18
1 5 6 5.2 0.17
-1 5 -6 5.06 0.19
1 5 6 5.37 0.18
-1 5 -6 4.91 0.19
-1 5 -6 5.09 0.17
-2 -5 -6 0.51 0.09
2 -5 6 0.54 0.04
-2 -5 -6 0.45 0.04
2 -5 6 0.47 0.05
-2 -5 -6 0.47 0.05
2 -5 6 0.46 0.05
2 -5 6 0.56 0.05
2 -5 6 0.51 0.05
-2 5 -6 0.58 0.05
-2 5 -6 0.47 0.06
-2 5 -6 0.49 0.05
2 5 6 0.55 0.04
-2 5 -6 0.56 0.06
-3 -5 -6 8.25 0.25
-3 -5 -6 8.19 0.28
3 -5 6 8.47 0.29
-3 -5 -6 8.27 0.26
3 -5 6 8.17 0.28
3 -5 6 8.3 0.25
-3 -5 -6 8.38 0.3
3 -5 6 8.16 0.26
3 5 6 8.39 0.27
3 5 6 8.27 0.28
-3 5 -6 8.03 0.26
-3 5 -6 8.24 0.3
-3 5 -6 8.42 0.27
-3 5 -6 7.99 0.28
-4 -5 -6 0.03 0.02
4 -5 6 0.05 0.02
4 -5 6 0.05 0.03
4 -5 6 0.02 0.02
-4 -5 -6 0.01 0.04
4 -5 6 0.01 0.05
-4 -5 -6 0.03 0.02
-4 5 -6 0.01 0.02
-4 5 -6 0.04 0.03
-4 5 -6 0.03 0.02
-4 5 -6 0.05 0.02
-5 -5 -6 -0.06 0.04
5 -5 6 -0.02 0.03
5 -5 6 0 0.08
5 -5 6 -0.02 0.02
-5 5 -6 0.02 0.05
-5 5 -6 0.01 0.02
5 5 6 -0.02 0.04
5 5 6 0.05 0.03
-5 5 -6 0 0.03
-6 -5 -6 0.08 0.03
6 -5 6 0.04 0.04
6 -5 6 0.04 0.03
-6 -5 -6 0.13 0.05
-6 -5 -6 0.04 0.02
6 -5 6 0.05 0.03
-6 -5 -6 0 0.03
-6 5 -6 -0.01 0.03
-6 5 -6 -0.01 0.04
-6 5 -6 0.02 0.03
-7 -5 -6 1.16 0.09
-7 -5 -6 1.03 0.08
7 -5 6 1.02 0.16
-7 -5 -6 1.06 0.18
-7 -5 -6 1.05 0.1
7 -5 6 1.08 0.08
-7 5 -6 0.92 0.14
-7 5 -6 1.07 0.09
8 -5 6 1.17 0.08
-8 -5 -6 1.27 0.1
-8 -5 -6 0.96 0.07
-9 -6 6 0.02 0.03
9 6 -6 0.03 0.03
8 -6 -6 0.49 0.06
8 -6 -6 0.39 0.07
-8 -6 6 0.48 0.08
-8 -6 6 0.44 0.08
8 6 -6 0.41 0.07
7 -6 -6 1.29 0.09
-7 -6 6 1.3 0.11
7 -6 -6 1.37 0.1
-7 -6 6 1.4 0.09
7 -6 -6 1.33 0.08
-7 6 6 1.29 0.1
7 6 -6 1.2 0.12
7 6 -6 1.13 0.09
-7 6 6 1.26 0.09
-6 -6 6 0.81 0.09
6 -6 -6 0.65 0.08
-6 -6 6 0.61 0.1
6 -6 -6 0.79 0.09
6 -6 -6 0.76 0.07
-6 6 6 0.76 0.09
6 6 -6 0.67 0.09
6 6 -6 0.65 0.1
-6 6 6 0.74 0.08
6 6 -6 0.71 0.08
5 -6 -6 2.52 0.12
-5 -6 6 2.18 0.11
5 -6 -6 2.39 0.1
5 -6 -6 2.46 0.11
-5 -6 6 2.32 0.13
-5 -6 6 2.44 0.11
-5 -6 6 2.36 0.13
5 6 -6 2.2 0.12
-5 6 6 2.21 0.12
5 6 -6 2.46 0.11
5 6 -6 2.48 0.12
-5 6 6 2.42 0.11
-5 6 6 2.37 0.11
4 -6 -6 3.3 0.11
-4 -6 6 3.23 0.14
-4 -6 6 2.97 0.12
4 -6 -6 3.2 0.12
4 -6 -6 3.07 0.15
4 -6 -6 3.39 0.13
-4 -6 6 3.1 0.12
-4 6 6 3.25 0.12
4 6 -6 3.1 0.13
-4 6 6 3.13 0.13
4 6 -6 3.19 0.13
4 6 -6 3.33 0.14
-4 6 6 3.27 0.13
-3 -6 6 15.18 0.43
-3 -6 6 14.77 0.44
3 -6 -6 14.02 0.46
3 -6 -6 14.03 0.44
3 -6 -6 14.48 0.42
-3 -6 6 14.56 0.47
-3 -6 6 13.93 0.45
-3 6 6 13.69 0.45
3 6 -6 13.99 0.44
-3 6 6 15.01 0.45
3 6 -6 14.5 0.44
-3 6 6 14.7 0.44
-3 6 6 14.54 0.43
3 6 -6 13.97 0.45
3 6 -6 14.28 0.47
-2 -6 6 2.56 0.11
2 -6 -6 2.45 0.09
-2 -6 6 2.48 0.09
2 -6 -6 2.43 0.09
-2 -6 6 2.41 0.1
-2 -6 6 2.67 0.1
2 -6 -6 2.56 0.1
-2 6 6 2.66 0.1
2 6 -6 2.68 0.12
-2 6 6 2.66 0.11
-2 6 6 2.45 0.1
2 6 -6 2.48 0.1
2 6 -6 2.64 0.11
-2 6 6 2.47 0.1
2 6 -6 2.38 0.11
-1 -6 6 0.86 0.05
-1 -6 6 1.01 0.06
-1 -6 6 0.91 0.06
1 6 -6 0.97 0.07
-1 6 6 0.81 0.06
-1 6 6 0.98 0.06
1 6 -6 0.91 0.06
1 6 -6 1.04 0.07
-1 6 6 0.92 0.06
1 6 -6 0.93 0.06
-1 6 6 1.02 0.05
1 6 -6 0.94 0.07
0 -6 6 1.77 0.08
0 -6 6 1.66 0.08
0 -6 -6 1.67 0.07
0 -6 6 1.62 0.08
0 -6 -6 1.66 0.06
0 -6 6 1.76 0.07
0 -6 -6 1.67 0.09
0 -6 6 1.75 0.07
0 6 6 1.69 0.07
0 6 -6 1.53 0.09
0 6 6 1.74 0.07
0 6 -6 1.82 0.08
0 6 -6 1.68 0.08
-1 -6 -6 2.84 0.1
1 -6 6 2.68 0.11
-1 -6 -6 2.66 0.12
-1 -6 -6 2.72 0.09
1 -6 6 2.8 0.09
1 -6 6 2.74 0.1
1 -6 6 2.71 0.11
1 6 6 2.81 0.11
-1 6 -6 2.72 0.12
1 6 6 2.66 0.1
-1 6 -6 2.83 0.12
-1 6 -6 2.91 0.1
-1 6 -6 2.65 0.11
-1 6 -6 2.76 0.11
2 -6 6 5.84 0.21
2 -6 6 6.27 0.19
2 -6 6 6.34 0.22
-2 -6 -6 6.43 0.23
-2 -6 -6 6.09 0.19
2 -6 6 6.32 0.22
-2 -6 -6 6.1 0.2
2 -6 6 6.39 0.22
2 -6 6 6.1 0.2
2 6 6 6.1 0.2
-2 6 -6 5.96 0.2
-2 6 -6 6.47 0.24
-2 6 -6 6.45 0.23
-2 6 -6 6.5 0.21
-2 6 -6 6.61 0.22
-2 6 -6 6.03 0.22
2 6 6 6.31 0.21
3 -6 6 3.05 0.14
-3 -6 -6 3.25 0.12
3 -6 6 3.49 0.12
-3 -6 -6 3.18 0.14
3 -6 6 3.35 0.11
3 -6 6 3.21 0.14
-3 -6 -6 3.28 0.11
-3 6 -6 3.42 0.15
-3 6 -6 3.43 0.13
3 6 6 3.18 0.13
-3 6 -6 3.35 0.12
-4 -6 -6 4.27 0.17
4 -6 6 3.81 0.17
4 -6 6 4.01 0.17
-4 -6 -6 4.07 0.14
-4 -6 -6 4.05 0.14
4 -6 6 4.1 0.15
4 -6 6 4.15 0.14
4 6 6 4.06 0.15
-4 6 -6 4.02 0.17
-4 6 -6 3.78 0.15
-4 6 -6 4.08 0.15
5 -6 6 10.63 0.34
-5 -6 -6 10.91 0.34
-5 -6 -6 10.22 0.37
5 -6 6 11.21 0.38
-5 6 -6 11.22 0.35
6 -6 6 2.86 0.12
-6 -6 -6 2.86 0.11
6 -6 6 2.76 0.12
-6 -6 -6 2.93 0.12
6 -6 6 2.58 0.15
-6 -6 -6 3 0.21
-6 -6 -6 2.52 0.14
6 6 6 2.54 0.13
-6 6 -6 2.79 0.13
-6 6 -6 2.5 0.15
7 -6 6 1.72 0.09
-7 -6 -6 1.59 0.11
-7 -6 -6 1.59 0.09
-7 -6 -6 1.57 0.09
-7 6 -6 1.63 0.1
-8 -6 -6 0.29 0.08
8 -7 -6 0.27 0.06
8 -7 -6 0.23 0.06
-8 7 6 0.37 0.06
-8 7 6 0.39 0.08
8 7 -6 0.24 0.07
-7 -7 6 0.65 0.11
7 -7 -6 0.64 0.07
-7 -7 6 0.68 0.08
7 -7 -6 0.64 0.08
-7 7 6 0.59 0.08
-7 7 6 0.65 0.09
7 7 -6 0.56 0.08
6 -7 -6 1.37 0.09
6 -7 -6 1.38 0.08
-6 -7 6 1.5 0.1
-6 -7 6 1.14 0.12
6 -7 -6 1.38 0.1
-6 -7 6 1.47 0.1
-6 7 6 1.34 0.1
6 7 -6 1.22 0.11
-6 7 6 1.38 0.09
6 7 -6 1.21 0.11
-6 7 6 1.34 0.1
6 7 -6 1.35 0.1
5 -7 -6 10.32 0.32
-5 -7 6 10.59 0.35
-5 -7 6 10.84 0.34
5 -7 -6 10.37 0.33
-5 -7 6 10.52 0.32
5 -7 -6 10.05 0.35
5 7 -6 10.52 0.36
-5 7 6 10.66 0.33
-5 7 6 10.06 0.34
5 7 -6 11.11 0.35
-5 7 6 9.96 0.34
-5 7 6 9.97 0.33
-4 -7 6 11.21 0.34
4 -7 -6 11.19 0.34
-4 -7 6 10.87 0.33
4 -7 -6 10.63 0.32
4 -7 -6 10.63 0.35
-4 -7 6 10.35 0.35
-4 7 6 10.26 0.34
-4 7 6 10.42 0.33
4 7 -6 10.28 0.35
-4 7 6 10.69 0.33
-4 7 6 10.66 0.35
4 7 -6 10.7 0.34
-3 -7 6 12.64 0.4
3 -7 -6 12.22 0.39
-3 -7 6 12.07 0.39
3 -7 -6 11.82 0.37
-3 -7 6 12.22 0.36
3 -7 -6 12.17 0.36
-3 7 6 12.35 0.37
-3 7 6 12.78 0.39
3 7 -6 11.52 0.41
3 7 -6 11.79 0.39
-3 7 6 12.91 0.37
3 7 -6 12.08 0.4
3 7 -6 11.42 0.38
-3 7 6 11.68 0.39
3 7 -6 12.4 0.38
2 -7 -6 1.15 0.07
2 -7 -6 1.16 0.06
-2 -7 6 1.08 0.08
-2 -7 6 1.22 0.06
-2 -7 6 0.98 0.06
2 -7 -6 1.2 0.05
2 7 -6 1.08 0.07
2 7 -6 1.06 0.08
2 7 -6 1.09 0.07
-2 7 6 1.1 0.06
-2 7 6 1.22 0.07
2 7 -6 0.98 0.07
-2 7 6 1.15 0.08
-2 7 6 1.1 0.06
-2 7 6 1.11 0.06
-1 -7 6 18.33 0.55
1 -7 -6 18.89 0.55
-1 -7 6 19.08 0.6
-1 -7 6 18.26 0.57
-1 -7 6 18.86 0.54
-1 -7 6 18.72 0.6
-1 7 6 19.21 0.55
1 7 -6 19.28 0.62
1 7 -6 18.77 0.63
-1 7 6 18.98 0.56
1 7 -6 18.48 0.59
1 7 -6 18.63 0.6
1 7 -6 17.43 0.55
-1 7 6 18.88 0.57
-1 7 6 17.65 0.57
0 -7 -6 36.23 1.06
0 -7 6 37.33 1.17
0 -7 -6 36.64 1.22
0 -7 6 38.7 1.17
0 -7 -6 38 1.08
0 -7 6 36.42 1.1
0 -7 6 36.56 1.06
0 -7 6 38.08 1.08
0 7 6 36.18 1.11
0 7 -6 38.34 1.2
0 7 6 36.35 1.09
0 7 6 36.34 1.11
0 7 -6 37.77 1.13
0 7 -6 36.18 1.15
0 7 -6 36.75 1.08
0 7 -6 36.29 1.22
0 7 -6 38.4 1.17
1 -7 6 5.3 0.2
1 -7 6 5.79 0.17
-1 -7 -6 5.49 0.2
1 -7 6 5.31 0.19
-1 -7 -6 5.44 0.17
1 -7 6 5.24 0.19
1 -7 6 5.56 0.2
1 -7 6 5.88 0.18
-1 -7 -6 5.62 0.18
-1 7 -6 5.5 0.18
-1 7 -6 5.38 0.19
-1 7 -6 5.17 0.21
-1 7 -6 5.63 0.21
1 7 6 5.66 0.19
1 7 6 5.83 0.19
-1 7 -6 5.15 0.19
-1 7 -6 5.65 0.18
1 7 6 5.45 0.18
-2 -7 -6 8.38 0.26
-2 -7 -6 8.08 0.25
2 -7 6 8.47 0.26
2 -7 6 8.33 0.27
2 -7 6 8.58 0.29
2 -7 6 8.38 0.28
2 -7 6 8.11 0.25
2 -7 6 8.52 0.29
-2 7 -6 8.26 0.28
2 7 6 8.6 0.28
-2 7 -6 8.9 0.31
2 7 6 8.14 0.27
2 7 6 8.31 0.26
-2 7 -6 8.5 0.28
-2 7 -6 8.5 0.3
-2 7 -6 8.01 0.26
-2 7 -6 8.59 0.27
3 -7 6 2.11 0.11
3 -7 6 2.07 0.09
3 -7 6 2.06 0.08
-3 -7 -6 1.97 0.08
-3 -7 -6 2 0.08
-3 7 -6 1.84 0.1
-3 7 -6 2.08 0.1
-3 7 -6 1.79 0.1
-3 7 -6 1.79 0.11
-3 7 -6 1.92 0.11
3 7 6 2.05 0.1
3 7 6 2.11 0.08
-4 -7 -6 3.79 0.16
-4 -7 -6 3.73 0.13
-4 -7 -6 3.86 0.14
4 -7 6 3.58 0.16
4 -7 6 3.53 0.14
4 -7 6 3.7 0.16
4 -7 6 3.66 0.13
-4 7 -6 3.67 0.15
-4 7 -6 4.02 0.17
4 7 6 3.79 0.15
5 -7 6 0.91 0.09
-5 -7 -6 0.92 0.07
5 -7 6 0.83 0.07
5 -7 6 0.86 0.08
-5 -7 -6 0.88 0.07
-5 7 -6 0.67 0.16
-5 7 -6 0.9 0.1
5 7 6 0.8 0.08
-5 7 -6 0.93 0.08
6 -7 6 0.84 0.08
-6 -7 -6 0.87 0.07
-6 -7 -6 0.7 0.1
-6 -7 -6 0.95 0.07
6 -7 6 0.87 0.07
-6 7 -6 0.85 0.09
6 7 6 0.82 0.1
-6 7 -6 1.08 0.13
7 -7 6 0.06 0.03
-7 -7 -6 0.03 0.02
-7 -7 -6 0.01 0.02
-7 -7 -6 0.03 0.03
-7 7 -6 0.05 0.02
-8 7 -6 0.28 0.07
8 -8 -6 -0.04 0.06
-8 -8 6 0.07 0.03
8 -8 -6 0.05 0.02
-8 -8 6 -0.02 0.04
8 8 -6 0.01 0.03
-8 8 6 0.01 0.05
-7 -8 6 0.4 0.08
7 -8 -6 0.33 0.07
7 -8 -6 0.48 0.09
7 -8 -6 0.26 0.06
-7 -8 6 0.45 0.12
7 8 -6 0.25 0.07
-7 8 6 0.43 0.08
-7 8 6 0.45 0.11
-7 8 6 0.39 0.08
-7 8 6 0.3 0.07
-6 -8 6 2.05 0.11
6 -8 -6 2.14 0.1
6 -8 -6 2.34 0.11
6 -8 -6 2.38 0.12
-6 -8 6 2.46 0.12
-6 -8 6 2.1 0.14
-6 8 6 2.41 0.12
6 8 -6 2.1 0.12
-6 8 6 2.13 0.12
-6 8 6 2.2 0.11
6 8 -6 2.1 0.13
-5 -8 6 3.39 0.17
-5 -8 6 3.26 0.17
-5 8 6 3.82 0.14
-4 -8 6 5.44 0.22
-4 -8 6 5.94 0.21
4 -8 -6 5.83 0.21
-4 -8 6 5.93 0.19
4 -8 -6 6.24 0.19
-4 -8 6 5.57 0.21
4 -8 -6 5.99 0.2
4 8 -6 5.78 0.21
-4 8 6 5.96 0.21
4 8 -6 5.95 0.22
4 8 -6 6.02 0.21
-4 8 6 5.67 0.21
-4 8 6 5.79 0.2
4 8 -6 5.44 0.22
-4 8 6 6.1 0.2
3 -8 -6 2.47 0.12
-3 -8 6 2.68 0.13
-3 -8 6 2.66 0.11
3 -8 -6 2.68 0.1
3 -8 -6 2.52 0.09
-3 8 6 2.48 0.12
3 8 -6 2.53 0.11
3 8 -6 2.45 0.12
-3 8 6 2.67 0.11
3 8 -6 2.37 0.12
-3 8 6 2.57 0.1
3 8 -6 2.78 0.12
-3 8 6 2.76 0.11
-3 8 6 2.67 0.11
-2 -8 6 2.54 0.1
2 -8 -6 2.69 0.09
2 -8 -6 2.47 0.1
-2 -8 6 2.53 0.12
-2 -8 6 2.56 0.11
-2 -8 6 2.46 0.09
2 8 -6 2.55 0.12
-2 8 6 2.33 0.11
2 8 -6 2.48 0.11
-2 8 6 2.43 0.1
2 8 -6 2.61 0.12
2 8 -6 2.3 0.12
-2 8 6 2.55 0.09
-2 8 6 2.57 0.11
2 8 -6 2.31 0.11
-2 8 6 2.47 0.11
2 8 -6 2.59 0.11
-1 -8 6 24.29 0.7
-1 -8 6 24.8 0.68
-1 -8 6 23.04 0.71
-1 -8 6 24.05 0.75
1 -8 -6 22.46 0.67
-1 -8 6 24.3 0.75
1 -8 -6 23.51 0.69
-1 8 6 23.59 0.69
1 8 -6 22.25 0.73
-1 8 6 23.64 0.71
-1 8 6 24.24 0.72
-1 8 6 22.72 0.69
1 8 -6 24.1 0.78
1 8 -6 23.07 0.79
1 8 -6 22.96 0.74
0 -8 6 0.44 0.04
0 -8 6 0.46 0.04
0 -8 -6 0.48 0.04
0 -8 6 0.47 0.04
0 -8 -6 0.41 0.03
0 -8 6 0.34 0.06
0 -8 6 0.42 0.05
0 8 -6 0.34 0.05
0 8 6 0.49 0.04
0 8 -6 0.44 0.06
0 8 6 0.34 0.05
0 8 -6 0.35 0.06
0 8 6 0.46 0.05
0 8 -6 0.41 0.05
0 8 6 0.35 0.06
0 8 -6 0.34 0.06
1 -8 6 6.66 0.23
1 -8 6 6.19 0.22
1 -8 6 6.43 0.23
1 -8 6 6.54 0.2
-1 -8 -6 6.4 0.24
1 -8 6 6.42 0.22
-1 -8 -6 6.24 0.2
-1 -8 -6 6.65 0.21
-1 8 -6 6.4 0.23
-1 8 -6 6.36 0.22
1 8 6 6.67 0.2
-1 8 -6 6.96 0.25
1 8 6 6.53 0.21
-1 8 -6 6.7 0.23
1 8 6 6.53 0.22
1 8 6 6.89 0.22
-1 8 -6 6.3 0.24
2 -8 6 2.2 0.09
-2 -8 -6 2.22 0.09
2 -8 6 2.24 0.08
2 -8 6 2.18 0.11
2 -8 6 2.14 0.1
2 -8 6 2.12 0.1
-2 -8 -6 2.1 0.08
2 -8 6 2.1 0.11
2 8 6 2.14 0.09
-2 8 -6 1.99 0.1
2 8 6 2.21 0.1
-2 8 -6 2.2 0.1
-2 8 -6 2.19 0.1
-2 8 -6 1.94 0.12
-2 8 -6 1.93 0.11
2 8 6 2.11 0.08
2 8 6 2.18 0.1
-2 8 -6 2.14 0.09
3 -8 6 2.12 0.08
-3 -8 -6 2.11 0.08
3 -8 6 2.08 0.09
3 -8 6 1.92 0.11
-3 -8 -6 1.94 0.09
3 -8 6 1.91 0.11
3 -8 6 2.02 0.11
3 8 6 2.08 0.1
3 8 6 2.04 0.09
-3 8 -6 1.88 0.11
-3 8 -6 2.07 0.1
-3 8 -6 1.88 0.11
-3 8 -6 1.8 0.11
4 -8 6 1.41 0.07
4 -8 6 1.5 0.11
-4 -8 -6 1.52 0.08
4 -8 6 1.57 0.1
4 -8 6 1.41 0.08
4 8 6 1.38 0.08
4 8 6 1.51 0.09
-4 8 -6 1.34 0.11
-4 8 -6 1.24 0.11
-4 8 -6 1.56 0.11
5 -8 6 2.12 0.1
-5 -8 -6 2.14 0.1
5 -8 6 2.18 0.1
-5 -8 -6 2.23 0.13
-5 -8 -6 2.08 0.1
-5 8 -6 2.1 0.11
5 8 6 2.09 0.12
-5 8 -6 2.33 0.14
6 -8 6 0.22 0.06
-6 -8 -6 0.35 0.06
-6 -8 -6 0.44 0.06
6 -8 6 0.31 0.07
-6 8 -6 0.39 0.08
6 8 6 0.3 0.08
7 -8 6 0.65 0.06
-7 -8 -6 0.52 0.08
-7 -8 -6 0.45 0.06
-7 -8 -6 0.51 0.07
-7 8 -6 0.51 0.08
7 8 6 0.63 0.09
-8 -8 -6 0.74 0.08
8 -8 6 0.64 0.07
-8 8 -6 0.92 0.08
-8 8 -6 0.72 0.08
8 -9 -6 0.41 0.05
8 -9 -6 0.37 0.06
-8 -9 6 0.25 0.07
8 9 -6 0.24 0.07
-8 9 6 0.28 0.08
-8 9 6 0.39 0.08
-7 -9 6 0.73 0.14
-7 -9 6 0.74 0.08
7 -9 -6 0.78 0.07
7 -9 -6 0.97 0.11
7 -9 -6 0.94 0.08
-7 9 6 0.9 0.1
-7 9 6 0.91 0.08
-7 9 6 0.97 0.09
6 -9 -6 2.73 0.11
-6 -9 6 2.92 0.13
6 -9 -6 2.61 0.13
6 -9 -6 2.75 0.14
-6 -9 6 2.71 0.16
-6 9 6 2.57 0.13
-6 9 6 2.6 0.13
6 9 -6 2.46 0.13
6 9 -6 2.6 0.14
-6 9 6 2.87 0.13
-6 9 6 2.6 0.11
5 -9 -6 7.15 0.23
5 -9 -6 7.29 0.25
-5 -9 6 6.73 0.23
5 -9 -6 7.13 0.24
-5 -9 6 7.3 0.25
5 9 -6 6.84 0.25
-5 9 6 7.02 0.24
-5 9 6 7.24 0.26
5 9 -6 6.87 0.27
-5 9 6 7.12 0.25
-5 9 6 6.84 0.25
-4 -9 6 3.35 0.17
4 -9 -6 3.52 0.13
4 -9 -6 3.68 0.15
-4 -9 6 3.46 0.15
-4 -9 6 3.66 0.14
-4 -9 6 3.82 0.13
4 -9 -6 3.62 0.14
4 9 -6 3.59 0.15
-4 9 6 3.5 0.14
4 9 -6 3.63 0.15
-4 9 6 3.64 0.15
4 9 -6 3.37 0.16
-4 9 6 3.5 0.15
4 9 -6 3.79 0.16
-4 9 6 3.63 0.13
-4 9 6 3.73 0.15
-3 -9 6 0.58 0.06
3 -9 -6 0.69 0.06
-3 -9 6 0.69 0.05
3 -9 -6 0.59 0.04
-3 -9 6 0.67 0.09
-3 9 6 0.49 0.07
3 9 -6 0.75 0.08
3 9 -6 0.69 0.08
-3 9 6 0.6 0.06
-3 9 6 0.63 0.06
-3 9 6 0.72 0.07
-3 9 6 0.52 0.06
3 9 -6 0.6 0.07
3 9 -6 0.61 0.07
-3 9 6 0.59 0.06
-2 -9 6 0.08 0.02
-2 -9 6 0.05 0.02
2 -9 -6 0.03 0.01
2 -9 -6 0.05 0.03
-2 9 6 0.04 0.02
2 9 -6 0 0.02
2 9 -6 0.04 0.02
2 9 -6 0.04 0.03
-2 9 6 0.07 0.03
-2 9 6 0.05 0.03
2 9 -6 0.04 0.03
-2 9 6 0.03 0.02
2 9 -6 0.04 0.02
-1 -9 6 9.79 0.3
-1 -9 6 9.63 0.29
-1 -9 6 9.39 0.32
-1 -9 6 9.52 0.33
-1 -9 6 9.91 0.32
1 -9 -6 9.15 0.28
1 -9 -6 9.56 0.3
1 9 -6 9.92 0.35
1 9 -6 10.16 0.34
-1 9 6 9.79 0.31
-1 9 6 9.47 0.3
1 9 -6 9.48 0.32
1 9 -6 9.48 0.32
1 9 -6 9.69 0.33
-1 9 6 9.71 0.3
-1 9 6 9.68 0.31
0 -9 6 5.25 0.18
0 -9 -6 4.87 0.19
0 -9 6 4.64 0.19
0 -9 -6 4.94 0.16
0 -9 6 4.96 0.18
0 -9 6 5.19 0.16
0 -9 6 5.33 0.17
0 -9 -6 4.85 0.15
0 9 6 4.88 0.17
0 9 -6 5.13 0.18
0 9 6 4.91 0.18
0 9 -6 5.04 0.2
0 9 -6 4.84 0.18
0 9 6 4.92 0.17
0 9 6 5.13 0.18
0 9 6 4.93 0.17
0 9 -6 4.98 0.2
1 -9 6 10.4 0.31
1 -9 6 10.48 0.34
1 -9 6 9.82 0.34
-1 -9 -6 9.73 0.3
1 -9 6 9.36 0.33
1 -9 6 10.23 0.3
-1 -9 -6 9.67 0.29
-1 9 -6 9.66 0.33
1 9 6 10.28 0.32
1 9 6 10.16 0.32
-1 9 -6 9.71 0.36
-1 9 -6 9.82 0.35
1 9 6 9.79 0.31
1 9 6 9.85 0.31
2 -9 6 0.2 0.06
2 -9 6 0.23 0.04
-2 -9 -6 0.22 0.04
2 -9 6 0.17 0.05
2 -9 6 0.17 0.05
2 -9 6 0.16 0.04
-2 9 -6 0.13 0.03
2 9 6 0.13 0.03
2 9 6 0.18 0.04
-2 9 -6 0.19 0.07
-2 9 -6 0.23 0.06
-2 9 -6 0.2 0.05
3 -9 6 6.39 0.24
-3 -9 -6 6.78 0.21
3 -9 6 7.27 0.23
3 -9 6 6.55 0.25
3 -9 6 7.08 0.21
3 -9 6 6.71 0.24
-3 -9 -6 7.13 0.22
-3 9 -6 6.71 0.23
-3 9 -6 6.75 0.26
3 9 6 6.6 0.22
3 9 6 6.75 0.23
-3 9 -6 6.83 0.24
3 9 6 7.18 0.24
-3 9 -6 6.55 0.27
4 -9 6 3.85 0.18
-4 -9 -6 3.81 0.14
-4 9 -6 3.85 0.18
-4 9 -6 3.68 0.16
4 9 6 4.02 0.14
-5 -9 -6 1.26 0.08
-5 -9 -6 1.33 0.11
-5 -9 -6 1.33 0.08
5 -9 6 1.23 0.08
5 -9 6 1.28 0.08
5 -9 6 1.21 0.1
5 -9 6 1.15 0.14
-5 9 -6 1.21 0.13
-5 9 -6 1.28 0.09
5 9 6 1.2 0.08
5 9 6 1.31 0.1
6 -9 6 0 0.02
-6 -9 -6 0.01 0.02
6 -9 6 0.02 0.05
6 -9 6 -0.07 0.05
6 -9 6 -0.02 0.02
-6 -9 -6 0.03 0.02
6 9 6 -0.01 0.02
-6 9 -6 -0.04 0.05
6 9 6 -0.02 0.03
-6 9 -6 0.01 0.02
-7 -9 -6 0.59 0.08
7 -9 6 0.73 0.2
-7 -9 -6 0.55 0.06
7 -9 6 0.68 0.06
-7 -9 -6 0.52 0.07
-7 9 -6 0.49 0.07
7 9 6 0.64 0.08
7 9 6 0.63 0.1
8 -9 6 0.16 0.05
-8 -9 -6 0.27 0.08
8 9 6 0.15 0.04
8 -10 -6 0.09 0.02
-8 10 6 0.12 0.04
-8 10 6 0.07 0.04
8 10 -6 0.09 0.04
7 -10 -6 1.73 0.08
-7 -10 6 1.55 0.1
7 -10 -6 1.69 0.1
-7 10 6 1.73 0.1
-7 10 6 1.67 0.11
7 10 -6 1.61 0.11
-7 10 6 1.78 0.11
-6 -10 6 0.02 0.05
6 -10 -6 0.02 0.02
6 -10 -6 0 0.04
6 -10 -6 0.03 0.03
6 10 -6 -0.01 0.03
-6 10 6 0.06 0.04
-6 10 6 0.07 0.04
-6 10 6 -0.01 0.03
6 10 -6 -0.01 0.04
5 -10 -6 3.36 0.15
5 -10 -6 3.22 0.14
5 -10 -6 3.25 0.13
-5 -10 6 3.44 0.19
-5 -10 6 3.35 0.13
-5 -10 6 3.31 0.14
-5 10 6 3.22 0.15
5 10 -6 3.37 0.15
-5 10 6 3.31 0.15
-5 10 6 3.13 0.14
5 10 -6 3.21 0.16
-5 10 6 3.28 0.15
-4 -10 6 1.97 0.1
-4 -10 6 2.17 0.09
4 -10 -6 2.01 0.09
4 -10 -6 2.12 0.1
-4 -10 6 2.07 0.11
4 -10 -6 2.04 0.11
4 10 -6 1.95 0.11
4 10 -6 1.91 0.12
-4 10 6 1.97 0.12
-4 10 6 2.04 0.11
4 10 -6 2.07 0.12
-4 10 6 2.19 0.11
-4 10 6 2.03 0.11
-3 -10 6 0.54 0.06
-3 -10 6 0.53 0.05
3 -10 -6 0.38 0.04
-3 -10 6 0.51 0.05
3 -10 -6 0.53 0.06
-3 10 6 0.38 0.06
-3 10 6 0.39 0.07
3 10 -6 0.4 0.09
-3 10 6 0.39 0.06
3 10 -6 0.47 0.07
3 10 -6 0.41 0.06
-3 10 6 0.49 0.06
-3 10 6 0.53 0.07
2 -10 -6 2.36 0.11
-2 -10 6 1.98 0.13
2 -10 -6 2.09 0.08
-2 -10 6 2.07 0.09
-2 -10 6 2.26 0.1
-2 -10 6 2.19 0.09
2 -10 -6 2.17 0.09
-2 10 6 2.13 0.1
-2 10 6 1.96 0.1
-2 10 6 2.01 0.11
-2 10 6 2.16 0.1
2 10 -6 2.3 0.11
-2 10 6 2.26 0.1
2 10 -6 1.99 0.12
-1 -10 6 7.07 0.23
1 -10 -6 7.16 0.23
-1 -10 6 7.36 0.26
-1 -10 6 6.8 0.25
1 -10 -6 6.92 0.21
-1 -10 6 7.05 0.22
1 10 -6 7.08 0.27
1 10 -6 7.42 0.27
1 10 -6 7.2 0.24
-1 10 6 7.08 0.24
-1 10 6 7.44 0.24
1 10 -6 6.98 0.25
-1 10 6 7.29 0.24
-1 10 6 7.13 0.23
0 -10 6 1.9 0.09
0 -10 6 1.99 0.08
0 -10 -6 1.72 0.07
0 -10 -6 1.94 0.11
0 10 -6 1.78 0.09
0 10 -6 1.96 0.09
0 10 6 1.76 0.09
0 10 -6 1.84 0.11
0 10 6 1.79 0.1
0 10 6 1.76 0.09
0 10 6 1.93 0.09
0 10 6 1.92 0.09
-1 -10 -6 13.18 0.4
1 -10 6 12.69 0.42
-1 -10 -6 12.6 0.38
1 -10 6 13.34 0.44
1 -10 6 13.59 0.39
-1 10 -6 13.16 0.46
1 10 6 13.36 0.41
-1 10 -6 13.33 0.43
1 10 6 13.04 0.4
-1 10 -6 13.07 0.42
1 10 6 13.12 0.42
1 10 6 13.19 0.4
-1 10 -6 12.33 0.43
2 -10 6 3.93 0.16
2 -10 6 3.8 0.14
2 -10 6 3.76 0.13
-2 -10 -6 3.85 0.14
2 -10 6 3.95 0.17
-2 -10 -6 3.73 0.13
2 -10 6 3.97 0.16
2 -10 6 3.82 0.16
2 10 6 3.98 0.15
-2 10 -6 3.65 0.15
-2 10 -6 3.82 0.15
-2 10 -6 3.88 0.17
-2 10 -6 3.78 0.17
2 10 6 3.91 0.15
2 10 6 3.8 0.15
2 10 6 3.89 0.15
3 -10 6 0.56 0.06
-3 -10 -6 0.49 0.05
3 -10 6 0.46 0.07
3 -10 6 0.38 0.11
3 -10 6 0.68 0.06
-3 -10 -6 0.59 0.06
3 10 6 0.65 0.07
-3 10 -6 0.51 0.07
-3 10 -6 0.57 0.09
-3 10 -6 0.6 0.07
-3 10 -6 0.56 0.09
3 10 6 0.72 0.07
3 10 6 0.69 0.08
4 -10 6 0 0.02
-4 -10 -6 -0.01 0.02
4 -10 6 -0.03 0.03
4 -10 6 0.02 0.04
4 -10 6 0.04 0.03
-4 -10 -6 -0.01 0.02
4 -10 6 -0.07 0.08
4 10 6 0.02 0.03
-4 10 -6 0.04 0.05
-4 10 -6 0.02 0.02
-4 10 -6 -0.02 0.05
4 10 6 0.01 0.03
-4 10 -6 -0.04 0.03
-4 10 -6 0.02 0.02
-5 -10 -6 0.93 0.07
5 -10 6 0.68 0.16
-5 -10 -6 0.82 0.1
5 -10 6 0.83 0.07
5 -10 6 0.81 0.07
-5 -10 -6 0.83 0.07
5 -10 6 0.93 0.11
-5 10 -6 0.94 0.08
5 10 6 0.92 0.08
5 10 6 0.98 0.09
6 -10 6 0.02 0.02
-6 -10 -6 0.03 0.02
-6 -10 -6 0.08 0.03
6 -10 6 0.08 0.03
6 10 6 0.07 0.03
6 10 6 -0.03 0.03
-6 10 -6 0.03 0.02
7 -10 6 0.05 0.04
-7 -10 -6 0.19 0.05
7 10 6 0.12 0.04
7 10 6 0.29 0.09
-8 11 6 0.24 0.07
7 -11 -6 1.64 0.08
-7 -11 6 1.75 0.1
-7 -11 6 1.55 0.12
-7 11 6 1.51 0.1
-7 11 6 1.73 0.1
6 -11 -6 0.21 0.05
-6 -11 6 0.05 0.06
6 -11 -6 0.09 0.05
6 -11 -6 0.1 0.03
-6 11 6 0.26 0.08
-6 11 6 0.07 0.03
6 11 -6 0.12 0.04
5 -11 -6 1.92 0.09
5 -11 -6 1.97 0.1
5 -11 -6 1.72 0.12
-5 -11 6 2.11 0.18
-5 -11 6 1.81 0.09
-5 -11 6 1.9 0.11
-5 11 6 1.69 0.1
5 11 -6 1.85 0.12
-5 11 6 1.89 0.11
-5 11 6 1.78 0.11
-5 11 6 1.94 0.11
5 11 -6 1.9 0.12
-4 -11 6 3.45 0.16
-4 -11 6 3.57 0.15
4 -11 -6 3.74 0.15
-4 -11 6 3.46 0.13
-4 11 6 3.44 0.15
4 11 -6 3.44 0.16
-4 11 6 3.68 0.15
-4 11 6 3.57 0.15
4 11 -6 3.44 0.17
4 11 -6 3.49 0.16
-3 -11 6 0.87 0.07
-3 -11 6 0.86 0.06
3 -11 -6 0.95 0.08
3 -11 -6 0.8 0.05
-3 -11 6 0.9 0.15
-3 -11 6 0.85 0.07
3 11 -6 0.76 0.08
-3 11 6 0.93 0.08
3 11 -6 0.83 0.09
3 11 -6 0.72 0.07
-3 11 6 0.85 0.08
-3 11 6 0.74 0.08
-3 11 6 0.85 0.08
-3 11 6 0.9 0.08
2 -11 -6 1.82 0.07
2 -11 -6 1.71 0.09
-2 -11 6 1.91 0.09
-2 -11 6 1.79 0.09
2 -11 -6 1.77 0.11
-2 -11 6 1.89 0.08
-2 11 6 1.91 0.1
-2 11 6 1.81 0.09
-2 11 6 1.87 0.1
-2 11 6 1.85 0.11
2 11 -6 1.98 0.11
2 11 -6 1.73 0.09
2 11 -6 1.77 0.1
-2 11 6 1.9 0.1
-1 -11 6 4.06 0.15
-1 -11 6 4.35 0.14
-1 -11 6 4.33 0.17
1 -11 -6 4.11 0.14
-1 -11 6 4.48 0.17
-1 11 6 4.28 0.16
1 11 -6 4.25 0.16
-1 11 6 4.44 0.16
1 11 -6 4.45 0.18
1 11 -6 4.21 0.19
1 11 -6 4.28 0.17
-1 11 6 4.22 0.16
-1 11 6 4.14 0.16
1 11 -6 4.5 0.19
0 -11 6 7.96 0.28
0 -11 -6 7.85 0.25
0 -11 -6 7.46 0.24
0 -11 6 8.12 0.24
0 -11 6 8.05 0.28
0 -11 6 8.09 0.25
0 11 6 7.93 0.26
0 11 -6 8.42 0.28
0 11 -6 7.99 0.27
0 11 6 7.5 0.26
0 11 -6 7.7 0.27
0 11 6 7.79 0.27
0 11 6 7.88 0.26
0 11 6 7.97 0.27
0 11 -6 8.32 0.3
-1 -11 -6 4.79 0.16
1 -11 6 4.58 0.18
1 -11 6 4.77 0.16
1 -11 6 4.88 0.16
-1 -11 -6 4.53 0.15
1 -11 6 4.83 0.18
1 -11 6 4.55 0.18
-1 11 -6 4.68 0.18
-1 11 -6 4.86 0.18
-1 11 -6 4.55 0.2
1 11 6 4.68 0.17
1 11 6 4.61 0.17
-1 11 -6 4.33 0.2
-1 11 -6 4.78 0.2
1 11 6 4.73 0.17
1 11 6 4.89 0.17
2 -11 6 1.29 0.09
-2 -11 -6 1.23 0.08
-2 -11 -6 1.29 0.06
2 -11 6 1.16 0.1
2 -11 6 1.23 0.09
2 -11 6 1.34 0.07
2 -11 6 1.3 0.07
2 11 6 1.24 0.09
2 11 6 1.43 0.08
2 11 6 1.3 0.09
-2 11 -6 1.07 0.1
-2 11 -6 1.31 0.08
2 11 6 1.17 0.08
-2 11 -6 1.25 0.08
-2 11 -6 1.3 0.1
3 -11 6 5.26 0.18
3 -11 6 5.17 0.2
-3 -11 -6 5.34 0.18
-3 -11 -6 4.99 0.17
3 11 6 5.45 0.2
-3 11 -6 5.18 0.18
3 11 6 4.68 0.19
-3 11 -6 5.37 0.2
-3 11 -6 5.38 0.2
-3 11 -6 4.74 0.22
4 -11 6 0.18 0.06
-4 -11 -6 0.09 0.02
-4 -11 -6 0.08 0.03
4 -11 6 0.09 0.02
-4 11 -6 0.1 0.03
4 11 6 0.04 0.03
4 11 6 0.09 0.03
-4 11 -6 0.04 0.03
-4 11 -6 0.13 0.05
-5 -11 -6 0.68 0.09
5 -11 6 0.47 0.1
-5 -11 -6 0.68 0.07
5 -11 6 0.75 0.07
-5 -11 -6 0.72 0.06
5 -11 6 0.59 0.06
-5 11 -6 0.7 0.14
-5 11 -6 0.66 0.08
5 11 6 0.61 0.08
-6 -11 -6 0.04 0.02
-6 -11 -6 0.05 0.02
6 -11 6 0.03 0.02
-6 11 -6 0.04 0.02
6 11 6 0.01 0.03
-6 11 -6 0 0.03
6 11 6 0 0.03
-7 -11 -6 0.43 0.07
-7 -11 -6 0.49 0.06
-7 -11 -6 0.31 0.05
-7 11 -6 0.45 0.08
7 -12 -6 1.07 0.09
-7 -12 6 1.24 0.11
-7 12 6 1.32 0.09
7 12 -6 1.36 0.11
-7 12 6 1.1 0.09
6 -12 -6 0.07 0.02
-6 12 6 0.1 0.04
6 12 -6 0.03 0.05
-6 12 6 0.08 0.04
-6 12 6 0.08 0.03
5 -12 -6 1.14 0.11
5 -12 -6 0.99 0.07
-5 -12 6 1.15 0.08
5 -12 -6 1.1 0.09
-5 -12 6 1.14 0.09
-5 12 6 1.11 0.09
-5 12 6 1.11 0.1
-5 12 6 1.17 0.09
5 12 -6 1.15 0.11
-5 12 6 1.24 0.09
5 12 -6 1.11 0.1
5 12 -6 1.05 0.13
-4 -12 6 4.57 0.17
-4 -12 6 4.37 0.16
4 -12 -6 4.49 0.15
4 -12 -6 4.3 0.18
-4 12 6 4.26 0.17
4 12 -6 4.16 0.18
4 12 -6 4.02 0.17
-4 12 6 4.65 0.18
4 12 -6 4.28 0.19
-4 12 6 4.45 0.18
-4 12 6 4.27 0.17
3 -12 -6 5.35 0.17
3 -12 -6 5.06 0.19
-3 -12 6 5.12 0.2
-3 12 6 4.82 0.2
3 12 -6 5.44 0.2
3 12 -6 5.55 0.2
-2 -12 6 8.42 0.31
-2 -12 6 8.49 0.28
-2 -12 6 9.34 0.27
-2 -12 6 8.86 0.31
-2 12 6 9.12 0.29
-2 12 6 8.98 0.29
2 12 -6 8.22 0.29
-2 12 6 9.11 0.3
-2 12 6 9.03 0.3
2 12 -6 8.97 0.32
-1 -12 6 1.38 0.08
-1 -12 6 1.41 0.08
-1 -12 6 1.39 0.08
1 -12 -6 1.33 0.06
1 12 -6 1.27 0.1
-1 12 6 1.2 0.09
-1 12 6 1.37 0.09
1 12 -6 1.38 0.12
-1 12 6 1.35 0.09
1 12 -6 1.44 0.09
1 12 -6 1.51 0.09
1 12 -6 1.35 0.08
0 -12 6 3.93 0.13
0 -12 -6 3.6 0.12
0 -12 6 3.97 0.15
0 12 6 3.84 0.14
0 12 -6 3.48 0.17
0 12 6 3.77 0.15
0 12 6 3.72 0.15
0 12 6 3.56 0.15
0 12 -6 3.64 0.15
0 12 -6 3.54 0.17
1 -12 6 8.96 0.31
-1 -12 -6 8.66 0.27
-1 -12 -6 8.52 0.28
1 -12 6 9.17 0.27
1 -12 6 8.95 0.32
1 -12 6 9.24 0.31
1 -12 6 9.03 0.28
-1 12 -6 8.4 0.34
-1 12 -6 9.06 0.31
1 12 6 8.77 0.3
-1 12 -6 8.76 0.33
1 12 6 8.93 0.29
1 12 6 8.9 0.29
-1 12 -6 8.91 0.3
1 12 6 9.11 0.3
2 -12 6 0.2 0.07
-2 -12 -6 0.07 0.02
2 -12 6 0.07 0.05
2 -12 6 0.06 0.02
2 -12 6 0.15 0.05
-2 -12 -6 0.05 0.03
2 -12 6 0.16 0.06
2 12 6 0.09 0.03
-2 12 -6 0.05 0.03
-2 12 -6 0.08 0.04
2 12 6 0.13 0.04
2 12 6 0.05 0.03
-2 12 -6 0.07 0.02
-2 12 -6 0.08 0.03
3 -12 6 0.63 0.08
3 -12 6 0.51 0.06
-3 -12 -6 0.5 0.06
3 -12 6 0.68 0.07
3 12 6 0.58 0.08
3 12 6 0.71 0.08
-3 12 -6 0.66 0.08
-3 12 -6 0.66 0.11
-3 12 -6 0.88 0.13
3 12 6 0.72 0.11
3 12 6 0.7 0.08
-4 -12 -6 2.71 0.11
-4 -12 -6 2.76 0.12
4 -12 6 2.53 0.14
4 -12 6 2.73 0.12
4 -12 6 2.68 0.11
4 12 6 2.63 0.13
4 12 6 2.9 0.13
-4 12 -6 2.99 0.14
-4 12 -6 2.96 0.16
-4 12 -6 3.03 0.14
-5 -12 -6 0.7 0.09
5 -12 6 0.68 0.07
-5 -12 -6 0.64 0.07
-5 -12 -6 0.73 0.06
-5 12 -6 0.56 0.09
5 12 6 0.64 0.08
-5 12 -6 0.78 0.16
-6 -12 -6 0.42 0.05
-6 -12 -6 0.36 0.07
6 -12 6 0.33 0.06
6 -12 6 0.33 0.06
-6 12 -6 0.26 0.07
6 12 6 0.36 0.08
-7 -12 -6 0.07 0.02
-7 -12 -6 0.02 0.02
7 -12 6 0.06 0.04
7 12 6 0.03 0.03
7 12 6 0.12 0.04
-7 12 -6 0.01 0.03
-7 -13 6 0.34 0.06
7 -13 -6 0.33 0.09
7 -13 -6 0.36 0.05
-7 13 6 0.29 0.06
-7 13 6 0.31 0.04
6 -13 -6 1.67 0.08
6 -13 -6 1.69 0.11
-6 13 6 1.82 0.1
-6 13 6 1.86 0.1
-6 13 6 1.85 0.11
5 -13 -6 1.74 0.12
5 -13 -6 1.85 0.09
5 -13 -6 1.97 0.14
-5 -13 6 1.91 0.11
-5 -13 6 1.94 0.09
5 13 -6 1.7 0.14
-5 13 6 1.87 0.11
-5 13 6 2.13 0.11
-5 13 6 1.98 0.11
5 13 -6 1.82 0.12
-5 13 6 1.96 0.11
-4 -13 6 4.39 0.16
4 -13 -6 4.53 0.18
4 -13 -6 4.25 0.17
4 -13 -6 4.45 0.15
-4 -13 6 4.32 0.17
4 13 -6 4.21 0.18
-4 13 6 4.42 0.18
4 13 -6 4.35 0.18
4 13 -6 4.3 0.19
-4 13 6 4.42 0.18
-4 13 6 4.48 0.17
-4 13 6 4.45 0.18
3 -13 -6 1.07 0.07
-3 -13 6 1.07 0.07
-3 -13 6 1.32 0.09
3 13 -6 1.2 0.1
-3 13 6 1.19 0.09
-3 13 6 1.29 0.09
3 13 -6 1.31 0.1
-3 13 6 1.17 0.09
-3 13 6 1.16 0.1
-2 -13 6 2.9 0.12
-2 -13 6 2.68 0.13
-2 -13 6 2.75 0.14
2 -13 -6 2.7 0.1
2 13 -6 2.68 0.13
2 13 -6 2.66 0.14
2 13 -6 2.87 0.13
1 -13 -6 0.65 0.06
-1 -13 6 0.79 0.05
-1 -13 6 0.63 0.08
-1 -13 6 0.7 0.06
1 13 -6 0.67 0.08
1 13 -6 0.82 0.08
-1 13 6 0.77 0.07
1 13 -6 0.79 0.15
1 13 -6 0.86 0.07
-1 13 6 0.83 0.07
0 -13 -6 0.62 0.05
0 -13 6 0.58 0.05
0 -13 6 0.49 0.06
0 -13 6 0.63 0.08
0 13 6 0.4 0.07
0 13 6 0.67 0.07
0 13 6 0.48 0.07
0 13 -6 0.41 0.12
0 13 -6 0.44 0.07
0 13 -6 0.54 0.11
1 -13 6 1.25 0.11
1 -13 6 1.33 0.08
1 -13 6 1.4 0.09
1 -13 6 1.48 0.07
-1 -13 -6 1.26 0.07
-1 13 -6 1.25 0.09
1 13 6 1.47 0.09
1 13 6 1.47 0.1
-1 13 -6 1.34 0.09
-1 13 -6 1.16 0.13
1 13 6 1.29 0.09
1 13 6 1.3 0.09
2 -13 6 2.99 0.11
-2 -13 -6 2.66 0.13
2 -13 6 3.11 0.15
2 -13 6 2.53 0.19
2 -13 6 3.12 0.14
2 13 6 2.81 0.13
2 13 6 2.74 0.13
2 13 6 2.96 0.13
-2 13 -6 2.78 0.14
3 -13 6 2.15 0.13
-3 -13 -6 2.17 0.09
-3 -13 -6 2.16 0.11
3 -13 6 2.29 0.1
3 -13 6 2.37 0.11
-3 13 -6 2.06 0.15
3 13 6 2.36 0.12
-3 13 -6 2.2 0.12
3 13 6 2.26 0.11
3 13 6 2.28 0.12
-3 13 -6 2.36 0.12
4 -13 6 6.77 0.23
-4 -13 -6 6.94 0.22
4 -13 6 6.71 0.22
-4 -13 -6 7.06 0.23
4 13 6 6.91 0.25
-4 13 -6 6.54 0.25
4 13 6 6.75 0.24
-4 13 -6 6.85 0.29
-4 13 -6 6.69 0.25
-5 -13 -6 0.68 0.09
5 -13 6 0.62 0.06
-5 -13 -6 0.69 0.08
5 -13 6 0.69 0.07
5 -13 6 0.59 0.14
-5 13 -6 0.62 0.12
5 13 6 0.76 0.08
-5 13 -6 0.6 0.08
-6 -13 -6 0.54 0.05
-6 -13 -6 0.45 0.08
6 -13 6 0.46 0.06
-7 -13 -6 -0.02 0.02
7 -13 6 0 0.02
-7 -13 -6 0.06 0.03
-7 13 -6 -0.03 0.03
7 -14 -6 0.05 0.02
-7 14 6 0.02 0.03
-7 14 6 -0.02 0.03
-7 14 6 0.06 0.05
6 -14 -6 0.21 0.05
6 14 -6 0.15 0.05
-6 14 6 0.24 0.06
-5 -14 6 0.17 0.03
5 14 -6 0.12 0.05
-5 14 6 0.32 0.09
-5 14 6 0.15 0.04
-4 -14 6 2.2 0.1
-4 -14 6 2.18 0.11
4 -14 -6 2.17 0.14
4 -14 -6 2.19 0.09
-4 14 6 2.2 0.12
4 14 -6 2.38 0.13
4 14 -6 2.04 0.13
-4 14 6 2.37 0.12
-4 14 6 2.44 0.12
4 14 -6 2.17 0.13
-4 14 6 2.33 0.12
-3 -14 6 2.61 0.12
-3 -14 6 2.5 0.11
3 -14 -6 2.52 0.1
-3 14 6 2.6 0.14
3 14 -6 2.73 0.14
3 14 -6 2.44 0.13
-3 14 6 2.62 0.13
-3 14 6 2.57 0.12
-3 14 6 2.65 0.13
3 14 -6 2.49 0.13
-3 14 6 2.7 0.13
-2 -14 6 0.29 0.05
-2 14 6 0.26 0.08
-2 14 6 0.19 0.05
-2 14 6 0.3 0.08
2 14 -6 0.34 0.08
1 -14 -6 0.31 0.06
-1 -14 6 0.32 0.05
-1 -14 6 0.25 0.05
-1 14 6 0.39 0.07
-1 14 6 0.47 0.08
1 14 -6 0.47 0.08
0 -14 6 0.44 0.1
0 -14 -6 0.5 0.06
0 -14 6 0.44 0.06
0 14 6 0.53 0.07
0 14 -6 0.51 0.08
0 14 -6 0.72 0.13
0 14 -6 0.52 0.16
0 14 6 0.65 0.07
1 -14 6 1.39 0.09
1 -14 6 1.62 0.08
1 -14 6 1.71 0.12
1 -14 6 1.51 0.15
1 14 6 1.62 0.1
1 14 6 1.34 0.1
1 14 6 1.53 0.09
-1 14 -6 1.39 0.1
-1 14 -6 1.58 0.1
-1 14 -6 1.27 0.17
-1 14 -6 1.51 0.1
2 -14 6 2.71 0.11
-2 -14 -6 2.9 0.11
2 -14 6 2.85 0.12
-2 14 -6 2.81 0.13
-2 14 -6 2.75 0.14
2 14 6 2.95 0.13
2 14 6 2.89 0.13
-2 14 -6 3.1 0.17
2 14 6 2.95 0.13
2 14 6 2.81 0.14
3 -14 6 4.19 0.16
3 -14 6 4.23 0.15
-3 -14 -6 3.86 0.16
-3 -14 -6 4.05 0.14
3 -14 6 4.14 0.17
-3 14 -6 4 0.17
3 14 6 4.39 0.17
-3 14 -6 4.24 0.21
-3 14 -6 4.14 0.17
3 14 6 4.14 0.17
4 -14 6 1.21 0.09
-4 -14 -6 1.27 0.1
4 -14 6 1.42 0.08
-4 -14 -6 1.35 0.08
4 14 6 1.31 0.1
-4 14 -6 1.64 0.17
4 14 6 1.51 0.1
-4 14 -6 1.21 0.1
-4 14 -6 1.56 0.11
-4 14 -6 1.37 0.11
-5 -14 -6 0.71 0.06
-5 -14 -6 0.54 0.09
5 -14 6 0.54 0.07
-5 -14 -6 0.68 0.08
5 -14 6 0.56 0.06
5 14 6 0.45 0.08
5 14 6 0.62 0.08
-6 -14 -6 0.3 0.08
-6 -14 -6 0.52 0.05
6 -14 6 0.4 0.06
6 -14 6 0.55 0.06
6 14 6 0.45 0.08
6 14 6 0.42 0.09
7 -15 -6 0.15 0.02
-7 15 6 0.2 0.04
6 -15 -6 0.54 0.05
-6 15 6 0.61 0.08
-6 15 6 0.47 0.07
-6 15 6 0.5 0.1
-5 -15 6 1.59 0.1
-5 -15 6 1.97 0.09
5 -15 -6 1.88 0.09
-5 15 6 1.81 0.1
5 15 -6 1.85 0.15
-5 15 6 1.65 0.12
-5 15 6 1.73 0.1
-5 15 6 1.75 0.1
-4 -15 6 4.07 0.16
-4 -15 6 3.89 0.14
4 -15 -6 4.03 0.14
-4 15 6 4.04 0.16
-4 15 6 3.81 0.17
4 15 -6 3.75 0.17
-4 15 6 4.07 0.16
-4 15 6 4.01 0.16
4 15 -6 3.84 0.17
3 -15 -6 1.04 0.07
-3 -15 6 0.89 0.08
-3 -15 6 0.94 0.07
3 15 -6 0.73 0.1
-3 15 6 0.82 0.09
-3 15 6 0.86 0.09
-3 15 6 0.95 0.09
3 15 -6 1.03 0.11
3 15 -6 0.92 0.09
-3 15 6 0.98 0.09
2 -15 -6 5.05 0.17
-2 -15 6 5.27 0.19
-2 -15 6 5.28 0.17
2 15 -6 4.98 0.22
2 15 -6 5.03 0.2
-2 15 6 5.16 0.2
-2 15 6 5.08 0.19
-2 15 6 5.28 0.19
2 15 -6 5.28 0.2
-2 15 6 5.31 0.2
-1 -15 6 1.34 0.09
-1 -15 6 1.24 0.07
-1 15 6 1.07 0.1
-1 15 6 1.16 0.09
-1 15 6 1.1 0.09
1 15 -6 1.02 0.1
1 15 -6 1.28 0.09
-1 15 6 1.04 0.09
1 15 -6 1.27 0.09
0 -15 6 0.7 0.07
0 -15 6 0.71 0.06
0 -15 -6 0.68 0.07
0 15 -6 0.67 0.08
0 15 6 0.75 0.08
0 15 6 0.71 0.08
0 15 -6 0.71 0.09
0 15 -6 0.65 0.09
1 -15 6 0.33 0.07
1 -15 6 0.38 0.05
-1 -15 -6 0.37 0.06
1 15 6 0.28 0.08
1 15 6 0.28 0.07
1 15 6 0.26 0.07
-1 15 -6 0.31 0.08
-1 15 -6 0.39 0.07
-1 15 -6 0.33 0.08
2 -15 6 1 0.08
2 -15 6 1.13 0.07
-2 -15 -6 1.22 0.07
2 15 6 1.18 0.09
-2 15 -6 1.14 0.09
2 15 6 1.24 0.09
-2 15 -6 1.06 0.1
-2 15 -6 1.2 0.1
2 15 6 1.27 0.09
3 -15 6 0.49 0.06
3 -15 6 0.47 0.07
-3 -15 -6 0.39 0.06
3 -15 6 0.31 0.1
3 15 6 0.54 0.08
3 15 6 0.63 0.07
-3 15 -6 0.33 0.08
3 15 6 0.4 0.08
-3 15 -6 0.53 0.09
-3 15 -6 0.54 0.09
-4 -15 -6 1.9 0.09
4 -15 6 2.01 0.09
4 -15 6 1.98 0.1
4 15 6 1.99 0.11
4 15 6 2.15 0.11
-4 15 -6 2.28 0.13
-4 15 -6 2 0.12
-5 -15 -6 1.95 0.08
5 -15 6 1.87 0.08
-5 -15 -6 1.83 0.12
5 -15 6 1.79 0.09
-5 -15 -6 1.64 0.11
-5 15 -6 1.91 0.11
5 15 6 1.83 0.1
-6 -15 -6 0.38 0.07
6 -15 6 0.34 0.06
6 15 6 0.23 0.04
-6 15 -6 0.3 0.08
6 15 6 0.38 0.11
6 -16 -6 0.26 0.05
-6 16 6 0.17 0.03
-6 16 6 0.25 0.06
5 16 -6 0.16 0.06
-5 16 6 0.32 0.11
-5 16 6 0.25 0.06
-5 16 6 0.13 0.03
-5 16 6 0.13 0.03
4 -16 -6 0.17 0.03
-4 -16 6 0.26 0.07
-4 16 6 0.24 0.07
-4 16 6 0.35 0.07
4 16 -6 0.21 0.05
-4 16 6 0.16 0.05
4 16 -6 0.21 0.03
-3 -16 6 1 0.07
-3 -16 6 0.97 0.08
3 -16 -6 0.84 0.07
-3 16 6 0.98 0.09
3 16 -6 0.84 0.09
-3 16 6 0.93 0.09
-3 16 6 1 0.09
3 16 -6 0.85 0.1
-3 16 6 0.92 0.09
-2 -16 6 1.5 0.08
-2 -16 6 1.68 0.1
-2 16 6 1.68 0.1
-2 16 6 1.55 0.1
-2 16 6 1.71 0.11
2 16 -6 1.62 0.11
-2 16 6 1.56 0.1
-1 -16 6 0.89 0.08
-1 -16 6 0.95 0.06
-1 16 6 0.88 0.09
1 16 -6 1.03 0.09
1 16 -6 0.98 0.09
-1 16 6 0.92 0.09
-1 16 6 1.07 0.09
-1 16 6 0.92 0.09
1 16 -6 0.75 0.09
0 -16 6 3.6 0.16
0 -16 6 3.48 0.14
0 -16 6 3.24 0.12
0 16 -6 3.35 0.15
0 16 6 3.49 0.15
0 16 6 3.38 0.15
0 16 -6 3.46 0.16
0 16 6 3.35 0.15
0 16 6 3.16 0.15
0 16 -6 3.54 0.15
1 -16 6 2.01 0.12
-1 -16 -6 1.98 0.09
1 -16 6 1.93 0.09
1 -16 6 1.94 0.1
-1 16 -6 1.89 0.11
1 16 6 1.85 0.11
-1 16 -6 1.88 0.12
1 16 6 1.92 0.11
-1 16 -6 2.01 0.12
1 16 6 1.96 0.11
1 16 6 1.79 0.12
-2 -16 -6 5.86 0.19
2 -16 6 5.62 0.23
2 -16 6 5.64 0.19
2 -16 6 5.66 0.2
-2 16 -6 5.89 0.22
2 16 6 5.53 0.21
2 16 6 5.86 0.21
2 16 6 5.81 0.21
-2 16 -6 5.75 0.22
-2 16 -6 5.67 0.22
-3 -16 -6 3.99 0.15
3 -16 6 4.24 0.16
3 -16 6 4.18 0.15
-3 16 -6 4.1 0.17
3 16 6 4.23 0.17
-3 16 -6 4.18 0.18
-3 16 -6 4.5 0.18
3 16 6 4.31 0.17
4 -16 6 7.39 0.23
-4 -16 -6 7.14 0.28
4 -16 6 7.64 0.25
-4 -16 -6 7.68 0.23
-4 16 -6 7.64 0.27
-4 16 -6 7.45 0.27
4 16 6 7.6 0.26
4 16 6 7.55 0.26
-4 16 -6 7.19 0.27
-5 -16 -6 1.6 0.11
5 -16 6 1.84 0.08
5 -16 6 1.64 0.09
5 16 6 2.06 0.12
-5 16 -6 1.84 0.11
-6 -16 -6 0.14 0.03
6 -17 -6 0.1 0.02
-6 -17 6 0.04 0.03
-6 17 6 0.1 0.03
5 -17 -6 0.74 0.06
-5 -17 6 0.92 0.07
-5 17 6 0.8 0.07
-5 17 6 0.79 0.07
-4 -17 6 0.55 0.06
-4 -17 6 0.46 0.08
-4 17 6 0.4 0.07
-4 17 6 0.59 0.08
-4 17 6 0.42 0.07
4 17 -6 0.62 0.09
3 -17 -6 0.09 0.02
-3 -17 6 0.09 0.03
-3 17 6 0.11 0.04
-3 17 6 0.11 0.03
-3 17 6 0.06 0.03
3 17 -6 0.08 0.03
3 17 -6 0.07 0.03
-2 -17 6 0.86 0.09
-2 -17 6 0.94 0.06
-2 17 6 0.91 0.09
-2 17 6 0.8 0.09
-2 17 6 0.82 0.09
-2 17 6 0.83 0.08
2 17 -6 0.94 0.09
2 17 -6 0.88 0.1
-1 -17 6 0.93 0.09
-1 -17 6 0.76 0.06
-1 17 6 0.77 0.08
-1 17 6 0.58 0.09
1 17 -6 0.74 0.09
1 17 -6 0.76 0.09
-1 17 6 0.85 0.1
-1 17 6 0.71 0.09
1 17 -6 0.76 0.08
0 -17 6 0.38 0.07
0 17 -6 0.28 0.08
0 17 -6 0.37 0.08
0 17 6 0.26 0.04
0 17 6 0.31 0.09
1 -17 6 0.84 0.06
1 -17 6 0.82 0.08
1 -17 6 0.82 0.11
1 17 6 0.71 0.08
-1 17 -6 0.64 0.09
-1 17 -6 0.86 0.08
-1 17 -6 0.69 0.09
1 17 6 0.86 0.08
1 17 6 0.7 0.09
1 17 6 0.58 0.11
2 -17 6 1.44 0.14
-2 -17 -6 1.65 0.09
2 -17 6 1.48 0.08
2 -17 6 1.48 0.1
-2 17 -6 1.54 0.11
-2 17 -6 1.54 0.1
2 17 6 1.66 0.1
-2 17 -6 1.51 0.11
2 17 6 1.54 0.1
2 17 6 1.59 0.1
3 -17 6 0.61 0.06
3 -17 6 0.56 0.08
-3 -17 -6 0.66 0.07
-3 -17 -6 0.64 0.12
-3 17 -6 0.81 0.1
-3 17 -6 0.63 0.08
3 17 6 0.5 0.09
3 17 6 0.45 0.07
-3 17 -6 0.64 0.08
4 -17 6 0.04 0.02
4 -17 6 0.04 0.03
4 17 6 0.02 0.03
-4 17 -6 0.06 0.06
-4 17 -6 0.04 0.05
4 17 6 0.02 0.03
5 -17 6 0.61 0.05
5 -17 6 0.61 0.07
-5 -17 -6 0.76 0.05
5 17 6 0.6 0.14
5 -18 -6 0.25 0.07
-5 -18 6 0.11 0.03
-5 18 6 0.15 0.03
4 -18 -6 0.4 0.08
4 18 -6 0.45 0.09
-3 -18 6 0.53 0.06
-3 -18 6 0.53 0.08
3 18 -6 0.32 0.09
-3 18 6 0.48 0.08
3 18 -6 0.44 0.08
-3 18 6 0.4 0.08
-3 18 6 0.46 0.07
-2 -18 6 0.52 0.05
-2 -18 6 0.55 0.08
2 18 -6 0.48 0.08
-2 18 6 0.56 0.08
-2 18 6 0.63 0.08
2 18 -6 0.51 0.08
-2 18 6 0.45 0.08
-2 18 6 0.61 0.09
-1 -18 6 0.75 0.06
-1 -18 6 0.82 0.09
-1 18 6 0.51 0.08
-1 18 6 0.51 0.09
1 18 -6 0.69 0.08
1 18 -6 0.61 0.09
1 18 -6 0.73 0.09
-1 18 6 0.51 0.09
0 -18 6 2.46 0.1
0 -18 6 2.44 0.12
0 -18 6 2.13 0.15
0 18 -6 2.42 0.13
0 18 -6 2.27 0.12
0 18 -6 2.43 0.13
0 18 6 2.32 0.13
0 18 6 2.4 0.12
0 18 6 2.22 0.13
1 -18 6 0.14 0.03
-1 18 -6 0.08 0.03
-1 18 -6 0.31 0.09
1 18 6 0.11 0.03
-2 -18 -6 0.5 0.08
2 -18 6 0.51 0.05
2 -18 6 0.49 0.09
2 18 6 0.3 0.1
2 18 6 0.51 0.07
-2 18 -6 0.31 0.08
-2 18 -6 0.41 0.08
3 -18 6 1.26 0.06
-3 -18 -6 1.26 0.08
3 -18 6 1.1 0.1
-3 18 -6 1.37 0.1
3 18 6 1.14 0.08
4 -18 6 1.24 0.06
-4 -18 -6 1.3 0.07
4 -18 6 1.46 0.11
4 18 6 1.12 0.08
4 18 6 1.34 0.14
-5 18 -6 0.08 0.03
-4 -19 6 0.38 0.06
-4 19 6 0.3 0.07
4 19 -6 0.44 0.09
-4 19 6 0.25 0.04
-3 -19 6 0.43 0.09
3 19 -6 0.46 0.08
-3 19 6 0.65 0.08
-2 -19 6 0.52 0.05
-2 19 6 0.44 0.1
2 19 -6 0.49 0.09
-2 19 6 0.49 0.08
2 19 -6 0.39 0.08
-2 19 6 0.57 0.09
-2 19 6 0.51 0.09
-1 19 6 0.05 0.03
1 19 -6 0.08 0.03
-1 19 6 0.06 0.04
-1 19 6 0.13 0.03
1 19 -6 0.1 0.03
0 -19 6 1.04 0.06
0 19 -6 1.02 0.1
0 19 6 0.96 0.09
0 19 -6 0.91 0.09
0 19 -6 1 0.09
1 -19 6 2.9 0.11
1 19 6 2.84 0.13
-1 19 -6 2.91 0.14
-1 19 -6 3.03 0.14
1 19 6 2.89 0.14
-1 19 -6 2.72 0.13
2 -19 6 1.11 0.11
2 -19 6 1.12 0.06
2 19 6 0.92 0.08
-2 19 -6 1.12 0.09
2 19 6 0.85 0.11
-3 -19 -6 0.04 0.03
3 -19 6 0.06 0.02
-3 19 -6 0.02 0.04
3 19 6 0.03 0.04
-3 19 -6 0.13 0.06
3 19 6 0.03 0.02
-3 19 -6 0.07 0.03
4 -19 6 0.41 0.04
4 19 6 0.41 0.06
-4 19 -6 0.54 0.08
-4 -20 6 0 0.02
-4 20 6 -0.04 0.03
-3 20 6 0.03 0.03
-3 20 6 -0.03 0.05
3 20 -6 0.06 0.03
3 20 -6 0.02 0.03
-2 20 6 1.21 0.1
-2 20 6 1.31 0.1
2 20 -6 1.22 0.1
2 20 -6 1.2 0.1
-1 20 6 0.99 0.11
-1 20 6 0.88 0.09
-1 20 6 1.11 0.1
0 -20 6 2.75 0.11
0 20 6 2.47 0.14
0 20 6 2.67 0.14
-1 20 -6 0.26 0.05
1 20 6 0.37 0.07
-1 20 -6 0.41 0.1
1 20 6 0.17 0.05
-1 20 -6 0.29 0.08
2 -20 6 0.02 0.01
-2 20 -6 -0.06 0.04
2 20 6 0.05 0.03
-2 20 -6 0.05 0.04
-2 20 -6 0.01 0.03
3 -20 6 0.21 0.04
3 20 6 0.2 0.06
-3 -21 6 0.18 0.05
3 21 -6 0.04 0.03
-2 -21 6 0.81 0.06
2 21 -6 0.84 0.08
-2 21 6 0.54 0.1
1 21 -6 0.11 0.03
-1 21 6 0.06 0.05
-1 21 6 0.18 0.05
0 -21 6 0.7 0.05
0 21 -6 0.57 0.09
0 21 6 0.54 0.13
0 21 -6 0.74 0.09
1 -21 6 0.06 0.02
-1 21 -6 0.02 0.02
-1 21 -6 0.13 0.04
1 21 6 0.04 0.03
-1 21 -6 0.04 0.03
2 -21 6 0.02 0.01
2 21 6 0 0.03
-2 21 -6 -0.01 0.03
-2 21 -6 -0.03 0.05
0 22 -6 0.05 0.03
0 22 -6 0.05 0.03
9 0 -7 -0.02 0.03
9 0 -7 -0.06 0.04
-9 0 7 -0.02 0.02
8 0 -7 0.08 0.03
-8 0 7 0.05 0.02
8 0 -7 0.07 0.03
7 0 -7 0.07 0.03
7 0 -7 0.14 0.04
7 0 -7 0.13 0.04
-7 0 7 0.08 0.03
-6 0 7 0.86 0.1
6 0 -7 0.8 0.08
6 0 -7 0.81 0.08
6 0 -7 0.6 0.1
6 0 -7 0.74 0.08
-6 0 7 0.58 0.08
5 0 -7 0.21 0.07
-5 0 7 0.09 0.03
5 0 -7 0.08 0.03
5 0 -7 0.13 0.03
4 0 -7 0.01 0.02
-4 0 7 0.02 0.02
-4 0 7 0.03 0.03
-4 0 7 -0.01 0.03
4 0 -7 0.04 0.03
-4 0 7 0.05 0.03
4 0 -7 0.05 0.03
4 0 -7 0.03 0.02
-4 0 7 0.04 0.03
-3 0 7 6 0.2
-3 0 7 5.98 0.21
3 0 -7 6.37 0.22
-3 0 7 6.02 0.2
3 0 -7 6.17 0.2
3 0 -7 6.14 0.19
-3 0 7 6.05 0.21
3 0 -7 6.04 0.21
-3 0 7 5.78 0.2
2 0 -7 8.83 0.3
-2 0 7 8.95 0.29
2 0 -7 9.11 0.28
-2 0 7 8.84 0.28
2 0 -7 9.11 0.27
-2 0 7 8.92 0.3
-2 0 7 8.91 0.28
1 0 -7 17.94 0.57
-1 0 7 18.59 0.57
1 0 -7 18.42 0.52
1 0 -7 16.67 0.6
-1 0 7 18.4 0.55
-1 0 7 17.24 0.54
0 0 -7 0.62 0.04
0 0 -7 0.55 0.06
0 0 -7 0.64 0.04
0 0 -7 0.56 0.05
0 0 7 0.6 0.05
0 0 7 0.6 0.05
0 0 7 0.48 0.05
0 0 7 0.59 0.05
0 0 7 0.57 0.05
1 0 7 0.59 0.05
-1 0 -7 0.65 0.06
1 0 7 0.67 0.05
-1 0 -7 0.67 0.06
-1 0 -7 0.51 0.04
1 0 7 0.54 0.06
1 0 7 0.64 0.05
2 0 7 11.88 0.38
-2 0 -7 11.23 0.35
-2 0 -7 12.06 0.36
-2 0 -7 12.04 0.41
-2 0 -7 11.96 0.37
2 0 7 12.13 0.36
2 0 7 12.03 0.37
2 0 7 11.71 0.39
-3 0 -7 3.33 0.15
3 0 7 3.53 0.15
-3 0 -7 3.37 0.12
-3 0 -7 3.52 0.14
3 0 7 3.58 0.14
-3 0 -7 3.65 0.13
4 0 7 0.66 0.06
4 0 7 0.7 0.11
-4 0 -7 0.56 0.05
-4 0 -7 0.58 0.06
-4 0 -7 0.71 0.07
-5 0 -7 5.88 0.24
5 0 7 6.3 0.24
5 0 7 5.62 0.28
-5 0 -7 6.39 0.21
-6 0 -7 20.91 0.74
-6 0 -7 21.66 0.65
6 0 7 21.51 0.65
-6 0 -7 22.23 0.67
-7 0 -7 1.39 0.12
-7 0 -7 1.43 0.09
-7 0 -7 1.46 0.12
-8 0 -7 0.51 0.09
9 -1 -7 0.44 0.07
9 -1 -7 0.35 0.07
9 1 -7 0.54 0.07
-9 1 7 0.42 0.07
-8 -1 7 0.37 0.07
8 -1 -7 0.29 0.07
8 -1 -7 0.34 0.07
8 1 -7 0.32 0.06
-8 1 7 0.29 0.06
8 1 -7 0.35 0.08
-7 -1 7 3.47 0.17
7 -1 -7 3.74 0.16
-7 -1 7 3.44 0.16
-7 -1 7 3.73 0.16
7 -1 -7 3.54 0.15
7 -1 -7 3.75 0.15
-7 1 7 3.87 0.16
7 1 -7 3.68 0.16
7 1 -7 3.64 0.15
7 1 -7 3.62 0.2
-7 1 7 3.85 0.16
6 -1 -7 1.04 0.08
6 -1 -7 0.87 0.12
-6 -1 7 1.05 0.1
6 -1 -7 1.05 0.09
-6 -1 7 1.18 0.1
6 -1 -7 1.12 0.09
-6 1 7 1.03 0.09
6 1 -7 0.93 0.1
6 1 -7 1.04 0.08
6 1 -7 1.23 0.09
6 1 -7 0.93 0.09
5 -1 -7 1.15 0.08
5 -1 -7 1.13 0.09
5 -1 -7 1.04 0.1
-5 -1 7 1.09 0.09
5 -1 -7 1.26 0.07
-5 -1 7 1.2 0.09
-5 1 7 0.98 0.09
5 1 -7 1.15 0.09
5 1 -7 1.04 0.08
5 1 -7 1.05 0.1
5 1 -7 1.19 0.08
-4 -1 7 0.05 0.02
-4 -1 7 0.11 0.04
4 -1 -7 0.11 0.03
-4 -1 7 0.05 0.02
4 -1 -7 0.08 0.02
-4 1 7 0.11 0.03
4 1 -7 0.09 0.03
4 1 -7 0.07 0.02
4 1 -7 0.06 0.02
4 1 -7 0.12 0.03
-4 1 7 0.06 0.03
-4 1 7 0.02 0.02
3 -1 -7 1.76 0.08
3 -1 -7 1.63 0.07
3 -1 -7 1.64 0.09
-3 -1 7 1.69 0.08
-3 -1 7 1.55 0.08
-3 -1 7 1.73 0.09
-3 -1 7 1.63 0.08
3 1 -7 1.71 0.09
-3 1 7 1.67 0.08
3 1 -7 1.69 0.08
-3 1 7 1.67 0.09
3 1 -7 1.64 0.07
3 1 -7 1.59 0.08
-3 1 7 1.69 0.08
-3 1 7 1.63 0.08
2 -1 -7 4.64 0.15
2 -1 -7 4.9 0.16
-2 -1 7 4.8 0.17
-2 -1 7 5 0.17
2 -1 -7 4.54 0.17
2 -1 -7 4.63 0.18
-2 -1 7 4.79 0.16
2 1 -7 4.69 0.15
-2 1 7 4.77 0.16
2 1 -7 4.57 0.18
-2 1 7 4.81 0.17
2 1 -7 4.9 0.17
-2 1 7 4.84 0.17
2 1 -7 4.85 0.16
-2 1 7 4.5 0.17
-1 -1 7 23.83 0.71
-1 -1 7 24.09 0.73
-1 -1 7 22.88 0.68
-1 -1 7 22.78 0.69
-1 -1 7 21.79 0.69
1 -1 -7 22.2 0.72
1 -1 -7 23.16 0.66
-1 -1 7 23.12 0.73
1 -1 -7 23.36 0.68
-1 1 7 22.86 0.69
-1 1 7 23.57 0.68
-1 1 7 23.36 0.73
1 1 -7 22.06 0.77
1 1 -7 23.45 0.68
-1 1 7 22.94 0.69
1 1 -7 23.52 0.66
-1 1 7 22.58 0.7
1 1 -7 23.26 0.72
0 -1 7 47.88 1.38
0 -1 -7 48.32 1.33
0 -1 -7 48.87 1.44
0 -1 7 45.27 1.39
0 -1 7 46.83 1.39
0 -1 7 45.25 1.43
0 -1 7 45.27 1.33
0 -1 7 47.57 1.36
0 -1 7 44.48 1.46
0 -1 7 47.73 1.46
0 -1 -7 48.8 1.36
0 1 -7 47.99 1.36
0 1 -7 44.03 1.53
0 1 7 46.85 1.42
0 1 -7 48.13 1.44
0 1 7 45.15 1.4
0 1 7 47.35 1.46
0 1 -7 46.11 1.33
0 1 7 47.59 1.38
-1 -1 -7 28.04 0.8
1 -1 7 28.27 0.89
1 -1 7 26.86 0.81
-1 -1 -7 28.18 0.82
-1 -1 -7 27.81 0.83
1 -1 7 28.14 0.82
1 -1 7 28.81 0.86
-1 -1 -7 27.69 0.93
1 -1 7 27.24 0.83
1 1 7 28.56 0.82
1 1 7 28.05 0.88
1 1 7 28.09 0.83
-1 1 -7 29.18 0.93
-1 1 -7 28.21 0.82
1 1 7 26.48 0.84
1 1 7 28.55 0.86
-1 1 -7 27.7 0.8
-1 1 -7 28.4 0.87
-1 1 -7 26.97 0.83
2 -1 7 1.9 0.08
-2 -1 -7 1.96 0.08
2 -1 7 1.94 0.1
-2 -1 -7 1.91 0.1
-2 -1 -7 1.79 0.09
-2 -1 -7 1.76 0.07
2 -1 7 1.85 0.09
2 1 7 1.97 0.08
2 1 7 2 0.1
-2 1 -7 1.99 0.09
-2 1 -7 1.88 0.08
-2 1 -7 1.85 0.1
-2 1 -7 1.81 0.08
3 -1 7 0.6 0.05
-3 -1 -7 0.71 0.07
-3 -1 -7 0.77 0.07
-3 -1 -7 0.7 0.05
3 -1 7 0.56 0.07
3 -1 7 0.63 0.08
3 1 7 0.75 0.06
-3 1 -7 0.55 0.07
3 1 7 0.82 0.07
-3 1 -7 0.6 0.07
-3 1 -7 0.64 0.05
-3 1 -7 0.69 0.05
-4 -1 -7 3.71 0.13
-4 -1 -7 3.68 0.13
4 -1 7 3.7 0.13
4 -1 7 3.65 0.18
-4 -1 -7 3.84 0.15
-4 -1 -7 3.58 0.16
4 -1 7 3.42 0.16
-4 1 -7 3.38 0.13
4 1 7 3.46 0.16
4 1 7 3.21 0.17
-4 1 -7 3.45 0.16
-4 1 -7 3.67 0.13
4 1 7 3.57 0.13
5 -1 7 0.11 0.04
5 -1 7 0.2 0.11
-5 1 -7 0.11 0.03
5 1 7 0.16 0.05
-6 -1 -7 6 0.24
6 -1 7 6.07 0.21
-6 -1 -7 6.24 0.23
-6 -1 -7 5.97 0.21
6 1 7 5.87 0.22
-6 1 -7 5.73 0.24
-6 1 -7 5.72 0.21
-7 -1 -7 8.87 0.35
7 -1 7 9.11 0.31
-7 -1 -7 9.23 0.3
-7 -1 -7 9.96 0.33
-7 1 -7 9.91 0.31
-7 1 -7 9.85 0.32
-7 1 -7 9.19 0.35
-8 -1 -7 0.19 0.04
-8 -1 -7 0.21 0.04
8 -1 7 0.17 0.03
-8 1 -7 0.11 0.06
8 1 7 0.23 0.03
-9 -2 7 0.52 0.07
9 -2 -7 0.45 0.08
9 2 -7 0.48 0.07
-9 2 7 0.61 0.07
-8 -2 7 0.53 0.08
8 -2 -7 0.54 0.08
8 -2 -7 0.54 0.07
8 2 -7 0.56 0.1
-8 2 7 0.67 0.07
8 2 -7 0.62 0.07
-8 2 7 0.85 0.14
7 -2 -7 0.41 0.08
7 -2 -7 0.52 0.08
-7 -2 7 0.4 0.09
7 -2 -7 0.4 0.08
7 2 -7 0.35 0.08
7 2 -7 0.36 0.08
-7 2 7 0.47 0.08
6 -2 -7 0.06 0.04
6 -2 -7 0.07 0.02
-6 -2 7 0.04 0.03
6 -2 -7 0.06 0.03
6 2 -7 0.03 0.04
-6 2 7 0.05 0.03
6 2 -7 0.04 0.03
6 2 -7 0.05 0.04
5 -2 -7 2.1 0.11
-5 -2 7 2 0.12
5 -2 -7 2.09 0.09
-5 -2 7 2.08 0.11
5 -2 -7 2.08 0.11
5 -2 -7 1.82 0.12
5 2 -7 2.07 0.11
5 2 -7 1.96 0.11
5 2 -7 1.8 0.12
-5 2 7 2.08 0.11
5 2 -7 1.92 0.1
-4 -2 7 1.6 0.09
-4 -2 7 1.65 0.09
4 -2 -7 1.7 0.09
-4 -2 7 1.57 0.09
4 -2 -7 1.77 0.08
4 -2 -7 1.69 0.1
-4 2 7 1.61 0.09
4 2 -7 1.56 0.09
4 2 -7 1.54 0.08
-4 2 7 1.6 0.09
4 2 -7 1.56 0.08
4 2 -7 1.62 0.1
-4 2 7 1.79 0.09
3 -2 -7 5.49 0.2
-3 -2 7 5.52 0.2
3 -2 -7 5.7 0.18
-3 -2 7 5.52 0.2
-3 -2 7 5.8 0.19
-3 -2 7 5.41 0.18
3 -2 -7 5.57 0.19
-3 2 7 5.69 0.19
-3 2 7 5.22 0.2
-3 2 7 5.67 0.19
-3 2 7 5.43 0.19
3 2 -7 5.72 0.2
3 2 -7 5.91 0.2
-3 2 7 5.6 0.19
3 2 -7 5.49 0.19
3 2 -7 5.41 0.18
2 -2 -7 25.33 0.72
2 -2 -7 24.55 0.74
-2 -2 7 25.48 0.74
2 -2 -7 25.07 0.78
-2 -2 7 24.47 0.79
-2 -2 7 25.14 0.75
-2 -2 7 24.14 0.78
-2 2 7 26.15 0.76
-2 2 7 24.92 0.79
-2 2 7 24.59 0.75
2 2 -7 24.22 0.74
2 2 -7 25.83 0.83
2 2 -7 25.85 0.72
2 2 -7 24.49 0.78
-2 2 7 23.52 0.74
1 -2 -7 15 0.48
1 -2 -7 14.57 0.45
-1 -2 7 15.18 0.48
-1 -2 7 15.18 0.47
-1 -2 7 15.48 0.48
1 -2 -7 14.57 0.51
-1 -2 7 15.35 0.45
-1 -2 7 15.16 0.44
-1 -2 7 15 0.46
1 -2 -7 14.72 0.44
1 2 -7 14.21 0.48
1 2 -7 15.28 0.51
1 2 -7 14.63 0.44
-1 2 7 15.24 0.46
-1 2 7 14.46 0.46
1 2 -7 14.95 0.45
-1 2 7 15.29 0.46
0 -2 -7 1.37 0.07
0 -2 7 1.28 0.06
0 -2 7 1.17 0.07
0 -2 -7 1.27 0.06
0 -2 7 1.25 0.06
0 -2 7 1.36 0.07
0 -2 7 1.14 0.07
0 -2 -7 1.23 0.06
0 2 7 1.25 0.06
0 2 -7 1.28 0.06
0 2 -7 1.24 0.06
0 2 7 1.18 0.07
0 2 7 1.25 0.06
0 2 -7 1.3 0.07
1 -2 7 1.26 0.07
1 -2 7 1.22 0.06
1 -2 7 1.35 0.07
1 -2 7 1.38 0.07
-1 -2 -7 1.37 0.08
-1 -2 -7 1.3 0.06
-1 -2 -7 1.42 0.08
1 -2 7 1.32 0.06
1 2 7 1.31 0.07
-1 2 -7 1.32 0.06
-1 2 -7 1.17 0.06
1 2 7 1.3 0.07
1 2 7 1.31 0.07
-1 2 -7 1.31 0.07
-1 2 -7 1.16 0.07
1 2 7 1.33 0.07
1 2 7 1.35 0.07
-2 -2 -7 0.5 0.04
2 -2 7 0.45 0.05
-2 -2 -7 0.58 0.05
-2 -2 -7 0.58 0.06
2 -2 7 0.5 0.05
2 -2 7 0.64 0.05
2 -2 7 0.59 0.06
2 2 7 0.56 0.05
2 2 7 0.65 0.05
-2 2 -7 0.49 0.05
-2 2 -7 0.62 0.06
2 2 7 0.68 0.06
-2 2 -7 0.63 0.07
3 -2 7 1.75 0.1
3 -2 7 1.93 0.11
3 -2 7 2 0.08
-3 -2 -7 1.8 0.1
3 -2 7 1.78 0.09
-3 -2 -7 2.06 0.09
-3 -2 -7 1.9 0.08
-3 -2 -7 1.77 0.1
3 2 7 1.97 0.1
3 2 7 2.02 0.09
-3 2 -7 1.8 0.08
-3 2 -7 2.08 0.09
3 2 7 1.77 0.1
3 2 7 1.98 0.11
-3 2 -7 2.07 0.1
-3 2 -7 1.8 0.11
4 -2 7 3.76 0.18
-4 -2 -7 3.73 0.14
4 -2 7 3.69 0.14
4 -2 7 3.63 0.16
-4 -2 -7 3.7 0.13
-4 -2 -7 3.8 0.15
-4 -2 -7 3.49 0.18
-4 2 -7 3.51 0.16
-4 2 -7 3.49 0.16
-4 2 -7 3.63 0.14
4 2 7 3.71 0.16
-4 2 -7 3.48 0.18
-4 2 -7 3.86 0.14
-4 2 -7 3.82 0.15
5 -2 7 10.12 0.32
5 -2 7 9.16 0.38
-5 -2 -7 10.08 0.3
5 -2 7 9.58 0.35
-5 -2 -7 9.81 0.36
-5 -2 -7 10.35 0.31
-5 2 -7 9.78 0.31
5 2 7 9.67 0.32
-5 2 -7 9.06 0.36
-5 2 -7 10.15 0.33
6 -2 7 2.91 0.17
6 -2 7 3.2 0.13
-6 -2 -7 3.06 0.13
-6 -2 -7 2.84 0.15
-6 2 -7 3.01 0.14
6 2 7 2.63 0.19
-6 2 -7 2.95 0.16
-6 2 -7 2.93 0.13
7 -2 7 2.07 0.12
-7 -2 -7 1.97 0.1
-7 -2 -7 2.07 0.13
-7 2 -7 2.38 0.15
-7 2 -7 2.22 0.12
-7 2 -7 2.2 0.12
-8 -2 -7 0.89 0.08
8 -2 7 1.05 0.09
8 2 7 1 0.08
-9 -3 7 0.01 0.02
9 -3 -7 0.02 0.02
9 3 -7 0.03 0.03
8 -3 -7 0.23 0.08
8 -3 -7 0.07 0.04
-8 -3 7 0.15 0.03
-8 3 7 0.25 0.06
-8 3 7 0.21 0.07
7 -3 -7 1.29 0.09
7 -3 -7 1.42 0.09
-7 -3 7 1.33 0.11
7 -3 -7 1.24 0.09
-7 -3 7 1.2 0.1
7 3 -7 1.2 0.1
7 3 -7 1.3 0.1
-7 3 7 1.42 0.1
7 3 -7 1.14 0.13
6 -3 -7 1.48 0.09
6 -3 -7 1.43 0.1
6 -3 -7 1.53 0.09
-6 -3 7 1.42 0.11
-6 3 7 1.35 0.1
6 3 -7 1.54 0.1
6 3 -7 1.35 0.09
6 3 -7 1.19 0.11
5 -3 -7 0.21 0.06
-5 -3 7 0.23 0.07
-5 -3 7 0.18 0.03
5 -3 -7 0.3 0.07
5 -3 -7 0.18 0.04
5 -3 -7 0.27 0.05
5 3 -7 0.29 0.06
-5 3 7 0.25 0.07
-5 3 7 0.17 0.04
5 3 -7 0.19 0.04
5 3 -7 0.28 0.06
-4 -3 7 16.24 0.51
4 -3 -7 15.8 0.48
4 -3 -7 16.16 0.51
4 -3 -7 16.74 0.52
-4 -3 7 15.39 0.52
-4 -3 7 16.32 0.5
4 -3 -7 17.02 0.5
-4 3 7 16.4 0.5
-4 3 7 16.56 0.48
4 3 -7 16.11 0.48
4 3 -7 16.66 0.5
4 3 -7 15.36 0.52
4 3 -7 15.93 0.51
-4 3 7 15.38 0.5
-3 -3 7 3.22 0.13
-3 -3 7 3.31 0.13
-3 -3 7 2.95 0.12
3 -3 -7 3.14 0.12
3 -3 -7 3.05 0.11
-3 -3 7 2.96 0.12
-3 3 7 3.22 0.12
3 3 -7 3.2 0.12
3 3 -7 3.21 0.12
-3 3 7 3.22 0.12
-3 3 7 3.16 0.12
3 3 -7 3.26 0.13
3 3 -7 3.26 0.13
2 -3 -7 6.34 0.19
-2 -3 7 6.1 0.21
2 -3 -7 6.19 0.21
-2 -3 7 6.11 0.21
-2 -3 7 5.85 0.19
2 -3 -7 5.95 0.2
-2 -3 7 6.18 0.21
-2 -3 7 5.8 0.2
-2 3 7 6.31 0.21
2 3 -7 5.98 0.2
2 3 -7 5.92 0.21
-2 3 7 5.86 0.2
2 3 -7 6.05 0.21
2 3 -7 6.01 0.19
2 3 -7 6.25 0.23
-2 3 7 6.37 0.2
-1 -3 7 19.39 0.6
1 -3 -7 19.19 0.68
-1 -3 7 20.41 0.61
1 -3 -7 20.61 0.64
-1 -3 7 20.99 0.59
1 -3 -7 21.18 0.6
-1 -3 7 19.54 0.65
-1 -3 7 20.28 0.65
1 3 -7 21.16 0.64
1 3 -7 21.39 0.61
-1 3 7 20.48 0.62
1 3 -7 20.98 0.59
1 3 -7 20.52 0.68
-1 3 7 19.07 0.61
-1 3 7 20.38 0.61
-1 3 7 19.83 0.62
0 -3 -7 7.06 0.21
0 -3 7 6.71 0.23
0 -3 7 7.23 0.22
0 -3 7 6.96 0.24
0 -3 7 7.07 0.24
0 -3 7 7.17 0.21
0 -3 7 7.08 0.23
0 -3 -7 7.22 0.25
0 -3 -7 6.84 0.22
0 3 -7 7.09 0.25
0 3 -7 6.74 0.24
0 3 -7 6.69 0.21
0 3 -7 7.25 0.22
0 3 7 6.99 0.23
0 3 7 7.25 0.23
0 3 7 6.64 0.22
1 -3 7 1.46 0.07
-1 -3 -7 1.62 0.08
1 -3 7 1.65 0.08
1 -3 7 1.69 0.07
-1 -3 -7 1.47 0.06
1 -3 7 1.53 0.08
-1 -3 -7 1.6 0.07
-1 3 -7 1.59 0.08
-1 3 -7 1.5 0.08
-1 3 -7 1.51 0.07
1 3 7 1.57 0.07
1 3 7 1.63 0.07
-1 3 -7 1.57 0.08
2 -3 7 4.9 0.18
-2 -3 -7 5.26 0.17
-2 -3 -7 5.1 0.19
2 -3 7 4.86 0.16
-2 -3 -7 5.31 0.16
-2 -3 -7 4.73 0.18
2 -3 7 5.13 0.19
2 -3 7 4.99 0.17
2 -3 7 5.14 0.18
-2 3 -7 5.18 0.16
2 3 7 5.02 0.17
-2 3 -7 5.11 0.17
-2 3 -7 5.12 0.18
-2 3 -7 5.23 0.2
2 3 7 5.2 0.18
-2 3 -7 5.23 0.18
2 3 7 4.93 0.17
-3 -3 -7 8.07 0.27
-3 -3 -7 8.13 0.26
3 -3 7 7.86 0.28
3 -3 7 7.63 0.25
3 -3 7 7.98 0.26
3 -3 7 8.49 0.29
-3 -3 -7 8.06 0.25
3 -3 7 8.15 0.27
3 3 7 8.19 0.28
-3 3 -7 8.45 0.27
-3 3 -7 8.46 0.3
3 3 7 7.6 0.26
-3 3 -7 8.3 0.26
3 3 7 8.29 0.26
-3 3 -7 8.37 0.28
-4 -3 -7 8.93 0.32
-4 -3 -7 8.8 0.26
4 -3 7 8.22 0.31
-4 -3 -7 8.92 0.29
4 -3 7 8.44 0.3
4 -3 7 8.53 0.27
-4 -3 -7 8.77 0.27
4 -3 7 8.09 0.27
4 3 7 7.92 0.28
-4 3 -7 8.78 0.28
-4 3 -7 8.75 0.32
-4 3 -7 8.92 0.28
-4 3 -7 8.59 0.3
4 3 7 7.98 0.3
5 -3 7 23.74 0.71
-5 -3 -7 23.55 0.8
-5 -3 -7 24.02 0.69
-5 -3 -7 23.55 0.74
5 -3 7 23.35 0.76
-5 -3 -7 24.19 0.71
-5 3 -7 24.32 0.71
5 3 7 22.36 0.76
-5 3 -7 24.27 0.72
-5 3 -7 23.25 0.8
-6 -3 -7 1.97 0.1
6 -3 7 2.11 0.11
-6 -3 -7 2.11 0.1
6 -3 7 1.95 0.15
-6 -3 -7 1.77 0.12
-6 3 -7 1.82 0.13
-6 3 -7 1.88 0.11
-6 3 -7 1.7 0.12
6 3 7 1.88 0.17
-7 -3 -7 1.57 0.11
-7 -3 -7 1.58 0.09
-7 3 -7 1.8 0.13
-7 3 -7 1.79 0.11
-7 3 -7 1.55 0.13
8 -3 7 2.43 0.11
-8 -3 -7 1.95 0.13
8 3 7 2.3 0.11
-8 -4 7 0.28 0.08
8 -4 -7 0.27 0.06
-8 -4 7 0.24 0.05
-8 4 7 0.24 0.06
8 4 -7 0.32 0.07
8 4 -7 0.32 0.1
7 -4 -7 0.01 0.03
-7 -4 7 0.03 0.03
7 -4 -7 0.04 0.02
7 -4 -7 0.05 0.04
-7 -4 7 0.08 0.03
7 4 -7 0.05 0.04
-7 4 7 -0.04 0.04
7 4 -7 0.01 0.03
7 4 -7 0.01 0.03
-7 4 7 0.03 0.02
6 -4 -7 2.32 0.11
6 -4 -7 2.17 0.1
-6 -4 7 2.13 0.13
6 -4 -7 2.29 0.12
6 4 -7 2.25 0.12
6 4 -7 2.2 0.12
-6 4 7 2.12 0.12
6 4 -7 2.05 0.13
-6 4 7 2.22 0.11
5 -4 -7 2.49 0.11
-5 -4 7 2.59 0.12
5 -4 -7 2.38 0.11
-5 -4 7 2.49 0.13
5 -4 -7 2.24 0.15
5 -4 -7 2.62 0.13
-5 4 7 2.56 0.12
5 4 -7 2.24 0.13
-5 4 7 2.33 0.12
5 4 -7 2.45 0.12
5 4 -7 2.54 0.12
-4 -4 7 21.66 0.65
-4 -4 7 21.28 0.63
4 -4 -7 22.28 0.63
4 -4 -7 20.78 0.69
4 -4 -7 22.02 0.65
4 -4 -7 22.7 0.68
-4 -4 7 21.57 0.67
-4 4 7 21.82 0.64
4 4 -7 21.21 0.65
-4 4 7 21.86 0.66
4 4 -7 21.56 0.69
4 4 -7 21.03 0.67
3 -4 -7 14.48 0.46
-3 -4 7 14.36 0.42
-3 -4 7 14.39 0.46
3 -4 -7 13.93 0.43
-3 -4 7 14.18 0.45
-3 -4 7 13.75 0.43
3 -4 -7 14.51 0.42
3 4 -7 13.79 0.43
-3 4 7 13.65 0.44
-3 4 7 14.29 0.43
3 4 -7 14.41 0.43
3 4 -7 14.24 0.45
-3 4 7 14.22 0.44
3 4 -7 14.1 0.46
-2 -4 7 20.27 0.63
2 -4 -7 19.16 0.62
-2 -4 7 19.08 0.63
-2 -4 7 19.4 0.6
-2 -4 7 19.8 0.57
-2 -4 7 20.3 0.59
2 -4 -7 19.86 0.59
2 -4 -7 19.17 0.57
2 4 -7 20.62 0.59
-2 4 7 19.38 0.58
-2 4 7 18.89 0.59
2 4 -7 18.86 0.57
-2 4 7 19.68 0.6
2 4 -7 19.46 0.61
-2 4 7 20.36 0.6
2 4 -7 20.53 0.63
-1 -4 7 3.65 0.14
1 -4 -7 3.68 0.14
-1 -4 7 3.85 0.14
-1 -4 7 3.82 0.14
1 -4 -7 3.57 0.12
-1 -4 7 3.66 0.12
1 -4 -7 3.75 0.15
1 -4 -7 3.75 0.13
-1 -4 7 3.79 0.13
1 4 -7 3.69 0.13
-1 4 7 3.69 0.14
-1 4 7 3.74 0.13
1 4 -7 3.74 0.14
1 4 -7 3.89 0.15
-1 4 7 3.58 0.13
0 -4 7 19.49 0.57
0 -4 7 18.78 0.59
0 -4 -7 19.42 0.55
0 -4 -7 20.16 0.56
0 -4 7 18.56 0.61
0 -4 7 19.21 0.55
0 -4 -7 18.59 0.63
0 -4 7 19.52 0.61
0 4 7 18.43 0.58
0 4 -7 18.24 0.55
0 4 7 18.73 0.58
0 4 -7 18.51 0.64
0 4 -7 18.37 0.6
0 4 -7 19.32 0.56
0 4 7 18.64 0.57
1 -4 7 5.01 0.18
1 -4 7 4.75 0.17
1 -4 7 4.89 0.18
-1 -4 -7 4.69 0.16
-1 -4 -7 4.94 0.18
1 -4 7 4.81 0.17
1 -4 7 4.6 0.16
1 -4 7 4.7 0.15
-1 -4 -7 4.71 0.15
-1 4 -7 4.81 0.16
1 4 7 4.89 0.17
1 4 7 4.95 0.16
-1 4 -7 5.12 0.17
-1 4 -7 4.8 0.16
1 4 7 4.79 0.17
-1 4 -7 4.97 0.17
-1 4 -7 5.02 0.19
2 -4 7 2.37 0.11
2 -4 7 2.48 0.1
2 -4 7 2.26 0.09
2 -4 7 2.29 0.1
2 -4 7 2.51 0.11
-2 -4 -7 2.45 0.09
-2 -4 -7 2.38 0.09
-2 -4 -7 2.24 0.11
-2 4 -7 2.53 0.11
-2 4 -7 2.26 0.11
2 4 7 2.3 0.1
-2 4 -7 2.18 0.11
-2 4 -7 2.2 0.1
-2 4 -7 2.37 0.1
2 4 7 2.33 0.1
-2 4 -7 2.42 0.1
-3 -4 -7 6.18 0.19
-3 -4 -7 6 0.19
-3 -4 -7 5.67 0.21
3 -4 7 5.9 0.21
3 -4 7 5.68 0.19
3 -4 7 5.48 0.2
3 -4 7 5.81 0.19
3 4 7 5.61 0.21
3 4 7 5.65 0.2
-3 4 -7 6.15 0.23
-3 4 -7 5.64 0.19
-3 4 -7 5.73 0.2
3 4 7 5.87 0.2
-3 4 -7 6.18 0.23
4 -4 7 3.09 0.15
-4 -4 -7 3.22 0.12
4 -4 7 3.14 0.12
4 -4 7 3.12 0.12
-4 -4 -7 3.41 0.15
4 -4 7 2.88 0.16
-4 4 -7 3.19 0.12
-4 4 -7 3.26 0.15
4 4 7 2.87 0.15
4 4 7 2.86 0.13
-4 4 -7 3.1 0.13
-5 -4 -7 10.01 0.37
-5 -4 -7 10.24 0.35
-5 -4 -7 10.11 0.32
5 -4 7 10.11 0.32
5 -4 7 9.58 0.36
-5 -4 -7 10.42 0.31
5 4 7 9.52 0.36
-5 4 -7 10.56 0.37
-5 4 -7 10.72 0.33
-5 4 -7 9.74 0.32
6 -4 7 1.33 0.09
-6 -4 -7 1.26 0.11
6 -4 7 1.31 0.14
-6 -4 -7 1.35 0.08
-6 -4 -7 1.29 0.08
-6 4 -7 1.23 0.1
-6 4 -7 1.28 0.09
-6 4 -7 1.21 0.12
-7 -4 -7 0.5 0.06
-7 -4 -7 0.58 0.08
7 -4 7 0.7 0.08
-7 4 -7 0.55 0.13
8 -4 7 0.63 0.1
-8 4 -7 0.87 0.08
8 4 7 0.82 0.08
8 -5 -7 1.18 0.09
-8 -5 7 1.11 0.1
-8 -5 7 1 0.1
8 -5 -7 1.03 0.1
-8 5 7 1.21 0.11
-8 5 7 1.09 0.08
7 -5 -7 0.74 0.08
7 -5 -7 0.99 0.09
-7 -5 7 0.93 0.09
-7 -5 7 0.73 0.09
7 -5 -7 0.79 0.07
7 5 -7 0.89 0.11
-7 5 7 0.76 0.08
7 5 -7 0.67 0.09
7 5 -7 0.83 0.11
-7 5 7 0.69 0.09
6 -5 -7 2.19 0.12
6 -5 -7 2.06 0.11
6 -5 -7 2.22 0.1
-6 -5 7 2.21 0.13
6 5 -7 2.15 0.11
-6 5 7 2.02 0.11
6 5 -7 2.13 0.12
-6 5 7 2.05 0.12
-6 5 7 1.9 0.13
6 5 -7 1.95 0.13
-5 -5 7 5.3 0.22
-5 5 7 5.09 0.19
5 5 -7 5.15 0.19
-5 5 7 5.06 0.19
-4 -5 7 4.53 0.17
-4 -5 7 4.77 0.18
4 -5 -7 4.78 0.19
-4 -5 7 4.65 0.16
4 -5 -7 4.63 0.18
4 -5 -7 4.57 0.16
4 -5 -7 4.64 0.17
4 5 -7 4.97 0.18
4 5 -7 4.64 0.19
-4 5 7 4.64 0.17
4 5 -7 4.74 0.17
-4 5 7 4.77 0.17
-3 -5 7 17.73 0.56
3 -5 -7 18.47 0.58
-3 -5 7 18.05 0.55
3 -5 -7 19.14 0.53
3 -5 -7 18.93 0.55
-3 -5 7 17.36 0.59
-3 -5 7 17.34 0.54
3 5 -7 18.31 0.55
-3 5 7 18.74 0.56
3 5 -7 18.62 0.57
-3 5 7 18.05 0.54
3 5 -7 18.82 0.55
3 5 -7 18.33 0.59
-3 5 7 17.38 0.55
-3 5 7 18.74 0.57
2 -5 -7 9.35 0.29
-2 -5 7 9.77 0.29
-2 -5 7 9.61 0.31
-2 -5 7 9.48 0.32
-2 -5 7 9.04 0.31
-2 -5 7 9.59 0.3
2 -5 -7 9.29 0.28
2 -5 -7 9.02 0.31
-2 5 7 9.31 0.3
-2 5 7 9.05 0.3
2 5 -7 9.64 0.3
2 5 -7 9.39 0.34
-2 5 7 9.54 0.29
-2 5 7 9.55 0.3
-1 -5 7 4.07 0.15
-1 -5 7 4.14 0.15
1 -5 -7 3.88 0.17
-1 -5 7 3.84 0.14
1 -5 -7 4.06 0.13
1 -5 -7 4 0.14
-1 -5 7 3.95 0.15
1 5 -7 4.21 0.16
-1 5 7 4.14 0.14
-1 5 7 4.15 0.15
1 5 -7 3.98 0.15
-1 5 7 3.81 0.14
1 5 -7 4.07 0.15
0 -5 7 0.5 0.04
0 -5 7 0.4 0.05
0 -5 7 0.48 0.05
0 -5 7 0.43 0.04
0 -5 -7 0.4 0.06
0 -5 7 0.54 0.05
0 -5 7 0.47 0.05
0 -5 -7 0.42 0.03
0 -5 -7 0.48 0.04
0 5 -7 0.51 0.05
0 5 -7 0.39 0.06
0 5 7 0.51 0.04
0 5 -7 0.51 0.08
0 5 7 0.49 0.05
0 5 -7 0.49 0.06
1 -5 7 4.51 0.17
1 -5 7 4.64 0.16
-1 -5 -7 4.59 0.15
-1 -5 -7 4.59 0.15
1 -5 7 4.58 0.16
1 -5 7 4.57 0.15
1 -5 7 4.68 0.17
1 -5 7 4.48 0.17
-1 -5 -7 4.57 0.18
-1 5 -7 4.57 0.16
-1 5 -7 4.62 0.18
-1 5 -7 4.74 0.17
1 5 7 4.59 0.16
-1 5 -7 4.55 0.16
1 5 7 4.72 0.16
-1 5 -7 4.63 0.18
1 5 7 4.62 0.16
2 -5 7 1.41 0.07
-2 -5 -7 1.52 0.07
2 -5 7 1.48 0.08
2 -5 7 1.48 0.08
-2 -5 -7 1.56 0.09
-2 -5 -7 1.47 0.06
2 -5 7 1.55 0.07
2 -5 7 1.45 0.08
2 -5 7 1.54 0.09
-2 5 -7 1.44 0.07
2 5 7 1.35 0.08
2 5 7 1.66 0.08
2 5 7 1.52 0.07
-2 5 -7 1.57 0.1
-2 5 -7 1.62 0.09
-2 5 -7 1.39 0.09
3 -5 7 4.43 0.15
3 -5 7 4.12 0.18
3 -5 7 4.37 0.17
-3 -5 -7 4.45 0.18
-3 -5 -7 3.96 0.19
3 -5 7 4.09 0.16
-3 -5 -7 4.33 0.14
3 -5 7 4.39 0.14
-3 -5 -7 4.52 0.15
-3 5 -7 4.01 0.17
3 5 7 4.14 0.16
-3 5 -7 4.46 0.15
-3 5 -7 4.54 0.16
-3 5 -7 4.3 0.18
3 5 7 4.26 0.15
4 -5 7 7.24 0.25
-4 -5 -7 7.97 0.25
-4 -5 -7 7.94 0.29
4 -5 7 7.91 0.28
-4 -5 -7 7.3 0.28
4 -5 7 7.48 0.29
-4 -5 -7 7.86 0.24
4 -5 7 7.38 0.24
-4 5 -7 8.03 0.29
-4 5 -7 7.56 0.26
4 5 7 7.13 0.26
5 -5 7 4.15 0.16
-5 -5 -7 3.95 0.2
-5 -5 -7 4.46 0.16
-5 -5 -7 4.12 0.19
-5 -5 -7 4.31 0.15
5 -5 7 4.08 0.16
-5 5 -7 4.3 0.19
5 5 7 4.5 0.18
-5 5 -7 4.08 0.16
-5 5 -7 4.32 0.17
-6 -5 -7 2.54 0.11
-6 -5 -7 2.68 0.11
-6 -5 -7 2.5 0.14
6 -5 7 2.73 0.12
-6 5 -7 2.35 0.15
-6 5 -7 2.5 0.14
7 -5 7 2.02 0.13
7 -5 7 1.74 0.1
-7 -5 -7 1.84 0.11
7 5 7 2.01 0.1
8 -5 7 0.34 0.1
8 -6 -7 1.3 0.11
-8 -6 7 1.48 0.11
-8 -6 7 1.38 0.1
8 -6 -7 1.61 0.1
8 -6 -7 1.52 0.09
8 6 -7 1.42 0.09
-8 6 7 1.45 0.09
-8 6 7 1.42 0.11
-8 6 7 1.63 0.1
-7 -6 7 0.19 0.04
7 -6 -7 0.14 0.03
7 -6 -7 0.1 0.02
-7 6 7 0.12 0.03
-7 6 7 0.24 0.08
7 6 -7 0.19 0.05
6 -6 -7 3.53 0.14
6 -6 -7 3.51 0.15
-6 -6 7 3.55 0.17
6 -6 -7 3.68 0.15
-6 6 7 3.38 0.16
6 6 -7 3.77 0.16
6 6 -7 3.59 0.16
-6 6 7 3.31 0.15
6 6 -7 3.32 0.16
-6 6 7 3.62 0.15
-5 -6 7 1.6 0.15
5 -6 -7 2 0.11
-5 -6 7 1.83 0.11
5 -6 -7 1.81 0.09
5 -6 -7 1.81 0.1
-5 6 7 1.59 0.11
5 6 -7 1.59 0.12
-4 -6 7 3.2 0.13
-4 -6 7 3.1 0.13
4 -6 -7 3.24 0.13
4 -6 -7 3.18 0.15
-4 -6 7 3.2 0.14
-4 -6 7 3.31 0.15
4 -6 -7 3.45 0.14
4 -6 -7 3.49 0.12
4 6 -7 3.41 0.14
-4 6 7 3.27 0.13
4 6 -7 3.19 0.14
-4 6 7 3.16 0.13
-4 6 7 3.04 0.13
4 6 -7 3.3 0.14
-3 -6 7 8.59 0.28
3 -6 -7 8.15 0.25
-3 -6 7 7.89 0.25
3 -6 -7 7.82 0.28
3 -6 -7 8.19 0.26
-3 -6 7 7.9 0.26
3 6 -7 8.53 0.27
3 6 -7 7.73 0.27
-3 6 7 8.36 0.26
-3 6 7 8.42 0.26
3 6 -7 8.32 0.29
-3 6 7 8.16 0.27
3 6 -7 8.27 0.28
-3 6 7 8.18 0.27
-2 -6 7 5.15 0.18
2 -6 -7 5.05 0.17
2 -6 -7 4.86 0.18
-2 -6 7 5.07 0.17
-2 -6 7 5.07 0.18
2 -6 -7 5.21 0.16
-2 -6 7 5.07 0.18
-2 -6 7 5.33 0.17
-2 6 7 4.88 0.17
2 6 -7 5.19 0.18
-2 6 7 5.23 0.17
-2 6 7 4.98 0.18
-2 6 7 5.02 0.18
2 6 -7 4.85 0.17
2 6 -7 4.9 0.19
-1 -6 7 17.91 0.53
1 -6 -7 18.01 0.53
-1 -6 7 18.93 0.59
-1 -6 7 17.99 0.59
-1 -6 7 18.91 0.55
1 -6 -7 18.14 0.54
-1 -6 7 18.47 0.56
-1 6 7 17.85 0.56
1 6 -7 18.28 0.58
-1 6 7 18.05 0.55
-1 6 7 18.99 0.56
1 6 -7 18.2 0.56
1 6 -7 17.67 0.55
1 6 -7 17.52 0.62
0 -6 7 5.69 0.2
0 -6 7 5.59 0.2
0 -6 -7 5.59 0.17
0 -6 7 5.69 0.18
0 -6 7 5.75 0.19
0 -6 7 5.74 0.2
0 -6 7 5.72 0.2
0 -6 -7 5.86 0.18
0 -6 -7 5.59 0.21
0 6 7 5.87 0.18
0 6 -7 5.45 0.19
0 6 -7 5.52 0.2
0 6 -7 5.68 0.2
0 6 7 5.53 0.19
0 6 -7 5.48 0.22
0 6 -7 5.74 0.2
0 6 7 5.68 0.19
-1 -6 -7 6.82 0.25
1 -6 7 6.75 0.22
1 -6 7 6.51 0.23
1 -6 7 6.91 0.21
-1 -6 -7 7 0.21
-1 -6 -7 6.92 0.22
1 -6 7 7.18 0.25
1 -6 7 7.08 0.24
1 -6 7 7.09 0.25
-1 6 -7 6.76 0.24
1 6 7 6.93 0.22
-1 6 -7 7.2 0.24
1 6 7 7.17 0.23
-1 6 -7 7.15 0.26
-1 6 -7 7.2 0.26
-1 6 -7 6.83 0.22
1 6 7 7.02 0.23
-1 6 -7 6.69 0.23
2 -6 7 1.17 0.07
2 -6 7 1.01 0.08
2 -6 7 1.13 0.06
-2 -6 -7 1.08 0.05
-2 -6 -7 1.15 0.06
2 -6 7 1.1 0.08
-2 -6 -7 1.14 0.08
2 -6 7 1 0.08
-2 6 -7 1.03 0.07
2 6 7 1.15 0.07
-2 6 -7 1.09 0.07
2 6 7 1.12 0.07
-2 6 -7 1.16 0.09
-2 6 -7 1.18 0.09
2 6 7 1.23 0.06
-3 -6 -7 2.77 0.11
3 -6 7 2.62 0.11
-3 -6 -7 3.02 0.13
-3 -6 -7 2.75 0.1
3 -6 7 2.71 0.12
3 -6 7 2.7 0.1
3 -6 7 2.75 0.13
3 -6 7 2.75 0.14
-3 6 -7 2.85 0.15
-3 6 -7 2.75 0.12
-3 6 -7 3.01 0.14
3 6 7 2.8 0.11
3 6 7 2.75 0.12
4 -6 7 5.61 0.24
4 -6 7 5.77 0.22
4 -6 7 5.62 0.19
-4 -6 -7 5.67 0.19
-4 -6 -7 5.66 0.19
4 -6 7 5.25 0.19
4 -6 7 5.45 0.21
-4 6 -7 5.75 0.23
-4 6 -7 5.38 0.2
4 6 7 5.8 0.2
4 6 7 5.78 0.2
-5 -6 -7 1.1 0.07
-5 -6 -7 1.05 0.11
5 -6 7 1 0.11
5 -6 7 1.17 0.08
-5 -6 -7 1.23 0.08
5 -6 7 0.93 0.08
-5 6 -7 0.96 0.11
-5 6 -7 1.05 0.1
-5 6 -7 0.97 0.1
5 6 7 1.14 0.1
5 6 7 1.23 0.08
-6 -6 -7 1.68 0.09
6 -6 7 1.67 0.09
-6 -6 -7 1.61 0.11
-6 -6 -7 1.45 0.09
6 -6 7 1.62 0.12
6 6 7 1.7 0.1
-6 6 -7 1.63 0.13
6 6 7 1.54 0.15
7 -6 7 0.01 0.03
-7 -6 -7 0.06 0.02
-7 -6 -7 0.08 0.03
-7 6 -7 0.04 0.02
-7 6 -7 0.04 0.06
-8 6 -7 0.33 0.07
-8 -7 7 3.18 0.14
8 -7 -7 3.61 0.13
8 -7 -7 3.62 0.13
8 -7 -7 3.1 0.16
-8 -7 7 3.21 0.15
-8 7 7 3.28 0.15
-8 7 7 3.26 0.15
8 7 -7 3.49 0.14
-7 -7 7 0.12 0.03
7 -7 -7 0.14 0.03
7 -7 -7 0.1 0.02
-7 -7 7 0.27 0.08
-7 7 7 0.15 0.03
7 7 -7 0.15 0.04
-6 -7 7 3.5 0.17
6 -7 -7 3.4 0.14
6 -7 -7 3.38 0.15
-6 -7 7 3.6 0.15
6 -7 -7 3.66 0.16
-6 7 7 3.39 0.16
6 7 -7 3.5 0.15
-6 7 7 3.38 0.15
6 7 -7 3.49 0.17
-6 7 7 3.61 0.14
6 7 -7 3.3 0.17
5 -7 -7 1.53 0.08
-5 -7 7 1.36 0.09
5 -7 -7 1.57 0.1
5 -7 -7 1.73 0.11
-5 -7 7 1.63 0.13
-5 -7 7 1.41 0.1
5 7 -7 1.57 0.11
5 7 -7 1.63 0.11
-5 7 7 1.71 0.1
5 7 -7 1.48 0.11
-5 7 7 1.39 0.1
-5 7 7 1.52 0.09
-5 7 7 1.59 0.11
-4 -7 7 0.04 0.03
4 -7 -7 0.02 0.02
-4 -7 7 0.06 0.02
4 -7 -7 0.09 0.03
4 -7 -7 0.02 0.02
-4 -7 7 0 0.02
-4 7 7 0.03 0.02
-4 7 7 0.04 0.02
-4 7 7 -0.02 0.04
-4 7 7 0.04 0.03
4 7 -7 0.03 0.04
3 -7 -7 0.04 0.03
3 -7 -7 0.04 0.02
-3 -7 7 0.02 0.02
-3 -7 7 0.07 0.02
3 -7 -7 0.03 0.01
-3 -7 7 0 0.02
-3 7 7 0.05 0.03
3 7 -7 0.01 0.02
-3 7 7 0.05 0.02
3 7 -7 -0.01 0.03
-3 7 7 0.08 0.03
3 7 -7 0.03 0.03
-3 7 7 0.02 0.02
2 -7 -7 1.19 0.05
2 -7 -7 1.07 0.07
2 -7 -7 1.12 0.06
-2 -7 7 1.08 0.08
-2 -7 7 1.31 0.07
2 7 -7 1.09 0.07
2 7 -7 1.01 0.09
-2 7 7 1.16 0.06
-2 7 7 1.21 0.08
-2 7 7 1.22 0.07
-2 7 7 1.2 0.07
2 7 -7 1.15 0.09
-1 -7 7 0.62 0.05
-1 -7 7 0.67 0.06
-1 -7 7 0.58 0.05
-1 -7 7 0.53 0.07
1 -7 -7 0.57 0.04
-1 -7 7 0.57 0.05
1 -7 -7 0.6 0.05
-1 7 7 0.54 0.06
-1 7 7 0.64 0.06
1 7 -7 0.42 0.07
0 -7 7 13.78 0.41
0 -7 -7 12.64 0.4
0 -7 7 13.2 0.43
0 -7 -7 13.3 0.46
0 -7 7 13.11 0.42
0 -7 7 13.69 0.44
0 -7 -7 13.41 0.39
0 -7 7 13.16 0.44
0 -7 7 13.92 0.39
0 7 7 13.28 0.4
0 7 -7 12.95 0.43
0 7 -7 12.74 0.43
0 7 7 13.7 0.42
0 7 -7 13.67 0.46
0 7 -7 13.93 0.47
0 7 7 12.72 0.42
0 7 -7 13.67 0.44
0 7 -7 13.04 0.41
1 -7 7 6.64 0.2
1 -7 7 6.61 0.24
1 -7 7 6.93 0.23
-1 -7 -7 6.26 0.24
1 -7 7 6.12 0.22
1 -7 7 6.61 0.21
1 -7 7 6.73 0.23
-1 -7 -7 6.62 0.21
-1 -7 -7 6.48 0.2
1 7 7 6.65 0.22
-1 7 -7 6.67 0.21
-1 7 -7 6.39 0.25
-1 7 -7 6.42 0.22
-1 7 -7 6.26 0.23
1 7 7 6.4 0.22
1 7 7 6.43 0.21
-1 7 -7 6.34 0.24
-1 7 -7 6.41 0.23
2 -7 7 1.03 0.06
-2 -7 -7 1 0.05
2 -7 7 0.85 0.08
2 -7 7 0.92 0.08
2 -7 7 0.87 0.07
2 -7 7 0.94 0.06
-2 -7 -7 1.08 0.08
-2 -7 -7 1.02 0.06
-2 7 -7 0.95 0.07
-2 7 -7 0.84 0.07
2 7 7 1 0.06
-2 7 -7 0.95 0.09
2 7 7 0.95 0.07
-2 7 -7 1.02 0.07
-2 7 -7 0.98 0.09
2 7 7 0.92 0.07
3 -7 7 3.89 0.15
3 -7 7 3.78 0.14
3 -7 7 3.92 0.18
3 -7 7 3.97 0.17
3 -7 7 4.05 0.16
-3 -7 -7 3.94 0.14
-3 -7 -7 3.95 0.14
3 7 7 4.08 0.15
3 7 7 4.07 0.14
-3 7 -7 3.94 0.15
-3 7 -7 4.17 0.16
-3 7 -7 3.7 0.18
3 7 7 4.12 0.16
4 -7 7 4.79 0.22
4 -7 7 5.31 0.21
-4 -7 -7 4.97 0.17
4 -7 7 5.14 0.2
4 -7 7 5.17 0.19
-4 7 -7 5.32 0.19
-4 7 -7 5.11 0.19
5 -7 7 1.77 0.1
-5 -7 -7 1.74 0.12
-5 -7 -7 1.84 0.09
5 -7 7 1.89 0.1
-5 -7 -7 1.99 0.1
5 -7 7 1.71 0.12
5 -7 7 1.75 0.13
5 7 7 1.87 0.11
-5 7 -7 1.83 0.11
-5 7 -7 1.96 0.13
5 7 7 1.78 0.1
6 -7 7 0.05 0.03
-6 -7 -7 -0.02 0.02
-6 -7 -7 0 0.03
6 -7 7 0.06 0.04
-6 -7 -7 0.02 0.02
6 7 7 0.02 0.02
6 7 7 0.04 0.04
-6 7 -7 0.02 0.02
-6 7 -7 0.05 0.04
-7 -7 -7 0.13 0.03
7 -7 7 0.1 0.03
-7 -7 -7 0.22 0.07
-7 -7 -7 0.29 0.08
-7 7 -7 0.13 0.03
-8 7 -7 0.52 0.1
-8 -8 7 1.71 0.1
8 -8 -7 1.88 0.09
8 -8 -7 1.86 0.09
-8 -8 7 1.64 0.12
8 -8 -7 1.43 0.15
-8 8 7 1.67 0.11
-8 8 7 1.67 0.11
8 8 -7 1.8 0.1
7 -8 -7 0.48 0.07
-7 -8 7 0.56 0.08
-7 -8 7 0.38 0.11
7 -8 -7 0.55 0.06
-7 8 7 0.4 0.08
-7 8 7 0.5 0.08
7 8 -7 0.46 0.08
6 -8 -7 0.05 0.04
-6 -8 7 0.08 0.03
-6 -8 7 -0.01 0.03
6 -8 -7 0.01 0.02
6 -8 -7 -0.02 0.03
-6 -8 7 0.05 0.04
-6 8 7 0.01 0.03
6 8 -7 0.04 0.04
6 8 -7 -0.05 0.03
-6 8 7 -0.02 0.03
-6 8 7 0.03 0.04
-5 -8 7 5.74 0.2
-5 -8 7 5.97 0.24
-5 -8 7 6.06 0.22
5 -8 -7 6.07 0.21
5 -8 -7 6.08 0.2
5 -8 -7 6.25 0.23
5 8 -7 5.91 0.22
-5 8 7 6.07 0.21
5 8 -7 6.15 0.23
5 8 -7 5.86 0.24
-5 8 7 5.95 0.22
-5 8 7 6.13 0.22
-5 8 7 5.95 0.21
4 -8 -7 6.7 0.22
-4 -8 7 6.69 0.23
4 -8 -7 6.59 0.23
-4 -8 7 6.29 0.24
4 -8 -7 6.46 0.21
-4 -8 7 6.27 0.24
-4 -8 7 6.41 0.21
4 8 -7 6.36 0.23
-4 8 7 6.55 0.23
-4 8 7 6.39 0.22
-4 8 7 6.75 0.22
4 8 -7 6.67 0.24
-4 8 7 6.17 0.23
3 -8 -7 6.71 0.22
-3 -8 7 7.03 0.24
-3 -8 7 6.78 0.22
3 -8 -7 6.32 0.24
-3 -8 7 6.3 0.23
3 -8 -7 6.79 0.21
-3 -8 7 6.63 0.24
3 8 -7 6.8 0.24
-3 8 7 7.02 0.23
-3 8 7 6.85 0.24
3 8 -7 6.56 0.23
-3 8 7 6.94 0.23
-3 8 7 6.72 0.23
-3 8 7 6.96 0.22
3 8 -7 6.95 0.23
-3 8 7 6.51 0.24
3 8 -7 6.77 0.25
-2 -8 7 7.05 0.24
-2 -8 7 7.57 0.25
-2 -8 7 7.13 0.26
-2 -8 7 7.45 0.23
2 -8 -7 7.57 0.25
-2 -8 7 7.19 0.25
2 -8 -7 7.37 0.22
2 -8 -7 7.07 0.23
-2 8 7 6.94 0.23
2 8 -7 7.31 0.27
-2 8 7 7.3 0.24
-2 8 7 7.55 0.25
2 8 -7 6.88 0.25
2 8 -7 6.9 0.26
2 8 -7 7.15 0.27
-2 8 7 7.36 0.24
2 8 -7 6.85 0.24
2 8 -7 6.98 0.26
-1 -8 7 5.2 0.18
1 -8 -7 5.02 0.16
-1 -8 7 4.85 0.18
1 -8 -7 4.88 0.15
-1 -8 7 4.97 0.16
1 8 -7 4.77 0.18
1 8 -7 4.73 0.18
-1 8 7 4.99 0.17
1 8 -7 4.53 0.19
1 8 -7 4.51 0.17
-1 8 7 4.94 0.17
1 8 -7 4.67 0.2
-1 8 7 5.12 0.18
0 -8 7 1.52 0.09
0 -8 -7 1.35 0.07
0 -8 7 1.5 0.08
0 -8 7 1.45 0.08
0 -8 -7 1.43 0.06
0 -8 7 1.38 0.07
0 -8 7 1.31 0.06
0 -8 -7 1.42 0.1
0 8 -7 1.42 0.09
0 8 7 1.37 0.07
0 8 -7 1.25 0.09
0 8 -7 1.25 0.09
0 8 7 1.36 0.08
0 8 -7 1.38 0.08
0 8 -7 1.3 0.08
0 8 7 1.45 0.08
0 8 7 1.31 0.09
0 8 7 1.42 0.08
-1 -8 -7 5.58 0.18
-1 -8 -7 5.2 0.21
1 -8 7 5.52 0.2
-1 -8 -7 5.46 0.17
1 -8 7 5.64 0.2
1 -8 7 5.57 0.18
1 -8 7 5.67 0.19
1 8 7 5.46 0.18
-1 8 -7 5.36 0.22
-1 8 -7 5.43 0.22
1 8 7 5.65 0.19
-1 8 -7 5.42 0.2
-1 8 -7 5.11 0.19
1 8 7 5.63 0.19
-1 8 -7 5.66 0.2
2 -8 7 4.08 0.16
2 -8 7 3.98 0.14
-2 -8 -7 4.15 0.14
2 -8 7 4.14 0.16
-2 -8 -7 4.13 0.14
2 -8 7 4.01 0.17
-2 -8 -7 4.38 0.17
2 -8 7 3.88 0.15
2 -8 7 4.13 0.17
-2 8 -7 3.94 0.15
2 8 7 4.13 0.14
-2 8 -7 4.31 0.18
-2 8 -7 3.99 0.18
2 8 7 4.15 0.16
-2 8 -7 4.1 0.18
-2 8 -7 4.03 0.16
2 8 7 4.01 0.15
-2 8 -7 3.94 0.16
-3 -8 -7 17.07 0.52
3 -8 7 17.33 0.6
3 -8 7 17 0.55
-3 -8 -7 18.17 0.54
3 -8 7 18.24 0.54
3 -8 7 18.08 0.58
-3 -8 -7 18.49 0.61
3 -8 7 17.72 0.52
-3 8 -7 17.61 0.57
-3 8 -7 17.1 0.61
3 8 7 17.94 0.56
-3 8 -7 18.53 0.55
-3 8 -7 18.53 0.62
-3 8 -7 17.17 0.54
3 8 7 18.01 0.56
3 8 7 17.8 0.54
-4 -8 -7 0.54 0.09
-4 -8 -7 0.61 0.06
4 -8 7 0.51 0.07
4 -8 7 0.56 0.08
4 -8 7 0.47 0.06
-4 -8 -7 0.65 0.07
4 8 7 0.49 0.08
4 8 7 0.58 0.07
-4 8 -7 0.65 0.08
-4 8 -7 0.69 0.11
-5 -8 -7 3.17 0.13
-5 -8 -7 3.03 0.12
5 -8 7 3.03 0.12
5 -8 7 2.91 0.12
-5 -8 -7 2.98 0.15
5 -8 7 3.01 0.16
-5 8 -7 2.91 0.17
-5 8 -7 2.92 0.13
5 8 7 3.02 0.13
5 8 7 3.02 0.14
6 -8 7 0.47 0.13
-6 -8 -7 0.54 0.06
-6 -8 -7 0.36 0.06
-6 -8 -7 0.4 0.08
6 -8 7 0.41 0.09
6 -8 7 0.59 0.07
6 8 7 0.63 0.11
6 8 7 0.59 0.08
-6 8 -7 0.37 0.07
7 -8 7 0.67 0.07
7 -8 7 1.05 0.17
-7 8 -7 0.69 0.08
7 8 7 0.82 0.12
8 -9 -7 0.84 0.07
-8 -9 7 0.64 0.07
8 -9 -7 0.84 0.06
-8 -9 7 0.51 0.12
-8 9 7 0.69 0.09
-8 9 7 0.74 0.09
8 9 -7 0.78 0.09
-7 -9 7 2.6 0.12
7 -9 -7 2.65 0.11
7 -9 -7 2.64 0.12
-7 9 7 2.89 0.13
-7 9 7 2.49 0.13
7 9 -7 2.49 0.13
-6 -9 7 2.19 0.11
6 -9 -7 2 0.12
-6 -9 7 2.12 0.12
-6 -9 7 1.9 0.15
6 -9 -7 2.09 0.11
6 -9 -7 1.99 0.1
6 9 -7 1.87 0.12
-6 9 7 1.95 0.11
-6 9 7 2.2 0.12
-6 9 7 1.99 0.11
6 9 -7 1.92 0.12
-5 -9 7 1.25 0.09
-5 -9 7 1.21 0.09
5 -9 -7 1.25 0.09
5 -9 -7 1.14 0.08
-5 -9 7 1.5 0.13
5 -9 -7 1.24 0.1
-5 9 7 1.33 0.1
5 9 -7 1.23 0.1
5 9 -7 1.11 0.11
-5 9 7 1.17 0.1
-5 9 7 1.19 0.1
-5 9 7 1.23 0.09
-4 -9 7 2.39 0.12
-4 -9 7 2.24 0.13
-4 -9 7 2.49 0.15
-4 9 7 2.31 0.13
-4 9 7 2.5 0.13
4 9 -7 2.67 0.14
4 9 -7 2.48 0.14
-3 -9 7 3.56 0.15
-3 -9 7 3.52 0.14
3 -9 -7 3.79 0.13
-3 -9 7 3.56 0.13
3 -9 -7 3.77 0.14
-3 -9 7 3.77 0.17
3 -9 -7 3.4 0.16
3 9 -7 3.49 0.15
3 9 -7 3.65 0.16
3 9 -7 3.63 0.16
-3 9 7 3.69 0.14
-3 9 7 3.5 0.16
-3 9 7 3.54 0.15
-3 9 7 3.45 0.15
-2 -9 7 2.89 0.12
2 -9 -7 2.86 0.12
2 -9 -7 2.82 0.1
-2 -9 7 2.95 0.12
-2 -9 7 2.93 0.13
2 -9 -7 2.8 0.11
2 9 -7 2.5 0.15
-2 9 7 2.73 0.12
-2 9 7 2.85 0.12
2 9 -7 2.58 0.14
2 9 -7 2.67 0.12
-2 9 7 2.63 0.12
-2 9 7 2.65 0.12
2 9 -7 2.77 0.13
2 9 -7 2.61 0.13
2 9 -7 2.78 0.13
-1 -9 7 4.03 0.14
-1 -9 7 4 0.16
1 -9 -7 3.98 0.14
-1 -9 7 4.12 0.14
-1 -9 7 4.04 0.15
-1 -9 7 3.85 0.16
1 -9 -7 3.89 0.13
-1 9 7 4.02 0.15
-1 9 7 3.78 0.15
-1 9 7 3.88 0.15
1 9 -7 3.75 0.18
1 9 -7 3.93 0.16
1 9 -7 4.05 0.17
1 9 -7 3.87 0.16
-1 9 7 3.92 0.15
0 -9 7 0.81 0.09
0 -9 -7 0.8 0.06
0 -9 7 0.7 0.06
0 -9 7 0.86 0.07
0 -9 7 0.85 0.05
0 -9 -7 0.78 0.05
0 -9 7 0.81 0.06
0 -9 7 0.73 0.07
0 -9 -7 0.68 0.1
0 9 -7 0.64 0.08
0 9 -7 0.87 0.07
0 9 7 0.78 0.06
0 9 -7 0.72 0.09
0 9 7 0.61 0.08
0 9 7 0.82 0.07
1 -9 7 4.28 0.15
1 -9 7 4.34 0.17
-1 -9 -7 4.06 0.17
-1 -9 -7 4.28 0.15
1 -9 7 4.15 0.14
1 -9 7 4.2 0.16
1 -9 7 4.21 0.17
-1 -9 -7 4.06 0.14
1 -9 7 4.2 0.17
-1 9 -7 4.24 0.16
1 9 7 4.19 0.16
1 9 7 4.24 0.16
-1 9 -7 4.22 0.16
1 9 7 4.3 0.16
-1 9 -7 4.27 0.18
-2 -9 -7 0.82 0.06
2 -9 7 0.76 0.08
2 -9 7 0.86 0.06
2 -9 7 0.81 0.08
2 -9 7 0.82 0.06
2 -9 7 0.89 0.1
-2 -9 -7 0.83 0.05
2 9 7 0.85 0.06
-2 9 -7 0.74 0.09
-2 9 -7 0.84 0.08
-2 9 -7 0.83 0.09
2 9 7 0.94 0.07
-2 9 -7 0.95 0.09
2 9 7 0.89 0.08
-3 -9 -7 6.87 0.22
3 -9 7 6.59 0.25
-3 -9 -7 6.63 0.21
3 -9 7 6.88 0.21
-3 -9 -7 6.92 0.26
3 -9 7 6.36 0.24
3 -9 7 6.35 0.26
3 -9 7 6.27 0.23
3 9 7 6.83 0.23
-3 9 -7 6.46 0.27
3 9 7 6.69 0.22
-3 9 -7 6.76 0.27
4 -9 7 0.6 0.07
-4 -9 -7 0.65 0.07
-4 -9 -7 0.65 0.06
4 -9 7 0.61 0.06
-4 -9 -7 0.51 0.09
4 -9 7 0.52 0.12
4 9 7 0.72 0.08
4 9 7 0.47 0.07
-4 9 -7 0.75 0.08
4 9 7 0.55 0.08
-4 9 -7 0.63 0.08
5 -9 7 0.58 0.13
-5 -9 -7 0.63 0.07
5 -9 7 0.54 0.07
-5 -9 -7 0.54 0.09
-5 -9 -7 0.66 0.06
5 -9 7 0.6 0.07
-5 9 -7 0.52 0.08
-5 9 -7 0.38 0.11
5 9 7 0.52 0.08
5 9 7 0.63 0.08
-6 -9 -7 0.1 0.03
-6 -9 -7 0.09 0.02
6 -9 7 0.13 0.05
-6 -9 -7 0.13 0.03
6 -9 7 0.1 0.03
-6 9 -7 0.07 0.02
-6 9 -7 0.01 0.05
-6 9 -7 0.08 0.03
-7 -9 -7 0.45 0.06
-7 -9 -7 0.45 0.07
-7 -9 -7 0.39 0.07
-7 9 -7 0.64 0.08
8 -10 -7 0.56 0.06
-8 -10 7 0.6 0.07
7 -10 -7 3.49 0.12
7 -10 -7 3.17 0.17
-7 -10 7 3.41 0.14
-7 -10 7 2.95 0.19
7 10 -7 3.26 0.15
-7 10 7 3.28 0.15
-7 10 7 3.28 0.15
-7 10 7 3.31 0.15
6 -10 -7 2.78 0.12
-6 -10 7 2.47 0.13
6 -10 -7 2.61 0.11
-6 -10 7 2.27 0.17
-6 -10 7 2.53 0.12
6 -10 -7 2.55 0.14
-6 10 7 2.58 0.13
6 10 -7 2.54 0.13
-6 10 7 2.43 0.13
-6 10 7 2.35 0.12
6 10 -7 2.51 0.14
5 -10 -7 1.82 0.11
-5 -10 7 1.78 0.11
-5 -10 7 1.95 0.15
-5 -10 7 1.82 0.1
5 -10 -7 1.8 0.09
5 -10 -7 1.81 0.1
5 10 -7 1.6 0.11
5 10 -7 1.53 0.12
-5 10 7 1.75 0.11
-5 10 7 1.75 0.11
-5 10 7 1.89 0.11
-5 10 7 1.64 0.1
4 -10 -7 7.57 0.24
4 -10 -7 7.39 0.26
-4 -10 7 7.24 0.25
-4 -10 7 7.16 0.24
4 -10 -7 7.71 0.25
-4 10 7 7.41 0.26
-4 10 7 7.45 0.28
-4 10 7 7.67 0.26
-4 10 7 7.39 0.26
4 10 -7 7.38 0.28
3 -10 -7 2.1 0.08
-3 -10 7 2.11 0.09
-3 -10 7 2 0.1
-3 -10 7 1.88 0.14
3 -10 -7 1.93 0.1
-3 -10 7 1.89 0.1
3 10 -7 1.91 0.12
3 10 -7 1.95 0.11
-3 10 7 2.09 0.11
-3 10 7 1.86 0.11
-3 10 7 1.78 0.1
3 10 -7 1.9 0.12
2 -10 -7 1.74 0.07
-2 -10 7 1.67 0.1
2 -10 -7 1.51 0.09
-2 -10 7 1.86 0.09
-2 -10 7 1.77 0.08
2 -10 -7 1.9 0.1
-2 10 7 1.55 0.09
-2 10 7 1.72 0.1
2 10 -7 1.56 0.11
2 10 -7 1.72 0.1
-2 10 7 1.73 0.1
2 10 -7 1.48 0.15
2 10 -7 1.54 0.11
1 -10 -7 6.17 0.19
-1 -10 7 6.18 0.22
-1 -10 7 5.72 0.23
-1 -10 7 6.52 0.2
-1 -10 7 6.07 0.21
1 -10 -7 6.23 0.2
-1 -10 7 6.45 0.23
1 10 -7 5.76 0.23
1 10 -7 5.74 0.25
1 10 -7 6.12 0.25
-1 10 7 6.18 0.22
1 10 -7 6.58 0.23
1 10 -7 6.02 0.22
-1 10 7 6.08 0.21
-1 10 7 6.43 0.22
-1 10 7 6.14 0.22
0 -10 7 3.51 0.12
0 -10 -7 3.5 0.13
0 -10 -7 3.54 0.12
0 -10 7 3.22 0.16
0 -10 7 3.41 0.13
0 -10 7 3.46 0.15
0 -10 7 3.69 0.15
0 -10 7 3.62 0.14
0 10 -7 3.22 0.15
0 10 -7 3.56 0.14
0 10 -7 3.2 0.15
0 10 -7 3.61 0.17
0 10 7 3.46 0.14
0 10 7 3.63 0.15
0 10 7 3.45 0.14
-1 -10 -7 1.7 0.11
-1 -10 -7 1.8 0.07
1 -10 7 1.77 0.1
1 -10 7 1.7 0.13
1 -10 7 1.72 0.1
1 -10 7 1.78 0.08
-1 -10 -7 1.79 0.09
1 10 7 1.9 0.1
1 10 7 1.95 0.1
-1 10 -7 1.75 0.1
-1 10 -7 1.85 0.1
-1 10 -7 1.58 0.12
1 10 7 1.87 0.1
-2 -10 -7 5.03 0.17
2 -10 7 4.95 0.21
2 -10 7 5.51 0.2
-2 -10 -7 5.15 0.18
2 -10 7 5.26 0.21
2 -10 7 4.98 0.21
2 -10 7 5.02 0.18
2 -10 7 5 0.17
2 10 7 5.15 0.19
-2 10 -7 5.5 0.2
-2 10 -7 5.45 0.23
2 10 7 5.46 0.19
-2 10 -7 5.01 0.2
2 10 7 5.5 0.19
3 -10 7 2.55 0.14
3 -10 7 2.6 0.11
3 -10 7 2.6 0.12
3 -10 7 2.54 0.15
-3 -10 -7 2.56 0.11
-3 10 -7 2.89 0.16
-3 10 -7 2.79 0.12
-3 10 -7 2.63 0.14
3 10 7 2.59 0.13
-4 -10 -7 2.45 0.13
-4 -10 -7 2.35 0.11
4 -10 7 2.48 0.11
-4 -10 -7 2.39 0.1
4 -10 7 2.13 0.13
4 -10 7 2.32 0.1
4 -10 7 2.27 0.16
4 10 7 2.07 0.13
-4 10 -7 2.06 0.15
-4 10 -7 2.48 0.12
-4 10 -7 2.28 0.12
-5 -10 -7 0.58 0.06
-5 -10 -7 0.69 0.07
5 -10 7 0.56 0.07
-5 -10 -7 0.44 0.09
5 -10 7 0.61 0.06
5 -10 7 0.61 0.16
-5 10 -7 0.56 0.08
5 10 7 0.68 0.09
-6 -10 -7 0.61 0.08
-6 -10 -7 0.67 0.07
-6 -10 -7 0.64 0.06
6 -10 7 0.7 0.07
-6 10 -7 0.54 0.08
6 10 7 0.67 0.09
-6 10 -7 0.62 0.08
6 10 7 0.7 0.1
-7 -10 -7 0.2 0.06
7 -10 7 0.24 0.06
-7 -11 7 1.43 0.09
7 -11 -7 1.44 0.07
7 -11 -7 1.19 0.09
-7 11 7 1.44 0.1
-7 11 7 1.4 0.09
-7 11 7 1.39 0.11
7 11 -7 1.27 0.11
6 -11 -7 1.22 0.09
-6 -11 7 1.26 0.18
-6 -11 7 1.11 0.1
6 -11 -7 1.18 0.07
6 -11 -7 1.17 0.12
6 11 -7 1.24 0.11
-6 11 7 1.18 0.1
6 11 -7 1.18 0.1
-6 11 7 1.17 0.09
-6 11 7 1.24 0.09
5 -11 -7 0.56 0.06
-5 -11 7 0.87 0.16
5 -11 -7 0.57 0.08
-5 -11 7 0.56 0.07
-5 -11 7 0.57 0.07
5 -11 -7 0.55 0.09
5 11 -7 0.42 0.1
-5 11 7 0.66 0.09
-5 11 7 0.47 0.07
-5 11 7 0.57 0.08
-5 11 7 0.54 0.08
5 11 -7 0.48 0.09
4 -11 -7 0.23 0.04
-4 -11 7 0.29 0.06
-4 -11 7 0.27 0.07
4 -11 -7 0.25 0.07
4 -11 -7 0.27 0.05
-4 11 7 0.31 0.09
4 11 -7 0.18 0.04
4 11 -7 0.17 0.04
-4 11 7 0.24 0.08
-4 11 7 0.22 0.05
-3 -11 7 6.68 0.27
-3 -11 7 6.41 0.26
-3 -11 7 6.73 0.22
-3 -11 7 6.35 0.24
3 -11 -7 6.82 0.23
-3 11 7 6.75 0.24
3 11 -7 6.25 0.24
-3 11 7 6.58 0.23
-3 11 7 6.86 0.24
3 11 -7 6.59 0.26
-2 -11 7 2.78 0.11
2 -11 -7 2.42 0.11
-2 -11 7 2.65 0.14
-2 -11 7 2.81 0.11
-2 -11 7 2.7 0.12
2 -11 -7 2.77 0.1
-2 -11 7 2.4 0.16
2 -11 -7 2.7 0.13
2 11 -7 2.34 0.14
-2 11 7 2.49 0.12
2 11 -7 2.54 0.12
-2 11 7 2.73 0.12
-2 11 7 2.47 0.13
-2 11 7 2.56 0.12
2 11 -7 2.5 0.13
1 -11 -7 0.58 0.05
-1 -11 7 0.4 0.12
-1 -11 7 0.63 0.06
1 -11 -7 0.49 0.07
-1 -11 7 0.48 0.06
-1 11 7 0.66 0.07
1 11 -7 0.42 0.12
-1 11 7 0.58 0.08
-1 11 7 0.49 0.07
1 11 -7 0.44 0.08
1 11 -7 0.63 0.07
1 11 -7 0.41 0.08
0 -11 -7 1.28 0.08
0 -11 -7 1.4 0.06
0 -11 7 1.06 0.13
0 -11 7 1.34 0.09
0 -11 7 1.22 0.07
0 -11 7 1.31 0.07
0 11 7 1.2 0.09
0 11 -7 1.31 0.09
0 11 7 1.32 0.09
0 11 -7 1.18 0.11
0 11 7 1.46 0.09
0 11 -7 1.31 0.11
0 11 7 1.37 0.1
0 11 -7 1.23 0.09
1 -11 7 2.07 0.12
-1 -11 -7 2.25 0.09
1 -11 7 2.07 0.12
1 -11 7 2.38 0.12
1 -11 7 2.35 0.16
1 -11 7 2.41 0.09
-1 -11 -7 2.22 0.1
-1 -11 -7 2.16 0.13
1 11 7 2.5 0.11
1 11 7 2.33 0.11
-1 11 -7 2.15 0.11
1 11 7 2.39 0.11
-1 11 -7 2.31 0.12
2 -11 7 5.56 0.21
-2 -11 -7 5.48 0.19
-2 -11 -7 5.3 0.18
-2 -11 -7 5.48 0.22
2 -11 7 5.48 0.24
2 -11 7 4.98 0.23
-2 11 -7 5.34 0.21
2 11 7 5.37 0.2
-2 11 -7 5.62 0.21
-3 -11 -7 1.5 0.09
3 -11 7 1.75 0.08
-3 -11 -7 1.58 0.08
3 -11 7 1.71 0.09
-3 -11 -7 1.71 0.12
3 11 7 1.54 0.11
-3 11 -7 1.64 0.13
3 11 7 1.81 0.1
-3 11 -7 1.71 0.12
3 11 7 1.76 0.11
-3 11 -7 1.84 0.11
4 -11 7 0.52 0.07
-4 -11 -7 0.52 0.06
-4 -11 -7 0.58 0.07
4 -11 7 0.42 0.06
-4 -11 -7 0.58 0.09
4 11 7 0.66 0.08
-4 11 -7 0.49 0.09
-4 11 -7 0.5 0.11
-5 -11 -7 0.5 0.05
5 -11 7 0.38 0.06
5 -11 7 0.52 0.07
-5 -11 -7 0.51 0.07
-5 -11 -7 0.33 0.08
5 11 7 0.55 0.08
5 11 7 0.31 0.08
-5 11 -7 0.46 0.07
-5 11 -7 0.39 0.08
-5 11 -7 0.55 0.14
-6 -11 -7 0.2 0.05
-6 -11 -7 0.31 0.07
-6 11 -7 0.24 0.08
-7 -11 -7 0.55 0.06
7 -11 7 0.64 0.06
7 11 7 0.42 0.08
-7 11 -7 0.43 0.09
-7 -12 7 0.06 0.02
7 -12 -7 0.06 0.03
-7 12 7 0 0.03
-7 12 7 0.07 0.04
6 -12 -7 2.41 0.1
-6 -12 7 2.31 0.12
6 -12 -7 2.43 0.13
-6 12 7 2.4 0.12
-6 12 7 2.22 0.11
5 -12 -7 0.46 0.06
5 -12 -7 0.39 0.1
5 -12 -7 0.52 0.08
-5 -12 7 0.43 0.07
-5 -12 7 0.41 0.07
-5 12 7 0.37 0.08
-5 12 7 0.6 0.09
-5 12 7 0.59 0.07
-5 12 7 0.45 0.08
5 12 -7 0.41 0.08
-4 -12 7 -0.01 0.02
-4 -12 7 0 0.03
4 -12 -7 -0.03 0.03
4 -12 -7 -0.03 0.04
-4 12 7 0.07 0.04
4 12 -7 -0.04 0.03
4 12 -7 -0.05 0.04
-4 12 7 0.01 0.03
-4 12 7 -0.04 0.04
-4 12 7 -0.03 0.02
-3 -12 7 1.06 0.08
-3 -12 7 1.06 0.07
3 -12 -7 1.02 0.09
3 -12 -7 0.96 0.06
-3 12 7 0.88 0.09
3 12 -7 0.86 0.1
3 12 -7 0.85 0.1
-3 12 7 1 0.09
-3 12 7 0.89 0.09
3 12 -7 0.91 0.09
-2 -12 7 0.29 0.05
2 -12 -7 0.39 0.1
-2 -12 7 0.23 0.06
2 -12 -7 0.28 0.05
-2 -12 7 0.31 0.07
-2 -12 7 0.22 0.04
-2 12 7 0.3 0.07
1 -12 -7 2.77 0.1
-1 -12 7 2.75 0.11
1 -12 -7 2.47 0.12
-1 -12 7 2.67 0.13
-1 -12 7 2.9 0.14
1 12 -7 2.37 0.19
1 12 -7 2.72 0.13
1 12 -7 2.55 0.15
1 12 -7 2.56 0.13
-1 12 7 2.57 0.13
0 -12 -7 1.56 0.07
0 -12 7 1.32 0.11
0 -12 7 1.59 0.1
0 -12 -7 1.6 0.1
0 -12 7 1.64 0.1
0 -12 7 1.47 0.08
0 12 -7 1.42 0.13
0 12 -7 1.64 0.1
0 12 -7 1.66 0.15
0 12 7 1.57 0.1
0 12 7 1.66 0.11
1 -12 7 10.85 0.39
-1 -12 -7 11.2 0.34
-1 -12 -7 10.67 0.4
1 -12 7 11.41 0.37
-1 -12 -7 11.14 0.33
1 -12 7 11.02 0.39
-1 12 -7 10.66 0.37
-1 12 -7 10.71 0.37
-2 -12 -7 3.74 0.14
2 -12 7 4.1 0.15
2 -12 7 3.88 0.14
-2 12 -7 4.07 0.17
2 12 7 4.07 0.17
2 12 7 3.8 0.16
-2 12 -7 4.21 0.19
2 12 7 3.95 0.16
3 -12 7 6.69 0.21
-3 -12 -7 6.73 0.21
-3 -12 -7 6.39 0.22
-3 -12 -7 6.86 0.26
3 -12 7 6.32 0.25
3 -12 7 6.5 0.22
3 12 7 6.9 0.24
3 12 7 6.57 0.24
-3 12 -7 6.72 0.25
3 12 7 6.49 0.24
-3 12 -7 6.53 0.25
-4 -12 -7 1.77 0.1
-4 -12 -7 1.74 0.08
4 -12 7 1.68 0.09
4 -12 7 1.73 0.09
-4 -12 -7 1.66 0.11
4 12 7 1.5 0.1
-4 12 -7 1.72 0.15
4 12 7 1.64 0.11
-4 12 -7 1.55 0.11
-5 -12 -7 0.4 0.07
5 -12 7 0.44 0.06
5 -12 7 0.41 0.06
-5 -12 -7 0.45 0.05
5 12 7 0.42 0.08
6 -12 7 0.27 0.07
-7 -13 7 0.05 0.02
7 -13 -7 0.04 0.02
-7 13 7 -0.02 0.03
6 -13 -7 1.41 0.07
6 -13 -7 1.29 0.11
-6 -13 7 1.42 0.1
-6 13 7 1.41 0.09
-6 13 7 1.32 0.12
5 -13 -7 2.53 0.15
5 -13 -7 2.54 0.1
-5 -13 7 2.41 0.12
-5 -13 7 2.37 0.11
5 -13 -7 2.42 0.13
5 13 -7 2.55 0.14
-5 13 7 2.34 0.14
-5 13 7 2.6 0.12
-5 13 7 2.3 0.12
-4 -13 7 2.16 0.11
4 -13 -7 2.08 0.12
-4 -13 7 2.16 0.1
4 -13 -7 1.9 0.12
4 -13 -7 2.05 0.09
4 13 -7 2.05 0.13
-4 13 7 2.09 0.12
4 13 -7 2.04 0.13
-4 13 7 2.16 0.11
-4 13 7 2.22 0.12
3 -13 -7 0.85 0.06
-3 -13 7 0.88 0.07
-3 -13 7 0.98 0.08
-3 13 7 0.79 0.09
-3 13 7 0.94 0.08
3 13 -7 0.7 0.11
-3 13 7 0.85 0.08
-3 13 7 0.78 0.09
3 13 -7 0.98 0.09
3 13 -7 0.71 0.09
-2 -13 7 2.89 0.13
-2 -13 7 2.96 0.11
2 -13 -7 2.83 0.11
-2 13 7 2.79 0.14
2 13 -7 2.83 0.15
-2 13 7 2.71 0.14
2 13 -7 3.04 0.14
-2 13 7 2.85 0.13
2 13 -7 2.69 0.14
-2 13 7 2.72 0.13
-1 -13 7 1.54 0.08
-1 -13 7 1.41 0.13
-1 -13 7 1.29 0.11
-1 -13 7 1.55 0.09
1 13 -7 1.38 0.1
-1 13 7 1.41 0.1
-1 13 7 1.6 0.1
-1 13 7 1.24 0.1
1 13 -7 1.66 0.1
0 -13 7 4.91 0.21
0 -13 7 4.88 0.17
0 -13 7 5.01 0.18
0 13 7 4.82 0.19
0 13 7 4.91 0.19
0 13 -7 4.99 0.19
0 13 7 4.62 0.19
0 13 -7 5 0.19
1 -13 7 0.55 0.07
1 -13 7 0.59 0.06
-1 -13 -7 0.52 0.05
1 13 7 0.52 0.09
1 13 7 0.62 0.08
-1 13 -7 0.38 0.11
1 13 7 0.64 0.08
-1 13 -7 0.6 0.08
-1 13 -7 0.62 0.09
-2 -13 -7 8.35 0.26
2 -13 7 8.49 0.26
2 -13 7 8.54 0.3
-2 -13 -7 8.44 0.28
2 -13 7 8.73 0.28
-2 13 -7 8.39 0.3
2 13 7 8.49 0.29
-2 13 -7 8.25 0.3
2 13 7 8.12 0.29
-2 13 -7 8.58 0.33
2 13 7 7.97 0.28
3 -13 7 1.8 0.1
-3 -13 -7 1.9 0.12
-3 -13 -7 1.73 0.11
-3 -13 -7 1.89 0.09
3 -13 7 1.84 0.09
-3 13 -7 1.69 0.12
3 13 7 1.82 0.11
-3 13 -7 1.85 0.12
3 13 7 1.84 0.11
4 -13 7 2.09 0.1
-4 -13 -7 2.33 0.09
4 -13 7 2.05 0.1
-4 -13 -7 2.09 0.13
-4 -13 -7 2.28 0.11
-4 13 -7 2.38 0.16
4 13 7 2.1 0.12
4 13 7 2.18 0.12
-4 13 -7 2.08 0.12
-5 -13 -7 0.67 0.09
5 -13 7 0.83 0.07
5 -13 7 0.87 0.06
-5 -13 -7 0.82 0.06
-5 -13 -7 0.8 0.08
5 13 7 0.63 0.08
5 13 7 0.73 0.08
6 -13 7 0.27 0.07
-6 -13 -7 0.13 0.03
-6 -13 -7 0.17 0.04
6 13 7 0.12 0.04
6 13 7 0.22 0.08
-6 13 -7 0.1 0.03
6 -14 -7 0.42 0.05
-6 -14 7 0.5 0.09
-6 14 7 0.34 0.06
-6 14 7 0.25 0.07
-5 -14 7 0.58 0.07
5 -14 -7 0.7 0.06
-5 -14 7 0.56 0.07
-5 14 7 0.64 0.08
-5 14 7 0.54 0.07
-5 14 7 0.61 0.07
4 -14 -7 2.41 0.15
4 -14 -7 2.59 0.1
-4 -14 7 2.34 0.12
-4 -14 7 2.65 0.11
-4 14 7 2.47 0.12
4 14 -7 2.32 0.14
-4 14 7 2.46 0.12
4 14 -7 2.56 0.14
-4 14 7 2.5 0.13
-3 -14 7 3.25 0.14
3 -14 -7 3.28 0.12
-3 -14 7 3.53 0.13
3 14 -7 3.5 0.16
-3 14 7 3.62 0.15
3 14 -7 3.51 0.17
-3 14 7 3.63 0.15
-3 14 7 3.63 0.15
-3 14 7 3.68 0.15
3 14 -7 3.3 0.16
2 -14 -7 1.27 0.07
-2 -14 7 1.3 0.08
-2 14 7 1.04 0.1
2 14 -7 0.96 0.11
-2 14 7 1.17 0.09
2 14 -7 0.98 0.1
-2 14 7 1.06 0.09
-2 14 7 1.09 0.1
2 14 -7 1.16 0.1
-1 14 7 0.25 0.04
-1 14 7 0.29 0.09
-1 14 7 0.3 0.05
0 -14 7 0.22 0.05
0 -14 7 0.33 0.06
0 14 -7 0.24 0.05
0 14 7 0.28 0.07
-1 -14 -7 2.2 0.09
1 -14 7 2.33 0.1
1 -14 7 2.29 0.11
-1 14 -7 2.41 0.12
-1 14 -7 2.22 0.12
1 14 7 2.41 0.12
1 14 7 2.3 0.12
1 14 7 2.27 0.12
2 -14 7 2.45 0.1
2 -14 7 2.46 0.11
-2 -14 -7 2.45 0.1
-2 14 -7 2.78 0.16
2 14 7 2.58 0.13
-2 14 -7 2.51 0.13
-2 14 -7 2.25 0.13
2 14 7 2.26 0.14
2 14 7 2.53 0.12
-3 -14 -7 2.99 0.16
3 -14 7 3.06 0.12
-3 -14 -7 3.18 0.12
3 -14 7 3.08 0.13
-3 -14 -7 3.07 0.15
-3 14 -7 3.12 0.16
-3 14 -7 3.42 0.19
3 14 7 3.19 0.14
3 14 7 3.27 0.15
-3 14 -7 3.15 0.15
-4 -14 -7 3.06 0.11
-4 -14 -7 2.63 0.14
4 -14 7 2.74 0.12
-4 -14 -7 2.8 0.13
4 -14 7 2.9 0.11
-4 14 -7 3.12 0.14
4 14 7 2.75 0.13
-4 14 -7 2.71 0.14
4 14 7 3 0.14
-4 14 -7 2.7 0.19
-5 -14 -7 1.97 0.11
-5 -14 -7 2 0.08
5 -14 7 2.01 0.1
-5 14 -7 1.8 0.15
5 14 7 1.73 0.11
6 -14 7 1.03 0.07
6 -14 7 1.12 0.08
-6 -14 -7 1.01 0.08
-6 -14 -7 0.97 0.06
6 14 7 0.86 0.09
-6 14 -7 0.97 0.09
-6 -15 7 0.08 0.03
-6 15 7 0.13 0.04
-6 15 7 0.08 0.03
-5 -15 7 0.08 0.02
-5 -15 7 0.07 0.03
-5 15 7 0.07 0.03
-5 15 7 0.07 0.03
-5 15 7 0.08 0.04
4 -15 -7 0.91 0.07
-4 -15 7 0.96 0.07
-4 -15 7 1 0.08
4 15 -7 0.88 0.11
-4 15 7 0.91 0.08
-4 15 7 0.82 0.08
-4 15 7 0.82 0.08
-3 -15 7 0.71 0.08
-3 -15 7 0.74 0.06
3 -15 -7 0.73 0.06
-3 15 7 0.68 0.08
3 15 -7 0.61 0.09
3 15 -7 0.8 0.1
-3 15 7 0.61 0.08
-3 15 7 0.6 0.08
-2 -15 7 1.28 0.08
2 -15 -7 1.56 0.08
-2 -15 7 1.49 0.09
-2 15 7 1.62 0.1
-2 15 7 1.54 0.1
2 15 -7 1.46 0.11
2 15 -7 1.29 0.1
-2 15 7 1.51 0.1
2 15 -7 1.47 0.12
-1 -15 7 0.42 0.07
-1 -15 7 0.51 0.06
-1 15 7 0.38 0.09
1 15 -7 0.27 0.09
-1 15 7 0.3 0.08
-1 15 7 0.37 0.08
1 15 -7 0.4 0.09
1 15 -7 0.34 0.12
-1 15 7 0.52 0.08
0 -15 7 3.4 0.14
0 -15 7 3.59 0.13
0 -15 7 3.4 0.16
0 -15 -7 3.43 0.12
0 15 7 3.32 0.15
0 15 -7 3.33 0.15
0 15 -7 3.3 0.15
0 15 7 3.31 0.15
0 15 -7 3.32 0.16
0 15 7 3.17 0.15
1 -15 7 0.79 0.08
-1 -15 -7 0.62 0.06
1 -15 7 0.78 0.06
1 -15 7 0.7 0.1
1 15 7 0.63 0.09
-1 15 -7 0.81 0.09
1 15 7 0.85 0.08
-1 15 -7 0.91 0.09
-1 15 -7 0.56 0.1
1 15 7 0.64 0.1
2 -15 7 6.44 0.25
-2 -15 -7 6.33 0.21
2 15 7 6.95 0.24
-2 15 -7 6.66 0.24
-2 15 -7 6.06 0.27
-2 15 -7 6.74 0.24
2 15 7 6.5 0.23
-2 15 -7 6.63 0.24
3 -15 7 6.42 0.2
-3 -15 -7 6.47 0.2
-3 -15 -7 5.97 0.25
3 -15 7 6.64 0.22
-3 15 -7 6.17 0.24
-3 15 -7 6.24 0.24
-3 15 -7 6.14 0.27
3 15 7 6.46 0.23
3 15 7 6.78 0.23
-3 15 -7 6.34 0.23
-4 -15 -7 3.29 0.12
4 -15 7 3.15 0.13
4 -15 7 3.31 0.12
4 15 7 3.35 0.14
-4 15 -7 3.34 0.16
4 15 7 3.06 0.14
-4 15 -7 3.41 0.15
-5 -15 -7 0.31 0.08
5 -15 7 0.18 0.03
5 15 7 0.18 0.04
-6 -16 7 0.04 0.03
-6 16 7 0.08 0.03
-6 16 7 0.01 0.03
5 -16 -7 0.49 0.06
-5 16 7 0.38 0.07
-5 16 7 0.31 0.07
-5 16 7 0.45 0.06
-4 -16 7 0.51 0.06
4 -16 -7 0.39 0.06
-4 -16 7 0.48 0.07
4 16 -7 0.4 0.13
-4 16 7 0.6 0.08
-4 16 7 0.39 0.07
-4 16 7 0.56 0.07
-3 -16 7 0.7 0.08
3 -16 -7 0.61 0.07
3 16 -7 0.45 0.11
-3 16 7 0.66 0.08
3 16 -7 0.54 0.09
-3 16 7 0.54 0.07
-3 16 7 0.62 0.08
2 -16 -7 1 0.07
-2 -16 7 1.1 0.09
-2 -16 7 1.03 0.06
2 16 -7 0.94 0.1
-2 16 7 0.98 0.09
-2 16 7 0.95 0.09
2 16 -7 0.93 0.09
-2 16 7 0.86 0.09
-2 16 7 1 0.09
-1 -16 7 0.74 0.06
-1 -16 7 0.78 0.08
1 -16 -7 0.69 0.07
-1 -16 7 0.91 0.11
1 16 -7 0.77 0.08
-1 16 7 0.62 0.09
-1 16 7 0.72 0.11
-1 16 7 0.79 0.09
1 16 -7 0.54 0.09
-1 16 7 0.7 0.08
0 -16 7 0.17 0.05
0 -16 7 0.12 0.03
0 16 7 0.23 0.07
0 16 -7 0.07 0.03
0 16 7 0.07 0.03
0 16 -7 0.11 0.04
0 16 -7 0.08 0.03
0 16 7 0.07 0.04
1 -16 7 0.14 0.04
1 -16 7 0.05 0.03
1 -16 7 0.07 0.02
-1 -16 -7 0.06 0.02
1 16 7 0.01 0.03
1 16 7 0.03 0.05
-1 16 -7 0.06 0.04
1 16 7 0.05 0.02
-1 16 -7 0.04 0.03
-2 -16 -7 0.26 0.06
2 -16 7 0.33 0.05
2 -16 7 0.32 0.07
-2 16 -7 0.39 0.09
-2 16 -7 0.37 0.09
-2 16 -7 0.42 0.09
2 16 7 0.36 0.08
2 16 7 0.38 0.07
3 -16 7 0.3 0.05
-3 -16 -7 0.37 0.05
-3 16 -7 0.41 0.09
3 16 7 0.44 0.08
3 16 7 0.36 0.07
-4 -16 -7 2.07 0.13
4 16 7 2.2 0.11
-5 -16 -7 0.22 0.04
5 -16 7 0.18 0.03
5 16 7 0.21 0.03
-5 16 -7 0.27 0.08
5 -17 -7 0.31 0.06
-5 17 7 0.28 0.06
-4 -17 7 0.19 0.06
-4 -17 7 0.06 0.03
4 17 -7 0.12 0.05
-3 -17 7 1.28 0.09
-3 -17 7 1.28 0.07
-3 17 7 1.39 0.09
-3 17 7 1.29 0.1
3 17 -7 1.16 0.1
-3 17 7 1.26 0.09
-2 -17 7 0.26 0.05
-2 -17 7 0.32 0.07
-2 17 7 0.33 0.08
2 17 -7 0.33 0.09
2 17 -7 0.27 0.09
-2 17 7 0.23 0.07
-2 17 7 0.26 0.08
-1 -17 7 1.19 0.09
-1 -17 7 1.1 0.07
-1 -17 7 1.16 0.12
1 17 -7 1.03 0.1
1 17 -7 1.08 0.11
-1 17 7 1.08 0.1
-1 17 7 1.07 0.09
-1 17 7 1.06 0.09
0 -17 7 0.49 0.05
0 -17 7 0.59 0.08
0 17 7 0.35 0.08
0 17 -7 0.33 0.09
0 17 7 0.51 0.09
0 17 -7 0.42 0.08
0 17 7 0.48 0.07
0 17 -7 0.37 0.09
1 -17 7 1.4 0.07
1 -17 7 1.6 0.1
-1 -17 -7 1.46 0.08
1 17 7 1.39 0.13
1 17 7 1.39 0.09
-1 17 -7 1.47 0.11
-1 17 -7 1.31 0.1
-1 17 -7 1.42 0.11
1 17 7 1.4 0.1
-2 -17 -7 1.13 0.08
2 -17 7 1.32 0.09
2 -17 7 1.28 0.07
-2 17 -7 1.11 0.1
2 17 7 1.07 0.08
2 17 7 1.11 0.09
-2 17 -7 1.37 0.1
-2 17 -7 1.11 0.1
3 -17 7 0.89 0.06
-3 17 -7 0.75 0.1
3 17 7 0.84 0.07
4 -17 7 0.57 0.07
-4 17 -7 0.41 0.08
4 17 7 0.37 0.09
-5 18 7 0.06 0.04
-4 -18 7 0.27 0.05
4 -18 -7 0.15 0.03
4 18 -7 0.2 0.05
-4 18 7 0.25 0.07
-4 18 7 0.11 0.03
-4 18 7 0.16 0.03
-3 -18 7 0.08 0.03
-3 -18 7 0.03 0.02
-3 18 7 0 0.04
3 18 -7 0.09 0.04
-2 -18 7 0.39 0.07
-2 -18 7 0.36 0.05
-2 18 7 0.34 0.08
-2 18 7 0.25 0.08
-2 18 7 0.27 0.06
-2 18 7 0.32 0.08
-1 -18 7 1.58 0.07
-1 -18 7 1.53 0.1
1 18 -7 1.48 0.11
-1 18 7 1.38 0.11
-1 18 7 1.49 0.1
1 18 -7 1.39 0.11
-1 18 7 1.43 0.1
0 -18 7 0.8 0.08
0 -18 7 0.84 0.06
0 18 7 0.71 0.08
0 18 -7 0.67 0.09
0 18 -7 0.67 0.08
0 18 -7 0.56 0.09
0 18 7 0.5 0.11
0 18 7 0.69 0.09
1 -18 7 3.81 0.15
1 -18 7 3.73 0.13
-1 18 -7 3.94 0.17
-1 18 -7 4.06 0.17
-1 18 -7 3.62 0.16
1 18 7 3.81 0.16
1 18 7 3.66 0.15
2 -18 7 0.11 0.04
2 -18 7 0.04 0.02
-2 18 -7 0.11 0.04
2 18 7 0.02 0.02
-2 18 -7 0.05 0.05
-3 -18 -7 0.11 0.02
3 18 7 0.07 0.03
-3 18 -7 0.09 0.03
3 18 7 0.11 0.04
-4 19 7 0.19 0.03
-3 -19 7 0.06 0.04
-3 -19 7 0.16 0.05
-3 19 7 0.04 0.05
-3 19 7 0.01 0.03
-3 19 7 0.01 0.03
-2 -19 7 0.01 0.03
-2 19 7 -0.02 0.03
2 19 -7 0.04 0.03
2 19 -7 0.01 0.03
-2 19 7 -0.01 0.03
-2 19 7 -0.01 0.03
-1 -19 7 1.18 0.07
-1 -19 7 0.98 0.1
-1 19 7 1.09 0.1
1 19 -7 1.17 0.1
1 19 -7 1.1 0.11
0 -19 7 3.79 0.13
0 -19 7 3.7 0.16
0 19 -7 3.93 0.16
0 19 -7 3.42 0.17
-1 19 -7 0.01 0.03
1 19 7 0.05 0.03
-1 19 -7 0.06 0.04
2 -19 7 1.17 0.11
2 -19 7 0.97 0.06
-2 19 -7 1.05 0.1
2 19 7 0.93 0.1
2 19 7 0.85 0.07
3 -19 7 0.49 0.04
3 19 7 0.48 0.06
-3 20 7 0.28 0.08
3 20 -7 0.46 0.1
-2 20 7 1.52 0.11
2 20 -7 1.54 0.1
-1 -20 7 1.16 0.12
-1 -20 7 1.27 0.07
1 20 -7 1.28 0.09
-1 20 7 1.1 0.11
1 20 -7 1.22 0.11
0 -20 7 1.04 0.06
0 20 7 0.82 0.09
0 20 -7 0.96 0.1
0 20 7 0.87 0.11
0 20 -7 0.98 0.09
-1 20 -7 0.26 0.09
1 20 7 0.23 0.07
-1 20 -7 0.4 0.08
2 -20 7 0.21 0.05
2 20 7 0.14 0.03
-1 -21 7 0.46 0.05
0 -21 7 -0.01 0.02
0 21 7 -0.07 0.04
0 21 -7 0.06 0.04
8 0 -8 0.01 0.03
-8 0 8 0.05 0.02
8 0 -8 0.02 0.03
-7 0 8 0.43 0.1
-7 0 8 0.25 0.08
7 0 -8 0.36 0.08
7 0 -8 0.26 0.07
6 0 -8 6.15 0.23
6 0 -8 5.93 0.24
-6 0 8 6.53 0.23
6 0 -8 6.24 0.22
6 0 -8 6.32 0.21
5 0 -8 0.55 0.08
5 0 -8 0.44 0.07
-5 0 8 0.55 0.09
5 0 -8 0.6 0.08
-4 0 8 1.42 0.1
-4 0 8 1.45 0.1
4 0 -8 1.4 0.09
4 0 -8 1.26 0.08
4 0 -8 1.32 0.1
4 0 -8 1.2 0.08
-4 0 8 1.45 0.1
3 0 -8 1.34 0.07
-3 0 8 1.12 0.09
-3 0 8 1.31 0.09
3 0 -8 1.33 0.08
3 0 -8 1.32 0.08
-3 0 8 1.16 0.08
3 0 -8 1.31 0.09
-3 0 8 1.48 0.08
2 0 -8 0.14 0.05
-2 0 8 0.2 0.05
1 0 -8 0 0.02
-1 0 8 -0.01 0.02
-1 0 8 0.01 0.02
1 0 -8 -0.01 0.02
-1 0 8 -0.03 0.02
1 0 -8 0.03 0.02
1 0 -8 -0.03 0.01
0 0 8 13.6 0.43
0 0 8 14.05 0.43
0 0 -8 13.57 0.42
0 0 -8 14.05 0.48
0 0 -8 14.16 0.41
-1 0 -8 0.05 0.02
-1 0 -8 0.09 0.02
1 0 8 0.07 0.02
2 0 8 1.11 0.1
2 0 8 1.09 0.07
2 0 8 1.18 0.07
2 0 8 1.18 0.08
-2 0 -8 1.18 0.07
-2 0 -8 1.24 0.08
-2 0 -8 1.15 0.06
-3 0 -8 0 0.02
-3 0 -8 0 0.02
-3 0 -8 0.02 0.02
3 0 8 0 0.02
-3 0 -8 -0.03 0.02
3 0 8 0.03 0.03
-3 0 -8 -0.06 0.03
-4 0 -8 0.09 0.02
-4 0 -8 -0.03 0.06
4 0 8 0.07 0.12
4 0 8 0.09 0.04
-4 0 -8 0.05 0.03
4 0 8 0.08 0.03
-5 0 -8 -0.02 0.03
5 0 8 0 0.06
-5 0 -8 0.01 0.03
-5 0 -8 -0.05 0.03
5 0 8 0 0.03
-5 0 -8 0 0.03
-6 0 -8 1.01 0.08
-6 0 -8 1.21 0.11
7 0 8 0.97 0.08
-7 0 -8 1.02 0.12
-8 -1 8 0.25 0.07
8 -1 -8 0.22 0.04
8 -1 -8 0.32 0.07
8 1 -8 0.23 0.04
8 1 -8 0.31 0.06
-8 1 8 0.31 0.07
7 -1 -8 3.42 0.15
-7 -1 8 3.44 0.16
7 -1 -8 3.66 0.15
-7 -1 8 3.35 0.15
7 -1 -8 3.28 0.15
7 1 -8 3.44 0.15
-7 1 8 3.5 0.16
7 1 -8 3.54 0.15
-7 1 8 3.38 0.15
6 -1 -8 1.96 0.15
6 -1 -8 2.36 0.12
6 -1 -8 2.09 0.12
6 -1 -8 2.17 0.1
-6 -1 8 2.02 0.12
6 1 -8 2.18 0.12
6 1 -8 1.94 0.12
6 1 -8 2.24 0.11
6 1 -8 1.98 0.13
-6 1 8 1.89 0.12
-5 -1 8 0.33 0.09
5 -1 -8 0.41 0.07
5 -1 -8 0.32 0.08
-5 1 8 0.46 0.08
5 1 -8 0.4 0.07
5 1 -8 0.48 0.08
4 -1 -8 0.68 0.06
-4 -1 8 0.91 0.08
4 -1 -8 0.63 0.08
4 -1 -8 0.77 0.07
-4 -1 8 0.74 0.08
4 -1 -8 0.88 0.08
-4 1 8 0.96 0.1
4 1 -8 0.62 0.06
-4 1 8 0.95 0.1
4 1 -8 0.67 0.08
-4 1 8 0.75 0.08
-4 1 8 0.93 0.09
4 1 -8 0.81 0.07
4 1 -8 0.69 0.08
3 -1 -8 4.43 0.16
-3 -1 8 4.44 0.17
3 -1 -8 4.43 0.15
-3 -1 8 4.16 0.16
-3 -1 8 4.22 0.17
3 -1 -8 4.32 0.17
-3 -1 8 4.51 0.16
-3 1 8 4.54 0.17
-3 1 8 4 0.16
-3 1 8 4.21 0.17
3 1 -8 4.29 0.16
-3 1 8 4.11 0.16
3 1 -8 4.02 0.17
3 1 -8 4.42 0.17
3 1 -8 4.29 0.15
-3 1 8 4.5 0.16
2 -1 -8 19.42 0.56
-2 -1 8 18.96 0.62
2 -1 -8 19.62 0.61
-2 -1 8 18.55 0.59
-2 -1 8 19.2 0.58
2 -1 -8 19.32 0.58
2 1 -8 20.01 0.58
-2 1 8 18.4 0.62
-2 1 8 18.88 0.59
-2 1 8 19.69 0.59
2 1 -8 19.87 0.56
2 1 -8 18.97 0.65
2 1 -8 19.29 0.61
-1 -1 8 5.33 0.18
1 -1 -8 5.29 0.2
1 -1 -8 5.13 0.16
1 -1 -8 5.46 0.19
-1 -1 8 5.08 0.17
-1 -1 8 4.96 0.19
1 -1 -8 5.06 0.17
-1 1 8 5.05 0.18
-1 1 8 5.05 0.18
-1 1 8 4.89 0.18
1 1 -8 5.14 0.17
1 1 -8 4.88 0.16
1 1 -8 5.15 0.2
0 -1 -8 14.73 0.47
0 -1 -8 14.62 0.5
0 -1 -8 14.61 0.44
0 -1 8 14.48 0.48
0 -1 -8 14.93 0.43
0 -1 8 15.08 0.45
0 -1 8 14.52 0.44
0 1 8 14.24 0.45
0 1 -8 14.77 0.43
0 1 -8 14.58 0.47
0 1 -8 14.31 0.5
0 1 8 14.25 0.45
0 1 8 14.76 0.45
0 1 8 14.02 0.44
0 1 -8 15.05 0.44
-1 -1 -8 1.54 0.09
1 -1 8 1.54 0.08
1 -1 8 1.46 0.09
-1 -1 -8 1.6 0.07
-1 -1 -8 1.51 0.07
1 -1 8 1.43 0.07
1 -1 8 1.55 0.09
-1 -1 -8 1.44 0.09
1 -1 8 1.6 0.08
-1 1 -8 1.63 0.08
-1 1 -8 1.62 0.07
-1 1 -8 1.51 0.09
1 1 8 1.65 0.08
-1 1 -8 1.63 0.09
1 1 8 1.56 0.08
1 1 8 1.4 0.08
1 1 8 1.62 0.09
2 -1 8 1.57 0.08
-2 -1 -8 1.5 0.07
-2 -1 -8 1.53 0.08
2 -1 8 1.52 0.11
2 -1 8 1.6 0.09
2 -1 8 1.65 0.08
-2 -1 -8 1.47 0.09
-2 1 -8 1.38 0.07
-2 1 -8 1.63 0.09
-2 1 -8 1.52 0.08
2 1 8 1.38 0.08
2 1 8 1.5 0.08
-2 1 -8 1.53 0.09
-2 1 -8 1.45 0.08
-3 -1 -8 1.09 0.07
3 -1 8 0.95 0.07
3 -1 8 1.02 0.07
-3 -1 -8 0.88 0.08
3 -1 8 1.17 0.1
-3 -1 -8 0.98 0.06
3 -1 8 1.06 0.12
-3 -1 -8 0.88 0.08
3 1 8 0.94 0.07
-3 1 -8 0.98 0.09
-3 1 -8 1.09 0.07
3 1 8 1.1 0.08
3 1 8 1.1 0.09
-3 1 -8 0.85 0.08
-3 1 -8 1.15 0.08
-3 1 -8 0.92 0.06
-4 -1 -8 0.68 0.1
4 -1 8 0.64 0.11
4 -1 8 0.95 0.17
-4 -1 -8 0.88 0.07
4 -1 8 0.96 0.07
-4 1 -8 0.76 0.08
4 1 8 0.81 0.08
4 1 8 0.8 0.12
-5 -1 -8 10.3 0.38
5 -1 8 10.77 0.34
-5 -1 -8 10.44 0.35
5 -1 8 10.62 0.33
-5 -1 -8 10.43 0.33
5 -1 8 9.69 0.37
-5 -1 -8 10.06 0.32
5 1 8 9.83 0.33
-5 1 -8 10.78 0.35
-5 1 -8 9.86 0.38
-5 1 -8 10.42 0.33
6 -1 8 8.87 0.28
-6 -1 -8 8 0.27
-6 -1 -8 7.88 0.31
6 -1 8 7.97 0.27
-6 1 -8 7.88 0.27
6 1 8 8.84 0.28
-6 1 -8 7.88 0.31
7 -1 8 1.82 0.1
7 1 8 1.86 0.1
-8 -2 8 0.45 0.07
8 -2 -8 0.51 0.07
8 -2 -8 0.36 0.06
8 2 -8 0.32 0.08
-8 2 8 0.4 0.06
-8 2 8 0.56 0.13
8 2 -8 0.37 0.07
7 -2 -8 1.08 0.09
7 -2 -8 1.2 0.08
7 -2 -8 1.08 0.09
-7 -2 8 1.15 0.1
7 2 -8 0.93 0.09
7 2 -8 1.1 0.09
-7 2 8 1.14 0.09
7 2 -8 1.11 0.14
-7 2 8 1.21 0.1
-6 -2 8 0.4 0.09
6 -2 -8 0.37 0.08
6 -2 -8 0.59 0.08
6 -2 -8 0.58 0.07
-6 -2 8 0.65 0.1
6 -2 -8 0.5 0.14
-6 2 8 0.47 0.08
6 2 -8 0.49 0.08
6 2 -8 0.31 0.1
6 2 -8 0.42 0.08
5 -2 -8 0.27 0.08
-5 -2 8 0.25 0.05
-5 -2 8 0.41 0.09
5 -2 -8 0.33 0.07
5 -2 -8 0.34 0.06
5 2 -8 0.4 0.07
-5 2 8 0.32 0.08
-5 2 8 0.35 0.1
5 2 -8 0.4 0.07
4 -2 -8 2.08 0.1
4 -2 -8 2.13 0.09
-4 -2 8 2.1 0.11
-4 -2 8 1.76 0.13
-4 -2 8 1.98 0.11
4 -2 -8 2.14 0.11
4 -2 -8 1.92 0.12
-4 2 8 2.01 0.11
4 2 -8 2 0.11
4 2 -8 1.94 0.11
4 2 -8 1.95 0.1
-4 2 8 1.95 0.11
4 2 -8 2.05 0.1
-4 2 8 2.01 0.11
3 -2 -8 12.63 0.39
-3 -2 8 11.93 0.38
3 -2 -8 12.53 0.41
-3 -2 8 12.44 0.4
-3 -2 8 12.42 0.39
-3 -2 8 11.86 0.42
3 -2 -8 12.66 0.37
3 2 -8 12.32 0.39
-3 2 8 11.78 0.39
-3 2 8 12.13 0.38
3 2 -8 12.92 0.41
3 2 -8 13.01 0.37
-3 2 8 12.23 0.39
-3 2 8 12.2 0.4
3 2 -8 12.12 0.4
2 -2 -8 1.7 0.09
-2 -2 8 1.82 0.09
2 -2 -8 1.7 0.08
2 -2 -8 1.81 0.08
-2 -2 8 1.82 0.09
-2 -2 8 1.81 0.09
-2 2 8 1.77 0.1
2 2 -8 1.89 0.08
-2 2 8 1.84 0.09
2 2 -8 1.84 0.1
2 2 -8 1.71 0.1
-2 2 8 1.86 0.09
-1 -2 8 3.48 0.14
1 -2 -8 3.65 0.14
1 -2 -8 3.51 0.12
-1 -2 8 3.61 0.13
1 -2 -8 3.53 0.15
-1 -2 8 3.67 0.14
1 -2 -8 3.74 0.13
1 2 -8 3.7 0.12
1 2 -8 3.34 0.15
-1 2 8 3.45 0.14
-1 2 8 3.47 0.13
-1 2 8 3.66 0.13
1 2 -8 3.68 0.15
-1 2 8 3.48 0.13
1 2 -8 3.79 0.13
0 -2 8 0.61 0.06
0 -2 -8 0.78 0.06
0 -2 -8 0.67 0.05
0 -2 8 0.63 0.07
0 -2 -8 0.69 0.05
0 -2 8 0.64 0.06
0 -2 8 0.69 0.07
0 -2 8 0.64 0.05
0 -2 -8 0.81 0.07
0 2 8 0.65 0.06
0 2 8 0.6 0.06
0 2 -8 0.79 0.06
0 2 -8 0.71 0.06
0 2 -8 0.71 0.05
0 2 8 0.73 0.06
1 -2 8 17.33 0.51
-1 -2 -8 16.74 0.56
1 -2 8 16.03 0.54
1 -2 8 16.98 0.5
-1 -2 -8 15.92 0.51
1 -2 8 15.9 0.51
-1 -2 -8 17.31 0.49
-1 -2 -8 16.35 0.5
1 -2 8 16.94 0.52
1 2 8 16.19 0.51
-1 2 -8 16.33 0.57
1 2 8 16.25 0.51
1 2 8 16.44 0.51
-1 2 -8 16.59 0.53
-1 2 -8 16.62 0.5
-1 2 -8 16.53 0.48
-1 2 -8 16.88 0.51
2 -2 8 4.14 0.16
-2 -2 -8 4.19 0.17
-2 -2 -8 4.44 0.16
-2 -2 -8 4.33 0.15
2 -2 8 4.04 0.15
2 -2 8 4.1 0.15
2 -2 8 3.9 0.17
-2 -2 -8 4.04 0.14
-2 2 -8 4.29 0.16
-2 2 -8 4.29 0.16
2 2 8 4.38 0.15
-2 2 -8 4.2 0.15
-2 2 -8 4.05 0.17
2 2 8 4.04 0.16
2 2 8 4.08 0.15
-2 2 -8 4.11 0.14
2 2 8 4.07 0.15
3 -2 8 3.22 0.15
-3 -2 -8 3.12 0.12
-3 -2 -8 3.34 0.13
3 -2 8 3.4 0.13
-3 -2 -8 2.98 0.14
-3 -2 -8 3.28 0.15
3 -2 8 3.27 0.13
-3 2 -8 3.09 0.14
-3 2 -8 3.28 0.13
-3 2 -8 2.91 0.15
-3 2 -8 3.07 0.15
3 2 8 3.41 0.13
-3 2 -8 3.07 0.12
-3 2 -8 3.22 0.13
3 2 8 3.33 0.13
4 -2 8 2.12 0.14
-4 -2 -8 2.32 0.11
4 -2 8 2.29 0.2
-4 -2 -8 2.23 0.14
-4 -2 -8 1.99 0.13
4 2 8 2.24 0.12
-4 2 -8 2.16 0.15
4 2 8 2.09 0.14
5 -2 8 5.44 0.2
-5 -2 -8 5.27 0.18
-5 -2 -8 5.39 0.22
-5 -2 -8 5.48 0.21
-5 -2 -8 5.23 0.19
5 -2 8 4.87 0.19
-5 2 -8 4.83 0.18
-5 2 -8 5.28 0.21
-5 2 -8 4.83 0.22
5 2 8 5.42 0.19
-6 -2 -8 1.4 0.09
-6 -2 -8 1.56 0.11
6 -2 8 1.57 0.11
-6 -2 -8 1.56 0.14
6 -2 8 1.43 0.1
6 2 8 1.62 0.1
-6 2 -8 1.38 0.11
-6 2 -8 1.44 0.12
-6 2 -8 1.37 0.09
-7 -2 -8 2.52 0.16
7 -2 8 2.4 0.13
7 2 8 2.18 0.12
-7 2 -8 2.27 0.12
-7 2 -8 2.13 0.14
8 -3 -8 0.02 0.03
-8 -3 8 -0.01 0.02
8 -3 -8 -0.01 0.02
-8 3 8 -0.01 0.07
8 3 -8 0.02 0.03
-8 3 8 0.01 0.02
8 3 -8 -0.03 0.04
7 -3 -8 2.88 0.13
7 -3 -8 2.99 0.13
7 -3 -8 2.89 0.12
-7 -3 8 2.79 0.14
-7 -3 8 2.9 0.15
7 3 -8 2.76 0.14
-7 3 8 2.74 0.14
-7 3 8 3.01 0.13
7 3 -8 2.88 0.13
7 3 -8 2.81 0.16
6 -3 -8 0.46 0.08
6 -3 -8 0.34 0.08
6 -3 -8 0.42 0.06
-6 -3 8 0.41 0.09
6 3 -8 0.37 0.08
6 3 -8 0.41 0.08
6 3 -8 0.29 0.09
-6 3 8 0.27 0.07
-5 -3 8 1.66 0.11
5 -3 -8 1.69 0.1
5 -3 -8 1.6 0.09
-5 -3 8 1.53 0.1
5 -3 -8 1.48 0.11
-5 3 8 1.56 0.1
5 3 -8 1.59 0.1
5 3 -8 1.65 0.1
4 -3 -8 2.98 0.14
4 -3 -8 3.14 0.13
-4 -3 8 3.25 0.13
4 -3 -8 3.17 0.12
4 -3 -8 3.03 0.14
-4 -3 8 2.99 0.16
-4 -3 8 2.96 0.14
4 3 -8 3.11 0.13
4 3 -8 3.02 0.14
-4 3 8 3.05 0.13
4 3 -8 3.06 0.13
-4 3 8 3.04 0.13
-4 3 8 3.13 0.13
4 3 -8 3 0.14
-3 -3 8 0.08 0.03
3 -3 -8 0.06 0.02
-3 -3 8 0.04 0.02
3 -3 -8 0.07 0.02
3 3 -8 0.07 0.02
3 3 -8 0.09 0.03
-3 3 8 0.07 0.02
3 3 -8 0.05 0.02
-3 3 8 0.18 0.06
3 3 -8 0.1 0.03
2 -3 -8 1.06 0.06
2 -3 -8 1.08 0.06
2 -3 -8 0.99 0.07
-2 -3 8 1.05 0.08
-2 -3 8 1.06 0.07
-2 -3 8 0.95 0.07
-2 3 8 1.12 0.07
2 3 -8 1.15 0.08
-2 3 8 1.1 0.07
2 3 -8 1.06 0.08
2 3 -8 1.17 0.07
2 3 -8 0.99 0.07
-2 3 8 1.19 0.07
-1 -3 8 29.85 0.9
1 -3 -8 30.41 0.9
1 -3 -8 31.05 0.92
-1 -3 8 31.42 0.99
-1 -3 8 30.47 0.92
1 -3 -8 32.41 0.97
1 -3 -8 31.63 1.03
-1 -3 8 31.33 0.93
1 3 -8 31.32 0.9
-1 3 8 31.61 0.93
1 3 -8 31.97 1.04
1 3 -8 31.64 0.92
-1 3 8 29.71 0.94
1 3 -8 31.28 0.98
-1 3 8 32.24 0.94
0 -3 8 29.67 0.87
0 -3 8 29.68 0.94
0 -3 8 29.03 0.85
0 -3 -8 31.41 0.87
0 -3 -8 29.17 0.98
0 -3 -8 30.24 0.92
0 -3 -8 30.79 0.85
0 -3 8 28.43 0.94
0 -3 8 30 0.89
0 3 8 29.24 0.89
0 3 -8 29.43 0.85
0 3 -8 28.89 0.99
0 3 -8 30.24 0.87
0 3 8 29.48 0.89
0 3 8 28.21 0.88
0 3 -8 29.64 0.93
-1 -3 -8 0.24 0.08
1 -3 8 0.19 0.06
1 -3 8 0.22 0.05
1 -3 8 0.28 0.07
-1 -3 -8 0.2 0.04
1 -3 8 0.26 0.06
1 -3 8 0.27 0.05
-1 -3 -8 0.19 0.04
-1 -3 -8 0.19 0.06
-1 3 -8 0.31 0.06
-1 3 -8 0.19 0.04
1 3 8 0.31 0.05
-1 3 -8 0.18 0.06
1 3 8 0.26 0.05
1 3 8 0.16 0.05
2 -3 8 1.24 0.08
2 -3 8 1.04 0.07
-2 -3 -8 1.15 0.07
-2 -3 -8 1.28 0.1
-2 -3 -8 1.03 0.06
2 -3 8 1.14 0.07
-2 -3 -8 1.14 0.08
2 -3 8 1 0.1
2 -3 8 1.01 0.08
2 3 8 1.13 0.07
2 3 8 1.11 0.08
-2 3 -8 1.24 0.08
2 3 8 1.13 0.07
-2 3 -8 1.08 0.07
-2 3 -8 1.19 0.08
3 -3 8 2.77 0.12
-3 -3 -8 2.52 0.13
-3 -3 -8 2.6 0.1
-3 -3 -8 2.86 0.13
3 -3 8 2.76 0.13
-3 -3 -8 2.83 0.11
3 -3 8 2.5 0.16
-3 3 -8 2.74 0.11
-3 3 -8 2.71 0.14
3 3 8 2.92 0.12
-3 3 -8 2.8 0.12
-3 3 -8 2.44 0.13
-4 -3 -8 9.82 0.36
4 -3 8 8.78 0.38
4 -3 8 9.45 0.34
-4 -3 -8 9.61 0.31
-4 -3 -8 9.73 0.3
4 -3 8 9.88 0.32
4 3 8 9.88 0.31
-4 3 -8 9.52 0.31
-4 3 -8 9.93 0.33
-4 3 -8 9.85 0.36
-4 3 -8 9.07 0.33
5 -3 8 8.74 0.28
-5 -3 -8 7.77 0.31
-5 -3 -8 8.47 0.28
-5 -3 -8 8.1 0.26
5 -3 8 8.82 0.29
-5 3 -8 8.73 0.29
5 3 8 8.61 0.28
-5 3 -8 8.12 0.28
6 -3 8 2.53 0.13
-6 -3 -8 2.3 0.13
-6 -3 -8 2.3 0.12
-6 -3 -8 2.63 0.11
-6 -3 -8 2.64 0.17
6 -3 8 2.56 0.12
6 -3 8 2.04 0.23
-6 3 -8 2.5 0.13
-6 3 -8 2.4 0.12
6 3 8 2.47 0.12
7 -3 8 0.37 0.1
-7 -3 -8 0.63 0.16
7 -3 8 0.54 0.11
7 3 8 0.32 0.09
-7 3 -8 0.57 0.11
8 -4 -8 0.33 0.08
-8 -4 8 0.41 0.07
8 -4 -8 0.36 0.06
8 4 -8 0.43 0.07
-8 4 8 0.25 0.06
-8 4 8 0.37 0.07
7 -4 -8 1.9 0.1
-7 -4 8 1.93 0.12
-7 -4 8 1.64 0.11
7 -4 -8 1.87 0.11
7 -4 -8 1.69 0.09
7 4 -8 1.54 0.1
-7 4 8 1.79 0.1
-7 4 8 1.61 0.11
7 4 -8 1.63 0.11
7 4 -8 1.85 0.13
-6 -4 8 0.65 0.1
6 -4 -8 0.61 0.07
6 -4 -8 0.62 0.09
6 -4 -8 0.79 0.08
6 4 -8 0.55 0.1
-6 4 8 0.66 0.09
6 4 -8 0.68 0.09
6 4 -8 0.52 0.08
-6 4 8 0.62 0.08
5 -4 -8 0.36 0.06
5 -4 -8 0.32 0.07
-5 -4 8 0.4 0.09
5 -4 -8 0.27 0.08
-5 4 8 0.27 0.08
5 4 -8 0.27 0.04
5 4 -8 0.29 0.05
5 4 -8 0.3 0.07
4 -4 -8 0.83 0.07
4 -4 -8 0.77 0.08
4 -4 -8 0.58 0.09
-4 -4 8 0.62 0.11
-4 -4 8 0.76 0.07
-4 -4 8 0.67 0.08
4 -4 -8 0.67 0.06
-4 4 8 0.73 0.08
4 4 -8 0.81 0.08
-4 4 8 0.82 0.08
-4 4 8 0.83 0.08
4 4 -8 0.76 0.08
4 4 -8 0.82 0.08
3 -4 -8 11.43 0.37
-3 -4 8 10.88 0.33
-3 -4 8 10.67 0.35
3 -4 -8 11.5 0.35
-3 -4 8 10.55 0.36
3 -4 -8 10.87 0.33
-3 -4 8 10.56 0.37
-3 4 8 11.15 0.34
-3 4 8 11.12 0.35
3 4 -8 10.98 0.35
-3 4 8 11.09 0.35
3 4 -8 10.57 0.37
3 4 -8 10.7 0.33
3 4 -8 10.66 0.36
-2 -4 8 7.71 0.24
2 -4 -8 7.46 0.27
-2 -4 8 7.96 0.26
-2 -4 8 7.93 0.25
2 -4 -8 7.8 0.25
2 -4 -8 7.87 0.24
2 4 -8 7.38 0.27
-2 4 8 8 0.26
2 4 -8 7.96 0.25
-2 4 8 7.71 0.26
2 4 -8 7.95 0.29
2 4 -8 7.24 0.25
-2 4 8 7.8 0.26
-2 4 8 7.97 0.25
2 4 -8 7.88 0.26
-1 -4 8 4.17 0.15
1 -4 -8 4.14 0.13
1 -4 -8 4.01 0.17
1 -4 -8 3.92 0.15
1 -4 -8 4.23 0.14
-1 -4 8 3.77 0.16
-1 -4 8 4.08 0.15
-1 -4 8 4.14 0.16
-1 -4 8 4.14 0.14
-1 -4 8 3.96 0.15
1 4 -8 3.97 0.16
-1 4 8 4.04 0.15
1 4 -8 4.16 0.15
1 4 -8 4.03 0.14
-1 4 8 3.93 0.15
1 4 -8 4.1 0.17
-1 4 8 4.14 0.15
0 -4 -8 6.44 0.24
0 -4 -8 6.57 0.21
0 -4 8 6.27 0.23
0 -4 -8 6.78 0.2
0 -4 8 6.71 0.21
0 -4 8 6.41 0.23
0 -4 8 6.42 0.2
0 -4 8 6.23 0.22
0 -4 8 6.26 0.22
0 4 -8 6.12 0.2
0 4 8 6.32 0.22
0 4 8 6.65 0.21
0 4 -8 6.38 0.23
0 4 8 6.4 0.22
0 4 -8 6.07 0.24
0 4 -8 6.54 0.21
1 -4 8 1.6 0.09
1 -4 8 1.8 0.09
1 -4 8 1.75 0.1
-1 -4 -8 1.73 0.1
1 -4 8 1.78 0.09
1 -4 8 1.75 0.08
-1 -4 -8 1.7 0.12
-1 -4 -8 1.68 0.07
-1 -4 -8 1.62 0.08
1 -4 8 1.73 0.08
1 4 8 1.81 0.08
-1 4 -8 1.73 0.08
1 4 8 1.73 0.09
-1 4 -8 1.69 0.09
1 4 8 1.84 0.09
-1 4 -8 1.75 0.09
2 -4 8 14.57 0.44
2 -4 8 14.29 0.46
2 -4 8 14.74 0.43
-2 -4 -8 13.9 0.45
-2 -4 -8 14.39 0.42
2 -4 8 14.33 0.42
-2 -4 -8 14.03 0.49
-2 -4 -8 14.33 0.43
-2 4 -8 13.57 0.46
2 4 8 13.96 0.44
-2 4 -8 14.46 0.49
-2 4 -8 14.09 0.43
-2 4 -8 14.38 0.44
-2 4 -8 13.32 0.49
2 4 8 13.67 0.44
-3 -4 -8 3.65 0.13
3 -4 8 3.7 0.16
3 -4 8 3.51 0.14
3 -4 8 3.81 0.15
3 -4 8 3.9 0.14
3 -4 8 3.47 0.19
-3 -4 -8 3.67 0.17
-3 -4 -8 3.77 0.14
3 4 8 3.81 0.15
-3 4 -8 3.6 0.17
-3 4 -8 3.86 0.15
-3 4 -8 4.02 0.16
-3 4 -8 4.06 0.17
3 4 8 3.84 0.14
-3 4 -8 3.51 0.14
-4 -4 -8 27.04 0.9
4 -4 8 25.91 0.85
-4 -4 -8 27.36 0.8
4 -4 8 26.84 0.81
4 -4 8 27.06 0.8
-4 -4 -8 26.79 0.78
-4 4 -8 25.45 0.8
-4 4 -8 27.01 0.91
-4 4 -8 27.48 0.81
5 -4 8 3.37 0.15
-5 -4 -8 3.45 0.13
-5 -4 -8 3.26 0.13
-5 -4 -8 3.07 0.16
5 -4 8 3.35 0.14
5 4 8 3.32 0.14
-5 4 -8 3.21 0.15
-5 4 -8 3.26 0.14
-6 -4 -8 0.26 0.08
6 -4 8 0.08 0.03
6 -4 8 0.15 0.03
-6 -4 -8 0.28 0.08
-6 4 -8 0.14 0.03
-6 4 -8 0.08 0.03
-7 -4 -8 0.01 0.07
7 -4 8 0.12 0.04
-8 -5 8 1.75 0.1
8 -5 -8 1.85 0.09
8 -5 -8 1.69 0.11
-8 5 8 1.54 0.11
8 5 -8 1.75 0.09
-8 5 8 1.73 0.1
7 -5 -8 1.73 0.1
7 -5 -8 1.72 0.09
-7 -5 8 1.62 0.11
7 -5 -8 1.89 0.11
-7 -5 8 1.75 0.11
7 5 -8 1.67 0.12
-7 5 8 1.74 0.1
-7 5 8 1.58 0.11
7 5 -8 1.64 0.1
6 -5 -8 1.69 0.09
-6 -5 8 1.8 0.12
6 -5 -8 1.75 0.11
6 -5 -8 1.89 0.1
6 5 -8 1.65 0.12
6 5 -8 1.69 0.11
6 5 -8 1.67 0.11
-6 5 8 1.74 0.1
-6 5 8 1.79 0.11
5 -5 -8 1.98 0.12
5 -5 -8 1.99 0.1
-5 -5 8 1.73 0.11
-5 -5 8 2.12 0.13
5 -5 -8 1.94 0.11
-5 5 8 1.88 0.12
5 5 -8 1.97 0.12
-5 5 8 2.15 0.11
5 5 -8 2.13 0.11
-5 5 8 1.95 0.11
4 -5 -8 3.63 0.16
-4 -5 8 3.63 0.16
-4 -5 8 3.17 0.15
-4 -5 8 3.64 0.15
4 -5 -8 3.28 0.16
4 -5 -8 3.58 0.14
4 5 -8 3.59 0.14
4 5 -8 3.27 0.16
-4 5 8 3.39 0.14
-4 5 8 3.63 0.14
4 5 -8 3.65 0.15
-4 5 8 3.48 0.15
-3 -5 8 0.9 0.07
3 -5 -8 0.75 0.06
3 -5 -8 0.67 0.08
-3 -5 8 0.77 0.08
-3 -5 8 0.84 0.07
-3 -5 8 0.92 0.08
3 -5 -8 0.83 0.06
-3 5 8 0.99 0.07
3 5 -8 0.82 0.08
3 5 -8 0.83 0.07
-3 5 8 0.85 0.07
3 5 -8 0.77 0.09
3 5 -8 0.92 0.08
-3 5 8 0.8 0.07
2 -5 -8 4.69 0.15
-2 -5 8 4.25 0.17
-2 -5 8 4.37 0.16
-2 -5 8 4.53 0.17
-2 -5 8 4.39 0.15
2 -5 -8 4.65 0.16
2 -5 -8 4.32 0.17
-2 5 8 4.52 0.17
2 5 -8 4.34 0.16
-2 5 8 4.71 0.16
-2 5 8 4.27 0.16
-2 5 8 4.46 0.16
2 5 -8 4.5 0.19
2 5 -8 4.68 0.17
2 5 -8 4.63 0.18
-1 -5 8 4.55 0.18
-1 -5 8 5.04 0.18
-1 -5 8 4.77 0.17
-1 -5 8 4.89 0.16
1 -5 -8 5.01 0.16
1 -5 -8 4.83 0.16
1 -5 -8 5 0.18
-1 -5 8 5.12 0.17
-1 5 8 4.81 0.17
-1 5 8 4.69 0.17
1 5 -8 4.79 0.17
1 5 -8 4.52 0.18
1 5 -8 4.58 0.19
-1 5 8 4.84 0.17
0 -5 8 3.97 0.16
0 -5 -8 4.27 0.14
0 -5 8 4.2 0.16
0 -5 8 4.27 0.14
0 -5 -8 4.23 0.15
0 -5 8 4.12 0.17
0 -5 -8 4.41 0.17
0 -5 8 4.29 0.15
0 5 8 4.25 0.16
0 5 -8 4.54 0.17
0 5 -8 4.4 0.18
0 5 8 4.32 0.16
0 5 8 4.28 0.15
0 5 -8 4.05 0.15
1 -5 8 1.01 0.06
-1 -5 -8 0.93 0.06
1 -5 8 0.81 0.07
1 -5 8 0.8 0.07
-1 -5 -8 0.98 0.08
1 -5 8 0.83 0.07
-1 -5 -8 0.92 0.05
1 -5 8 0.91 0.06
-1 5 -8 0.97 0.07
1 5 8 0.84 0.06
1 5 8 1 0.07
-1 5 -8 0.88 0.08
-1 5 -8 0.92 0.08
1 5 8 0.91 0.07
-2 -5 -8 0.26 0.05
-2 -5 -8 0.22 0.05
2 -5 8 0.19 0.05
2 -5 8 0.13 0.02
2 -5 8 0.21 0.07
2 -5 8 0.22 0.07
-2 5 -8 0.13 0.03
-2 5 -8 0.31 0.08
2 5 8 0.29 0.06
-2 5 -8 0.12 0.03
2 5 8 0.15 0.03
3 -5 8 17.84 0.55
3 -5 8 18.04 0.54
-3 -5 -8 17.15 0.56
-3 -5 -8 18.61 0.61
-3 -5 -8 18.18 0.54
3 -5 8 17.18 0.58
3 -5 8 16.82 0.52
-3 -5 -8 18.16 0.52
-3 5 -8 18.21 0.55
-3 5 -8 17.59 0.54
3 5 8 17.43 0.55
-3 5 -8 17.52 0.58
3 5 8 17.43 0.56
-3 5 -8 18.5 0.62
-4 -5 -8 1.84 0.09
4 -5 8 1.71 0.1
-4 -5 -8 1.74 0.09
4 -5 8 1.64 0.12
-4 -5 -8 1.86 0.12
-4 5 -8 1.5 0.1
-4 5 -8 1.64 0.11
-5 -5 -8 2.98 0.18
-5 -5 -8 2.79 0.11
-5 -5 -8 2.72 0.12
5 -5 8 2.81 0.12
5 -5 8 2.72 0.14
-5 -5 -8 2.61 0.14
5 5 8 2.82 0.12
-5 5 -8 2.67 0.14
-5 5 -8 2.76 0.13
6 -5 8 0.16 0.04
-6 -5 -8 0.26 0.08
-6 5 -8 0.08 0.04
-6 5 -8 0.13 0.03
6 5 8 0.26 0.08
7 -5 8 0.11 0.04
7 -5 8 0.13 0.04
7 5 8 0.11 0.03
-7 5 -8 0.07 0.03
-7 5 -8 0.03 0.06
8 -6 -8 0.07 0.03
8 -6 -8 0.05 0.04
-8 -6 8 0.05 0.02
8 6 -8 0.02 0.03
-8 6 8 0.04 0.05
7 -6 -8 0.03 0.02
-7 -6 8 0.06 0.03
-7 -6 8 0.06 0.04
7 -6 -8 0.08 0.04
7 -6 -8 -0.01 0.02
-7 6 8 0.01 0.04
7 6 -8 0.06 0.04
7 6 -8 0 0.03
-7 6 8 -0.01 0.03
6 -6 -8 0.52 0.08
-6 -6 8 0.52 0.1
6 -6 -8 0.42 0.07
6 -6 -8 0.43 0.06
-6 6 8 0.48 0.07
6 6 -8 0.3 0.09
6 6 -8 0.39 0.1
6 6 -8 0.48 0.08
-6 6 8 0.3 0.09
-5 -6 8 3.17 0.14
-5 -6 8 3.6 0.17
5 -6 -8 3.4 0.13
5 -6 -8 3.37 0.14
5 -6 -8 3.28 0.15
5 6 -8 3.11 0.16
-5 6 8 3.4 0.15
5 6 -8 3.37 0.15
-5 6 8 3.09 0.15
-5 6 8 3.39 0.14
-5 6 8 3.15 0.15
5 6 -8 3.18 0.15
-4 -6 8 2.98 0.17
-4 -6 8 3.13 0.13
4 -6 -8 3.32 0.16
4 6 -8 3.42 0.15
-4 6 8 3.05 0.14
4 6 -8 3.19 0.14
-3 -6 8 5.75 0.19
3 -6 -8 5.83 0.21
-3 -6 8 5.79 0.2
-3 -6 8 5.49 0.22
-3 -6 8 5.63 0.21
3 -6 -8 5.76 0.2
-3 -6 8 5.56 0.21
3 -6 -8 5.74 0.19
3 6 -8 5.32 0.2
-3 6 8 5.62 0.2
3 6 -8 5.51 0.2
-3 6 8 5.78 0.2
3 6 -8 5.94 0.21
-3 6 8 5.72 0.2
2 -6 -8 6.57 0.21
-2 -6 8 6.29 0.21
2 -6 -8 6.85 0.24
2 -6 -8 6.38 0.22
-2 -6 8 6.69 0.23
-2 -6 8 6.37 0.24
2 6 -8 7.01 0.24
2 6 -8 6.98 0.23
-2 6 8 6.9 0.22
-2 6 8 6.8 0.23
-2 6 8 6.6 0.23
2 6 -8 6.44 0.22
-2 6 8 6.39 0.22
1 -6 -8 2.93 0.13
-1 -6 8 3.02 0.13
1 -6 -8 3.17 0.11
-1 -6 8 3.18 0.12
-1 -6 8 3.07 0.12
-1 -6 8 3.01 0.11
-1 -6 8 3.12 0.13
-1 -6 8 2.93 0.13
1 -6 -8 3.19 0.12
-1 6 8 2.78 0.12
1 6 -8 3.04 0.14
1 6 -8 2.76 0.14
1 6 -8 2.83 0.13
-1 6 8 3.12 0.12
1 6 -8 3.12 0.12
-1 6 8 3.25 0.12
-1 6 8 3.02 0.12
0 -6 -8 0.51 0.08
0 -6 8 0.69 0.06
0 -6 -8 0.69 0.05
0 -6 8 0.67 0.05
0 -6 -8 0.68 0.05
0 -6 8 0.56 0.06
0 -6 8 0.74 0.07
0 -6 8 0.52 0.08
0 -6 8 0.69 0.06
0 6 -8 0.68 0.06
0 6 8 0.7 0.06
0 6 8 0.54 0.06
0 6 -8 0.57 0.07
1 -6 8 5.36 0.2
1 -6 8 5.39 0.18
1 -6 8 5.35 0.2
-1 -6 -8 5.54 0.19
1 -6 8 5.51 0.2
-1 -6 -8 5.81 0.21
1 -6 8 5.23 0.19
-1 -6 -8 5.55 0.18
1 6 8 5.66 0.19
-1 6 -8 5.4 0.19
-1 6 -8 5.41 0.2
-1 6 -8 5.85 0.22
1 6 8 5.37 0.19
-1 6 -8 5.69 0.22
1 6 8 5.36 0.18
2 -6 8 3.97 0.14
2 -6 8 3.92 0.19
2 -6 8 4.13 0.15
2 -6 8 4.28 0.17
-2 -6 -8 4.38 0.18
2 -6 8 4.12 0.17
-2 -6 -8 4.35 0.15
-2 -6 -8 4.32 0.14
-2 6 -8 4.03 0.19
-2 6 -8 4.34 0.18
2 6 8 4.18 0.16
2 6 8 4.24 0.15
-2 6 -8 4.28 0.16
-2 6 -8 4.02 0.16
2 6 8 4.33 0.16
-2 6 -8 4.41 0.19
3 -6 8 17.46 0.54
-3 -6 -8 16.67 0.51
3 -6 8 16.95 0.51
-3 -6 -8 17.78 0.52
3 -6 8 17.63 0.53
3 -6 8 16.97 0.56
-3 -6 -8 17.61 0.59
3 6 8 16.82 0.54
3 6 8 17.51 0.54
-3 6 -8 17.71 0.53
-3 6 -8 16.43 0.56
4 -6 8 2.92 0.12
-4 -6 -8 3.15 0.12
4 -6 8 3.14 0.13
-4 -6 -8 3.08 0.15
-4 -6 -8 3.05 0.13
4 -6 8 2.94 0.15
4 6 8 3.01 0.13
-4 6 -8 3.25 0.14
4 6 8 2.79 0.14
-5 -6 -8 1.34 0.11
5 -6 8 1.25 0.11
-5 -6 -8 1.33 0.08
-5 -6 -8 1.27 0.08
5 -6 8 1.26 0.09
5 6 8 1.45 0.09
-5 6 -8 1.37 0.1
-6 -6 -8 0.54 0.06
-6 -6 -8 0.44 0.08
6 -6 8 0.59 0.07
-6 -6 -8 0.45 0.06
6 -6 8 0.74 0.11
-6 6 -8 0.59 0.08
-6 6 -8 0.72 0.13
-7 -6 -8 0.05 0.02
7 -6 8 0.11 0.03
-7 -6 -8 0.05 0.02
7 -6 8 0.1 0.04
-7 6 -8 0.05 0.02
-7 6 -8 -0.07 0.07
7 6 8 0.06 0.03
8 -7 -8 0.01 0.03
-8 -7 8 0.03 0.03
8 -7 -8 0.04 0.02
8 7 -8 0.03 0.04
7 -7 -8 0.06 0.02
7 -7 -8 0.05 0.03
7 -7 -8 0.11 0.04
-7 -7 8 0.06 0.03
-7 -7 8 0.09 0.03
-7 7 8 0.08 0.04
7 7 -8 0.06 0.04
6 -7 -8 6.81 0.22
-6 -7 8 6.38 0.25
6 -7 -8 6.82 0.24
6 7 -8 6.86 0.25
-6 7 8 6.76 0.24
6 7 -8 6.43 0.25
-6 7 8 6.78 0.23
5 -7 -8 2.27 0.12
5 -7 -8 2.26 0.1
5 -7 -8 2.14 0.11
-5 -7 8 2.22 0.14
-5 -7 8 2.05 0.11
-5 7 8 2.16 0.12
5 7 -8 1.9 0.13
-5 7 8 2.24 0.12
-5 7 8 2.22 0.11
-5 7 8 1.96 0.11
5 7 -8 2.01 0.13
5 7 -8 2.01 0.12
4 -7 -8 4.91 0.18
4 -7 -8 4.86 0.19
4 -7 -8 4.87 0.17
4 -7 -8 4.55 0.2
-4 -7 8 4.88 0.18
4 7 -8 4.58 0.2
-4 7 8 4.88 0.18
-4 7 8 4.98 0.19
-4 7 8 4.67 0.19
-3 -7 8 4.57 0.19
-3 -7 8 4.3 0.16
-3 -7 8 4.4 0.18
3 -7 -8 4.81 0.17
-3 -7 8 4.46 0.17
3 -7 -8 4.55 0.18
3 -7 -8 4.39 0.15
3 7 -8 4.88 0.19
-3 7 8 4.48 0.17
3 7 -8 4.39 0.18
-3 7 8 4.75 0.17
-3 7 8 4.57 0.17
3 7 -8 4.66 0.17
-3 7 8 4.81 0.18
3 7 -8 4.9 0.19
-2 -7 8 36.79 1.01
-2 -7 8 34.67 1.04
-2 -7 8 34.4 1.11
2 -7 -8 35.11 1.04
2 -7 -8 33.73 1.09
-2 -7 8 36.81 1.06
-2 -7 8 33.23 1.12
2 -7 -8 34.98 1.01
-2 7 8 35.13 1.04
2 7 -8 34.44 1.17
-2 7 8 36.44 1.06
2 7 -8 35.32 1.1
2 7 -8 34.38 1.04
-2 7 8 36.64 1.07
2 7 -8 33.43 1.15
-2 7 8 37.08 1.02
1 -7 -8 5.41 0.2
-1 -7 8 5.03 0.17
-1 -7 8 5.38 0.2
-1 -7 8 5.3 0.18
1 -7 -8 5.41 0.18
1 -7 -8 5.69 0.17
-1 -7 8 5.38 0.2
1 7 -8 5.3 0.19
-1 7 8 5.39 0.19
1 7 -8 5.59 0.21
-1 7 8 5.02 0.18
-1 7 8 5.2 0.19
1 7 -8 5 0.21
1 7 -8 5.56 0.22
-1 7 8 5.5 0.19
0 -7 8 4.15 0.17
0 -7 -8 4.63 0.16
0 -7 8 4.45 0.17
0 -7 8 4.78 0.15
0 -7 8 4.45 0.17
0 -7 8 4.79 0.16
0 -7 -8 4.15 0.19
0 -7 -8 4.4 0.15
0 7 8 4.54 0.17
0 7 -8 4.64 0.16
0 7 -8 4.16 0.18
0 7 8 4.48 0.15
0 7 -8 4.11 0.19
0 7 -8 4.51 0.19
0 7 8 4.51 0.17
1 -7 8 0.52 0.08
1 -7 8 0.55 0.09
-1 -7 -8 0.66 0.06
1 -7 8 0.48 0.05
1 -7 8 0.62 0.06
1 -7 8 0.51 0.07
1 -7 8 0.55 0.06
-1 -7 -8 0.6 0.05
-1 -7 -8 0.6 0.08
-1 7 -8 0.69 0.09
1 7 8 0.52 0.05
1 7 8 0.48 0.06
-1 7 -8 0.49 0.08
1 7 8 0.61 0.07
-1 7 -8 0.57 0.09
-2 -7 -8 33.07 0.92
2 -7 8 31.46 0.94
2 -7 8 31.64 1
2 -7 8 31.61 0.96
2 -7 8 30.75 0.92
-2 -7 -8 32.05 0.94
2 -7 8 30.86 1.03
-2 -7 -8 32.86 1.06
-2 7 -8 31.3 1.07
-2 7 -8 31.87 0.94
2 7 8 31.48 0.95
2 7 8 32.66 0.97
-2 7 -8 32.26 0.99
-2 7 -8 32.91 0.96
2 7 8 32.28 0.97
-2 7 -8 32.3 1
3 -7 8 2.19 0.13
-3 -7 -8 2.04 0.1
-3 7 -8 2.28 0.12
-3 7 -8 2.43 0.15
-3 7 -8 2.28 0.12
-4 -7 -8 13.43 0.46
4 -7 8 12.47 0.44
4 -7 8 12.4 0.39
4 -7 8 12.55 0.4
-4 -7 -8 13.32 0.39
4 -7 8 13.1 0.42
-4 -7 -8 13.23 0.4
4 7 8 13.23 0.4
-4 7 -8 13.02 0.41
4 7 8 12.45 0.42
-4 7 -8 12.31 0.4
4 7 8 12.71 0.41
-4 7 -8 12.89 0.47
5 -7 8 0.68 0.07
-5 -7 -8 0.63 0.09
5 -7 8 0.8 0.1
-5 -7 -8 0.75 0.07
-5 -7 -8 0.65 0.06
5 -7 8 0.7 0.11
-5 7 -8 0.45 0.11
-5 7 -8 0.58 0.08
5 7 8 0.58 0.08
5 7 8 0.5 0.12
5 7 8 0.83 0.08
6 -7 8 1 0.08
-6 -7 -8 0.98 0.07
-6 -7 -8 1.15 0.07
-6 7 -8 1.13 0.08
7 -7 8 0.59 0.11
-7 7 -8 0.5 0.07
-7 7 -8 0.5 0.1
8 -8 -8 0 0.02
7 -8 -8 0.13 0.03
7 -8 -8 0.32 0.09
-7 -8 8 0.16 0.04
7 8 -8 0.13 0.04
-7 8 8 0.23 0.05
-6 -8 8 0.91 0.12
6 -8 -8 1.1 0.1
6 -8 -8 0.97 0.07
6 -8 -8 0.95 0.08
-6 8 8 1.03 0.1
6 8 -8 1.01 0.1
6 8 -8 0.95 0.1
-6 8 8 0.96 0.09
-6 8 8 0.87 0.1
5 -8 -8 3.11 0.14
-5 -8 8 2.93 0.14
5 -8 -8 3.01 0.12
-5 -8 8 3.18 0.17
5 -8 -8 3.03 0.14
-5 8 8 3.06 0.14
-5 8 8 2.99 0.13
-5 8 8 3.15 0.14
-5 8 8 3.07 0.15
-5 8 8 2.94 0.14
5 8 -8 2.85 0.15
5 8 -8 3.22 0.15
4 -8 -8 6.22 0.23
-4 -8 8 5.88 0.24
4 -8 -8 6.25 0.22
-4 -8 8 6.16 0.2
-4 -8 8 6 0.22
4 -8 -8 6.01 0.2
4 8 -8 5.99 0.22
-4 8 8 6.02 0.22
-4 8 8 6.14 0.21
4 8 -8 5.96 0.23
4 8 -8 6.23 0.24
-4 8 8 6.19 0.23
-4 8 8 6.06 0.22
-3 -8 8 2.73 0.13
3 -8 -8 2.79 0.14
-3 -8 8 2.78 0.14
-3 -8 8 2.62 0.17
-3 -8 8 2.75 0.11
3 -8 -8 2.7 0.12
3 -8 -8 2.73 0.11
3 8 -8 2.66 0.14
-3 8 8 2.6 0.12
3 8 -8 2.47 0.13
-2 -8 8 3.57 0.16
2 -8 -8 3.63 0.15
2 -8 -8 3.52 0.14
-2 -8 8 3.62 0.15
-2 -8 8 3.72 0.14
2 -8 -8 3.75 0.13
-2 -8 8 3.74 0.13
-2 -8 8 3.44 0.16
-2 8 8 3.67 0.15
-2 8 8 3.63 0.15
2 8 -8 3.33 0.16
2 8 -8 3.67 0.17
-2 8 8 3.45 0.13
-2 8 8 3.49 0.15
2 8 -8 3.32 0.15
1 -8 -8 7.52 0.27
-1 -8 8 7.53 0.24
-1 -8 8 7.71 0.27
-1 -8 8 7.43 0.27
1 -8 -8 7.55 0.24
1 -8 -8 8.16 0.25
-1 -8 8 7.64 0.25
1 8 -8 7.9 0.28
1 8 -8 7.97 0.29
-1 8 8 7.74 0.26
-1 8 8 7.76 0.24
1 8 -8 7.65 0.3
1 8 -8 7.41 0.26
-1 8 8 7.59 0.25
-1 8 8 7.8 0.26
0 -8 -8 1.66 0.12
0 -8 8 1.59 0.11
0 -8 8 1.86 0.08
0 -8 8 1.8 0.1
0 -8 8 1.84 0.11
0 -8 8 1.78 0.09
0 -8 -8 1.94 0.09
0 -8 8 1.78 0.1
0 -8 -8 1.78 0.08
0 8 8 2.01 0.1
0 8 8 1.76 0.1
0 8 8 1.88 0.08
0 8 8 1.73 0.11
0 8 -8 1.77 0.12
0 8 -8 1.81 0.12
0 8 -8 2 0.12
0 8 -8 1.84 0.1
0 8 8 1.96 0.1
1 -8 8 6.46 0.23
-1 -8 -8 6.9 0.22
1 -8 8 6.13 0.25
1 -8 8 6.51 0.21
1 -8 8 6.61 0.24
-1 -8 -8 6.59 0.25
-1 -8 -8 6.75 0.21
1 -8 8 6.43 0.24
-1 8 -8 6.23 0.26
-1 8 -8 6.38 0.23
1 8 8 6.64 0.23
-1 8 -8 6.27 0.26
-1 8 -8 6.69 0.24
1 8 8 6.45 0.23
1 8 8 6.24 0.21
2 -8 8 13.1 0.47
2 -8 8 13.6 0.45
-2 -8 -8 13.66 0.4
2 -8 8 13.2 0.43
-2 -8 -8 14.03 0.48
2 -8 8 13.01 0.42
-2 -8 -8 13.62 0.42
2 -8 8 13.29 0.41
-2 8 -8 13.43 0.49
2 8 8 13.11 0.43
-2 8 -8 14.02 0.46
2 8 8 14.36 0.43
-2 8 -8 13.82 0.44
2 8 8 13.68 0.42
3 -8 8 1.39 0.12
3 -8 8 1.32 0.11
-3 -8 -8 1.51 0.08
3 -8 8 1.37 0.08
-3 -8 -8 1.44 0.09
-3 8 -8 1.65 0.11
3 8 8 1.55 0.09
3 8 8 1.66 0.1
-3 8 -8 1.24 0.13
-4 -8 -8 4.41 0.16
4 -8 8 4.04 0.15
4 -8 8 3.85 0.18
4 -8 8 4 0.16
-4 -8 -8 4.34 0.15
-4 -8 -8 4.38 0.19
-4 8 -8 4.05 0.2
-4 8 -8 4.27 0.16
4 8 8 4.3 0.16
-4 8 -8 4.06 0.17
4 8 8 4.09 0.17
4 8 8 3.94 0.17
5 -8 8 1.86 0.14
-5 -8 -8 1.81 0.09
5 -8 8 1.67 0.1
-5 -8 -8 1.85 0.12
-5 -8 -8 1.74 0.08
5 -8 8 1.83 0.09
5 8 8 1.95 0.1
5 8 8 1.65 0.12
-5 8 -8 1.54 0.14
5 8 8 1.98 0.11
-5 8 -8 1.88 0.1
-5 8 -8 1.72 0.12
-6 -8 -8 0.72 0.06
-6 -8 -8 0.86 0.07
-6 -8 -8 0.66 0.08
6 -8 8 0.78 0.07
-6 8 -8 1 0.09
-6 8 -8 0.91 0.08
7 8 8 0.46 0.08
-7 8 -8 0.47 0.07
-7 -9 8 0.8 0.08
7 -9 -8 0.81 0.1
-7 -9 8 0.64 0.13
7 -9 -8 0.67 0.07
7 -9 -8 0.69 0.06
-7 9 8 0.64 0.08
-7 9 8 0.65 0.11
7 9 -8 0.55 0.09
6 -9 -8 0.72 0.08
-6 -9 8 0.57 0.12
6 -9 -8 0.63 0.09
6 -9 -8 0.74 0.06
-6 9 8 0.56 0.08
-6 9 8 0.56 0.1
-6 9 8 0.55 0.08
6 9 -8 0.48 0.08
6 9 -8 0.59 0.09
-5 -9 8 3.79 0.19
5 -9 -8 3.99 0.16
5 -9 -8 3.64 0.15
5 -9 -8 3.58 0.14
-5 -9 8 3.67 0.15
-5 9 8 3.39 0.17
5 9 -8 3.67 0.17
5 9 -8 3.77 0.17
-5 9 8 3.84 0.16
-5 9 8 3.61 0.16
-5 9 8 3.81 0.16
-4 -9 8 2.64 0.16
4 -9 -8 2.75 0.13
4 -9 -8 2.78 0.11
4 -9 -8 2.93 0.13
-4 -9 8 2.83 0.12
-4 -9 8 2.79 0.13
-4 9 8 2.77 0.13
-4 9 8 2.68 0.14
-4 9 8 2.86 0.13
4 9 -8 2.73 0.15
4 9 -8 2.49 0.15
3 -9 -8 0.09 0.02
-3 -9 8 0.28 0.1
-3 -9 8 0.17 0.04
-3 -9 8 0.11 0.03
-3 -9 8 0.13 0.03
3 9 -8 0.07 0.04
-3 9 8 0.05 0.03
-3 9 8 0.13 0.05
3 9 -8 0.03 0.04
-2 -9 8 2.19 0.11
-2 -9 8 2.15 0.13
2 -9 -8 2.4 0.09
-2 -9 8 2.18 0.14
2 -9 -8 2.35 0.1
-2 -9 8 2.34 0.1
2 -9 -8 2.51 0.12
-2 -9 8 2.37 0.11
2 9 -8 2.29 0.13
-2 9 8 2.42 0.12
2 9 -8 2.48 0.11
2 9 -8 2.11 0.13
2 9 -8 1.98 0.19
-2 9 8 2.34 0.12
-2 9 8 2.07 0.12
-1 -9 8 11.79 0.36
-1 -9 8 11.04 0.39
-1 -9 8 11.66 0.38
1 -9 -8 11.89 0.36
-1 -9 8 11.19 0.35
1 -9 -8 11.41 0.38
1 -9 -8 11.91 0.35
1 9 -8 12.07 0.39
-1 9 8 11.62 0.36
1 9 -8 10.94 0.37
-1 9 8 11.01 0.36
-1 9 8 11.18 0.37
1 9 -8 12.07 0.42
-1 9 8 11.56 0.37
0 -9 8 6.01 0.23
0 -9 8 6.55 0.22
0 -9 8 6.42 0.21
0 -9 8 6.71 0.24
0 -9 -8 6.37 0.2
0 -9 -8 6.5 0.21
0 -9 8 6.42 0.23
0 9 8 6.06 0.23
0 9 8 6.6 0.22
0 9 -8 5.97 0.26
0 9 -8 6.83 0.24
0 9 8 6.69 0.23
0 9 8 6.72 0.23
0 9 -8 6.19 0.23
1 -9 8 0.56 0.07
-1 -9 -8 0.48 0.05
-1 -9 -8 0.45 0.06
1 -9 8 0.56 0.06
1 -9 8 0.63 0.1
-1 9 -8 0.41 0.1
-1 9 -8 0.67 0.11
-1 9 -8 0.45 0.1
-2 -9 -8 0.53 0.1
2 -9 8 0.75 0.11
2 -9 8 0.52 0.09
2 -9 8 0.56 0.11
2 -9 8 0.65 0.09
-2 9 -8 0.76 0.1
2 9 8 0.57 0.07
-2 9 -8 0.69 0.12
-3 -9 -8 4.23 0.15
-3 -9 -8 4.12 0.14
3 -9 8 4.02 0.15
3 -9 8 3.89 0.19
3 -9 8 4.08 0.16
-3 -9 -8 4.16 0.18
-3 9 -8 4.04 0.2
-3 9 -8 4.12 0.17
3 9 8 4.13 0.17
3 9 8 3.9 0.17
4 -9 8 0.95 0.12
-4 -9 -8 1.01 0.1
-4 -9 -8 1.16 0.07
4 -9 8 1.08 0.08
-4 -9 -8 1.13 0.08
4 -9 8 1.05 0.07
4 9 8 1.02 0.1
-4 9 -8 1.12 0.09
4 9 8 1.07 0.12
4 9 8 1.25 0.09
-4 9 -8 0.96 0.1
-5 -9 -8 0.4 0.06
-5 -9 -8 0.55 0.06
5 -9 8 0.52 0.13
5 -9 8 0.42 0.08
-5 -9 -8 0.31 0.08
5 -9 8 0.44 0.06
-5 9 -8 0.44 0.09
5 9 8 0.36 0.08
-5 9 -8 0.45 0.08
6 -9 8 1.12 0.16
6 -9 8 0.93 0.07
-6 9 -8 0.92 0.15
-6 9 -8 0.99 0.08
6 9 8 1.04 0.09
-7 -9 -8 0.3 0.06
7 -10 -8 1.71 0.15
7 -10 -8 1.9 0.08
7 -10 -8 1.72 0.09
7 10 -8 1.65 0.13
-7 10 8 1.7 0.1
-6 -10 8 0.42 0.13
6 -10 -8 0.4 0.06
6 -10 -8 0.34 0.07
6 -10 -8 0.4 0.09
-6 10 8 0.27 0.07
6 10 -8 0.39 0.08
-5 -10 8 0.4 0.07
-5 -10 8 0.57 0.08
5 -10 -8 0.57 0.06
5 -10 -8 0.63 0.08
5 -10 -8 0.51 0.08
-5 -10 8 0.75 0.13
-5 10 8 0.48 0.08
-5 10 8 0.34 0.08
5 10 -8 0.38 0.08
-5 10 8 0.47 0.08
5 10 -8 0.35 0.11
-4 -10 8 2.07 0.1
-4 -10 8 2.19 0.16
4 -10 -8 2 0.09
4 -10 -8 2.22 0.12
-4 -10 8 2.02 0.11
4 -10 -8 1.99 0.11
-4 10 8 1.95 0.11
4 10 -8 2.07 0.13
-4 10 8 2.01 0.11
-4 10 8 1.9 0.11
-3 -10 8 0.29 0.07
3 -10 -8 0.16 0.03
-3 -10 8 0.13 0.04
3 -10 -8 0.24 0.05
-3 10 8 0.13 0.03
-3 10 8 0.15 0.05
3 10 -8 0.17 0.04
3 10 -8 0.16 0.04
-3 10 8 0.16 0.04
-2 -10 8 6.39 0.24
2 -10 -8 6.29 0.23
2 -10 -8 6.48 0.22
-2 -10 8 5.99 0.24
-2 10 8 6.45 0.23
-2 10 8 6.23 0.23
-1 -10 8 0.49 0.07
-1 -10 8 0.32 0.08
1 -10 -8 0.38 0.05
1 -10 -8 0.3 0.06
1 10 -8 0.35 0.09
-1 10 8 0.3 0.09
-1 10 8 0.46 0.08
1 10 -8 0.27 0.09
0 -10 8 28.12 0.85
0 -10 -8 29.79 0.82
0 -10 8 27.13 0.86
0 -10 8 27.13 0.92
0 -10 8 29.11 0.82
0 -10 -8 29.65 0.84
0 -10 8 27.32 0.91
0 -10 8 29.13 0.89
0 10 -8 29.43 0.97
0 10 8 28.18 0.83
0 10 -8 28.62 0.9
0 10 -8 27.64 0.88
0 10 8 28.88 0.87
0 10 8 27.73 0.84
0 10 8 27.93 0.87
1 -10 8 14.95 0.52
1 -10 8 15.35 0.5
-1 -10 -8 15.12 0.47
1 -10 8 14.46 0.52
-1 -10 -8 15.64 0.53
1 -10 8 16.24 0.5
-1 10 -8 15.83 0.5
-1 10 -8 14.38 0.55
-1 10 -8 15.63 0.51
-1 10 -8 15.82 0.51
2 -10 8 3.6 0.15
-2 -10 -8 3.73 0.14
2 -10 8 3.7 0.14
-2 -10 -8 3.81 0.15
2 -10 8 3.9 0.17
2 10 8 4.15 0.16
-2 10 -8 3.66 0.16
2 10 8 3.91 0.16
2 10 8 3.89 0.16
-2 10 -8 4.06 0.19
-3 -10 -8 6.83 0.23
3 -10 8 6.88 0.26
-3 -10 -8 6.8 0.27
-3 -10 -8 6.97 0.22
3 -10 8 6.71 0.23
3 -10 8 6.8 0.27
3 -10 8 6.71 0.22
3 10 8 7.09 0.24
-3 10 -8 7.05 0.25
3 10 8 6.73 0.24
3 10 8 6.87 0.24
-3 10 -8 6.93 0.28
-4 -10 -8 0.74 0.06
-4 -10 -8 0.59 0.09
4 -10 8 0.7 0.06
4 -10 8 0.68 0.07
4 10 8 0.66 0.12
4 10 8 0.46 0.08
-4 10 -8 0.42 0.11
-4 10 -8 0.46 0.09
4 10 8 0.71 0.09
-5 -10 -8 0.28 0.08
-5 -10 -8 0.31 0.05
5 -10 8 0.38 0.05
5 -10 8 0.27 0.08
-5 10 -8 0.43 0.09
-5 10 -8 0.46 0.12
-6 -10 -8 0.27 0.06
-6 -10 -8 0.15 0.02
6 10 8 0.26 0.08
7 -11 -8 1.42 0.07
-7 -11 8 1.42 0.08
7 -11 -8 1.39 0.09
-7 11 8 1.2 0.08
6 -11 -8 1.74 0.08
-6 -11 8 1.49 0.18
6 11 -8 1.79 0.11
-6 11 8 1.72 0.1
-5 -11 8 0.73 0.08
5 -11 -8 0.89 0.09
5 -11 -8 0.83 0.09
5 -11 -8 0.91 0.06
-5 -11 8 0.84 0.08
-5 -11 8 0.66 0.15
-5 11 8 0.77 0.08
-5 11 8 0.87 0.08
-5 11 8 0.93 0.09
5 11 -8 0.82 0.1
-4 -11 8 0.41 0.07
4 -11 -8 0.37 0.08
4 -11 -8 0.35 0.08
4 -11 -8 0.39 0.06
-4 -11 8 0.44 0.07
4 11 -8 0.34 0.06
4 11 -8 0.39 0.09
-4 11 8 0.42 0.08
-4 11 8 0.37 0.07
-3 -11 8 8.83 0.28
3 -11 -8 9.16 0.29
-3 -11 8 8.9 0.33
-3 -11 8 8.74 0.3
3 -11 -8 9.08 0.28
-3 11 8 8.92 0.3
-3 11 8 8.89 0.3
3 11 -8 8.82 0.3
-3 11 8 9.05 0.3
-3 11 8 8.95 0.31
3 11 -8 8.74 0.32
2 -11 -8 1.5 0.07
-2 -11 8 1.41 0.08
-2 -11 8 1.51 0.09
2 11 -8 1.26 0.11
2 11 -8 1.69 0.11
-2 11 8 1.39 0.1
-2 11 8 1.25 0.1
-2 11 8 1.65 0.1
-1 -11 8 5.63 0.19
1 -11 -8 5.88 0.2
-1 -11 8 5.32 0.22
-1 -11 8 5.57 0.2
-1 -11 8 5.59 0.23
-1 -11 8 5.03 0.24
-1 11 8 5.42 0.21
-1 11 8 5.76 0.21
1 11 -8 5.31 0.24
1 11 -8 5.48 0.22
0 -11 8 2.07 0.12
0 -11 8 2.09 0.1
0 -11 8 2.09 0.09
0 -11 -8 2 0.11
0 11 8 2.13 0.12
0 11 -8 1.78 0.13
0 11 -8 1.68 0.17
0 11 -8 2.05 0.15
0 11 8 2.18 0.11
1 -11 8 20.41 0.66
-1 -11 -8 20.78 0.6
1 -11 8 21.59 0.63
1 -11 8 20.3 0.61
1 11 8 19.91 0.64
-1 11 -8 20.58 0.72
1 11 8 20.94 0.64
1 11 8 20.81 0.62
2 -11 8 0.97 0.11
-2 -11 -8 1.04 0.07
-2 -11 -8 1.13 0.11
2 -11 8 1.32 0.08
-2 -11 -8 1.07 0.09
2 -11 8 1.25 0.08
2 11 8 1.34 0.1
2 11 8 1.32 0.1
2 11 8 1.32 0.09
-2 11 -8 1.01 0.1
3 -11 8 10.09 0.31
-3 -11 -8 9.62 0.29
3 -11 8 9.3 0.35
-3 -11 -8 9.58 0.31
-3 -11 -8 9.76 0.35
3 -11 8 9.73 0.29
3 -11 8 8.93 0.34
3 11 8 9.71 0.32
3 11 8 9.24 0.31
-3 11 -8 9.16 0.33
3 11 8 9.85 0.32
-3 11 -8 9.24 0.36
4 -11 8 1.4 0.08
-4 -11 -8 1.42 0.09
-4 -11 -8 1.38 0.07
4 -11 8 1.51 0.09
-4 -11 -8 1.24 0.1
4 11 8 1.21 0.1
-4 11 -8 1.13 0.1
-4 11 -8 1.21 0.13
4 11 8 1.2 0.1
-5 -11 -8 0.32 0.08
5 -11 8 0.51 0.07
-5 -11 -8 0.41 0.05
5 11 8 0.4 0.07
5 11 8 0.3 0.09
-5 11 -8 0.42 0.09
6 -11 8 0.08 0.03
-6 -11 -8 0.06 0.03
-6 -11 -8 0.01 0.02
6 11 8 0.03 0.03
-6 11 -8 -0.02 0.03
6 11 8 0.11 0.05
7 -12 -8 0.73 0.05
-7 -12 8 0.81 0.07
-7 12 8 0.61 0.07
6 -12 -8 1.03 0.1
-6 12 8 0.84 0.08
5 -12 -8 1.09 0.07
-5 -12 8 1.07 0.09
-5 -12 8 1.07 0.09
5 -12 -8 1.06 0.1
5 -12 -8 1.15 0.1
-5 12 8 1.11 0.09
5 12 -8 1.01 0.1
-5 12 8 1.02 0.09
-5 12 8 1.11 0.09
4 -12 -8 0.49 0.09
-4 -12 8 0.48 0.07
4 -12 -8 0.41 0.08
4 -12 -8 0.44 0.06
-4 -12 8 0.43 0.07
4 12 -8 0.3 0.08
-4 12 8 0.43 0.08
-4 12 8 0.48 0.07
-4 12 8 0.43 0.08
-3 -12 8 0.98 0.08
-3 -12 8 1.01 0.07
3 -12 -8 0.94 0.07
3 -12 -8 0.82 0.09
-3 12 8 1.02 0.09
-3 12 8 0.89 0.09
3 12 -8 0.9 0.1
3 12 -8 0.96 0.1
-3 12 8 1.09 0.09
-3 12 8 0.85 0.09
-2 -12 8 0.02 0.03
2 -12 -8 0.01 0.05
2 -12 -8 0.04 0.03
2 -12 -8 0.03 0.02
-2 -12 8 -0.01 0.02
2 12 -8 0.03 0.03
-2 12 8 -0.01 0.04
2 12 -8 0.03 0.03
-2 12 8 0 0.03
-2 12 8 -0.01 0.02
1 -12 -8 2.68 0.13
1 -12 -8 2.59 0.1
-1 -12 8 2.48 0.1
-1 -12 8 2.55 0.12
1 -12 -8 2.64 0.12
1 12 -8 2.33 0.14
-1 12 8 2.58 0.12
-1 12 8 2.47 0.13
1 12 -8 2.34 0.15
-1 12 8 2.22 0.13
1 12 -8 2.54 0.13
0 -12 8 1.13 0.07
0 -12 8 1.35 0.09
0 -12 -8 1.14 0.07
0 12 8 1.31 0.09
0 12 -8 1.34 0.13
0 12 8 1.1 0.1
0 12 -8 1.24 0.13
0 12 -8 0.99 0.11
0 12 8 1.15 0.1
-1 -12 -8 9.01 0.28
1 -12 8 9.33 0.3
1 -12 8 9.19 0.28
1 -12 8 8.96 0.32
-1 -12 -8 8.95 0.29
1 12 8 9.05 0.31
-1 12 -8 8.72 0.32
1 12 8 9.27 0.3
-1 12 -8 9.04 0.32
1 12 8 9.29 0.31
-1 12 -8 9.06 0.35
2 -12 8 4.54 0.17
2 -12 8 4.6 0.2
-2 -12 -8 4.72 0.21
-2 -12 -8 4.5 0.16
-2 -12 -8 4.52 0.17
2 12 8 4.96 0.18
2 12 8 4.66 0.19
2 12 8 4.68 0.19
-2 12 -8 4.64 0.19
3 -12 8 5.93 0.19
3 -12 8 6.06 0.21
-3 -12 -8 5.91 0.24
-3 -12 -8 5.88 0.21
-3 -12 -8 6.04 0.19
3 12 8 5.74 0.21
-3 12 -8 5.75 0.25
-3 12 -8 5.69 0.23
3 12 8 5.91 0.22
4 -12 8 0.07 0.02
4 -12 8 0.02 0.02
-4 -12 -8 0.08 0.03
-4 -12 -8 0.04 0.02
-4 -12 -8 0.05 0.03
-4 12 -8 0.03 0.04
4 12 8 0.06 0.03
-4 12 -8 0 0.03
4 12 8 0.03 0.03
-5 -12 -8 0.34 0.09
-5 -12 -8 0.32 0.05
5 12 8 0.26 0.07
-6 -12 -8 0.45 0.07
-6 -12 -8 0.32 0.06
6 12 8 0.5 0.08
6 -13 -8 0.04 0.02
-6 13 8 0.04 0.03
-6 13 8 0.05 0.03
-5 -13 8 0.25 0.06
-5 -13 8 0.38 0.07
5 -13 -8 0.39 0.06
5 13 -8 0.39 0.08
-5 13 8 0.25 0.07
-5 13 8 0.36 0.07
-5 13 8 0.39 0.08
4 -13 -8 0.58 0.09
4 -13 -8 0.57 0.06
-4 -13 8 0.53 0.07
-4 -13 8 0.56 0.07
-4 13 8 0.66 0.08
4 13 -8 0.4 0.11
-4 13 8 0.65 0.08
4 13 -8 0.46 0.09
-4 13 8 0.52 0.08
-3 -13 8 0.44 0.07
3 -13 -8 0.4 0.06
-3 13 8 0.41 0.07
-3 13 8 0.54 0.08
-3 13 8 0.39 0.08
3 13 -8 0.39 0.09
-3 13 8 0.31 0.08
2 -13 -8 3.03 0.11
-2 -13 8 2.96 0.13
-2 -13 8 2.89 0.12
2 13 -8 2.79 0.14
-2 13 8 3.09 0.14
-2 13 8 3.05 0.14
-2 13 8 3.09 0.14
-2 13 8 3.17 0.14
2 13 -8 3.07 0.16
1 -13 -8 1.1 0.11
1 -13 -8 1.01 0.06
-1 -13 8 0.99 0.07
-1 13 8 0.82 0.09
1 13 -8 0.91 0.09
-1 13 8 0.84 0.09
1 13 -8 0.82 0.11
-1 13 8 0.96 0.1
0 -13 8 3.6 0.13
0 -13 8 3.3 0.16
0 -13 -8 3.38 0.12
0 13 -8 3.56 0.15
0 13 -8 3.18 0.18
0 13 -8 3.08 0.16
0 13 8 3.33 0.15
0 13 8 3.36 0.15
0 13 8 3.12 0.15
0 13 -8 3.12 0.18
1 -13 8 0.89 0.07
1 -13 8 0.95 0.1
-1 -13 -8 0.81 0.06
1 -13 8 0.94 0.08
1 13 8 0.7 0.1
1 13 8 0.72 0.08
-1 13 -8 0.74 0.11
1 13 8 0.8 0.09
-1 13 -8 0.64 0.11
-1 13 -8 0.77 0.13
2 -13 8 12.45 0.38
-2 -13 -8 12.55 0.45
2 -13 8 12.03 0.43
2 -13 8 12.94 0.39
-2 -13 -8 12.73 0.39
-2 -13 -8 12.75 0.38
2 13 8 12.41 0.4
2 13 8 12.06 0.41
-2 13 -8 12.97 0.46
-2 13 -8 12.16 0.43
-2 13 -8 12.45 0.42
2 13 8 12.81 0.41
3 -13 8 1.42 0.09
3 -13 8 1.45 0.08
-3 -13 -8 1.25 0.12
-3 -13 -8 1.53 0.1
-3 -13 -8 1.44 0.07
-3 13 -8 1.34 0.11
3 13 8 1.39 0.09
-3 13 -8 1.37 0.13
-4 -13 -8 0.56 0.09
-4 -13 -8 0.58 0.05
4 -13 8 0.6 0.06
4 -13 8 0.4 0.06
4 13 8 0.47 0.08
-4 13 -8 0.52 0.12
-4 13 -8 0.35 0.09
5 -13 8 0.88 0.07
-5 -13 -8 0.75 0.09
-5 -13 -8 0.75 0.06
-5 -13 -8 0.85 0.09
5 13 8 0.86 0.08
-5 13 -8 0.73 0.09
-5 13 -8 0.8 0.12
-6 -13 -8 0.34 0.05
-6 -13 -8 0.38 0.07
6 -13 8 0.44 0.06
6 -14 -8 0.05 0.02
-6 14 8 0.07 0.03
-6 14 8 0.02 0.03
-5 -14 8 0.65 0.07
-5 14 8 0.72 0.08
-5 14 8 0.91 0.09
-4 -14 8 0.33 0.06
-4 -14 8 0.35 0.07
4 -14 -8 0.31 0.06
4 -14 -8 0.42 0.06
4 14 -8 0.4 0.09
-4 14 8 0.32 0.07
-4 14 8 0.38 0.08
-4 14 8 0.38 0.08
-3 -14 8 2.16 0.1
-3 -14 8 1.93 0.1
3 -14 -8 2.07 0.09
-3 14 8 2.03 0.11
3 14 -8 1.89 0.12
-3 14 8 1.96 0.11
3 14 -8 1.84 0.13
-3 14 8 2.18 0.11
-3 14 8 2.14 0.12
-2 -14 8 0.97 0.07
-2 -14 8 1.02 0.08
2 -14 -8 1.07 0.06
-2 14 8 0.86 0.09
-2 14 8 0.9 0.09
2 14 -8 0.8 0.11
2 14 -8 0.88 0.13
-2 14 8 0.94 0.08
2 14 -8 0.88 0.09
-2 14 8 0.95 0.09
-1 -14 8 2.45 0.1
1 -14 -8 2.24 0.14
1 -14 -8 2.54 0.1
-1 -14 8 2.31 0.14
-1 -14 8 2.67 0.12
-1 14 8 2.45 0.13
-1 14 8 2.4 0.12
-1 14 8 2.45 0.13
1 14 -8 2.28 0.15
1 14 -8 2.45 0.14
1 14 -8 2.68 0.13
0 -14 8 1.46 0.09
0 -14 8 1.32 0.08
0 -14 -8 1.34 0.07
0 14 8 1.48 0.1
0 14 -8 1.35 0.11
0 14 -8 1.25 0.1
0 14 8 1.26 0.1
0 14 8 1.36 0.1
-1 -14 -8 5.8 0.19
1 -14 8 5.58 0.2
1 -14 8 5.65 0.23
1 -14 8 5.71 0.19
-1 14 -8 5.99 0.25
1 14 8 5.71 0.21
-1 14 -8 5.69 0.22
1 14 8 5.63 0.21
-1 14 -8 5.49 0.32
1 14 8 5.69 0.21
2 -14 8 4.89 0.17
2 -14 8 4.62 0.21
-2 -14 -8 4.94 0.17
2 -14 8 5.42 0.18
-2 14 -8 5.32 0.23
2 14 8 4.91 0.2
-2 14 -8 4.75 0.21
2 14 8 5.03 0.19
-2 14 -8 5.15 0.2
2 14 8 5.27 0.19
-3 -14 -8 2.51 0.15
-3 -14 -8 2.52 0.1
3 -14 8 2.42 0.1
-3 14 -8 2.32 0.13
3 14 8 2.71 0.13
-3 14 -8 2.75 0.17
3 14 8 2.62 0.12
-4 -14 -8 0.9 0.06
4 -14 8 0.94 0.06
4 -14 8 0.69 0.07
-4 -14 -8 0.65 0.11
4 14 8 0.73 0.07
4 14 8 0.76 0.08
5 -14 8 2.1 0.09
5 -14 8 2.3 0.1
-5 -14 -8 2.28 0.13
-5 -14 -8 2.43 0.09
5 14 8 2.2 0.11
5 14 8 2.24 0.11
-5 14 -8 2.4 0.16
5 -15 -8 0.04 0.02
-5 15 8 -0.01 0.04
-5 15 8 0 0.03
-5 15 8 -0.02 0.03
4 -15 -8 0.04 0.02
-4 -15 8 0 0.03
4 -15 -8 0.01 0.07
-4 -15 8 0.02 0.02
4 15 -8 -0.09 0.05
-4 15 8 -0.01 0.02
-4 15 8 -0.05 0.04
-4 15 8 -0.03 0.03
-3 -15 8 0.44 0.07
3 -15 -8 0.35 0.1
-3 -15 8 0.45 0.06
-3 15 8 0.31 0.08
-3 15 8 0.36 0.07
-3 15 8 0.38 0.07
3 15 -8 0.34 0.1
-2 -15 8 0.52 0.06
2 -15 -8 0.59 0.06
-2 -15 8 0.56 0.07
-2 15 8 0.49 0.08
-2 15 8 0.45 0.08
2 15 -8 0.4 0.11
-2 15 8 0.61 0.08
-2 15 8 0.43 0.09
2 15 -8 0.41 0.09
-1 -15 8 0.89 0.12
-1 -15 8 1 0.08
-1 -15 8 0.94 0.06
1 -15 -8 0.93 0.06
1 15 -8 0.7 0.13
1 15 -8 0.93 0.12
1 15 -8 0.95 0.09
-1 15 8 0.84 0.09
-1 15 8 0.99 0.09
-1 15 8 0.85 0.08
0 -15 8 1.89 0.1
0 -15 -8 1.76 0.08
0 -15 8 1.9 0.08
0 15 -8 1.56 0.13
0 15 8 1.78 0.11
0 15 -8 1.8 0.11
0 15 8 1.7 0.11
0 15 8 1.65 0.1
1 -15 8 0.82 0.08
-1 -15 -8 0.87 0.06
1 15 8 0.95 0.09
-1 15 -8 0.75 0.11
1 15 8 0.71 0.08
-1 15 -8 0.86 0.09
1 15 8 0.78 0.11
-2 -15 -8 1.3 0.08
2 -15 8 1.35 0.07
2 15 8 1.37 0.09
-2 15 -8 1.39 0.11
-2 15 -8 1.57 0.11
2 15 8 1.58 0.1
3 -15 8 1.18 0.07
3 -15 8 1.25 0.08
-3 -15 -8 1.18 0.07
3 15 8 1.1 0.08
3 15 8 1.34 0.09
-3 15 -8 1.23 0.1
-4 -15 -8 0.08 0.04
4 15 8 0.09 0.03
4 15 8 0.1 0.03
-4 15 -8 0.05 0.03
5 -15 8 0.48 0.08
5 15 8 0.42 0.07
-5 15 -8 0.35 0.08
5 -16 -8 0.54 0.06
-5 16 8 0.59 0.07
-5 16 8 0.5 0.07
-4 -16 8 0.33 0.07
4 -16 -8 0.42 0.07
-4 16 8 0.38 0.07
4 16 -8 0.26 0.06
3 -16 -8 0.39 0.11
-3 -16 8 0.57 0.07
-3 -16 8 0.51 0.06
-3 16 8 0.44 0.08
-3 16 8 0.46 0.08
3 16 -8 0.5 0.09
-3 16 8 0.47 0.07
-2 -16 8 0.19 0.06
-2 -16 8 0.07 0.02
2 -16 -8 0.06 0.02
2 16 -8 0.07 0.04
-2 16 8 0.07 0.03
-2 16 8 0.07 0.04
-2 16 8 0.07 0.03
-2 16 8 0.12 0.06
-1 -16 8 0.63 0.05
1 -16 -8 0.56 0.07
-1 -16 8 0.67 0.07
-1 16 8 0.58 0.08
1 16 -8 0.65 0.09
1 16 -8 0.39 0.12
-1 16 8 0.47 0.07
0 -16 8 0.39 0.05
0 -16 8 0.47 0.07
0 -16 -8 0.42 0.06
0 16 8 0.34 0.07
0 16 8 0.46 0.09
0 16 -8 0.42 0.09
1 -16 8 1.72 0.09
-1 -16 -8 1.59 0.08
1 -16 8 1.71 0.08
-1 16 -8 1.72 0.11
1 16 8 1.71 0.1
-1 16 -8 1.48 0.12
-1 16 -8 1.75 0.12
1 16 8 1.69 0.11
1 16 8 1.65 0.12
-2 -16 -8 0.02 0.02
2 -16 8 0.01 0.03
2 -16 8 0.03 0.02
2 16 8 -0.02 0.02
-2 16 -8 0.05 0.03
-2 16 -8 0.06 0.04
2 16 8 -0.01 0.02
3 -16 8 0.59 0.06
-3 -16 -8 0.77 0.06
-3 16 -8 0.69 0.1
3 16 8 0.55 0.07
4 -16 8 2.92 0.11
4 -16 8 3.03 0.12
4 16 8 2.93 0.13
-4 16 -8 2.69 0.14
-4 -17 8 0.06 0.02
-4 -17 8 0.05 0.03
-4 17 8 0.08 0.04
-4 17 8 0.01 0.03
-3 -17 8 0.5 0.07
3 -17 -8 0.6 0.07
3 17 -8 0.34 0.1
-3 17 8 0.53 0.09
-2 -17 8 0.69 0.08
2 -17 -8 0.86 0.08
-2 -17 8 0.83 0.06
2 17 -8 0.64 0.09
-2 17 8 0.64 0.08
-1 -17 8 0.39 0.07
-1 -17 8 0.41 0.05
-1 17 8 0.26 0.07
1 17 -8 0.35 0.07
-1 17 8 0.29 0.08
0 -17 8 0.56 0.06
0 -17 8 0.55 0.07
0 17 8 0.58 0.1
0 17 8 0.57 0.08
-1 -17 -8 0.67 0.07
1 -17 8 0.76 0.06
1 -17 8 0.9 0.08
-1 17 -8 0.71 0.09
1 17 8 0.62 0.07
1 17 8 0.9 0.13
1 17 8 0.75 0.08
2 -17 8 1.45 0.1
-2 -17 -8 1.39 0.08
2 -17 8 1.55 0.08
-2 17 -8 1.53 0.12
2 17 8 1.62 0.1
-3 -17 -8 0.75 0.06
3 17 8 0.72 0.09
-3 17 -8 0.78 0.1
3 17 8 0.57 0.06
-3 17 -8 0.85 0.1
-4 -17 -8 0.42 0.06
4 -17 8 0.45 0.07
4 17 8 0.5 0.08
-4 -18 8 0.01 0.02
-4 -18 8 -0.07 0.04
-4 18 8 -0.03 0.03
-3 -18 8 0.09 0.03
-3 18 8 0.11 0.06
-3 18 8 0.09 0.03
3 18 -8 0.1 0.04
-3 18 8 0.07 0.03
-2 -18 8 0.03 0.03
-2 18 8 0.01 0.03
-2 18 8 0.03 0.03
2 18 -8 0.04 0.03
-2 18 8 0.02 0.03
-1 -18 8 0.64 0.06
-1 -18 8 0.71 0.08
1 18 -8 0.49 0.13
-1 18 8 0.6 0.1
1 -18 8 0.03 0.02
-1 -18 -8 0.04 0.03
-1 18 -8 0.01 0.03
1 18 8 0.01 0.03
-1 18 -8 0.05 0.04
1 18 8 0.03 0.03
2 -18 8 0.25 0.05
2 -18 8 0.35 0.08
-2 -18 -8 0.27 0.07
2 18 8 0.29 0.06
-2 18 -8 0.45 0.11
-2 18 -8 0.45 0.09
3 -18 8 0.35 0.08
3 18 8 0.29 0.06
3 18 8 0.19 0.04
-3 -19 8 0.04 0.02
-3 19 8 -0.03 0.03
-3 19 8 -0.03 0.03
-2 -19 8 0.01 0.03
-2 -19 8 0.02 0.02
2 19 -8 0.08 0.04
-2 19 8 -0.01 0.03
-2 19 8 0.02 0.03
-1 -19 8 1.02 0.1
-1 -19 8 1.14 0.07
-1 19 8 1.03 0.11
-1 19 8 1.13 0.09
1 19 -8 1.04 0.09
0 -19 8 0.48 0.05
0 -19 8 0.61 0.09
0 19 8 0.35 0.08
0 19 -8 0.52 0.08
1 -19 8 0.61 0.1
1 -19 8 0.5 0.05
-1 19 -8 0.35 0.12
-1 19 -8 0.59 0.09
2 -19 8 0.03 0.02
-2 19 -8 0.07 0.05
2 19 8 0.02 0.04
2 19 8 0.08 0.03
-1 20 8 0.24 0.08
1 20 -8 0.33 0.09
-1 20 8 0.32 0.1
0 -20 8 0.32 0.05
0 20 -8 0.28 0.07
0 20 8 0.29 0.07
8 0 -9 -0.01 0.03
8 0 -9 0.04 0.03
-8 0 9 0 0.02
-7 0 9 6.4 0.22
-7 0 9 5.69 0.23
7 0 -9 6.07 0.22
6 0 -9 1.91 0.11
6 0 -9 1.63 0.12
6 0 -9 1.78 0.14
-6 0 9 1.87 0.11
6 0 -9 1.92 0.12
5 0 -9 3.49 0.17
5 0 -9 3.38 0.14
-5 0 9 3.52 0.16
5 0 -9 3.42 0.16
5 0 -9 3.5 0.15
-4 0 9 0.42 0.08
4 0 -9 0.41 0.08
4 0 -9 0.34 0.07
-4 0 9 0.52 0.1
4 0 -9 0.35 0.07
-4 0 9 0.56 0.1
3 0 -9 5.74 0.2
-3 0 9 5.58 0.2
3 0 -9 5.67 0.21
-3 0 9 5.83 0.21
3 0 -9 5.57 0.19
2 0 -9 4.63 0.18
2 0 -9 4.49 0.19
2 0 -9 4.43 0.16
-2 0 9 4.55 0.17
-2 0 9 4.42 0.17
2 0 -9 4.53 0.16
1 0 -9 1.06 0.07
-1 0 9 1.09 0.08
1 0 -9 1.14 0.09
1 0 -9 1.06 0.08
-1 0 9 0.83 0.08
0 0 -9 2.66 0.1
0 0 9 2.41 0.11
0 0 -9 2.77 0.12
0 0 -9 2.57 0.11
0 0 9 2.49 0.11
1 0 9 0.76 0.07
1 0 9 0.88 0.07
-1 0 -9 0.88 0.06
-1 0 -9 0.78 0.08
1 0 9 0.89 0.08
-1 0 -9 0.93 0.06
-1 0 -9 0.71 0.07
-2 0 -9 0.18 0.05
-2 0 -9 0.24 0.06
-2 0 -9 0.22 0.05
2 0 9 0.28 0.07
2 0 9 0.29 0.07
2 0 9 0.31 0.07
3 0 9 1.99 0.1
3 0 9 1.83 0.1
-3 0 -9 1.86 0.09
-4 0 -9 6.42 0.21
-4 0 -9 6.46 0.24
-4 0 -9 6.67 0.24
-4 0 -9 6.56 0.22
4 0 9 6.75 0.23
-4 0 -9 6.41 0.26
4 0 9 6.11 0.22
-5 0 -9 0.19 0.05
-5 0 -9 0.13 0.03
-5 0 -9 0.07 0.04
6 0 9 0.67 0.08
-6 0 -9 0.77 0.07
-6 0 -9 0.72 0.11
-6 0 -9 0.9 0.09
7 0 9 0.4 0.1
-7 0 -9 0.55 0.08
-7 0 -9 0.68 0.12
-7 0 -9 0.54 0.1
7 0 9 0.58 0.08
8 -1 -9 1.17 0.08
-8 -1 9 1.27 0.09
8 -1 -9 1.21 0.08
8 1 -9 1.05 0.09
-8 1 9 1.31 0.08
8 1 -9 1.31 0.08
-7 -1 9 0.42 0.08
7 -1 -9 0.5 0.07
7 -1 -9 0.36 0.07
7 1 -9 0.3 0.07
7 1 -9 0.47 0.07
-7 1 9 0.35 0.07
6 -1 -9 12.59 0.39
6 -1 -9 13.1 0.42
-6 -1 9 12.87 0.41
6 -1 -9 12.76 0.4
6 -1 -9 12.15 0.44
6 1 -9 12.06 0.42
6 1 -9 12.57 0.43
-6 1 9 12.9 0.41
6 1 -9 12.72 0.4
5 -1 -9 2.09 0.11
5 -1 -9 1.81 0.13
-5 -1 9 2.2 0.12
5 -1 -9 1.96 0.12
-5 1 9 2 0.12
5 1 -9 1.93 0.11
5 1 -9 1.81 0.13
5 1 -9 1.94 0.11
5 1 -9 1.88 0.11
4 -1 -9 1.49 0.1
4 -1 -9 1.42 0.09
4 -1 -9 1.55 0.09
-4 -1 9 1.63 0.11
4 1 -9 1.52 0.1
-4 1 9 1.69 0.11
-4 1 9 1.46 0.11
4 1 -9 1.55 0.09
3 -1 -9 3.92 0.16
3 -1 -9 3.73 0.17
-3 -1 9 3.8 0.15
3 -1 -9 4.01 0.14
-3 -1 9 4.11 0.16
3 -1 -9 4.2 0.16
-3 -1 9 4.11 0.17
3 1 -9 4.1 0.14
-3 1 9 3.96 0.16
3 1 -9 3.8 0.15
3 1 -9 4.06 0.17
3 1 -9 3.95 0.16
-3 1 9 3.93 0.15
-2 -1 9 4.66 0.17
-2 -1 9 4.56 0.17
-2 -1 9 4.29 0.19
2 -1 -9 4.66 0.18
2 -1 -9 4.71 0.17
2 -1 -9 4.42 0.15
-2 1 9 4.28 0.17
2 1 -9 4.45 0.19
2 1 -9 4.47 0.18
2 1 -9 4.44 0.15
-2 1 9 4.37 0.17
2 1 -9 4.44 0.16
-1 -1 9 5.67 0.2
1 -1 -9 5.77 0.21
1 -1 -9 5.54 0.22
1 -1 -9 5.96 0.2
1 -1 -9 5.79 0.19
-1 -1 9 5.89 0.2
-1 -1 9 5.87 0.22
1 1 -9 5.72 0.2
-1 1 9 5.81 0.2
1 1 -9 6.13 0.23
-1 1 9 5.67 0.2
-1 1 9 5.7 0.2
1 1 -9 5.65 0.21
1 1 -9 5.64 0.19
0 -1 -9 1.35 0.09
0 -1 9 1.47 0.08
0 -1 9 1.25 0.08
0 -1 -9 1.54 0.09
0 -1 -9 1.46 0.07
0 -1 -9 1.46 0.08
0 1 9 1.45 0.09
0 1 9 1.27 0.09
0 1 -9 1.51 0.09
0 1 -9 1.52 0.07
0 1 9 1.41 0.08
0 1 9 1.46 0.09
0 1 -9 1.49 0.08
-1 -1 -9 0.59 0.06
1 -1 9 0.58 0.08
1 -1 9 0.55 0.06
-1 -1 -9 0.7 0.07
-1 -1 -9 0.53 0.07
-1 -1 -9 0.56 0.05
1 -1 9 0.49 0.06
1 1 9 0.7 0.07
-1 1 -9 0.64 0.07
-1 1 -9 0.64 0.07
1 1 9 0.46 0.06
-1 1 -9 0.63 0.06
-1 1 -9 0.69 0.06
2 -1 9 1.12 0.08
-2 -1 -9 0.96 0.1
-2 -1 -9 1.17 0.07
-2 -1 -9 0.94 0.09
-2 -1 -9 1.16 0.07
2 -1 9 1.25 0.09
2 -1 9 1.1 0.08
2 1 9 1.13 0.08
-2 1 -9 1.12 0.09
-2 1 -9 1.06 0.07
-2 1 -9 1.05 0.07
2 1 9 1.24 0.09
-3 -1 -9 0.71 0.06
3 -1 9 0.72 0.08
3 1 9 0.69 0.08
3 1 9 0.62 0.09
-3 1 -9 0.62 0.07
-3 1 -9 0.7 0.07
-4 -1 -9 2.56 0.15
-4 -1 -9 2.75 0.12
-4 -1 -9 2.55 0.11
4 -1 9 2.83 0.13
-4 -1 -9 2.6 0.15
4 -1 9 2.7 0.12
-4 1 -9 2.49 0.14
-4 1 -9 2.66 0.14
-4 1 -9 2.61 0.15
-4 1 -9 2.68 0.12
4 1 9 2.95 0.13
-5 -1 -9 0.07 0.04
-5 -1 -9 0.06 0.03
5 -1 9 0.06 0.04
-5 -1 -9 0.1 0.03
-5 -1 -9 0 0.04
5 -1 9 0.07 0.03
-5 -1 -9 0.14 0.05
-5 1 -9 0.04 0.03
5 1 9 0.08 0.03
-5 1 -9 0.1 0.03
-6 -1 -9 1.24 0.08
6 -1 9 1.2 0.09
-6 -1 -9 1.11 0.1
-6 -1 -9 1.16 0.13
-6 1 -9 1.17 0.11
-6 1 -9 1.13 0.1
6 1 9 1.19 0.09
-7 -1 -9 0.89 0.1
7 -1 9 0.72 0.08
-7 -1 -9 0.74 0.14
-7 -1 -9 0.6 0.07
-7 1 -9 0.5 0.1
-7 1 -9 0.69 0.09
7 1 9 0.68 0.09
-7 1 -9 0.9 0.1
7 1 9 0.78 0.08
8 -2 -9 1.18 0.08
-8 -2 9 1.16 0.08
8 -2 -9 1.18 0.09
-8 2 9 1.23 0.08
-7 -2 9 1.25 0.09
7 -2 -9 1.46 0.09
7 -2 -9 1.34 0.09
-7 2 9 1.4 0.11
7 2 -9 1.23 0.09
-7 2 9 1.14 0.09
7 2 -9 1.19 0.09
7 2 -9 1.12 0.15
6 -2 -9 0.75 0.09
6 -2 -9 0.72 0.07
-6 -2 9 0.88 0.12
6 -2 -9 0.75 0.08
-6 -2 9 0.66 0.1
6 2 -9 0.67 0.08
6 2 -9 0.7 0.09
-6 2 9 0.66 0.08
-5 -2 9 4.1 0.18
-5 -2 9 4.56 0.19
5 -2 -9 4.19 0.16
5 -2 -9 4.42 0.18
5 -2 -9 4.46 0.2
5 -2 -9 4.64 0.17
-5 2 9 4.78 0.18
5 2 -9 4.77 0.18
5 2 -9 4.28 0.19
5 2 -9 4.24 0.18
-4 -2 9 8.84 0.31
4 -2 -9 9.44 0.29
4 -2 -9 9.07 0.31
4 -2 -9 9.38 0.3
4 2 -9 9.34 0.32
4 2 -9 8.97 0.3
4 2 -9 9.02 0.33
-4 2 9 9.34 0.31
-3 -2 9 1.15 0.12
3 -2 -9 1.46 0.08
-3 -2 9 1.36 0.1
3 -2 -9 1.29 0.08
-3 -2 9 1.37 0.09
3 -2 -9 1.27 0.1
-3 -2 9 1.26 0.1
3 2 -9 1.38 0.08
3 2 -9 1.54 0.09
-3 2 9 1.3 0.09
3 2 -9 1.46 0.1
-3 2 9 1.41 0.1
3 2 -9 1.33 0.08
-2 -2 9 2.31 0.11
2 -2 -9 2.2 0.1
-2 -2 9 1.98 0.12
2 -2 -9 2.1 0.09
-2 -2 9 2.1 0.1
2 -2 -9 2.07 0.11
2 2 -9 2 0.12
2 2 -9 2.03 0.11
-2 2 9 2.29 0.11
2 2 -9 1.99 0.11
2 2 -9 2.19 0.1
-2 2 9 2.12 0.1
2 2 -9 2.07 0.09
1 -2 -9 0.84 0.07
1 -2 -9 0.83 0.06
1 -2 -9 0.77 0.06
1 -2 -9 0.86 0.09
-1 -2 9 0.8 0.07
1 2 -9 0.93 0.08
1 2 -9 0.73 0.06
-1 2 9 0.93 0.08
-1 2 9 0.89 0.07
-1 2 9 0.72 0.07
1 2 -9 0.89 0.07
0 -2 -9 4.64 0.19
0 -2 -9 4.54 0.17
0 -2 9 4.4 0.16
0 -2 -9 4.49 0.16
0 -2 -9 4.58 0.15
0 -2 9 4.24 0.17
0 2 -9 4.64 0.16
0 2 -9 4.78 0.18
0 2 9 4.62 0.17
0 2 -9 4.64 0.19
0 2 -9 4.54 0.15
0 2 9 4.46 0.17
0 2 9 4.72 0.17
-1 -2 -9 12.83 0.44
-1 -2 -9 12.44 0.39
1 -2 9 12.84 0.4
-1 -2 -9 12.33 0.41
-1 -2 -9 12.42 0.37
1 -2 9 12.59 0.39
1 2 9 12.03 0.39
-1 2 -9 12.4 0.37
1 2 9 12.32 0.39
-1 2 -9 12.43 0.41
-1 2 -9 12.5 0.39
1 2 9 12.37 0.4
-1 2 -9 12.78 0.44
-2 -2 -9 2.65 0.11
2 -2 9 2.71 0.11
2 -2 9 2.54 0.12
-2 -2 -9 2.79 0.1
2 -2 9 2.75 0.13
-2 -2 -9 2.67 0.14
2 2 9 2.43 0.12
-2 2 -9 2.91 0.14
-2 2 -9 2.49 0.12
-2 2 -9 2.74 0.13
-2 2 -9 2.55 0.11
2 2 9 2.8 0.12
-2 2 -9 2.62 0.11
-3 -2 -9 0.94 0.07
3 -2 9 1.19 0.09
3 -2 9 1.02 0.13
-3 -2 -9 1.23 0.08
-3 2 -9 1.13 0.11
-3 2 -9 1.06 0.09
3 2 9 1.14 0.09
-3 2 -9 1.12 0.08
-4 -2 -9 2.01 0.1
-4 -2 -9 2.21 0.1
-4 -2 -9 1.82 0.14
4 -2 9 1.99 0.12
4 -2 9 1.77 0.17
-4 -2 -9 2.06 0.13
4 -2 9 2.09 0.11
-4 2 -9 2.07 0.13
-4 2 -9 2.13 0.11
-4 2 -9 2.11 0.13
4 2 9 2.17 0.11
-5 -2 -9 0.53 0.07
-5 -2 -9 0.48 0.09
5 -2 9 0.45 0.09
-5 -2 -9 0.69 0.13
5 -2 9 0.51 0.08
-5 -2 -9 0.73 0.1
-5 -2 -9 0.62 0.09
-5 2 -9 0.41 0.07
5 2 9 0.58 0.08
6 -2 9 0.61 0.09
-6 -2 -9 0.68 0.09
-6 -2 -9 0.51 0.07
-6 -2 -9 0.61 0.16
-6 2 -9 0.47 0.1
-6 2 -9 0.44 0.08
-6 2 -9 0.71 0.1
6 2 9 0.54 0.07
-7 -2 -9 0.28 0.08
-7 2 -9 0.45 0.1
7 2 9 0.32 0.08
8 -3 -9 0.42 0.06
-8 -3 9 0.43 0.06
8 -3 -9 0.46 0.08
8 3 -9 0.49 0.07
-8 3 9 0.53 0.08
-7 -3 9 3.11 0.14
7 -3 -9 2.65 0.13
7 -3 -9 3.11 0.13
7 -3 -9 3.11 0.13
-7 3 9 2.73 0.12
-7 3 9 3.04 0.15
7 3 -9 2.86 0.17
7 3 -9 2.65 0.13
6 -3 -9 1.01 0.09
-6 -3 9 0.9 0.1
6 -3 -9 0.89 0.07
-6 -3 9 0.92 0.1
6 -3 -9 1.02 0.09
6 3 -9 0.88 0.11
6 3 -9 0.85 0.08
-6 3 9 1 0.09
-6 3 9 0.86 0.09
6 3 -9 0.88 0.09
5 -3 -9 5.71 0.21
-5 -3 9 5.78 0.22
5 -3 -9 6.07 0.24
5 -3 -9 5.4 0.22
5 -3 -9 5.66 0.2
5 3 -9 5.46 0.23
5 3 -9 5.61 0.21
5 3 -9 5.52 0.22
-5 3 9 5.84 0.21
-5 3 9 5.75 0.21
4 -3 -9 6.2 0.25
-4 -3 9 6.16 0.23
-4 -3 9 6.63 0.24
4 -3 -9 6.85 0.23
4 -3 -9 6.66 0.24
4 -3 -9 6.39 0.22
-4 3 9 6.72 0.23
4 3 -9 6.72 0.23
-4 3 9 6.85 0.24
4 3 -9 6.82 0.24
4 3 -9 6.31 0.25
-3 -3 9 4.02 0.16
-3 -3 9 3.73 0.16
3 -3 -9 3.76 0.16
3 -3 -9 4.03 0.15
-3 3 9 3.67 0.16
3 3 -9 3.9 0.15
-3 3 9 3.92 0.15
3 3 -9 4.19 0.16
3 3 -9 3.94 0.17
-3 3 9 3.92 0.16
2 -3 -9 2.26 0.1
2 -3 -9 2.35 0.12
2 -3 -9 2.23 0.09
-2 -3 9 2.4 0.12
-2 -3 9 2.17 0.11
2 3 -9 2.3 0.1
2 3 -9 2.14 0.13
-2 3 9 2.21 0.11
2 3 -9 2.27 0.12
2 3 -9 2.23 0.11
-2 3 9 2.11 0.1
2 3 -9 2.28 0.11
-2 3 9 2.23 0.11
-1 -3 9 2.76 0.12
1 -3 -9 2.78 0.14
-1 -3 9 2.98 0.13
1 -3 -9 2.94 0.13
1 -3 -9 3.1 0.12
1 -3 -9 2.83 0.11
1 3 -9 2.79 0.12
-1 3 9 2.95 0.12
-1 3 9 2.89 0.12
1 3 -9 3.1 0.13
-1 3 9 2.68 0.12
0 -3 -9 0.62 0.07
0 -3 -9 0.45 0.05
0 -3 9 0.5 0.06
0 -3 -9 0.43 0.07
0 -3 9 0.53 0.06
0 -3 9 0.42 0.07
0 -3 -9 0.57 0.05
0 3 -9 0.59 0.06
0 3 9 0.58 0.07
0 3 -9 0.61 0.06
0 3 9 0.64 0.06
0 3 -9 0.59 0.07
0 3 9 0.6 0.07
-1 -3 -9 4.34 0.15
-1 -3 -9 4.31 0.17
1 -3 9 4.58 0.17
-1 -3 -9 4.2 0.18
-1 -3 -9 4.53 0.16
1 -3 9 4.1 0.16
1 3 9 4.62 0.16
-1 3 -9 4.35 0.16
-1 3 -9 4.18 0.15
1 3 9 4.3 0.17
1 3 9 4.32 0.16
-1 3 -9 4.51 0.17
-1 3 -9 4.31 0.18
-2 -3 -9 5.88 0.19
2 -3 9 5.83 0.21
-2 -3 -9 5.31 0.22
-2 -3 -9 5.9 0.2
2 -3 9 5.81 0.2
2 -3 9 5.4 0.22
-2 -3 -9 5.47 0.22
2 3 9 5.24 0.21
-2 3 -9 6.08 0.2
-2 3 -9 5.25 0.19
-2 3 -9 5.87 0.21
2 3 9 6.05 0.2
-2 3 -9 5.78 0.21
-2 3 -9 5.72 0.23
2 3 9 5.73 0.2
3 -3 9 9.84 0.31
-3 -3 -9 9.39 0.29
3 -3 9 9.05 0.34
-3 -3 -9 9.66 0.35
-3 -3 -9 9.65 0.31
3 -3 9 9.56 0.32
3 3 9 9.44 0.32
-3 3 -9 9.41 0.36
3 3 9 10 0.31
-3 3 -9 9.57 0.32
-3 3 -9 9.46 0.31
4 -3 9 4.54 0.23
-4 -3 -9 4.83 0.2
-4 -3 -9 4.82 0.17
4 -3 9 4.94 0.19
4 -3 9 4.7 0.18
-4 -3 -9 4.65 0.16
-4 -3 -9 4.96 0.21
-4 3 -9 4.33 0.2
-4 3 -9 4.6 0.17
4 3 9 4.9 0.18
-4 3 -9 4.67 0.21
-4 3 -9 4.54 0.19
4 3 9 5.06 0.18
-5 -3 -9 1.28 0.08
-5 -3 -9 1.14 0.09
5 -3 9 1.33 0.1
-5 -3 -9 1.39 0.15
5 -3 9 1.32 0.09
5 -3 9 1.35 0.22
-5 -3 -9 1.44 0.11
-5 3 -9 1.04 0.11
5 3 9 1.3 0.09
-5 3 -9 1.23 0.09
6 -3 9 1.24 0.1
-6 -3 -9 1.16 0.19
6 -3 9 1.27 0.13
-6 -3 -9 1.34 0.1
-6 -3 -9 1.25 0.08
6 3 9 1.26 0.09
6 3 9 1.45 0.1
-6 3 -9 1.24 0.11
-6 3 -9 1.25 0.11
7 -3 9 0.15 0.03
-7 -3 -9 0.21 0.07
-7 -3 -9 0.22 0.07
7 3 9 0.1 0.03
8 -4 -9 0.88 0.08
-8 -4 9 0.88 0.07
8 -4 -9 0.93 0.07
8 4 -9 1.01 0.08
7 -4 -9 0.46 0.07
7 -4 -9 0.49 0.07
-7 -4 9 0.44 0.07
7 -4 -9 0.39 0.07
7 4 -9 0.5 0.12
6 -4 -9 1.54 0.1
-6 -4 9 1.65 0.11
6 -4 -9 1.59 0.09
6 -4 -9 1.48 0.1
6 4 -9 1.52 0.1
-6 4 9 1.55 0.11
6 4 -9 1.48 0.1
-6 4 9 1.49 0.1
6 4 -9 1.52 0.12
5 -4 -9 0.61 0.09
5 -4 -9 0.72 0.08
5 -4 -9 0.73 0.07
-5 -4 9 0.6 0.09
-5 -4 9 0.87 0.1
5 4 -9 0.73 0.1
5 4 -9 0.74 0.09
5 4 -9 0.66 0.09
-5 4 9 0.62 0.08
4 -4 -9 8.78 0.28
-4 -4 9 8.93 0.31
-4 -4 9 8.47 0.29
4 -4 -9 8.83 0.31
4 -4 -9 8.73 0.3
4 -4 -9 8.35 0.29
-4 4 9 9.07 0.29
-4 4 9 8.85 0.3
4 4 -9 8.59 0.3
4 4 -9 8.76 0.29
4 4 -9 8.85 0.32
-3 -4 9 4.79 0.17
3 -4 -9 4.55 0.17
-3 -4 9 4.11 0.19
-3 4 9 4.73 0.17
-3 4 9 4.41 0.17
3 4 -9 4.48 0.18
3 4 -9 4.71 0.17
-3 4 9 4.46 0.17
2 -4 -9 1.75 0.08
2 -4 -9 1.91 0.09
2 -4 -9 1.75 0.11
-2 -4 9 1.88 0.1
-2 -4 9 2.05 0.11
2 4 -9 1.96 0.12
2 4 -9 1.92 0.11
-2 4 9 1.95 0.1
-2 4 9 1.89 0.1
-2 4 9 1.79 0.09
2 4 -9 1.87 0.09
-1 -4 9 5.83 0.21
1 -4 -9 5.91 0.22
1 -4 -9 5.85 0.19
-1 -4 9 5.5 0.2
1 4 -9 5.68 0.2
1 4 -9 5.76 0.2
1 4 -9 6.18 0.23
-1 4 9 5.81 0.2
-1 4 9 6.17 0.2
1 4 -9 5.96 0.22
-1 4 9 6.11 0.21
1 4 -9 5.81 0.21
0 -4 -9 3.38 0.14
0 -4 9 3.08 0.13
0 -4 -9 3.28 0.12
0 -4 -9 3.1 0.12
0 -4 9 2.99 0.13
0 -4 9 3.1 0.13
0 -4 -9 3.07 0.15
0 -4 9 3.11 0.14
0 4 -9 3.14 0.13
0 4 -9 3.46 0.15
0 4 9 3.11 0.13
0 4 9 3.3 0.13
0 4 -9 3.39 0.13
0 4 9 3.41 0.13
1 -4 9 0.79 0.14
-1 -4 -9 0.72 0.06
1 -4 9 0.77 0.07
1 -4 9 0.77 0.07
-1 -4 -9 0.64 0.09
1 -4 9 0.94 0.09
1 -4 9 0.76 0.08
-1 -4 -9 0.75 0.06
1 4 9 0.83 0.07
1 4 9 0.81 0.07
-1 4 -9 0.82 0.08
1 4 9 0.68 0.08
-1 4 -9 0.76 0.07
-1 4 -9 0.67 0.08
-2 -4 -9 1.37 0.14
2 -4 9 1.65 0.1
2 -4 9 1.57 0.12
2 -4 9 1.44 0.09
2 -4 9 1.22 0.18
-2 -4 -9 1.28 0.1
-2 -4 -9 1.52 0.08
-2 -4 -9 1.45 0.08
2 4 9 1.38 0.1
-2 4 -9 1.41 0.11
2 4 9 1.62 0.09
-2 4 -9 1.61 0.09
3 -4 9 5.26 0.23
-3 -4 -9 5.69 0.19
3 -4 9 5.42 0.21
3 -4 9 5.23 0.19
-3 -4 -9 5.6 0.18
-3 4 -9 5.23 0.21
3 4 9 5.73 0.21
3 4 9 5.86 0.2
-3 4 -9 5.31 0.23
-3 4 -9 5.37 0.19
4 -4 9 1 0.08
-4 -4 -9 0.85 0.15
-4 -4 -9 0.95 0.08
-4 -4 -9 0.96 0.1
4 -4 9 1.08 0.1
4 -4 9 0.91 0.15
4 4 9 1.13 0.09
-4 4 -9 0.84 0.08
-4 4 -9 0.9 0.1
4 4 9 1.04 0.08
5 -4 9 0.48 0.08
-5 -4 -9 0.55 0.08
-5 -4 -9 0.45 0.07
-5 -4 -9 0.41 0.07
5 -4 9 0.47 0.09
5 4 9 0.32 0.08
5 4 9 0.48 0.08
-5 4 -9 0.26 0.09
-6 -4 -9 0.43 0.06
-6 -4 -9 0.61 0.08
6 -4 9 0.63 0.09
-6 -4 -9 0.37 0.12
-6 4 -9 0.46 0.11
-6 4 -9 0.39 0.09
6 4 9 0.59 0.08
-7 -4 -9 0.35 0.06
-7 -4 -9 0.22 0.07
8 5 -9 0.07 0.04
-7 -5 9 0.13 0.05
7 -5 -9 0.11 0.03
-7 5 9 0.1 0.03
-7 5 9 0.18 0.05
-7 5 9 0.17 0.05
7 5 -9 0.13 0.06
-6 -5 9 2.47 0.14
6 -5 -9 2.4 0.13
6 -5 -9 2.61 0.12
6 -5 -9 2.51 0.11
6 5 -9 2.39 0.13
6 5 -9 2.41 0.13
6 5 -9 2.4 0.14
-6 5 9 2.33 0.12
-6 5 9 2.45 0.12
-5 -5 9 1.86 0.13
5 -5 -9 1.84 0.09
5 -5 -9 1.74 0.1
5 -5 -9 1.94 0.11
-5 -5 9 1.66 0.11
-5 5 9 1.66 0.1
5 5 -9 1.65 0.12
-5 5 9 1.82 0.12
5 5 -9 1.63 0.11
5 5 -9 1.93 0.11
4 -5 -9 5.67 0.2
-4 -5 9 5.27 0.2
4 -5 -9 5.6 0.22
4 -5 -9 5.37 0.19
-4 -5 9 5.63 0.22
4 5 -9 5.44 0.2
-4 5 9 5.41 0.2
-4 5 9 5.6 0.2
-4 5 9 5.53 0.2
4 5 -9 5.5 0.21
4 5 -9 5.53 0.22
3 -5 -9 21.53 0.71
-3 -5 9 20.89 0.73
-3 5 9 23.58 0.69
3 5 -9 22.9 0.7
2 -5 -9 3.88 0.17
2 -5 -9 4.07 0.15
-2 -5 9 3.91 0.15
2 -5 -9 3.96 0.14
-2 -5 9 3.86 0.15
-2 -5 9 4.39 0.17
-2 -5 9 3.81 0.17
2 5 -9 3.95 0.15
-2 5 9 4.06 0.16
-2 5 9 4.15 0.16
-2 5 9 4.18 0.15
2 5 -9 4.13 0.17
-2 5 9 4.05 0.16
2 5 -9 4.21 0.18
2 5 -9 3.96 0.17
1 -5 -9 1.25 0.07
-1 -5 9 1.22 0.08
1 -5 -9 1.18 0.08
-1 5 9 1.3 0.08
1 5 -9 1.31 0.11
1 5 -9 1.27 0.09
-1 5 9 1.18 0.08
1 5 -9 1.28 0.08
1 5 -9 1.42 0.1
-1 5 9 1.31 0.08
0 -5 9 0.79 0.07
0 -5 9 0.96 0.09
0 -5 -9 0.81 0.06
0 -5 -9 0.71 0.1
0 -5 -9 0.83 0.06
0 -5 9 0.78 0.13
0 -5 -9 0.79 0.07
0 -5 9 0.77 0.07
0 -5 9 0.72 0.07
0 -5 9 0.84 0.08
0 5 -9 0.68 0.09
0 5 -9 0.84 0.07
0 5 9 0.99 0.08
0 5 -9 0.84 0.08
0 5 9 0.89 0.07
1 -5 9 0.34 0.07
1 -5 9 0.43 0.14
-1 -5 -9 0.25 0.05
1 -5 9 0.29 0.06
-1 -5 -9 0.22 0.05
1 -5 9 0.24 0.07
-1 5 -9 0.27 0.08
1 5 9 0.32 0.06
-1 5 -9 0.23 0.06
2 -5 9 13.37 0.43
2 -5 9 12.25 0.39
-2 -5 -9 13.51 0.46
2 -5 9 11.89 0.47
-2 5 -9 12.95 0.46
2 5 9 13.41 0.41
2 5 9 12.33 0.42
-3 -5 -9 1.93 0.1
-3 -5 -9 1.95 0.09
3 -5 9 2.02 0.1
-3 -5 -9 1.95 0.12
3 -5 9 1.61 0.14
3 -5 9 1.87 0.12
-3 5 -9 1.6 0.13
3 5 9 1.69 0.11
-3 5 -9 1.77 0.11
3 5 9 1.83 0.12
-3 5 -9 1.69 0.14
3 5 9 1.89 0.1
-3 5 -9 1.71 0.1
-4 -5 -9 0.62 0.06
4 -5 9 0.62 0.09
-4 -5 -9 0.54 0.07
-4 -5 -9 0.6 0.09
4 -5 9 0.57 0.07
4 5 9 0.53 0.08
-4 5 -9 0.38 0.09
4 5 9 0.53 0.07
-4 5 -9 0.41 0.08
5 -5 9 1.34 0.09
5 -5 9 1.39 0.11
-5 -5 -9 1.27 0.08
-5 -5 -9 1.26 0.08
-5 -5 -9 1.33 0.1
5 5 9 1.41 0.09
6 -5 9 0.11 0.04
-6 -5 -9 0.23 0.06
-6 -5 -9 0.04 0.04
6 -5 9 0.14 0.04
-6 5 -9 0.09 0.03
-6 5 -9 0.12 0.04
-7 -5 -9 0.07 0.03
-7 5 -9 0.03 0.02
7 5 9 0.02 0.03
-7 -6 9 0.67 0.1
7 -6 -9 0.53 0.07
7 -6 -9 0.62 0.08
-7 -6 9 0.65 0.09
7 -6 -9 0.62 0.06
7 6 -9 0.74 0.11
-7 6 9 0.53 0.08
7 6 -9 0.59 0.08
6 -6 -9 0.75 0.07
6 -6 -9 0.59 0.09
6 -6 -9 0.73 0.06
-6 -6 9 0.68 0.1
-6 6 9 0.59 0.08
-6 6 9 0.57 0.08
6 6 -9 0.77 0.09
-6 6 9 0.78 0.12
6 6 -9 0.64 0.1
6 6 -9 0.52 0.09
5 -6 -9 3.65 0.16
5 -6 -9 3.69 0.15
5 -6 -9 3.8 0.14
-5 -6 9 3.7 0.17
-5 -6 9 3.83 0.16
5 6 -9 3.87 0.16
5 6 -9 3.37 0.17
5 6 -9 3.62 0.16
-5 6 9 3.55 0.16
-5 6 9 3.59 0.16
-5 6 9 3.66 0.15
-5 6 9 3.71 0.16
4 -6 -9 0.75 0.07
-4 -6 9 0.61 0.08
-4 -6 9 0.79 0.1
4 -6 -9 0.69 0.08
4 6 -9 0.55 0.09
4 6 -9 0.76 0.1
-4 6 9 0.63 0.09
4 6 -9 0.65 0.09
-4 6 9 0.66 0.08
-4 6 9 0.79 0.08
-3 -6 9 16.54 0.52
-3 -6 9 16.64 0.54
3 -6 -9 17.41 0.5
-3 6 9 16.97 0.51
3 6 -9 17.04 0.56
2 -6 -9 8.73 0.27
-2 -6 9 8.07 0.3
-2 -6 9 8.23 0.27
-2 -6 9 7.89 0.28
2 -6 -9 8.11 0.26
2 -6 -9 8.1 0.29
2 6 -9 8.24 0.32
-2 6 9 8.1 0.28
2 6 -9 8.63 0.3
-2 6 9 8.26 0.27
-2 6 9 8.42 0.28
-2 6 9 8.22 0.27
2 6 -9 8.38 0.27
-1 -6 9 4.84 0.18
-1 -6 9 4.87 0.18
-1 -6 9 5.13 0.2
-1 -6 9 5.11 0.2
1 -6 -9 5.11 0.17
1 -6 -9 5.12 0.18
-1 6 9 5.32 0.19
-1 6 9 5.37 0.19
-1 6 9 5.32 0.19
1 6 -9 5.28 0.19
1 6 -9 5.23 0.2
-1 6 9 4.94 0.18
0 -6 9 1.67 0.1
0 -6 -9 1.71 0.12
0 -6 9 1.79 0.09
0 -6 9 1.7 0.1
0 -6 9 1.73 0.09
0 -6 9 1.56 0.11
0 -6 -9 1.8 0.09
0 -6 -9 1.74 0.08
0 -6 -9 1.78 0.1
0 -6 9 1.64 0.15
0 6 -9 1.76 0.1
0 6 9 1.77 0.1
0 6 -9 1.71 0.11
0 6 -9 1.63 0.11
0 6 9 1.92 0.1
0 6 9 1.73 0.09
1 -6 9 0.98 0.07
-1 -6 -9 1 0.07
1 -6 9 0.95 0.09
1 -6 9 1.1 0.15
-1 -6 -9 1.12 0.07
1 -6 9 1.03 0.1
1 -6 9 1.14 0.09
-1 6 -9 0.86 0.11
-1 6 -9 0.92 0.08
1 6 9 0.88 0.08
1 6 9 1.1 0.07
1 6 9 1.1 0.08
-2 -6 -9 16 0.51
2 -6 9 16.09 0.55
-2 -6 -9 16.89 0.49
2 -6 9 16.72 0.5
2 -6 9 17.22 0.51
-2 6 -9 17.19 0.59
3 -6 9 1.02 0.08
3 -6 9 0.98 0.1
3 -6 9 1.03 0.09
-3 -6 -9 1.21 0.07
-3 -6 -9 1.11 0.08
-3 6 -9 1.03 0.1
3 6 9 1.21 0.1
3 6 9 1.22 0.08
-3 6 -9 0.99 0.09
-3 6 -9 0.91 0.14
-3 6 -9 1.22 0.12
-3 6 -9 1.14 0.12
4 -6 9 3.07 0.15
-4 -6 -9 3.01 0.12
-4 -6 -9 2.96 0.15
-4 -6 -9 2.91 0.12
4 6 9 2.91 0.14
4 6 9 3.09 0.13
-4 6 -9 2.84 0.15
4 6 9 2.82 0.16
-4 6 -9 2.99 0.14
-5 -6 -9 0.51 0.08
-5 -6 -9 0.42 0.06
-5 -6 -9 0.37 0.06
5 -6 9 0.45 0.1
5 -6 9 0.44 0.07
5 6 9 0.39 0.07
5 6 9 0.53 0.08
-5 6 -9 0.29 0.08
-5 6 -9 0.5 0.11
6 -6 9 0.12 0.04
6 6 9 0.1 0.03
-6 6 -9 0.07 0.04
-6 6 -9 0.07 0.03
-6 6 -9 0.09 0.04
-7 -6 -9 0.03 0.03
-7 -6 -9 0.04 0.03
-7 6 -9 -0.01 0.02
7 6 9 -0.06 0.03
7 -7 -9 0.08 0.03
7 -7 -9 0.08 0.02
-7 -7 9 0.09 0.04
7 -7 -9 0.09 0.04
-7 -7 9 0.07 0.03
-7 7 9 0.12 0.04
7 7 -9 0.07 0.04
-6 -7 9 0.49 0.09
6 -7 -9 0.5 0.09
6 -7 -9 0.48 0.07
6 7 -9 0.54 0.09
6 7 -9 0.41 0.08
-6 7 9 0.44 0.08
5 -7 -9 0.84 0.07
5 -7 -9 0.79 0.09
5 -7 -9 0.87 0.08
-5 -7 9 0.88 0.11
-5 7 9 0.87 0.09
5 7 -9 0.85 0.1
-5 7 9 0.75 0.08
5 7 -9 0.75 0.09
5 7 -9 0.81 0.11
-5 7 9 0.79 0.08
-5 7 9 0.7 0.09
4 -7 -9 4.35 0.15
-4 -7 9 3.85 0.16
4 -7 -9 4.24 0.2
4 -7 -9 4.23 0.17
-4 -7 9 4.17 0.19
4 -7 -9 4.13 0.16
-4 7 9 3.9 0.16
-4 7 9 4.15 0.16
4 7 -9 4.17 0.18
-4 7 9 4.14 0.16
4 7 -9 4.17 0.18
-4 7 9 3.97 0.17
4 7 -9 3.82 0.17
-3 -7 9 5.88 0.21
-3 -7 9 6.14 0.22
-3 -7 9 6.38 0.24
3 -7 -9 6.23 0.23
3 -7 -9 6.16 0.22
3 -7 -9 6.16 0.2
3 7 -9 5.64 0.24
-3 7 9 6.12 0.21
3 7 -9 6.22 0.24
-3 7 9 6.29 0.22
-3 7 9 6.28 0.22
3 7 -9 6.03 0.22
2 -7 -9 30.26 0.99
-2 -7 9 30.33 0.9
-2 7 9 32.98 0.93
-1 -7 9 12.24 0.39
1 -7 -9 12.25 0.4
-1 -7 9 11.03 0.39
1 -7 -9 12.38 0.36
1 -7 -9 12.21 0.37
-1 -7 9 11.84 0.36
-1 -7 9 11.86 0.37
-1 -7 9 11.34 0.41
1 7 -9 12.3 0.43
1 7 -9 11.99 0.4
-1 7 9 12.15 0.38
-1 7 9 11.64 0.38
1 7 -9 11.58 0.38
-1 7 9 11.97 0.39
-1 7 9 11.05 0.37
0 -7 9 6.57 0.24
0 -7 -9 6.54 0.22
0 -7 -9 6.68 0.26
0 -7 9 6.44 0.21
0 -7 9 6.03 0.22
0 -7 -9 6.57 0.21
0 -7 9 6.2 0.24
0 7 -9 6.74 0.25
0 7 9 6.46 0.23
0 7 9 6.77 0.23
0 7 -9 6.36 0.27
0 7 -9 6.79 0.26
0 7 9 6.71 0.22
0 7 -9 6.69 0.23
1 -7 9 2.33 0.14
1 -7 9 2.34 0.11
1 -7 9 2.63 0.13
1 -7 9 2.61 0.14
1 7 9 2.77 0.12
-1 7 -9 2.39 0.16
1 7 9 2.61 0.11
-1 7 -9 2.31 0.12
2 -7 9 8.14 0.27
-2 -7 -9 8.49 0.3
2 -7 9 8 0.28
-2 -7 -9 8.17 0.25
2 -7 9 8.01 0.3
2 -7 9 7.99 0.26
-2 7 -9 7.91 0.31
2 7 9 7.71 0.26
2 7 9 8.04 0.27
2 7 9 7.69 0.28
3 -7 9 4.23 0.16
3 -7 9 4.2 0.18
-3 -7 -9 4.28 0.15
-3 -7 -9 4.34 0.18
-3 -7 -9 4.28 0.16
3 -7 9 4.12 0.15
-3 7 -9 4.18 0.17
3 7 9 4.02 0.17
3 7 9 3.86 0.17
3 7 9 4.4 0.16
-3 7 -9 3.74 0.2
-3 7 -9 3.82 0.19
-4 -7 -9 1.44 0.08
4 -7 9 1.4 0.09
4 -7 9 1.31 0.11
-4 -7 -9 1.17 0.1
-4 -7 -9 1.26 0.08
4 7 9 1.31 0.12
4 7 9 1.51 0.09
4 7 9 1.25 0.1
-4 7 -9 1.28 0.12
-4 7 -9 1.39 0.1
-5 -7 -9 0.13 0.03
5 -7 9 0.12 0.03
-5 7 -9 0.1 0.04
-5 7 -9 0.05 0.04
-5 7 -9 0.09 0.03
-6 -7 -9 1.24 0.08
6 -7 9 1.22 0.12
-6 -7 -9 1.38 0.09
6 -7 9 1.34 0.08
-6 -7 -9 1.25 0.09
6 7 9 1.36 0.09
-6 7 -9 1.45 0.13
-6 7 -9 1.22 0.09
7 -8 -9 0.46 0.06
7 -8 -9 0.32 0.06
7 -8 -9 0.41 0.08
-7 -8 9 0.4 0.09
-7 -8 9 0.48 0.1
-6 -8 9 0.74 0.11
6 -8 -9 1.03 0.07
6 -8 -9 0.88 0.08
6 -8 -9 0.94 0.08
-6 8 9 0.92 0.08
6 8 -9 0.94 0.1
-5 -8 9 1.32 0.09
5 -8 -9 1.36 0.1
-5 -8 9 1.35 0.13
5 -8 -9 1.35 0.1
5 -8 -9 1.46 0.08
-5 8 9 1.32 0.1
-5 8 9 1.57 0.1
5 8 -9 1.32 0.12
-5 8 9 1.4 0.1
5 8 -9 1.28 0.11
4 -8 -9 6.95 0.26
4 -8 -9 7.67 0.23
4 -8 -9 7.38 0.25
-4 -8 9 7.29 0.25
-4 -8 9 7.28 0.27
-4 -8 9 6.99 0.24
4 8 -9 7.22 0.27
-4 8 9 7.38 0.25
-4 8 9 6.84 0.24
-4 8 9 7.09 0.26
4 8 -9 7.21 0.26
-3 -8 9 4.57 0.2
-3 -8 9 4.28 0.17
3 -8 -9 4.88 0.19
3 -8 -9 4.48 0.16
3 -8 -9 4.71 0.17
-3 -8 9 4.74 0.18
-3 8 9 4.62 0.18
3 8 -9 4.69 0.19
3 8 -9 4.48 0.19
-3 8 9 4.82 0.18
-3 8 9 4.83 0.19
-3 8 9 4.36 0.17
3 8 -9 4.86 0.2
-2 -8 9 24.12 0.75
2 -8 -9 24.77 0.71
-2 -8 9 23.78 0.73
-2 -8 9 22.71 0.77
-2 -8 9 25.22 0.71
-2 8 9 24.03 0.73
-2 8 9 24.56 0.72
-2 8 9 24.88 0.75
-2 8 9 23.36 0.75
2 8 -9 24.53 0.78
2 8 -9 24.97 0.83
-1 -8 9 13.09 0.41
-1 -8 9 12.49 0.44
-1 -8 9 12.8 0.43
-1 8 9 13.43 0.42
-1 8 9 13.21 0.4
1 8 -9 12.74 0.41
1 8 -9 12.4 0.48
0 -8 9 15.32 0.5
0 -8 9 15.77 0.53
0 -8 9 16.22 0.54
0 -8 9 16.57 0.53
0 8 9 16.72 0.5
0 8 -9 16.18 0.58
1 -8 9 30.38 0.94
-1 -8 -9 29.9 0.88
1 -8 9 28.05 0.87
-1 -8 -9 30.98 0.86
1 8 9 30.83 0.91
-1 8 -9 28.08 0.89
-2 -8 -9 3.65 0.16
2 -8 9 3.35 0.17
-2 -8 -9 3.46 0.13
2 -8 9 3.21 0.13
-2 -8 -9 3.42 0.14
2 -8 9 3.12 0.14
2 8 9 3.47 0.15
-2 8 -9 3.53 0.18
2 8 9 3.26 0.15
-2 8 -9 3.45 0.17
-2 8 -9 3.46 0.18
2 8 9 3.31 0.13
-3 -8 -9 8.56 0.26
3 -8 9 7.97 0.26
-3 -8 -9 8.46 0.31
3 -8 9 8.32 0.29
3 -8 9 8.33 0.27
-3 -8 -9 8.37 0.27
3 8 9 7.93 0.28
-3 8 -9 7.46 0.31
3 8 9 7.93 0.28
3 8 9 8.07 0.26
-3 8 -9 7.77 0.29
4 -8 9 1.67 0.11
4 -8 9 1.83 0.14
-4 -8 -9 1.88 0.12
4 -8 9 1.9 0.1
-4 -8 -9 1.84 0.1
-4 -8 -9 1.95 0.09
4 8 9 2 0.12
4 8 9 1.98 0.1
-4 8 -9 2.01 0.13
4 8 9 1.65 0.11
-5 -8 -9 0.43 0.06
-5 -8 -9 0.42 0.08
-5 -8 -9 0.54 0.06
5 -8 9 0.53 0.07
-5 8 -9 0.47 0.13
-5 8 -9 0.38 0.07
-6 -8 -9 0.45 0.07
-6 -8 -9 0.42 0.07
6 -8 9 0.52 0.07
-6 -8 -9 0.46 0.06
6 8 9 0.36 0.08
-6 8 -9 0.6 0.14
-7 -9 9 0.3 0.08
7 -9 -9 0.11 0.05
-7 -9 9 0.12 0.04
7 -9 -9 0.2 0.06
-7 9 9 0.14 0.04
6 -9 -9 0.35 0.05
-6 9 9 0.3 0.07
6 9 -9 0.35 0.08
5 -9 -9 0.28 0.08
5 -9 -9 0.22 0.07
-5 -9 9 0.33 0.06
5 9 -9 0.21 0.04
-5 9 9 0.26 0.08
5 9 -9 0.44 0.11
-5 9 9 0.39 0.08
4 -9 -9 0.25 0.07
-4 -9 9 0.46 0.11
-4 -9 9 0.28 0.08
-4 -9 9 0.21 0.07
-4 9 9 0.25 0.08
-4 9 9 0.33 0.08
4 9 -9 0.29 0.09
-3 -9 9 5.24 0.19
3 -9 -9 5.39 0.23
-3 -9 9 5.67 0.2
3 -9 -9 5.89 0.19
-3 -9 9 5.53 0.23
-3 9 9 5.39 0.21
-3 9 9 5.84 0.21
3 9 -9 5.53 0.21
3 9 -9 5.67 0.23
-3 9 9 5.7 0.21
-2 -9 9 0.64 0.07
2 -9 -9 0.78 0.06
-2 -9 9 0.71 0.11
-2 -9 9 0.72 0.08
2 -9 -9 0.67 0.09
2 -9 -9 0.74 0.07
-2 9 9 0.58 0.09
-2 9 9 0.6 0.09
-2 9 9 0.75 0.09
2 9 -9 0.88 0.09
-2 9 9 0.73 0.09
-1 -9 9 20.84 0.69
1 -9 -9 21.24 0.69
1 -9 -9 22.36 0.63
-1 -9 9 22.37 0.64
-1 -9 9 21.63 0.66
1 -9 -9 22.46 0.65
-1 9 9 21.38 0.67
1 9 -9 21.54 0.75
-1 9 9 21.59 0.65
1 9 -9 20.87 0.7
-1 9 9 20.97 0.66
-1 9 9 22.1 0.67
0 -9 -9 7.97 0.25
0 -9 -9 7.8 0.26
0 -9 9 8.24 0.27
0 -9 9 8.14 0.25
0 9 -9 7.88 0.29
0 9 9 7.82 0.28
0 9 9 8.04 0.28
0 9 -9 8.34 0.32
0 9 9 7.91 0.27
-1 -9 -9 21.51 0.72
-1 -9 -9 22.09 0.63
-1 -9 -9 20.94 0.62
1 -9 9 20.89 0.64
1 -9 9 20.22 0.68
1 -9 9 20.89 0.62
1 -9 9 20.9 0.66
-1 9 -9 21.52 0.68
1 9 9 20.77 0.65
1 9 9 21.3 0.63
1 9 9 20.71 0.65
-1 9 -9 20.81 0.73
-2 -9 -9 7.28 0.28
2 -9 9 7.33 0.27
-2 -9 -9 7.39 0.23
-2 -9 -9 7.47 0.24
2 -9 9 7.15 0.23
2 -9 9 7.31 0.25
-2 9 -9 7.06 0.27
2 9 9 7.23 0.25
2 9 9 7.04 0.26
2 9 9 7.18 0.25
-2 9 -9 6.99 0.29
3 -9 9 0.11 0.03
-3 -9 -9 0.09 0.03
3 -9 9 0.1 0.04
-3 -9 -9 0.22 0.05
3 -9 9 0.1 0.03
-3 -9 -9 0.2 0.06
3 9 9 0.13 0.05
3 9 9 0.13 0.03
3 9 9 0.13 0.03
-4 -9 -9 0.6 0.07
-4 -9 -9 0.53 0.09
-4 -9 -9 0.71 0.06
4 -9 9 0.64 0.13
4 -9 9 0.53 0.07
4 -9 9 0.53 0.08
4 9 9 0.63 0.09
-4 9 -9 0.48 0.11
4 9 9 0.52 0.08
4 9 9 0.59 0.11
-5 -9 -9 1.43 0.09
-5 -9 -9 1.51 0.1
5 -9 9 1.69 0.09
-5 -9 -9 1.65 0.08
5 9 9 1.5 0.1
-6 -9 -9 0.24 0.06
-6 -9 -9 0.38 0.06
-6 -9 -9 0.47 0.07
6 -9 9 0.4 0.06
6 -9 9 0.58 0.17
6 9 9 0.29 0.07
-7 -10 9 1.31 0.09
7 -10 -9 1.21 0.07
6 -10 -9 -0.01 0.04
6 -10 -9 0.05 0.03
-6 -10 9 0.04 0.05
-6 10 9 -0.01 0.04
-5 -10 9 0.31 0.07
5 -10 -9 0.45 0.08
5 -10 -9 0.31 0.08
5 -10 -9 0.31 0.05
-5 -10 9 0.52 0.13
-5 10 9 0.22 0.07
-5 10 9 0.25 0.08
5 10 -9 0.34 0.08
-5 10 9 0.4 0.07
4 -10 -9 0.51 0.06
4 -10 -9 0.48 0.08
-4 -10 9 0.38 0.07
-4 -10 9 0.38 0.08
4 -10 -9 0.26 0.08
-4 -10 9 0.41 0.14
4 10 -9 0.45 0.09
-4 10 9 0.28 0.08
-4 10 9 0.27 0.07
-3 -10 9 0.05 0.04
3 -10 -9 0.01 0.02
-3 -10 9 0 0.02
-3 -10 9 0.03 0.03
3 -10 -9 0.04 0.03
3 10 -9 -0.02 0.03
-3 10 9 0.04 0.03
3 10 -9 0.04 0.04
-3 10 9 0.01 0.03
-3 10 9 0.01 0.04
2 -10 -9 2.71 0.15
-2 -10 9 3.11 0.13
2 -10 -9 3.16 0.13
-2 -10 9 2.88 0.12
2 -10 -9 3.1 0.11
-2 -10 9 2.94 0.16
-2 -10 9 2.77 0.16
-2 10 9 3.1 0.14
2 10 -9 3.08 0.16
2 10 -9 3.12 0.14
-2 10 9 3.16 0.15
-2 10 9 2.89 0.14
1 -10 -9 9.85 0.3
-1 -10 9 9.58 0.3
1 -10 -9 9.95 0.31
-1 -10 9 9.51 0.34
-1 -10 9 9.76 0.32
1 -10 -9 9.58 0.34
1 10 -9 9.6 0.37
-1 10 9 9.56 0.33
1 10 -9 10.03 0.35
-1 10 9 9.64 0.32
-1 10 9 10.28 0.32
-1 10 9 9.45 0.33
0 -10 -9 38.27 1.11
0 -10 9 38.31 1.14
0 -10 9 36.3 1.09
0 -10 -9 37.05 1.09
0 -10 9 36.78 1.12
0 10 -9 39.58 1.27
0 10 9 36.56 1.14
0 10 9 38.17 1.1
0 10 9 37.9 1.15
0 10 -9 39.02 1.19
1 -10 9 5.25 0.18
-1 -10 -9 5.37 0.24
-1 -10 -9 5.06 0.17
1 -10 9 5.23 0.22
-1 -10 -9 4.95 0.19
1 -10 9 5.25 0.19
1 10 9 5.36 0.2
-1 10 -9 5.31 0.23
1 10 9 4.84 0.2
1 10 9 4.89 0.19
-1 10 -9 5.28 0.22
-2 -10 -9 4.6 0.17
-2 -10 -9 4.78 0.16
2 -10 9 4.68 0.16
2 -10 9 5.06 0.22
-2 -10 -9 4.61 0.2
2 -10 9 4.76 0.17
-2 10 -9 4.8 0.22
2 10 9 4.66 0.18
-2 10 -9 4.32 0.2
2 10 9 4.46 0.18
2 10 9 4.83 0.19
-3 -10 -9 1.45 0.07
3 -10 9 1.27 0.09
-3 -10 -9 1.3 0.11
-3 -10 -9 1.39 0.09
3 -10 9 1.42 0.08
-3 10 -9 1.27 0.12
3 10 9 1.38 0.09
3 10 9 1.3 0.11
-3 10 -9 1.2 0.12
3 10 9 1.46 0.1
4 -10 9 0.76 0.15
-4 -10 -9 0.47 0.06
4 -10 9 0.54 0.06
-4 -10 -9 0.57 0.07
4 -10 9 0.33 0.07
-4 -10 -9 0.33 0.09
-4 10 -9 0.41 0.11
4 10 9 0.46 0.08
4 10 9 0.4 0.08
4 10 9 0.62 0.14
5 -10 9 0.22 0.06
5 -10 9 0.19 0.06
-5 10 -9 0.12 0.04
5 10 9 0.13 0.05
6 -10 9 0.4 0.06
-6 -10 -9 0.53 0.07
-6 -10 -9 0.44 0.06
6 10 9 0.4 0.07
-6 -11 9 0.96 0.19
6 -11 -9 0.91 0.09
6 11 -9 0.96 0.08
-6 11 9 0.96 0.09
-6 11 9 1.05 0.08
5 -11 -9 1.63 0.11
-5 -11 9 1.45 0.09
5 -11 -9 1.58 0.11
5 -11 -9 1.71 0.08
-5 11 9 1.66 0.1
5 11 -9 1.61 0.11
-5 11 9 1.5 0.1
-5 11 9 1.71 0.1
-4 -11 9 2.24 0.11
-4 -11 9 2.14 0.11
-4 -11 9 2.46 0.18
4 -11 -9 2.16 0.1
4 -11 -9 2.28 0.12
4 -11 -9 2.12 0.12
-4 11 9 2.31 0.12
-4 11 9 2.47 0.12
4 11 -9 2.12 0.13
-4 11 9 2.17 0.12
-3 -11 9 8.89 0.34
-3 -11 9 8.93 0.3
3 -11 -9 9.13 0.28
3 -11 -9 8.91 0.3
-3 -11 9 9.25 0.29
-3 11 9 8.95 0.31
-3 11 9 9 0.31
3 11 -9 9.64 0.33
3 11 -9 9.47 0.31
-3 11 9 9.51 0.3
2 -11 -9 1.64 0.13
-2 -11 9 1.39 0.15
2 -11 -9 1.77 0.08
-2 -11 9 1.5 0.09
-2 -11 9 1.54 0.13
-2 -11 9 1.61 0.1
2 -11 -9 1.59 0.1
-2 11 9 1.85 0.11
2 11 -9 1.8 0.12
-2 11 9 1.73 0.11
-2 11 9 1.48 0.1
-1 -11 9 7.21 0.28
-1 -11 9 6.88 0.27
1 -11 -9 7.16 0.23
-1 -11 9 7.11 0.23
1 -11 -9 7.19 0.26
-1 -11 9 7.42 0.25
-1 11 9 7.33 0.25
1 11 -9 7.54 0.26
1 11 -9 7.21 0.3
1 11 -9 7.71 0.28
-1 11 9 7.12 0.25
-1 11 9 7.15 0.26
-1 11 9 7.38 0.26
0 -11 -9 9.54 0.3
0 -11 9 9.77 0.29
0 -11 -9 9.31 0.29
0 -11 9 9.88 0.31
0 -11 9 9.28 0.34
0 11 9 9.17 0.32
0 11 -9 9.38 0.34
0 11 9 9.12 0.31
0 11 -9 9.27 0.36
0 11 9 8.9 0.32
-1 -11 -9 11.2 0.33
1 -11 9 10.91 0.38
1 -11 9 11.17 0.35
1 -11 9 11.12 0.34
-1 -11 -9 11.1 0.35
1 11 9 10.85 0.36
1 11 9 11.23 0.37
-1 11 -9 10.36 0.38
-1 11 -9 10.91 0.39
1 11 9 11.13 0.36
-1 11 -9 11.08 0.41
-2 -11 -9 0.83 0.06
2 -11 9 0.78 0.07
-2 -11 -9 0.63 0.12
2 -11 9 0.84 0.16
2 -11 9 0.89 0.08
-2 -11 -9 0.85 0.08
2 11 9 0.77 0.08
-2 11 -9 0.61 0.11
2 11 9 0.94 0.1
-3 -11 -9 0.16 0.03
3 -11 9 0.04 0.06
3 -11 9 0.19 0.06
3 -11 9 0.19 0.06
-3 11 -9 0.13 0.04
3 11 9 0.17 0.05
-3 11 -9 0.13 0.04
-4 -11 -9 0.35 0.08
4 -11 9 0.33 0.06
4 -11 9 0.27 0.07
4 11 9 0.35 0.07
4 11 9 0.26 0.08
-4 11 -9 0.37 0.1
-5 -11 -9 0.42 0.07
-5 -11 -9 0.41 0.07
5 -11 9 0.41 0.06
-5 11 -9 0.47 0.12
5 11 9 0.48 0.11
-5 11 -9 0.4 0.14
5 11 9 0.54 0.07
6 -12 -9 0.59 0.05
-6 12 9 0.5 0.09
-6 12 9 0.41 0.07
5 -12 -9 0.05 0.02
5 -12 -9 0.08 0.05
-5 -12 9 0.05 0.03
5 -12 -9 0.13 0.04
5 12 -9 0.08 0.03
-5 12 9 0.09 0.04
4 -12 -9 1.29 0.1
4 -12 -9 1.37 0.11
-4 -12 9 1.33 0.09
4 -12 -9 1.32 0.08
-4 -12 9 1.3 0.09
-4 12 9 1.23 0.09
-4 12 9 1.42 0.09
4 12 -9 1.21 0.11
-4 12 9 1.33 0.1
-3 -12 9 0.82 0.08
3 -12 -9 1.02 0.07
3 -12 -9 0.79 0.1
-3 -12 9 0.97 0.18
-3 -12 9 0.89 0.08
3 12 -9 1.06 0.11
3 12 -9 1.06 0.1
-3 12 9 0.98 0.08
-3 12 9 0.96 0.09
2 -12 -9 1.31 0.14
2 -12 -9 1.44 0.07
-2 -12 9 1.3 0.09
-2 -12 9 1.44 0.14
2 -12 -9 1.38 0.1
-2 -12 9 1.23 0.08
-2 -12 9 1.25 0.17
-2 12 9 1.34 0.1
-2 12 9 1.32 0.1
2 12 -9 1.46 0.12
2 12 -9 1.39 0.11
-2 12 9 1.16 0.09
-1 -12 9 7.96 0.32
1 -12 -9 8.3 0.28
-1 -12 9 8.63 0.26
1 -12 -9 8.21 0.29
1 -12 -9 8.47 0.26
-1 -12 9 7.93 0.3
-1 -12 9 8.21 0.28
1 12 -9 8.51 0.29
-1 12 9 8.1 0.29
1 12 -9 8.98 0.31
-1 12 9 8.61 0.29
-1 12 9 7.97 0.29
-1 12 9 8.74 0.28
0 -12 -9 0.47 0.06
0 -12 -9 0.65 0.08
0 -12 9 0.45 0.06
0 -12 -9 0.55 0.09
0 12 -9 0.49 0.11
0 12 9 0.57 0.08
0 12 -9 0.57 0.12
0 12 9 0.47 0.09
1 -12 9 5.38 0.19
-1 -12 -9 5.63 0.18
1 -12 9 5.53 0.2
-1 -12 -9 5.53 0.2
-1 12 -9 6.02 0.25
-1 12 -9 5.52 0.23
1 12 9 5.59 0.21
1 12 9 5.96 0.21
1 12 9 5.73 0.21
2 -12 9 1.03 0.07
-2 -12 -9 1.05 0.14
2 -12 9 1.13 0.08
-2 -12 -9 1.17 0.07
2 12 9 1.11 0.09
-2 12 -9 1.07 0.12
2 12 9 1.21 0.09
2 12 9 1.03 0.11
3 -12 9 3.23 0.13
-3 -12 -9 3.37 0.12
3 -12 9 3.16 0.12
-3 -12 -9 3.38 0.14
-3 -12 -9 3.08 0.16
-3 12 -9 2.78 0.17
3 12 9 3.27 0.14
3 12 9 2.99 0.14
-3 12 -9 2.9 0.16
-4 -12 -9 0.05 0.02
4 -12 9 -0.03 0.02
4 -12 9 0.03 0.03
-4 12 -9 0.02 0.05
4 12 9 0.02 0.02
-4 12 -9 0.01 0.04
5 -12 9 0.04 0.02
-5 -12 -9 0.07 0.03
-5 12 -9 0.08 0.04
5 12 9 0.14 0.05
5 12 9 0.07 0.03
6 -13 -9 0.18 0.04
-5 -13 9 0.2 0.06
5 -13 -9 0.2 0.06
-5 13 9 0.24 0.07
-5 13 9 0.22 0.07
4 -13 -9 0.5 0.06
-4 -13 9 0.34 0.07
-4 -13 9 0.61 0.08
4 -13 -9 0.35 0.09
-4 13 9 0.58 0.08
4 13 -9 0.43 0.08
-4 13 9 0.43 0.07
-4 13 9 0.44 0.07
3 -13 -9 0.16 0.05
-3 -13 9 0.05 0.02
-3 -13 9 0.04 0.03
3 13 -9 0 0.03
-3 13 9 0.05 0.02
-3 13 9 0.09 0.05
3 13 -9 0.11 0.04
-2 -13 9 2.81 0.18
-2 -13 9 2.8 0.12
-2 -13 9 2.66 0.11
-2 13 9 2.68 0.14
-2 13 9 2.62 0.13
-2 13 9 2.77 0.13
2 13 -9 2.95 0.15
2 13 -9 2.62 0.14
-2 13 9 2.71 0.13
1 -13 -9 0.15 0.05
1 -13 -9 0.06 0.04
-1 -13 9 0.04 0.05
-1 -13 9 0.16 0.05
1 13 -9 0.08 0.04
-1 13 9 0.03 0.02
-1 13 9 0.08 0.07
1 13 -9 0.07 0.03
-1 13 9 0.06 0.03
0 -13 -9 0.98 0.06
0 -13 9 0.92 0.07
0 -13 9 0.71 0.12
0 -13 9 0.95 0.08
0 -13 -9 1.03 0.1
0 13 9 0.99 0.09
0 13 9 0.76 0.08
0 13 -9 0.93 0.14
0 13 9 0.96 0.09
0 13 -9 1.05 0.09
0 13 -9 0.9 0.11
1 -13 9 2.41 0.1
1 -13 9 2.42 0.16
-1 -13 -9 2.43 0.1
1 -13 9 2.72 0.12
-1 13 -9 2.72 0.16
1 13 9 2.25 0.12
1 13 9 2.63 0.13
-1 13 -9 2.5 0.16
-2 -13 -9 4.82 0.16
2 -13 9 4.61 0.16
2 -13 9 4.75 0.17
-2 -13 -9 4.51 0.18
2 13 9 4.7 0.18
-2 13 -9 4.94 0.22
2 13 9 4.31 0.19
2 13 9 4.95 0.18
-2 13 -9 4.34 0.21
3 -13 9 2.09 0.1
3 -13 9 1.99 0.09
3 13 9 2.18 0.11
3 13 9 1.99 0.11
-3 13 -9 2.17 0.15
-4 -13 -9 0.46 0.09
-4 -13 -9 0.26 0.1
4 -13 9 0.33 0.07
-4 13 -9 0.29 0.1
5 -13 9 0.28 0.05
5 13 9 0.26 0.04
-5 -14 9 1.57 0.09
-5 14 9 1.7 0.09
-5 14 9 1.55 0.09
-5 14 9 1.72 0.09
-4 -14 9 0.86 0.07
-4 -14 9 1.04 0.08
4 -14 -9 0.94 0.11
-4 14 9 1.02 0.09
3 -14 -9 2.77 0.11
-3 -14 9 2.55 0.11
3 -14 -9 2.55 0.13
-3 -14 9 2.74 0.12
-3 14 9 2.73 0.12
3 14 -9 2.46 0.14
3 14 -9 2.41 0.14
-3 14 9 2.7 0.13
-2 -14 9 0.19 0.06
2 -14 -9 0.06 0.02
-2 -14 9 0.08 0.03
-2 14 9 0.09 0.03
-2 14 9 0.06 0.06
-2 14 9 0.04 0.03
2 14 -9 0.09 0.04
2 14 -9 0.06 0.04
-2 14 9 0.06 0.03
-1 -14 9 0.76 0.07
1 -14 -9 0.37 0.12
-1 -14 9 0.64 0.06
1 -14 -9 0.57 0.06
1 14 -9 0.7 0.09
-1 14 9 0.76 0.08
-1 14 9 0.61 0.09
-1 14 9 0.52 0.08
0 -14 -9 1.88 0.09
0 -14 9 2.05 0.1
0 -14 -9 2.01 0.12
0 -14 9 2.02 0.09
0 14 9 1.79 0.11
0 14 9 2.21 0.12
0 14 9 2.07 0.11
0 14 -9 1.95 0.11
1 -14 9 4.14 0.15
-1 -14 -9 4.12 0.15
1 -14 9 4.27 0.16
1 14 9 3.96 0.17
1 14 9 4.53 0.17
-1 14 -9 4.61 0.18
1 14 9 4.29 0.17
-1 14 -9 4.08 0.2
-1 14 -9 4.28 0.2
-2 -14 -9 1.91 0.08
2 -14 9 1.86 0.09
-2 14 -9 1.97 0.11
2 14 9 1.77 0.1
-2 14 -9 1.75 0.15
-2 14 -9 1.86 0.13
3 -14 9 0.15 0.03
-3 14 -9 0.25 0.08
3 14 9 0.26 0.08
-4 -14 -9 0.05 0.05
4 -14 9 0.05 0.03
4 -14 9 -0.02 0.02
4 14 9 0 0.03
-4 14 -9 -0.05 0.04
4 14 9 0.02 0.03
-4 14 -9 -0.01 0.04
-5 15 9 0.02 0.03
-4 -15 9 0.76 0.07
4 -15 -9 0.85 0.06
-4 -15 9 0.97 0.08
4 -15 -9 0.54 0.16
-4 15 9 0.79 0.08
-4 15 9 0.79 0.08
-4 15 9 0.77 0.08
3 -15 -9 1.38 0.11
-3 -15 9 1.25 0.08
3 15 -9 1.12 0.11
-3 15 9 1.31 0.09
-3 15 9 1.15 0.1
-3 15 9 1.47 0.09
-2 -15 9 0.05 0.02
-2 -15 9 0.04 0.02
2 -15 -9 0.04 0.02
-2 15 9 0.05 0.03
-2 15 9 0.02 0.02
2 15 -9 0.1 0.04
2 15 -9 0.06 0.05
1 -15 -9 0.77 0.06
-1 -15 9 0.74 0.06
-1 15 9 0.75 0.08
-1 15 9 0.94 0.09
-1 15 9 0.7 0.07
1 15 -9 0.79 0.09
0 -15 9 1.49 0.07
0 -15 -9 1.32 0.07
0 15 9 1.15 0.1
0 15 9 1.26 0.09
-1 -15 -9 0.08 0.02
1 -15 9 0.07 0.02
1 15 9 0.09 0.05
-1 15 -9 0.12 0.04
1 15 9 0.08 0.03
2 -15 9 2.1 0.09
2 -15 9 2.42 0.1
-2 15 -9 2.48 0.12
-2 15 -9 1.97 0.15
2 15 9 2.33 0.11
2 15 9 2.08 0.1
3 -15 9 0.36 0.07
3 -15 9 0.24 0.06
-3 -15 -9 0.35 0.05
3 15 9 0.36 0.07
-3 15 -9 0.42 0.09
3 15 9 0.22 0.07
-4 -15 -9 0.06 0.02
4 15 9 0.07 0.03
4 15 9 0.07 0.03
-4 16 9 0.77 0.07
-4 16 9 0.82 0.09
-3 -16 9 0.08 0.02
3 -16 -9 0.07 0.02
3 -16 -9 0.05 0.07
-3 -16 9 0.07 0.03
-3 16 9 0.12 0.05
-3 16 9 0.21 0.07
3 16 -9 0.04 0.05
-3 16 9 0.21 0.07
2 -16 -9 0.35 0.06
-2 16 9 0.41 0.08
-2 16 9 0.25 0.07
-2 16 9 0.4 0.07
1 -16 -9 1.11 0.08
-1 -16 9 0.95 0.07
1 16 -9 1.17 0.1
-1 16 9 0.95 0.08
-1 16 9 1 0.09
-1 16 9 1.26 0.1
0 -16 9 0.07 0.03
0 16 9 0.21 0.07
0 16 -9 0.02 0.03
1 -16 9 0.06 0.02
-1 -16 -9 0.05 0.02
1 16 9 0.03 0.03
-1 16 -9 0.07 0.03
1 16 9 0.1 0.05
2 -16 9 0.72 0.07
-2 -16 -9 0.51 0.06
2 16 9 0.72 0.08
-2 16 -9 0.58 0.15
3 -16 9 0.21 0.06
-3 -16 -9 0.26 0.05
3 16 9 0.33 0.06
-3 -17 9 0.3 0.07
-3 17 9 0.23 0.07
2 -17 -9 1.51 0.09
-2 -17 9 1.54 0.09
-2 -17 9 1.48 0.08
2 -17 -9 1.26 0.16
-2 17 9 1.58 0.09
-2 17 9 1.36 0.09
2 17 -9 1.46 0.11
-1 -17 9 0.4 0.07
-1 -17 9 0.35 0.06
1 -17 -9 0.36 0.07
1 17 -9 0.51 0.09
-1 17 9 0.45 0.07
-1 17 9 0.43 0.09
0 -17 -9 0.43 0.07
0 -17 9 0.45 0.05
0 17 9 0.41 0.06
0 17 -9 0.59 0.09
0 17 9 0.43 0.08
1 -17 9 0.33 0.07
1 17 9 0.24 0.07
-1 17 -9 0.35 0.08
2 -17 9 0.07 0.03
-2 17 -9 0.07 0.04
3 -17 9 0.24 0.08
3 17 9 0.27 0.07
-2 -18 9 0.09 0.03
-2 -18 9 0.05 0.02
-2 18 9 0.1 0.04
2 18 -9 0.07 0.04
-2 18 9 0.1 0.03
-1 -18 9 0.53 0.08
-1 -18 9 0.47 0.06
1 18 -9 0.47 0.08
-1 18 9 0.47 0.1
-1 18 9 0.48 0.08
0 -18 9 0.58 0.06
0 -18 9 0.78 0.08
0 18 9 0.61 0.08
0 18 9 0.65 0.07
0 18 -9 0.76 0.08
1 -18 9 1.37 0.07
1 -18 9 1.44 0.09
-1 18 -9 1.48 0.1
1 18 9 1.22 0.07
1 18 9 1.26 0.1
2 -18 9 0.31 0.06
-2 18 -9 0.38 0.08
-7 0 10 3.05 0.13
-7 0 10 3.03 0.15
6 0 -10 7.82 0.3
6 0 -10 7.52 0.26
6 0 -10 7.44 0.27
-6 0 10 7.81 0.26
-5 0 10 1.63 0.11
5 0 -10 1.55 0.1
5 0 -10 1.57 0.1
5 0 -10 1.57 0.11
5 0 -10 1.79 0.13
4 0 -10 1.65 0.1
4 0 -10 1.59 0.09
4 0 -10 1.39 0.11
-4 0 10 1.71 0.11
4 0 -10 1.5 0.11
-3 0 10 3.67 0.15
3 0 -10 3.82 0.15
3 0 -10 3.5 0.15
3 0 -10 3.66 0.14
-3 0 10 3.74 0.16
-2 0 10 1.55 0.11
2 0 -10 1.41 0.11
2 0 -10 1.5 0.09
-2 0 10 1.6 0.1
2 0 -10 1.26 0.15
-1 0 10 10.92 0.36
1 0 -10 11.92 0.41
1 0 -10 11.41 0.35
0 0 -10 1.21 0.07
0 0 10 1.17 0.09
1 0 10 2.05 0.11
1 0 10 2.03 0.11
-1 0 -10 1.81 0.1
2 0 10 0.49 0.08
-2 0 -10 0.42 0.06
-2 0 -10 0.34 0.09
-2 0 -10 0.44 0.08
-2 0 -10 0.42 0.06
-3 0 -10 0.86 0.08
-3 0 -10 0.76 0.1
-3 0 -10 0.78 0.08
-3 0 -10 0.92 0.09
3 0 10 0.81 0.11
3 0 10 0.76 0.11
3 0 10 0.95 0.09
-4 0 -10 0.06 0.04
-4 0 -10 0.06 0.03
-4 0 -10 0.05 0.04
4 0 10 0.03 0.04
4 0 10 0.07 0.03
-5 0 -10 0.1 0.04
5 0 10 0.03 0.03
-5 0 -10 0.06 0.03
5 0 10 0.11 0.04
-5 0 -10 0.05 0.03
-6 0 -10 0.25 0.08
-7 -1 10 4.22 0.16
-7 -1 10 4.2 0.18
7 -1 -10 4.49 0.16
7 1 -10 4.18 0.16
-7 1 10 4.14 0.16
7 1 -10 4.56 0.17
-7 1 10 4.04 0.17
-6 -1 10 3.07 0.14
6 -1 -10 3.13 0.15
6 -1 -10 3.46 0.14
6 1 -10 3.06 0.16
6 1 -10 3.42 0.14
-6 1 10 3.26 0.14
6 1 -10 3.36 0.14
5 -1 -10 6.12 0.25
5 -1 -10 6.38 0.23
-5 -1 10 6.61 0.24
5 -1 -10 6.33 0.24
5 -1 -10 6.14 0.22
5 1 -10 6.12 0.25
5 1 -10 6.01 0.24
-5 1 10 6.63 0.23
5 1 -10 6.67 0.23
4 -1 -10 2.76 0.13
4 -1 -10 2.76 0.12
4 -1 -10 2.76 0.14
4 -1 -10 2.81 0.12
-4 -1 10 2.71 0.14
4 1 -10 2.73 0.13
4 1 -10 2.41 0.12
-4 1 10 2.4 0.14
4 1 -10 2.7 0.14
4 1 -10 2.44 0.13
-4 1 10 2.88 0.14
3 -1 -10 0.45 0.06
-3 -1 10 0.48 0.08
-3 -1 10 0.46 0.09
3 -1 -10 0.58 0.08
-3 -1 10 0.47 0.09
3 -1 -10 0.44 0.07
3 1 -10 0.46 0.07
3 1 -10 0.34 0.08
-3 1 10 0.44 0.08
-3 1 10 0.43 0.08
3 1 -10 0.37 0.07
3 1 -10 0.28 0.09
-2 -1 10 4.54 0.18
-2 -1 10 4.24 0.17
2 -1 -10 4.11 0.18
2 -1 -10 4.61 0.17
2 1 -10 4.32 0.17
2 1 -10 4.07 0.18
-2 1 10 4.42 0.18
2 1 -10 4.16 0.2
-1 -1 10 2.41 0.12
1 1 -10 2.71 0.11
1 1 -10 2.75 0.14
0 -1 -10 1.65 0.08
0 -1 10 1.61 0.1
0 1 10 1.52 0.11
0 1 -10 1.63 0.08
0 1 -10 1.43 0.11
-1 -1 -10 0.06 0.03
1 -1 10 0.04 0.03
-1 -1 -10 0.09 0.03
1 -1 10 0.04 0.02
1 1 10 0.1 0.03
1 1 10 0.04 0.02
-1 1 -10 0.04 0.03
2 -1 10 5.57 0.21
-2 -1 -10 5.75 0.22
-2 -1 -10 5.67 0.19
2 -1 10 6.13 0.21
-2 -1 -10 6.09 0.24
-2 -1 -10 5.98 0.2
2 1 10 6.09 0.21
-2 1 -10 5.72 0.22
2 1 10 6 0.22
-2 1 -10 5.86 0.24
-2 1 -10 5.67 0.19
-2 1 -10 5.8 0.2
-3 -1 -10 0.28 0.07
-3 -1 -10 0.27 0.09
-3 -1 -10 0.35 0.08
-3 -1 -10 0.3 0.06
-3 -1 -10 0.18 0.04
3 -1 10 0.33 0.08
3 -1 10 0.29 0.09
3 -1 10 0.17 0.04
-3 1 -10 0.35 0.09
-3 1 -10 0.12 0.04
-3 1 -10 0.14 0.03
-3 1 -10 0.22 0.06
3 1 10 0.24 0.04
4 -1 10 2.37 0.12
-4 -1 -10 2.22 0.13
-4 -1 -10 2.36 0.13
4 -1 10 2.45 0.14
-4 -1 -10 2.28 0.11
4 -1 10 2.34 0.14
-4 -1 -10 2.56 0.15
-4 -1 -10 2.23 0.11
4 1 10 2.33 0.12
-4 1 -10 2.32 0.11
-4 1 -10 2.22 0.14
-4 1 -10 2.32 0.13
-4 1 -10 2.11 0.13
4 1 10 2.54 0.13
-5 -1 -10 0.88 0.07
5 -1 10 0.73 0.09
-5 -1 -10 1.03 0.14
5 -1 10 0.93 0.14
-5 1 -10 0.88 0.12
-5 1 -10 0.85 0.08
5 1 10 0.92 0.1
5 1 10 0.74 0.08
-5 1 -10 0.88 0.1
6 -1 10 0.52 0.08
-6 -1 -10 0.46 0.08
-6 -1 -10 0.79 0.14
-6 -1 -10 0.65 0.07
6 -1 10 0.56 0.16
6 1 10 0.54 0.08
-6 1 -10 0.71 0.1
-6 1 -10 0.62 0.08
7 -2 -10 0.4 0.06
-7 -2 10 0.49 0.07
-7 2 10 0.31 0.07
7 2 -10 0.54 0.08
-7 2 10 0.32 0.09
7 2 -10 0.36 0.08
6 -2 -10 3.88 0.16
6 -2 -10 4.13 0.16
-6 -2 10 3.71 0.16
6 2 -10 4.09 0.16
6 2 -10 3.97 0.16
6 2 -10 3.81 0.18
-6 2 10 3.7 0.16
-6 2 10 4.04 0.16
5 -2 -10 8.83 0.3
5 -2 -10 9.05 0.29
-5 -2 10 9.51 0.32
5 -2 -10 9.36 0.32
5 -2 -10 9.54 0.33
-5 2 10 8.97 0.31
5 2 -10 8.91 0.3
5 2 -10 8.92 0.31
5 2 -10 9.66 0.33
-4 -2 10 3.89 0.17
4 -2 -10 4.15 0.15
-4 -2 10 3.59 0.17
4 -2 -10 3.92 0.17
4 -2 -10 4.02 0.16
4 -2 -10 4.05 0.18
-4 2 10 3.99 0.17
4 2 -10 3.66 0.16
-4 2 10 4.11 0.17
4 2 -10 3.93 0.16
4 2 -10 3.93 0.17
4 2 -10 4.1 0.18
-3 -2 10 1.92 0.11
-3 -2 10 2.09 0.12
3 -2 -10 1.67 0.12
-3 -2 10 2.01 0.12
3 -2 -10 2 0.1
3 -2 -10 2.02 0.11
3 -2 -10 1.96 0.09
-3 2 10 1.83 0.11
3 2 -10 2.04 0.11
3 2 -10 1.74 0.11
-3 2 10 1.92 0.11
3 2 -10 1.73 0.12
3 2 -10 1.82 0.1
2 -2 -10 0.69 0.07
2 -2 -10 0.48 0.09
-2 -2 10 0.69 0.14
2 -2 -10 0.68 0.07
-2 -2 10 0.72 0.09
2 2 -10 0.61 0.09
-2 2 10 0.62 0.08
2 2 -10 0.72 0.07
-2 2 10 0.56 0.09
2 2 -10 0.56 0.11
1 -2 -10 1.14 0.11
-1 -2 10 1.1 0.09
1 2 -10 1.19 0.1
1 2 -10 0.99 0.08
0 -2 10 5.16 0.18
0 -2 -10 4.66 0.2
0 2 -10 5.1 0.17
0 2 10 4.65 0.18
-1 -2 -10 1.74 0.08
-1 -2 -10 1.98 0.1
1 -2 10 1.75 0.1
-1 -2 -10 1.95 0.11
-1 2 -10 1.73 0.1
1 2 10 1.79 0.1
1 2 10 1.77 0.11
-1 2 -10 1.79 0.1
-1 2 -10 1.95 0.14
-2 -2 -10 0.78 0.06
-2 -2 -10 0.68 0.09
2 -2 10 0.76 0.08
-2 -2 -10 0.72 0.07
2 -2 10 0.56 0.08
-2 -2 -10 0.79 0.08
-2 2 -10 0.82 0.09
-2 2 -10 0.67 0.07
-2 2 -10 0.82 0.08
-2 2 -10 0.64 0.1
2 2 10 0.71 0.08
-3 -2 -10 0.04 0.02
-3 -2 -10 0.05 0.03
-3 -2 -10 0.04 0.03
3 -2 10 0.04 0.03
-3 -2 -10 0.04 0.02
3 -2 10 0.05 0.03
-3 -2 -10 0.11 0.04
3 2 10 0.03 0.02
-3 2 -10 0.09 0.04
-3 2 -10 0.03 0.03
-3 2 -10 0.02 0.03
3 2 10 -0.01 0.03
4 -2 10 0.32 0.09
-4 -2 -10 0.3 0.09
-4 -2 -10 0.25 0.07
-4 -2 -10 0.45 0.13
-4 -2 -10 0.24 0.09
-4 2 -10 0.2 0.05
-5 -2 -10 1.47 0.1
5 -2 10 1.47 0.1
-5 -2 -10 1.39 0.09
5 2 10 1.54 0.1
5 2 10 1.46 0.12
-5 2 -10 1.35 0.09
-5 2 -10 1.46 0.11
-5 2 -10 1.45 0.11
6 -2 10 0.41 0.08
-6 -2 -10 0.49 0.08
-6 2 -10 0.56 0.09
6 2 10 0.51 0.08
7 -3 -10 0.58 0.07
7 -3 -10 0.6 0.07
-7 3 10 0.41 0.06
-7 3 10 0.5 0.09
7 3 -10 0.45 0.1
7 3 -10 0.55 0.07
6 -3 -10 2.2 0.11
6 -3 -10 2 0.1
-6 -3 10 2.12 0.12
6 -3 -10 2.05 0.11
-6 3 10 2.23 0.12
6 3 -10 2.02 0.13
-6 3 10 1.93 0.11
6 3 -10 1.97 0.11
6 3 -10 2.24 0.12
5 -3 -10 13.81 0.44
5 -3 -10 13.53 0.42
5 -3 -10 14.51 0.48
5 -3 -10 14.11 0.46
-5 -3 10 14.42 0.45
-5 3 10 13.99 0.44
5 3 -10 14.11 0.44
5 3 -10 13.39 0.45
5 3 -10 13.75 0.47
4 -3 -10 0.29 0.08
4 -3 -10 0.27 0.1
4 -3 -10 0.35 0.06
4 -3 -10 0.42 0.07
-4 -3 10 0.47 0.09
4 3 -10 0.4 0.08
4 3 -10 0.44 0.09
-4 3 10 0.31 0.09
-4 3 10 0.4 0.08
3 -3 -10 16.03 0.5
3 -3 -10 15.56 0.48
3 -3 -10 15.68 0.53
-3 -3 10 17.02 0.51
3 -3 -10 16.04 0.52
-3 -3 10 15.31 0.5
-3 -3 10 16.35 0.5
3 3 -10 16.71 0.54
-3 3 10 16.17 0.5
3 3 -10 16.21 0.5
3 3 -10 15.82 0.52
2 -3 -10 7.24 0.24
-2 -3 10 7.03 0.25
2 -3 -10 7.05 0.23
2 -3 -10 6.78 0.26
-2 -3 10 6.86 0.24
-2 3 10 6.96 0.24
2 3 -10 6.6 0.23
-2 3 10 7.06 0.25
2 3 -10 6.96 0.26
-2 3 10 6.76 0.24
1 3 -10 3.4 0.15
1 3 -10 2.92 0.13
1 3 -10 2.96 0.17
0 -3 -10 0.48 0.08
0 -3 -10 0.28 0.09
0 3 -10 0.51 0.08
0 3 10 0.52 0.09
0 3 10 0.36 0.08
1 -3 10 0.87 0.08
1 -3 10 0.87 0.09
-1 -3 -10 0.79 0.06
-1 -3 -10 0.91 0.08
-1 -3 -10 0.76 0.07
1 3 10 0.72 0.08
1 3 10 0.93 0.1
-1 3 -10 0.67 0.1
-1 3 -10 0.72 0.07
-1 3 -10 0.66 0.09
-2 -3 -10 0.04 0.03
2 -3 10 0.05 0.03
-2 -3 -10 0.08 0.02
-2 -3 -10 0.09 0.03
2 -3 10 0.06 0.03
2 3 10 0.1 0.03
-2 3 -10 0.03 0.03
-2 3 -10 0.07 0.04
-2 3 -10 0.09 0.03
3 -3 10 0.12 0.03
3 -3 10 0.25 0.07
-3 -3 -10 0.22 0.06
-3 -3 -10 0.15 0.05
-3 -3 -10 0.18 0.06
-3 -3 -10 0.11 0.03
-3 3 -10 0.07 0.03
-3 3 -10 0.14 0.04
-3 3 -10 0.07 0.04
3 3 10 0.11 0.03
3 3 10 0.12 0.03
-4 -3 -10 0.77 0.07
4 -3 10 0.94 0.1
4 -3 10 0.91 0.09
-4 -3 -10 0.9 0.1
-4 -3 -10 0.78 0.08
-4 -3 -10 1.14 0.17
-4 -3 -10 0.94 0.09
-4 3 -10 0.79 0.1
4 3 10 0.86 0.09
-4 3 -10 0.74 0.1
4 3 10 0.96 0.09
-4 3 -10 0.8 0.08
-5 -3 -10 -0.05 0.05
5 -3 10 0.04 0.03
-5 -3 -10 0.02 0.02
-5 -3 -10 0.03 0.03
-5 3 -10 0.02 0.03
-5 3 -10 0 0.03
-5 3 -10 0.06 0.03
5 3 10 0.09 0.04
5 3 10 0.06 0.02
-6 -3 -10 0.23 0.06
-7 -4 10 0.18 0.08
7 -4 -10 0.14 0.03
-7 -4 10 0.1 0.03
7 -4 -10 0.06 0.02
-7 4 10 0.14 0.04
7 4 -10 0.1 0.04
-7 4 10 0.08 0.03
-6 -4 10 0.72 0.08
6 -4 -10 0.82 0.07
-6 -4 10 0.79 0.12
6 -4 -10 0.84 0.07
6 -4 -10 0.82 0.08
-6 4 10 0.75 0.08
6 4 -10 0.96 0.09
6 4 -10 0.76 0.1
-6 4 10 0.78 0.09
5 -4 -10 6.02 0.21
5 -4 -10 5.75 0.25
5 -4 -10 5.52 0.21
-5 -4 10 5.96 0.22
-5 -4 10 5.27 0.21
5 -4 -10 5.57 0.19
-5 4 10 5.41 0.2
5 4 -10 5.91 0.23
5 4 -10 5.65 0.21
5 4 -10 5.79 0.21
-5 4 10 5.41 0.22
4 -4 -10 14.62 0.5
4 -4 -10 14.98 0.47
4 -4 -10 14.78 0.48
-4 -4 10 14.87 0.47
-4 -4 10 15.21 0.48
4 -4 -10 15.06 0.45
4 4 -10 14.77 0.47
-4 4 10 15.52 0.47
-4 4 10 14.47 0.46
4 4 -10 14.78 0.48
3 -4 -10 13.75 0.44
-3 -4 10 13.91 0.44
3 -4 -10 14.34 0.43
3 -4 -10 14.12 0.47
-3 -4 10 14.91 0.46
3 4 -10 14.25 0.44
3 4 -10 13.72 0.47
-3 4 10 13.9 0.45
3 4 -10 14.51 0.46
-3 4 10 14.13 0.44
-3 4 10 13.76 0.45
-2 -4 10 0.64 0.08
2 -4 -10 0.47 0.07
2 -4 -10 0.51 0.06
-2 -4 10 0.57 0.09
2 4 -10 0.66 0.11
2 4 -10 0.62 0.09
-2 4 10 0.49 0.08
2 4 -10 0.36 0.09
2 4 -10 0.43 0.07
1 -4 -10 2.48 0.12
1 -4 -10 2.59 0.13
1 -4 -10 2.53 0.11
-1 -4 10 2.7 0.13
1 4 -10 2.26 0.12
1 4 -10 2.75 0.14
-1 4 10 2.34 0.13
1 4 -10 2.39 0.14
0 -4 -10 4.71 0.18
0 -4 -10 4.53 0.16
0 -4 -10 4.5 0.17
0 -4 10 4.38 0.18
0 4 10 4.5 0.17
0 4 -10 4.43 0.19
0 4 -10 4.44 0.17
-1 -4 -10 1.05 0.08
-1 -4 -10 0.89 0.11
1 -4 10 0.86 0.08
1 -4 10 0.91 0.09
-1 -4 -10 0.85 0.07
-1 -4 -10 0.85 0.08
-1 4 -10 0.75 0.1
1 4 10 0.98 0.08
1 4 10 0.86 0.08
-1 4 -10 0.95 0.1
-1 4 -10 0.81 0.08
-2 -4 -10 3.86 0.16
2 -4 10 3.73 0.15
-2 -4 -10 3.81 0.14
2 -4 10 3.88 0.16
-2 -4 -10 3.99 0.15
-2 -4 -10 3.76 0.18
-2 4 -10 3.68 0.15
-2 4 -10 3.78 0.18
-2 4 -10 3.63 0.17
2 4 10 3.75 0.16
2 4 10 3.94 0.15
-3 -4 -10 0.23 0.06
-3 -4 -10 0.1 0.03
3 -4 10 0.11 0.03
-3 4 -10 0.15 0.03
-3 4 -10 0.1 0.03
3 4 10 0.13 0.03
-3 4 -10 0.18 0.05
-4 -4 -10 4 0.18
-4 -4 -10 3.89 0.14
-4 -4 -10 4.29 0.25
-4 -4 -10 3.93 0.15
-4 -4 -10 3.84 0.17
4 -4 10 4.02 0.17
4 -4 10 3.96 0.16
-4 4 -10 3.85 0.16
-4 4 -10 3.68 0.18
4 4 10 4.06 0.16
4 4 10 3.87 0.16
-4 4 -10 4.19 0.17
-5 -4 -10 1.13 0.1
-5 -4 -10 0.99 0.12
-5 -4 -10 1.1 0.08
5 -4 10 0.92 0.1
-5 4 -10 1.16 0.1
5 4 10 1.15 0.09
-5 4 -10 1.3 0.11
-6 -4 -10 0.89 0.08
-6 -4 -10 0.9 0.07
6 4 10 0.72 0.08
-6 4 -10 1.07 0.11
-7 -5 10 2.49 0.12
7 -5 -10 2.56 0.11
7 -5 -10 2.6 0.12
7 5 -10 2.42 0.12
-7 5 10 2.46 0.12
6 -5 -10 0.48 0.07
-6 -5 10 0.41 0.08
6 -5 -10 0.46 0.06
-6 -5 10 0.34 0.1
6 -5 -10 0.46 0.07
-6 5 10 0.32 0.08
6 5 -10 0.44 0.1
6 5 -10 0.27 0.09
5 -5 -10 2.24 0.11
-5 -5 10 2.33 0.13
5 -5 -10 2.19 0.12
5 -5 -10 2.05 0.1
-5 5 10 2.06 0.12
5 5 -10 2.08 0.12
-5 5 10 2.32 0.13
5 5 -10 2.25 0.13
-5 5 10 2.07 0.11
5 5 -10 2.32 0.12
-4 -5 10 12.42 0.41
4 -5 -10 12.7 0.44
4 -5 -10 13.28 0.42
-4 -5 10 12.62 0.42
4 -5 -10 13.16 0.39
4 5 -10 12.42 0.42
-4 5 10 13.16 0.4
-4 5 10 12.49 0.41
-4 5 10 12.91 0.41
4 5 -10 12.39 0.44
4 5 -10 13.2 0.41
-3 -5 10 4.62 0.19
3 -5 -10 4.41 0.17
3 -5 -10 4.39 0.19
3 -5 -10 4.23 0.16
-3 -5 10 4.04 0.17
-3 5 10 4.41 0.18
3 5 -10 4.3 0.19
-3 5 10 4.33 0.17
3 5 -10 4.1 0.18
-3 5 10 4.47 0.17
3 5 -10 4.3 0.17
-2 -5 10 19.42 0.58
-2 -5 10 18.58 0.56
2 -5 -10 17.81 0.54
2 -5 -10 18.4 0.56
2 -5 -10 18.57 0.6
2 5 -10 18.31 0.6
2 5 -10 18.93 0.64
2 5 -10 17.73 0.58
-2 5 10 18 0.55
2 5 -10 18.52 0.56
-2 5 10 17.99 0.56
-2 5 10 18.16 0.57
1 -5 -10 2.19 0.12
1 -5 -10 2.18 0.1
-1 -5 10 2.29 0.11
-1 -5 10 2.38 0.13
1 -5 -10 2.29 0.11
-1 5 10 2.26 0.11
1 5 -10 2.14 0.11
-1 5 10 1.97 0.12
1 5 -10 2.2 0.14
1 5 -10 2.17 0.12
-1 5 10 2.14 0.12
0 -5 10 0.47 0.09
0 -5 -10 0.38 0.06
0 -5 10 0.27 0.07
0 -5 -10 0.37 0.07
0 5 10 0.38 0.08
0 5 -10 0.39 0.07
0 5 -10 0.34 0.1
0 5 10 0.43 0.07
0 5 -10 0.43 0.08
-1 -5 -10 0.01 0.03
-1 -5 -10 0.04 0.03
1 -5 10 0 0.03
-1 -5 -10 0.04 0.03
-1 -5 -10 0 0.02
1 -5 10 0 0.03
-1 5 -10 -0.01 0.03
-1 5 -10 0.04 0.04
-1 5 -10 -0.02 0.03
1 5 10 -0.02 0.02
1 5 10 0.03 0.03
1 5 10 0.01 0.03
-2 -5 -10 0.68 0.06
-2 -5 -10 0.72 0.07
2 -5 10 0.69 0.08
2 -5 10 0.79 0.09
-2 -5 -10 0.86 0.08
2 5 10 0.7 0.07
2 5 10 0.84 0.08
-2 5 -10 0.74 0.1
-2 5 -10 0.62 0.08
2 5 10 0.57 0.1
-3 -5 -10 3.2 0.16
3 -5 10 3.33 0.15
3 -5 10 3.02 0.13
-3 -5 -10 3.04 0.13
-3 -5 -10 3.19 0.12
3 5 10 3.35 0.13
-3 5 -10 3.01 0.14
3 5 10 3.02 0.14
-3 5 -10 3 0.16
-3 5 -10 2.97 0.17
-4 -5 -10 0.93 0.08
-4 -5 -10 1.06 0.1
-4 -5 -10 0.77 0.07
4 -5 10 0.79 0.08
4 -5 10 0.99 0.1
-4 5 -10 0.74 0.1
-4 5 -10 0.98 0.09
4 5 10 1 0.08
-5 -5 -10 0.89 0.07
5 -5 10 0.69 0.1
5 -5 10 0.88 0.1
-5 -5 -10 0.83 0.09
-5 5 -10 0.88 0.08
5 5 10 0.88 0.08
-5 5 -10 0.99 0.1
-6 -5 -10 0.3 0.06
-6 -5 -10 0.23 0.07
-6 5 -10 0.29 0.1
-7 -6 10 0.46 0.08
7 -6 -10 0.39 0.08
-7 6 10 0.53 0.08
6 -6 -10 0.06 0.03
6 -6 -10 0.07 0.03
-6 6 10 0.05 0.04
6 6 -10 0.08 0.05
5 -6 -10 0.07 0.04
5 -6 -10 0.06 0.02
-5 -6 10 0.12 0.04
-5 -6 10 0.09 0.03
5 -6 -10 0.09 0.03
-5 6 10 0.17 0.05
-5 6 10 0.14 0.03
5 6 -10 0.14 0.04
-5 6 10 0.33 0.1
4 -6 -10 6.23 0.21
-4 -6 10 6.18 0.24
4 -6 -10 6.33 0.23
4 -6 -10 6.1 0.25
4 -6 -10 6.5 0.22
-4 -6 10 6.18 0.22
-4 6 10 6.14 0.22
4 6 -10 6.35 0.25
-4 6 10 6.09 0.23
4 6 -10 6.28 0.23
4 6 -10 6.62 0.23
-4 6 10 6.43 0.22
-3 -6 10 3.26 0.16
3 -6 -10 3.66 0.15
3 -6 -10 3.4 0.16
3 -6 -10 3.7 0.13
-3 -6 10 3.74 0.15
-3 6 10 3.51 0.15
3 6 -10 3.31 0.15
3 6 -10 3.35 0.16
-3 6 10 3.32 0.15
-3 6 10 3.57 0.14
-2 -6 10 4.33 0.18
2 -6 -10 4.78 0.18
2 -6 -10 4.88 0.17
-2 -6 10 4.55 0.19
2 6 -10 4.86 0.2
2 6 -10 4.91 0.22
-2 6 10 4.67 0.18
2 6 -10 4.8 0.18
-2 6 10 4.81 0.19
-2 6 10 4.86 0.18
-1 -6 10 21.17 0.65
-1 -6 10 20.47 0.64
1 -6 -10 20.59 0.61
1 -6 -10 21.58 0.64
1 -6 -10 20.87 0.67
1 6 -10 21.07 0.68
-1 6 10 20.93 0.65
-1 6 10 20.68 0.63
-1 6 10 20.75 0.64
1 6 -10 21.49 0.72
1 6 -10 21.22 0.64
-1 6 10 20.76 0.65
0 -6 -10 1.39 0.1
0 -6 -10 1.33 0.09
0 -6 -10 1.28 0.07
0 -6 10 1.25 0.09
0 -6 10 1.11 0.1
0 6 10 1.18 0.08
0 6 -10 1.46 0.12
0 6 10 1.34 0.1
0 6 10 1.24 0.09
0 6 -10 1.11 0.09
0 6 -10 1.29 0.1
1 -6 10 0.68 0.08
-1 -6 -10 0.86 0.11
-1 -6 -10 0.86 0.08
-1 -6 -10 0.71 0.07
-1 -6 -10 0.68 0.06
1 -6 10 0.7 0.09
-1 6 -10 0.76 0.08
-1 6 -10 0.68 0.1
1 6 10 0.72 0.08
1 6 10 0.64 0.09
-2 -6 -10 0.03 0.03
2 -6 10 -0.01 0.03
2 -6 10 0.04 0.03
-2 -6 -10 -0.04 0.02
-2 6 -10 0.04 0.03
2 6 10 -0.02 0.04
-2 6 -10 -0.03 0.03
-2 6 -10 -0.04 0.04
2 6 10 0.02 0.02
2 6 10 0.03 0.03
3 -6 10 1.35 0.09
-3 -6 -10 1.44 0.08
-3 -6 -10 1.33 0.08
3 -6 10 1.41 0.11
-3 -6 -10 1.31 0.11
-3 6 -10 1.31 0.1
3 6 10 1.27 0.09
3 6 10 1.29 0.09
-4 -6 -10 1.71 0.11
-4 -6 -10 1.54 0.08
-4 -6 -10 1.5 0.09
4 -6 10 1.72 0.12
4 -6 10 1.5 0.09
4 6 10 1.44 0.1
-4 6 -10 1.29 0.13
4 6 10 1.67 0.1
-4 6 -10 1.46 0.12
-5 -6 -10 0.46 0.08
-5 -6 -10 0.49 0.08
-5 -6 -10 0.53 0.06
5 6 10 0.43 0.08
6 -6 10 0.34 0.11
-6 -6 -10 0.28 0.06
-6 -6 -10 0.42 0.08
7 -7 -10 0.78 0.08
-7 -7 10 0.9 0.1
7 -7 -10 0.81 0.07
-7 7 10 0.83 0.09
6 -7 -10 1.26 0.07
6 -7 -10 1.06 0.09
6 7 -10 1.05 0.11
6 7 -10 1.11 0.11
5 -7 -10 0.59 0.08
-5 -7 10 0.67 0.1
5 -7 -10 0.64 0.07
5 -7 -10 0.56 0.06
-5 -7 10 0.53 0.08
5 7 -10 0.56 0.11
5 7 -10 0.53 0.09
-5 7 10 0.58 0.1
-5 7 10 0.52 0.08
4 -7 -10 0.21 0.07
4 -7 -10 0.12 0.04
4 -7 -10 0.16 0.06
4 -7 -10 0.08 0.02
-4 7 10 0.24 0.07
-4 7 10 0.09 0.03
-4 7 10 0.05 0.03
4 7 -10 0.05 0.04
-4 7 10 0.1 0.03
4 7 -10 0.16 0.04
3 -7 -10 3.16 0.12
-3 -7 10 3.19 0.14
-3 -7 10 3.08 0.16
3 -7 -10 3.25 0.14
3 -7 -10 2.96 0.15
-3 7 10 3.14 0.13
-3 7 10 3.04 0.14
3 7 -10 3.04 0.14
3 7 -10 2.98 0.15
-3 7 10 3.13 0.14
2 -7 -10 1.01 0.07
2 -7 -10 0.98 0.08
-2 -7 10 0.89 0.08
-2 -7 10 0.83 0.1
2 7 -10 0.73 0.11
-2 7 10 0.9 0.09
-2 7 10 0.99 0.08
2 7 -10 0.81 0.09
-2 7 10 0.86 0.09
2 7 -10 0.83 0.09
1 -7 -10 3.26 0.13
-1 -7 10 3.16 0.13
-1 -7 10 3.01 0.13
-1 -7 10 3.06 0.15
1 -7 -10 3.13 0.12
-1 7 10 2.92 0.14
-1 7 10 3.08 0.14
1 7 -10 3.22 0.14
1 7 -10 3.03 0.15
1 7 -10 3.03 0.17
-1 7 10 2.98 0.13
0 -7 10 3.33 0.14
0 -7 -10 3.12 0.15
0 -7 -10 3.37 0.14
0 -7 10 3.02 0.15
0 -7 -10 3.23 0.12
0 7 10 3.03 0.14
0 7 -10 3.18 0.14
0 7 10 2.88 0.15
0 7 10 3.14 0.14
0 7 -10 3.36 0.16
0 7 10 3 0.13
0 7 -10 3.38 0.17
0 7 10 3.4 0.14
-1 -7 -10 1.8 0.14
-1 -7 -10 1.71 0.08
1 -7 10 1.85 0.1
1 -7 10 1.72 0.12
-1 -7 -10 1.74 0.11
1 -7 10 1.78 0.1
-1 -7 -10 1.72 0.09
1 -7 10 1.74 0.17
1 7 10 1.63 0.11
1 7 10 1.6 0.09
-1 7 -10 1.75 0.11
1 7 10 1.92 0.1
-1 7 -10 1.66 0.12
-2 -7 -10 0.18 0.05
2 -7 10 0.24 0.06
2 -7 10 0.31 0.09
-2 -7 -10 0.1 0.03
2 -7 10 0 0.07
-2 7 -10 0.18 0.05
2 7 10 0.21 0.07
-2 7 -10 0.07 0.03
2 7 10 0.28 0.08
2 7 10 0.12 0.03
-3 -7 -10 0.64 0.06
3 -7 10 0.68 0.07
-3 -7 -10 0.66 0.1
-3 -7 -10 0.74 0.07
3 -7 10 0.77 0.1
3 7 10 0.65 0.11
-3 7 -10 0.82 0.12
3 7 10 0.63 0.08
3 7 10 0.54 0.08
-4 -7 -10 0.05 0.02
-4 -7 -10 0.05 0.03
4 -7 10 0 0.03
-4 -7 -10 0.18 0.06
4 -7 10 0.06 0.03
4 7 10 0.02 0.03
-4 7 -10 0.03 0.04
4 7 10 0.06 0.03
-5 -7 -10 0.88 0.07
5 -7 10 1.17 0.11
-5 -7 -10 1.03 0.1
5 -7 10 0.96 0.09
-5 7 -10 1.04 0.12
-6 -7 -10 0.54 0.06
-6 -7 -10 0.68 0.08
6 -8 -10 0.24 0.05
6 -8 -10 0.25 0.06
6 8 -10 0.16 0.04
-6 8 10 0.14 0.04
-5 -8 10 0.57 0.11
5 -8 -10 0.36 0.07
5 -8 -10 0.33 0.08
5 -8 -10 0.47 0.06
-5 -8 10 0.36 0.07
-5 8 10 0.56 0.09
5 8 -10 0.32 0.08
-5 8 10 0.38 0.08
4 -8 -10 1.81 0.11
4 -8 -10 1.81 0.1
-4 -8 10 1.88 0.14
4 -8 -10 1.83 0.09
-4 -8 10 1.89 0.1
4 8 -10 1.78 0.12
-4 8 10 1.73 0.11
-4 8 10 1.94 0.12
-4 8 10 1.84 0.11
3 -8 -10 0.77 0.08
3 -8 -10 0.66 0.06
-3 -8 10 0.69 0.07
3 -8 -10 0.66 0.11
-3 -8 10 0.82 0.1
-3 8 10 0.85 0.09
3 8 -10 0.9 0.12
-3 8 10 0.67 0.08
-3 8 10 0.86 0.09
3 8 -10 0.63 0.09
-2 -8 10 0.13 0.04
2 -8 -10 0.22 0.07
-2 -8 10 0.07 0.03
2 -8 -10 0.15 0.04
2 -8 -10 0.17 0.05
-2 8 10 0.26 0.08
-2 8 10 0.14 0.04
-2 8 10 0.12 0.03
2 8 -10 0.33 0.1
1 -8 -10 0.25 0.08
1 -8 -10 0.39 0.07
-1 -8 10 0.29 0.08
1 -8 -10 0.38 0.05
-1 -8 10 0.28 0.09
-1 -8 10 0.4 0.07
1 8 -10 0.33 0.09
-1 8 10 0.48 0.08
1 8 -10 0.49 0.09
1 8 -10 0.48 0.1
-1 8 10 0.43 0.09
-1 8 10 0.45 0.07
0 -8 -10 4.1 0.15
0 -8 10 3.79 0.22
0 -8 -10 4.21 0.17
0 -8 10 4.16 0.16
0 -8 -10 4.18 0.16
0 -8 10 4.19 0.15
0 -8 10 4.07 0.18
0 8 -10 4.09 0.17
0 8 -10 4.49 0.2
0 8 -10 4.27 0.18
0 8 10 4.1 0.17
0 8 10 4.12 0.17
-1 -8 -10 1 0.07
1 -8 10 0.7 0.17
-1 -8 -10 1.07 0.09
-1 -8 -10 1.02 0.08
-1 -8 -10 1.16 0.14
1 -8 10 1.19 0.09
1 -8 10 1 0.11
1 -8 10 1.11 0.08
-1 8 -10 0.96 0.11
-1 8 -10 0.92 0.11
1 8 10 0.9 0.09
1 8 10 0.99 0.09
1 8 10 0.88 0.08
-2 -8 -10 1.06 0.08
-2 -8 -10 1.16 0.07
2 -8 10 1.17 0.08
2 -8 10 1.03 0.11
-2 -8 -10 1.17 0.12
2 -8 10 0.75 0.18
2 -8 10 1.17 0.1
2 8 10 1.24 0.1
2 8 10 1.04 0.1
-2 8 -10 1 0.14
2 8 10 1.19 0.08
2 8 10 1.22 0.09
-3 -8 -10 0.62 0.06
3 -8 10 0.81 0.11
3 -8 10 0.7 0.07
-3 -8 -10 0.67 0.1
-3 -8 -10 0.7 0.07
3 8 10 0.73 0.1
3 8 10 0.62 0.08
3 8 10 0.56 0.09
4 -8 10 0.64 0.11
-4 -8 -10 0.74 0.09
-4 -8 -10 0.73 0.06
4 -8 10 0.81 0.07
-4 -8 -10 0.63 0.07
-4 8 -10 0.49 0.1
4 8 10 0.66 0.08
4 8 10 0.6 0.11
5 -8 10 1.02 0.08
-5 -8 -10 1 0.07
5 -8 10 1.03 0.12
-5 -8 -10 1.34 0.09
-5 -8 -10 1.26 0.08
5 8 10 1.18 0.08
-5 8 -10 1.29 0.11
6 -9 -10 1.59 0.09
-6 -9 10 1.29 0.12
6 -9 -10 1.71 0.08
6 -9 -10 1.41 0.1
-6 9 10 1.55 0.09
6 9 -10 1.54 0.1
-5 -9 10 0.02 0.03
5 -9 -10 0.06 0.02
5 -9 -10 0.03 0.03
5 -9 -10 0.02 0.04
5 9 -10 0 0.03
-5 9 10 0.09 0.04
4 -9 -10 0.57 0.08
4 -9 -10 0.5 0.07
-4 -9 10 0.42 0.07
4 -9 -10 0.47 0.06
4 9 -10 0.42 0.09
-4 9 10 0.46 0.08
-4 9 10 0.39 0.08
-4 9 10 0.64 0.08
-3 -9 10 1.68 0.13
3 -9 -10 1.84 0.09
3 -9 -10 1.66 0.14
3 -9 -10 1.7 0.1
-3 -9 10 1.76 0.1
-3 9 10 1.72 0.1
-3 9 10 1.76 0.1
3 9 -10 1.49 0.12
-3 9 10 1.59 0.11
-2 -9 10 2.7 0.15
-2 -9 10 2.47 0.12
-2 -9 10 2.32 0.12
2 -9 -10 2.78 0.12
2 -9 -10 2.36 0.14
2 -9 -10 2.71 0.11
-2 9 10 2.52 0.13
-2 9 10 2.6 0.13
2 9 -10 2.57 0.14
-2 9 10 2.56 0.13
2 9 -10 2.71 0.14
1 -9 -10 2 0.12
1 -9 -10 2.32 0.11
1 -9 -10 2.2 0.1
-1 -9 10 2.34 0.11
-1 -9 10 2.3 0.14
-1 9 10 2.33 0.12
1 9 -10 2.39 0.15
1 9 -10 2.15 0.13
-1 9 10 2.16 0.12
-1 9 10 2.18 0.12
0 -9 -10 3.11 0.13
0 -9 10 2.67 0.19
0 -9 10 3.01 0.16
0 -9 10 2.97 0.12
0 -9 10 3.11 0.13
0 -9 -10 3.16 0.14
0 -9 -10 3.14 0.12
0 9 -10 2.99 0.16
0 9 10 3.19 0.14
0 9 10 2.86 0.14
0 9 -10 2.94 0.16
0 9 10 2.97 0.14
1 -9 10 1.76 0.1
-1 -9 -10 1.67 0.08
1 -9 10 1.76 0.1
-1 -9 -10 1.63 0.1
1 -9 10 1.54 0.13
-1 -9 -10 1.75 0.1
-1 9 -10 1.37 0.13
1 9 10 1.59 0.1
1 9 10 1.75 0.1
1 9 10 1.62 0.11
-2 -9 -10 -0.01 0.02
2 -9 10 -0.09 0.07
-2 -9 -10 0.01 0.04
2 -9 10 -0.01 0.03
2 -9 10 0.07 0.03
2 9 10 0.01 0.04
2 9 10 0.06 0.03
2 9 10 0.06 0.03
-2 9 -10 -0.03 0.03
-3 -9 -10 2.55 0.11
-3 -9 -10 2.59 0.14
3 -9 10 2.53 0.11
3 -9 10 2.5 0.15
-3 -9 -10 2.51 0.1
3 9 10 2.56 0.12
3 9 10 2.29 0.13
-4 -9 -10 0.31 0.06
4 -9 10 0.28 0.06
-4 -9 -10 0.46 0.09
-4 -9 -10 0.3 0.05
-4 9 -10 0.38 0.1
4 9 10 0.59 0.13
4 9 10 0.32 0.07
-5 -9 -10 0.37 0.09
5 -9 10 0.37 0.07
-5 -9 -10 0.49 0.06
5 9 10 0.4 0.07
-5 9 -10 0.59 0.11
6 -10 -10 -0.04 0.05
6 -10 -10 0.01 0.03
-6 -10 10 0.03 0.05
-6 10 10 0.03 0.04
5 -10 -10 0.09 0.02
-5 -10 10 0.11 0.04
5 -10 -10 0.1 0.03
-5 10 10 0.12 0.04
4 -10 -10 0.36 0.08
4 -10 -10 0.27 0.06
4 -10 -10 0.42 0.08
-4 -10 10 0.34 0.07
4 10 -10 0.29 0.08
-4 10 10 0.23 0.07
-3 -10 10 0.08 0.04
3 -10 -10 0.24 0.07
-3 -10 10 0.07 0.03
-3 -10 10 0.05 0.03
-3 10 10 0.23 0.07
3 10 -10 0.13 0.04
-3 10 10 0.1 0.05
-3 10 10 0.08 0.03
2 -10 -10 1.4 0.12
-2 -10 10 1.46 0.09
-2 -10 10 1.57 0.09
2 -10 -10 1.64 0.1
2 -10 -10 1.54 0.08
2 10 -10 1.51 0.12
-2 10 10 1.43 0.11
-2 10 10 1.39 0.1
2 10 -10 1.56 0.11
-2 10 10 1.59 0.1
1 -10 -10 4.22 0.15
1 -10 -10 4.13 0.16
-1 -10 10 4.08 0.16
-1 -10 10 4.12 0.19
1 -10 -10 4.2 0.18
-1 -10 10 4.24 0.16
1 10 -10 4.55 0.2
-1 10 10 4.36 0.17
1 10 -10 4.5 0.19
-1 10 10 4.13 0.17
-1 10 10 4.24 0.17
0 -10 10 3.09 0.12
0 -10 10 3.21 0.16
0 -10 -10 2.89 0.11
0 -10 10 3.12 0.13
0 -10 -10 2.91 0.14
0 -10 -10 3.07 0.13
0 10 10 3.06 0.14
0 10 10 2.8 0.13
0 10 10 2.67 0.13
0 10 -10 2.74 0.16
1 -10 10 2.65 0.11
-1 -10 -10 2.58 0.12
-1 -10 -10 2.62 0.13
1 -10 10 2.62 0.16
1 -10 10 2.68 0.12
-1 -10 -10 2.69 0.11
1 10 10 2.57 0.13
1 10 10 2.84 0.13
-1 10 -10 2.66 0.17
1 10 10 2.54 0.12
-1 10 -10 2.37 0.15
2 -10 10 0.49 0.08
-2 -10 -10 0.35 0.13
-2 -10 -10 0.38 0.05
-2 -10 -10 0.29 0.07
2 -10 10 0.22 0.07
2 10 10 0.4 0.08
2 10 10 0.54 0.09
2 10 10 0.48 0.08
-2 10 -10 0.29 0.1
3 -10 10 -0.04 0.04
-3 -10 -10 0.03 0.03
-3 -10 -10 -0.01 0.02
-3 -10 -10 0.03 0.02
3 -10 10 0.02 0.02
3 10 10 0.02 0.04
3 10 10 0.09 0.04
3 10 10 -0.02 0.03
4 -10 10 0.53 0.07
-4 -10 -10 0.72 0.1
4 -10 10 0.49 0.15
-4 -10 -10 0.61 0.06
4 10 10 0.62 0.13
4 10 10 0.61 0.09
-5 -10 -10 0.64 0.1
-5 -10 -10 0.51 0.06
-5 -10 -10 0.52 0.07
-5 10 -10 0.73 0.13
5 10 10 0.74 0.07
6 -11 -10 0.8 0.06
5 -11 -10 0.25 0.08
-5 -11 10 0.28 0.06
5 -11 -10 0.28 0.05
5 -11 -10 0.33 0.08
-5 11 10 0.31 0.08
-4 -11 10 0.93 0.08
4 -11 -10 1.05 0.09
4 -11 -10 0.98 0.07
4 11 -10 0.89 0.1
-4 11 10 1.15 0.09
-4 11 10 0.96 0.09
-4 11 10 1.18 0.09
-3 -11 10 1.68 0.17
-3 -11 10 1.62 0.09
3 -11 -10 1.67 0.08
3 -11 -10 1.46 0.1
-3 -11 10 1.46 0.11
-3 11 10 1.76 0.11
3 11 -10 1.81 0.17
3 11 -10 1.55 0.11
-3 11 10 1.63 0.1
-3 11 10 1.58 0.1
2 -11 -10 5.04 0.17
-2 -11 10 4.85 0.22
2 -11 -10 4.86 0.21
-2 -11 10 4.67 0.18
-2 -11 10 4.68 0.18
2 -11 -10 4.89 0.18
2 11 -10 5.22 0.21
2 11 -10 5.02 0.2
-2 11 10 4.85 0.19
-2 11 10 4.86 0.19
-2 11 10 4.79 0.19
-2 11 10 5.18 0.19
-1 -11 10 4.19 0.15
-1 -11 10 4.29 0.16
1 -11 -10 4.04 0.14
1 -11 -10 4.01 0.16
-1 -11 10 3.88 0.2
1 -11 -10 3.82 0.17
1 11 -10 3.67 0.16
-1 11 10 3.75 0.16
1 11 -10 4.16 0.19
-1 11 10 4.01 0.16
-1 11 10 3.95 0.16
0 -11 -10 0.83 0.09
0 -11 10 1.02 0.08
0 -11 -10 1.06 0.09
0 -11 10 0.98 0.07
0 -11 -10 0.94 0.06
0 11 10 1.03 0.09
0 11 10 0.97 0.09
0 11 -10 1.14 0.12
0 11 -10 0.8 0.12
0 11 10 0.97 0.08
1 -11 10 0.03 0.03
-1 -11 -10 -0.02 0.03
1 -11 10 0.07 0.02
-1 -11 -10 0.04 0.02
1 11 10 0.02 0.03
1 11 10 0.02 0.03
1 11 10 0.07 0.03
-1 11 -10 0.02 0.03
2 -11 10 1.63 0.09
-2 -11 -10 1.54 0.09
2 -11 10 1.25 0.15
-2 -11 -10 1.46 0.08
2 -11 10 1.54 0.09
2 11 10 1.54 0.1
2 11 10 1.61 0.1
2 11 10 1.37 0.11
-2 11 -10 1.32 0.12
3 -11 10 0.36 0.1
3 -11 10 0.24 0.06
3 11 10 0.35 0.1
3 11 10 0.26 0.07
4 -11 10 0.32 0.06
-4 -11 -10 0.46 0.1
-4 -11 -10 0.38 0.05
4 11 10 0.25 0.07
-5 -11 -10 0.29 0.07
5 -11 10 0.4 0.06
5 -12 -10 0.48 0.09
5 12 -10 0.58 0.08
-5 12 10 0.6 0.08
-5 12 10 0.54 0.08
4 -12 -10 0.2 0.06
4 -12 -10 0.13 0.04
-3 -12 10 0.82 0.08
3 -12 -10 0.84 0.06
-3 -12 10 0.84 0.1
3 -12 -10 0.83 0.08
-3 12 10 0.94 0.08
-3 12 10 0.92 0.1
3 12 -10 0.88 0.1
-3 12 10 0.85 0.08
-2 -12 10 9.32 0.36
-2 -12 10 9.68 0.31
-2 -12 10 10.06 0.32
2 -12 -10 9.36 0.32
2 -12 -10 10 0.3
-2 12 10 10.05 0.32
-2 12 10 9.39 0.33
2 12 -10 9.88 0.33
2 12 -10 10.44 0.35
-2 12 10 10.4 0.33
-2 12 10 9.35 0.32
1 -12 -10 4.01 0.14
-1 -12 10 4.11 0.16
1 -12 -10 4.11 0.18
-1 -12 10 3.8 0.22
-1 -12 10 4 0.15
1 -12 -10 4.03 0.17
1 12 -10 4.39 0.17
-1 12 10 4.43 0.17
-1 12 10 4.03 0.16
-1 12 10 4.02 0.16
1 12 -10 4.28 0.19
0 -12 -10 5.54 0.21
0 -12 10 5.62 0.19
0 -12 -10 5.77 0.18
0 -12 -10 5.64 0.2
0 -12 10 5.32 0.25
0 -12 10 5.64 0.2
0 12 10 5.53 0.21
0 12 10 5.98 0.21
0 12 -10 5.47 0.24
0 12 -10 5.79 0.21
0 12 10 5.53 0.21
0 12 -10 5.58 0.24
1 -12 10 0.62 0.06
1 -12 10 0.61 0.07
-1 -12 -10 0.5 0.06
-1 -12 -10 0.44 0.09
1 12 10 0.65 0.09
-1 12 -10 0.78 0.11
1 12 10 0.59 0.08
1 12 10 0.51 0.08
2 -12 10 1.87 0.1
-2 -12 -10 1.84 0.08
2 -12 10 1.8 0.09
-2 -12 -10 1.73 0.11
2 12 10 1.77 0.1
2 12 10 1.81 0.1
-2 12 -10 1.82 0.13
2 12 10 1.59 0.12
-3 -12 -10 0.17 0.04
3 12 10 0.07 0.07
3 12 10 0.13 0.03
3 12 10 0.31 0.09
-4 -12 -10 0.08 0.05
-4 12 -10 0.05 0.04
4 12 10 0.02 0.03
4 12 10 0.11 0.05
-5 -13 10 0.38 0.06
-5 13 10 0.49 0.08
-5 13 10 0.49 0.07
4 -13 -10 0.1 0.05
-4 13 10 0.08 0.04
-4 13 10 0.04 0.03
-4 13 10 0.04 0.03
4 13 -10 0.23 0.08
-3 -13 10 1.6 0.11
3 -13 -10 1.73 0.08
-3 -13 10 1.6 0.09
-3 13 10 1.8 0.1
-3 13 10 1.89 0.1
2 -13 -10 2.97 0.12
-2 -13 10 3.26 0.13
-2 -13 10 3.11 0.13
2 13 -10 3.16 0.16
-2 13 10 3.31 0.14
-2 13 10 3.11 0.14
2 13 -10 3.33 0.15
-2 13 10 2.9 0.13
1 -13 -10 1.62 0.08
-1 -13 10 1.71 0.09
-1 -13 10 1.59 0.09
1 -13 -10 1.48 0.13
-1 13 10 1.86 0.11
1 13 -10 1.42 0.13
-1 13 10 1.81 0.1
0 -13 -10 0.66 0.06
0 -13 10 0.6 0.07
0 -13 -10 0.57 0.09
0 -13 10 0.81 0.07
0 13 10 0.74 0.07
0 13 -10 0.79 0.09
0 13 10 0.85 0.08
-1 -13 -10 2.64 0.13
1 -13 10 2.61 0.11
1 -13 10 2.52 0.11
-1 -13 -10 2.58 0.1
1 13 10 2.47 0.13
-1 13 -10 2.55 0.15
-1 13 -10 2.53 0.13
1 13 10 2.48 0.12
1 13 10 2.63 0.12
2 -13 10 0.84 0.07
-2 -13 -10 0.93 0.06
2 -13 10 0.9 0.08
2 13 10 0.84 0.09
2 13 10 0.81 0.08
2 13 10 0.68 0.1
-3 -13 -10 0.03 0.04
-3 13 -10 0.03 0.04
3 13 10 0.1 0.03
4 -13 10 0.26 0.06
4 13 10 0.25 0.06
-4 13 -10 0.34 0.09
-4 -14 10 1.99 0.1
4 -14 -10 1.76 0.14
-4 14 10 1.91 0.11
4 14 -10 2.15 0.12
-4 14 10 2.17 0.1
-4 14 10 1.96 0.11
3 -14 -10 3.17 0.15
-3 -14 10 3.14 0.14
3 -14 -10 3.38 0.12
-3 14 10 3.44 0.14
-3 14 10 3.27 0.14
-3 14 10 3.05 0.15
-2 -14 10 0.29 0.06
2 14 -10 0.37 0.11
-2 14 10 0.4 0.07
-1 -14 10 4.16 0.16
1 -14 -10 4.8 0.15
-1 -14 10 4.68 0.17
1 14 -10 4.52 0.18
-1 14 10 4.56 0.17
-1 14 10 4.24 0.17
-1 14 10 4.8 0.18
0 -14 10 0.71 0.07
0 14 10 0.75 0.08
0 14 10 0.68 0.08
1 -14 10 0.85 0.07
1 14 10 0.84 0.08
-1 14 -10 1 0.09
1 14 10 0.76 0.07
-2 -14 -10 -0.01 0.03
2 -14 10 0.03 0.03
-2 -14 -10 -0.02 0.02
2 -14 10 0 0.03
-2 14 -10 -0.02 0.04
2 14 10 -0.13 0.06
2 14 10 -0.04 0.03
-3 -14 -10 0.07 0.02
3 -14 10 -0.01 0.03
3 14 10 0.04 0.02
3 14 10 0.1 0.03
-3 14 -10 0 0.04
4 -15 -10 3.07 0.11
-4 -15 10 2.91 0.12
-4 15 10 2.91 0.12
3 -15 -10 2.53 0.1
-3 -15 10 2.67 0.11
-3 -15 10 2.76 0.13
3 -15 -10 2.35 0.15
-3 15 10 2.61 0.11
3 15 -10 2.85 0.15
-3 15 10 2.54 0.11
-2 -15 10 1.94 0.1
2 -15 -10 1.97 0.09
2 15 -10 2.27 0.16
2 15 -10 1.86 0.12
-1 -15 10 0.54 0.07
1 -15 -10 0.67 0.06
1 15 -10 0.81 0.09
-1 15 10 0.83 0.09
0 -15 -10 0.28 0.06
0 -15 10 0.19 0.03
1 -15 10 0.22 0.06
1 -15 10 0.25 0.06
1 15 10 0.34 0.07
-2 -15 -10 0.44 0.05
2 -15 10 0.7 0.07
-2 -15 -10 0.46 0.08
2 -15 10 0.58 0.06
2 15 10 0.67 0.07
3 -15 10 0.05 0.03
-3 -15 -10 0.01 0.02
3 15 10 0.05 0.03
-3 -16 10 0.5 0.06
-3 16 10 0.61 0.08
-2 -16 10 0.2 0.06
-2 -16 10 0.23 0.07
-2 16 10 0.3 0.07
-2 16 10 0.27 0.08
-1 -16 10 0.1 0.03
1 -16 -10 0.06 0.02
-1 16 10 0.05 0.02
1 16 -10 0.15 0.04
-1 16 10 0.04 0.03
0 -16 -10 0.22 0.06
0 16 10 0.14 0.03
-1 -16 -10 0.04 0.02
-1 16 -10 0.06 0.03
-2 -16 -10 0.07 0.02
2 16 10 0.09 0.03
2 16 10 0.04 0.03
-2 -17 10 0.55 0.07
-2 17 10 0.51 0.09
-2 17 10 0.48 0.08
-1 -17 10 0.28 0.06
1 17 -10 0.41 0.09
-1 17 10 0.37 0.07
0 -17 10 0.26 0.07
0 17 -10 0.28 0.07
1 -17 10 0.44 0.07
-1 17 -10 0.4 0.09
7 0 -11 6.58 0.23
6 0 -11 0.45 0.07
-6 0 11 0.47 0.06
5 0 -11 6.9 0.24
5 0 -11 6.92 0.26
-5 0 11 6.59 0.24
5 0 -11 6.64 0.24
4 0 -11 3.17 0.16
4 0 -11 3.02 0.15
4 0 -11 3.19 0.14
3 0 -11 0.17 0.05
3 0 -11 0.1 0.04
3 0 -11 0.09 0.03
-3 0 11 0.04 0.04
3 0 -11 0.08 0.03
-3 0 11 0.06 0.03
-2 0 11 0.07 0.03
2 0 -11 0.06 0.02
2 0 -11 0.03 0.03
2 0 -11 0.07 0.03
-2 0 11 0.05 0.04
1 0 -11 0.06 0.02
1 0 -11 0.09 0.03
1 0 -11 0.05 0.04
1 0 -11 0.07 0.03
-1 0 11 0.05 0.03
0 0 -11 1.65 0.09
0 0 -11 1.72 0.1
0 0 -11 1.75 0.11
0 0 11 1.67 0.1
-1 0 -11 1.9 0.1
-1 0 -11 2.14 0.1
1 0 11 2.04 0.11
-1 0 -11 2.14 0.12
-1 0 -11 2.06 0.13
-2 0 -11 1.72 0.09
-2 0 -11 1.51 0.09
2 0 11 1.63 0.1
-2 0 -11 1.73 0.12
-3 0 -11 0.46 0.09
-3 0 -11 0.5 0.09
3 0 11 0.47 0.08
-3 0 -11 0.32 0.07
-4 0 -11 0.63 0.09
4 0 11 0.64 0.08
-4 0 -11 0.54 0.07
-4 0 -11 0.7 0.12
-5 0 -11 0.29 0.08
5 0 11 0.3 0.07
6 -1 -11 1.42 0.09
-6 -1 11 1.36 0.09
6 -1 -11 1.41 0.08
6 1 -11 1.34 0.09
6 1 -11 1.55 0.09
-6 1 11 1.38 0.09
6 1 -11 1.24 0.14
-6 1 11 1.6 0.1
5 -1 -11 2.85 0.16
-5 -1 11 2.99 0.14
5 -1 -11 2.87 0.14
5 -1 -11 3.14 0.13
5 1 -11 3.04 0.15
-5 1 11 2.94 0.13
5 1 -11 2.9 0.14
5 1 -11 2.86 0.13
4 -1 -11 2.82 0.13
4 -1 -11 3.02 0.13
-4 -1 11 3.11 0.15
4 -1 -11 3.07 0.14
4 -1 -11 3.37 0.16
4 1 -11 3.16 0.15
-4 1 11 3.17 0.14
4 1 -11 2.85 0.13
4 1 -11 3.22 0.16
-3 -1 11 4.9 0.19
3 -1 -11 5.04 0.19
3 -1 -11 4.77 0.2
3 -1 -11 5.11 0.18
3 -1 -11 4.99 0.2
-3 -1 11 5.09 0.2
-3 1 11 4.85 0.19
-3 1 11 5.16 0.2
3 1 -11 5.39 0.19
3 1 -11 4.96 0.21
3 1 -11 4.74 0.2
3 1 -11 5.1 0.18
2 -1 -11 3.32 0.15
2 -1 -11 3.62 0.14
2 -1 -11 3.57 0.16
-2 -1 11 3.47 0.15
2 -1 -11 3.53 0.14
-2 -1 11 3.37 0.15
2 1 -11 3.44 0.14
2 1 -11 3.64 0.15
2 1 -11 3.65 0.16
-2 1 11 3.66 0.15
2 1 -11 3.51 0.16
-2 1 11 3.4 0.15
1 -1 -11 0.07 0.02
1 -1 -11 0.08 0.04
-1 -1 11 0.1 0.04
1 -1 -11 0.11 0.04
-1 -1 11 0.09 0.03
1 -1 -11 0.07 0.03
1 1 -11 0.2 0.07
-1 1 11 0.06 0.03
1 1 -11 0.08 0.03
1 1 -11 0.13 0.04
1 1 -11 0.09 0.04
0 -1 11 0.23 0.08
0 -1 -11 0.41 0.07
0 -1 -11 0.43 0.08
0 -1 -11 0.28 0.1
0 -1 -11 0.53 0.06
0 1 -11 0.3 0.07
0 1 11 0.34 0.08
0 1 -11 0.4 0.07
0 1 -11 0.51 0.08
1 -1 11 0.04 0.02
-1 -1 -11 0.06 0.02
-1 -1 -11 0.07 0.03
-1 -1 -11 0.08 0.03
-1 -1 -11 0.09 0.03
-1 1 -11 0.08 0.03
-1 1 -11 0.06 0.03
-1 1 -11 0.08 0.03
-1 1 -11 0.02 0.03
1 1 11 0.06 0.02
-2 -1 -11 0.54 0.07
2 -1 11 0.67 0.08
-2 -1 -11 0.65 0.08
-2 -1 -11 0.56 0.07
-2 -1 -11 0.61 0.1
2 -1 11 0.74 0.12
-2 1 -11 0.61 0.08
-2 1 -11 0.58 0.07
2 1 11 0.54 0.08
-2 1 -11 0.68 0.1
-3 -1 -11 0.3 0.08
3 -1 11 0.44 0.08
-3 -1 -11 0.26 0.07
-3 -1 -11 0.42 0.1
3 1 11 0.49 0.11
3 1 11 0.35 0.07
-3 1 -11 0.45 0.09
-3 1 -11 0.27 0.07
-4 -1 -11 0.36 0.09
-4 -1 -11 0.45 0.09
4 -1 11 0.34 0.07
-4 1 -11 0.39 0.09
4 1 11 0.35 0.07
-4 1 -11 0.33 0.07
5 -1 11 0.45 0.07
-5 -1 -11 0.33 0.08
-5 -1 -11 0.32 0.06
-5 1 -11 0.33 0.07
-5 1 -11 0.42 0.08
6 -2 -11 6.31 0.23
-6 -2 11 6.69 0.23
6 2 -11 6.21 0.25
6 2 -11 6.54 0.22
-6 2 11 6.65 0.22
-6 2 11 6.44 0.22
6 2 -11 6.28 0.23
5 -2 -11 0.58 0.07
5 -2 -11 0.52 0.08
5 -2 -11 0.56 0.12
5 -2 -11 0.6 0.08
-5 -2 11 0.52 0.08
5 2 -11 0.54 0.08
5 2 -11 0.4 0.08
-5 2 11 0.55 0.08
5 2 -11 0.58 0.11
4 -2 -11 1.06 0.11
4 -2 -11 1.05 0.08
4 -2 -11 0.96 0.09
4 -2 -11 0.81 0.08
-4 -2 11 0.97 0.1
-4 2 11 0.99 0.09
4 2 -11 0.84 0.09
-4 2 11 1.02 0.11
4 2 -11 0.82 0.08
4 2 -11 1.02 0.1
3 -2 -11 0.88 0.09
3 -2 -11 1.03 0.08
3 -2 -11 0.91 0.08
-3 -2 11 0.95 0.11
-3 -2 11 0.92 0.12
3 -2 -11 0.92 0.1
-3 -2 11 1.02 0.1
-3 2 11 0.8 0.1
-3 2 11 1.04 0.09
3 2 -11 0.8 0.08
3 2 -11 0.89 0.1
3 2 -11 0.79 0.09
-2 -2 11 1.75 0.11
-2 -2 11 1.64 0.11
2 -2 -11 1.58 0.09
2 -2 -11 1.66 0.1
2 -2 -11 1.49 0.11
2 2 -11 1.56 0.11
2 2 -11 1.48 0.16
2 2 -11 1.63 0.1
-2 2 11 1.54 0.1
2 2 -11 1.5 0.11
-2 2 11 1.52 0.1
2 2 -11 1.37 0.11
-1 -2 11 2.42 0.13
-1 -2 11 2.35 0.13
1 -2 -11 2.44 0.11
1 -2 -11 2.35 0.1
1 -2 -11 2.41 0.13
-1 2 11 2.4 0.12
1 2 -11 2.15 0.13
1 2 -11 2.47 0.12
1 2 -11 2.39 0.15
1 2 -11 2.33 0.13
1 2 -11 2.37 0.12
0 -2 -11 0.09 0.03
0 -2 11 0.12 0.03
0 -2 -11 0.12 0.04
0 -2 11 0.08 0.03
0 -2 -11 0.12 0.02
0 2 -11 0.1 0.03
0 2 -11 0.1 0.03
0 2 -11 0.11 0.03
0 2 11 0.12 0.03
0 2 -11 0.12 0.03
-1 -2 -11 0.52 0.07
-1 -2 -11 0.63 0.1
1 -2 11 0.61 0.08
-1 -2 -11 0.56 0.06
1 2 11 0.62 0.08
-1 2 -11 0.58 0.07
-1 2 -11 0.64 0.08
-2 -2 -11 0.39 0.06
-2 -2 -11 0.47 0.06
-2 -2 -11 0.49 0.08
2 -2 11 0.58 0.09
-2 -2 -11 0.44 0.09
2 -2 11 0.48 0.08
2 2 11 0.41 0.07
-2 2 -11 0.41 0.09
-2 2 -11 0.57 0.1
-2 2 -11 0.45 0.07
3 -2 11 2.87 0.15
-3 -2 -11 3.02 0.16
-3 -2 -11 2.67 0.12
-3 -2 -11 2.7 0.12
3 -2 11 3.13 0.14
3 2 11 3 0.15
-3 2 -11 3 0.15
-3 2 -11 2.78 0.15
-3 2 -11 2.86 0.13
3 2 11 2.9 0.13
-4 -2 -11 0.37 0.06
4 -2 11 0.51 0.08
-4 -2 -11 0.5 0.09
-4 -2 -11 0.48 0.1
-4 2 -11 0.42 0.08
4 2 11 0.56 0.07
-4 2 -11 0.58 0.09
-5 -2 -11 0.25 0.08
6 -3 -11 2.95 0.13
-6 -3 11 2.95 0.13
6 -3 -11 3.15 0.12
-6 3 11 3.09 0.13
-6 3 11 3.27 0.14
6 3 -11 2.76 0.15
6 3 -11 3.34 0.14
6 3 -11 3.03 0.14
5 -3 -11 0.06 0.02
5 -3 -11 0.11 0.03
5 3 -11 0.07 0.03
-5 3 11 0.04 0.02
5 3 -11 0.08 0.04
-4 -3 11 1.25 0.1
4 -3 -11 1.26 0.11
4 -3 -11 1.14 0.08
4 -3 -11 1.17 0.09
4 -3 -11 1.06 0.09
4 3 -11 1.16 0.1
4 3 -11 1.27 0.11
-4 3 11 1.22 0.09
-4 3 11 1.15 0.12
4 3 -11 1.17 0.09
3 -3 -11 0.05 0.03
3 -3 -11 0.08 0.02
-3 -3 11 0.05 0.04
3 -3 -11 0.07 0.04
-3 -3 11 0.08 0.03
3 -3 -11 0.05 0.04
-3 3 11 0.08 0.04
3 3 -11 0.04 0.04
3 3 -11 0.05 0.04
3 3 -11 0.04 0.03
-3 3 11 0.03 0.02
-2 -3 11 0.08 0.03
-2 -3 11 0.04 0.03
2 -3 -11 0.05 0.03
2 -3 -11 0.05 0.02
2 -3 -11 0.05 0.03
-2 3 11 0.09 0.03
2 3 -11 0.07 0.03
2 3 -11 -0.02 0.04
2 3 -11 0.02 0.04
-2 3 11 0.06 0.03
2 3 -11 0.08 0.04
1 -3 -11 0.07 0.03
1 -3 -11 0.06 0.02
-1 -3 11 0.03 0.03
1 -3 -11 0.09 0.03
-1 -3 11 0.06 0.03
1 3 -11 0.06 0.03
1 3 -11 0.06 0.03
-1 3 11 0.05 0.03
1 3 -11 0.05 0.05
-1 3 11 0.07 0.03
1 3 -11 0.07 0.03
0 -3 -11 2.33 0.1
0 -3 -11 2.49 0.13
0 -3 -11 2.17 0.11
0 -3 -11 2.19 0.15
0 -3 11 2.31 0.12
0 -3 11 2.18 0.12
0 3 -11 2.19 0.13
0 3 11 2.36 0.12
0 3 -11 2.18 0.14
0 3 -11 2.54 0.12
0 3 11 2.29 0.13
-1 -3 -11 0.55 0.08
-1 -3 -11 0.39 0.06
1 -3 11 0.55 0.08
1 -3 11 0.35 0.08
-1 -3 -11 0.44 0.1
-1 -3 -11 0.47 0.06
-1 3 -11 0.55 0.09
1 3 11 0.42 0.07
-1 3 -11 0.53 0.1
-1 3 -11 0.63 0.08
2 -3 11 0.76 0.09
-2 -3 -11 0.79 0.1
-2 -3 -11 0.78 0.09
-2 -3 -11 0.71 0.06
-2 -3 -11 0.68 0.07
-2 3 -11 0.77 0.1
2 3 11 0.72 0.08
-2 3 -11 0.82 0.1
-2 3 -11 0.61 0.08
3 -3 11 0.77 0.08
-3 -3 -11 0.66 0.1
-3 -3 -11 0.47 0.07
3 -3 11 0.72 0.1
-3 3 -11 0.71 0.11
3 3 11 0.58 0.08
3 3 11 0.73 0.1
-3 3 -11 0.64 0.1
-3 3 -11 0.54 0.08
4 -3 11 0.36 0.08
-4 -3 -11 0.25 0.09
-4 3 -11 0.39 0.09
-5 -3 -11 0.04 0.06
-5 3 -11 0.01 0.05
5 3 11 0 0.04
-5 3 -11 0.06 0.03
5 3 11 0.01 0.03
6 -4 -11 0.5 0.07
-6 -4 11 0.48 0.07
6 -4 -11 0.57 0.06
-6 4 11 0.55 0.09
6 4 -11 0.52 0.1
6 4 -11 0.5 0.1
-6 4 11 0.47 0.08
5 -4 -11 1.97 0.1
5 -4 -11 2.16 0.1
-5 -4 11 2.21 0.12
5 -4 -11 2.2 0.11
5 4 -11 2.27 0.13
5 4 -11 2.03 0.12
-5 4 11 2.27 0.11
-5 4 11 2.1 0.12
4 -4 -11 2.29 0.12
4 -4 -11 2.44 0.11
-4 -4 11 2.23 0.13
4 -4 -11 2.45 0.11
4 -4 -11 2.43 0.15
4 4 -11 2.13 0.13
4 4 -11 2.37 0.12
-4 4 11 2.43 0.13
4 4 -11 2.3 0.13
-4 4 11 2.27 0.12
3 -4 -11 0.61 0.07
3 -4 -11 0.68 0.1
-3 -4 11 0.6 0.09
-3 -4 11 0.55 0.09
3 -4 -11 0.54 0.09
3 -4 -11 0.6 0.07
-3 4 11 0.59 0.09
3 4 -11 0.63 0.09
3 4 -11 0.72 0.1
-3 4 11 0.73 0.08
3 4 -11 0.7 0.08
2 -4 -11 0.41 0.06
-2 -4 11 0.39 0.09
2 -4 -11 0.41 0.08
-2 -4 11 0.45 0.09
2 -4 -11 0.35 0.07
-2 4 11 0.56 0.08
2 4 -11 0.5 0.08
-2 4 11 0.44 0.07
2 4 -11 0.39 0.11
2 4 -11 0.5 0.09
-1 -4 11 0.92 0.08
1 -4 -11 0.86 0.09
1 -4 -11 0.85 0.07
1 -4 -11 0.86 0.08
-1 -4 11 0.84 0.09
-1 4 11 1 0.11
1 4 -11 0.88 0.09
1 4 -11 0.74 0.08
1 4 -11 0.86 0.11
-1 4 11 0.76 0.08
-1 4 11 1.04 0.09
0 -4 -11 0.26 0.07
0 -4 -11 0.17 0.04
0 -4 -11 0.19 0.06
0 -4 11 0.14 0.03
0 4 11 0.24 0.07
0 4 -11 0.27 0.1
1 -4 11 0.43 0.08
-1 -4 -11 0.28 0.1
-1 -4 -11 0.4 0.06
-1 -4 -11 0.33 0.07
-1 -4 -11 0.33 0.07
1 -4 11 0.4 0.08
-1 4 -11 0.47 0.09
-1 4 -11 0.38 0.07
1 4 11 0.56 0.09
1 4 11 0.38 0.07
-2 -4 -11 0.04 0.03
2 -4 11 0.1 0.03
-2 -4 -11 0.05 0.02
2 -4 11 0.07 0.03
-2 -4 -11 0.04 0.03
-2 -4 -11 0.05 0.03
-2 4 -11 0.06 0.03
2 4 11 0.06 0.02
-2 4 -11 0.08 0.03
-2 4 -11 0.11 0.04
-3 -4 -11 0.9 0.07
-3 -4 -11 1.19 0.11
-3 -4 -11 0.92 0.07
3 -4 11 0.94 0.1
-3 4 -11 0.94 0.09
3 4 11 1.18 0.1
-3 4 -11 1.06 0.13
3 4 11 1.07 0.08
-3 4 -11 1.21 0.11
-4 -4 -11 0.2 0.06
-4 -4 -11 0.38 0.09
4 -4 11 0.36 0.11
4 4 11 0.27 0.08
-5 -4 -11 0.14 0.05
-5 -4 -11 0.11 0.03
5 4 11 0.16 0.03
5 4 11 0.1 0.04
6 -5 -11 0.61 0.07
-6 -5 11 0.49 0.07
6 -5 -11 0.6 0.06
6 5 -11 0.41 0.09
-6 5 11 0.57 0.07
6 5 -11 0.47 0.1
5 -5 -11 2 0.11
5 -5 -11 1.81 0.1
-5 -5 11 1.9 0.11
5 -5 -11 2 0.1
-5 5 11 1.99 0.11
5 5 -11 2.14 0.12
5 5 -11 1.73 0.12
5 5 -11 1.8 0.13
-5 5 11 1.75 0.11
4 -5 -11 2.54 0.12
4 -5 -11 2.44 0.16
4 -5 -11 2.3 0.12
4 -5 -11 2.51 0.11
-4 -5 11 2.56 0.14
4 5 -11 2.45 0.14
4 5 -11 2.58 0.13
-4 5 11 2.37 0.12
-4 5 11 2.37 0.13
4 5 -11 2.47 0.13
3 -5 -11 2.19 0.12
3 -5 -11 2.48 0.12
3 -5 -11 2.39 0.1
3 -5 -11 2.35 0.14
-3 -5 11 2.28 0.12
-3 5 11 2.34 0.13
3 5 -11 2.21 0.12
-3 5 11 2.32 0.12
3 5 -11 2.53 0.13
2 -5 -11 2.12 0.11
2 -5 -11 2.36 0.13
-2 -5 11 2.23 0.12
2 -5 -11 2.25 0.1
-2 -5 11 2.24 0.13
2 5 -11 2.08 0.13
2 5 -11 1.89 0.15
-2 5 11 2.37 0.12
-2 5 11 2.13 0.13
2 5 -11 2.08 0.11
-2 5 11 2.18 0.11
1 -5 -11 1.86 0.09
1 -5 -11 1.88 0.12
-1 -5 11 1.87 0.12
-1 -5 11 1.96 0.11
1 -5 -11 1.96 0.1
1 5 -11 2.11 0.14
-1 5 11 2.02 0.11
1 5 -11 1.9 0.12
-1 5 11 1.8 0.1
-1 5 11 2.1 0.12
1 5 -11 1.76 0.11
0 -5 -11 0.06 0.03
0 -5 -11 0.05 0.03
0 -5 11 0.07 0.03
0 -5 -11 0.02 0.02
0 5 11 0.07 0.03
0 5 -11 0.06 0.03
0 5 11 0.06 0.03
0 5 -11 0.03 0.03
0 5 11 0.05 0.03
0 5 -11 0.03 0.03
1 -5 11 0.03 0.03
-1 -5 -11 0.03 0.02
-1 -5 -11 0 0.03
-1 -5 -11 0.05 0.03
1 -5 11 0.02 0.03
-1 -5 -11 0.02 0.02
1 5 11 -0.04 0.04
-1 5 -11 0.07 0.03
1 5 11 0.06 0.02
-1 5 -11 0 0.04
-1 5 -11 -0.03 0.03
2 -5 11 0.32 0.08
-2 -5 -11 0.17 0.04
-2 -5 -11 0.28 0.06
-2 -5 -11 0.17 0.04
2 -5 11 0.3 0.08
-2 5 -11 0.14 0.04
2 5 11 0.15 0.03
-3 -5 -11 0.62 0.07
-3 -5 -11 0.55 0.08
-3 -5 -11 0.57 0.06
3 -5 11 0.67 0.09
3 5 11 0.71 0.09
-3 5 -11 0.85 0.1
3 5 11 0.75 0.08
-3 5 -11 0.81 0.1
-4 -5 -11 0.53 0.09
-4 -5 -11 0.4 0.06
-4 -5 -11 0.39 0.09
-4 5 -11 0.41 0.09
-5 -5 -11 0.06 0.03
5 5 11 0.09 0.04
5 5 11 0.08 0.03
-5 5 -11 0.08 0.03
6 -6 -11 -0.03 0.02
-6 -6 11 0.02 0.02
6 -6 -11 0.02 0.02
6 -6 -11 -0.02 0.03
6 6 -11 0 0.04
-6 6 11 -0.01 0.04
5 -6 -11 2.18 0.11
5 -6 -11 2.29 0.11
5 6 -11 2.26 0.13
5 6 -11 1.96 0.15
-5 6 11 1.9 0.11
4 -6 -11 0.94 0.08
4 -6 -11 0.91 0.07
-4 -6 11 1.05 0.11
4 -6 -11 1.13 0.14
-4 -6 11 0.94 0.09
-4 6 11 0.92 0.09
-4 6 11 0.92 0.09
4 6 -11 0.93 0.09
4 6 -11 0.8 0.1
-4 6 11 0.89 0.1
-3 -6 11 1.24 0.11
3 -6 -11 1.43 0.08
-3 -6 11 1.39 0.1
3 -6 -11 1.33 0.12
3 -6 -11 1.54 0.09
-3 6 11 1.43 0.1
3 6 -11 1.29 0.1
3 6 -11 1.51 0.11
-3 6 11 1.38 0.12
-3 6 11 1.3 0.1
-2 -6 11 1.58 0.11
2 -6 -11 1.58 0.09
2 -6 -11 1.51 0.11
2 -6 -11 1.73 0.1
-2 -6 11 1.62 0.1
2 6 -11 1.61 0.1
2 6 -11 1.69 0.12
-2 6 11 1.57 0.12
-2 6 11 1.71 0.1
2 6 -11 1.63 0.13
-2 6 11 1.71 0.11
1 -6 -11 0.35 0.08
1 -6 -11 0.44 0.07
1 -6 -11 0.39 0.06
-1 -6 11 0.4 0.07
-1 6 11 0.35 0.07
1 6 -11 0.32 0.09
-1 6 11 0.41 0.08
1 6 -11 0.45 0.11
-1 6 11 0.43 0.08
1 6 -11 0.4 0.08
0 -6 -11 0.08 0.03
0 -6 -11 0.22 0.06
0 -6 11 0.1 0.03
0 -6 -11 0.21 0.05
0 6 11 0.08 0.03
0 6 -11 0.26 0.08
0 6 -11 0.12 0.04
0 6 11 0.1 0.03
0 6 11 0.09 0.03
0 6 -11 0.27 0.09
-1 -6 -11 0.13 0.03
-1 -6 -11 0.22 0.07
1 -6 11 0.17 0.03
-1 -6 -11 0.18 0.04
-1 6 -11 0.11 0.03
1 6 11 0.13 0.04
1 6 11 0.3 0.08
-1 6 -11 0.19 0.04
-2 -6 -11 0.5 0.08
-2 -6 -11 0.51 0.11
-2 -6 -11 0.54 0.07
2 -6 11 0.61 0.09
2 -6 11 0.66 0.08
-2 -6 -11 0.59 0.06
2 6 11 0.78 0.09
-2 6 -11 0.8 0.1
-2 6 -11 0.43 0.1
-2 6 -11 0.67 0.12
2 6 11 0.75 0.08
-3 -6 -11 0.9 0.07
3 -6 11 0.93 0.1
3 -6 11 1 0.09
-3 -6 -11 0.95 0.07
3 6 11 0.98 0.09
-3 6 -11 0.96 0.13
-3 6 -11 0.77 0.1
3 6 11 1.11 0.1
-4 -6 -11 2.29 0.1
-4 -6 -11 2.08 0.1
4 6 11 2.34 0.12
-4 6 -11 2.11 0.13
-5 -6 -11 0.24 0.09
5 -6 11 0.39 0.09
-5 6 -11 0.41 0.09
6 -7 -11 0 0.02
-6 -7 11 0.01 0.03
6 -7 -11 0.03 0.02
6 -7 -11 0.01 0.04
6 7 -11 0 0.04
-6 7 11 0.03 0.04
5 -7 -11 0.03 0.03
-5 -7 11 -0.01 0.04
-5 7 11 -0.04 0.05
4 -7 -11 4.25 0.17
4 -7 -11 4.59 0.15
4 -7 -11 4.62 0.17
4 7 -11 4.1 0.18
-4 7 11 4.03 0.17
-4 7 11 4.02 0.17
3 -7 -11 0.43 0.06
3 -7 -11 0.31 0.11
3 -7 -11 0.45 0.07
-3 -7 11 0.34 0.07
-3 -7 11 0.32 0.09
3 -7 -11 0.29 0.05
-3 7 11 0.53 0.08
3 7 -11 0.44 0.09
3 7 -11 0.34 0.11
-3 7 11 0.33 0.1
-3 7 11 0.45 0.08
2 -7 -11 1.58 0.11
2 -7 -11 1.84 0.1
-2 -7 11 1.73 0.1
2 -7 -11 1.67 0.08
-2 -7 11 1.58 0.12
-2 7 11 1.89 0.11
-2 7 11 1.71 0.11
2 7 -11 1.58 0.12
-2 7 11 1.58 0.11
-2 7 11 1.67 0.11
2 7 -11 1.72 0.14
-1 -7 11 0.38 0.07
1 -7 -11 0.3 0.07
1 -7 -11 0.32 0.05
1 -7 -11 0.37 0.08
-1 7 11 0.33 0.08
-1 7 11 0.48 0.09
-1 7 11 0.33 0.07
1 7 -11 0.47 0.1
-1 7 11 0.33 0.08
0 -7 -11 0.63 0.07
0 -7 -11 0.44 0.08
0 -7 11 0.55 0.09
0 -7 -11 0.53 0.06
0 7 11 0.6 0.09
0 7 11 0.48 0.09
0 7 11 0.64 0.07
0 7 -11 0.4 0.11
0 7 11 0.39 0.07
0 7 -11 0.48 0.09
1 -7 11 0.37 0.09
-1 -7 -11 0.41 0.05
-1 -7 -11 0.4 0.07
1 -7 11 0.5 0.07
-1 -7 -11 0.37 0.07
1 7 11 0.39 0.08
1 7 11 0.39 0.09
1 7 11 0.31 0.08
-1 7 -11 0.33 0.1
1 7 11 0.34 0.07
-2 -7 -11 1.68 0.08
-2 -7 -11 1.51 0.1
-2 -7 -11 1.78 0.14
-2 -7 -11 1.75 0.09
2 -7 11 1.54 0.11
2 -7 11 1.73 0.1
2 7 11 1.51 0.1
2 7 11 1.39 0.09
2 7 11 1.63 0.11
-2 7 -11 1.28 0.15
3 -7 11 0.35 0.1
3 -7 11 0.54 0.08
-3 -7 -11 0.43 0.06
-3 -7 -11 0.57 0.08
-3 -7 -11 0.61 0.1
-3 -7 -11 0.5 0.06
-3 7 -11 0.38 0.09
3 7 11 0.61 0.08
3 7 11 0.42 0.08
-4 -7 -11 0.34 0.09
-4 -7 -11 0.42 0.06
4 -7 11 0.36 0.09
4 -7 11 0.39 0.08
4 7 11 0.43 0.11
4 7 11 0.55 0.08
-5 -7 -11 0.6 0.09
5 7 11 0.54 0.09
-5 7 -11 0.73 0.09
6 -8 -11 0.29 0.06
-6 -8 11 0.3 0.1
6 -8 -11 0.47 0.07
6 8 -11 0.45 0.08
-6 8 11 0.44 0.07
5 -8 -11 0.21 0.07
-5 -8 11 0.09 0.04
-5 -8 11 0.04 0.03
5 -8 -11 0.07 0.02
-5 8 11 0.06 0.04
-5 8 11 0.01 0.04
5 8 -11 0.02 0.03
4 -8 -11 2.06 0.09
4 -8 -11 1.79 0.1
-4 -8 11 1.72 0.1
4 -8 -11 1.9 0.1
-4 8 11 1.85 0.11
4 8 -11 1.87 0.12
-4 8 11 1.83 0.11
3 -8 -11 1.19 0.09
-3 -8 11 1.47 0.12
-3 -8 11 1.3 0.09
3 -8 -11 1.44 0.09
3 -8 -11 1.36 0.08
3 -8 -11 1.18 0.13
-3 8 11 1.3 0.1
-3 8 11 1.47 0.09
3 8 -11 1.35 0.11
-3 8 11 1.25 0.1
2 -8 -11 0.38 0.09
2 -8 -11 0.53 0.06
-2 -8 11 0.3 0.1
-2 -8 11 0.5 0.07
-2 8 11 0.51 0.09
-2 8 11 0.55 0.08
2 8 -11 0.61 0.12
-2 8 11 0.44 0.09
2 8 -11 0.44 0.09
-1 -8 11 8.77 0.31
1 -8 -11 8.7 0.31
1 -8 -11 8.89 0.29
-1 -8 11 8.82 0.29
1 -8 -11 9.05 0.27
1 8 -11 8.8 0.34
-1 8 11 8.15 0.3
-1 8 11 8.72 0.3
-1 8 11 8.88 0.29
1 8 -11 8.93 0.32
-1 8 11 8.58 0.3
0 -8 11 0.1 0.03
0 -8 -11 0.08 0.03
0 -8 11 0.2 0.06
0 8 -11 0.05 0.03
0 8 -11 0.06 0.04
0 8 11 0.24 0.07
0 8 11 0.08 0.03
0 8 11 0.1 0.03
1 -8 11 0.12 0.03
1 8 11 0.3 0.08
-1 8 -11 0.15 0.05
1 8 11 0.1 0.03
-1 8 -11 0.12 0.04
1 8 11 0.13 0.03
-2 -8 -11 0.03 0.02
-2 -8 -11 0.01 0.02
-2 -8 -11 0.02 0.03
2 -8 11 0.01 0.03
2 8 11 0 0.04
2 8 11 -0.05 0.03
2 8 11 0.03 0.03
-3 -8 -11 0.07 0.03
3 -8 11 0.06 0.03
3 -8 11 0 0.03
-3 -8 -11 0.05 0.02
-3 -8 -11 0.04 0.03
-3 8 -11 0.01 0.03
3 8 11 0.09 0.03
4 -8 11 0.52 0.11
-4 -8 -11 0.57 0.06
-4 -8 -11 0.67 0.06
-4 -8 -11 0.64 0.08
4 -8 11 0.76 0.08
-5 8 -11 1.03 0.13
5 8 11 1.08 0.09
5 -9 -11 0.52 0.07
5 -9 -11 0.38 0.06
5 -9 -11 0.48 0.07
-5 -9 11 0.29 0.08
-5 -9 11 0.61 0.11
-5 9 11 0.37 0.06
-4 -9 11 0.54 0.12
4 -9 -11 0.33 0.07
4 -9 -11 0.38 0.06
4 9 -11 0.31 0.09
3 -9 -11 1.09 0.08
-3 -9 11 1.15 0.13
3 -9 -11 0.79 0.09
3 -9 -11 1.08 0.07
-3 -9 11 0.88 0.08
-3 9 11 0.78 0.1
3 9 -11 0.89 0.1
-3 9 11 0.91 0.1
-3 9 11 1 0.09
-2 -9 11 0.26 0.07
2 -9 -11 0.22 0.05
2 -9 -11 0.16 0.05
-2 9 11 0.26 0.07
2 9 -11 0.14 0.04
-2 9 11 0.16 0.06
-2 9 11 0.1 0.03
1 -9 -11 0.73 0.06
-1 -9 11 0.57 0.1
-1 -9 11 0.73 0.07
1 -9 -11 0.75 0.09
1 -9 -11 0.74 0.08
-1 9 11 0.7 0.08
-1 9 11 0.73 0.09
-1 9 11 0.44 0.13
1 9 -11 0.5 0.11
1 9 -11 0.52 0.1
-1 9 11 0.67 0.08
0 -9 11 5.41 0.21
0 -9 -11 5.33 0.19
0 -9 -11 5.2 0.17
0 -9 -11 5.07 0.2
0 -9 11 5.16 0.19
0 9 11 5.01 0.19
0 9 11 5.07 0.19
0 9 11 5.13 0.19
0 9 -11 5.05 0.22
1 -9 11 1.36 0.09
1 -9 11 1.16 0.12
-1 -9 -11 1.43 0.1
-1 -9 -11 1.37 0.09
1 9 11 1.39 0.1
-1 9 -11 1.42 0.15
1 9 11 1.41 0.1
1 9 11 1.32 0.09
2 -9 11 0.46 0.11
-2 -9 -11 0.54 0.08
-2 -9 -11 0.56 0.05
-2 -9 -11 0.41 0.07
2 9 11 0.48 0.08
2 9 11 0.5 0.08
-3 -9 -11 0.62 0.07
-3 -9 -11 0.57 0.05
3 9 11 0.61 0.09
-4 9 -11 0.29 0.08
4 9 11 0.31 0.08
5 -10 -11 0.13 0.04
-5 -10 11 0.06 0.03
-5 10 11 0.09 0.05
5 10 -11 0.04 0.03
-5 10 11 0.04 0.04
-4 -10 11 0.22 0.06
4 -10 -11 0.23 0.06
-4 10 11 0.12 0.04
3 -10 -11 1.43 0.07
3 -10 -11 1.36 0.09
-3 -10 11 1.37 0.09
-3 10 11 1.51 0.1
3 10 -11 1.19 0.1
-3 10 11 1.35 0.11
-2 -10 11 4.42 0.2
2 -10 -11 4.32 0.19
-2 -10 11 4.54 0.17
2 -10 -11 4.77 0.17
2 -10 -11 4.66 0.16
2 10 -11 4.71 0.2
-2 10 11 4.45 0.18
2 10 -11 4.58 0.19
-2 10 11 4.31 0.18
-2 10 11 4.63 0.17
1 -10 -11 0.5 0.07
1 -10 -11 0.46 0.05
-1 -10 11 0.44 0.07
1 -10 -11 0.39 0.09
-1 -10 11 0.62 0.11
-1 10 11 0.31 0.08
-1 10 11 0.45 0.07
-1 10 11 0.33 0.08
1 10 -11 0.3 0.05
0 -10 -11 0.47 0.05
0 -10 -11 0.5 0.07
0 -10 -11 0.54 0.08
0 -10 11 0.59 0.07
0 -10 11 0.54 0.11
0 10 11 0.5 0.08
0 10 11 0.54 0.08
0 10 -11 0.35 0.1
0 10 11 0.39 0.07
1 -10 11 0.11 0.04
1 -10 11 0.22 0.06
-1 -10 -11 0.26 0.07
1 10 11 0.15 0.04
1 10 11 0.17 0.03
1 10 11 0.23 0.08
2 -10 11 0.22 0.07
-2 -10 -11 0.07 0.03
2 10 11 0.09 0.03
2 10 11 0.05 0.04
-2 10 -11 0.1 0.04
3 -10 11 -0.06 0.04
-3 -10 -11 0.02 0.02
-3 -10 -11 0.06 0.04
3 10 11 -0.04 0.05
3 10 11 0.01 0.03
-4 -10 -11 0.1 0.03
4 10 11 0.08 0.03
-4 10 -11 0.04 0.04
-5 11 11 0.34 0.08
5 11 -11 0.34 0.08
-4 -11 11 0.38 0.07
4 -11 -11 0.45 0.1
4 -11 -11 0.46 0.08
-4 11 11 0.42 0.08
-4 11 11 0.41 0.08
4 11 -11 0.4 0.09
-3 -11 11 0.18 0.06
3 -11 -11 0.31 0.1
3 -11 -11 0.29 0.05
-3 11 11 0.32 0.08
-3 11 11 0.3 0.09
-2 -11 11 2.53 0.11
2 -11 -11 2.12 0.16
2 -11 -11 2.45 0.1
-2 11 11 2.58 0.12
2 11 -11 2.24 0.13
-2 11 11 2.31 0.12
-1 -11 11 0.29 0.06
1 -11 -11 0.14 0.04
1 11 -11 0.22 0.05
1 11 -11 0.34 0.09
-1 11 11 0.17 0.03
-1 11 11 0.17 0.03
0 -11 -11 0.09 0.03
0 -11 11 0.07 0.02
0 -11 -11 0.03 0.02
0 -11 11 -0.02 0.05
0 -11 -11 0.08 0.03
0 11 -11 -0.02 0.03
0 11 11 0.03 0.04
0 11 11 0.02 0.03
0 11 11 0.04 0.03
0 11 -11 0.06 0.03
1 -11 11 0.08 0.03
-1 -11 -11 0.17 0.05
-1 -11 -11 0.09 0.03
1 11 11 0.06 0.03
1 11 11 0.04 0.03
-1 11 -11 0.11 0.03
2 -11 11 -0.02 0.03
-2 -11 -11 0.03 0.02
2 -11 11 -0.01 0.05
-2 11 -11 -0.06 0.04
2 11 11 0 0.03
2 11 11 -0.05 0.04
3 -11 11 -0.02 0.06
-3 -11 -11 0.08 0.03
-3 11 -11 0.04 0.04
-4 -11 -11 0.3 0.05
-4 11 -11 0.35 0.12
-4 -12 11 -0.03 0.03
4 -12 -11 0 0.04
-4 12 11 -0.05 0.03
-4 12 11 -0.03 0.03
-4 12 11 0.03 0.05
4 12 -11 0.05 0.03
3 -12 -11 0.27 0.07
3 12 -11 0.18 0.04
-3 12 11 0.16 0.06
-3 12 11 0.12 0.03
-2 -12 11 2.34 0.22
2 -12 -11 2.04 0.13
-2 -12 11 2.19 0.11
-2 12 11 2.04 0.11
2 12 -11 2.09 0.14
-1 -12 11 0.07 0.05
1 -12 -11 0.04 0.05
1 12 -11 0.11 0.05
-1 12 11 0.09 0.03
-1 12 11 0.11 0.03
0 -12 -11 0.39 0.05
0 -12 11 0.41 0.06
0 12 11 0.34 0.07
0 12 11 0.36 0.07
1 12 11 0.08 0.04
2 -12 11 0 0.02
-2 -12 -11 0.01 0.02
-2 -12 -11 -0.02 0.03
2 12 11 -0.02 0.03
2 12 11 -0.04 0.05
-2 12 -11 0.03 0.04
2 12 11 0.02 0.03
-3 -12 -11 0.12 0.04
3 -12 11 0.1 0.03
-3 12 -11 0.06 0.04
-4 -13 11 0.66 0.06
4 -13 -11 0.83 0.06
4 13 -11 0.82 0.1
3 -13 -11 2.3 0.12
3 -13 -11 2.51 0.1
-3 13 11 2.51 0.11
-3 13 11 2.25 0.12
-2 -13 11 0.05 0.02
2 -13 -11 0.05 0.02
2 13 -11 0.12 0.05
-2 13 11 0.08 0.03
-2 13 11 0.08 0.03
2 13 -11 0.06 0.04
1 -13 -11 0.48 0.05
-1 13 11 0.43 0.07
-1 13 11 0.47 0.06
-1 13 11 0.62 0.08
1 13 -11 0.57 0.1
0 -13 -11 0.06 0.02
0 -13 -11 0.03 0.04
0 13 11 0.03 0.03
0 13 11 0.09 0.03
1 -13 11 0.37 0.06
1 13 11 0.4 0.07
1 13 11 0.56 0.09
1 13 11 0.51 0.07
-1 13 -11 0.39 0.08
2 -13 11 0 0.03
-2 -13 -11 0.01 0.03
2 13 11 0.02 0.03
2 13 11 0.07 0.03
2 13 11 -0.08 0.05
-2 13 -11 -0.06 0.03
3 -13 11 0.09 0.03
-3 -13 -11 0.02 0.03
3 13 11 0.07 0.03
-3 13 -11 0.02 0.04
3 -14 -11 1.25 0.12
-3 -14 11 1.27 0.07
-3 14 11 1.25 0.1
-3 14 11 1.15 0.09
-2 -14 11 0.22 0.06
2 14 -11 0.12 0.06
-1 -14 11 0.03 0.02
1 -14 -11 0 0.02
-1 14 11 0.01 0.03
-1 14 11 0.08 0.03
1 14 -11 0.12 0.05
0 -14 -11 0.04 0.02
0 -14 -11 0.03 0.05
0 -14 11 0.05 0.02
0 14 11 0.02 0.03
0 14 11 0.08 0.04
0 14 11 -0.01 0.03
1 -14 11 0.11 0.03
-1 -14 -11 0.09 0.05
-1 -14 -11 0.09 0.02
1 14 11 -0.01 0.05
1 14 11 0.22 0.07
1 14 11 0.05 0.03
2 14 11 0.06 0.03
-2 -15 11 0.1 0.03
-2 15 11 0.17 0.03
1 -15 -11 0.34 0.06
-1 -15 11 0.28 0.06
1 15 -11 0.45 0.11
0 -15 -11 0.23 0.06
0 15 -11 0.42 0.09
-1 -15 -11 0.07 0.02
1 -15 11 0.11 0.03
6 0 -12 -0.01 0.03
6 0 -12 0.04 0.03
5 0 -12 0.92 0.09
5 0 -12 1.05 0.08
-5 0 12 1.21 0.09
5 0 -12 1.27 0.12
4 0 -12 0.06 0.04
4 0 -12 0.1 0.03
-4 0 12 0.09 0.03
-3 0 12 -0.02 0.02
3 0 -12 0.03 0.03
3 0 -12 0.01 0.04
-3 0 12 -0.06 0.05
-2 0 12 1.53 0.11
-2 0 12 1.75 0.11
2 0 -12 1.79 0.11
2 0 -12 1.71 0.1
2 0 -12 1.86 0.11
1 0 -12 3.2 0.15
1 0 -12 3 0.14
1 0 -12 3.15 0.13
-1 0 12 3.46 0.15
1 0 -12 3.24 0.15
0 0 -12 0.4 0.07
0 0 12 0.44 0.08
0 0 -12 0.47 0.08
0 0 -12 0.64 0.13
0 0 -12 0.39 0.08
-1 0 -12 2.54 0.12
-1 0 -12 2.59 0.15
-1 0 -12 2.24 0.13
-1 0 -12 2.39 0.13
1 0 12 2.66 0.12
2 0 12 0.93 0.08
-2 0 -12 0.66 0.09
-2 0 -12 0.65 0.08
-2 0 -12 0.84 0.11
-3 0 -12 0.96 0.08
3 0 12 1.03 0.08
4 0 12 0.35 0.07
-4 0 -12 0.28 0.07
-6 -1 12 0.06 0.03
6 -1 -12 0.12 0.04
-6 1 12 0.09 0.04
5 -1 -12 -0.02 0.04
5 -1 -12 0.07 0.02
5 -1 -12 0.11 0.06
5 1 -12 0.09 0.04
-5 1 12 0.04 0.02
5 1 -12 0.05 0.03
4 -1 -12 0.07 0.04
4 -1 -12 0.09 0.03
-4 -1 12 0.06 0.02
4 1 -12 0.11 0.03
-4 1 12 0.1 0.03
4 1 -12 0.06 0.04
3 -1 -12 1.23 0.09
3 -1 -12 1.23 0.1
3 -1 -12 1.16 0.09
-3 -1 12 1.1 0.09
3 -1 -12 1.19 0.08
-3 1 12 1.2 0.12
3 1 -12 1.17 0.11
3 1 -12 1.24 0.1
-3 1 12 1.12 0.09
3 1 -12 1.29 0.08
2 -1 -12 0.11 0.04
2 -1 -12 0.06 0.03
2 -1 -12 0 0.03
2 -1 -12 0.03 0.03
-2 -1 12 0.04 0.04
-2 -1 12 0.03 0.02
2 1 -12 0 0.05
-2 1 12 0.03 0.02
2 1 -12 0.04 0.03
1 -1 -12 1.46 0.1
-1 -1 12 1.32 0.1
1 -1 -12 1.32 0.09
1 -1 -12 1.37 0.09
1 1 -12 1.55 0.11
-1 1 12 1.48 0.1
1 1 -12 1.63 0.16
1 1 -12 1.26 0.09
-1 1 12 1.44 0.1
1 1 -12 1.23 0.11
0 -1 -12 1.24 0.08
0 -1 -12 1.11 0.09
0 -1 -12 1.27 0.1
0 -1 12 1.25 0.09
0 -1 -12 1.18 0.14
0 1 -12 0.97 0.12
0 1 -12 1.32 0.13
0 1 12 1.24 0.09
0 1 -12 1.33 0.09
0 1 -12 1.14 0.1
-1 -1 -12 2.09 0.11
-1 -1 -12 2.26 0.11
-1 -1 -12 2.07 0.12
-1 -1 -12 2.2 0.14
1 -1 12 2.19 0.12
-1 1 -12 2.08 0.12
-1 1 -12 2.2 0.11
-1 1 -12 2.15 0.14
1 1 12 2.16 0.11
-2 -1 -12 4.58 0.19
-2 -1 -12 4.99 0.21
-2 -1 -12 4.58 0.18
-2 -1 -12 4.46 0.18
2 -1 12 4.93 0.18
2 1 12 4.98 0.18
-2 1 -12 4.99 0.21
-2 1 -12 4.56 0.19
-2 1 -12 4.86 0.18
3 -1 12 0.07 0.02
-3 -1 -12 0.04 0.03
-3 1 -12 0.09 0.03
3 1 12 0.05 0.02
4 -1 12 0.05 0.03
-4 -1 -12 0.07 0.03
-4 -1 -12 0.09 0.06
-4 1 -12 0.01 0.03
4 1 12 0.04 0.02
6 -2 -12 0.96 0.08
6 -2 -12 1 0.07
-6 2 12 0.9 0.08
-5 -2 12 0.83 0.08
5 -2 -12 0.57 0.15
5 -2 -12 0.74 0.07
5 2 -12 0.74 0.08
5 2 -12 0.93 0.09
-5 2 12 0.73 0.07
4 -2 -12 0.34 0.06
4 -2 -12 0.25 0.08
-4 -2 12 0.41 0.08
4 2 -12 0.3 0.07
-4 2 12 0.32 0.07
3 -2 -12 0.84 0.09
3 -2 -12 1.12 0.1
3 -2 -12 0.91 0.08
3 -2 -12 0.87 0.08
-3 -2 12 0.89 0.09
-3 2 12 0.94 0.09
3 2 -12 0.95 0.08
-3 2 12 0.77 0.1
3 2 -12 1.03 0.1
3 2 -12 1.12 0.1
2 -2 -12 4.03 0.17
2 -2 -12 4.12 0.15
-2 -2 12 3.98 0.17
2 -2 -12 4.11 0.16
2 -2 -12 4.09 0.17
-2 -2 12 3.92 0.17
2 2 -12 4.09 0.16
2 2 -12 3.98 0.18
-2 2 12 4.21 0.16
-2 2 12 3.95 0.16
1 -2 -12 0.92 0.08
-1 -2 12 0.94 0.09
1 -2 -12 0.97 0.08
1 -2 -12 1.02 0.09
1 2 -12 0.95 0.12
-1 2 12 1.01 0.09
-1 2 12 1.17 0.09
1 2 -12 0.94 0.09
1 2 -12 0.9 0.08
1 2 -12 1.04 0.15
0 -2 12 2.98 0.14
0 -2 -12 3.13 0.15
0 -2 -12 3.03 0.19
0 -2 -12 3.02 0.13
0 -2 -12 3.1 0.12
0 2 -12 3.21 0.17
0 2 -12 2.97 0.13
0 2 12 3.11 0.14
0 2 -12 3.03 0.15
-1 -2 -12 0.08 0.03
1 -2 12 0.06 0.02
-1 -2 -12 0.08 0.04
-1 -2 -12 0.11 0.04
-1 2 -12 0.06 0.03
-1 2 -12 0.08 0.04
-1 2 -12 0.05 0.04
2 -2 12 0.7 0.08
-2 -2 -12 0.49 0.07
-2 -2 -12 0.63 0.09
-2 -2 -12 0.77 0.08
-2 2 -12 0.6 0.1
-2 2 -12 0.7 0.08
2 2 12 0.55 0.08
-2 2 -12 0.73 0.11
3 -2 12 0.86 0.08
-3 -2 -12 0.76 0.07
-3 -2 -12 0.76 0.1
-3 -2 -12 1 0.12
-3 2 -12 0.77 0.1
-3 2 -12 0.81 0.12
3 2 12 0.85 0.08
-4 -2 -12 0.05 0.03
4 -2 12 0.02 0.03
-4 2 -12 0.09 0.03
5 3 -12 0.08 0.03
5 3 -12 0.14 0.05
-5 3 12 0.1 0.04
4 -3 -12 1.27 0.08
4 -3 -12 1.19 0.09
-4 -3 12 1.26 0.1
4 3 -12 1.36 0.1
-4 3 12 1.06 0.09
4 3 -12 1.02 0.11
3 -3 -12 1.77 0.1
-3 -3 12 1.65 0.11
3 -3 -12 1.61 0.09
3 -3 -12 1.59 0.11
3 3 -12 1.85 0.12
3 3 -12 1.79 0.12
3 3 -12 1.72 0.1
-3 3 12 1.8 0.1
-2 -3 12 1.78 0.11
2 -3 -12 1.93 0.1
-2 -3 12 1.81 0.13
2 -3 -12 1.99 0.09
2 -3 -12 2.03 0.12
2 -3 -12 1.89 0.11
2 3 -12 1.92 0.12
2 3 -12 1.88 0.14
-2 3 12 1.96 0.11
2 3 -12 1.93 0.11
-2 3 12 1.86 0.1
1 -3 -12 0.79 0.07
1 -3 -12 0.76 0.09
1 -3 -12 0.78 0.07
-1 -3 12 0.8 0.11
-1 -3 12 0.62 0.08
-1 3 12 0.87 0.08
1 3 -12 0.76 0.08
1 3 -12 0.74 0.14
1 3 -12 0.72 0.09
-1 3 12 0.76 0.08
0 -3 -12 0.22 0.06
0 -3 12 0.09 0.04
0 -3 -12 0.26 0.08
0 -3 12 0.3 0.08
0 3 -12 0.27 0.07
0 3 -12 0.15 0.04
0 3 12 0.23 0.07
0 3 -12 0.15 0.04
1 -3 12 2.27 0.12
-1 -3 -12 2.42 0.16
-1 -3 -12 2.46 0.12
-1 -3 -12 2.43 0.11
-1 -3 -12 2.27 0.11
1 -3 12 2.32 0.14
-1 3 -12 2.39 0.12
-1 3 -12 2.35 0.13
1 3 12 2.46 0.12
-1 3 -12 2.21 0.14
-2 -3 -12 0.34 0.07
-2 -3 -12 0.32 0.08
2 -3 12 0.45 0.08
-2 -3 -12 0.39 0.07
2 3 12 0.4 0.08
-2 3 -12 0.51 0.08
-2 3 -12 0.55 0.1
3 -3 12 0.28 0.07
-3 -3 -12 0.26 0.06
-3 3 -12 0.39 0.09
3 3 12 0.37 0.08
-3 3 -12 0.22 0.07
-4 -3 -12 0.05 0.04
-4 3 -12 0.1 0.03
4 3 12 0.03 0.03
5 -4 -12 0.5 0.08
-5 -4 12 0.52 0.07
5 -4 -12 0.5 0.07
5 -4 -12 0.45 0.07
-5 4 12 0.67 0.08
5 4 -12 0.65 0.1
-5 4 12 0.36 0.11
5 4 -12 0.57 0.13
4 -4 -12 1.13 0.08
4 -4 -12 1.03 0.08
4 -4 -12 1.35 0.13
-4 -4 12 1.32 0.1
4 4 -12 1.41 0.12
4 4 -12 1.28 0.1
4 4 -12 1.07 0.1
3 -4 -12 0.85 0.07
-3 -4 12 1.03 0.09
3 -4 -12 0.88 0.08
3 -4 -12 0.85 0.08
3 4 -12 0.74 0.08
-3 4 12 0.71 0.1
3 4 -12 0.8 0.09
-3 4 12 0.97 0.09
2 -4 -12 0.3 0.06
-2 -4 12 0.14 0.03
-2 -4 12 0.17 0.05
2 -4 -12 0.19 0.04
2 -4 -12 0.24 0.06
-2 4 12 0.16 0.04
2 4 -12 0.25 0.08
2 4 -12 0.21 0.07
-2 4 12 0.25 0.07
1 -4 -12 0.79 0.07
-1 -4 12 0.73 0.1
1 -4 -12 0.73 0.09
-1 -4 12 0.64 0.09
1 -4 -12 0.82 0.07
1 4 -12 0.69 0.09
-1 4 12 0.65 0.08
-1 4 12 0.78 0.08
1 4 -12 0.79 0.13
1 4 -12 0.82 0.08
0 -4 -12 2.08 0.1
0 -4 12 1.97 0.12
0 -4 12 2.01 0.12
0 -4 -12 2.11 0.09
0 -4 -12 1.87 0.11
0 4 -12 1.92 0.14
0 4 12 2.04 0.1
0 4 -12 1.88 0.11
0 4 -12 1.87 0.12
0 4 12 2.01 0.11
-1 -4 -12 1.12 0.09
-1 -4 -12 1.06 0.08
1 -4 12 1.11 0.11
-1 -4 -12 1.13 0.07
-1 -4 -12 1.24 0.15
1 -4 12 1.22 0.09
-1 4 -12 1.2 0.11
1 4 12 1.13 0.09
-1 4 -12 1.14 0.09
-1 4 -12 1.21 0.11
-2 -4 -12 2.38 0.14
2 -4 12 2.21 0.12
-2 -4 -12 2.09 0.12
-2 -4 -12 2.14 0.1
-2 -4 -12 2.18 0.11
-2 4 -12 2.08 0.13
2 4 12 2.39 0.11
-2 4 -12 2.06 0.14
-2 4 -12 2.45 0.12
-3 -4 -12 0.38 0.06
-3 -4 -12 0.63 0.1
-3 -4 -12 0.47 0.08
3 -4 12 0.54 0.08
-3 4 -12 0.46 0.1
3 4 12 0.63 0.09
-4 -4 -12 0.08 0.03
-4 -4 -12 0.11 0.04
-4 -4 -12 0.04 0.02
4 -4 12 0.03 0.03
4 4 12 0.08 0.03
-4 4 -12 0.02 0.03
5 -5 -12 0.37 0.06
5 -5 -12 0.33 0.07
-5 -5 12 0.21 0.07
5 -5 -12 0.36 0.07
5 5 -12 0.42 0.09
4 -5 -12 1.32 0.09
4 -5 -12 1.46 0.14
-4 5 12 1.03 0.11
4 5 -12 1.13 0.1
3 -5 -12 2.86 0.13
3 -5 -12 2.81 0.12
-3 -5 12 2.76 0.14
3 -5 -12 2.87 0.12
3 -5 -12 2.95 0.15
-3 5 12 2.86 0.13
3 5 -12 2.88 0.14
-2 -5 12 0.52 0.09
2 -5 -12 0.43 0.07
2 -5 -12 0.41 0.08
2 -5 -12 0.43 0.06
2 5 -12 0.4 0.08
-2 5 12 0.42 0.08
-2 5 12 0.39 0.08
-1 -5 12 2.21 0.12
1 -5 -12 2.2 0.11
1 -5 -12 2.04 0.12
1 -5 -12 2.17 0.1
-1 5 12 2.12 0.11
1 5 -12 1.89 0.12
1 5 -12 1.87 0.11
1 5 -12 2.08 0.15
-1 5 12 2.1 0.11
0 -5 12 0.81 0.09
0 -5 -12 0.81 0.08
0 -5 12 0.9 0.09
0 -5 -12 0.81 0.08
0 -5 -12 0.85 0.07
0 5 -12 0.63 0.1
0 5 -12 0.59 0.11
0 5 12 0.64 0.08
0 5 -12 0.76 0.09
-1 -5 -12 3.39 0.12
1 -5 12 3.4 0.15
1 -5 12 3.51 0.15
-1 -5 -12 3.26 0.15
-1 -5 -12 3.34 0.13
-1 5 -12 3.37 0.17
-1 5 -12 3.13 0.14
1 5 12 3.31 0.13
-1 5 -12 3.35 0.16
1 5 12 3.25 0.14
1 5 12 2.98 0.16
2 -5 12 0.57 0.08
-2 -5 -12 0.57 0.08
-2 -5 -12 0.52 0.07
-2 -5 -12 0.49 0.06
-2 5 -12 0.7 0.1
2 5 12 0.55 0.08
-3 -5 -12 0.08 0.04
3 -5 12 0.13 0.05
4 -5 12 0.03 0.03
-4 -5 -12 0.02 0.02
-4 -5 -12 0.05 0.04
-4 5 -12 -0.02 0.03
5 -6 -12 0.52 0.07
-5 -6 12 0.44 0.08
5 -6 -12 0.52 0.07
5 -6 -12 0.55 0.07
-5 6 12 0.45 0.08
5 6 -12 0.68 0.09
4 -6 -12 0.38 0.07
-4 -6 12 0.49 0.09
4 -6 -12 0.32 0.06
4 -6 -12 0.36 0.07
-4 6 12 0.32 0.08
-4 6 12 0.48 0.1
3 -6 -12 1.77 0.1
3 -6 -12 2.01 0.09
-3 -6 12 1.89 0.12
3 -6 -12 1.84 0.11
3 6 -12 1.88 0.13
-3 6 12 1.95 0.11
-3 6 12 1.85 0.11
3 6 -12 2.11 0.12
2 -6 -12 0.32 0.07
-2 -6 12 0.25 0.08
-2 -6 12 0.39 0.08
2 -6 -12 0.25 0.08
2 -6 -12 0.33 0.06
2 6 -12 0.31 0.09
-2 6 12 0.41 0.09
1 -6 -12 0.81 0.09
1 -6 -12 0.84 0.07
1 -6 -12 0.95 0.07
-1 -6 12 0.84 0.09
-1 6 12 0.84 0.08
1 6 -12 1.02 0.1
0 -6 -12 1.59 0.1
0 -6 -12 1.72 0.08
0 -6 12 1.55 0.11
0 6 -12 1.72 0.11
0 6 12 1.4 0.1
0 6 -12 1.41 0.13
0 6 12 1.62 0.1
0 6 -12 1.45 0.11
-1 -6 -12 0.48 0.07
-1 -6 -12 0.39 0.07
1 -6 12 0.4 0.08
-1 -6 -12 0.34 0.05
1 -6 12 0.54 0.08
-1 6 -12 0.39 0.1
1 6 12 0.47 0.12
-1 6 -12 0.46 0.1
-1 6 -12 0.51 0.11
-2 -6 -12 0.82 0.07
-2 -6 -12 0.79 0.06
-2 -6 -12 0.88 0.08
2 -6 12 0.93 0.09
2 6 12 0.65 0.08
-2 6 -12 0.78 0.1
-2 6 -12 0.61 0.14
-3 -6 -12 0.27 0.06
3 -6 12 0.39 0.08
-3 -6 -12 0.24 0.07
-3 -6 -12 0.36 0.06
3 6 12 0.3 0.08
3 6 12 0.48 0.12
4 -6 12 0.72 0.09
-4 -6 -12 0.53 0.07
-4 -6 -12 0.61 0.11
-4 -6 -12 0.47 0.06
5 -7 -12 0.07 0.04
-5 7 12 0.09 0.03
5 7 -12 0.12 0.04
4 -7 -12 0.22 0.06
4 -7 -12 0.18 0.06
4 -7 -12 0.33 0.07
-4 -7 12 0.27 0.09
-4 7 12 0.36 0.09
-3 -7 12 0.11 0.03
3 -7 -12 0.11 0.02
3 -7 -12 0.14 0.04
-3 -7 12 0.15 0.04
3 -7 -12 0.23 0.06
3 -7 -12 0.23 0.06
2 -7 -12 2.88 0.14
-2 -7 12 2.81 0.14
-2 -7 12 2.57 0.13
2 -7 -12 2.74 0.11
2 -7 -12 2.78 0.12
2 7 -12 2.99 0.14
-2 7 12 2.71 0.13
1 -7 -12 0.09 0.03
1 -7 -12 0.07 0.03
-1 -7 12 0.09 0.03
-1 7 12 0.03 0.03
1 7 -12 0.04 0.04
0 -7 12 0.89 0.1
0 -7 -12 1.03 0.06
0 -7 12 1.1 0.09
0 -7 -12 1.04 0.08
0 -7 -12 1.13 0.09
0 7 -12 0.91 0.11
0 7 12 0.84 0.1
0 7 -12 0.76 0.11
0 7 12 0.81 0.09
-1 -7 -12 0.05 0.03
1 -7 12 0.01 0.03
-1 -7 -12 0.03 0.02
-1 -7 -12 0.01 0.03
-1 7 -12 -0.03 0.03
1 7 12 0.02 0.03
-2 -7 -12 0.04 0.03
-2 -7 -12 0.01 0.03
2 7 12 -0.05 0.03
2 7 12 0.01 0.04
-3 -7 -12 0.03 0.03
3 -7 12 0.04 0.03
-3 -7 -12 0.07 0.05
-3 -7 -12 0.03 0.02
3 7 12 0.04 0.04
3 7 12 0.05 0.04
-3 7 -12 0.02 0.03
-4 -7 -12 0.23 0.06
-4 7 -12 0.35 0.09
-4 -8 12 0.38 0.1
4 -8 -12 0.27 0.06
4 -8 -12 0.32 0.07
-4 8 12 0.36 0.1
-3 -8 12 0.02 0.03
-3 -8 12 0.01 0.03
3 -8 -12 0 0.03
3 -8 -12 -0.05 0.06
-3 8 12 -0.07 0.05
-3 8 12 0.05 0.04
-2 -8 12 1.33 0.11
-2 -8 12 1.16 0.1
2 -8 -12 1.14 0.07
2 -8 -12 1.29 0.09
2 8 -12 1.05 0.1
-2 8 12 1.22 0.09
-2 8 12 1.13 0.12
-1 -8 12 1.51 0.11
-1 -8 12 1.77 0.1
1 -8 -12 1.65 0.08
1 -8 -12 1.72 0.11
1 -8 -12 1.63 0.09
-1 8 12 1.45 0.1
1 8 -12 1.46 0.12
0 -8 12 0.72 0.08
0 -8 -12 0.71 0.06
0 -8 -12 0.76 0.08
0 -8 -12 0.56 0.07
-1 -8 -12 0.27 0.07
1 -8 12 0.33 0.08
-1 -8 -12 0.24 0.05
-1 8 -12 0.19 0.06
2 -8 12 -0.02 0.03
-2 -8 -12 0.06 0.02
-2 -8 -12 0.06 0.03
2 8 12 0 0.04
2 8 12 0.03 0.04
-3 -8 -12 0.01 0.03
3 -8 12 0.05 0.04
3 -8 12 -0.03 0.03
-3 -8 -12 0.01 0.02
-3 -8 -12 -0.02 0.03
3 8 12 0.07 0.05
-3 8 -12 -0.05 0.03
3 8 12 -0.03 0.04
4 -9 -12 0.18 0.04
-4 -9 12 0.36 0.12
4 -9 -12 0.14 0.03
-4 9 12 0.1 0.04
-4 9 12 0.21 0.05
4 9 -12 0.1 0.03
3 -9 -12 0.07 0.03
-3 -9 12 -0.03 0.03
3 -9 -12 0.02 0.03
-3 -9 12 0.02 0.04
3 -9 -12 0 0.02
-3 9 12 0.03 0.05
3 9 -12 0.03 0.03
-3 9 12 -0.04 0.03
2 -9 -12 1.32 0.09
2 -9 -12 1.48 0.08
-2 -9 12 1.34 0.1
-2 -9 12 1.29 0.12
2 -9 -12 1.6 0.13
-2 9 12 1.12 0.12
-2 9 12 1.27 0.13
-1 -9 12 0.38 0.08
1 -9 -12 0.26 0.05
1 9 -12 0.36 0.11
0 -9 -12 1.12 0.1
0 -9 -12 1.07 0.06
0 9 12 0.95 0.1
0 9 12 0.92 0.08
-1 -9 -12 0.06 0.03
1 -9 12 0.03 0.03
1 9 12 0.05 0.03
-2 -9 -12 0.05 0.02
-2 -9 -12 0.03 0.03
2 -9 12 0.03 0.03
2 9 12 0.08 0.03
-3 -9 -12 -0.06 0.03
-3 -9 -12 -0.01 0.02
-3 -9 -12 -0.04 0.03
3 9 12 -0.01 0.04
-3 9 -12 -0.06 0.03
3 9 12 -0.01 0.06
4 -10 -12 0.05 0.04
-3 -10 12 0.95 0.15
3 -10 -12 0.64 0.07
3 -10 -12 0.68 0.09
3 -10 -12 0.66 0.06
3 10 -12 0.54 0.09
-3 10 12 0.57 0.08
2 -10 -12 0.3 0.08
-2 -10 12 0.23 0.06
2 -10 -12 0.28 0.05
-2 -10 12 0.5 0.13
-2 10 12 0.37 0.07
-1 -10 12 0.57 0.07
1 -10 -12 0.55 0.09
-1 -10 12 0.36 0.11
1 -10 -12 0.64 0.11
1 10 -12 0.47 0.11
0 -10 12 0.38 0.12
0 -10 12 0.46 0.07
0 -10 -12 0.46 0.08
0 -10 -12 0.46 0.08
0 10 -12 0.43 0.13
1 -10 12 0.03 0.04
-1 -10 -12 0.12 0.03
1 10 12 0.11 0.04
1 10 12 0.12 0.04
1 10 12 0.06 0.03
-1 10 -12 0.08 0.03
-2 -10 -12 0.03 0.02
2 -10 12 0.04 0.03
-2 -10 -12 -0.01 0.03
-3 -10 -12 0.36 0.06
-3 -11 12 0.05 0.03
3 -11 -12 0.07 0.04
3 11 -12 0.02 0.04
2 -11 -12 0.38 0.11
2 -11 -12 0.39 0.06
-2 -11 12 0.17 0.05
2 11 -12 0.41 0.09
-2 11 12 0.25 0.04
1 -11 -12 0.39 0.1
1 -11 -12 0.32 0.05
-1 -11 12 0.43 0.13
-1 -11 12 0.42 0.07
-1 11 12 0.47 0.07
1 11 -12 0.47 0.11
0 -11 -12 0.31 0.1
0 -11 -12 0.14 0.04
0 -11 12 0.11 0.05
0 11 -12 0.13 0.04
-1 -11 -12 0.08 0.04
-1 -11 -12 0.05 0.02
1 -11 12 0.05 0.03
1 -11 12 -0.03 0.06
-1 11 -12 0 0.03
1 11 12 0.03 0.04
1 11 12 0.04 0.04
-2 -11 -12 0.04 0.03
2 -11 12 0.07 0.03
-2 -11 -12 0.06 0.02
2 11 12 -0.01 0.05
-2 11 -12 0.05 0.04
2 -12 -12 0.15 0.03
-2 -12 12 0.29 0.07
2 12 -12 0.14 0.06
-1 -12 12 0.01 0.02
1 -12 -12 0.02 0.02
-1 12 12 0 0.03
1 12 -12 0.04 0.05
-1 12 12 -0.04 0.03
0 -12 -12 0.95 0.06
0 -12 12 1.01 0.07
0 -12 -12 0.91 0.1
-1 -12 -12 0.26 0.08
1 -12 12 0.15 0.03
-1 -12 -12 0.26 0.05
-1 12 -12 0.19 0.04
-1 -13 12 0.23 0.06
-1 13 12 0.14 0.03
0 -13 -12 0.72 0.05
0 -13 12 0.56 0.06
4 0 -13 -0.01 0.02
4 0 -13 -0.07 0.04
-4 0 13 0.04 0.02
-3 0 13 0.05 0.03
3 0 -13 0.01 0.03
3 0 -13 0.03 0.05
2 0 -13 2.61 0.14
-2 0 13 2.76 0.12
-2 0 13 2.68 0.14
2 0 -13 2.81 0.12
1 0 -13 0.4 0.08
1 0 -13 0.42 0.07
-1 0 13 0.51 0.09
-1 0 13 0.45 0.07
1 0 -13 0.36 0.12
0 0 13 1.11 0.08
0 0 -13 1.02 0.08
0 0 -13 1.04 0.09
-1 0 -13 0.02 0.04
1 0 13 -0.01 0.02
-1 0 -13 0.07 0.05
-1 0 -13 0.03 0.03
-2 0 -13 0.7 0.07
2 0 13 0.77 0.07
-2 0 -13 0.79 0.09
-3 0 -13 0.51 0.12
3 0 13 0.27 0.07
4 -1 -13 0.43 0.07
4 -1 -13 0.34 0.11
-4 1 13 0.37 0.06
4 1 -13 0.38 0.1
3 -1 -13 0.64 0.07
-3 -1 13 0.63 0.08
3 -1 -13 0.58 0.09
3 1 -13 0.57 0.07
-3 1 13 0.77 0.08
3 1 -13 0.47 0.11
-2 -1 13 0.95 0.08
2 -1 -13 1.11 0.09
2 -1 -13 0.95 0.08
-2 -1 13 0.96 0.12
2 1 -13 0.91 0.12
2 1 -13 0.78 0.09
-2 1 13 0.79 0.08
2 1 -13 0.89 0.07
-2 1 13 0.83 0.1
1 -1 -13 0.53 0.09
1 -1 -13 0.62 0.1
-1 -1 13 0.58 0.07
1 -1 -13 0.69 0.07
-1 1 13 0.6 0.08
1 1 -13 0.62 0.07
-1 1 13 0.62 0.07
1 1 -13 0.59 0.08
0 -1 -13 0.6 0.08
0 -1 13 0.45 0.07
0 -1 -13 0.56 0.07
0 -1 -13 0.39 0.11
0 1 13 0.59 0.07
0 1 -13 0.55 0.09
0 1 -13 0.68 0.16
0 1 -13 0.58 0.07
-1 -1 -13 0.61 0.16
-1 -1 -13 0.44 0.06
1 -1 13 0.31 0.07
-1 1 -13 0.58 0.12
-1 1 -13 0.43 0.08
-2 -1 -13 0.33 0.07
2 -1 13 0.39 0.07
-2 1 -13 0.5 0.07
2 1 13 0.42 0.07
-2 1 -13 0.5 0.1
-3 -1 -13 1.32 0.12
-3 -1 -13 1.35 0.12
-3 -1 -13 1.33 0.08
3 -1 13 1.45 0.09
-3 1 -13 1.63 0.09
-4 -2 13 0.82 0.07
4 -2 -13 0.57 0.07
4 -2 -13 0.75 0.12
4 2 -13 0.7 0.1
4 2 -13 0.6 0.08
-3 -2 13 0.53 0.08
3 -2 -13 0.32 0.08
3 -2 -13 0.48 0.06
-3 2 13 0.55 0.12
-3 2 13 0.56 0.07
3 2 -13 0.39 0.08
2 -2 -13 2.3 0.12
-2 -2 13 2.06 0.11
2 -2 -13 2.08 0.1
2 -2 -13 1.95 0.13
2 -2 -13 2.15 0.12
-2 2 13 2.01 0.12
2 2 -13 2.13 0.12
-1 -2 13 1.37 0.09
1 -2 -13 1.18 0.1
1 -2 -13 1.43 0.08
1 -2 -13 1.42 0.1
1 2 -13 1.24 0.09
1 2 -13 1.27 0.1
-1 2 13 1.29 0.09
0 -2 -13 0.04 0.03
0 -2 -13 0.06 0.02
0 -2 13 0.06 0.03
0 -2 -13 0.11 0.05
0 -2 -13 0.11 0.03
0 2 -13 0.09 0.04
0 2 -13 0.13 0.05
0 2 -13 0.01 0.03
0 2 13 0.02 0.02
-1 2 -13 0.12 0.04
-1 2 -13 0.11 0.04
-2 -2 -13 1.53 0.08
-2 -2 -13 1.31 0.1
-2 -2 -13 1.12 0.14
2 -2 13 1.45 0.09
-2 2 -13 1.41 0.09
-2 2 -13 1.28 0.12
-2 2 -13 1.35 0.12
2 2 13 1.35 0.09
3 -2 13 0.28 0.07
-3 -2 -13 0.45 0.07
-3 2 -13 0.43 0.09
4 -3 -13 0.78 0.15
-4 -3 13 0.54 0.07
4 -3 -13 0.6 0.08
4 -3 -13 0.56 0.07
4 3 -13 0.64 0.1
-4 3 13 0.6 0.08
4 3 -13 0.42 0.09
3 -3 -13 1.87 0.11
3 -3 -13 1.91 0.11
-3 -3 13 2.04 0.11
3 -3 -13 1.86 0.09
-3 3 13 1.98 0.1
-3 3 13 1.87 0.13
2 -3 -13 0.52 0.08
2 -3 -13 0.44 0.07
-2 -3 13 0.51 0.08
2 -3 -13 0.67 0.09
2 3 -13 0.44 0.08
-2 3 13 0.58 0.09
2 3 -13 0.55 0.09
-1 -3 13 0.08 0.02
1 -3 -13 0.1 0.03
1 -3 -13 0.21 0.06
-1 -3 13 0.12 0.05
1 3 -13 0.15 0.04
-1 3 13 0.29 0.09
0 -3 -13 1.38 0.08
0 -3 -13 1.28 0.09
0 -3 -13 1.34 0.09
0 -3 13 1.35 0.09
0 3 13 1.55 0.1
0 3 -13 1.5 0.15
0 3 -13 1.31 0.11
-1 -3 -13 1.19 0.1
1 3 13 1.39 0.09
-1 3 -13 1.51 0.13
-1 3 -13 1.32 0.09
-2 -3 -13 0.38 0.08
-2 -3 -13 0.57 0.07
-2 3 -13 0.4 0.09
2 3 13 0.38 0.08
-3 -3 -13 0.34 0.07
-3 3 -13 0.41 0.1
3 3 13 0.4 0.08
4 -4 -13 0.79 0.08
4 -4 -13 0.7 0.07
-4 -4 13 0.71 0.08
-4 4 13 0.71 0.09
4 4 -13 0.72 0.09
3 -4 -13 0.92 0.08
3 -4 -13 0.71 0.07
-3 -4 13 0.8 0.09
3 -4 -13 1.03 0.11
3 -4 -13 0.83 0.08
-3 4 13 0.9 0.11
-3 4 13 0.92 0.12
3 4 -13 0.95 0.1
-3 4 13 0.81 0.09
3 4 -13 0.92 0.09
2 -4 -13 0.05 0.04
2 -4 -13 0.01 0.03
2 4 -13 0.03 0.03
-2 4 13 0.08 0.03
-2 4 13 0.05 0.04
1 -4 -13 0.31 0.06
-1 -4 13 0.52 0.12
-1 -4 13 0.29 0.07
1 -4 -13 0.36 0.08
1 -4 -13 0.32 0.08
1 -4 -13 0.41 0.07
1 4 -13 0.25 0.08
-1 4 13 0.44 0.08
0 -4 -13 0.09 0.03
0 -4 13 0.07 0.03
0 -4 -13 0.02 0.03
0 4 13 0.1 0.04
0 4 -13 0.06 0.03
0 4 13 0.06 0.03
1 -4 13 0.03 0.03
-1 -4 -13 0.03 0.03
-1 4 -13 0.01 0.04
1 4 13 -0.01 0.03
-1 4 -13 0.05 0.03
-1 4 -13 0 0.04
-2 -4 -13 0.27 0.06
3 -4 13 0.39 0.07
-3 -4 -13 0.51 0.06
3 4 13 0.31 0.08
-3 4 -13 0.56 0.09
-4 -5 13 0.34 0.07
4 -5 -13 0.49 0.07
4 -5 -13 0.49 0.07
4 5 -13 0.58 0.09
3 -5 -13 1 0.08
3 -5 -13 0.88 0.07
-3 -5 13 0.72 0.09
3 -5 -13 0.83 0.12
-3 5 13 0.89 0.1
3 5 -13 0.99 0.09
3 5 -13 0.94 0.13
2 -5 -13 -0.01 0.03
2 -5 -13 0.02 0.02
2 -5 -13 -0.01 0.02
-2 -5 13 -0.01 0.02
2 5 -13 -0.05 0.04
-2 5 13 0.03 0.06
1 -5 -13 -0.01 0.02
1 5 -13 0.02 0.04
1 5 -13 -0.04 0.04
0 -5 -13 0.35 0.06
0 5 -13 0.55 0.12
0 5 -13 0.34 0.1
-1 -5 -13 0.05 0.03
1 -5 13 0.06 0.02
-1 5 -13 0.08 0.05
1 5 13 0.12 0.03
-1 5 -13 0.12 0.04
-2 -5 -13 0.01 0.03
-2 -5 -13 0.04 0.02
2 5 13 0.02 0.04
-2 5 -13 0.05 0.04
-3 -5 -13 1.23 0.08
3 -5 13 1.13 0.09
-3 5 -13 1.13 0.11
4 -6 -13 0.39 0.07
4 6 -13 0.59 0.09
3 -6 -13 0.1 0.03
-3 -6 13 0.06 0.03
3 -6 -13 0.04 0.02
-3 6 13 0 0.04
-3 6 13 -0.04 0.06
2 -6 -13 0.22 0.06
-2 -6 13 0.15 0.03
2 -6 -13 0.11 0.03
-2 6 13 0.09 0.07
-2 6 13 0.18 0.04
-1 -6 13 0.1 0.05
1 6 -13 0.12 0.04
0 -6 -13 0.01 0.03
0 -6 13 0.08 0.05
0 -6 -13 -0.01 0.02
0 -6 -13 0.01 0.02
0 -6 13 0 0.02
0 6 -13 -0.05 0.04
0 6 13 -0.01 0.03
-1 -6 -13 0.58 0.07
-1 -6 -13 0.71 0.07
-1 -6 -13 0.49 0.07
1 -6 13 0.66 0.08
1 6 13 0.65 0.08
-1 6 -13 0.44 0.14
-1 6 -13 0.62 0.11
-2 -6 -13 0.81 0.07
2 -6 13 0.83 0.08
-2 -6 -13 0.78 0.08
2 6 13 0.65 0.08
-2 6 -13 0.77 0.09
3 -7 -13 0.05 0.03
3 -7 -13 0.05 0.03
3 -7 -13 0.06 0.02
-3 7 13 -0.02 0.04
2 -7 -13 0.46 0.07
-2 -7 13 0.6 0.11
2 -7 -13 0.46 0.07
2 -7 -13 0.51 0.06
2 -7 -13 0.45 0.1
-2 -7 13 0.49 0.09
-2 7 13 0.53 0.08
2 7 -13 0.6 0.09
-1 -7 13 0.04 0.04
1 -7 -13 0.04 0.02
1 -7 -13 0.06 0.03
-1 7 13 0.08 0.03
1 7 -13 -0.05 0.04
0 -7 -13 0.07 0.02
0 -7 13 0.1 0.04
0 -7 -13 0.09 0.02
0 -7 13 0.03 0.03
0 -7 -13 0.09 0.03
0 7 13 0.07 0.04
-1 -7 -13 0.25 0.06
-1 -7 -13 0.28 0.06
1 -7 13 0.44 0.11
1 -7 13 0.27 0.09
-2 -7 -13 0.01 0.03
2 -7 13 0.06 0.03
3 -8 -13 0.26 0.06
-3 8 13 0.29 0.09
-2 -8 13 0.41 0.1
2 -8 -13 0.55 0.12
2 -8 -13 0.25 0.07
2 -8 -13 0.3 0.05
2 -8 -13 0.27 0.07
-2 8 13 0.4 0.07
1 -8 -13 0.38 0.05
-1 -8 13 0.32 0.09
1 -8 -13 0.44 0.07
1 -8 -13 0.3 0.08
-1 8 13 0.31 0.06
0 -8 -13 0.07 0.03
0 -8 -13 0 0.02
0 -8 13 -0.02 0.03
0 -8 -13 0.04 0.02
0 8 -13 -0.1 0.05
0 8 -13 0.02 0.05
0 8 13 0.01 0.03
-1 -8 -13 0.05 0.03
-1 -8 -13 0.03 0.03
-1 -8 -13 0.03 0.02
1 8 13 0.06 0.04
-2 -8 -13 1.06 0.08
-2 -8 -13 1.07 0.08
2 -9 -13 0.25 0.07
2 -9 -13 0.35 0.08
-2 -9 13 0.4 0.12
2 9 -13 0.14 0.05
-2 9 13 0.22 0.04
1 -9 -13 0.03 0.04
-1 -9 13 0.02 0.03
1 -9 -13 0.04 0.03
-1 -9 13 0.08 0.04
-1 9 13 0.07 0.03
1 9 -13 0.11 0.04
0 -9 13 0.45 0.11
0 -9 -13 0.39 0.05
0 -9 -13 0.53 0.08
0 -9 13 0.54 0.09
0 9 13 0.33 0.07
-1 -9 -13 0.25 0.08
-1 -9 -13 0.36 0.07
-1 -9 -13 0.4 0.05
1 -10 -13 0.17 0.05
-1 10 13 0.35 0.08
0 -10 -13 0.15 0.05
0 10 13 0.08 0.03
2 0 -14 0.08 0.03
2 0 -14 0.08 0.03
1 0 -14 0 0.03
-1 0 14 0.07 0.05
1 0 -14 -0.05 0.03
0 0 14 0.04 0.04
0 0 14 0 0.02
0 0 -14 0.03 0.03
1 0 14 1.05 0.08
-1 0 -14 0.88 0.07
1 0 14 0.91 0.08
2 -1 -14 0.44 0.08
-2 -1 14 0.27 0.07
2 -1 -14 0.28 0.06
-2 1 14 0.41 0.08
1 -1 -14 -0.04 0.03
1 -1 -14 -0.04 0.03
-1 -1 14 0.02 0.02
1 1 -14 0.02 0.03
-1 1 14 0.03 0.05
1 1 -14 -0.01 0.03
-1 1 14 -0.03 0.03
0 -1 -14 0.35 0.08
0 -1 -14 0.29 0.06
0 -1 14 0.31 0.1
0 -1 14 0.24 0.07
0 1 14 0.39 0.08
0 1 14 0.34 0.07
-1 -1 -14 0.05 0.04
1 -1 14 0.05 0.04
-1 -1 -14 0.02 0.03
1 -1 14 0.07 0.02
1 1 14 -0.04 0.03
1 1 14 -0.01 0.04
-1 1 -14 0.03 0.03
-1 1 -14 0 0.05
-2 -2 14 0.96 0.08
2 -2 -14 0.83 0.06
1 -2 -14 0.09 0.02
-1 2 14 0.1 0.04
1 2 -14 0.07 0.03
0 -2 -14 0.07 0.03
0 -2 14 -0.01 0.05
0 -2 14 0.04 0.02
0 -2 -14 0 0.03
0 2 -14 0.01 0.03
1 -2 14 0.36 0.09
1 -2 14 0.33 0.07
-1 -2 -14 0.26 0.07
-2 -3 14 0.06 0.03
2 -3 -14 0.05 0.02
2 3 -14 0.06 0.04
1 -3 -14 0.35 0.08
1 -3 -14 0.22 0.06
0 -3 -14 0.04 0.03
0 -3 14 0.07 0.02
0 3 -14 0.07 0.04
0 3 14 0.03 0.03
-1 -3 -14 0.01 0.04
1 -3 14 0.05 0.03
-1 -3 -14 0.04 0.02
1 3 14 0.05 0.04
2 -4 -14 0.46 0.09
-2 -4 14 0.3 0.09
1 -4 -14 0.47 0.08
1 -4 -14 0.41 0.06
-1 -4 14 0.37 0.07
1 4 -14 0.57 0.09
0 -4 14 0.4 0.07
0 -4 -14 0.3 0.08
0 4 -14 0.51 0.1
1 -5 -14 0.82 0.07
1 -5 -14 0.94 0.08
-1 -5 14 0.91 0.09
1 5 -14 1.11 0.1
0 -5 -14 0.6 0.07
0 -5 -14 0.64 0.07
