#------------------------------------------------------------------------------
#$Date: 2015-09-06 01:32:58 +0300 (Sun, 06 Sep 2015) $
#$Revision: 154625 $
#$URL: svn://www.crystallography.net/cod/cif/4/12/41/4124172.cif $
#------------------------------------------------------------------------------
#
# This file is available in the Crystallography Open Database (COD),
# http://www.crystallography.net/
#
# All data on this site have been placed in the public domain by the
# contributors.
#
data_4124172
loop_
_publ_author_name
'Marshall, Ross J.'
'Griffin, Sarah L.'
'Wilson, Claire'
'Forgan, Ross S.'
_publ_section_title
;
 Single-Crystal to Single-Crystal Mechanical Contraction of Metal-Organic
 Frameworks through Stereoselective Postsynthetic Bromination.
;
_journal_issue                   30
_journal_name_full               'Journal of the American Chemical Society'
_journal_page_first              9527
_journal_page_last               9530
_journal_paper_doi               10.1021/jacs.5b05434
_journal_volume                  137
_journal_year                    2015
_chemical_formula_moiety         'C18 H14 Br2 O4'
_chemical_formula_sum            'C18 H14 Br2 O4'
_chemical_formula_weight         454.11
_space_group_crystal_system      monoclinic
_space_group_IT_number           14
_space_group_name_Hall           '-P 2ybc'
_space_group_name_H-M_alt        'P 1 21/c 1'
_symmetry_space_group_name_Hall  '-P 2ybc'
_symmetry_space_group_name_H-M   'P 1 21/c 1'
_atom_sites_solution_hydrogens   geom
_atom_sites_solution_primary     iterative
_audit_creation_date             2015-05-12
_audit_creation_method
;
Olex2 1.2
(compiled 2015.01.26 svn.r3150 for OlexSys, GUI svn.r4998)
;
_cell_angle_alpha                90
_cell_angle_beta                 109.192(6)
_cell_angle_gamma                90
_cell_formula_units_Z            2
_cell_length_a                   12.035(3)
_cell_length_b                   3.9873(10)
_cell_length_c                   18.148(5)
_cell_measurement_reflns_used    4544
_cell_measurement_temperature    100
_cell_measurement_theta_max      25.06
_cell_measurement_theta_min      2.38
_cell_volume                     822.5(4)
_computing_cell_refinement       'SAINT v8.34A (Bruker, 2013)'
_computing_data_reduction        'SAINT v8.34A (Bruker, 2013)'
_computing_molecular_graphics    'Olex2 (Dolomanov et al., 2009)'
_computing_publication_material  'Olex2 (Dolomanov et al., 2009)'
_computing_structure_refinement  'ShelXL (Sheldrick, 2008)'
_computing_structure_solution
;
Superflip (Palatinus & Chapuis, 2007;Palatinus & van der Lee, 2008;
Palatinus et al., 2012)
;
_diffrn_ambient_temperature      100
_diffrn_measured_fraction_theta_full 0.985
_diffrn_measured_fraction_theta_max 0.985
_diffrn_measurement_device_type  'Bruker APEX-II CCD'
_diffrn_measurement_method       '\f and \w scans'
_diffrn_radiation_type           MoK\a
_diffrn_radiation_wavelength     0.71073
_diffrn_reflns_av_R_equivalents  0.1004
_diffrn_reflns_av_unetI/netI     0.0688
_diffrn_reflns_laue_measured_fraction_full 0.985
_diffrn_reflns_laue_measured_fraction_max 0.985
_diffrn_reflns_limit_h_max       14
_diffrn_reflns_limit_h_min       -14
_diffrn_reflns_limit_k_max       3
_diffrn_reflns_limit_k_min       -4
_diffrn_reflns_limit_l_max       21
_diffrn_reflns_limit_l_min       -21
_diffrn_reflns_number            8478
_diffrn_reflns_point_group_measured_fraction_full 0.985
_diffrn_reflns_point_group_measured_fraction_max 0.985
_diffrn_reflns_theta_full        25.064
_diffrn_reflns_theta_max         25.064
_diffrn_reflns_theta_min         1.792
_diffrn_standards_number         0
_exptl_absorpt_coefficient_mu    4.948
_exptl_absorpt_correction_T_max  0.7058
_exptl_absorpt_correction_T_min  0.4960
_exptl_absorpt_correction_type   multi-scan
_exptl_absorpt_process_details
;
SADABS-2012/1 (Bruker,2012) was used for absorption correction.
wR2(int) was 0.1477 before and 0.1174 after correction.
The Ratio of minimum to maximum transmission is 0.7027.
The \l/2 correction factor is 0.0015.
;
_exptl_crystal_colour            colourless
_exptl_crystal_colour_primary    colourless
_exptl_crystal_density_diffrn    1.834
_exptl_crystal_description       rod
_exptl_crystal_F_000             448
_exptl_crystal_size_max          0.43
_exptl_crystal_size_mid          0.05
_exptl_crystal_size_min          0.04
_refine_diff_density_max         0.849
_refine_diff_density_min         -0.953
_refine_diff_density_rms         0.197
_refine_ls_extinction_method     none
_refine_ls_goodness_of_fit_ref   1.140
_refine_ls_hydrogen_treatment    constr
_refine_ls_matrix_type           full
_refine_ls_number_parameters     110
_refine_ls_number_reflns         1430
_refine_ls_number_restraints     54
_refine_ls_restrained_S_all      1.120
_refine_ls_R_factor_all          0.0873
_refine_ls_R_factor_gt           0.0661
_refine_ls_shift/su_max          0.001
_refine_ls_shift/su_mean         0.000
_refine_ls_structure_factor_coef Fsqd
_refine_ls_weighting_details
'w=1/[\s^2^(Fo^2^)+(0.0300P)^2^+13.4090P] where P=(Fo^2^+2Fc^2^)/3'
_refine_ls_weighting_scheme      calc
_refine_ls_wR_factor_gt          0.1381
_refine_ls_wR_factor_ref         0.1498
_reflns_Friedel_coverage         0.000
_reflns_number_gt                1170
_reflns_number_total             1430
_reflns_threshold_expression     'I > 2\s(I)'
_cod_data_source_file            ja5b05434_si_003.cif
_cod_data_source_block           trans1
_cod_depositor_comments
'Adding full bibliography for 4124172--4124178.cif.'
_cod_database_code               4124172
_shelx_space_group_comment
;
The symmetry employed for this shelxl refinement is uniquely defined
by the following loop, which should always be used as a source of
symmetry information in preference to the above space-group names.
They are only intended as comments.
;
_olex2_refinement_description
;
1. Fixed Uiso
 At 1.2 times of:
  All C(H) groups
 At 1.5 times of:
  All C(H,H,H) groups
2. Rigid body (RIGU) restrains
 C1, C2, C3, C4, C5, C6, C7, C8, C9
 with sigma for 1-2 distances of 0.004 and sigma for 1-3 distances of 0.004
3.a Aromatic/amide H refined with riding coordinates:
 C4(H4), C5(H5), C7(H7), C8(H8)
3.b Idealised Me refined as rotating group:
 C1(H1A,H1B,H1C)
;
_shelx_res_file
;
    rjm_7_062b_rod_0m.res created by SHELXL-2014/7

TITL RJM_7_062b_rod_0m in P2(1)/c
CELL 0.71073 12.0347 3.9873 18.1482 90 109.1921 90
ZERR 2 0.0033 0.001 0.0052 0 0.006 0
LATT 1
SYMM -X,0.5+Y,0.5-Z
SFAC C H Br O
UNIT 36 28 4 8
RIGU $c

L.S. 4 0 0
PLAN  5
TEMP -173.15
MORE -1
BOND $H
CONF
fmap 2 53
acta 52
OMIT -7 2 18
OMIT -2 0 6
REM <olex2.extras>
REM <HklSrc "%.\\RJM_7_062b_rod_0m.hkl">
REM </olex2.extras>

WGHT    0.030000   13.408998
FVAR       0.17016
BR1   3    0.353639    0.311819    0.546736    11.00000    0.01476    0.02701 =
         0.01696   -0.00006    0.00621   -0.00376
C1    1    1.049278    0.338486    0.916126    11.00000    0.01688    0.03391 =
         0.01778    0.00096   -0.00079    0.00683
AFIX 137
H1A   2    1.120233    0.230424    0.912163    11.00000   -1.50000
H1B   2    1.018957    0.207976    0.951148    11.00000   -1.50000
H1C   2    1.068539    0.565882    0.936890    11.00000   -1.50000
AFIX   0
C2    1    0.860368    0.507433    0.837571    11.00000    0.01734    0.01827 =
         0.01990   -0.00018    0.00698   -0.00342
C3    1    0.770806    0.499347    0.758133    11.00000    0.01548    0.01393 =
         0.01552   -0.00082    0.00847   -0.00367
C4    1    0.661214    0.649443    0.746744    11.00000    0.01867    0.02238 =
         0.01213   -0.00403    0.00762    0.00096
AFIX  43
H4    2    0.646287    0.757540    0.789193    11.00000   -1.20000
AFIX   0
C5    1    0.575672    0.642239    0.675429    11.00000    0.01740    0.01982 =
         0.02012    0.00002    0.00751   -0.00301
AFIX  43
H5    2    0.502551    0.750112    0.668510    11.00000   -1.20000
AFIX   0
C6    1    0.594063    0.479037    0.612683    11.00000    0.01805    0.01340 =
         0.02008    0.00211    0.00786   -0.00223
C7    1    0.701908    0.327526    0.622581    11.00000    0.02216    0.01850 =
         0.01927    0.00360    0.01143   -0.00080
AFIX  43
H7    2    0.715731    0.218459    0.579866    11.00000   -1.20000
AFIX   0
C8    1    0.790495    0.335698    0.695782    11.00000    0.01257    0.01994 =
         0.01920    0.00031    0.00728   -0.00137
AFIX  43
H8    2    0.863919    0.229499    0.702774    11.00000   -1.20000
AFIX   0
C9    1    0.498975    0.468759    0.536228    11.00000    0.01710    0.01363 =
         0.01864   -0.00239    0.00593    0.00126
O1    4    0.960732    0.355008    0.839515    11.00000    0.01675    0.03851 =
         0.01861   -0.00382    0.00185    0.00738
O2    4    0.847178    0.641573    0.893881    11.00000    0.02600    0.05157 =
         0.01780   -0.00925    0.00819    0.00817
HKLF 4

REM  RJM_7_062b_rod_0m in P2(1)/c
REM R1 =  0.0661 for    1170 Fo > 4sig(Fo)  and  0.0873 for all    1430 data
REM    110 parameters refined using     54 restraints

END

WGHT      0.0198     14.1967

REM Highest difference peak  0.849,  deepest hole -0.953,  1-sigma level  0.197
Q1    1   0.3435  0.0805  0.5408  11.00000  0.05    0.85
Q2    1   0.2931  0.2972  0.4981  11.00000  0.05    0.82
Q3    1   0.3976  0.1594  0.5971  11.00000  0.05    0.80
Q4    1   0.4802  0.6845  0.5390  11.00000  0.05    0.74
Q5    1   0.4163  0.2654  0.6017  11.00000  0.05    0.73
;
_shelx_res_checksum              77613
_shelx_hkl_file
;
  -1   0   0  129.10   12.26
   1   0   0  149.54   12.09
   1   0   0  129.55   11.37
   1   0   0  129.88   13.78
  -1   0   0  133.02   11.37
  -1   0   0  148.49   12.09
   2   0   0   23.21    2.42
  -2   0   0   27.32    2.69
  -2   0   0   21.88    2.37
  -2   0   0   25.23    2.68
   2   0   0   28.23    2.76
   2   0   0   19.97    3.05
   2   0   0   20.36    2.46
   3   0   0  288.81   23.19
  -3   0   0  264.65   25.01
   3   0   0  301.38   28.15
   3   0   0  277.34   25.03
  -3   0   0  251.59   23.14
  -4   0   0  283.46   22.85
   4   0   0  218.48   21.47
   4   0   0  236.03   23.15
   4   0   0  249.24   21.44
  -4   0   0  285.58   21.52
   5   0   0   14.15    2.60
  -5   0   0   21.63    3.07
  -5   0   0   12.27    3.37
   5   0   0   16.91    2.88
  -5   0   0   19.78    2.81
   5   0   0   21.78    3.30
   6   0   0  215.03   19.86
   6   0   0  200.07   18.27
  -6   0   0  228.75   19.54
  -6   0   0  207.06   18.27
   7   0   0  179.57   16.68
   7   0   0  194.62   18.09
   7   0   0  184.99   16.62
  -7   0   0  201.96   17.76
  -8   0   0   27.67    3.16
  -8   0   0   21.77    4.13
   8   0   0   23.20    4.36
  -8   0   0   25.68    3.40
   8   0   0   25.20    4.28
  -8   0   0   26.82    5.47
   9   0   0    8.34    2.93
  -9   0   0    8.21    2.39
   9   0   0    5.86    2.24
  -9   0   0   12.62    1.71
  -9   0   0    8.61    3.75
 -10   0   0  135.09   15.13
  10   0   0  105.72   12.51
 -10   0   0  108.74   12.48
  10   0   0  146.55   12.10
  11   0   0    4.09    2.25
 -11   0   0    1.29    4.23
  11   0   0    1.49    2.29
  12   0   0    4.08    2.75
 -12   0   0   -1.00    4.71
  12   0   0    3.42    2.06
  13   0   0   55.98    8.89
  13   0   0   66.04    8.88
   0  -1   0   -0.39    0.33
   0  -1   0    0.05    0.37
   0   1   0   -0.61    0.32
  -1  -1   0  229.30   21.18
  -1  -1   0  272.11   20.88
  -1  -1   0  255.52   19.64
   1  -1   0  242.01   23.77
   1   1   0  210.84   19.61
  -1   1   0  204.79   23.76
   1   1   0  236.78   19.65
   2  -1   0  266.80   29.06
  -2  -1   0  357.59   27.15
  -2  -1   0  349.56   29.30
   2  -1   0  329.32   32.86
   2  -1   0  365.71   27.03
  -2   1   0  339.07   28.67
  -2   1   0  288.23   26.94
   2   1   0  329.27   27.18
  -2   1   0  298.54   29.07
  -2   1   0  333.26   27.00
   3  -1   0  155.29   13.56
   3  -1   0  169.36   15.02
  -3  -1   0  151.63   14.85
   3  -1   0  150.78   16.64
  -3  -1   0  172.82   14.65
  -3  -1   0  165.56   13.72
   3  -1   0  168.51   14.69
  -3   1   0  149.97   13.51
  -3   1   0  176.02   14.47
   3   1   0  166.20   14.87
   3   1   0  177.62   16.52
  -3   1   0  130.59   14.39
   4  -1   0   37.03    3.72
  -4  -1   0   33.48    3.57
   4  -1   0   37.57    3.92
   4  -1   0   32.57    3.45
   4  -1   0   38.57    3.45
  -4  -1   0   40.12    4.08
  -4   1   0   28.65    3.72
  -4   1   0   27.64    3.28
  -4   1   0   26.69    3.69
   4   1   0   37.08    4.07
   4   1   0   34.01    4.45
   4   1   0   34.41    3.74
   5  -1   0  350.27   29.94
   5  -1   0  362.73   27.72
   5  -1   0  314.63   27.74
  -5  -1   0  280.74   27.78
   5   1   0  376.56   27.90
  -5   1   0  292.33   29.37
   6  -1   0   54.68    5.99
   6  -1   0   58.68    5.63
  -6  -1   0   49.52    6.96
   6  -1   0   62.26    5.55
  -6   1   0   46.72    5.76
  -6   1   0   52.65    5.18
  -6   1   0   48.24    7.31
   6   1   0   58.32    5.65
   6   1   0   66.27    6.46
   7  -1   0    5.92    1.83
  -7  -1   0    3.04    1.86
   7  -1   0    4.39    1.87
   7  -1   0    2.96    1.51
  -7  -1   0    1.77    1.38
  -7  -1   0    4.31    2.40
   7   1   0    1.82    1.67
  -7   1   0    4.42    1.07
   7   1   0    3.61    2.02
  -7   1   0    2.12    2.42
  -7   1   0    2.96    1.31
  -8  -1   0   95.04   10.13
  -8  -1   0   71.14    8.46
   8   1   0   78.36    7.94
  -8   1   0   91.46   10.45
   8   1   0   75.32    8.61
  -8   1   0   81.20    7.45
  -8   1   0   70.92    8.07
  -9  -1   0   98.54   10.43
  -9  -1   0  102.82   12.16
  -9  -1   0  103.90    9.67
  -9   1   0  110.42   12.71
   9   1   0   98.68    9.55
  -9   1   0   82.14    9.71
 -10  -1   0    4.02    1.96
  10  -1   0    4.60    2.97
  10  -1   0    3.97    2.23
 -10  -1   0    4.16    3.65
 -10   1   0    6.61    4.66
  10   1   0    4.85    2.24
  10   1   0    8.11    2.39
 -11  -1   0   64.11    8.08
 -11  -1   0   67.10    7.34
  11  -1   0   78.45    8.20
 -11  -1   0   73.39    7.76
  11  -1   0   73.54    8.83
  11   1   0   73.85    8.84
  12  -1   0   71.87    9.08
 -12  -1   0   50.64    7.32
  12  -1   0   72.84    7.91
 -12   1   0   67.24    7.91
  12   1   0   60.90    8.05
  13  -1   0   10.50    4.29
 -13  -1   0    7.71    2.76
  13  -1   0    8.02    4.42
  13   1   0   11.33    4.02
   0  -2   0   83.89    8.02
   0  -2   0   89.39    7.24
   0  -2   0   74.15    7.25
   0  -2   0   94.47    8.02
  -1  -2   0   12.52    1.98
   1  -2   0   15.30    2.26
  -1  -2   0   15.27    1.99
  -1  -2   0   16.49    2.10
  -1  -2   0   14.95    1.89
   1   2   0   16.29    2.06
   2  -2   0   10.63    1.13
  -2  -2   0   10.46    2.16
   2  -2   0    9.41    1.20
   2  -2   0   10.64    2.02
  -2  -2   0   11.18    2.03
  -2  -2   0   11.73    1.87
  -2  -2   0   10.53    1.65
   2   2   0   13.13    1.76
   2   2   0    9.35    1.96
  -3  -2   0  197.91   15.75
   3  -2   0  205.60   16.58
   3  -2   0  160.59   15.44
   3  -2   0  182.34   15.42
  -3  -2   0  207.68   16.87
  -3   2   0  159.42   16.30
   3   2   0  193.19   18.66
   3   2   0  165.97   15.66
  -3   2   0  194.53   16.29
  -3   2   0  179.53   17.16
  -4  -2   0   72.00    6.26
   4  -2   0   62.67    6.39
  -4  -2   0   52.80    6.21
   4  -2   0   67.13    5.94
  -4  -2   0   76.09    7.01
   4  -2   0   66.80    6.88
   4  -2   0   61.25    5.97
  -4   2   0   80.11    8.08
  -4   2   0   60.27    6.18
   4   2   0   72.83    6.31
   5  -2   0   -0.50    1.15
  -5  -2   0    0.66    1.40
   5  -2   0    0.18    1.14
  -5  -2   0    0.13    1.14
  -5  -2   0    1.85    1.05
   5  -2   0    0.46    1.22
   5  -2   0    1.27    1.14
   5   2   0   -0.33    1.32
  -5   2   0    0.85    0.78
   5   2   0    1.25    1.25
  -5   2   0    0.51    2.21
   6  -2   0   45.29    5.29
  -6  -2   0   55.33    5.54
  -6  -2   0   36.82    5.31
   6  -2   0   47.01    4.85
   6  -2   0   47.05    4.82
   6  -2   0   41.65    4.95
  -6   2   0   48.73    4.95
  -6   2   0   50.43    7.18
   6   2   0   47.87    5.10
   7  -2   0   59.11    6.17
   7  -2   0   56.31    6.78
   7  -2   0   59.54    6.37
  -7  -2   0   68.47    7.06
  -7   2   0   65.44    6.48
  -7   2   0   69.06    9.28
   7   2   0   61.79    6.86
  -8  -2   0    3.25    1.40
   8  -2   0   -0.17    1.91
   8  -2   0   -0.46    2.00
  -8  -2   0    1.94    2.22
  -8   2   0    0.51    3.59
   8   2   0    2.92    2.04
   9  -2   0    8.74    2.69
  -9  -2   0   11.66    2.73
   9  -2   0    3.87    2.50
   9   2   0    5.57    2.44
 -10  -2   0   49.44    5.55
 -10  -2   0   48.96    5.81
  10  -2   0   42.81    6.08
  10  -2   0   46.71    6.54
  10   2   0   39.12    6.47
 -11  -2   0   60.23    6.11
 -11  -2   0   57.18    6.71
 -11  -2   0   53.89    6.89
  11  -2   0   51.39    7.45
  11   2   0   41.19    7.70
  12  -2   0    1.93    3.79
 -12  -2   0    6.95    2.45
  12   2   0   -0.32    3.65
   0  -3   0   -0.23    0.71
   0  -3   0    2.01    0.68
  -1  -3   0   10.66    1.76
  -1  -3   0    5.66    1.17
  -1  -3   0    6.73    1.33
  -1  -3   0    7.27    1.34
  -2  -3   0   17.35    2.59
  -2  -3   0   19.32    2.53
   2  -3   0   18.72    3.64
  -2  -3   0   18.84    2.75
   2   3   0   13.03    2.85
   3  -3   0    7.21    1.91
  -3  -3   0    3.73    1.51
  -3  -3   0    3.14    1.36
  -3  -3   0    3.20    1.65
   3   3   0    3.16    1.44
   4  -3   0    4.97    2.35
   4  -3   0    5.33    1.24
  -4  -3   0    6.56    2.05
   4  -3   0    4.49    1.14
  -4  -3   0    6.47    1.75
  -4  -3   0    5.11    1.72
   4   3   0    4.77    1.91
  -5  -3   0    7.33    1.99
   5  -3   0    8.51    1.78
  -5  -3   0   10.76    2.55
   5  -3   0    8.99    1.73
   5  -3   0    5.28    2.48
   5   3   0    6.48    2.31
   6  -3   0   16.95    2.95
  -6  -3   0   19.01    3.34
   6  -3   0   15.81    2.59
  -6  -3   0   12.50    2.70
   6   3   0   10.62    2.97
  -7  -3   0    2.64    2.00
  -7  -3   0    3.07    1.74
   7  -3   0   -0.69    1.82
   7   3   0   -0.80    2.30
  -8  -3   0    6.95    2.26
   8   3   0    2.63    2.88
   9   3   0    6.04    3.56
   0  -4   0    1.43    0.88
   0  -4   0   -1.13    1.00
   0  -4   0    6.57    2.78
  -1  -4   0    1.08    1.40
  -1  -4   0    9.21    2.86
  -2  -4   0   10.12    3.15
   2  -4   0    6.44    3.14
  -2  -4   0    2.71    1.47
  -3  -4   0    5.87    1.73
  -3  -4   0    4.87    1.48
   3  -4   0    2.33    3.39
  -3  -4   0   10.07    3.43
  -4  -4   0    6.39    1.81
  -4  -4   0    7.79    3.14
  -4  -4   0    0.56    1.65
   4  -4   0   -1.58    3.29
  -5  -4   0    1.45    1.79
  -7  -4   0    8.44    2.42
  13   0  -1    7.64    2.99
  12   0  -1    3.75    2.31
  12   0  -1    3.12    2.82
  11   0  -1    2.38    1.95
 -11   0   1    3.39    4.02
 -11   0   1    1.75    2.14
  11   0  -1   -4.06    2.67
 -10   0   1   -0.26    3.16
 -10   0   1    1.08    2.06
  10   0  -1   -3.53    2.46
 -10   0   1    4.20    1.41
  10   0  -1   -1.52    2.11
   9   0  -1   -1.89    1.94
  -9   0   1    1.63    2.82
  -9   0   1   -1.78    1.80
  -9   0   1   -0.37    1.43
   9   0  -1   -1.61    2.10
  -8   0   1   -1.30    1.42
  -8   0   1   -0.94    2.44
   8   0  -1   -1.33    1.77
   8   0  -1    3.03    1.73
  -8   0   1   -1.47    1.46
   8   0  -1   -0.87    1.58
  -7   0   1   -0.44    1.44
   7   0  -1   -0.29    1.46
   7   0  -1    4.45    1.59
   7   0  -1   -1.15    1.57
  -7   0   1    0.10    1.96
  -7   0   1   -0.56    1.23
  -7   0   1   -1.13    0.92
  -6   0   1   -0.31    0.92
  -6   0   1   -0.38    2.18
   6   0  -1    1.30    1.39
   6   0  -1   -0.15    1.09
   6   0  -1    0.90    1.38
  -6   0   1    0.39    1.17
  -6   0   1    0.53    1.26
  -5   0   1    0.08    0.87
   5   0  -1    0.49    1.15
  -5   0   1    0.97    1.05
  -5   0   1   -1.68    1.78
  -5   0   1   -0.40    1.11
   5   0  -1   -1.36    0.97
  -5   0   1   -0.08    1.00
   5   0  -1    0.11    1.27
  -4   0   1    0.38    0.72
  -4   0   1    0.20    0.97
  -4   0   1   -0.05    0.86
   4   0  -1    0.59    0.94
  -4   0   1   -0.52    1.51
  -4   0   1    1.53    0.91
   4   0  -1   -0.89    1.06
   4   0  -1    0.16    0.89
  -4   0   1    0.86    1.11
  -4   0   1   -0.26    0.84
  -3   0   1   -2.39    0.94
  -3   0   1    0.08    0.83
  -3   0   1    0.12    0.88
   3   0  -1    0.35    0.83
  -3   0   1   -2.58    1.24
   3   0  -1   -2.32    1.02
   3   0  -1    0.85    1.14
  -3   0   1    0.24    0.68
  -3   0   1   -0.22    0.80
  -2   0   1    0.17    0.64
   2   0  -1    0.04    0.69
  -2   0   1    1.23    0.72
  -2   0   1    0.25    1.01
   2   0  -1    0.08    0.94
   2   0  -1    0.84    0.70
   2   0  -1    1.14    0.67
   2   0  -1    1.78    0.83
  -2   0   1    0.94    0.62
  -2   0   1    1.45    0.72
   1   0  -1    1.42    0.44
   1   0  -1    0.72    0.36
  -1   0   1    0.05    0.37
  -1   0   1    0.53    0.39
   1   0  -1    0.37    0.34
   1   0  -1   -0.30    0.35
   1   0  -1   -0.36    0.48
  -1   0   1    0.96    0.43
  -1   0   1    0.35    0.54
   0   0  -1   -0.16    0.22
   0   0   1    0.05    0.26
   0   0  -1    0.15    0.23
   0   0   1    0.35    0.30
   0   0   1   -0.54    0.26
   0   0  -1    0.10    0.24
   0   0   1   -0.10    0.23
   0   0  -1    0.46    0.27
  -1   0  -1    1.35    0.41
  -1   0  -1    0.54    0.47
   1   0   1   -0.03    0.47
   1   0   1   -0.18    0.48
  -1   0  -1    0.47    0.52
  -1   0  -1    0.82    0.52
   1   0   1   -0.75    0.51
  -1   0  -1    0.25    0.45
   2   0   1    1.71    1.05
  -2   0  -1    0.66    0.68
   2   0   1   -1.14    0.74
  -2   0  -1    0.59    1.18
   2   0   1    2.10    0.87
  -2   0  -1    1.58    0.74
  -2   0  -1    0.46    0.52
  -3   0  -1   -0.89    0.83
  -3   0  -1   -1.25    0.65
   3   0   1    1.41    1.14
   3   0   1    1.47    0.98
  -3   0  -1   -0.91    1.31
  -3   0  -1    0.19    0.78
   3   0   1   -0.94    1.20
   3   0   1   -1.59    1.05
   4   0   1   -0.81    1.04
  -4   0  -1   -0.90    0.93
   4   0   1    1.39    1.23
  -4   0  -1    0.26    0.97
  -4   0  -1   -0.93    0.53
   4   0   1   -0.24    1.15
  -4   0  -1   -1.06    1.50
  -4   0  -1   -1.36    0.79
   4   0   1   -0.24    1.31
  -5   0  -1   -1.20    1.84
   5   0   1    0.08    1.47
  -5   0  -1    0.04    1.11
  -5   0  -1   -0.53    0.61
   5   0   1    0.01    1.77
   5   0   1   -0.79    1.21
  -5   0  -1   -0.10    0.99
   6   0   1    1.26    1.54
  -6   0  -1   -0.63    0.98
   6   0   1    0.73    1.54
   6   0   1    0.14    1.08
  -6   0  -1   -0.12    0.63
  -6   0  -1   -0.09    1.89
  -6   0  -1    1.01    0.90
   7   0   1    0.70    1.40
   7   0   1   -0.40    1.78
  -7   0  -1   -0.94    2.14
  -7   0  -1    1.03    1.14
  -7   0  -1    2.81    1.03
  -7   0  -1   -0.21    0.70
   7   0   1    4.91    1.72
  -8   0  -1    2.62    1.17
   8   0   1    0.04    1.91
   8   0   1    0.19    1.82
  -8   0  -1    1.83    1.19
   8   0   1    5.47    1.77
  -8   0  -1   -1.32    2.44
  -9   0  -1    1.94    1.29
  -9   0  -1   -1.85    2.78
  -9   0  -1    3.63    1.21
   9   0   1    0.52    1.90
  -9   0  -1   -1.19    0.75
   9   0   1    1.93    1.87
 -10   0  -1   -0.05    3.36
  10   0   1    1.28    1.83
 -10   0  -1    3.55    1.38
  10   0   1    1.89    2.15
 -11   0  -1    3.34    1.78
  11   0   1   -0.89    2.25
  11   0   1   -0.51    2.81
  12   0   1   -4.34    3.33
  12   0   1   -3.30    2.80
  13   0   1   -4.11    3.22
  13  -1  -1   13.70    3.98
  13   1  -1   14.95    3.77
  12  -1  -1   21.63    4.86
  12  -1  -1   26.29    5.40
 -12  -1   1   27.78    7.12
  12   1  -1   34.00    5.81
  11  -1  -1    7.16    2.58
  11  -1  -1    0.33    3.09
 -11  -1   1    6.75    1.97
 -11  -1   1    4.48    2.29
 -11   1   1    5.20    5.28
  11   1  -1    5.81    2.10
  10  -1  -1    8.28    2.92
  10  -1  -1    8.00    2.27
 -10  -1   1    9.15    2.86
 -10  -1   1   11.49    2.90
  10   1  -1    7.51    2.62
 -10   1   1   12.66    4.72
  10   1  -1   14.09    3.45
  -9  -1   1    6.46    2.50
   9  -1  -1    4.59    2.51
  -9  -1   1   10.56    3.61
   9  -1  -1    3.42    2.14
  -9  -1   1    7.21    2.73
   9   1  -1    5.62    2.79
  -9   1   1    6.12    3.58
   9   1  -1    3.66    2.49
  -9   1   1    6.34    1.94
   8  -1  -1    5.12    1.73
  -8  -1   1    2.49    2.39
  -8  -1   1    0.12    1.58
   8  -1  -1   -1.27    1.72
  -8  -1   1   -0.89    1.64
   8  -1  -1   -1.17    1.63
   8   1  -1   -1.09    1.90
  -8   1   1    1.21    2.57
   8   1  -1   -2.41    1.93
  -8   1   1   -1.08    1.47
   7  -1  -1   38.85    4.72
   7  -1  -1   36.26    4.23
  -7  -1   1   31.93    4.17
  -7  -1   1   32.78    5.45
  -7  -1   1   37.90    4.75
   7  -1  -1   34.72    3.99
  -7  -1   1   30.14    4.17
   7   1  -1   33.54    4.48
  -7   1   1   36.21    4.62
  -7   1   1   31.91    5.65
  -7   1   1   31.68    3.50
   7   1  -1   39.88    4.99
   6  -1  -1    8.29    1.66
  -6  -1   1    6.85    1.80
   6  -1  -1    6.61    1.76
  -6  -1   1    6.40    1.64
   6  -1  -1    8.63    1.76
  -6  -1   1    9.83    2.58
  -6  -1   1    7.84    1.95
  -6   1   1    5.45    2.41
   6   1  -1    5.04    1.70
  -6   1   1    6.74    1.66
   6   1  -1    6.87    1.92
  -6   1   1   10.76    1.67
   5  -1  -1    4.66    1.04
  -5  -1   1    5.53    1.57
   5  -1  -1    3.36    1.40
  -5  -1   1    3.56    1.66
   5  -1  -1    4.64    1.33
  -5  -1   1    4.92    2.08
  -5  -1   1    3.95    1.30
   5  -1  -1    2.24    1.26
   5   1  -1    0.89    1.31
  -5   1   1    4.00    1.28
   5   1  -1    3.83    1.44
  -5   1   1    3.50    2.35
  -5   1   1    3.74    1.04
  -4  -1   1    4.49    1.21
   4  -1  -1   -0.23    0.83
   4  -1  -1    4.23    1.08
  -4  -1   1    4.67    1.20
  -4  -1   1    3.17    1.29
   4  -1  -1    1.53    1.11
  -4  -1   1    1.64    1.35
   4  -1  -1    1.64    1.03
  -4  -1   1    3.25    1.67
   4   1  -1    2.84    1.18
  -4   1   1    0.68    1.84
  -4   1   1    1.51    0.95
   4   1  -1    2.40    1.23
  -4   1   1    2.40    0.89
   4   1  -1    1.03    1.05
  -4   1   1    3.90    1.03
   3  -1  -1   31.14    2.97
   3  -1  -1   29.18    2.67
  -3  -1   1   25.83    2.80
  -3  -1   1   30.06    3.28
  -3  -1   1   21.25    2.96
   3  -1  -1   30.15    3.71
  -3  -1   1   27.00    3.24
  -3  -1   1   33.59    3.26
  -3  -1   1   26.35    3.46
  -3   1   1   21.15    2.55
  -3   1   1   31.10    2.90
  -3   1   1   23.95    2.84
   3   1  -1   27.52    3.22
  -3   1   1   20.67    3.79
   3   1  -1   22.27    3.31
   2  -1  -1   13.29    1.81
   2  -1  -1   10.94    1.24
   2  -1  -1   12.64    2.10
  -2  -1   1    8.37    1.38
   2  -1  -1    7.77    1.38
  -2  -1   1    8.64    1.46
  -2  -1   1   12.54    1.85
  -2  -1   1   12.20    1.75
   2  -1  -1    7.40    1.35
   2   1  -1   11.71    1.78
   2   1  -1    8.53    1.63
  -2   1   1    8.28    1.33
  -2   1   1    9.26    2.13
   2   1  -1    7.84    1.75
  -2   1   1    8.99    1.08
   2   1  -1   11.04    1.49
   1  -1  -1  740.73   63.47
  -1  -1   1  697.66   57.16
   1  -1  -1  601.81   60.27
  -1  -1   1  727.64   60.58
   1  -1  -1  751.64   56.98
   1  -1  -1  574.26   68.62
  -1  -1   1  712.23   68.81
   1  -1  -1  635.10   56.80
  -1  -1   1  721.25   57.02
   1   1  -1  698.49   56.88
  -1   1   1  696.29   68.86
  -1   1   1  683.34   63.55
   0  -1  -1   54.98    5.24
   0  -1  -1   58.92    5.32
   0  -1   1   56.96    5.18
   0  -1  -1   63.01    5.57
   0   1  -1   53.43    5.15
   1  -1   1   18.58    2.75
   1  -1   1   17.68    1.83
   1  -1   1   18.81    2.00
   1  -1   1   20.30    1.87
  -1   1  -1   21.66    2.02
   1   1   1   23.82    2.14
   1   1   1   16.94    2.14
  -1   1  -1   18.31    1.96
  -2  -1  -1    3.51    1.02
   2  -1   1    2.74    1.29
   2  -1   1    3.78    0.91
   2  -1   1    5.49    0.90
   2  -1   1    7.69    1.38
  -2  -1  -1    7.92    1.45
  -2   1  -1    5.60    0.91
   2   1   1    3.36    1.05
   2   1   1    4.24    1.16
   2   1   1    7.18    1.28
  -2   1  -1    5.99    0.92
   2   1   1    7.54    1.32
  -2   1  -1    6.32    1.17
  -2   1  -1    4.95    0.94
   3  -1   1   43.68    4.53
  -3  -1  -1   47.39    4.41
   3  -1   1   50.62    4.51
   3  -1   1   45.02    4.14
  -3  -1  -1   43.62    4.23
  -3   1  -1   46.51    5.58
  -3   1  -1   43.09    4.00
   3   1   1   41.43    5.11
   3   1   1   40.92    4.27
  -3   1  -1   41.48    4.39
   4  -1   1   53.55    5.25
   4  -1   1   42.71    4.93
  -4  -1  -1   52.07    6.19
  -4  -1  -1   57.26    5.14
  -4  -1  -1   51.12    4.95
   4  -1   1   49.84    4.84
  -4   1  -1   47.13    5.19
   4   1   1   52.10    5.05
   4   1   1   47.79    5.98
  -4   1  -1   49.51    4.67
  -4   1  -1   52.91    6.54
   5  -1   1    1.29    1.34
   5  -1   1    4.93    1.56
  -5  -1  -1    3.63    2.15
  -5  -1  -1    3.48    1.47
  -5  -1  -1    4.17    1.65
  -5  -1  -1    1.29    1.06
   5  -1   1    3.45    1.66
   5   1   1    3.59    1.54
  -5   1  -1    2.90    1.04
  -5   1  -1    3.26    1.11
   5   1   1    0.74    1.37
  -5   1  -1    3.43    2.37
  -6  -1  -1    6.86    1.76
   6  -1   1    5.02    1.71
  -6  -1  -1    5.00    1.62
   6  -1   1    8.48    1.98
  -6  -1  -1    9.78    2.67
   6  -1   1    8.49    2.17
  -6  -1  -1    9.66    2.06
  -6   1  -1    7.13    1.43
   6   1   1    8.19    1.90
  -6   1  -1    8.03    2.79
   6   1   1    3.34    1.68
  -6   1  -1   11.15    1.94
  -7  -1  -1   23.39    4.14
  -7  -1  -1   34.58    5.58
   7  -1   1   33.83    4.36
   7  -1   1   37.31    4.20
  -7  -1  -1   28.67    4.05
   7   1   1   31.49    4.49
  -7   1  -1   33.33    3.68
   7   1   1   36.54    4.43
  -7   1  -1   36.61    6.19
  -7   1  -1   33.09    3.95
   8  -1   1   21.41    4.13
  -8  -1  -1   19.30    3.62
  -8  -1  -1   23.61    3.42
  -8  -1  -1   29.96    5.23
  -8   1  -1   26.41    3.58
  -8   1  -1   23.82    3.26
   8   1   1   25.94    4.32
  -8   1  -1   24.93    5.09
   8   1   1   26.64    4.53
  -9  -1  -1    4.82    1.35
  -9  -1  -1    4.56    1.31
   9  -1   1    1.18    2.14
   9  -1   1    4.11    2.17
   9   1   1    0.40    2.00
  -9   1  -1    2.94    3.55
  -9   1  -1    3.68    1.46
   9   1   1    0.92    2.57
  10  -1   1    6.92    3.05
  10  -1   1   12.46    2.94
 -10  -1  -1    6.21    1.90
  10   1   1    6.81    2.48
 -10   1  -1    7.85    2.19
  10   1   1    4.93    3.22
  11  -1   1    1.55    3.10
 -11  -1  -1    6.69    2.44
  11  -1   1    5.90    3.24
 -11   1  -1    3.40    2.26
  11   1   1    5.16    3.02
  12  -1   1   -3.61    3.12
  12  -1   1   -1.08    3.52
  12   1   1   -3.46    2.99
  13  -1   1    2.23    4.46
 -12  -2   1  115.96    9.99
 -12  -2   1   99.13   10.73
 -12  -2   1   86.41   10.43
  11  -2  -1   20.36    4.65
  11   2  -1   31.09    5.52
  10  -2  -1    2.74    2.24
 -10  -2   1    1.24    2.34
 -10  -2   1    5.09    2.24
  10  -2  -1   -2.58    2.68
  10   2  -1    4.92    2.14
  -9  -2   1   36.45    5.72
   9  -2  -1   34.54    5.16
   9  -2  -1   35.98    5.14
  -9  -2   1   36.44    6.14
   9   2  -1   35.60    5.39
   8  -2  -1   52.26    5.89
  -8  -2   1   60.16    7.75
   8  -2  -1   48.76    5.91
  -8  -2   1   45.67    6.61
  -8  -2   1   64.23    6.65
  -8   2   1   52.36    5.40
   8   2  -1   43.92    6.28
  -7  -2   1   29.11    4.74
   7  -2  -1   31.72    3.98
  -7  -2   1   31.49    5.18
   7  -2  -1   25.57    4.05
  -7  -2   1   26.33    4.30
   7  -2  -1   28.57    3.83
   7   2  -1   29.89    3.68
  -7   2   1   30.95    3.29
   7   2  -1   28.20    4.70
  -7   2   1   26.43    5.87
   6  -2  -1   27.15    3.63
   6  -2  -1   27.16    3.43
   6  -2  -1   29.66    3.61
  -6  -2   1   23.82    3.53
   6  -2  -1   27.55    3.32
  -6  -2   1   32.65    4.49
  -6  -2   1   28.00    4.28
  -6  -2   1   19.08    3.66
   6   2  -1   28.36    4.37
  -6   2   1   28.51    5.37
   6   2  -1   21.98    3.35
  -6   2   1   28.28    2.98
   5  -2  -1   64.07    6.07
  -5  -2   1   51.91    6.48
   5  -2  -1   50.32    5.59
  -5  -2   1   63.51    5.91
  -5  -2   1   60.01    5.60
  -5  -2   1   61.23    6.19
   5  -2  -1   59.58    5.26
   5  -2  -1   56.15    5.41
   5   2  -1   48.58    5.41
  -5   2   1   46.77    5.24
  -5   2   1   54.25    7.17
   5   2  -1   61.26    6.32
   4  -2  -1    8.42    1.68
  -4  -2   1   10.67    2.02
  -4  -2   1   10.50    1.96
   4  -2  -1   11.51    1.65
   4  -2  -1   11.10    2.08
  -4  -2   1    9.77    2.23
   4  -2  -1    8.02    1.61
  -4  -2   1    8.57    1.68
  -4  -2   1    9.51    1.89
  -4   2   1   12.32    1.37
   4   2  -1    9.21    1.84
  -4   2   1    8.19    2.32
   4   2  -1    8.67    1.72
   4   2  -1    5.74    1.81
   3  -2  -1   -0.21    0.73
  -3  -2   1    0.31    1.01
   3  -2  -1   -0.19    0.53
   3  -2  -1    1.45    1.23
  -3  -2   1    0.37    1.11
   3  -2  -1   -0.43    0.61
  -3  -2   1    0.10    0.84
  -3  -2   1   -0.25    1.00
  -3  -2   1    0.42    0.91
   3  -2  -1    0.12    1.52
  -3   2   1   -0.47    1.35
  -3   2   1    0.46    0.45
  -3   2   1    0.14    0.61
   3   2  -1   -1.03    1.01
   3   2  -1   -1.05    0.91
   2  -2  -1  121.12   13.34
   2  -2  -1  133.61   10.79
  -2  -2   1  142.04   11.10
   2  -2  -1  124.93   10.77
  -2  -2   1  111.05   11.77
  -2  -2   1  143.72   11.82
   2   2  -1  139.96   12.00
   2   2  -1  119.29   10.96
  -2   2   1  128.69   13.46
   1  -2  -1   10.32    1.91
  -1  -2   1   13.23    1.66
   1  -2  -1   13.07    1.28
  -1  -2   1    9.77    1.76
  -1  -2   1   14.48    1.88
  -1  -2   1   11.29    1.81
  -1  -2   1    9.98    1.93
   1   2  -1   10.96    1.71
   0  -2  -1   11.56    1.92
   0  -2   1   16.05    2.05
   0  -2   1   15.83    1.60
   0  -2  -1   16.61    1.79
   0  -2   1   14.85    1.77
   0  -2   1   14.54    1.61
   0  -2  -1   17.06    1.79
   0  -2  -1   15.33    1.88
  -1  -2  -1   53.27    4.47
   1  -2   1   48.59    5.37
  -1  -2  -1   46.25    4.82
  -1  -2  -1   41.03    4.42
  -1  -2  -1   46.35    4.76
   1   2   1   56.27    4.93
  -2  -2  -1  130.58   11.16
  -2  -2  -1  130.88   10.34
  -2  -2  -1  111.94   10.92
   2  -2   1  104.66    9.94
   2  -2   1  120.75    9.95
   2  -2   1  118.52   12.42
  -2  -2  -1  130.46   10.28
   2   2   1  103.54   11.08
  -3  -2  -1   78.29    6.62
   3  -2   1   73.40    6.31
   3  -2   1   68.24    6.24
  -3  -2  -1   80.34    6.71
   3   2   1   73.99    7.50
   3   2   1   73.83    7.27
  -3   2  -1   60.91    6.50
  -3   2  -1   66.98    6.90
   3   2   1   74.61    6.62
   4  -2   1   43.62    4.46
  -4  -2  -1   55.00    5.03
  -4  -2  -1   50.10    4.84
   4  -2   1   39.42    5.09
   4  -2   1   44.54    4.55
   4  -2   1   54.44    4.96
  -4   2  -1   52.62    4.83
  -4   2  -1   49.37    4.62
   4   2   1   46.05    5.34
   4   2   1   38.75    5.22
  -5  -2  -1   34.58    4.00
   5  -2   1   27.04    3.62
   5  -2   1   40.79    3.95
  -5  -2  -1   33.43    4.24
   5  -2   1   35.91    4.02
   5  -2   1   37.11    4.20
  -5   2  -1   36.55    3.77
   5   2   1   33.37    3.94
   5   2   1   26.10    4.38
  -6  -2  -1   44.20    4.92
  -6  -2  -1   44.84    4.59
   6  -2   1   35.26    4.24
   6  -2   1   40.74    4.82
   6  -2   1   37.94    4.21
   6  -2   1   44.60    4.45
   6   2   1   33.97    5.07
   6   2   1   29.63    3.86
  -6   2  -1   43.50    4.39
  -7  -2  -1   12.13    2.54
   7  -2   1    9.42    2.10
   7  -2   1    7.88    2.08
  -7  -2  -1    6.91    1.75
   7   2   1    7.62    2.42
   8  -2   1   39.38    5.54
  -8  -2  -1   44.72    5.50
   8  -2   1   47.83    5.28
  -8  -2  -1   43.33    5.12
   8   2   1   35.32    6.03
   9  -2   1   28.89    4.75
   9  -2   1   30.44    5.19
  -9  -2  -1   36.17    4.87
  -9  -2  -1   39.28    4.45
  -9  -2  -1   28.23    4.92
   9   2   1   27.91    5.90
 -10  -2  -1    1.43    1.93
  10  -2   1    4.58    2.46
  10  -2   1   -0.97    2.78
  10   2   1    1.13    3.10
 -11  -2  -1   10.31    2.95
  11  -2   1   10.50    4.11
  11  -2   1   12.85    3.28
  11   2   1    7.90    4.35
  12  -2   1   11.60    5.00
 -12  -2  -1    4.88    3.24
  12   2   1    3.83    4.74
 -10  -3   1   47.66    6.49
  10   3  -1   41.76    7.47
  -9  -3   1   51.00    6.88
  -9  -3   1   73.48    7.86
   9   3  -1   55.49    7.61
  -8  -3   1    0.17    2.92
   8   3  -1    2.76    2.09
  -7  -3   1   58.76    6.74
   7   3  -1   63.16    7.47
  -6  -3   1   56.38    6.06
   6  -3  -1   43.02    4.77
   6  -3  -1   38.47    5.89
  -6  -3   1   44.95    5.18
   6  -3  -1   45.25    4.79
   6   3  -1   41.43    5.73
   5  -3  -1    4.03    1.34
   5  -3  -1    5.47    2.09
   5  -3  -1    2.01    1.39
  -5  -3   1    3.86    2.07
   5   3  -1    4.14    1.64
  -4  -3   1   50.69    5.44
   4  -3  -1   48.23    4.58
  -4  -3   1   57.57    5.46
   4  -3  -1   49.32    4.58
   4  -3  -1   54.15    6.40
  -4  -3   1   44.26    5.23
   4   3  -1   51.12    5.69
  -3  -3   1   72.23    8.51
  -3  -3   1   98.42    8.29
   3  -3  -1   93.05    9.81
   3   3  -1  101.44    8.96
  -2  -3   1   49.89    4.42
   2  -3  -1   36.59    5.54
  -2  -3   1   43.77    4.52
  -2  -3   1   45.47    4.54
   2   3  -1   41.39    4.66
  -1  -3   1   29.60    2.95
  -1  -3   1   28.89    2.77
   1  -3  -1   23.49    4.08
   1  -3  -1   23.40    2.35
  -1  -3   1   26.95    2.80
  -1  -3   1   22.47    2.87
   1   3  -1   24.39    2.80
   0  -3  -1   57.30    4.93
   0  -3   1   56.31    4.90
   0  -3  -1   58.66    4.97
   0  -3   1   52.66    4.86
   0  -3  -1   46.29    6.47
  -1  -3  -1   50.92    4.70
  -1  -3  -1   53.74    4.93
  -1  -3  -1   40.60    6.10
  -1  -3  -1   46.46    5.02
  -1  -3  -1   51.36    4.90
  -2  -3  -1   13.82    2.52
  -2  -3  -1   15.18    2.26
  -2  -3  -1   13.88    2.44
   2   3   1   10.05    2.15
  -3  -3  -1   53.51    5.82
   3  -3   1   62.36    6.52
  -3  -3  -1   45.90    5.34
   3  -3   1   53.94    4.80
   3   3   1   64.68    6.26
   4  -3   1   62.82    6.34
  -4  -3  -1   46.26    5.33
  -4  -3  -1   52.50    5.87
   4  -3   1   49.56    4.83
   4  -3   1   56.08    4.83
   4   3   1   48.14    5.98
   5  -3   1    5.03    2.51
  -5  -3  -1    6.69    2.14
  -5  -3  -1    8.64    1.88
   5  -3   1    6.51    1.68
   5   3   1    9.75    2.36
  -6  -3  -1   12.61    2.87
   6   3   1   15.19    3.23
  -7  -3  -1   15.08    3.38
   7  -3   1   20.68    3.41
   7   3   1   13.28    3.45
   8  -3   1   22.23    4.13
  -8  -3  -1   18.12    4.02
   8   3   1   15.87    3.92
  -9  -3  -1   25.77    4.80
 -10  -3  -1   23.46    4.69
  10   3   1   18.18    5.05
  -6  -4   1   12.38    2.70
  -5  -4   1   54.95    5.59
  -5  -4   1   44.67    5.80
  -4  -4   1   11.32    2.26
   4  -4  -1    6.05    3.80
   3  -4  -1    1.35    3.22
  -2  -4   1   35.98    3.83
  -2  -4   1   30.73    4.07
   2  -4  -1   40.23    6.93
  -1  -4   1   19.47    2.95
  -1  -4   1   27.61    2.87
   0  -4  -1   33.50    5.99
   0  -4   1   25.24    5.20
  -1  -4  -1   17.73    2.81
  -1  -4  -1   21.19    2.95
  -2  -4  -1   88.32   10.30
   2  -4   1   83.41    9.49
  -3  -4  -1   25.39    3.75
  -3  -4  -1   18.76    3.72
  -4  -4  -1    6.01    1.88
  -4  -4  -1   12.27    3.43
   4  -4   1    6.28    2.98
  -4  -4  -1    4.91    2.06
  -5  -4  -1   51.70    7.25
  -5  -4  -1   45.92    5.62
  -5  -4  -1   34.38    5.71
   6  -4   1   19.12    3.20
  -6  -4  -1   29.27    4.71
  -7  -4  -1    2.94    2.55
  -7  -4  -1    6.06    2.78
  13   0  -2   54.23    7.86
  13   0  -2   65.41    8.42
  12   0  -2   27.06    4.89
  12   0  -2   29.94    5.46
  11   0  -2    2.21    3.12
 -11   0   2   11.47    4.89
 -11   0   2    3.30    2.89
  11   0  -2    3.54    2.99
  10   0  -2   81.64    8.64
  10   0  -2   80.59    9.53
 -10   0   2   80.48    9.66
 -10   0   2   89.21    8.44
 -10   0   2   77.73   10.89
  -9   0   2  173.89   14.18
   9   0  -2  135.39   15.27
  -9   0   2  161.95   15.11
   9   0  -2  151.79   14.11
  -8   0   2   -1.46    1.13
  -8   0   2    1.63    1.53
  -8   0   2    2.43    2.61
   8   0  -2    0.75    1.37
   8   0  -2    0.42    1.67
  -8   0   2    3.49    1.49
   8   0  -2   -1.10    2.15
   7   0  -2   54.06    5.66
  -7   0   2   47.23    5.14
  -7   0   2   52.25    5.60
   7   0  -2   49.06    5.07
  -7   0   2   43.18    5.06
  -7   0   2   45.23    6.77
  -6   0   2  279.89   27.33
   6   0  -2  273.34   26.90
   6   0  -2  280.72   24.85
  -6   0   2  273.11   26.42
   6   0  -2  340.13   25.18
  -6   0   2  327.95   25.05
  -6   0   2  283.36   30.30
  -5   0   2  408.40   37.31
  -5   0   2  385.46   33.73
   5   0  -2  435.21   36.54
  -5   0   2  383.66   40.93
  -4   0   2   57.43    5.39
  -4   0   2   45.02    5.08
  -4   0   2   49.56    5.47
  -4   0   2   56.69    6.37
  -4   0   2   60.55    5.51
   4   0  -2   43.21    5.04
   4   0  -2   58.79    5.09
  -4   0   2   59.06    5.06
  -3   0   2  344.53   34.35
  -3   0   2  386.35   37.56
   3   0  -2  361.92   34.69
  -3   0   2  360.30   30.98
   3   0  -2  379.23   32.95
   3   0  -2  408.31   33.48
   3   0  -2  362.62   30.98
  -2   0   2   32.09    3.45
   2   0  -2   38.87    3.70
  -2   0   2   33.63    3.37
   2   0  -2   42.24    3.42
  -2   0   2   35.48    3.75
   1   0  -2   34.24    3.33
  -1   0   2   33.15    3.55
  -1   0   2   36.21    3.35
   1   0  -2   42.16    3.58
  -1   0   2   34.11    3.31
  -1   0   2   37.33    4.10
   0   0  -2   95.39    8.75
   0   0   2  106.91    9.35
   0   0  -2  103.18    9.77
   0   0   2  111.60    8.78
   0   0   2  104.22    9.78
   0   0  -2  103.74    9.81
  -1   0  -2  377.11   29.56
  -1   0  -2  307.78   29.14
  -1   0  -2  322.90   32.57
   1   0   2  377.74   29.16
  -1   0  -2  338.13   30.96
   1   0   2  381.15   29.20
   2   0   2    2.99    1.14
  -2   0  -2    3.86    0.99
   2   0   2    4.13    1.23
  -2   0  -2    4.85    0.96
  -2   0  -2    4.84    0.93
   2   0   2    3.18    1.21
   2   0   2    7.67    1.62
   3   0   2   66.08    7.02
  -3   0  -2   75.52    6.89
  -3   0  -2   80.38    6.99
   3   0   2   57.87    6.45
   3   0   2   75.19    6.49
   3   0   2   62.97    6.90
   3   0   2   57.44    7.77
  -3   0  -2   79.04    6.36
  -3   0  -2   81.80    6.81
   4   0   2  278.16   22.69
  -4   0  -2  283.60   22.66
   4   0   2  279.57   24.55
  -4   0  -2  231.66   22.61
   5   0   2   89.81    9.13
  -5   0  -2  105.86    9.72
  -5   0  -2  113.11    9.07
   5   0   2   91.78    9.90
   6   0   2   26.74    4.03
  -6   0  -2   21.50    2.57
  -6   0  -2   20.32    3.27
   6   0   2   25.69    3.60
  -6   0  -2   21.16    2.91
  -7   0  -2  157.22   13.74
  -7   0  -2  130.16   13.42
   7   0   2  130.92   12.90
   7   0   2  134.95   13.97
  -7   0  -2  162.83   12.80
  -8   0  -2  107.42   10.61
   8   0   2  121.22   10.96
  -8   0  -2  123.11   11.05
   8   0   2  109.69   11.82
   9   0   2  150.40   13.51
  -9   0  -2  105.64   11.98
   9   0   2  138.98   12.34
 -10   0  -2   32.31    5.33
  10   0   2   21.01    4.74
  10   0   2   26.53    4.71
  11   0   2  120.88   13.34
  11   0   2  121.41   12.52
  12   0   2    5.40    3.98
  12   0   2    2.54    4.42
  13   0   2    8.62    4.29
  13  -1  -2   30.37    5.96
 -12  -1   2   40.38    6.99
  12  -1  -2   37.41    5.95
  12  -1  -2   38.92    6.14
 -12   1   2   60.31   11.09
  12   1  -2   36.44    6.34
 -11  -1   2   51.83    8.33
  11  -1  -2   45.34    7.21
  11  -1  -2   55.25    7.22
 -11  -1   2   64.01    7.08
 -11   1   2   57.18    7.34
 -11   1   2   67.44   11.11
  11   1  -2   61.29    7.79
 -10  -1   2    8.16    3.67
  10  -1  -2    0.22    2.48
 -10  -1   2   -0.01    2.55
  10  -1  -2   -0.48    2.39
 -10  -1   2    2.18    2.32
  10   1  -2   -3.02    2.60
 -10   1   2   -0.62    2.17
  10   1  -2   -0.57    2.48
   9  -1  -2   39.87    5.68
  -9  -1   2   44.98    5.98
  -9  -1   2   38.97    7.03
   9  -1  -2   35.56    5.01
  -9  -1   2   40.11    4.78
   9   1  -2   34.36    5.37
  -9   1   2   34.33    5.64
  -9   1   2   43.16    7.05
   9   1  -2   39.00    5.90
   8  -1  -2  139.76   11.86
   8  -1  -2  128.90   12.90
  -8  -1   2  115.90   14.65
  -8  -1   2  151.61   12.97
  -8   1   2  146.25   12.71
   8   1  -2  130.42   13.01
  -8   1   2  113.03   11.55
   8   1  -2  142.82   12.01
  -8   1   2  109.49   14.63
  -7  -1   2   58.25    6.27
   7  -1  -2   54.56    5.59
  -7  -1   2   63.70    6.12
  -7  -1   2   52.31    5.65
   7  -1  -2   66.80    6.05
  -7  -1   2   48.90    7.21
  -7   1   2   57.55    6.04
  -7   1   2   54.43    7.55
  -7   1   2   49.48    5.25
  -7   1   2   55.42    5.46
   7   1  -2   52.69    5.83
   6  -1  -2    2.38    1.40
   6  -1  -2    6.14    1.29
  -6  -1   2    3.03    2.14
   6  -1  -2    3.87    1.35
  -6  -1   2    2.21    1.33
  -6  -1   2    3.07    1.55
  -6  -1   2    4.16    1.62
   6  -1  -2    4.55    1.75
   6   1  -2    3.48    1.67
   6   1  -2    2.37    1.52
  -6   1   2    2.98    1.33
  -6   1   2    3.86    2.41
  -6   1   2    3.62    0.81
  -6   1   2    4.10    1.26
  -5  -1   2   75.54    8.68
   5  -1  -2   77.54    6.94
  -5  -1   2   76.70    7.04
  -5  -1   2   60.59    7.16
   5  -1  -2   80.48    7.66
  -5  -1   2   83.03    7.69
   5   1  -2   72.12    6.99
  -5   1   2   74.73    7.31
   5   1  -2   84.64    7.92
  -5   1   2   72.08    8.90
  -5   1   2   83.39    7.42
   4  -1  -2  300.18   24.24
  -4  -1   2  281.91   24.41
  -4  -1   2  268.29   22.85
   4  -1  -2  268.39   22.74
   4  -1  -2  239.75   24.52
   4  -1  -2  227.59   22.76
   4   1  -2  283.86   22.88
  -4   1   2  255.10   25.15
   4   1  -2  292.52   24.80
   4   1  -2  301.66   27.66
  -4   1   2  267.82   27.77
   3  -1  -2    1.32    0.75
  -3  -1   2    1.32    1.11
   3  -1  -2    0.99    0.90
   3  -1  -2    1.42    0.77
  -3  -1   2    0.95    0.91
   3  -1  -2    1.72    0.81
  -3  -1   2   -0.24    0.89
   3  -1  -2    0.53    1.12
   3  -1  -2    0.10    0.99
  -3  -1   2    0.66    1.21
   3   1  -2    3.18    1.09
  -3   1   2    0.06    0.69
   3   1  -2   -0.22    0.82
   3   1  -2    1.10    1.09
  -3   1   2    0.64    0.67
  -3   1   2    1.05    0.79
  -3   1   2    1.63    1.40
   3   1  -2    0.35    0.56
  -3   1   2    1.59    0.96
  -2  -1   2   31.36    3.61
  -2  -1   2   37.85    3.36
   2  -1  -2   34.81    4.15
   2  -1  -2   29.37    3.21
  -2  -1   2   36.08    3.52
  -2  -1   2   30.80    4.04
   2  -1  -2   36.51    3.21
   2   1  -2   41.01    3.47
  -2   1   2   34.94    3.13
   2   1  -2   35.94    3.63
  -2   1   2   40.98    4.21
  -2   1   2   32.82    3.41
  -1  -1   2  478.87   36.76
   1  -1  -2  487.28   41.09
   1  -1  -2  468.55   41.28
  -1  -1   2  378.17   39.01
   1  -1  -2  432.44   36.81
  -1   1   2  455.64   36.66
  -1   1   2  412.64   36.67
  -1   1   2  394.73   38.95
   1   1  -2  478.38   36.74
  -1   1   2  480.92   41.03
   1   1  -2  410.24   39.02
   0  -1   2  147.63   12.56
   0  -1  -2  151.94   12.81
   0  -1  -2  134.72   11.24
   0  -1   2  136.78   11.20
   0  -1  -2  123.45   11.96
   0   1  -2  131.85   11.14
   0   1   2  110.86   11.93
  -1  -1  -2   12.86    1.78
  -1  -1  -2   14.53    1.78
  -1  -1  -2   12.33    1.86
   1  -1   2   13.28    1.61
  -1  -1  -2   15.49    1.95
  -1   1  -2   12.97    1.81
  -1   1  -2   11.77    1.31
  -1   1  -2   10.35    1.35
   2  -1   2  280.83   25.15
  -2  -1  -2  275.32   28.21
  -2  -1  -2  331.78   25.32
   2  -1   2  264.59   26.69
   2  -1   2  329.96   30.69
   2   1   2  298.35   27.30
   2   1   2  345.61   30.52
  -2   1  -2  304.92   25.12
  -2   1  -2  279.93   27.10
  -2   1  -2  308.50   26.73
   3  -1   2   78.65    6.19
  -3  -1  -2   85.47    6.31
   3  -1   2   61.77    6.13
  -3  -1  -2   68.42    6.71
  -3  -1  -2   63.98    7.06
  -3   1  -2   65.32    6.53
   3   1   2   60.42    7.48
  -3   1  -2   71.21    6.03
   3   1   2   63.56    6.29
   3   1   2   65.43    6.93
  -4  -1  -2   10.43    2.18
   4  -1   2   13.36    2.09
   4  -1   2    8.22    1.93
   4  -1   2   12.77    1.96
   4  -1   2   13.87    2.11
  -4  -1  -2   11.55    2.18
  -4   1  -2   12.19    1.94
   4   1   2   15.20    2.30
  -4   1  -2   11.38    2.29
   4   1   2   13.37    2.68
  -5  -1  -2  101.04    9.63
   5  -1   2  110.64   10.50
   5  -1   2  110.79    9.67
   5  -1   2  109.94   10.29
   5  -1   2   96.96    9.56
   5   1   2  112.07    9.86
  -5   1  -2  106.32   10.25
  -5   1  -2  111.80    9.45
   6  -1   2  282.37   24.09
  -6  -1  -2  286.36   24.14
  -6  -1  -2  226.57   25.59
   6  -1   2  302.64   26.16
  -6   1  -2  298.98   23.99
  -6   1  -2  300.79   25.70
   7  -1   2    6.51    2.18
  -7  -1  -2    5.67    1.55
   7  -1   2    6.06    2.45
   7  -1   2    4.99    2.06
  -7  -1  -2    5.79    1.92
  -7  -1  -2    8.06    1.80
  -7   1  -2    7.06    2.03
   7   1   2    5.04    2.14
  -7   1  -2    5.42    1.61
   7   1   2    5.27    2.27
   8  -1   2    8.11    2.62
  -8  -1  -2    6.47    2.02
  -8  -1  -2    9.26    1.95
  -8  -1  -2   11.25    2.33
   8  -1   2    6.30    2.61
  -8   1  -2   10.07    2.50
   8   1   2    6.70    2.79
   8   1   2    5.94    2.48
  -9  -1  -2   93.97   10.58
  -9  -1  -2  123.60   11.55
   9  -1   2  115.08   12.10
   9  -1   2  113.96   11.13
   9   1   2  123.80   12.45
  -9   1  -2  109.57   11.76
   9   1   2  116.00   11.41
 -10  -1  -2   17.02    3.80
  10  -1   2   17.06    3.96
  10  -1   2   20.27    4.37
 -10  -1  -2   26.25    3.86
 -10   1  -2   28.26    4.76
  10   1   2   22.04    4.74
  11  -1   2   -3.36    3.14
  11  -1   2    1.03    2.81
 -11  -1  -2    2.57    2.82
  11   1   2   -0.56    2.96
  12  -1   2   31.33    6.38
 -12  -1  -2   43.82    7.26
  12  -1   2   42.76    6.76
  12   1   2   27.33    6.34
  12  -2  -2    2.54    3.73
 -12  -2   2   12.60    3.30
  12   2  -2    9.73    2.81
 -11  -2   2    6.22    2.92
 -11  -2   2    1.52    3.11
  11  -2  -2    8.03    2.30
  11   2  -2    6.85    2.14
 -10  -2   2   52.68    8.09
  10  -2  -2   54.60    7.23
  10  -2  -2   70.12    7.67
 -10  -2   2   61.16    7.87
 -10   2   2   65.24   10.95
  10   2  -2   62.82    8.07
  -9  -2   2   37.90    6.38
  -9  -2   2   51.85    7.52
   9  -2  -2   31.20    4.96
   9  -2  -2   33.37    5.09
  -9  -2   2   41.36    5.69
   9   2  -2   43.33    6.39
  -9   2   2   49.05    8.33
   8  -2  -2   -1.29    1.70
   8  -2  -2    1.82    1.52
  -8  -2   2   -1.38    1.75
  -8  -2   2    1.59    1.65
  -8   2   2    1.97    1.14
   8   2  -2   -1.95    2.12
  -8   2   2    1.62    2.87
  -7  -2   2   43.70    5.49
   7  -2  -2   35.81    4.47
   7  -2  -2   34.63    4.25
   7  -2  -2   39.10    4.64
  -7  -2   2   34.35    5.14
  -7  -2   2   40.52    4.99
  -7   2   2   32.86    4.33
  -7   2   2   33.32    6.48
   7   2  -2   30.20    4.10
   7   2  -2   35.87    5.32
   6  -2  -2   70.88    7.48
   6  -2  -2   69.90    6.64
   6  -2  -2   83.23    7.37
  -6  -2   2   71.20    8.36
  -6  -2   2   75.32    7.69
  -6  -2   2   68.75    6.95
   6  -2  -2   72.08    6.82
  -6  -2   2   88.04    7.42
   6   2  -2   64.77    7.68
  -6   2   2   68.93    7.05
  -6   2   2   61.23    8.74
   6   2  -2   65.67    6.99
   5  -2  -2    4.57    1.45
   5  -2  -2    3.32    1.59
  -5  -2   2    6.32    1.85
  -5  -2   2    3.84    1.61
   5  -2  -2    3.27    1.17
  -5  -2   2    3.23    1.40
   5  -2  -2    4.14    1.27
  -5  -2   2    4.20    1.57
  -5   2   2    7.06    2.29
   5   2  -2    2.17    1.38
  -5   2   2    2.45    1.04
   5   2  -2    3.01    1.54
   4  -2  -2   23.90    3.69
  -4  -2   2   29.91    3.31
  -4  -2   2   34.04    3.62
   4  -2  -2   27.22    3.03
  -4  -2   2   23.17    3.44
   4  -2  -2   25.75    3.03
   4  -2  -2   27.00    2.87
  -4  -2   2   27.92    3.69
  -4  -2   2   33.04    3.79
  -4   2   2   30.24    3.07
   4   2  -2   25.58    3.20
  -4   2   2   27.18    4.24
   4   2  -2   23.23    3.50
  -4   2   2   27.56    2.96
  -3  -2   2  149.22   12.12
  -3  -2   2  154.54   12.93
  -3  -2   2  150.21   14.39
   3  -2  -2  128.59   12.68
  -3  -2   2  151.84   12.98
   3  -2  -2  136.35   14.61
   3  -2  -2  141.77   11.83
   3  -2  -2  127.38   11.84
  -3   2   2  116.31   14.60
  -3   2   2  140.55   13.18
   3   2  -2  150.33   12.04
  -2  -2   2  169.94   13.69
   2  -2  -2  147.95   16.38
  -2  -2   2  144.42   16.17
   2  -2  -2  163.97   15.50
  -2  -2   2  174.32   15.25
  -2  -2   2  173.85   13.61
   2  -2  -2  172.14   13.38
  -2  -2   2  141.85   14.45
   2   2  -2  156.53   13.49
   2   2  -2  180.59   14.73
  -2   2   2  136.12   16.39
  -1  -2   2   -0.13    0.89
   1  -2  -2    0.42    0.55
   1  -2  -2    0.07    0.58
   1  -2  -2    0.21    0.50
   1  -2  -2    0.37    0.66
   1  -2  -2   -0.50    1.40
  -1  -2   2    0.75    0.87
  -1  -2   2    1.26    0.81
  -1  -2   2    0.26    0.75
  -1   2   2   -0.09    0.88
   1   2  -2   -0.24    0.70
  -1   2   2   -0.68    0.58
   0  -2  -2   64.37    5.42
   0  -2  -2   63.02    5.83
   0  -2   2   56.13    5.60
   0  -2  -2   53.47    5.75
   0  -2   2   70.58    5.40
   0  -2  -2   58.17    5.44
   0   2  -2   63.70    5.66
   1  -2   2   20.47    3.24
   1  -2   2   27.42    2.46
  -1  -2  -2   20.83    2.68
  -1  -2  -2   28.53    2.81
  -1  -2  -2   25.91    3.02
  -1  -2  -2   23.44    2.93
   1   2   2   29.35    3.21
  -2  -2  -2    5.94    1.39
  -2  -2  -2    5.58    1.97
  -2  -2  -2    9.77    1.55
   2  -2   2    8.44    1.91
  -2  -2  -2    7.26    1.43
   2  -2   2    9.51    1.50
   2   2   2    8.28    1.38
  -2   2  -2    6.46    1.15
  -2   2  -2    8.97    1.17
  -2   2  -2    8.47    1.43
   2   2   2    9.11    1.76
  -3  -2  -2    9.60    2.35
   3  -2   2   11.78    1.82
   3  -2   2   11.94    1.86
  -3  -2  -2   10.46    1.92
  -3  -2  -2    9.12    1.76
  -3  -2  -2   12.51    2.19
   3   2   2    9.49    2.02
  -3   2  -2   14.84    1.90
   3   2   2   12.98    2.15
  -3   2  -2   12.62    1.78
   3   2   2   13.54    2.25
  -4  -2  -2   61.49    7.48
   4  -2   2   54.71    6.19
  -4  -2  -2   69.02    7.04
  -4  -2  -2   74.24    6.55
   4  -2   2   68.02    6.35
   4  -2   2   81.10    6.86
   4   2   2   68.68    7.53
  -4   2  -2   70.86    6.68
   4   2   2   75.26    6.68
   4   2   2   61.47    7.19
  -5  -2  -2   36.97    5.25
   5  -2   2   42.00    4.44
   5  -2   2   45.63    4.93
  -5  -2  -2   38.95    4.60
  -5  -2  -2   37.84    5.01
   5  -2   2   40.43    4.45
   5  -2   2   44.79    4.60
   5   2   2   39.96    4.67
  -5   2  -2   43.24    4.53
   5   2   2   48.28    5.54
  -6  -2  -2    4.02    1.98
  -6  -2  -2    2.57    1.73
   6  -2   2    1.54    1.72
  -6  -2  -2    4.11    1.62
   6  -2   2    0.43    1.01
   6  -2   2    1.53    1.79
   6  -2   2   -0.15    1.72
  -6   2  -2    2.63    1.23
   6   2   2    2.14    2.18
   7  -2   2   25.36    3.94
  -7  -2  -2   26.40    3.69
   7  -2   2   16.26    3.41
  -7  -2  -2   24.07    4.25
  -7  -2  -2   24.80    4.28
  -7   2  -2   28.90    3.72
   7   2   2   15.99    3.80
  -8  -2  -2   44.89    5.64
  -8  -2  -2   44.39    5.30
   8  -2   2   33.35    5.98
   8  -2   2   43.66    5.58
  -8  -2  -2   42.71    6.05
   8   2   2   39.86    6.28
   9  -2   2    0.49    2.89
  -9  -2  -2   -0.25    1.96
  -9  -2  -2    4.37    1.89
   9  -2   2   -3.24    2.53
   9   2   2   -2.85    2.82
 -10  -2  -2   36.73    5.63
 -10  -2  -2   29.90    4.43
  10  -2   2   22.88    4.93
 -10  -2  -2   27.39    5.10
  10   2   2   20.11    5.25
  11  -2   2   25.60    5.17
 -11  -2  -2   15.98    4.07
  11   2   2   18.17    5.09
 -10  -3   2    4.01    3.43
  10   3  -2    6.76    2.58
   9  -3  -2    0.56    2.53
  -9  -3   2   -0.76    3.48
  -8  -3   2   11.69    2.93
  -8  -3   2    9.29    3.56
  -7  -3   2    5.53    2.26
  -7  -3   2    4.06    2.37
   7   3  -2    6.26    1.73
  -6  -3   2    3.34    1.90
   6  -3  -2   -0.03    1.44
  -6  -3   2    3.92    1.98
   6  -3  -2    1.94    2.02
   6   3  -2    5.61    1.64
  -5  -3   2   19.92    3.12
   5  -3  -2   13.57    2.31
   5  -3  -2   12.41    2.87
  -5  -3   2   16.02    2.83
   5  -3  -2   14.06    2.09
   5   3  -2   18.63    3.04
  -4  -3   2    7.33    1.85
  -4  -3   2    6.72    1.85
   4  -3  -2    6.45    1.19
   4  -3  -2    5.76    2.55
  -4  -3   2   10.04    2.29
   4   3  -2    7.61    1.63
  -3  -3   2    1.70    1.36
  -3  -3   2    3.86    1.50
   3  -3  -2    1.53    0.66
  -3  -3   2    3.01    1.18
   3  -3  -2    1.84    2.25
  -2  -3   2   13.20    2.33
   2  -3  -2   12.82    1.60
   2  -3  -2   13.60    3.17
  -2  -3   2   16.17    2.07
  -2  -3   2   15.08    2.55
  -2  -3   2   13.71    2.84
   2   3  -2   16.02    2.25
   1  -3  -2   14.27    1.88
  -1  -3   2   11.92    2.10
  -1  -3   2   18.89    1.95
   1  -3  -2   17.29    3.48
  -1  -3   2   14.06    2.17
  -1  -3   2   16.28    2.26
   1  -3  -2   15.61    1.92
   1   3  -2   14.63    1.99
   0  -3  -2    3.27    0.81
   0  -3  -2    4.42    1.17
   0  -3  -2    2.91    1.12
   0  -3   2    4.89    1.02
   0  -3  -2    4.60    1.95
   0  -3  -2    2.31    0.87
   0  -3   2    3.42    1.03
   0  -3  -2    2.71    0.87
  -1  -3  -2    1.73    1.12
  -1  -3  -2    3.34    1.30
  -1  -3  -2    3.66    2.07
  -1  -3  -2    2.28    1.20
   1  -3   2    3.29    0.76
  -1  -3  -2    3.17    1.07
  -2  -3  -2   15.00    2.60
   2  -3   2   16.97    1.65
  -2  -3  -2   14.61    2.73
  -2  -3  -2   14.19    3.43
  -2  -3  -2   15.88    2.68
  -2  -3  -2   15.08    3.17
   2   3   2   12.76    2.42
  -3  -3  -2   24.33    3.57
  -3  -3  -2   25.08    3.33
  -3  -3  -2   23.82    4.98
   3  -3   2   23.98    2.57
  -3  -3  -2   23.52    3.43
   3   3   2   18.89    3.90
  -4  -3  -2    1.79    1.43
  -4  -3  -2    0.65    1.42
   4  -3   2    1.21    1.16
  -4  -3  -2    1.88    2.18
  -5  -3  -2    7.48    2.04
   5  -3   2    8.27    1.71
   5  -3   2    6.36    1.88
   5  -3   2    7.55    2.37
  -5  -3  -2    6.83    1.99
  -5  -3  -2   11.21    3.29
   5   3   2    4.03    2.50
  -6  -3  -2    8.73    2.32
  -6  -3  -2    8.77    2.47
   6  -3   2    4.37    2.10
  -6  -3  -2    7.94    2.86
   8  -3   2    6.23    2.51
  -8  -3  -2    6.74    2.48
  -8  -3  -2    4.14    2.48
   8   3   2    3.17    2.48
  -9  -3  -2    9.89    3.00
  -9  -3  -2    8.67    2.91
   9   3   2   10.40    3.37
  -7  -4   2    4.35    2.69
  -6  -4   2   -0.09    1.91
  -6  -4   2   -0.50    2.47
  -5  -4   2   -0.25    2.46
  -5  -4   2    2.66    1.70
  -4  -4   2   -0.83    2.15
   4  -4  -2   -1.49    3.19
  -3  -4   2   -0.20    1.83
  -2  -4   2    1.66    1.45
  -2  -4   2    3.43    1.68
   2  -4  -2    1.75    3.60
   1  -4  -2    4.37    3.58
  -1  -4   2    5.36    1.28
   0  -4  -2    1.30    1.25
   0  -4  -2    1.27    3.83
   0  -4  -2    0.21    1.24
  -1  -4  -2    2.70    1.50
  -1  -4  -2    7.26    4.03
  -1  -4  -2    4.22    1.64
  -2  -4  -2    9.53    3.45
  -6  -4  -2    0.42    2.41
  -6  -4  -2    0.68    2.70
  13   0  -3    1.27    3.00
 -13   0   3    5.54    2.98
 -12   0   3   -3.88    2.49
  12   0  -3   -2.50    2.49
 -11   0   3    4.61    3.68
 -11   0   3   -4.52    2.37
  11   0  -3   -4.97    2.46
  11   0  -3   -4.21    2.36
  10   0  -3   -0.25    1.73
  10   0  -3   -4.19    1.97
 -10   0   3    1.32    1.75
 -10   0   3    2.66    3.43
 -10   0   3   -2.06    1.83
  -9   0   3    2.15    1.32
   9   0  -3   -1.65    1.66
  -9   0   3    1.06    2.84
   9   0  -3    0.55    1.36
  -9   0   3   -0.92    1.56
  -8   0   3   -0.65    1.38
   8   0  -3   -0.15    1.52
  -8   0   3   -1.19    1.48
  -8   0   3   -0.07    2.36
   8   0  -3    0.26    1.33
   8   0  -3    1.55    1.62
   7   0  -3    0.06    1.27
   7   0  -3   -0.67    1.53
  -7   0   3   -1.51    1.08
   7   0  -3   -0.22    1.36
  -7   0   3   -0.33    1.28
  -7   0   3   -0.15    2.18
  -7   0   3    0.76    1.39
   6   0  -3   -0.19    1.27
  -6   0   3   -0.24    1.17
   6   0  -3   -0.48    1.07
   6   0  -3    0.16    1.48
  -6   0   3    0.42    1.30
  -6   0   3    0.25    2.05
   5   0  -3    1.51    1.09
  -5   0   3    0.62    1.83
   5   0  -3   -0.10    1.38
  -5   0   3   -0.19    1.04
   5   0  -3    0.09    1.07
   5   0  -3   -0.41    1.01
  -5   0   3   -0.69    1.17
  -5   0   3    0.74    1.15
  -4   0   3   -0.16    0.94
   4   0  -3   -0.29    1.08
   4   0  -3    1.22    1.05
  -4   0   3    0.03    0.97
   4   0  -3    0.09    0.94
   4   0  -3    1.03    1.05
   4   0  -3    0.87    1.03
  -4   0   3   -0.08    1.00
  -4   0   3    0.46    1.19
  -4   0   3    1.23    1.76
   3   0  -3    0.96    1.13
  -3   0   3    2.53    1.27
   3   0  -3    1.94    1.09
  -3   0   3   -1.65    0.92
   3   0  -3    1.11    0.93
  -3   0   3    0.53    1.19
   3   0  -3    0.69    0.96
  -3   0   3   -0.72    0.83
   2   0  -3   -0.08    0.81
  -2   0   3    1.30    1.04
   2   0  -3    2.21    0.96
   2   0  -3    0.99    0.85
  -2   0   3    2.26    0.96
  -2   0   3    0.38    1.30
   2   0  -3    0.52    1.10
  -2   0   3   -0.28    0.79
  -2   0   3   -0.76    1.02
   2   0  -3   -0.69    0.74
   2   0  -3    1.77    1.16
   1   0  -3    0.04    0.80
  -1   0   3    2.64    0.98
  -1   0   3   -0.46    0.76
   1   0  -3   -1.05    1.00
  -1   0   3    2.33    1.04
  -1   0   3    1.77    0.75
   1   0  -3    0.24    0.73
   0   0  -3    1.87    0.84
   0   0  -3   -0.02    0.69
   0   0   3   -0.98    0.72
   0   0   3   -0.66    0.82
   0   0  -3   -0.55    0.75
   1   0   3    1.07    1.01
  -1   0  -3    0.84    0.86
   1   0   3    0.42    1.01
  -1   0  -3   -1.10    0.98
  -1   0  -3   -0.63    0.88
   1   0   3   -0.56    0.97
   1   0   3   -0.28    1.06
  -1   0  -3    0.49    0.82
  -1   0  -3    0.03    0.86
   2   0   3   -0.77    1.05
  -2   0  -3   -0.01    0.86
   2   0   3   -0.39    0.80
  -2   0  -3   -0.30    0.79
  -2   0  -3    0.52    0.84
  -2   0  -3    0.27    0.76
  -2   0  -3    0.44    0.79
   2   0   3    1.28    1.16
   2   0   3    0.30    0.99
   2   0   3    1.81    1.23
   3   0   3    0.23    0.85
   3   0   3   -0.80    1.05
   3   0   3    0.01    0.90
  -3   0  -3    0.32    0.99
   3   0   3   -0.78    1.05
  -3   0  -3   -0.95    0.79
  -3   0  -3   -0.73    0.69
   3   0   3   -0.65    1.08
  -3   0  -3   -0.59    0.77
  -4   0  -3    0.28    1.21
  -4   0  -3   -0.11    1.01
   4   0   3   -0.01    1.63
  -4   0  -3   -0.20    0.77
  -4   0  -3    0.15    1.20
   4   0   3   -0.81    1.34
   4   0   3   -1.32    1.37
  -5   0  -3    0.23    1.11
   5   0   3   -0.88    1.43
  -5   0  -3   -0.83    1.14
   5   0   3   -0.30    1.82
  -5   0  -3    0.25    0.74
   5   0   3    0.04    1.60
  -6   0  -3    0.59    1.09
   6   0   3    4.58    1.58
  -6   0  -3    0.58    1.46
   6   0   3    0.11    1.89
   6   0   3    0.21    1.75
  -6   0  -3    0.29    0.71
  -7   0  -3    0.54    0.72
   7   0   3   -1.07    1.97
  -7   0  -3    0.30    1.12
  -7   0  -3   -0.01    1.64
   7   0   3   -2.54    2.16
  -8   0  -3    0.07    0.74
  -8   0  -3   -1.28    1.83
   8   0   3   -0.77    2.26
  -8   0  -3    0.48    1.41
   8   0   3   -1.33    2.57
  -9   0  -3   -0.55    1.69
  -9   0  -3    0.20    1.94
   9   0   3   -2.52    2.68
   9   0   3   -1.12    2.19
 -10   0  -3   -0.57    2.16
  10   0   3    0.99    2.80
  10   0   3   -0.91    2.98
  11   0   3    1.77    2.58
  13  -1  -3    7.07    4.28
  13   1  -3   10.40    3.38
  12  -1  -3    2.67    3.48
 -12  -1   3   14.43    5.39
  12  -1  -3    7.55    3.41
 -12  -1   3    2.22    3.38
 -12   1   3    6.52    2.76
 -12   1   3   15.34    5.94
  12   1  -3    5.30    3.57
 -11  -1   3    2.28    2.60
  11  -1  -3    1.91    2.89
 -11  -1   3    3.14    2.23
  11  -1  -3    1.88    2.73
 -11   1   3   11.92    4.80
  11   1  -3    1.36    2.56
 -11   1   3   -0.65    2.45
  10  -1  -3   12.67    2.94
 -10  -1   3   20.97    3.50
 -10  -1   3   13.64    3.37
  10  -1  -3    9.31    2.94
  10   1  -3   12.67    3.45
 -10   1   3   18.28    4.41
  10   1  -3   13.04    3.32
 -10   1   3   10.28    2.99
   9  -1  -3    8.52    2.41
  -9  -1   3   11.35    2.65
  -9  -1   3   15.17    4.07
  -9  -1   3    9.13    2.53
   9  -1  -3    8.49    2.43
   9   1  -3    7.04    2.54
  -9   1   3    9.12    2.51
   9   1  -3    6.01    2.16
  -9   1   3   13.46    3.96
  -8  -1   3   15.09    3.54
   8  -1  -3   13.16    2.51
  -8  -1   3   13.04    2.79
   8  -1  -3   10.06    2.26
  -8  -1   3    5.86    1.99
   8  -1  -3   12.41    2.47
  -8   1   3   13.18    3.63
   8   1  -3   13.23    2.71
  -8   1   3    8.34    2.23
   8   1  -3    9.61    2.31
  -8   1   3    8.84    1.51
  -8   1   3   12.11    2.09
  -7  -1   3    5.46    2.56
  -7  -1   3    2.98    1.59
   7  -1  -3    7.48    1.93
   7  -1  -3    3.93    1.70
  -7  -1   3    3.71    1.73
   7  -1  -3    3.51    1.35
   7  -1  -3    6.03    1.41
  -7  -1   3    4.69    1.66
   7   1  -3    4.86    1.85
  -7   1   3    3.38    1.52
  -7   1   3    4.45    0.98
  -7   1   3    5.07    2.61
   7   1  -3    4.94    1.95
  -7   1   3    5.15    1.25
  -6  -1   3  143.61   18.36
   6  -1  -3  172.68   15.20
   6  -1  -3  187.65   16.44
   6  -1  -3  181.76   15.10
  -6  -1   3  171.78   15.16
   6  -1  -3  174.04   16.53
   6   1  -3  179.88   15.18
  -6   1   3  193.81   16.42
  -6   1   3  162.47   15.01
  -6   1   3  181.22   18.66
   6   1  -3  172.09   16.51
   5  -1  -3   21.77    3.05
   5  -1  -3   19.19    2.45
   5  -1  -3   13.73    2.68
  -5  -1   3   17.40    3.59
   5  -1  -3   19.43    2.79
  -5  -1   3   18.90    2.60
   5   1  -3   15.69    3.01
   5   1  -3   16.54    2.55
  -5   1   3   15.10    2.22
  -5   1   3   12.79    2.29
  -5   1   3   14.57    3.10
   5   1  -3   20.93    3.17
  -4  -1   3    6.52    2.02
   4  -1  -3    9.02    1.56
   4  -1  -3    8.72    1.70
   4  -1  -3    6.34    1.38
  -4  -1   3    8.09    1.78
   4  -1  -3    9.18    1.68
  -4  -1   3    5.75    1.49
  -4  -1   3    6.52    1.39
   4   1  -3    5.67    1.57
   4   1  -3   10.23    1.75
   4   1  -3    4.34    1.19
  -4   1   3    4.93    1.18
  -4   1   3    5.51    2.02
  -4   1   3    5.68    1.23
  -4   1   3    6.74    1.61
   3  -1  -3    0.89    0.84
   3  -1  -3    2.05    0.85
  -3  -1   3    1.59    0.99
  -3  -1   3    2.36    1.26
   3  -1  -3    0.14    1.18
  -3  -1   3    0.18    0.94
   3  -1  -3    0.71    0.86
  -3  -1   3    1.89    1.44
   3  -1  -3    1.02    1.22
  -3  -1   3    1.56    1.12
  -3   1   3    1.01    0.93
   3   1  -3    1.53    0.97
  -3   1   3    1.90    0.92
  -3   1   3    2.02    1.55
   3   1  -3    2.63    1.06
   3   1  -3    1.80    1.28
  -3   1   3    1.62    0.86
  -3   1   3    1.15    0.95
  -2  -1   3   13.06    2.24
  -2  -1   3   10.72    2.07
   2  -1  -3    9.08    1.48
  -2  -1   3    5.22    1.28
   2  -1  -3   11.81    1.75
   2  -1  -3    7.42    1.58
  -2  -1   3    5.65    1.37
  -2  -1   3    8.63    1.60
   2  -1  -3    8.17    1.66
   2   1  -3    9.02    1.51
  -2   1   3    5.01    1.66
  -2   1   3    7.40    1.29
  -2   1   3    9.38    1.65
  -2   1   3    9.33    1.50
  -2   1   3   10.86    1.95
   2   1  -3    8.13    1.38
  -2   1   3   11.78    1.97
  -1  -1   3   79.80    6.47
   1  -1  -3   71.80    7.25
  -1  -1   3   84.99    6.97
   1  -1  -3   61.20    6.40
  -1   1   3   60.99    6.33
   1   1  -3   81.70    7.25
  -1   1   3   78.77    6.89
  -1   1   3   76.42    7.37
   1   1  -3   76.57    6.41
  -1   1   3   65.79    7.20
  -1   1   3   80.65    7.89
   0  -1  -3   82.52    7.32
   0  -1   3   81.65    7.10
   0  -1  -3   60.62    6.73
   0  -1   3   72.59    6.29
   0  -1  -3   82.93    6.87
   0  -1  -3   60.03    6.27
   0  -1   3   75.57    6.72
   0   1  -3   83.29    7.09
   0   1   3   73.84    6.78
   0   1  -3   70.96    6.20
   0   1   3   67.62    6.26
   0   1  -3   59.94    6.63
  -1  -1  -3    8.02    1.47
  -1  -1  -3    8.27    1.40
  -1  -1  -3   12.34    2.35
   1  -1   3    9.31    1.56
   1  -1   3    7.57    1.38
   1  -1   3    8.08    1.33
  -1  -1  -3    6.41    1.42
  -1  -1  -3   10.83    1.72
  -1   1  -3   12.17    1.75
   1   1   3   12.44    2.09
  -1   1  -3   12.71    1.92
   1   1   3    9.84    1.58
  -1   1  -3   10.38    1.68
  -1   1  -3   10.43    1.42
  -2  -1  -3   39.68    4.06
   2  -1   3   42.90    4.39
   2  -1   3   45.30    4.02
  -2  -1  -3   39.41    4.56
   2  -1   3   45.69    4.03
  -2  -1  -3   44.10    4.07
  -2  -1  -3   39.79    4.35
   2  -1   3   36.69    4.32
   2  -1   3   40.70    4.29
  -2   1  -3   36.92    4.43
   2   1   3   48.76    4.67
  -2   1  -3   37.92    4.25
  -2   1  -3   40.44    3.82
  -3  -1  -3    5.78    1.49
  -3  -1  -3    5.73    1.67
   3  -1   3    4.80    1.26
   3  -1   3    3.93    1.14
   3  -1   3    4.38    1.43
  -3  -1  -3    2.71    1.07
  -3  -1  -3    3.36    1.27
   3  -1   3    5.80    1.56
   3  -1   3    3.78    1.37
   3   1   3    4.15    1.57
  -3   1  -3    5.55    1.27
  -3   1  -3    5.11    1.11
  -3   1  -3    4.68    1.29
   3   1   3    3.27    1.69
   3   1   3    3.24    1.74
   4  -1   3   51.86    5.29
  -4  -1  -3   50.17    4.75
  -4  -1  -3   47.85    5.19
   4  -1   3   52.93    4.66
  -4  -1  -3   40.83    5.11
  -4  -1  -3   38.94    4.67
   4  -1   3   51.22    5.25
  -4   1  -3   46.54    4.46
   4   1   3   40.80    4.83
  -4   1  -3   46.27    4.99
   4   1   3   36.54    5.36
  -5  -1  -3    0.51    1.22
   5  -1   3   -1.69    1.47
  -5  -1  -3    1.27    1.37
   5  -1   3    0.96    1.83
   5  -1   3    0.73    1.58
   5  -1   3    1.44    1.52
  -5  -1  -3    0.81    1.31
  -5  -1  -3    0.79    1.29
  -5   1  -3    1.41    1.11
   5   1   3    0.23    1.51
  -5   1  -3    0.53    1.02
   5   1   3    1.62    1.54
   6  -1   3    0.44    1.62
   6  -1   3    1.37    1.74
  -6  -1  -3    1.62    1.45
  -6  -1  -3    0.12    1.34
   6  -1   3    0.45    1.83
  -6  -1  -3   -1.18    1.31
  -6  -1  -3    0.38    1.27
   6   1   3    1.93    1.71
  -6   1  -3    1.93    1.32
   6   1   3    1.33    1.97
  -6   1  -3    0.95    1.17
  -7  -1  -3   15.12    3.08
   7  -1   3   20.45    3.36
   7  -1   3   24.54    3.70
  -7  -1  -3   20.24    3.92
  -7  -1  -3   19.81    3.35
  -7   1  -3   16.45    2.91
  -7   1  -3   19.77    3.49
   7   1   3   16.41    3.52
   7   1   3   21.79    3.87
  -8  -1  -3  103.10   10.66
   8  -1   3   82.79   10.44
   8  -1   3  108.49   10.07
  -8  -1  -3  107.92   10.34
  -8  -1  -3  109.10    9.70
   8   1   3  110.02   11.20
  -8   1  -3   95.44   10.23
   8   1   3   88.90    9.81
  -9  -1  -3   15.20    3.62
  -9  -1  -3   10.68    2.40
   9  -1   3   12.39    3.53
   9  -1   3   10.65    2.81
  -9   1  -3   10.34    2.44
   9   1   3    9.25    3.44
 -10  -1  -3   17.37    3.25
  10  -1   3   17.25    3.83
  10  -1   3   28.17    4.72
 -10  -1  -3   15.72    3.86
 -10  -1  -3   22.00    3.52
  10   1   3   14.76    4.19
  11  -1   3    6.22    3.18
 -11  -1  -3    5.34    3.23
  11   1   3    4.77    3.07
  12  -1   3    3.31    3.89
 -12  -1  -3    8.76    3.77
  12   1   3   12.47    3.86
  12  -2  -3   -3.70    3.20
 -12  -2   3    0.26    3.45
 -12  -2   3    4.33    2.60
  12   2  -3    5.72    2.80
  11  -2  -3   15.21    3.83
 -11  -2   3   20.46    4.27
  11   2  -3   10.46    3.49
 -10  -2   3   10.21    2.63
 -10  -2   3    7.76    3.40
  10  -2  -3    9.50    2.71
  10  -2  -3    8.27    2.83
  10   2  -3    7.01    3.37
 -10   2   3   17.19    5.19
  -9  -2   3    8.15    2.79
  -9  -2   3    2.42    1.90
  -9  -2   3   -0.89    1.96
   9  -2  -3   -2.48    2.00
   9  -2  -3   -0.80    1.97
   9   2  -3   -1.45    2.29
  -9   2   3    6.35    3.57
   8  -2  -3   49.23    5.61
  -8  -2   3   50.02    6.67
  -8  -2   3   61.45    7.42
   8  -2  -3   46.12    6.19
  -8  -2   3   57.98    6.63
   8   2  -3   46.77    6.54
  -8   2   3   46.35    6.00
  -8   2   3   59.66    7.77
   7  -2  -3   45.32    5.96
   7  -2  -3   40.23    5.12
  -7  -2   3   61.70    6.41
  -7  -2   3   62.10    7.10
  -7  -2   3   43.65    5.80
   7  -2  -3   59.17    5.67
   7  -2  -3   56.41    5.82
   7   2  -3   39.27    6.03
  -7   2   3   51.78    5.62
  -7   2   3   58.02    7.63
  -6  -2   3    4.35    1.76
   6  -2  -3    5.62    1.48
   6  -2  -3    7.04    1.65
   6  -2  -3    5.43    2.08
  -6  -2   3    5.91    1.94
   6  -2  -3    7.32    1.72
  -6  -2   3    9.90    2.52
  -6  -2   3    6.67    1.78
  -6   2   3    7.89    2.77
   6   2  -3    4.48    1.84
  -6   2   3    4.28    1.38
   6   2  -3    4.82    1.79
  -5  -2   3   59.33    5.98
  -5  -2   3   54.22    5.48
  -5  -2   3   55.99    6.61
   5  -2  -3   54.82    5.22
   5  -2  -3   47.63    6.12
  -5  -2   3   50.50    5.71
  -5  -2   3   58.93    6.09
   5  -2  -3   62.29    5.72
  -5   2   3   59.09    7.09
   5   2  -3   56.57    6.15
  -5   2   3   58.62    5.73
   5   2  -3   50.26    5.48
  -5   2   3   51.24    5.41
  -4  -2   3   59.76    6.08
   4  -2  -3   49.09    5.10
   4  -2  -3   46.44    4.79
   4  -2  -3   50.71    4.75
  -4  -2   3   53.84    5.07
  -4  -2   3   46.64    5.16
  -4  -2   3   46.33    5.33
   4  -2  -3   57.14    5.98
   4   2  -3   51.35    5.57
   4   2  -3   50.72    4.99
  -4   2   3   53.51    6.31
   3  -2  -3  178.71   19.68
  -3  -2   3  178.68   19.51
  -3  -2   3  200.01   16.32
  -3  -2   3  164.51   17.34
   3  -2  -3  178.91   18.30
   3  -2  -3  199.03   16.12
   3  -2  -3  179.34   17.08
  -3   2   3  217.34   18.01
   3   2  -3  215.34   16.27
   3   2  -3  194.62   17.67
  -3   2   3  200.60   19.78
   2  -2  -3   22.57    3.17
   2  -2  -3   22.76    2.61
  -2  -2   3   16.83    2.79
  -2  -2   3   22.17    3.03
   2  -2  -3   18.60    2.42
   2  -2  -3   21.92    2.28
  -2  -2   3   21.42    2.54
  -2  -2   3   18.97    2.75
  -2  -2   3   21.43    2.81
   2  -2  -3   23.90    3.71
  -2   2   3   22.03    2.48
   2   2  -3   19.83    2.69
  -2   2   3   19.90    3.08
   2   2  -3   20.43    2.26
  -1  -2   3  211.20   15.94
   1  -2  -3  160.48   17.03
  -1  -2   3  208.42   17.83
   1  -2  -3  178.17   18.14
  -1  -2   3  172.23   15.92
  -1  -2   3  183.14   16.91
   1   2  -3  210.30   17.17
  -1   2   3  187.44   19.13
   0  -2  -3   93.74    9.36
   0  -2   3  103.70    9.15
   0  -2   3   92.52    9.58
   0  -2   3  106.95    8.65
   0  -2  -3  106.33    8.72
   0  -2  -3   99.81    8.74
   0  -2  -3  104.83    9.80
   0  -2  -3  111.28   10.36
   0  -2  -3  110.76    9.34
   0   2  -3   94.61    9.08
   0   2   3   89.01   10.24
  -1  -2  -3   -1.24    0.97
  -1  -2  -3    0.20    0.93
   1  -2   3    0.06    0.72
  -1  -2  -3   -0.35    1.34
  -1  -2  -3    0.40    0.92
  -1  -2  -3    0.08    1.16
   1  -2   3   -0.26    0.81
  -1  -2  -3   -0.25    0.91
   1  -2   3    0.04    1.22
  -1   2  -3   -0.77    0.61
   1   2   3   -0.08    1.09
  -1   2  -3   -0.46    0.57
  -1   2  -3    0.74    0.63
  -2  -2  -3   25.54    3.25
  -2  -2  -3   23.62    2.94
   2  -2   3   22.61    2.64
   2  -2   3   27.11    2.76
  -2  -2  -3   22.99    2.93
  -2   2  -3   25.81    2.74
  -2   2  -3   21.59    2.90
   2   2   3   28.11    3.08
   2   2   3   28.39    3.57
  -2   2  -3   26.67    2.71
   3  -2   3  107.17    8.84
  -3  -2  -3   79.67    9.55
  -3  -2  -3  102.49    9.05
  -3  -2  -3  103.28    9.06
   3  -2   3  108.87    9.36
   3   2   3  107.01   10.06
  -3   2  -3  101.28    9.45
   3   2   3   98.21   10.59
  -4  -2  -3    7.20    1.82
  -4  -2  -3    8.05    1.84
   4  -2   3    6.96    1.67
   4  -2   3    7.07    1.62
   4  -2   3    7.20    1.61
  -4  -2  -3    6.76    2.00
  -4  -2  -3   10.95    1.98
   4  -2   3    7.86    1.72
  -4   2  -3    7.52    1.64
   4   2   3    9.82    1.94
   4   2   3    8.49    2.15
  -4   2  -3    6.54    1.42
  -5  -2  -3   69.51    7.24
  -5  -2  -3   78.28    7.27
  -5  -2  -3   67.67    7.77
   5  -2   3   75.19    7.60
   5  -2   3   80.85    7.52
   5  -2   3   75.32    7.09
   5  -2   3   87.01    7.85
   5   2   3   68.89    8.08
   5   2   3   75.13    7.46
  -5   2  -3   71.27    7.32
   6  -2   3   36.46    4.62
   6  -2   3   37.32    5.04
   6  -2   3   42.48    4.57
  -6  -2  -3   35.39    4.67
  -6  -2  -3   32.58    5.30
  -6  -2  -3   37.44    5.15
  -6   2  -3   41.82    4.65
   6   2   3   35.55    5.40
   6   2   3   46.57    5.05
   7  -2   3   29.35    5.50
   7  -2   3   33.61    4.98
  -7  -2  -3   37.70    5.05
  -7  -2  -3   44.12    5.77
  -7  -2  -3   51.58    6.00
  -7   2  -3   42.47    5.26
   7   2   3   44.26    5.96
   8  -2   3    6.29    3.02
   8  -2   3   14.36    3.20
  -8  -2  -3   14.51    2.97
  -8  -2  -3   20.07    3.70
  -8  -2  -3   23.17    4.64
   8   2   3   11.48    3.19
  -9  -2  -3   15.52    3.85
   9  -2   3   17.40    4.13
  -9  -2  -3   19.23    3.87
   9  -2   3   22.04    3.89
   9   2   3   29.35    5.53
  10  -2   3   43.40    6.50
 -10  -2  -3   42.52    6.26
 -10  -2  -3   37.65    6.43
  10  -2   3   28.92    5.76
  10   2   3   46.58    7.03
 -11  -2  -3    1.16    2.42
 -11  -2  -3    5.51    2.73
  11   2   3    5.27    2.82
 -10  -3   3   39.00    6.59
 -10  -3   3   46.55    6.81
  10  -3  -3   31.38    5.31
  10   3  -3   39.00    5.71
  -9  -3   3   32.44    5.03
   9  -3  -3   25.30    4.12
  -9  -3   3   23.91    4.68
   9   3  -3   34.33    4.93
  -8  -3   3   13.18    2.95
  -8  -3   3    8.52    3.11
   8  -3  -3   11.16    2.70
   8   3  -3   10.89    3.05
  -7  -3   3   14.49    3.50
   7  -3  -3   10.19    2.11
  -7  -3   3   16.69    3.38
   7   3  -3    8.62    2.85
   6  -3  -3   88.89    8.29
   6  -3  -3   91.44    8.21
  -6  -3   3  107.99   10.02
   6  -3  -3   76.24    9.57
   6   3  -3   92.49    9.72
  -6   3   3   94.18   11.24
  -5  -3   3   23.11    4.50
   5  -3  -3   22.32    2.84
   5  -3  -3   22.00    4.04
  -5  -3   3   25.01    4.07
  -5   3   3   32.56    5.21
   5   3  -3   27.07    4.25
  -4  -3   3   -0.31    1.46
  -4  -3   3   -0.98    1.51
   4  -3  -3    0.37    0.93
   4  -3  -3    4.39    1.92
  -4  -3   3    2.55    1.63
  -4   3   3    3.27    1.97
   4   3  -3   -1.25    1.42
   3  -3  -3  183.93   17.05
   3  -3  -3  152.99   14.29
  -3  -3   3  173.59   15.59
  -3  -3   3  165.75   14.67
   3   3  -3  178.09   15.83
  -2  -3   3   68.66    6.84
   2  -3  -3   67.03    6.51
  -2  -3   3   69.81    6.95
  -2  -3   3   82.61    7.28
   2  -3  -3   83.85    8.66
   2   3  -3   82.53    7.30
  -1  -3   3   13.92    2.29
   1  -3  -3   16.93    2.14
  -1  -3   3   14.38    2.02
  -1  -3   3   15.26    2.48
   1  -3  -3   14.95    3.48
   1  -3  -3   14.32    2.09
   1   3  -3   14.01    1.88
   0  -3   3   15.06    2.11
   0  -3  -3   13.24    2.24
   0  -3  -3   19.85    3.74
   0  -3  -3   14.30    2.29
   0  -3   3   14.08    2.32
   0  -3  -3   14.57    2.31
   0  -3  -3   17.09    2.37
  -1  -3  -3   46.79    5.25
   1  -3   3   50.14    4.63
  -1  -3  -3   59.28    7.11
  -1  -3  -3   49.70    5.51
  -1  -3  -3   54.92    5.09
  -1  -3  -3   51.56    5.06
  -2  -3  -3   80.26    7.54
   2  -3   3   72.80    6.45
  -2  -3  -3   74.07    6.96
  -2  -3  -3   58.98    8.35
  -2  -3  -3   75.55    7.83
  -2  -3  -3   83.67    7.05
   2   3   3   68.38    7.61
  -3  -3  -3    7.06    1.97
  -3  -3  -3    6.65    1.85
  -3  -3  -3    7.71    1.95
  -3  -3  -3    7.92    2.75
   3   3   3    4.75    2.28
  -4  -3  -3   60.16    9.05
  -4  -3  -3   72.07    7.46
  -4  -3  -3   78.86    8.03
   4  -3   3   84.61    7.03
   4   3   3   78.87    8.43
  -5  -3  -3   49.58    7.45
  -5  -3  -3   59.09    6.41
  -5  -3  -3   48.14    5.87
   5  -3   3   46.45    5.22
   5   3   3   58.10    7.01
   6  -3   3    5.31    2.03
  -6  -3  -3    6.16    2.27
  -6  -3  -3    8.85    3.03
  -6  -3  -3    6.75    2.34
   6   3   3   -0.56    2.73
  -7  -3  -3   35.17    5.26
  -7  -3  -3   34.27    5.39
   7   3   3   30.58    6.37
  -8  -3  -3   40.51    5.64
  -8  -3  -3   34.24    5.99
   8   3   3   35.44    6.11
  -9  -3  -3   12.49    4.37
  -9  -3  -3    8.39    2.91
   9   3   3    0.50    3.93
  -7  -4   3   31.80    5.65
  -6  -4   3   -1.44    2.79
  -5  -4   3   28.17    4.85
  -5  -4   3   29.53    4.09
  -4  -4   3   51.36    6.01
   4  -4  -3   59.31    7.11
  -4  -4   3   49.92    5.78
  -3  -4   3   46.75    5.10
   3  -4  -3   40.79    6.89
  -2  -4   3    2.82    1.75
   2  -4  -3    1.93    3.47
  -1  -4   3   56.41    4.99
   1  -4  -3   59.34    8.54
   1  -4  -3   47.95    4.55
  -1  -4   3   39.01    4.78
   0  -4   3   29.82    3.33
   0  -4  -3   31.68    3.80
   0  -4  -3   36.42    6.59
   0  -4   3   38.80    3.40
  -1  -4  -3    2.42    1.59
  -1  -4  -3    3.46    3.42
  -2  -4  -3   29.56    3.93
  -2  -4  -3   43.00    8.07
  -2  -4  -3   30.75    4.31
  -3  -4  -3   62.15    9.27
  -3  -4  -3   42.28    5.58
  -3  -4  -3   44.98    5.27
  -4  -4  -3   -0.54    2.49
  -4  -4  -3    3.96    4.38
   5  -4   3   24.85    2.97
  -5  -4  -3   24.56    6.47
  -5  -4  -3   19.83    3.94
  -5  -4  -3   23.02    4.30
  -6  -4  -3   29.61    5.86
  -6  -4  -3   48.71    9.46
  -6  -4  -3   37.32    5.76
  14   0  -4    0.40    3.56
 -14   0   4   -0.11    3.18
  13   0  -4   35.81    6.97
  13   0  -4   47.88    8.01
  12   0  -4  110.52   12.23
  12   0  -4  146.72   13.65
 -12   0   4  115.24   13.80
 -12   0   4  125.75   16.08
  11   0  -4    2.07    2.70
  11   0  -4    4.90    2.57
 -11   0   4   -0.21    2.46
 -10   0   4   36.23    7.31
 -10   0   4   28.37    5.31
  10   0  -4   32.48    5.00
  10   0  -4   34.94    5.15
 -10   0   4   35.83    4.41
   9   0  -4  204.89   18.44
  -9   0   4  234.32   18.65
  -9   0   4  191.55   22.62
  -9   0   4  212.29   19.66
   9   0  -4  206.26   20.09
   8   0  -4   81.94    7.74
  -8   0   4   81.55    8.17
  -8   0   4   64.17    7.40
  -8   0   4   80.63    9.73
   8   0  -4   74.75    8.37
   8   0  -4   82.85    7.58
   7   0  -4  201.47   17.52
   7   0  -4  206.49   17.70
   7   0  -4  173.57   18.95
   7   0  -4  213.94   18.81
  -7   0   4  217.23   21.55
   6   0  -4  182.81   14.31
  -6   0   4  170.71   17.53
   6   0  -4  162.48   15.51
  -6   0   4  140.80   15.53
   5   0  -4  451.60   38.40
  -5   0   4  421.12   35.57
  -5   0   4  383.69   35.43
   5   0  -4  426.34   39.34
  -5   0   4  440.78   43.11
   5   0  -4  475.71   35.63
   5   0  -4  414.98   37.75
   5   0  -4  377.05   35.43
  -4   0   4    2.36    1.16
   4   0  -4    1.41    1.13
   4   0  -4    2.11    1.22
   4   0  -4    3.30    1.28
  -4   0   4    3.28    1.37
  -4   0   4    1.92    1.15
   4   0  -4    3.13    1.16
  -4   0   4    0.20    1.77
  -3   0   4   72.74    7.90
  -3   0   4   86.60    7.07
   3   0  -4   70.12    6.98
   3   0  -4   86.57    7.85
  -3   0   4   66.99    7.47
   3   0  -4   92.08    7.88
   2   0  -4 1000.00   76.86
   2   0  -4  868.41   72.06
  -2   0   4  896.88   75.71
   2   0  -4  734.72   80.19
  -2   0   4  723.98   79.61
  -2   0   4  909.66   86.26
  -2   0   4  883.92   71.32
  -2   0   4  870.09   71.30
  -1   0   4   18.67    2.55
  -1   0   4   21.38    2.85
  -1   0   4   22.22    2.97
   1   0  -4   25.41    2.78
   0   0   4    3.96    1.25
   0   0  -4    4.02    1.14
   0   0  -4    2.65    1.19
   0   0  -4    3.57    1.12
   1   0   4  749.89   58.79
   1   0   4  646.18   62.40
   1   0   4  731.73   63.36
  -1   0  -4  745.12   66.17
   1   0   4  671.56   65.31
  -2   0  -4  191.86   18.24
  -2   0  -4  227.62   18.27
   2   0   4  228.74   18.28
   2   0   4  195.07   19.45
  -2   0  -4  191.52   19.41
  -2   0  -4  232.66   20.22
   2   0   4  244.62   19.84
   3   0   4   13.49    2.69
  -3   0  -4   13.88    2.62
   3   0   4   20.83    3.22
   3   0   4   13.62    2.69
  -3   0  -4   17.59    2.42
  -3   0  -4   18.21    2.49
   3   0   4   18.37    2.58
  -3   0  -4   17.69    2.47
  -4   0  -4    2.23    1.25
   4   0   4    2.13    1.07
   4   0   4    3.89    1.49
  -4   0  -4    2.74    1.07
  -4   0  -4    2.62    1.43
   4   0   4    1.26    1.60
   4   0   4    2.77    1.91
  -5   0  -4  233.59   23.26
  -5   0  -4  288.67   21.40
   5   0   4  242.27   21.37
   5   0   4  233.84   23.08
   6   0   4    3.28    1.98
   6   0   4    5.19    2.06
  -6   0  -4    6.16    1.88
  -6   0  -4    4.85    1.63
  -6   0  -4    5.13    1.20
   6   0   4    3.73    2.04
  -7   0  -4  124.86   12.01
  -7   0  -4  124.84   11.54
   7   0   4  109.98   11.10
  -8   0  -4  225.35   20.90
   8   0   4  191.56   19.46
  -8   0  -4  242.28   20.78
  -9   0  -4    2.48    1.80
   9   0   4    1.33    2.11
   9   0   4    6.97    2.44
  10   0   4    5.00    2.86
  10   0   4    0.16    2.55
 -10   0  -4    2.78    2.22
  11   0   4   69.25    8.84
 -11   0  -4   62.27    8.34
  12   0   4   39.78    8.71
 -12   0  -4   51.33    7.86
  12   0   4   67.14    8.68
  13  -1  -4   17.40    4.55
  13  -1  -4   13.63    4.23
 -13  -1   4    5.05    3.72
  13   1  -4   14.28    4.06
 -12  -1   4    0.13    3.15
  12  -1  -4    1.60    3.22
  12  -1  -4    0.25    3.21
 -12   1   4   -0.93    2.99
  12   1  -4    5.36    3.42
  11  -1  -4   48.32    7.00
 -11  -1   4   50.22    5.72
 -11  -1   4   44.61    7.46
  11  -1  -4   48.78    6.41
 -11   1   4   64.54    9.76
 -11   1   4   39.32    6.72
  11   1  -4   54.78    6.95
  10  -1  -4   84.47    8.46
 -10  -1   4   81.26    8.59
  10  -1  -4   64.48    8.86
 -10  -1   4   89.52   11.27
 -10  -1   4   97.46    9.61
 -10   1   4   77.16    9.01
 -10   1   4   93.72   11.58
  10   1  -4   81.25    8.65
  -9  -1   4    0.46    2.94
  -9  -1   4   -0.01    1.81
  -9  -1   4   -1.58    1.86
   9  -1  -4   -0.02    1.64
   9  -1  -4   -1.87    1.74
   9   1  -4   -3.04    1.90
   9   1  -4    0.59    1.74
  -9   1   4    1.18    3.01
  -8  -1   4   92.55    9.55
  -8  -1   4  102.66   11.88
   8  -1  -4  116.12    9.88
  -8  -1   4   98.38   10.16
   8  -1  -4  102.30    9.52
   8  -1  -4  101.00   10.30
   8   1  -4   96.62    9.48
  -8   1   4   99.33   12.12
  -8   1   4   81.82    9.05
   8   1  -4  113.19   10.63
  -8   1   4  100.36    9.97
   7  -1  -4  146.47   12.36
   7  -1  -4  133.14   12.16
  -7  -1   4  122.82   12.17
  -7  -1   4  142.53   15.10
   7  -1  -4  151.61   13.33
   7  -1  -4  120.31   13.20
   7   1  -4  136.41   12.26
  -7   1   4  142.06   12.15
   7   1  -4  145.36   13.53
  -7   1   4  132.74   15.16
   6  -1  -4   24.36    3.06
  -6  -1   4   19.46    3.12
   6  -1  -4   20.12    3.10
   6  -1  -4   29.30    3.66
  -6  -1   4   24.37    4.71
   6  -1  -4   22.69    3.35
   6   1  -4   16.96    3.43
  -6   1   4   23.70    2.80
  -6   1   4   20.15    2.86
   6   1  -4   30.10    3.91
   6   1  -4   17.49    2.86
  -6   1   4   27.90    4.77
   5  -1  -4   32.48    3.54
   5  -1  -4   38.62    4.12
   5  -1  -4   41.54    4.48
  -5  -1   4   31.64    3.59
  -5  -1   4   34.40    4.20
   5  -1  -4   41.68    4.08
  -5  -1   4   22.64    4.94
   5  -1  -4   39.69    3.89
  -5   1   4   25.00    3.39
   5   1  -4   32.07    4.14
  -5   1   4   31.03    5.11
   5   1  -4   32.28    3.65
   5   1  -4   33.83    4.28
  -5   1   4   25.91    3.72
  -4  -1   4  571.78   44.11
   4  -1  -4  479.87   46.64
  -4  -1   4  505.03   43.95
   4  -1  -4  506.66   43.88
   4  -1  -4  561.02   48.89
  -4   1   4  528.61   53.28
   4   1  -4  519.12   46.76
  -4   1   4  538.93   43.92
   4   1  -4  491.39   43.94
  -4   1   4  570.46   48.87
  -3  -1   4  204.06   18.19
   3  -1  -4  204.73   17.28
   3  -1  -4  201.19   19.71
  -3  -1   4  206.76   16.35
   3  -1  -4  212.78   18.12
  -3  -1   4  165.87   16.18
   3  -1  -4  194.24   18.12
   3  -1  -4  214.78   16.20
   3  -1  -4  200.04   16.17
  -3  -1   4  211.41   19.73
  -3   1   4  155.19   17.98
  -3   1   4  164.88   18.03
  -3   1   4  154.70   19.62
  -2  -1   4  150.70   12.52
   2  -1  -4  148.39   13.29
  -2  -1   4  156.18   12.59
  -2   1   4  136.18   13.99
   2   1  -4  147.05   12.49
  -2   1   4  146.87   13.29
   2   1  -4  152.12   14.01
  -2   1   4  137.47   13.95
  -1  -1   4  444.90   35.95
  -1  -1   4  437.07   37.82
  -1  -1   4  387.20   33.78
  -1  -1   4  413.61   37.75
   1  -1  -4  374.62   35.87
   1  -1  -4  403.80   37.76
  -1   1   4  403.58   40.86
  -1   1   4  366.80   35.87
   1   1  -4  387.05   33.76
  -1   1   4  444.20   37.81
   0  -1   4  334.89   29.08
   0  -1  -4  359.75   30.98
   0  -1   4  353.11   32.47
   0  -1   4  347.76   32.51
   0  -1   4  292.19   30.85
   0   1  -4  345.19   29.05
   0   1   4  373.12   32.62
   0   1  -4  367.28   30.91
   0   1  -4  368.06   32.53
   1  -1   4   30.88    3.55
   1  -1   4   26.24    3.53
  -1  -1  -4   27.05    3.71
  -1  -1  -4   28.64    3.28
   1  -1   4   32.24    3.30
  -1  -1  -4   33.01    3.84
  -1  -1  -4   34.73    3.69
  -1  -1  -4   30.29    3.30
  -1  -1  -4   35.93    3.66
   1  -1   4   33.89    3.85
  -1   1  -4   34.36    3.49
  -1   1  -4   36.05    3.54
  -1   1  -4   35.24    3.69
  -1   1  -4   30.37    3.09
   1   1   4   24.52    3.67
  -2  -1  -4  166.91   13.62
  -2  -1  -4  166.43   14.27
   2  -1   4  141.93   13.96
   2  -1   4  128.61   12.58
   2  -1   4  122.98   13.38
  -2  -1  -4  121.65   12.62
  -2  -1  -4  152.58   12.67
   2  -1   4  158.93   12.63
  -2   1  -4  149.88   12.53
   2   1   4  164.26   13.82
   3  -1   4  203.93   17.25
  -3  -1  -4  188.95   18.44
   3  -1   4  195.47   17.26
  -3  -1  -4  194.92   17.31
  -3  -1  -4  218.42   19.33
   3  -1   4  220.53   18.72
  -3  -1  -4  208.29   17.34
  -3   1  -4  221.48   19.39
   3   1   4  210.18   18.82
  -3   1  -4  201.88   17.14
   3   1   4  162.46   17.31
   4  -1   4   11.57    2.18
  -4  -1  -4   19.51    2.76
   4  -1   4   15.29    2.50
   4  -1   4   15.95    3.13
   4  -1   4   20.00    2.77
  -4  -1  -4   17.26    2.56
   4  -1   4   11.79    2.21
  -4  -1  -4   15.39    2.74
  -4  -1  -4   12.33    2.36
   4   1   4   17.93    3.27
  -4   1  -4   16.80    2.77
   4   1   4   11.42    2.31
  -4   1  -4   15.65    2.19
  -5  -1  -4   10.52    2.11
   5  -1   4   15.01    2.49
   5  -1   4    7.97    1.34
  -5  -1  -4   10.06    2.07
  -5  -1  -4   13.56    2.34
  -5  -1  -4    9.00    2.17
   5  -1   4    7.69    2.29
   5  -1   4    8.28    2.10
   5   1   4   10.24    2.24
   5   1   4    6.69    2.27
  -5   1  -4   11.06    1.83
  -5   1  -4    8.31    1.84
   6  -1   4  135.56   13.14
   6  -1   4  150.54   12.25
   6  -1   4  112.52   11.92
  -6  -1  -4  110.88   12.76
  -6  -1  -4  148.83   12.10
  -6   1  -4  133.32   11.75
   6   1   4  122.82   12.11
  -6   1  -4  149.64   12.88
   7  -1   4   33.79    5.07
   7  -1   4   35.16    5.81
  -7  -1  -4   42.32    4.85
  -7  -1  -4   35.73    5.34
  -7  -1  -4   39.59    4.92
  -7   1  -4   36.24    4.43
   7   1   4   47.76    5.33
  -7   1  -4   41.96    5.18
   7   1   4   35.03    5.68
  -8  -1  -4    0.24    1.74
  -8  -1  -4    1.15    1.95
   8  -1   4   -3.67    2.34
   8  -1   4    1.22    2.20
  -8  -1  -4   -0.61    1.35
  -8   1  -4   -0.21    1.59
   8   1   4    0.60    2.25
   8   1   4    3.56    2.46
  -9  -1  -4   26.66    3.91
  -9  -1  -4   31.89    5.36
   9  -1   4   30.75    5.25
   9  -1   4   20.80    4.69
  -9  -1  -4   31.41    4.78
  -9   1  -4   29.85    4.92
   9   1   4   27.41    5.19
 -10  -1  -4   50.99    8.09
  10  -1   4   81.34    8.34
  10  -1   4   66.30    9.25
  10   1   4   59.44    8.84
 -10   1  -4   80.55    8.38
  11  -1   4    6.87    4.37
  11   1   4   14.41    4.18
 -12  -1  -4   12.07    3.38
  12  -1   4    4.48    4.76
 -12  -2   4   12.64    4.51
 -12  -2   4   15.43    4.24
  12  -2  -4   25.20    4.66
  12   2  -4   20.57    5.04
  11  -2  -4   -2.35    2.61
  11  -2  -4   -1.85    2.58
 -11  -2   4   -2.74    2.50
  11   2  -4   -4.16    2.41
  10  -2  -4    5.49    2.84
 -10  -2   4    8.17    3.28
  10  -2  -4    9.44    2.94
 -10  -2   4   10.48    2.89
  10   2  -4    7.52    3.14
  -9  -2   4   58.30    7.00
  -9  -2   4   48.41    7.15
  -9  -2   4   67.68    8.56
   9  -2  -4   47.07    6.09
   9  -2  -4   53.50    6.58
  -9   2   4   65.77    8.80
   9   2  -4   51.55    6.96
  -8  -2   4   17.09    3.41
   8  -2  -4   21.17    3.46
  -8  -2   4   25.79    4.09
   8  -2  -4   18.64    3.18
  -8  -2   4   28.48    5.15
  -8   2   4   15.84    2.81
   8   2  -4   22.02    4.01
  -8   2   4   27.89    5.38
  -7  -2   4    3.81    2.48
  -7  -2   4    1.34    1.85
   7  -2  -4    3.84    1.66
   7  -2  -4    2.04    1.64
   7  -2  -4    2.18    1.90
  -7  -2   4    4.52    2.08
  -7   2   4    4.94    3.06
   7   2  -4    1.21    1.73
  -7   2   4    0.19    1.32
   6  -2  -4   51.62    5.15
  -6  -2   4   45.32    5.91
   6  -2  -4   53.17    5.29
  -6  -2   4   47.46    5.57
  -6  -2   4   60.64    6.83
   6  -2  -4   56.48    5.67
   6  -2  -4   44.05    6.07
  -6  -2   4   48.72    5.33
  -6   2   4   52.55    7.05
   6   2  -4   53.45    6.11
   6   2  -4   46.84    5.33
  -5  -2   4   56.77    5.89
  -5  -2   4   65.15    7.10
   5  -2  -4   55.39    5.37
   5  -2  -4   60.82    5.46
  -5  -2   4   55.11    5.60
   5  -2  -4   51.75    5.77
  -5  -2   4   54.00    5.85
   5  -2  -4   54.97    6.28
   5  -2  -4   60.07    5.83
   5   2  -4   56.76    6.34
   5   2  -4   50.52    5.51
  -5   2   4   57.48    7.18
  -4  -2   4   37.36    3.91
   4  -2  -4   36.54    3.87
   4  -2  -4   40.61    3.95
  -4  -2   4   41.24    4.73
   4  -2  -4   41.14    3.67
  -4  -2   4   25.78    3.99
  -4  -2   4   37.56    4.19
   4  -2  -4   32.44    4.45
   4  -2  -4   32.57    3.55
  -4   2   4   27.94    4.16
   4   2  -4   41.04    4.48
   4   2  -4   33.66    3.71
   4   2  -4   28.68    4.10
  -4   2   4   34.88    4.97
  -3  -2   4   59.42    6.55
  -3  -2   4   67.40    6.38
   3  -2  -4   76.07    7.36
   3  -2  -4   65.39    5.94
   3  -2  -4   70.65    7.75
  -3  -2   4   60.92    7.38
  -3  -2   4   69.91    6.20
   3  -2  -4   55.39    6.34
   3   2  -4   75.00    6.81
   3   2  -4   62.17    5.99
   3   2  -4   71.97    6.65
  -3   2   4   63.97    7.51
  -3   2   4   71.93    6.76
   2  -2  -4   66.47    6.98
  -2  -2   4   76.40    7.00
  -2  -2   4   74.50    7.76
  -2  -2   4   72.83    6.41
  -2  -2   4   74.07    6.52
   2  -2  -4   63.93    7.44
   2  -2  -4   69.64    6.25
  -2   2   4   73.59    7.77
  -2   2   4   65.51    6.95
   2   2  -4   71.22    6.19
   2   2  -4   75.22    6.82
   2   2  -4   63.85    6.86
  -1  -2   4   44.86    4.18
   1  -2  -4   43.23    4.08
  -1  -2   4   43.43    4.23
   1  -2  -4   45.96    5.29
   1  -2  -4   41.15    4.66
   1  -2  -4   42.09    4.43
   1  -2  -4   48.43    4.43
  -1  -2   4   41.81    4.70
  -1  -2   4   44.49    4.49
   1   2  -4   39.12    4.19
  -1   2   4   38.42    4.82
   0  -2  -4    5.24    1.95
   0  -2   4    4.70    1.07
   0  -2  -4    4.52    1.15
   0  -2  -4    4.29    1.26
   0  -2  -4    4.41    1.41
   0  -2  -4    4.86    1.19
   0  -2  -4    4.24    1.22
   0  -2   4    5.08    1.21
   0  -2   4    4.66    1.07
   0   2   4    4.58    1.23
   0   2  -4    4.45    1.18
  -1  -2  -4  150.34   12.92
  -1  -2  -4  159.49   12.89
  -1  -2  -4  140.89   14.72
   1  -2   4  149.04   12.74
   1  -2   4  151.50   13.52
  -1  -2  -4  131.56   14.41
   1   2   4  171.14   14.11
  -1   2  -4  145.07   13.46
  -2  -2  -4   47.23    5.79
   2  -2   4   52.01    5.28
  -2  -2  -4   56.13    6.54
  -2  -2  -4   62.28    5.60
   2  -2   4   58.91    5.62
  -2  -2  -4   61.02    5.54
   2   2   4   65.46    6.32
  -2   2  -4   47.06    5.80
  -2   2  -4   66.77    5.72
   2   2   4   57.72    6.30
   3  -2   4    0.78    1.30
  -3  -2  -4    0.54    1.19
  -3  -2  -4    1.27    1.02
  -3  -2  -4   -0.04    1.19
  -3  -2  -4    0.09    1.59
   3   2   4   -0.43    1.72
  -3   2  -4    2.06    0.84
  -3   2  -4    0.99    1.12
  -3   2  -4    0.73    0.79
   4  -2   4   69.02    6.77
   4  -2   4   61.92    6.23
  -4  -2  -4   81.03    7.95
  -4  -2  -4   71.64    6.52
   4  -2   4   54.50    6.27
  -4  -2  -4   79.95    6.65
   4  -2   4   69.26    6.98
  -4  -2  -4   69.35    7.05
  -4   2  -4   58.46    6.42
  -4   2  -4   54.21    6.88
   4   2   4   71.03    7.47
   4   2   4   64.97    6.49
   5  -2   4   93.85    9.81
  -5  -2  -4  131.70   11.74
  -5  -2  -4   96.33   10.63
   5  -2   4   94.75    9.70
  -5  -2  -4  118.44   10.09
   5  -2   4   97.07   10.57
   5   2   4  118.23   11.34
  -5   2  -4  123.35   11.01
   6  -2   4    3.44    2.35
   6  -2   4    2.13    2.18
  -6  -2  -4    5.81    2.29
   6  -2   4    5.94    2.23
  -6  -2  -4    7.31    2.14
  -6  -2  -4    5.67    2.08
  -6   2  -4    6.16    2.25
  -6   2  -4    7.72    1.71
   6   2   4    3.68    2.65
  -7  -2  -4    1.95    1.63
  -7  -2  -4    1.55    1.87
  -7  -2  -4    1.63    2.20
   7  -2   4    4.03    2.21
   7  -2   4   -2.62    2.09
   7   2   4    0.73    2.61
  -8  -2  -4   46.54    5.75
   8  -2   4   45.37    6.22
  -8  -2  -4   45.24    6.26
  -8  -2  -4   46.54    6.64
   8   2   4   39.17    6.91
   9  -2   4   19.53    4.05
   9  -2   4    7.92    3.59
  -9  -2  -4   17.80    3.92
  -9  -2  -4   23.40    4.03
  -9  -2  -4   14.40    3.55
   9   2   4   13.86    4.17
  10  -2   4   -3.81    2.98
 -10  -2  -4   -0.15    2.62
  10  -2   4    8.04    3.27
 -10  -2  -4   -3.17    2.57
  10   2   4   -2.25    3.58
  11  -2   4   13.46    4.64
 -11  -3   4   14.65    4.86
 -11  -3   4   11.30    3.54
 -10  -3   4    6.91    2.80
 -10  -3   4    1.32    3.04
  10  -3  -4    3.10    2.77
  10   3  -4    0.88    2.71
   9  -3  -4    1.41    2.27
  -9  -3   4    4.97    2.48
  -9  -3   4   -4.31    2.63
  -8  -3   4    7.22    3.26
  -8  -3   4    3.26    2.83
   8  -3  -4    4.60    2.33
   8   3  -4    3.24    2.84
  -7  -3   4   10.10    2.99
   7  -3  -4   10.64    2.01
   7  -3  -4    5.85    2.95
   7  -3  -4    7.64    2.15
  -7  -3   4    9.49    2.90
   7   3  -4    9.73    2.85
  -6  -3   4   -1.26    1.87
  -6  -3   4    4.28    2.07
   6  -3  -4    2.82    2.26
   6  -3  -4    1.24    1.46
   6   3  -4    0.91    1.72
  -5  -3   4    5.84    2.15
   5  -3  -4    4.68    1.44
   5  -3  -4    3.09    2.50
  -5  -3   4    4.47    1.98
   5   3  -4    5.37    1.81
  -4  -3   4   11.70    2.30
   4  -3  -4   12.57    2.18
  -4  -3   4   11.99    2.31
  -4  -3   4   12.48    2.32
   4  -3  -4    9.48    3.00
   4   3  -4   15.05    2.60
  -3  -3   4    9.49    1.88
  -3  -3   4   10.41    2.18
   3  -3  -4    9.60    2.59
   3  -3  -4   10.43    1.95
  -3  -3   4    9.38    1.94
   3   3  -4   12.95    2.26
  -2  -3   4    0.62    1.32
  -2  -3   4    0.24    1.43
   2  -3  -4    1.98    1.07
   2  -3  -4    1.23    2.31
   2   3  -4    1.82    0.94
   1  -3  -4    9.84    1.93
   1  -3  -4   13.12    2.10
  -1  -3   4    8.74    1.73
  -1  -3   4    6.85    1.44
   1  -3  -4   10.61    3.33
   1  -3  -4   12.36    2.14
  -1  -3   4   10.46    1.84
   1   3  -4   11.31    1.72
   0  -3  -4    3.89    2.77
   0  -3   4    4.26    1.41
   0  -3  -4    4.62    1.33
   0  -3  -4    3.06    1.26
   0  -3  -4    4.11    1.36
   0  -3   4    3.22    1.26
   0  -3  -4    5.55    1.53
  -1  -3  -4    1.98    1.43
  -1  -3  -4    0.51    2.43
  -1  -3  -4    1.42    1.29
  -1  -3  -4    0.73    1.34
  -1  -3  -4    1.79    1.17
   1  -3   4    1.51    1.07
   2  -3   4    5.20    1.45
  -2  -3  -4    8.10    2.92
  -2  -3  -4    6.80    1.97
  -2  -3  -4    5.33    1.83
  -2  -3  -4    8.09    1.98
  -2  -3  -4    7.20    1.84
  -3  -3  -4   14.95    2.44
  -3  -3  -4   15.67    3.95
   3  -3   4   13.41    2.22
  -3  -3  -4    8.93    2.38
  -3  -3  -4   11.19    2.24
   3   3   4    9.13    2.62
  -4  -3  -4   10.29    2.44
  -4  -3  -4   11.12    2.50
  -4  -3  -4   12.66    3.96
   4   3   4    5.50    2.71
  -5  -3  -4    0.76    1.89
  -5  -3  -4    2.51    3.30
  -5  -3  -4   -0.52    1.91
   5  -3   4    0.69    1.79
   5   3   4   -2.55    2.31
  -6  -3  -4    4.92    2.58
  -6  -3  -4    4.97    2.15
  -6  -3  -4    5.44    3.29
   6   3   4   -1.58    2.74
  -7  -3  -4   10.04    3.16
  -7  -3  -4    4.42    2.40
  -7  -3  -4   11.51    4.08
   7   3   4    1.90    3.28
  -8  -3  -4    3.44    3.05
  -8  -3  -4   -0.96    2.78
  -8  -3  -4   -0.30    2.38
  -9  -3  -4   -0.52    2.99
  -9  -3  -4    2.63    3.08
  -9  -3  -4    0.51    4.06
  -7  -4   4    5.51    2.69
  -4  -4   4   18.16    3.30
   4  -4  -4    8.62    4.01
  -3  -4   4    2.71    1.92
   3  -4  -4    7.00    2.99
   2  -4  -4   -4.91    3.66
   2  -4  -4   -2.25    1.10
  -2  -4   4    3.75    1.58
   1  -4  -4    0.29    1.36
   1  -4  -4   -2.56    3.89
  -1  -4   4    4.52    1.48
  -1  -4   4    0.73    1.29
   0  -4  -4    2.24    1.59
   0  -4  -4   -3.28    3.84
   0  -4   4    2.01    1.12
  -1  -4  -4    2.00    4.26
  -1  -4  -4    6.27    1.92
  -2  -4  -4    1.34    3.56
  -2  -4  -4    1.59    1.50
  -2  -4  -4    1.12    1.85
  -3  -4  -4    4.52    3.75
  -3  -4  -4    6.51    1.88
  -4  -4  -4    1.34    3.59
  -4  -4  -4   -2.30    2.14
  -4  -4  -4   -2.96    2.23
  -5  -4  -4    1.79    3.75
  -5  -4  -4   -3.87    2.51
  -6  -4  -4    6.24    2.51
 -12   0   5    4.60    4.34
  12   0  -5   -2.07    2.53
 -12   0   5   -1.04    2.43
 -11   0   5   -3.13    2.12
  11   0  -5   -3.13    2.17
  11   0  -5    1.01    1.95
  10   0  -5   -1.28    1.92
 -10   0   5   -1.71    1.86
 -10   0   5    0.94    3.29
  10   0  -5   -0.94    1.96
 -10   0   5   -2.45    1.84
  -9   0   5    3.09    1.56
  -9   0   5    0.17    2.82
   9   0  -5   -0.48    1.63
   9   0  -5   -0.29    1.48
   8   0  -5   -1.26    1.47
  -8   0   5    1.65    1.38
   8   0  -5    0.12    1.57
   8   0  -5    0.07    1.54
  -8   0   5    1.23    2.85
   8   0  -5   -0.27    1.51
   7   0  -5    0.05    1.44
  -7   0   5   -0.71    2.34
  -7   0   5    2.07    1.21
   7   0  -5   -2.70    1.49
   7   0  -5   -0.32    1.40
   7   0  -5    1.06    1.42
   6   0  -5    1.05    1.40
   6   0  -5    0.07    1.51
   6   0  -5   -0.47    1.21
  -6   0   5    0.56    2.60
  -6   0   5   -0.49    1.72
   6   0  -5    0.70    1.27
   6   0  -5   -1.43    1.54
  -5   0   5   -0.19    1.37
   5   0  -5   -0.18    1.32
   5   0  -5   -0.76    1.16
   5   0  -5    0.74    1.20
  -5   0   5   -4.07    2.39
   5   0  -5    0.44    1.47
  -5   0   5   -0.09    1.58
  -4   0   5   -0.98    1.01
   4   0  -5   -0.17    1.03
  -4   0   5    0.78    1.45
  -4   0   5    0.32    1.12
   4   0  -5    0.75    1.22
   4   0  -5    1.40    1.23
  -4   0   5    0.18    1.84
   4   0  -5   -1.16    0.87
  -3   0   5    1.98    1.34
  -3   0   5   -0.49    0.92
  -3   0   5   -0.33    0.98
  -3   0   5    0.98    1.74
   3   0  -5    1.35    1.06
   3   0  -5    0.20    0.94
   3   0  -5    0.31    1.22
  -3   0   5    0.90    1.08
   3   0  -5   -1.59    0.78
   3   0  -5    0.09    1.32
  -3   0   5    1.22    1.10
  -2   0   5    0.91    1.23
   2   0  -5    0.16    0.93
   2   0  -5    0.65    1.04
  -2   0   5   -1.61    0.97
  -2   0   5   -0.91    0.90
  -2   0   5    3.55    1.39
   2   0  -5   -2.07    1.26
  -1   0   5    1.62    1.31
   1   0  -5    1.48    1.09
  -1   0   5    1.96    1.32
  -1   0   5    1.04    1.22
  -1   0   5   -0.86    1.43
   1   0  -5    3.69    1.14
   1   0  -5    0.73    1.23
   0   0  -5   -0.93    0.95
   0   0  -5    2.34    1.11
   0   0   5   -1.70    1.06
   0   0   5   -0.88    1.20
   0   0  -5    0.58    1.24
   0   0   5    0.85    1.35
   0   0  -5    1.40    1.02
   0   0   5   -0.56    1.13
  -1   0  -5   -0.46    0.90
  -1   0  -5   -0.14    0.91
   1   0   5   -0.45    1.01
   1   0   5   -0.56    0.99
  -1   0  -5   -0.60    0.88
  -1   0  -5    1.67    1.23
  -1   0  -5    0.05    0.94
   1   0   5   -0.21    1.10
  -1   0  -5   -1.15    0.83
  -2   0  -5   -0.61    1.14
  -2   0  -5   -0.22    1.01
   2   0   5   -0.42    1.30
  -2   0  -5    1.82    1.19
  -2   0  -5   -0.18    0.88
   2   0   5   -0.30    1.41
   2   0   5    0.36    1.18
  -2   0  -5    0.27    1.11
   3   0   5   -1.12    1.43
  -3   0  -5   -0.06    1.16
  -3   0  -5    0.11    1.08
   3   0   5    0.53    1.24
   3   0   5    1.44    1.61
  -3   0  -5    1.84    1.23
   3   0   5    1.19    1.64
   4   0   5    2.59    1.76
  -4   0  -5    0.11    1.08
  -4   0  -5   -0.76    1.17
  -4   0  -5   -0.22    1.22
   4   0   5   -0.27    1.20
   4   0   5    1.99    1.98
   4   0   5   -0.30    1.74
  -5   0  -5   -0.15    1.02
  -5   0  -5   -0.21    1.16
   5   0   5    0.76    1.69
  -5   0  -5   -0.30    1.34
   5   0   5   -0.34    1.68
   6   0   5   -1.08    1.92
  -6   0  -5   -0.63    1.48
   6   0   5    1.17    1.85
  -6   0  -5    0.06    1.33
  -6   0  -5   -1.35    0.98
  -7   0  -5    0.03    1.60
  -7   0  -5   -1.37    1.06
   7   0   5   -1.56    2.45
  -7   0  -5   -0.49    1.54
   7   0   5    1.49    2.28
  -8   0  -5    0.89    1.70
   8   0   5   -2.08    2.39
   8   0   5   -0.75    2.42
  -8   0  -5   -1.99    1.21
  -8   0  -5   -1.57    1.69
  -9   0  -5    0.61    1.88
   9   0   5   -2.56    3.06
   9   0   5    2.12    2.79
 -10   0  -5    1.48    2.38
  10   0   5    2.93    3.16
  10   0   5   -5.27    3.32
  11   0   5   -6.51    3.72
  11   0   5    1.93    3.30
  13  -1  -5    5.92    3.86
  13   1  -5    6.58    3.78
  12  -1  -5    8.10    3.15
 -12  -1   5    7.52    3.49
  12  -1  -5    8.71    3.53
  12   1  -5    9.49    3.17
 -12   1   5    5.12    3.13
 -11  -1   5    1.61    2.25
 -11  -1   5    5.39    4.17
  11  -1  -5   -1.08    2.42
  11  -1  -5    5.00    2.22
 -11  -1   5    0.03    2.31
  11   1  -5    3.02    1.93
 -11   1   5    6.36    4.40
 -11   1   5   -2.83    2.07
  10  -1  -5    2.33    2.03
 -10  -1   5   -0.09    1.94
 -10  -1   5    3.89    3.81
 -10  -1   5    3.36    2.19
  10  -1  -5    3.67    2.02
  10   1  -5    0.07    2.16
 -10   1   5    4.27    3.93
  10   1  -5    1.94    1.90
 -10   1   5   -1.61    1.84
   9  -1  -5   10.24    2.32
  -9  -1   5   16.91    4.10
  -9  -1   5    7.04    2.37
   9  -1  -5   14.79    3.09
  -9  -1   5   13.42    2.71
   9   1  -5   18.57    3.16
   9   1  -5   15.46    3.07
  -9   1   5    9.94    2.42
  -9   1   5   23.77    4.87
   8  -1  -5   -0.74    1.66
   8  -1  -5   -1.00    1.63
  -8  -1   5   -0.51    2.84
   8  -1  -5   -1.09    1.64
  -8  -1   5    1.09    1.79
   8  -1  -5    0.57    1.59
   8  -1  -5   -0.28    1.64
   8   1  -5    0.05    1.48
  -8   1   5    1.56    1.25
  -8   1   5    1.10    2.80
   8   1  -5   -1.63    1.55
  -7  -1   5    2.25    1.61
   7  -1  -5    0.77    1.42
  -7  -1   5   -0.17    2.46
   7  -1  -5    0.16    1.77
  -7  -1   5   -1.27    1.34
   7  -1  -5   -1.45    1.55
   7  -1  -5    0.57    1.45
   7  -1  -5    0.73    1.39
  -7   1   5    0.55    2.67
   7   1  -5    0.00    1.76
   7   1  -5   -0.27    1.36
  -7   1   5    3.43    1.18
   7   1  -5    2.50    1.00
   6  -1  -5   27.54    3.90
   6  -1  -5   27.56    3.45
   6  -1  -5   29.53    3.82
  -6  -1   5   29.54    3.94
   6  -1  -5   24.30    4.03
  -6  -1   5   25.68    5.11
  -6  -1   5   24.92    3.46
   6  -1  -5   25.81    3.32
  -6   1   5   22.70    3.04
  -6   1   5   29.67    5.37
   6   1  -5   29.63    4.10
   6   1  -5   26.02    3.49
   6   1  -5   27.01    3.92
   5  -1  -5   27.50    3.94
  -5  -1   5   24.83    4.94
   5  -1  -5   34.11    3.68
  -5  -1   5   23.88    3.87
   5  -1  -5   42.76    4.70
   5  -1  -5   34.96    3.63
  -5  -1   5   31.47    3.65
   5   1  -5   35.76    4.22
   5   1  -5   33.94    3.75
  -5   1   5   36.13    3.80
   5   1  -5   29.09    4.05
  -5   1   5   35.87    5.68
  -4  -1   5   16.50    2.94
  -4  -1   5   14.43    3.15
  -4  -1   5   15.71    2.85
   4  -1  -5   14.44    2.42
  -4  -1   5   16.80    2.65
   4  -1  -5   22.87    2.62
   4  -1  -5   21.89    2.63
  -4   1   5   16.31    3.29
   4   1  -5   11.86    2.27
   4   1  -5   21.49    2.58
  -4   1   5   20.45    2.79
  -3  -1   5   31.21    4.26
  -3  -1   5   29.50    3.43
   3  -1  -5   29.06    3.02
  -3  -1   5   27.46    3.19
   3  -1  -5   30.72    3.87
   3  -1  -5   23.97    3.54
   3  -1  -5   27.56    3.43
  -3  -1   5   35.43    3.73
  -3   1   5   27.23    3.55
  -3   1   5   25.20    3.12
   3   1  -5   20.97    3.35
  -3   1   5   25.68    4.22
   3   1  -5   29.55    3.53
   2  -1  -5   10.16    2.14
  -2  -1   5   15.40    2.31
  -2  -1   5   10.40    1.88
   2  -1  -5   12.09    2.58
  -2  -1   5   10.49    2.30
   2  -1  -5   13.84    2.01
  -2  -1   5   13.09    2.17
   2  -1  -5    9.72    2.15
  -2   1   5   12.43    2.31
  -2   1   5   16.48    3.07
   2   1  -5   11.00    1.87
  -2   1   5   14.61    2.07
   2   1  -5   15.38    2.35
  -1  -1   5   41.19    4.86
   1  -1  -5   52.71    5.11
   1  -1  -5   38.74    4.76
  -1  -1   5   39.73    4.24
   1  -1  -5   46.50    4.62
   1  -1  -5   52.80    4.38
   1   1  -5   38.92    4.73
  -1   1   5   41.27    4.76
   1   1  -5   53.86    4.65
   0  -1  -5    4.81    1.22
   0  -1  -5    4.92    1.55
   0  -1   5    3.41    1.33
   0  -1  -5    5.56    1.38
   0  -1  -5    3.86    1.26
   0  -1  -5    4.14    1.30
   0  -1   5    3.01    1.18
   0  -1   5    4.17    1.27
   0  -1   5    4.40    1.52
   0   1  -5    6.81    1.29
   0   1  -5    4.18    1.38
   0   1   5    2.39    1.44
   0   1  -5    5.73    1.16
   1  -1   5   35.80    3.97
  -1  -1  -5   39.14    4.36
  -1  -1  -5   28.74    3.53
   1  -1   5   26.65    4.07
  -1  -1  -5   33.37    3.94
   1  -1   5   34.38    3.64
   1  -1   5   32.41    4.23
  -1   1  -5   28.97    3.82
  -1   1  -5   37.58    3.85
  -1   1  -5   39.43    4.13
  -1   1  -5   30.63    3.36
  -1   1  -5   36.48    3.92
   1   1   5   32.78    4.23
  -2  -1  -5   11.73    2.69
   2  -1   5   18.27    3.02
  -2  -1  -5   13.26    2.49
  -2  -1  -5   21.43    2.78
  -2  -1  -5   17.90    3.24
   2  -1   5   18.57    3.06
  -2  -1  -5   13.99    2.42
   2  -1   5   17.12    2.80
   2   1   5   18.20    3.08
  -2   1  -5   18.32    2.30
  -2   1  -5   11.40    2.51
  -2   1  -5   15.29    2.54
   3  -1   5  100.68    9.38
   3  -1   5   84.69    9.40
   3  -1   5  105.40    8.72
   3  -1   5   89.99    9.47
  -3  -1  -5  103.94    8.77
  -3  -1  -5  112.40    8.84
   3   1   5  102.84    9.75
  -3   1  -5   81.95    8.43
   3   1   5   92.59    8.80
  -3   1  -5   87.37    9.74
  -4  -1  -5    9.04    1.94
   4  -1   5    6.46    1.67
  -4  -1  -5    8.76    1.70
   4  -1   5    7.59    2.15
   4  -1   5    8.82    2.16
  -4  -1  -5    7.42    1.92
  -4  -1  -5    9.17    2.03
   4  -1   5   10.14    2.15
  -4   1  -5   10.97    1.81
   4   1   5    6.15    2.32
  -4   1  -5   10.20    2.23
  -4   1  -5    8.30    1.79
   4   1   5    9.28    2.18
   5  -1   5   14.51    2.22
  -5  -1  -5   16.67    3.18
   5  -1   5   17.96    3.28
   5  -1   5   13.36    2.83
  -5  -1  -5   18.43    3.14
  -5  -1  -5   13.49    2.73
  -5  -1  -5   15.23    2.52
  -5   1  -5   17.86    3.21
  -5   1  -5   17.26    2.47
   5   1   5   13.04    2.80
   5   1   5   15.65    3.19
   6  -1   5   -2.40    1.89
  -6  -1  -5    0.99    1.44
  -6  -1  -5    1.11    1.23
   6  -1   5   -0.61    1.93
  -6  -1  -5   -0.56    1.66
   6  -1   5    1.73    1.97
   6   1   5   -0.84    2.37
  -6   1  -5   -0.12    1.42
  -6   1  -5    0.79    1.09
   6   1   5    0.45    1.98
  -7  -1  -5   11.62    2.56
   7  -1   5   10.18    2.90
  -7  -1  -5    8.97    2.04
  -7  -1  -5   14.66    2.97
   7  -1   5    4.99    2.72
   7   1   5    5.99    2.90
   7   1   5   13.09    2.87
  -7   1  -5   12.35    2.57
  -8  -1  -5   -1.33    2.01
  -8  -1  -5    0.24    1.81
   8  -1   5    0.94    2.62
  -8  -1  -5   -0.46    1.38
   8  -1   5   -2.73    2.57
  -8   1  -5    1.43    1.78
   8   1   5   -1.62    2.65
   8   1   5    0.03    2.49
   9  -1   5   11.14    3.68
  -9  -1  -5   11.68    3.15
   9  -1   5    6.79    3.70
  -9  -1  -5    8.72    2.38
  -9  -1  -5   14.40    3.30
   9   1   5    4.75    3.45
  -9   1  -5   15.93    3.24
  10  -1   5    3.02    3.27
  10  -1   5   -4.78    3.28
 -10  -1  -5    0.73    1.97
  10   1   5   -3.18    3.14
 -10   1  -5    1.96    2.10
  11  -1   5   -2.97    3.77
 -11  -1  -5    3.16    3.20
  11   1   5   -2.19    4.31
 -12  -2   5   -3.34    3.29
  12  -2  -5    0.29    3.33
  12  -2  -5    1.70    3.35
  12   2  -5   -0.38    3.32
 -11  -2   5   47.96    6.33
  11  -2  -5   36.19    6.66
  11  -2  -5   34.36    5.74
  11   2  -5   33.16    6.44
  10  -2  -5   36.25    5.25
 -10  -2   5   37.04    6.08
  10  -2  -5   30.31    4.99
 -10  -2   5   29.63    6.09
  10   2  -5   30.23    5.41
  -9  -2   5   -0.01    2.18
  -9  -2   5    5.69    3.26
  -9  -2   5    6.40    2.27
   9  -2  -5    4.99    1.88
   9  -2  -5    4.61    1.78
   9   2  -5    1.78    1.73
   8  -2  -5    5.74    1.98
   8  -2  -5    1.20    1.86
  -8  -2   5    3.44    2.19
  -8  -2   5    3.08    2.75
  -8  -2   5   -1.05    1.76
   8  -2  -5    0.69    1.71
   8   2  -5   -0.08    1.96
  -8   2   5    1.79    2.97
   7  -2  -5   77.02    7.69
   7  -2  -5   79.19    7.10
  -7  -2   5   64.01    7.48
   7  -2  -5   72.53    8.12
   7  -2  -5   60.18    6.93
   7   2  -5   76.51    8.21
  -7   2   5   80.00    9.50
   6  -2  -5   27.34    4.63
  -6  -2   5   26.67    3.84
   6  -2  -5   30.73    3.68
   6  -2  -5   33.86    3.77
  -6  -2   5   31.57    4.31
   6  -2  -5   30.81    4.06
   6  -2  -5   30.68    3.95
  -6  -2   5   33.08    5.66
   6   2  -5   29.54    4.48
   6   2  -5   25.09    3.76
  -6   2   5   30.87    5.21
   5  -2  -5    4.18    1.38
  -5  -2   5    4.64    2.00
   5  -2  -5    2.45    2.08
  -5  -2   5    2.01    1.72
   5  -2  -5    3.96    1.31
   5  -2  -5    4.42    1.44
   5  -2  -5    3.30    1.42
  -5  -2   5    1.96    1.47
  -5  -2   5    6.73    1.73
   5   2  -5    3.37    1.41
  -5   2   5    5.11    2.46
   5   2  -5    2.02    1.72
   5   2  -5    5.34    1.75
   4  -2  -5  102.24    8.78
   4  -2  -5   98.08    9.41
  -4  -2   5   92.57    9.17
  -4  -2   5   90.81    8.90
   4  -2  -5   89.41   10.12
  -4  -2   5  117.59   10.95
  -4  -2   5   81.27    9.40
   4   2  -5  109.67    9.86
  -4   2   5  101.43    9.79
   4   2  -5  106.01    8.83
   4   2  -5  101.10    9.61
  -4   2   5  102.75   11.09
  -3  -2   5    0.44    1.20
   3  -2  -5    1.06    1.00
   3  -2  -5    0.88    1.26
  -3  -2   5   -0.28    1.71
   3  -2  -5    0.52    1.54
   3  -2  -5    0.47    0.95
  -3  -2   5    0.41    1.37
   3   2  -5    0.96    1.11
   3   2  -5    0.46    1.07
  -3   2   5    1.24    1.92
  -2  -2   5    1.32    1.35
  -2  -2   5    1.71    1.13
  -2  -2   5   -0.57    1.21
   2  -2  -5    1.56    0.99
  -2  -2   5    0.88    1.17
   2  -2  -5    1.04    1.01
   2  -2  -5    1.10    1.00
   2  -2  -5    0.85    1.85
   2   2  -5    0.58    0.79
  -2   2   5    2.61    1.05
  -2   2   5    2.87    1.36
   2   2  -5    1.34    0.95
  -1  -2   5  131.43   11.33
  -1  -2   5  129.53   10.63
  -1  -2   5  118.90   11.84
   1  -2  -5  104.79   10.54
   1  -2  -5  128.15   11.32
   1  -2  -5  131.28   11.49
   1  -2  -5  129.68   11.87
  -1   2   5  104.97   12.68
   1   2  -5  124.87   11.84
   0  -2  -5   48.38    4.93
   0  -2  -5   62.72    6.22
   0  -2   5   48.34    5.30
   0  -2   5   54.67    5.19
   0  -2  -5   42.66    5.27
   0  -2  -5   45.56    4.92
   0  -2   5   53.68    4.94
   0   2  -5   50.42    5.35
   0   2  -5   60.72    5.22
  -1  -2  -5   20.39    2.74
   1  -2   5   18.08    2.57
  -1  -2  -5   15.94    2.83
  -1  -2  -5   22.48    3.61
  -1  -2  -5   20.13    2.71
  -1  -2  -5   16.83    3.11
   1  -2   5   19.12    2.61
  -1   2  -5   18.65    2.82
  -1   2  -5   18.39    2.31
  -1   2  -5   16.70    2.74
   2  -2   5    6.17    1.35
  -2  -2  -5    3.24    1.37
   2  -2   5    4.28    1.39
  -2  -2  -5    4.13    2.01
  -2  -2  -5    4.83    1.50
  -2  -2  -5    4.04    1.44
  -2  -2  -5    5.88    1.86
  -2   2  -5    3.52    1.31
  -2   2  -5    4.71    1.15
  -2   2  -5    3.67    1.17
   2   2   5    3.92    1.84
  -3  -2  -5   68.23    7.30
   3  -2   5   54.44    5.82
  -3  -2  -5   48.19    6.26
  -3  -2  -5   59.45    6.02
  -3  -2  -5   62.81    5.92
   3  -2   5   59.22    5.83
  -3   2  -5   63.14    6.02
  -3   2  -5   61.88    6.48
   3   2   5   63.27    6.85
  -4  -2  -5   41.41    4.56
  -4  -2  -5   44.18    5.64
  -4  -2  -5   37.37    4.28
  -4  -2  -5   40.64    4.83
   4  -2   5   38.32    4.39
   4  -2   5   32.50    4.13
   4   2   5   37.12    5.36
  -4   2  -5   31.88    4.45
  -4   2  -5   33.07    4.11
  -5  -2  -5   -1.28    2.11
   5  -2   5    0.37    1.64
  -5  -2  -5   -0.36    1.77
  -5  -2  -5    0.35    1.46
   5   2   5   -2.34    2.15
  -5   2  -5    1.40    1.17
  -5   2  -5    1.56    1.55
  -6  -2  -5   17.48    3.26
  -6  -2  -5   16.19    3.07
   6  -2   5   13.07    3.10
  -6  -2  -5   17.82    3.68
  -6   2  -5   22.14    3.82
  -6   2  -5   12.66    2.90
   6   2   5    8.24    3.05
  -7  -2  -5   18.03    3.28
  -7  -2  -5   23.42    4.09
  -7  -2  -5   12.45    2.96
   7  -2   5   17.68    3.69
   7  -2   5   16.76    3.71
  -7   2  -5   17.15    3.36
   7   2   5   15.75    4.09
   8  -2   5   30.03    5.83
  -8  -2  -5   32.52    5.36
   8  -2   5   28.22    5.09
  -8  -2  -5   32.62    5.27
  -8  -2  -5   34.30    5.73
   8   2   5   25.00    5.26
   9  -2   5   10.91    3.50
  -9  -2  -5    9.35    3.33
  -9  -2  -5    7.55    2.92
   9   2   5    2.68    3.57
  10  -2   5   12.12    4.30
 -10  -2  -5   12.56    3.61
  10  -2   5   25.17    4.63
  10   2   5    6.15    5.15
  11  -3  -5   20.58    4.16
 -11  -3   5   16.90    5.13
  11   3  -5   15.02    4.57
 -10  -3   5   -3.75    2.83
 -10  -3   5    8.23    3.02
  10  -3  -5   -0.50    2.62
  10   3  -5   -3.93    2.95
  -9  -3   5   49.72    7.11
   9  -3  -5   35.72    5.18
  -9  -3   5   32.58    5.72
   9   3  -5   40.19    6.48
   8  -3  -5   31.63    4.04
  -8  -3   5   30.94    4.94
  -8  -3   5   33.65    5.50
   8   3  -5   30.99    5.42
   7  -3  -5    1.61    1.85
  -7  -3   5    0.42    2.20
  -7  -3   5    4.43    2.39
   7   3  -5    3.86    1.78
   6  -3  -5   40.88    6.19
  -6  -3   5   44.06    5.67
   6  -3  -5   41.81    4.61
  -6  -3   5   34.98    5.79
   6   3  -5   42.81    5.18
  -6   3   5   51.09    6.36
  -5  -3   5    6.35    2.04
   5  -3  -5    4.63    2.29
  -5  -3   5    2.01    1.83
   5  -3  -5    2.66    1.54
   5   3  -5    2.61    1.62
   4  -3  -5    5.93    1.42
  -4  -3   5    7.73    2.31
  -4  -3   5    7.20    1.83
   4  -3  -5    2.85    2.70
   4  -3  -5    6.61    1.56
   4   3  -5    6.66    1.88
   3  -3  -5    3.58    1.10
  -3  -3   5    1.89    1.61
   3  -3  -5    2.69    1.27
   3  -3  -5    3.89    2.36
  -3  -3   5    3.06    1.82
   3   3  -5    1.52    1.42
   2  -3  -5   74.30    7.36
  -2  -3   5   79.26    7.22
   2  -3  -5   78.96    7.01
   2  -3  -5   90.15    7.74
  -2  -3   5   66.29    7.27
  -2  -3   5   77.99    8.58
   2  -3  -5   75.60    8.71
  -2   3   5   75.40    8.44
   2   3  -5   73.58    7.57
   1  -3  -5   66.22    6.41
   1  -3  -5   62.42    6.61
   1  -3  -5   59.11    6.95
  -1  -3   5   73.05    6.42
   1  -3  -5   78.45    8.71
   1  -3  -5   75.24    6.41
  -1  -3   5   67.27    6.53
   1   3  -5   69.07    6.64
   0  -3   5   18.53    2.82
   0  -3  -5   21.91    2.97
   0  -3  -5   20.77    3.09
   0  -3  -5   22.45    3.19
   0  -3   5   18.24    3.14
   0  -3  -5   22.82    3.33
   0  -3  -5   21.94    4.41
  -1  -3  -5   71.57    7.37
  -1  -3  -5   63.74    6.83
  -1  -3  -5   75.19    6.68
   1  -3   5   57.55    6.07
  -1  -3  -5   63.41    6.41
  -1  -3  -5   71.76    8.69
  -2  -3  -5   50.33    5.64
  -2  -3  -5   54.70    7.50
  -2  -3  -5   56.74    6.33
   2  -3   5   56.08    5.32
  -2  -3  -5   49.63    6.02
  -2  -3  -5   62.33    5.86
  -3  -3  -5    7.14    2.44
  -3  -3  -5   11.97    2.44
  -3  -3  -5   11.84    3.81
  -3  -3  -5    8.32    2.34
   3  -3   5    9.67    1.98
   3   3   5    6.58    2.38
  -4  -3  -5   50.82    7.94
   4  -3   5   51.45    4.92
  -4  -3  -5   50.97    5.74
  -4  -3  -5   46.00    6.46
  -4  -3  -5   45.22    5.85
   4   3   5   45.74    6.66
  -5  -3  -5   60.89    8.54
  -5  -3  -5   56.78    6.40
  -5  -3  -5   47.84    6.55
   5   3   5   45.15    6.90
  -6  -3  -5   51.72    6.21
  -6  -3  -5   50.51    7.98
  -6  -3  -5   52.41    6.75
   6   3   5   36.64    6.97
  -7  -3  -5    4.00    2.91
  -7  -3  -5    1.99    3.94
  -7  -3  -5    2.26    2.41
   7   3   5   -2.69    3.14
  -8  -3  -5   29.32    4.93
  -8  -3  -5   25.85    4.95
   8  -3   5   30.92    5.27
  -8  -3  -5   22.33    5.48
  -7  -4   5   49.91    7.39
  -7  -4   5   57.38    7.04
  -6  -4   5   17.92    4.10
  -5  -4   5   10.90    2.87
   5  -4  -5    7.18    3.48
  -5  -4   5   10.98    2.34
   4  -4  -5   55.10    5.66
   4  -4  -5   47.87    9.02
  -4  -4   5   68.10    6.60
  -4  -4   5   74.85    6.87
   3  -4  -5   35.75    6.51
   3  -4  -5   27.29    3.41
  -3  -4   5   39.34    4.44
   2  -4  -5    6.05    3.17
  -2  -4   5    5.36    1.79
   1  -4  -5   22.57    3.28
   1  -4  -5   18.62    4.84
  -1  -4   5   20.22    3.25
  -1  -4   5   28.83    3.45
   0  -4  -5   33.07    3.94
   0  -4   5   28.93    3.39
   0  -4   5   25.55    3.68
   0  -4  -5   30.36    5.88
  -1  -4  -5    5.20    1.81
  -1  -4  -5    9.63    2.34
   1  -4   5    6.30    1.73
  -1  -4  -5    5.61    4.72
   1  -4   5    6.70    1.57
  -2  -4  -5    1.06    4.00
  -2  -4  -5    3.53    1.97
   2  -4   5    1.03    1.49
  -2  -4  -5    7.04    2.34
  -3  -4  -5   45.19    5.59
  -3  -4  -5   43.69    9.24
  -3  -4  -5   42.03    5.45
  -4  -4  -5   20.33    6.07
  -4  -4  -5   17.61    3.67
  -5  -4  -5   -4.51    2.78
  -5  -4  -5   -7.03    4.51
 -13   0   6   17.82    6.01
 -13   0   6    7.41    3.74
  13   0  -6   10.33    3.95
 -12   0   6   38.35    7.04
  12   0  -6   39.87    6.23
  12   0  -6   49.28    6.53
 -11   0   6   53.84    9.86
 -11   0   6   39.31    6.65
  11   0  -6   54.15    7.02
  11   0  -6   47.87    6.15
  10   0  -6    0.71    1.69
 -10   0   6    5.38    1.74
  10   0  -6   -0.89    1.84
 -10   0   6    0.98    3.38
  -9   0   6   53.14    6.29
   9   0  -6   63.10    7.29
  -9   0   6   65.48    9.09
   9   0  -6   62.10    6.44
   9   0  -6   56.37    7.12
  -8   0   6  168.07   18.65
   8   0  -6  179.35   16.24
   8   0  -6  179.73   15.29
   8   0  -6  152.20   16.37
   8   0  -6  170.04   15.04
   7   0  -6   27.01    3.78
   7   0  -6   30.44    4.22
   7   0  -6   31.63    4.15
   7   0  -6   31.15    4.47
  -7   0   6   24.09    4.07
  -7   0   6   29.62    5.91
   7   0  -6   27.73    3.70
   6   0  -6   44.29    4.69
  -6   0   6   39.56    4.86
  -6   0   6   40.42    6.67
   6   0  -6   50.89    5.00
   6   0  -6   47.33    5.51
  -5   0   6  179.83   20.25
   5   0  -6  215.68   18.50
   5   0  -6  202.46   16.55
   5   0  -6  170.05   17.61
   4   0  -6  323.57   28.73
  -4   0   6  313.52   25.69
   4   0  -6  321.27   28.64
   4   0  -6  261.71   25.60
   3   0  -6    0.64    1.11
  -3   0   6    1.08    1.46
  -3   0   6    1.66    1.76
   3   0  -6   -1.79    1.14
  -3   0   6   -0.10    1.08
   3   0  -6    0.85    1.23
   2   0  -6  253.49   22.85
   2   0  -6  236.72   21.69
   2   0  -6  233.97   22.80
  -1   0   6  274.61   22.70
  -1   0   6  268.37   25.35
   1   0  -6  264.55   22.66
   0   0  -6   36.39    3.95
   0   0   6   32.14    3.62
   0   0  -6   31.02    3.48
   0   0  -6   28.04    4.03
   0   0  -6   31.27    3.76
   0   0   6   30.96    4.11
  -1   0  -6  112.08    9.16
  -1   0  -6   89.74    9.05
   1   0   6  105.68   10.10
   1   0   6  103.84    9.15
   2   0   6  858.72   75.31
  -2   0  -6  969.37   75.44
  -2   0  -6  728.75   78.00
  -2   0  -6  812.92   69.87
   3   0   6   95.86    9.51
  -3   0  -6   92.15    8.49
   3   0   6   97.39    8.61
  -3   0  -6  102.55    9.38
  -3   0  -6   76.49    9.03
   3   0   6   94.07    8.72
  -4   0  -6   39.99    4.20
   4   0   6   38.19    4.12
   4   0   6   32.55    4.67
  -4   0  -6   41.04    4.39
   4   0   6   29.87    4.34
  -4   0  -6   31.43    4.44
   5   0   6  134.46   15.38
  -5   0  -6  165.05   14.12
   5   0   6  133.05   13.90
  -5   0  -6  180.27   15.31
   5   0   6  184.01   14.49
  -5   0  -6  165.22   15.34
  -6   0  -6   96.61    9.64
   6   0   6   80.71    9.93
  -6   0  -6  103.46    8.91
   6   0   6   80.40    9.12
  -6   0  -6   97.22    9.29
  -7   0  -6   16.80    3.35
   7   0   6   11.68    3.61
   7   0   6   18.59    3.51
  -7   0  -6   18.67    3.22
   8   0   6   57.17    8.22
  -8   0  -6   54.07    6.55
  -8   0  -6   62.47    7.54
   8   0   6   72.59    7.49
  -9   0  -6   60.83    7.52
   9   0   6   50.16    8.28
  10   0   6   15.47    5.04
 -10   0  -6   25.72    4.68
  10   0   6   38.80    6.17
 -11   0  -6   11.57    3.73
  11   0   6   17.59    4.35
 -14  -1   6    7.42    4.56
 -13  -1   6   57.23    9.29
  13  -1  -6   57.90    8.62
  13  -1  -6   61.15    8.07
  13   1  -6   63.74    8.52
  12  -1  -6    4.14    2.24
 -12  -1   6   -2.57    2.57
 -12  -1   6    6.85    4.86
 -12   1   6    4.67    4.92
  12   1  -6    2.89    1.92
  11  -1  -6   30.34    5.10
 -11  -1   6   37.02    5.25
  11  -1  -6   35.89    5.44
  11   1  -6   30.31    5.38
 -11   1   6   43.49    8.82
 -10  -1   6   69.54    8.98
 -10  -1   6   84.36   10.98
 -10  -1   6   80.14    8.40
  10  -1  -6   84.22    9.31
  10   1  -6   81.19    8.28
 -10   1   6   67.86    8.70
  10   1  -6   85.67    9.24
 -10   1   6   94.64   11.60
   9  -1  -6   98.25    9.55
  -9  -1   6  107.75   12.55
  -9  -1   6   86.31    9.75
   9  -1  -6  115.56   10.25
   9  -1  -6   97.24   10.54
  -9   1   6  100.75   12.38
   9   1  -6   94.20    9.48
   9   1  -6   93.18   10.49
   8  -1  -6   22.32    4.14
  -8  -1   6   24.88    4.68
  -8  -1   6   23.24    3.90
   8  -1  -6   23.73    3.98
   8  -1  -6   23.23    3.68
   8  -1  -6   22.76    3.64
   8  -1  -6   23.74    4.24
   8   1  -6   17.43    3.47
  -8   1   6   23.92    2.98
   8   1  -6   20.39    3.08
   8   1  -6   23.49    4.67
  -8   1   6   23.65    4.88
  -7  -1   6  138.54   13.57
   7  -1  -6  142.14   15.03
  -7  -1   6  168.41   14.07
   7  -1  -6  162.01   14.65
   7  -1  -6  167.42   14.95
  -7  -1   6  155.17   16.99
   7  -1  -6  146.53   13.55
   7   1  -6  160.51   15.03
   7   1  -6  147.87   14.66
   7   1  -6  148.18   13.63
  -7   1   6  159.73   16.98
   6  -1  -6  226.80   18.05
   6  -1  -6  210.72   17.94
  -6  -1   6  171.43   21.82
  -6  -1   6  175.92   17.91
   6   1  -6  213.28   18.04
   6   1  -6  232.13   19.42
  -6   1   6  212.58   17.99
  -6   1   6  231.56   22.35
  -5  -1   6   -0.86    2.40
  -5  -1   6    0.93    1.68
  -5  -1   6    0.42    1.31
   5  -1  -6    3.60    1.97
   5  -1  -6    0.19    1.23
   5  -1  -6    0.58    1.15
   5  -1  -6   -0.36    1.10
   5   1  -6    0.13    1.13
  -5   1   6   -0.53    2.39
   5   1  -6   -0.66    1.17
  -5   1   6   -0.72    1.34
  -4  -1   6   27.24    3.45
   4  -1  -6   29.52    4.03
   4  -1  -6   26.19    3.28
  -4  -1   6   31.57    3.89
  -4  -1   6   26.58    4.88
   4  -1  -6   33.42    3.86
  -4  -1   6   26.47    3.93
   4   1  -6   24.05    3.70
  -4   1   6   28.60    4.91
   4   1  -6   27.09    3.30
  -4   1   6   31.94    3.58
   3  -1  -6  301.14   25.82
   3  -1  -6  288.26   24.55
  -3  -1   6  270.77   28.00
  -3  -1   6  268.68   23.06
  -3  -1   6  282.69   23.16
   3  -1  -6  241.89   25.71
  -3  -1   6  259.47   24.57
   3  -1  -6  269.84   23.00
   3   1  -6  278.53   23.05
  -3   1   6  258.51   28.02
   3   1  -6  278.24   25.78
   3   1  -6  250.03   24.56
  -3   1   6  302.19   23.11
   2  -1  -6    2.27    1.27
   2  -1  -6    1.18    1.10
   2  -1  -6    4.21    1.89
  -2  -1   6    1.14    1.23
   2  -1  -6    2.51    1.25
  -2  -1   6    1.74    1.25
   2   1  -6    2.08    1.01
   2   1  -6    2.54    1.28
  -2   1   6    3.91    1.93
   2   1  -6    1.06    1.30
   1  -1  -6    9.33    1.62
   1  -1  -6    6.78    2.00
  -1  -1   6    5.19    1.42
  -1  -1   6    5.44    1.48
   1  -1  -6    4.99    1.58
   1  -1  -6    6.65    1.45
   1   1  -6    5.12    1.58
   1   1  -6    4.80    1.55
   1   1  -6    4.97    1.36
   1   1  -6    7.08    1.35
   0  -1  -6  150.48   15.68
   0  -1   6  192.56   15.77
   0  -1  -6  147.19   14.68
   0   1  -6  172.48   14.66
   0   1  -6  185.65   16.49
   0   1  -6  184.72   16.52
   1  -1   6  220.53   17.00
  -1  -1  -6  172.03   16.91
  -1  -1  -6  190.40   19.02
  -1   1  -6  192.62   16.84
  -1   1  -6  216.32   18.06
  -1   1  -6  199.20   18.81
  -2  -1  -6   13.74    2.25
   2  -1   6   16.62    2.83
   2  -1   6   15.42    3.10
  -2  -1  -6   17.44    2.93
   2  -1   6   17.45    3.05
  -2  -1  -6   12.60    2.53
  -2  -1  -6   16.57    2.98
  -2  -1  -6   17.36    2.64
  -2   1  -6   18.59    2.79
  -2   1  -6   12.90    2.29
   2   1   6   10.18    2.53
  -2   1  -6   14.84    2.80
  -3  -1  -6   95.18    9.02
   3  -1   6   83.24    7.78
  -3  -1  -6   87.14    7.81
  -3  -1  -6   92.26    7.90
  -3  -1  -6   96.77    8.77
   3  -1   6   83.49    8.60
   3  -1   6   78.34    8.29
  -3   1  -6   81.38    7.55
   3   1   6   84.39    8.73
  -3   1  -6   67.55    8.60
  -3   1  -6   67.54    8.10
  -3   1  -6   85.42    8.27
  -4  -1  -6  222.85   19.69
  -4  -1  -6  197.27   18.91
   4  -1   6  190.02   17.62
   4  -1   6  201.32   19.26
  -4  -1  -6  221.48   17.78
  -4  -1  -6  203.34   17.70
  -4   1  -6  233.28   19.95
   4   1   6  184.82   19.18
   4   1   6  174.37   17.69
  -4   1  -6  213.41   17.56
  -4   1  -6  204.35   19.19
   5  -1   6   22.01    3.88
  -5  -1  -6   27.24    3.85
  -5  -1  -6   25.94    3.99
  -5  -1  -6   26.44    3.88
  -5  -1  -6   20.77    3.38
   5  -1   6   21.98    3.10
   5  -1   6   20.65    4.28
  -5   1  -6   27.67    4.58
  -5   1  -6   21.68    3.67
   5   1   6   19.79    3.87
  -5   1  -6   23.74    3.01
   5   1   6   29.35    3.64
  -6  -1  -6    8.41    2.29
  -6  -1  -6    8.54    2.49
  -6  -1  -6    6.42    2.08
   6  -1   6    6.09    2.71
   6  -1   6    7.53    2.57
  -6   1  -6   11.56    2.51
   6   1   6    6.20    2.93
   6   1   6    9.12    2.65
  -6   1  -6    8.86    1.82
  -7  -1  -6  285.50   24.87
  -7  -1  -6  290.59   22.81
  -7  -1  -6  218.20   24.08
   7  -1   6  224.95   24.47
   7  -1   6  219.67   22.63
   7   1   6  301.40   23.07
  -7   1  -6  288.01   24.37
   7   1   6  249.83   24.70
  -8  -1  -6   41.40    5.93
   8  -1   6   37.31    5.78
   8  -1   6   24.65    5.14
  -8  -1  -6   37.07    5.29
  -8  -1  -6   29.94    4.49
   8   1   6   40.40    5.95
   8   1   6   33.23    6.18
  -8   1  -6   34.69    5.71
  -9  -1  -6    0.33    2.40
  -9  -1  -6    3.21    1.39
   9  -1   6    4.45    3.08
   9  -1   6   -4.05    2.96
  -9  -1  -6   -3.80    2.26
  -9   1  -6    0.26    2.39
   9   1   6   -3.17    3.22
 -10  -1  -6   50.95    7.58
  10  -1   6   36.54    6.94
  10   1   6   39.24    7.79
 -10   1  -6   60.93    7.59
 -11  -1  -6   17.11    4.07
  11  -1   6   24.97    5.81
 -13  -2   6   -1.75    3.66
 -12  -2   6   25.12    5.71
  12  -2  -6   33.92    6.83
  12  -2  -6   30.64    5.30
  12   2  -6   45.19    6.41
  11  -2  -6   18.87    3.86
 -11  -2   6   16.08    4.08
  11   2  -6   14.97    3.54
  10  -2  -6    4.94    1.97
  10  -2  -6    4.33    1.98
 -10  -2   6    6.18    2.31
  10   2  -6    0.33    2.02
 -10   2   6    2.93    3.97
  -9  -2   6   62.53    8.40
  -9  -2   6   48.40    6.42
   9  -2  -6   50.35    6.52
   9  -2  -6   46.28    5.95
  -9  -2   6   45.40    6.76
   9   2  -6   51.43    6.92
  -8  -2   6   64.06    7.32
   8  -2  -6   55.84    7.42
   8  -2  -6   62.95    6.77
  -8  -2   6   80.20    9.39
   8  -2  -6   62.91    7.32
   8   2  -6   68.53    7.88
  -8   2   6   71.37    9.93
   7  -2  -6    1.54    1.68
   7  -2  -6    3.38    1.68
   7  -2  -6    2.34    1.82
   7  -2  -6    2.92    1.73
  -7  -2   6    0.26    2.98
   7  -2  -6   -2.51    2.48
  -7  -2   6    3.99    2.42
   7   2  -6    2.68    2.01
  -7   2   6    3.61    2.97
  -6  -2   6    4.50    2.21
  -6  -2   6    1.75    2.14
   6  -2  -6    0.09    1.41
   6  -2  -6    0.28    1.39
   6  -2  -6   -1.22    2.21
   6  -2  -6   -0.98    1.30
  -6  -2   6    0.95    1.54
   6  -2  -6   -0.27    1.51
   6   2  -6   -0.32    1.54
   6   2  -6   -1.25    1.25
   6   2  -6   -1.27    1.93
  -6   2   6    0.41    2.63
   5  -2  -6   43.94    4.95
   5  -2  -6   46.97    6.15
  -5  -2   6   45.90    5.07
  -5  -2   6   49.06    6.49
   5  -2  -6   53.84    5.57
  -5  -2   6   52.20    5.66
   5   2  -6   53.58    5.92
   5   2  -6   48.08    5.68
  -5   2   6   58.14    7.39
  -4  -2   6  117.80   11.16
  -4  -2   6  111.48   10.17
   4  -2  -6   95.08   10.69
  -4  -2   6  102.71   12.28
   4  -2  -6  115.93   10.02
   4  -2  -6  105.86   11.56
   4  -2  -6  129.39   11.37
   4   2  -6  105.39   11.06
   4   2  -6  124.35   10.98
   4   2  -6  118.14   10.06
  -4   2   6  129.77   12.81
  -3  -2   6    1.60    1.43
   3  -2  -6    0.71    1.76
   3  -2  -6    0.94    1.16
  -3  -2   6    1.29    1.34
   3  -2  -6    0.32    1.32
  -3  -2   6    0.51    1.33
   3  -2  -6    1.11    1.23
  -3  -2   6   -1.28    1.93
  -3   2   6    3.80    1.74
   3   2  -6    0.92    0.93
   3   2  -6    1.60    1.04
   2  -2  -6   85.69    7.84
   2  -2  -6   75.73    8.77
   2  -2  -6   80.35    8.33
  -2  -2   6   88.74    8.02
  -2  -2   6   88.05    7.94
  -2  -2   6  104.59    8.65
   2  -2  -6   98.98    9.35
   2   2  -6   75.20    8.30
   2   2  -6   89.90    7.70
   2   2  -6   92.14    8.84
  -2   2   6   87.58    9.55
  -1  -2   6   30.12    3.69
   1  -2  -6   38.21    3.79
  -1  -2   6   42.41    4.12
   1  -2  -6   43.16    5.03
   1  -2  -6   35.00    4.04
   1  -2  -6   29.03    4.16
  -1   2   6   35.64    4.65
   1   2  -6   27.74    3.77
   1   2  -6   34.56    3.54
   1   2  -6   37.29    4.34
   0  -2  -6    1.26    1.78
   0  -2   6    1.29    1.32
   0  -2  -6    2.19    1.31
   0  -2  -6    2.51    1.15
   0  -2  -6    2.42    1.29
   0  -2   6    2.19    1.07
   0  -2  -6    1.37    1.60
   0   2  -6    3.40    1.08
   0   2  -6    0.17    1.05
  -1  -2  -6   30.86    4.41
  -1  -2  -6   39.84    4.13
   1  -2   6   36.34    3.95
  -1  -2  -6   34.98    4.38
  -1  -2  -6   30.50    4.78
  -1  -2  -6   40.31    4.10
   1  -2   6   35.33    4.10
  -1   2  -6   41.27    4.62
  -1   2  -6   37.39    3.97
  -2  -2  -6   69.72    7.73
  -2  -2  -6   54.76    6.30
   2  -2   6   60.51    6.26
  -2  -2  -6   76.35    6.58
   2  -2   6   71.27    6.73
  -2  -2  -6   80.01    7.15
  -2  -2  -6   63.30    7.39
  -2   2  -6   54.73    6.93
  -2   2  -6   69.88    6.60
   2   2   6   68.36    7.40
   3  -2   6    9.78    2.12
  -3  -2  -6    8.30    2.04
   3  -2   6   16.13    2.78
  -3  -2  -6   12.59    2.78
  -3  -2  -6   16.37    2.57
  -3  -2  -6    9.08    2.16
  -3  -2  -6    8.11    2.44
  -3   2  -6   11.42    2.28
  -3   2  -6   10.78    2.01
   3   2   6    8.61    2.63
  -4  -2  -6    6.48    2.09
  -4  -2  -6    8.77    2.63
   4  -2   6    7.80    2.21
  -4  -2  -6    5.62    1.82
  -4   2  -6    7.39    1.86
  -4   2  -6    6.52    1.58
   4   2   6    4.54    2.64
  -5  -2  -6  109.84   10.64
   5  -2   6   98.71    9.67
  -5  -2  -6  105.43    9.84
  -5  -2  -6  114.32   11.18
  -5   2  -6   96.59    9.92
  -5   2  -6   96.65   10.66
   5   2   6   99.38   10.95
   6  -2   6   47.09    5.60
  -6  -2  -6   50.48    6.62
  -6  -2  -6   50.02    5.96
   6  -2   6   35.10    6.00
  -6  -2  -6   51.79    6.30
  -6   2  -6   51.39    6.19
   6   2   6   42.15    6.53
   7  -2   6    2.38    2.23
   7  -2   6    4.34    2.58
  -7  -2  -6    2.52    2.30
  -7  -2  -6    1.99    1.85
  -7  -2  -6    0.23    2.35
   7   2   6   -1.12    3.07
  -7   2  -6    2.04    2.15
  -8  -2  -6   17.06    3.63
  -8  -2  -6   24.13    4.19
   8  -2   6   11.76    3.65
  -8  -2  -6   17.35    3.66
   8  -2   6   19.25    4.02
   8   2   6    9.72    3.81
  -9  -2  -6   32.01    5.07
  -9  -2  -6   26.19    4.97
   9  -2   6   25.98    5.31
  -9  -2  -6   30.37    5.12
  -9   2  -6   30.19    6.29
 -10  -2  -6   14.38    4.27
 -10  -2  -6   15.20    3.79
  10  -2   6    6.21    4.21
  10   2   6    4.60    4.12
 -11  -3   6   10.46    3.67
 -10  -3   6    3.05    3.35
 -10  -3   6    3.99    3.72
  10  -3  -6    5.98    2.81
  10   3  -6    9.06    3.34
   9  -3  -6    6.01    1.92
  -9  -3   6   -3.36    2.49
  -9  -3   6    3.49    2.55
   9   3  -6    2.43    2.11
   8  -3  -6    1.32    2.05
  -8  -3   6    5.06    2.63
  -8  -3   6   -2.95    2.40
   8   3  -6    3.61    1.84
  -7  -3   6   14.13    3.17
   7  -3  -6   11.13    2.40
   7  -3  -6    4.51    3.31
  -7  -3   6    9.68    2.90
   7   3  -6   11.34    2.60
  -6  -3   6    5.75    2.17
   6  -3  -6    1.72    2.66
   6  -3  -6    0.39    1.67
  -6  -3   6   -0.49    1.91
   6   3  -6    1.90    1.93
   5  -3  -6    2.13    1.50
   5  -3  -6    2.91    2.40
  -5  -3   6    2.73    2.42
   5  -3  -6    0.13    1.36
   5   3  -6    1.31    1.80
  -5   3   6    4.05    2.36
  -4  -3   6   31.06    4.56
   4  -3  -6   28.53    3.62
   4  -3  -6   26.17    5.22
   4  -3  -6   28.36    3.59
  -4   3   6   35.35    5.07
   4   3  -6   31.17    4.13
   3  -3  -6   17.50    2.90
   3  -3  -6   17.55    4.21
   3  -3  -6   21.64    2.97
  -3  -3   6   23.85    3.84
  -3  -3   6   18.06    3.10
  -3  -3   6   17.93    3.31
   3   3  -6   20.77    3.10
  -3   3   6   21.25    3.89
  -2  -3   6    5.46    1.82
  -2  -3   6    8.58    2.23
   2  -3  -6    4.51    1.67
   2  -3  -6    7.68    1.72
   2  -3  -6    4.78    2.55
   2   3  -6    4.50    1.55
  -2   3   6    7.50    1.91
  -1  -3   6    4.25    1.58
   1  -3  -6    5.84    2.59
  -1  -3   6    2.75    1.82
   1  -3  -6   -0.29    1.57
   1  -3  -6    2.34    1.47
   1  -3  -6    2.76    1.44
   1  -3  -6    5.35    1.58
   0  -3  -6   16.19    3.86
   0  -3  -6   15.35    3.17
   0  -3  -6   16.37    3.06
   0  -3   6   11.37    2.16
   0  -3  -6   20.66    2.96
   0  -3  -6   12.63    2.32
  -1  -3  -6    5.55    3.31
  -1  -3  -6    5.35    1.74
  -1  -3  -6    6.16    1.97
  -1  -3  -6    1.50    2.10
   1  -3   6    6.57    1.68
  -1  -3  -6    6.51    1.86
  -2  -3  -6    0.55    1.62
  -2  -3  -6    2.11    1.56
  -2  -3  -6   -0.69    2.66
   2  -3   6   -0.13    1.46
  -3  -3  -6    8.70    2.33
   3  -3   6    4.28    1.92
  -3  -3  -6    7.24    3.68
  -3  -3  -6    7.09    2.35
  -3  -3  -6    6.19    2.52
  -4  -3  -6   14.86    4.48
  -4  -3  -6   12.37    2.97
  -4  -3  -6   16.55    3.16
  -4  -3  -6   14.85    3.27
   4   3   6    9.03    2.97
  -5  -3  -6    5.27    2.19
  -5  -3  -6    3.20    2.56
  -5  -3  -6    4.26    2.55
  -5  -3  -6    1.45    3.70
   5   3   6   -1.54    2.81
  -6  -3  -6   -3.51    2.95
  -6  -3  -6   -0.44    3.30
  -6  -3  -6    4.62    2.25
  -6  -3  -6    0.80    2.54
   6   3   6   -3.97    3.21
  -7  -3  -6   -1.58    3.81
  -7  -3  -6    2.63    2.51
  -7  -3  -6   -1.80    2.84
   7   3   6   -5.92    3.28
  -8  -3  -6   -2.42    3.01
  -8  -3  -6    1.54    3.28
  -8  -3  -6    2.73    2.75
  -7  -4   6   -0.59    3.19
   6  -4  -6   28.40    5.42
  -6  -4   6   17.51    3.68
  -5  -4   6   11.16    2.68
   4  -4  -6    8.75    1.79
   4  -4  -6    4.39    3.95
  -3  -4   6    8.33    2.13
   3  -4  -6    3.61    1.58
   2  -4  -6    6.15    3.60
   2  -4  -6    2.01    1.46
  -2  -4   6   -0.53    2.09
   1  -4  -6    2.59    1.83
  -1  -4   6    2.28    2.00
   1  -4  -6    9.86    3.58
   0  -4   6    0.39    1.36
   0  -4  -6    2.52    3.76
   0  -4  -6    1.12    1.88
   0  -4   6   -1.50    1.75
  -1  -4  -6   -2.40    3.60
   1  -4   6    0.22    1.43
  -1  -4  -6   -1.33    1.57
  -1  -4  -6    0.29    2.01
  -2  -4  -6   -7.14    4.06
  -2  -4  -6    2.75    2.09
  -2  -4  -6   -2.88    2.00
  -3  -4  -6    3.81    2.08
  -3  -4  -6    2.88    2.30
  -3  -4  -6   -0.61    4.08
  -4  -4  -6   -7.00    3.85
  -4  -4  -6    0.60    2.40
  14   0  -7    4.49    2.98
  13   0  -7    2.66    2.36
 -12   0   7    4.04    4.90
  12   0  -7   -3.71    2.42
  12   0  -7   -0.96    2.42
 -11   0   7    0.11    3.94
  11   0  -7   -0.03    2.10
  11   0  -7    0.26    2.02
  10   0  -7   -0.13    1.94
 -10   0   7   -3.02    3.97
 -10   0   7    5.32    1.92
  10   0  -7    2.96    1.72
  10   0  -7   -2.08    2.39
  -9   0   7   -0.71    3.13
   9   0  -7   -0.91    1.73
   9   0  -7   -0.34    1.56
   9   0  -7   -1.36    1.80
  -9   0   7    4.23    1.74
  -8   0   7    0.27    1.82
  -8   0   7   -0.35    3.04
   8   0  -7    2.98    1.54
   8   0  -7   -0.52    1.57
   8   0  -7   -0.52    1.62
   8   0  -7    0.24    1.43
   7   0  -7   -0.28    1.42
   7   0  -7    0.83    1.54
   7   0  -7    0.71    1.81
  -7   0   7   -0.68    2.18
   7   0  -7   -0.86    1.29
   7   0  -7   -2.19    1.53
  -7   0   7    0.23    1.62
   6   0  -7   -1.17    1.33
   6   0  -7   -0.22    1.24
  -6   0   7   -0.42    1.62
   6   0  -7   -1.18    1.31
   6   0  -7   -0.77    1.78
  -6   0   7   -0.82    2.14
   5   0  -7    0.93    1.69
   5   0  -7   -0.77    1.30
  -5   0   7    0.18    2.35
   5   0  -7   -0.21    1.29
   5   0  -7    0.71    1.39
  -5   0   7   -0.16    1.80
   5   0  -7   -0.96    1.14
  -4   0   7    1.78    2.01
  -4   0   7   -0.05    1.37
   4   0  -7    0.70    1.28
   4   0  -7    1.81    1.54
  -4   0   7    2.29    2.66
   4   0  -7    1.52    1.87
   4   0  -7   -1.02    1.19
  -3   0   7    0.98    2.04
   3   0  -7   -1.39    1.06
  -3   0   7    0.18    1.18
  -3   0   7    0.91    1.46
   3   0  -7    0.21    1.12
   3   0  -7    1.43    1.11
   3   0  -7   -1.30    1.44
  -2   0   7   -0.55    1.23
   2   0  -7   -0.92    1.09
   2   0  -7   -0.28    1.44
   2   0  -7   -0.12    0.94
   2   0  -7    1.39    1.20
   1   0  -7   -2.08    1.38
   1   0  -7    1.00    1.23
  -1   0   7   -0.25    1.35
   1   0  -7   -0.30    1.20
   1   0  -7    0.60    1.03
   0   0  -7    0.34    1.23
   0   0  -7    0.17    1.26
   0   0  -7   -0.01    1.22
   0   0  -7    1.00    1.51
   0   0   7    0.19    1.38
   1   0   7   -0.43    1.59
  -1   0  -7    1.85    1.51
  -1   0  -7   -1.91    1.38
  -1   0  -7    0.01    1.19
  -1   0  -7    0.38    1.33
  -1   0  -7    1.20    1.22
  -2   0  -7   -0.22    1.26
  -2   0  -7    2.56    1.71
  -2   0  -7   -0.74    1.04
   2   0   7   -0.52    1.68
  -2   0  -7   -0.59    1.15
  -3   0  -7    0.12    1.42
   3   0   7   -1.85    1.62
  -3   0  -7    0.71    1.52
  -3   0  -7    0.18    1.13
  -3   0  -7    0.20    1.36
   3   0   7   -0.35    1.67
   4   0   7   -0.27    1.81
   4   0   7    3.90    1.73
  -4   0  -7   -0.74    1.39
   4   0   7   -1.45    1.94
  -4   0  -7   -0.52    1.50
  -4   0  -7    0.25    1.31
  -4   0  -7   -0.45    1.26
  -5   0  -7    0.72    1.42
   5   0   7    1.88    1.82
  -5   0  -7    0.22    1.43
  -5   0  -7   -1.32    1.40
   5   0   7   -1.64    2.14
   6   0   7   -0.13    2.48
  -6   0  -7   -2.01    1.48
  -6   0  -7    1.98    1.95
   6   0   7    2.12    2.21
  -6   0  -7   -0.07    1.60
  -7   0  -7    0.22    1.94
  -7   0  -7   -1.30    1.90
   7   0   7   -0.58    2.67
   7   0   7   -1.74    2.62
  -8   0  -7   -0.95    2.25
   8   0   7   -4.85    2.89
   8   0   7   -0.84    3.12
   9   0   7   -5.10    2.83
  -9   0  -7   -0.68    2.29
   9   0   7   -3.79    3.18
  10   0   7   -5.90    3.14
  10   0   7   -5.63    3.53
 -10   0  -7   -1.85    2.51
  14  -1  -7   -4.90    3.59
  14  -1  -7    5.22    3.48
  14   1  -7    2.43    2.84
  13  -1  -7   11.90    3.12
 -13  -1   7   15.47    5.76
  13  -1  -7    2.60    3.45
 -13   1   7   13.24    6.00
  13   1  -7    6.72    2.54
  12  -1  -7    3.98    2.53
  12  -1  -7    2.08    2.87
 -12  -1   7    8.61    4.93
 -12  -1   7   -2.12    2.50
  12   1  -7    3.69    2.31
 -12   1   7   11.21    5.58
 -11  -1   7   14.83    5.52
  11  -1  -7   23.51    3.75
  11  -1  -7   13.73    3.69
  11   1  -7   16.03    3.74
 -11   1   7   24.27    6.31
  10  -1  -7    0.53    2.24
 -10  -1   7    0.51    4.34
  10  -1  -7    2.52    2.01
  10  -1  -7    2.34    2.44
 -10  -1   7    6.46    2.35
  10   1  -7    1.39    2.08
 -10   1   7    6.64    4.11
  10   1  -7    0.52    2.05
   9  -1  -7    2.14    2.05
   9  -1  -7    1.82    2.03
   9  -1  -7   -0.09    2.12
   9  -1  -7    1.20    2.14
  -9  -1   7    1.44    3.45
  -9  -1   7    6.45    1.87
  -9   1   7    3.07    3.94
   9   1  -7   -0.31    2.41
   9   1  -7    2.78    1.98
   8  -1  -7   41.49    5.89
   8  -1  -7   41.82    5.51
   8  -1  -7   38.96    5.57
  -8  -1   7   30.97    5.53
  -8  -1   7   39.65    7.61
   8  -1  -7   39.18    4.83
   8  -1  -7   44.57    4.88
  -8   1   7   41.57    7.51
   8   1  -7   36.37    5.34
   8   1  -7   43.88    5.78
   8   1  -7   37.02    4.86
  -8   1   7   42.40    3.91
   7  -1  -7    3.16    1.99
  -7  -1   7    4.30    1.49
   7  -1  -7    1.98    1.53
  -7  -1   7    5.30    2.76
   7  -1  -7    1.74    1.69
   7  -1  -7    3.15    1.79
  -7  -1   7    2.20    1.92
   7  -1  -7    2.29    1.49
  -7   1   7    4.48    3.51
  -7   1   7    1.95    1.39
   7   1  -7    1.93    1.62
   7   1  -7    1.82    1.64
   7   1  -7    1.76    1.74
  -6  -1   7    0.70    1.99
  -6  -1   7   -0.42    1.40
   6  -1  -7   -0.10    1.28
   6  -1  -7   -0.33    1.17
   6  -1  -7    1.22    1.36
  -6  -1   7    0.89    2.32
   6  -1  -7    1.61    1.87
   6   1  -7    0.31    1.15
   6   1  -7   -0.22    1.24
  -6   1   7    0.87    1.31
  -6   1   7    0.02    2.26
   5  -1  -7   64.01    6.69
   5  -1  -7   46.07    5.88
  -5  -1   7   65.46    6.09
  -5  -1   7   45.77    7.13
  -5  -1   7   57.49    5.67
   5  -1  -7   62.15    6.42
   5  -1  -7   60.11    5.56
   5   1  -7   58.72    6.18
  -5   1   7   44.12    5.47
  -5   1   7   44.83    7.03
   5   1  -7   62.45    5.59
  -4  -1   7   20.54    3.15
  -4  -1   7   31.10    4.88
  -4  -1   7   24.07    3.63
   4  -1  -7   15.21    3.12
   4  -1  -7   24.10    3.83
   4  -1  -7   24.68    3.01
   4   1  -7   23.99    3.48
  -4   1   7   19.61    3.12
  -4   1   7   17.68    3.76
   4   1  -7   21.56    2.82
   4   1  -7   14.63    3.20
   3  -1  -7    4.79    1.51
  -3  -1   7    4.16    1.55
  -3  -1   7    4.20    1.85
   3  -1  -7    1.37    1.27
   3  -1  -7    7.15    2.07
   3  -1  -7    4.83    1.39
  -3  -1   7    4.22    1.64
   3   1  -7    5.80    1.65
  -3   1   7    4.42    1.64
   3   1  -7    2.91    1.42
   3   1  -7    4.06    1.25
   3   1  -7    3.50    1.76
  -3   1   7    5.71    2.35
   2  -1  -7   63.33    6.18
   2  -1  -7   59.13    7.09
  -2  -1   7   69.37    6.85
   2  -1  -7   72.89    7.21
   2   1  -7   63.34    7.11
  -1  -1   7   43.71    5.67
  -1  -1   7   55.40    5.41
   1  -1  -7   46.43    5.97
   1  -1  -7   61.97    5.44
   1  -1  -7   51.74    5.65
   1   1  -7   48.94    5.96
   1   1  -7   60.95    5.21
   1   1  -7   58.63    5.69
   1   1  -7   58.08    6.04
   0  -1  -7   13.20    2.05
   0  -1   7    7.28    1.80
   0  -1  -7   14.97    2.90
   0  -1   7    6.35    1.72
   0  -1  -7    7.52    1.67
   0  -1  -7    9.19    2.43
   0   1  -7    8.38    1.54
   0   1  -7    7.64    1.67
   0   1  -7    8.86    2.14
   0   1  -7    9.47    2.05
  -1  -1  -7   47.15    5.97
   1  -1   7   52.21    5.42
  -1  -1  -7   47.90    5.20
   1  -1   7   62.92    6.00
  -1  -1  -7   52.67    5.31
  -1   1  -7   60.60    6.19
  -1   1  -7   57.43    5.17
  -1   1  -7   56.75    5.99
  -1   1  -7   42.94    5.55
  -2  -1  -7   56.15    5.43
   2  -1   7   48.51    5.32
  -2  -1  -7   52.79    5.81
  -2  -1  -7   44.86    5.90
   2  -1   7   57.67    5.93
  -2  -1  -7   54.29    5.31
  -2  -1  -7   48.95    5.86
   2   1   7   49.84    6.17
  -2   1  -7   55.23    5.84
  -2   1  -7   48.24    5.92
  -2   1  -7   59.91    5.16
  -2   1  -7   44.90    5.48
  -3  -1  -7    1.31    1.40
  -3  -1  -7    3.92    1.34
  -3  -1  -7    2.06    1.52
  -3  -1  -7    1.96    1.43
  -3  -1  -7    2.11    1.58
   3  -1   7    1.48    1.84
  -3   1  -7    1.55    1.44
  -3   1  -7    2.28    1.25
   3   1   7    0.54    2.02
  -3   1  -7    2.65    1.25
  -3   1  -7    2.68    1.59
   4  -1   7   -1.41    1.77
  -4  -1  -7   -0.60    1.31
  -4  -1  -7    0.65    1.42
   4  -1   7   -2.66    1.54
  -4  -1  -7    1.03    1.30
  -4  -1  -7    0.59    1.90
   4  -1   7   -0.31    1.71
  -4  -1  -7    0.70    1.71
  -4   1  -7    2.08    1.15
  -4   1  -7    0.50    1.34
  -4   1  -7    1.94    1.76
   4   1   7    1.29    2.25
  -4   1  -7    0.98    1.45
  -5  -1  -7   26.64    4.15
   5  -1   7   33.92    3.94
  -5  -1  -7   20.97    3.80
  -5  -1  -7   28.24    4.35
   5  -1   7   20.18    3.55
   5  -1   7   23.50    4.03
  -5   1  -7   28.30    3.48
  -5   1  -7   35.53    5.08
  -5   1  -7   28.73    4.59
   5   1   7   29.74    4.21
   5   1   7   21.64    4.58
  -6  -1  -7   21.36    3.88
   6  -1   7   24.36    4.33
  -6  -1  -7   25.46    4.47
  -6  -1  -7   30.30    4.87
   6  -1   7   21.74    4.25
   6   1   7   34.27    4.24
  -6   1  -7   26.84    4.98
  -6   1  -7   26.15    4.35
   7  -1   7    0.70    2.82
   7  -1   7    5.78    2.80
  -7  -1  -7    1.73    1.94
  -7  -1  -7    1.72    2.24
  -7  -1  -7    4.24    1.70
  -7   1  -7    6.63    2.25
  -7   1  -7    1.25    2.93
   7   1   7    8.93    2.34
   7   1   7    1.14    2.85
  -8  -1  -7    5.17    1.71
   8  -1   7    4.96    3.29
  -8  -1  -7    6.54    2.91
   8  -1   7   -0.76    2.99
  -8  -1  -7    3.11    2.68
   8   1   7   -1.22    3.17
  -8   1  -7    5.76    2.12
  -9  -1  -7   14.29    4.03
   9  -1   7   10.47    4.38
  -9   1  -7   15.52    3.35
  10  -1   7    6.03    4.40
 -10  -1  -7    7.86    3.67
  10  -1   7   -3.69    3.77
  10   1   7   -4.06    3.92
 -13  -2   7    7.92    4.25
  12  -2  -7   11.65    2.93
  12  -2  -7    6.98    3.21
 -12  -2   7    0.98    2.89
 -12  -2   7    5.51    3.69
  12   2  -7   11.96    3.18
 -11  -2   7   -2.98    2.61
  11  -2  -7    5.24    2.18
 -11  -2   7    7.44    2.32
  11  -2  -7    2.28    2.03
 -11   2   7    8.85    5.00
  11   2  -7    2.32    2.32
 -10  -2   7   71.61    8.37
  10  -2  -7   72.90    8.83
  10  -2  -7   69.99    8.00
 -10  -2   7   63.21    8.89
 -10  -2   7   89.70   11.18
 -10   2   7   77.15   11.42
  10   2  -7   81.42    9.32
  -9  -2   7   31.13    5.93
  -9  -2   7   39.40    5.45
   9  -2  -7   20.07    4.49
   9  -2  -7   24.26    4.31
  -9   2   7   29.94    6.02
   9   2  -7   25.26    5.21
   8  -2  -7   -0.02    1.83
  -8  -2   7    3.02    2.26
  -8  -2   7   -4.20    3.29
   8  -2  -7   -2.74    1.82
   8  -2  -7    1.60    2.36
   8  -2  -7    1.26    1.73
   8   2  -7   -1.14    1.85
  -8   2   7    2.80    2.96
   7  -2  -7  109.31   10.13
  -7  -2   7  104.47   10.08
   7  -2  -7   95.30    9.22
   7  -2  -7   96.36    9.26
   7  -2  -7   89.95   10.55
   7  -2  -7  107.32   10.25
  -7  -2   7  104.27   11.90
   7   2  -7  101.54   10.65
  -7   2   7   99.75   12.11
   7   2  -7   83.52   10.21
  -6  -2   7   90.81    9.82
   6  -2  -7   79.52    9.01
  -6  -2   7   72.19    7.71
   6  -2  -7   77.94    8.31
   6  -2  -7   81.38    7.69
  -6   2   7   90.79   10.72
   6   2  -7   85.70    8.83
   6   2  -7   75.39    8.49
  -5  -2   7   35.32    5.64
  -5  -2   7   34.40    4.18
   5  -2  -7   34.71    3.94
   5  -2  -7   33.92    5.09
  -5  -2   7   29.49    4.48
   5  -2  -7   36.20    4.32
   5   2  -7   32.31    3.81
   5   2  -7   25.77    4.35
  -5   2   7   34.47    6.44
   5   2  -7   32.27    4.51
   4  -2  -7   23.06    4.35
   4  -2  -7   21.18    2.94
  -4  -2   7   19.63    3.25
  -4  -2   7   15.41    2.91
  -4  -2   7   22.98    3.70
   4  -2  -7   22.70    3.81
  -4  -2   7   19.47    4.51
   4  -2  -7   18.25    3.19
  -4   2   7   29.28    4.72
   4   2  -7   25.01    3.31
   4   2  -7   18.60    2.76
  -3  -2   7   38.90    4.43
   3  -2  -7   42.59    4.48
   3  -2  -7   29.74    4.80
  -3  -2   7   35.71    5.50
  -3  -2   7   33.92    4.10
   3  -2  -7   35.67    3.91
  -3  -2   7   38.38    4.42
   3  -2  -7   31.30    4.39
  -3   2   7   37.23    5.29
   3   2  -7   34.04    3.72
   3   2  -7   36.86    4.28
  -2  -2   7   87.81    8.02
   2  -2  -7   99.13    9.06
   2  -2  -7   79.04    8.43
   2  -2  -7   84.68    7.94
  -2  -2   7   97.22    8.75
  -2  -2   7   94.30    8.17
   2   2  -7   84.54    8.54
  -2   2   7   81.65    9.65
   2   2  -7   92.43    8.99
  -2   2   7   79.16    7.79
   2   2  -7   83.59    7.75
  -1  -2   7   -0.53    1.37
   1  -2  -7    1.20    1.38
   1  -2  -7    0.92    1.81
  -1  -2   7   -0.83    1.23
   1  -2  -7    0.46    1.26
   1  -2  -7    0.07    1.18
  -1   2   7   -1.73    1.78
   1   2  -7   -0.48    0.82
   1   2  -7    0.71    1.13
   1   2  -7   -0.16    1.16
   0  -2  -7   98.58    9.93
   0  -2  -7  132.08   11.75
   0  -2  -7  115.39    9.99
   0  -2  -7  129.44   10.84
   0  -2   7  114.51    9.93
   0  -2   7  100.44   10.44
   0   2  -7  103.98   11.01
   0   2  -7  103.46   10.45
  -1  -2  -7   23.83    4.07
  -1  -2  -7   28.52    3.55
  -1  -2  -7   26.05    3.57
  -1  -2  -7   25.35    3.86
  -1  -2  -7   33.89    4.90
   1  -2   7   26.22    3.51
   1  -2   7   27.42    3.54
  -1   2  -7   23.32    3.33
  -1   2  -7   28.36    3.97
  -2  -2  -7    5.22    2.24
  -2  -2  -7    7.21    1.87
   2  -2   7    6.62    1.83
  -2  -2  -7    6.86    2.08
  -2  -2  -7    4.60    1.65
  -2  -2  -7    6.65    1.64
   2  -2   7    6.55    1.82
  -2   2  -7    6.54    1.59
  -2   2  -7    6.33    1.74
   3  -2   7   25.59    4.00
  -3  -2  -7   36.38    4.70
  -3  -2  -7   26.98    4.01
  -3  -2  -7   29.72    4.17
  -3  -2  -7   30.36    4.99
  -3  -2  -7   23.83    4.81
  -3   2  -7   30.59    3.93
  -3   2  -7   32.58    4.51
  -4  -2  -7   64.43    6.24
  -4  -2  -7   41.59    6.64
  -4  -2  -7   45.37    6.96
  -4  -2  -7   47.13    6.17
   4  -2   7   53.02    5.87
  -4   2  -7   60.18    6.39
   4   2   7   57.01    7.04
  -4   2  -7   54.34    5.74
  -5  -2  -7   35.37    5.06
  -5  -2  -7   35.93    6.14
  -5  -2  -7   30.40    5.38
  -5  -2  -7   33.22    4.92
   5   2   7   26.02    5.67
  -5   2  -7   37.37    4.94
  -5   2  -7   34.51    4.40
  -6  -2  -7   51.85    7.57
  -6  -2  -7   73.14    7.69
  -6  -2  -7   66.55    7.25
   6   2   7   56.28    7.78
  -6   2  -7   59.00    7.35
  -7  -2  -7   43.44    6.39
   7  -2   7   34.48    6.02
  -7  -2  -7   32.38    5.97
   7  -2   7   41.08    5.79
  -7  -2  -7   41.85    6.09
   7   2   7   31.07    5.88
  -7   2  -7   48.33    5.88
  -8  -2  -7   30.56    5.27
   8  -2   7   36.22    6.85
   8  -2   7   44.47    6.13
  -8  -2  -7   40.55    6.62
  -8  -2  -7   43.82    6.92
  -8   2  -7   43.81    6.50
   9  -2   7    0.56    2.75
  -9  -2  -7   -0.35    2.99
  -9  -2  -7   -4.52    2.91
  -9   2  -7    5.84    3.04
 -11  -3   7   30.38    6.10
  11  -3  -7   36.74    5.81
  11   3  -7   39.36    7.03
 -10  -3   7    5.11    2.82
  10  -3  -7    5.15    2.12
  10   3  -7    4.47    2.20
  -9  -3   7   13.23    3.70
   9  -3  -7   19.09    3.42
  -8  -3   7   63.72    7.43
   8  -3  -7   55.44    6.31
  -8  -3   7   52.02    7.55
   8   3  -7   53.99    7.14
  -7  -3   7   51.98    6.75
   7  -3  -7   37.72    7.63
   7  -3  -7   57.56    5.97
  -7   3   7   62.68    8.00
   7   3  -7   53.80    6.94
   6  -3  -7   -0.61    2.96
  -6  -3   7    1.90    2.69
   6  -3  -7   -0.53    1.54
   6  -3  -7   -0.24    1.75
   6   3  -7    0.59    1.95
   5  -3  -7  213.02   16.47
   5  -3  -7  191.10   19.04
  -5  -3   7  162.41   16.84
   5  -3  -7  167.99   17.28
  -5   3   7  207.70   20.43
   5   3  -7  193.19   18.00
  -4  -3   7   87.42    9.12
   4  -3  -7   72.94    7.10
   4  -3  -7   70.23    8.88
  -4  -3   7   76.14    7.93
   4  -3  -7   71.71    7.46
   4   3  -7   74.31    7.88
  -4   3   7   72.64    8.99
   3  -3  -7    1.98    1.56
  -3  -3   7   -1.86    2.47
   3  -3  -7    4.21    2.85
   3  -3  -7    3.97    1.41
  -3  -3   7    2.72    2.09
   3  -3  -7   -0.69    1.80
  -3  -3   7    2.09    1.83
  -3   3   7    2.86    2.00
   3   3  -7    0.83    1.59
  -2  -3   7   22.97    4.24
   2  -3  -7   29.13    5.32
   2  -3  -7   32.57    3.94
   2  -3  -7   39.55    3.97
  -2  -3   7   31.00    4.02
   2  -3  -7   26.51    4.01
  -2   3   7   36.72    5.28
   1  -3  -7   65.00    6.95
  -1  -3   7   77.12    7.25
   1  -3  -7   68.18    6.89
   1  -3  -7   70.07    7.93
  -1  -3   7   70.97    7.01
   1  -3  -7   80.23    7.53
   1  -3  -7   79.79    9.30
   0  -3  -7   18.63    3.33
   0  -3   7   15.82    3.01
   0  -3  -7   19.17    3.56
   0  -3  -7   18.08    3.69
   0  -3  -7   13.62    3.69
   0  -3  -7   24.48    3.39
  -1  -3  -7   13.81    2.55
  -1  -3  -7    9.84    2.38
  -1  -3  -7    9.93    2.80
   1  -3   7   11.99    2.23
  -1  -3  -7   12.33    3.46
  -2  -3  -7   59.00    6.78
  -2  -3  -7   61.47    7.00
  -2  -3  -7   61.75    7.90
   2  -3   7   49.23    5.88
  -2  -3  -7   67.88    6.51
  -3  -3  -7   27.26    5.31
  -3  -3  -7   35.47    4.93
  -3  -3  -7   26.14    4.43
  -3  -3  -7   24.01    4.37
  -4  -3  -7    8.53    3.05
  -4  -3  -7   11.62    3.07
  -4  -3  -7    9.17    2.78
  -4  -3  -7   11.90    4.00
   4   3   7    5.22    2.99
  -5  -3  -7   85.74   10.87
  -5  -3  -7   84.82    9.86
  -5  -3  -7   82.13    8.97
  -5  -3  -7   83.60    9.60
  -6  -3  -7    7.91    3.31
  -6  -3  -7   10.38    2.84
  -6  -3  -7   11.06    3.37
  -6  -3  -7   11.58    3.48
   6   3   7    4.65    4.05
  -7  -3  -7    8.43    2.99
  -7  -3  -7    2.85    3.34
  -7  -3  -7    7.96    3.30
  -7  -3  -7   10.66    3.36
  -8  -3  -7    8.99    2.77
  -8  -3  -7    6.55    3.76
  -8  -3  -7    1.50    4.26
  -7  -4   7   47.45    6.36
   6  -4  -7   17.43    3.32
  -6  -4   7   15.71    3.91
   6  -4  -7   32.76    6.47
   5  -4  -7    1.23    1.86
   5  -4  -7    6.26    3.47
  -4  -4   7   10.53    2.75
   4  -4  -7   18.71    4.28
   4  -4  -7   17.83    3.04
  -3  -4   7   39.28    5.67
   3  -4  -7   34.07    4.34
   3  -4  -7   40.69    6.89
   2  -4  -7   37.51    4.19
  -2  -4   7   32.82    4.97
   2  -4  -7   29.18    6.62
  -1  -4   7    0.07    2.17
   1  -4  -7    1.84    3.34
   1  -4  -7    1.83    1.94
   0  -4  -7   28.22    4.43
   0  -4  -7   37.09    4.71
   0  -4   7   32.70    4.71
   0  -4  -7   45.64    7.34
   1  -4   7   20.75    3.36
  -1  -4  -7   19.60    4.04
  -1  -4  -7   28.83    4.35
  -2  -4  -7    2.86    2.47
  -2  -4  -7    0.14    2.21
  -2  -4  -7    4.31    3.48
  -3  -4  -7   28.88    4.71
  -3  -4  -7   25.52    4.88
  -3  -4  -7   33.72    6.91
  -4  -4  -7   50.90    7.08
  -4  -4  -7   72.87    9.43
  -4  -4  -7   60.69    7.31
  14   0  -8   92.11   10.26
 -14   0   8   67.80   10.68
  13   0  -8    3.78    3.29
 -13   0   8   15.12    6.05
  13   0  -8    9.89    3.55
  12   0  -8   51.03    6.48
  12   0  -8   52.54    7.68
 -12   0   8   38.48    7.16
 -12   0   8   59.15   10.40
 -11   0   8   58.38   10.83
  11   0  -8   45.02    5.91
  11   0  -8   67.19    7.83
  10   0  -8   49.95    6.79
 -10   0   8   38.76    8.96
  10   0  -8   50.16    6.11
 -10   0   8   60.43    6.23
  10   0  -8   51.09    7.43
   9   0  -8   30.95    4.55
   9   0  -8   32.26    5.19
   9   0  -8   35.89    5.29
  -9   0   8   36.36    6.51
  -8   0   8   86.46   12.40
  -8   0   8  106.66    9.98
   8   0  -8  111.44   10.59
   8   0  -8  103.57    9.57
   8   0  -8  100.83   10.63
   7   0  -8  233.80   19.92
   7   0  -8  244.18   20.02
  -7   0   8  191.84   24.26
  -7   0   8  251.33   20.16
   7   0  -8  228.60   22.05
   6   0  -8   21.87    3.37
   6   0  -8   24.15    4.33
   6   0  -8   23.98    3.37
   6   0  -8   22.68    3.76
  -6   0   8   24.11    5.29
   5   0  -8   94.86    8.31
  -5   0   8   83.51    8.53
   5   0  -8  108.11    9.51
   5   0  -8   76.50    8.93
  -5   0   8   87.50   10.69
  -4   0   8  365.26   29.47
  -4   0   8  373.55   35.77
   4   0  -8  354.18   32.89
   4   0  -8  309.49   32.80
   4   0  -8  357.78   29.41
  -4   0   8  330.76   29.50
   3   0  -8    1.69    1.38
   3   0  -8   -1.92    1.27
   3   0  -8   -0.42    1.70
  -3   0   8   -0.07    1.51
   3   0  -8    1.02    1.39
   2   0  -8  140.45   15.16
   2   0  -8  182.89   16.13
   2   0  -8  171.84   14.32
   1   0  -8  233.98   22.51
   1   0  -8  244.88   23.73
   1   0  -8  268.05   21.24
   0   0  -8   97.72    8.26
   0   0  -8   76.07    9.19
   0   0   8   95.96    8.40
   0   0  -8   90.31    9.34
  -1   0  -8   35.26    4.61
  -1   0  -8   40.34    4.24
  -1   0  -8   31.41    4.43
  -1   0  -8   35.95    4.63
   1   0   8   34.62    4.23
  -2   0  -8   37.27    4.80
  -2   0  -8   44.46    5.15
   2   0   8   34.57    4.48
  -2   0  -8   40.24    4.37
  -3   0  -8  221.31   18.91
  -3   0  -8  163.35   18.93
  -3   0  -8  203.79   18.26
   3   0   8  201.23   17.09
   3   0   8  167.11   18.45
  -3   0  -8  215.13   17.03
   4   0   8    7.12    2.18
  -4   0  -8    3.61    2.01
   4   0   8    4.08    2.24
  -4   0  -8    3.35    1.89
  -4   0  -8    6.18    2.31
  -4   0  -8    6.03    1.71
  -5   0  -8   14.55    2.90
   5   0   8   14.69    2.91
  -5   0  -8   14.55    3.04
  -5   0  -8   18.17    3.28
   5   0   8   12.14    3.20
  -5   0  -8   10.46    2.54
  -6   0  -8  168.84   15.54
  -6   0  -8  149.12   15.39
   6   0   8  146.13   14.37
   6   0   8  149.49   15.85
  -6   0  -8  172.08   14.32
  -7   0  -8   34.42    5.11
   7   0   8   18.50    4.49
  -7   0  -8   24.61    4.23
   8   0   8    0.61    3.39
  -8   0  -8    6.73    2.54
   9   0   8   63.51    8.57
  -9   0  -8   52.08    7.73
  10   0   8   17.20    4.85
 -10   0  -8   19.71    4.14
 -14  -1   8   29.82    7.66
 -14   1   8   34.15    8.64
  13  -1  -8   58.19    8.00
 -13  -1   8   45.18    8.36
  13  -1  -8   54.98    7.36
  13   1  -8   59.53    7.96
  12  -1  -8   41.12    5.56
 -12  -1   8   48.92    9.62
  12  -1  -8   45.31    7.19
 -12   1   8   53.43   10.92
  12   1  -8   37.29    7.03
 -11  -1   8    2.87    5.06
  11  -1  -8    3.56    2.51
  11  -1  -8    3.22    2.79
 -11  -1   8    9.34    2.48
  11   1  -8    6.51    3.08
 -11   1   8    8.17    4.91
  10  -1  -8   67.98    7.39
  10  -1  -8   60.19    8.05
 -10  -1   8   67.10    7.50
 -10  -1   8   56.32   10.13
  10  -1  -8   74.59    8.03
  10  -1  -8   82.61    8.96
  10   1  -8   63.30    8.00
 -10   1   8   79.31   11.23
  10   1  -8   61.24    6.61
  10   1  -8   68.71    9.01
  -9  -1   8   75.97   11.23
  -9  -1   8   82.23    8.32
   9  -1  -8   87.53    9.00
   9  -1  -8   74.90    8.58
   9  -1  -8   80.64    8.87
   9  -1  -8   73.68    7.76
   9   1  -8   77.97    8.97
  -9   1   8   70.09   11.02
   9   1  -8   67.89    8.77
   9   1  -8   73.16    7.87
   8  -1  -8   -1.57    2.29
  -8  -1   8    3.25    3.28
   8  -1  -8   -2.55    1.69
   8  -1  -8   -1.22    1.62
   8  -1  -8    0.65    1.77
   8  -1  -8    0.06    1.74
  -8  -1   8   -0.06    2.20
  -8   1   8   -1.17    3.61
   8   1  -8   -0.67    1.97
   8   1  -8   -0.52    1.54
   8   1  -8    0.10    1.65
  -7  -1   8   90.82    8.92
   7  -1  -8  104.62    8.98
  -7  -1   8   91.73   11.22
   7  -1  -8   88.99   10.00
   7  -1  -8  102.35    8.97
  -7  -1   8  113.72    9.61
   7  -1  -8   77.80    9.52
   7   1  -8   94.34    9.95
   7   1  -8  100.71    9.82
  -7   1   8   79.43   11.48
   7   1  -8   99.61    9.00
   6  -1  -8   92.53    9.76
  -6  -1   8  100.12    9.07
  -6  -1   8  103.19   11.63
   6  -1  -8   97.37    9.01
   6   1  -8  111.49    9.17
  -6   1   8  101.81   11.57
   6   1  -8   79.90    9.70
  -5  -1   8   48.09    5.44
  -5  -1   8   53.94    5.83
  -5  -1   8   55.82    7.13
   5  -1  -8   51.74    6.08
   5  -1  -8   53.15    5.34
   5  -1  -8   61.06    6.08
   5  -1  -8   48.37    6.44
  -5   1   8   54.71    7.31
   5   1  -8   41.76    5.78
   5   1  -8   54.47    5.38
  -4  -1   8    4.21    2.47
   4  -1  -8    6.89    2.41
  -4  -1   8    6.58    2.14
   4  -1  -8    2.15    1.38
   4  -1  -8    4.23    1.42
   4  -1  -8    4.72    1.67
  -4  -1   8    2.85    1.66
  -4   1   8    1.13    1.37
  -4   1   8    3.84    2.48
   4   1  -8    4.31    1.67
   4   1  -8    4.51    1.82
   4   1  -8    4.09    1.44
   4   1  -8    2.96    1.70
   3  -1  -8  237.05   21.47
   3  -1  -8  249.85   22.71
  -3  -1   8  235.67   20.24
   3  -1  -8  247.34   20.15
  -3   1   8  250.74   24.56
   3   1  -8  220.01   22.48
   3   1  -8  241.26   20.14
   3   1  -8  206.44   21.48
   2  -1  -8  269.65   20.99
  -2  -1   8  239.63   22.32
   2  -1  -8  249.41   23.48
   2  -1  -8  273.26   23.57
   2  -1  -8  269.56   22.35
  -2  -1   8  225.67   20.89
   2   1  -8  222.93   22.25
   2   1  -8  224.51   23.39
   2   1  -8  237.92   20.86
  -1  -1   8    0.63    1.62
   1  -1  -8    2.16    1.46
   1  -1  -8    2.65    1.90
   1  -1  -8    0.73    1.61
  -1  -1   8    0.26    1.51
   1  -1  -8    1.29    1.27
   1   1  -8    3.24    1.69
   1   1  -8    2.34    1.37
   1   1  -8    2.09    1.84
   0  -1   8   34.16    4.31
   0  -1  -8   41.86    4.82
   0  -1  -8   31.87    4.04
   0  -1  -8   35.80    4.42
   0  -1   8   29.17    4.15
   0  -1  -8   39.26    4.79
   0   1  -8   34.88    4.27
   0   1  -8   30.10    4.64
   0   1  -8   34.37    4.68
  -1  -1  -8  164.88   15.63
   1  -1   8  169.72   15.04
  -1  -1  -8  153.13   13.83
   1  -1   8  146.16   13.80
  -1   1  -8  146.16   15.40
  -1   1  -8  170.83   15.47
  -2  -1  -8   68.03    7.16
   2  -1   8   62.62    6.27
  -2  -1  -8   61.91    6.99
  -2  -1  -8   51.33    6.56
  -2  -1  -8   62.59    6.30
  -2   1  -8   52.79    5.82
  -2   1  -8   74.36    7.09
  -2   1  -8   62.15    6.56
  -2   1  -8   69.11    6.97
  -3  -1  -8   21.19    3.02
  -3  -1  -8   25.29    3.51
  -3  -1  -8   16.78    3.53
  -3  -1  -8   19.55    3.65
   3  -1   8   12.68    2.75
  -3  -1  -8   22.19    3.72
   3   1   8   16.91    3.38
  -3   1  -8   19.91    3.33
  -3   1  -8   15.52    3.38
  -3   1  -8   18.71    3.38
  -4  -1  -8  153.30   13.55
   4  -1   8  132.36   12.55
  -4  -1  -8  138.31   12.56
  -4  -1  -8  158.66   14.27
  -4  -1  -8  123.17   13.68
   4   1   8  125.07   13.76
  -4   1  -8  157.97   13.61
  -4   1  -8  116.52   13.10
  -5  -1  -8   27.67    4.40
  -5  -1  -8   33.47    5.16
  -5  -1  -8   26.26    4.47
  -5  -1  -8   23.22    4.00
  -5   1  -8   23.65    4.63
  -5   1  -8   24.39    3.89
  -5   1  -8   27.16    5.15
  -6  -1  -8    2.15    1.62
   6  -1   8    0.95    2.37
  -6  -1  -8    1.69    1.90
  -6  -1  -8   -0.85    2.46
   6  -1   8    2.34    2.38
  -6  -1  -8   -0.92    2.16
   6   1   8    2.58    2.25
  -6   1  -8   -1.97    2.32
  -6   1  -8   -0.24    1.40
  -6   1  -8   -0.18    2.25
   6   1   8   -1.23    2.56
  -7  -1  -8   65.57    7.69
   7  -1   8   55.10    8.44
  -7  -1  -8   73.63    7.86
  -7  -1  -8   64.43    8.26
   7  -1   8   67.58    7.69
   7   1   8   78.25    7.64
  -7   1  -8   81.68    8.68
   7   1   8   56.78    8.51
  -7   1  -8   78.14    8.82
   8  -1   8   64.39    6.66
  -8  -1  -8   55.30    7.41
   8  -1   8   39.62    7.66
  -8  -1  -8   51.65    6.94
  -8  -1  -8   45.42    6.10
  -8   1  -8   51.70    7.62
   8   1   8   34.37    6.82
  -8   1  -8   57.22    6.97
  -9  -1  -8    4.46    2.97
   9  -1   8   -2.54    3.62
  -9   1  -8    8.25    2.72
  -9   1  -8    6.14    3.50
 -10   1  -8   11.27    5.07
  12  -2  -8   27.67    5.06
  12  -2  -8   27.39    4.87
 -12  -2   8   40.52    5.71
  12   2  -8   16.11    4.21
  11  -2  -8   19.07    4.05
 -11  -2   8   13.61    3.96
  11   2  -8   16.70    4.07
 -11   2   8   31.00    6.53
 -10  -2   8    7.63    2.92
 -10  -2   8    4.56    4.99
  10  -2  -8    4.57    2.71
  10  -2  -8    3.57    2.52
 -10   2   8   10.10    5.04
  10   2  -8    3.78    2.74
  -9  -2   8    9.45    2.59
   9  -2  -8    6.23    2.26
   9  -2  -8    2.71    2.29
   9  -2  -8    7.54    2.79
   9  -2  -8    1.19    2.52
  -9  -2   8    0.48    4.02
  -9   2   8    5.04    3.80
   9   2  -8    5.06    2.62
   8  -2  -8   78.52    8.79
   8  -2  -8   67.56    8.91
   8  -2  -8   81.48    8.74
  -8  -2   8   83.69    8.98
  -8  -2   8   80.56   11.06
   8  -2  -8   79.68    7.90
   8   2  -8   75.74    9.48
  -8   2   8   77.31   10.88
   8   2  -8   75.83    8.80
   7  -2  -8   55.91    7.34
   7  -2  -8   60.65    8.42
   7  -2  -8   72.89    6.97
  -7  -2   8   68.75    7.57
   7   2  -8   76.93    8.13
   7   2  -8   65.99    7.75
  -7   2   8   80.72   10.60
  -6  -2   8   21.90    3.83
   6  -2  -8   24.07    4.05
  -6  -2   8   26.64    5.55
   6  -2  -8   20.09    4.01
   6  -2  -8   22.34    3.42
  -6   2   8   32.00    5.71
   6   2  -8   23.25    4.17
   6   2  -8   20.37    4.03
   6   2  -8   18.74    3.26
  -5  -2   8   63.03    6.62
   5  -2  -8   74.00    7.57
   5  -2  -8   65.97    7.70
   5  -2  -8   68.90    6.54
  -5  -2   8   63.35    8.17
   5  -2  -8   55.80    7.03
  -5  -2   8   72.06    7.09
  -5   2   8   69.67    8.79
   5   2  -8   66.33    6.45
  -4  -2   8   59.78    7.62
   4  -2  -8   80.91    7.08
  -4  -2   8   60.36    7.30
   4  -2  -8   68.73    7.70
   4  -2  -8   80.14    8.66
   4  -2  -8   80.20    8.10
  -4  -2   8   81.69    7.27
  -4  -2   8   80.49    9.17
   4   2  -8   82.57    7.83
  -4   2   8   67.82    7.26
   4   2  -8   76.00    6.98
  -4   2   8   74.91    8.92
   3  -2  -8   19.28    3.98
   3  -2  -8   16.27    3.18
  -3  -2   8   19.05    3.13
   3  -2  -8   15.27    2.79
  -3  -2   8   16.41    2.89
  -3  -2   8   14.58    2.73
   3  -2  -8   19.98    3.11
   3   2  -8   20.36    3.04
  -3   2   8   23.16    4.13
  -3   2   8   14.01    2.49
   3   2  -8   18.97    3.74
   3   2  -8   17.73    2.58
  -2  -2   8   15.34    3.04
   2  -2  -8   11.23    2.30
  -2  -2   8   15.02    2.76
   2  -2  -8   17.14    2.86
   2  -2  -8   14.65    2.70
   2  -2  -8   10.93    2.82
   2   2  -8   14.29    2.30
   2   2  -8   17.41    2.83
  -2   2   8   14.53    3.08
   2   2  -8   18.33    2.89
   1  -2  -8   60.60    6.90
   1  -2  -8   65.95    8.11
  -1  -2   8   71.43    6.98
  -1  -2   8   85.60    7.55
   1  -2  -8   61.91    7.76
   1  -2  -8   80.03    7.51
   1   2  -8   67.88    6.56
  -1   2   8   81.63    8.81
   1   2  -8   82.12    7.88
   0  -2  -8   61.20    5.72
   0  -2   8   55.97    5.68
   0  -2  -8   55.14    5.79
   0  -2  -8   49.46    6.67
   0  -2   8   55.67    5.87
   0  -2  -8   62.26    6.62
   0   2  -8   49.59    6.30
   0   2  -8   64.13    6.03
   0   2  -8   54.43    5.32
  -1  -2  -8    0.99    1.44
  -1  -2  -8   -0.32    1.51
  -1  -2  -8    0.81    1.72
  -1  -2  -8    0.44    1.36
   1  -2   8    0.38    1.65
   1  -2   8    3.62    1.33
  -1  -2  -8    0.24    2.03
  -1   2  -8   -1.03    1.65
  -1   2  -8   -0.05    1.18
  -2  -2  -8   46.22    5.30
  -2  -2  -8   55.02    5.23
  -2  -2  -8   41.51    5.53
   2  -2   8   41.27    5.05
  -2  -2  -8   40.24    5.87
  -2  -2  -8   60.01    6.65
  -2   2  -8   46.99    5.63
  -2   2  -8   48.36    5.32
  -3  -2  -8   36.26    5.80
  -3  -2  -8   29.61    5.02
  -3  -2  -8   30.97    4.21
   3  -2   8   20.63    4.08
  -3  -2  -8   32.23    4.69
   3   2   8   26.77    5.20
  -3   2  -8   20.94    3.81
  -3   2  -8   31.72    4.60
  -4  -2  -8   -0.27    1.77
  -4  -2  -8    0.83    2.06
  -4  -2  -8   -0.69    1.99
  -4  -2  -8   -2.43    2.48
  -4   2  -8   -0.48    1.93
   4   2   8   -0.36    2.30
  -4   2  -8    0.48    1.40
  -5  -2  -8    1.22    1.87
  -5  -2  -8    2.99    2.24
  -5  -2  -8    0.90    2.45
  -5   2  -8    5.05    1.97
   5   2   8   -1.83    2.48
  -6  -2  -8   33.19    6.70
  -6  -2  -8   37.20    6.09
  -6  -2  -8   37.57    5.91
  -6  -2  -8   45.92    6.72
  -6   2  -8   48.85    6.06
  -7  -2  -8   13.38    4.52
  -7  -2  -8   13.57    3.80
  -7  -2  -8   15.93    3.82
  -7  -2  -8   12.64    3.26
   7   2   8    6.85    3.71
  -8  -2  -8    4.24    2.67
  -8  -2  -8    0.73    3.18
  -8  -2  -8    5.22    2.65
   8   2   8   -2.95    3.70
  -9  -2  -8   19.94    4.52
   9  -2   8   17.30    4.68
  -9  -2  -8   12.28    3.34
   9   2   8   13.23    5.40
  10  -3  -8   14.84    3.35
 -10  -3   8    6.14    3.45
  10   3  -8   10.45    3.01
  -9  -3   8   15.79    3.68
   9  -3  -8    7.85    2.91
  -9  -3   8    1.64    2.80
   9   3  -8    8.92    3.07
  -8  -3   8   10.35    2.62
   8  -3  -8    0.94    2.20
   8   3  -8   -0.82    2.31
  -7  -3   8    1.57    3.09
   7  -3  -8    0.87    1.86
   7  -3  -8   -0.04    2.03
   7  -3  -8   -5.20    3.20
   7   3  -8   -1.30    1.99
   6  -3  -8    9.54    3.87
  -6  -3   8    8.96    3.29
   6  -3  -8    8.98    2.41
   6  -3  -8   10.35    2.30
   6   3  -8    9.54    2.39
  -6   3   8   13.04    3.40
  -5  -3   8    0.31    2.62
   5  -3  -8    3.00    1.65
   5  -3  -8    0.63    1.72
  -5  -3   8    6.07    3.01
   5  -3  -8    2.92    3.02
  -5   3   8    1.05    2.76
   5   3  -8    0.38    1.68
   4  -3  -8    2.02    1.67
  -4  -3   8    0.14    2.21
  -4  -3   8    3.26    2.53
   4  -3  -8    3.14    1.67
   4  -3  -8    3.74    2.63
  -4   3   8    1.33    2.81
   4   3  -8   -0.22    1.85
  -3  -3   8   12.12    2.92
   3  -3  -8   12.07    2.18
   3  -3  -8   11.44    3.20
  -3  -3   8    4.21    3.33
   3  -3  -8    8.25    2.44
  -3   3   8   18.23    3.79
   2  -3  -8    9.73    3.50
   2  -3  -8    7.35    1.83
   2  -3  -8    7.54    2.04
  -2  -3   8    6.82    2.49
   2  -3  -8    6.82    1.93
  -2  -3   8    7.99    2.06
   1  -3  -8    0.67    2.98
  -1  -3   8   -0.09    1.78
   1  -3  -8    2.45    1.82
  -1  -3   8   -1.18    2.06
   1  -3  -8   -2.71    1.80
   1  -3  -8   -1.37    1.73
   0  -3  -8    9.85    3.63
   0  -3   8    7.43    2.10
   0  -3  -8    8.33    2.23
   0  -3  -8    9.48    2.32
   0  -3  -8    6.34    2.21
  -1  -3  -8    8.02    2.54
  -1  -3  -8    7.83    3.81
   1  -3   8    7.99    2.03
  -1  -3  -8    3.69    2.61
  -1  -3  -8    8.99    2.47
  -1   3  -8    7.48    1.80
  -2  -3  -8    4.06    2.23
  -2  -3  -8    3.01    2.10
  -2  -3  -8    2.95    2.10
  -2  -3  -8    1.98    2.84
  -3  -3  -8    9.84    2.58
  -3  -3  -8    6.68    2.58
  -3  -3  -8    7.26    2.29
  -3  -3  -8    5.26    3.25
  -4  -3  -8   15.01    3.52
  -4  -3  -8   31.76    6.34
  -4  -3  -8   25.92    5.01
  -4  -3  -8   20.21    3.70
  -5  -3  -8   13.12    3.75
  -5  -3  -8   19.23    4.40
   5   3   8   11.41    4.16
  -6  -3  -8   -2.39    2.73
  -6  -3  -8    2.01    2.82
  -6  -3  -8    0.46    2.88
  -6  -3  -8   -2.14    3.00
   6   3   8    1.44    3.06
  -7  -3  -8    2.21    2.65
  -7  -3  -8    8.59    3.19
  -7  -3  -8   -0.63    3.31
  -7  -3  -8   -1.51    3.80
   7   3   8    0.27    3.75
  -7  -4   8   11.38    3.21
   6  -4  -8   12.38    4.80
   6  -4  -8    8.15    2.47
  -5  -4   8    8.69    2.81
   5  -4  -8    7.10    3.85
  -4  -4   8   -0.54    3.11
   4  -4  -8    5.97    3.64
   4  -4  -8   -1.53    1.76
   3  -4  -8   -0.73    1.78
   3  -4  -8    6.93    3.14
  -3  -4   8    0.91    2.51
  -2  -4   8   -1.23    2.46
   2  -4  -8   -4.76    3.95
   2  -4  -8    3.84    1.82
   1  -4  -8   -0.52    2.07
   0  -4  -8   -2.03    1.80
   0  -4  -8    3.13    2.15
   0  -4   8   -0.40    2.19
  -1  -4  -8    0.67    2.41
  -1  -4  -8    4.13    3.90
  -1  -4  -8   -1.42    1.92
  -2  -4  -8    0.57    2.57
  -2  -4  -8    5.73    3.58
  -2  -4  -8   -0.31    2.12
  -3  -4  -8    5.54    2.32
  -3  -4  -8   12.04    4.11
  -3  -4  -8    9.00    2.96
 -14   0   9   11.56    5.94
 -13   0   9   -0.45    5.15
  13   0  -9   -0.50    2.54
  13   0  -9   -4.53    2.49
 -12   0   9    4.77    4.29
  12   0  -9    0.70    2.57
  11   0  -9   -3.88    2.56
  11   0  -9    0.18    2.15
 -11   0   9   -3.37    4.60
  11   0  -9   -2.24    2.19
  10   0  -9   -0.67    1.81
  10   0  -9   -0.85    2.11
 -10   0   9   -5.20    4.69
  10   0  -9   -0.78    2.28
  -9   0   9   -1.13    4.46
   9   0  -9   -1.16    2.13
  -9   0   9   -2.83    2.46
   9   0  -9   -0.31    1.65
   9   0  -9   -1.22    2.04
   9   0  -9   -0.18    1.93
   8   0  -9   -0.56    1.52
  -8   0   9    0.10    3.43
   8   0  -9    0.54    2.22
   8   0  -9    0.12    1.44
  -8   0   9    0.23    1.85
   7   0  -9   -0.52    1.53
   7   0  -9   -0.37    2.10
  -7   0   9    1.40    2.68
  -7   0   9   -1.91    1.96
   7   0  -9   -0.49    1.42
   6   0  -9    0.41    1.43
  -6   0   9   -2.92    1.81
   6   0  -9   -0.68    1.33
  -6   0   9   -1.16    2.44
   6   0  -9   -0.56    2.04
   6   0  -9   -0.09    1.27
  -5   0   9   -0.11    2.47
   5   0  -9    0.17    1.38
   5   0  -9   -0.46    1.40
   5   0  -9    0.81    1.32
   5   0  -9   -0.21    2.00
  -5   0   9   -0.83    1.86
  -4   0   9   -0.12    2.41
   4   0  -9   -1.54    1.27
   4   0  -9   -0.92    1.25
   4   0  -9    0.43    1.45
  -4   0   9   -0.75    1.80
   4   0  -9   -0.22    1.72
   3   0  -9   -0.28    1.16
  -3   0   9    0.17    1.51
   3   0  -9   -0.62    1.26
   3   0  -9   -1.06    1.08
   3   0  -9   -0.39    2.04
   2   0  -9   -0.59    1.88
  -2   0   9    0.15    1.54
   2   0  -9   -0.42    1.37
   2   0  -9   -1.11    1.18
   2   0  -9    0.75    1.63
  -1   0   9   -0.03    1.65
   1   0  -9   -0.22    1.42
   1   0  -9    0.65    1.23
   1   0  -9   -0.81    1.67
   1   0  -9    0.08    1.43
   0   0   9    2.07    1.79
   0   0  -9    0.58    1.46
   0   0  -9    0.55    1.44
   0   0  -9   -0.27    1.16
   0   0  -9    0.84    1.88
  -1   0  -9    0.34    1.37
  -1   0  -9    1.10    1.74
  -1   0  -9    0.19    1.32
  -1   0  -9   -0.14    1.28
   1   0   9    1.69    1.70
   2   0   9   -2.86    1.77
  -2   0  -9    0.07    1.51
  -2   0  -9   -0.52    1.16
  -2   0  -9    0.42    1.63
  -2   0  -9    0.30    1.37
  -3   0  -9    0.75    1.54
  -3   0  -9    0.93    1.47
  -3   0  -9   -1.04    1.60
  -3   0  -9   -0.04    1.38
  -4   0  -9    0.25    1.78
  -4   0  -9   -0.56    1.78
   4   0   9    0.09    2.32
  -4   0  -9    1.07    1.84
  -4   0  -9    1.52    1.57
  -5   0  -9   -1.59    1.77
  -5   0  -9    3.01    1.67
   5   0   9    0.38    2.35
  -5   0  -9    0.56    2.02
  -5   0  -9   -0.66    2.22
  -6   0  -9    1.70    2.43
   6   0   9   -0.36    2.75
  -6   0  -9    1.17    2.34
  -6   0  -9    2.15    1.76
  -7   0  -9    2.08    2.63
   7   0   9   -0.74    3.25
   7   0   9    3.61    2.75
  -7   0  -9    3.86    2.32
  -8   0  -9    1.82    3.14
  -8   0  -9    2.28    2.16
   8   0   9    3.40    2.54
   8   0   9   -4.73    2.85
  -9   0  -9   -3.55    3.81
   9   0   9   -4.61    3.72
  -9   0  -9    4.02    2.51
  10   0   9   -4.39    4.19
 -10   0  -9    5.73    3.01
  13  -1  -9   -0.36    3.14
  13  -1  -9    0.41    2.58
  13   1  -9   -0.36    2.67
  12  -1  -9    4.05    2.42
  12  -1  -9   -1.66    2.73
 -12  -1   9    5.42    4.08
  12   1  -9   -0.31    2.61
  11  -1  -9   18.75    3.67
  11  -1  -9   22.41    4.96
  11  -1  -9   13.79    3.60
 -11  -1   9   19.09    6.15
  11  -1  -9   11.76    3.25
  11   1  -9   21.79    5.05
  11   1  -9   18.76    4.12
 -11   1   9   20.74    6.42
  10  -1  -9    4.94    2.47
 -10  -1   9    2.13    5.12
  10  -1  -9    6.99    2.99
  10  -1  -9    4.74    2.87
  10  -1  -9    4.15    2.37
  10   1  -9    2.48    2.88
 -10   1   9    9.82    4.90
  10   1  -9    7.43    2.50
  10   1  -9    6.18    2.56
   9  -1  -9    1.61    2.37
  -9  -1   9    2.71    4.93
   9  -1  -9    4.86    2.58
   9  -1  -9    3.07    2.06
  -9  -1   9    0.73    2.93
   9  -1  -9    0.27    2.86
  -9   1   9    0.27    4.72
   9   1  -9    2.32    1.98
   9   1  -9    2.80    2.29
   9   1  -9    2.65    2.47
  -8  -1   9   14.00    4.30
   8  -1  -9    8.78    2.31
  -8  -1   9    7.87    2.76
   8  -1  -9   15.37    2.89
   8  -1  -9   15.10    3.42
  -8   1   9   16.61    5.27
  -8   1   9    7.54    2.30
   8   1  -9   13.72    2.99
   8   1  -9   10.97    2.44
   8   1  -9    9.81    2.79
  -7  -1   9   29.25    5.00
   7  -1  -9   29.59    4.06
  -7  -1   9   27.58    6.41
   7  -1  -9   28.99    4.08
   7  -1  -9   29.83    4.64
   7  -1  -9   32.55    5.22
  -7  -1   9   26.81    4.30
   7   1  -9   32.33    4.58
   7   1  -9   31.92    4.10
  -7   1   9   33.22    6.79
  -6  -1   9    7.57    2.13
   6  -1  -9   10.55    2.76
   6  -1  -9   11.84    2.49
   6  -1  -9   11.63    2.40
  -6  -1   9   11.30    2.99
   6  -1  -9   11.82    2.17
  -6  -1   9    8.71    3.12
  -6   1   9   12.82    3.59
   6   1  -9   12.08    2.39
   6   1  -9   10.78    2.09
  -5  -1   9    7.57    2.03
  -5  -1   9   11.84    3.38
  -5  -1   9    8.08    2.35
   5  -1  -9   10.77    2.80
   5  -1  -9    8.53    2.09
   5  -1  -9   11.62    2.13
   5  -1  -9   12.92    2.58
   5   1  -9    8.37    2.12
  -5   1   9   14.77    2.05
   5   1  -9   13.53    2.53
  -5   1   9   13.01    3.26
   5   1  -9   10.88    2.50
   5   1  -9   13.83    2.26
  -4  -1   9    0.56    1.97
  -4  -1   9   -0.48    1.52
   4  -1  -9    1.06    1.43
  -4  -1   9    0.38    2.54
   4  -1  -9    0.56    1.41
   4  -1  -9    0.92    2.01
   4  -1  -9    1.09    1.42
   4   1  -9    1.33    1.12
   4   1  -9    0.67    1.43
  -4   1   9   -0.08    2.41
   4   1  -9   -0.02    1.72
  -4   1   9   -1.96    1.28
   4   1  -9    0.24    1.55
  -3  -1   9    2.50    1.33
   3  -1  -9    0.03    1.20
   3  -1  -9    1.09    2.13
   3  -1  -9    0.03    1.28
   3  -1  -9   -0.36    1.29
   3   1  -9   -0.04    1.60
   3   1  -9   -0.45    1.69
   3   1  -9   -0.14    1.16
   3   1  -9    0.53    1.43
  -3   1   9    0.09    2.33
   2  -1  -9    0.51    1.49
   2  -1  -9    1.84    1.91
  -2  -1   9   -0.49    1.47
   2  -1  -9   -0.52    1.50
   2  -1  -9   -0.33    1.16
   2   1  -9    0.24    1.21
   2   1  -9    0.01    1.21
   2   1  -9   -0.75    1.81
   2   1  -9    0.09    1.24
   1  -1  -9   21.57    4.05
   1  -1  -9   20.61    3.25
  -1  -1   9   17.52    3.12
   1  -1  -9   15.07    3.16
   1  -1  -9   17.48    3.13
   1   1  -9   23.92    3.98
   1   1  -9   16.34    3.08
   1   1  -9   19.71    2.71
   1   1  -9   13.15    2.85
   0  -1   9    6.83    2.04
   0  -1  -9    9.11    2.04
   0  -1  -9    7.66    2.18
   0  -1  -9    7.53    2.11
   0  -1  -9    9.98    2.03
   0   1  -9   11.54    1.85
   0   1  -9    7.03    1.79
   0   1  -9    7.03    2.13
   0   1  -9    7.96    2.13
  -1  -1  -9   20.57    2.70
  -1  -1  -9   15.52    3.39
  -1  -1  -9   18.80    3.33
  -1  -1  -9   16.93    3.21
   1  -1   9   18.37    3.07
  -1  -1  -9   14.26    2.68
  -1   1  -9   21.23    3.35
  -1   1  -9   17.35    3.40
  -1   1  -9   12.14    2.83
  -2  -1  -9   19.75    3.35
   2  -1   9   18.85    3.54
  -2  -1  -9   18.66    4.02
  -2  -1  -9   21.25    3.06
  -2  -1  -9   17.47    3.51
  -2  -1  -9   21.56    3.66
  -2   1  -9   19.00    3.99
  -2   1  -9   22.46    4.01
  -2   1  -9   21.50    3.66
  -3  -1  -9    5.38    2.04
   3  -1   9    1.37    2.24
  -3  -1  -9    6.89    1.63
  -3  -1  -9    4.01    1.66
  -3  -1  -9    8.37    2.20
  -3  -1  -9    4.42    1.93
  -3   1  -9    3.45    2.08
  -3   1  -9    3.79    1.84
  -3   1  -9    6.29    1.90
  -3   1  -9    4.96    1.20
  -4  -1  -9   10.22    2.77
  -4  -1  -9    9.45    2.44
  -4  -1  -9   15.16    2.91
  -4  -1  -9    9.74    2.59
  -4   1  -9    9.32    2.07
  -4   1  -9    7.17    2.40
   4   1   9    8.62    3.04
  -4   1  -9    8.95    2.56
  -4   1  -9   10.30    2.32
  -5  -1  -9    9.34    2.55
  -5  -1  -9    8.18    2.86
  -5  -1  -9   11.10    3.05
  -5  -1  -9    6.85    2.37
   5   1   9    3.81    2.86
  -5   1  -9    8.27    2.52
  -5   1  -9    7.64    2.11
  -5   1  -9    4.66    2.14
  -6  -1  -9   11.32    3.10
   6  -1   9    7.83    3.30
  -6  -1  -9   10.81    3.20
  -6  -1  -9    8.54    2.64
  -6  -1  -9   18.38    3.36
  -6   1  -9   11.39    3.14
   6   1   9    7.52    3.67
  -6   1  -9   14.33    3.30
  -7  -1  -9   18.48    4.13
   7  -1   9    9.43    3.53
  -7  -1  -9   14.80    3.17
  -7  -1  -9   10.31    2.79
  -7  -1  -9   16.67    3.53
  -7   1  -9   16.30    3.68
   7   1   9    5.47    3.53
  -7   1  -9   14.09    3.92
  -8  -1  -9   -4.04    3.50
   8  -1   9    2.45    3.04
  -8  -1  -9    2.47    2.49
  -8  -1  -9   -1.56    1.92
   8  -1   9    0.57    2.95
  -8   1  -9    3.23    3.18
   8   1   9   -4.36    3.61
  -9  -1  -9   -0.63    4.30
  -9  -1  -9    2.82    2.29
   9  -1   9    6.76    3.54
   9  -1   9    2.83    3.20
   9   1   9   -0.14    3.79
  10  -1   9   16.44    4.57
 -10  -1  -9    3.77    5.14
  12  -2  -9   30.92    4.75
  12  -2  -9   23.27    4.73
  12   2  -9   19.61    4.57
  11  -2  -9    1.35    2.81
  11  -2  -9    0.95    2.81
  11   2  -9    0.98    2.74
  10  -2  -9    4.13    2.72
  10  -2  -9    0.28    3.24
  10  -2  -9    5.96    2.35
 -10  -2   9    7.81    4.79
  10   2  -9    3.16    2.46
  -9  -2   9   31.39    7.21
   9  -2  -9   26.30    4.66
   9  -2  -9   23.58    4.35
  -9  -2   9   26.13    4.91
   9  -2  -9   23.90    4.34
   9   2  -9   19.22    4.46
  -9   2   9   33.59    7.05
   9   2  -9   27.95    5.07
   8  -2  -9    0.78    1.94
  -8  -2   9   -2.10    2.72
   8  -2  -9   -0.79    2.00
   8  -2  -9    2.95    2.84
   8  -2  -9    0.87    2.08
   8   2  -9   -0.33    2.03
   8   2  -9    0.80    2.33
  -8   2   9   -0.81    4.18
  -7  -2   9    5.15    3.02
   7  -2  -9    5.29    2.18
   7  -2  -9    1.89    3.01
   7  -2  -9    5.07    2.10
   7   2  -9    5.16    2.52
   7   2  -9    2.41    2.02
  -7   2   9    4.26    5.02
  -6  -2   9   44.93    6.18
   6  -2  -9   49.02    6.16
  -6  -2   9   57.51    7.83
   6  -2  -9   51.64    5.70
   6  -2  -9   50.80    7.22
  -6   2   9   60.01    8.68
   6   2  -9   56.75    6.30
   5  -2  -9   48.15    6.72
  -5  -2   9   41.84    5.17
   5  -2  -9   45.50    5.06
   5  -2  -9   49.60    5.67
   5  -2  -9   43.74    6.11
  -5  -2   9   48.34    5.94
  -5  -2   9   40.04    7.08
  -5   2   9   40.08    4.80
  -5   2   9   56.49    7.22
   5   2  -9   43.40    4.83
   5   2  -9   49.87    5.73
   4  -2  -9   -0.15    1.74
   4  -2  -9    0.13    1.47
   4  -2  -9    1.82    1.69
  -4  -2   9   -0.42    2.00
  -4  -2   9   -1.10    1.67
   4  -2  -9    0.37    2.38
  -4  -2   9   -3.15    2.67
   4   2  -9   -0.38    1.17
  -4   2   9    1.62    2.52
   4   2  -9    2.12    1.36
  -4   2   9    3.71    1.35
  -3  -2   9   52.81    6.64
   3  -2  -9   54.47    6.48
   3  -2  -9   60.94    7.45
   3  -2  -9   62.14    6.34
   3  -2  -9   51.84    5.75
  -3  -2   9   62.47    6.30
  -3  -2   9   53.22    5.86
   3   2  -9   53.62    5.54
  -3   2   9   50.02    5.76
  -3   2   9   55.91    7.28
   3   2  -9   64.76    6.58
   3   2  -9   61.84    6.87
   2  -2  -9   37.78    5.92
   2  -2  -9   39.61    4.58
  -2  -2   9   35.85    4.63
   2  -2  -9   41.32    5.19
  -2  -2   9   42.28    5.03
   2  -2  -9   39.97    4.98
   2   2  -9   39.85    4.91
  -2   2   9   34.95    6.08
   2   2  -9   38.19    5.18
   2   2  -9   38.52    4.08
   1  -2  -9   35.49    4.37
   1  -2  -9   35.87    4.12
   1  -2  -9   27.08    4.54
  -1  -2   9   27.38    4.11
  -1  -2   9   34.03    4.08
   1  -2  -9   29.67    4.88
   1   2  -9   26.64    3.44
   1   2  -9   30.73    4.39
   1   2  -9   32.58    4.24
   0  -2   9    8.06    2.15
   0  -2  -9   12.35    2.39
   0  -2  -9   11.12    2.43
   0  -2  -9   17.23    2.69
   0  -2  -9   14.58    2.66
   0  -2  -9   10.61    2.81
   0   2  -9    9.50    1.99
   0   2  -9    6.93    1.68
   0   2  -9   11.01    2.35
  -1  -2  -9  135.87   12.08
  -1  -2  -9  142.84   12.14
   1  -2   9  114.57   11.84
  -1  -2  -9  121.11   12.78
  -1  -2  -9  134.29   13.60
  -1   2  -9  150.35   13.54
  -1   2  -9  118.49   11.60
  -1   2  -9  147.84   12.72
  -2  -2  -9   32.62    4.77
  -2  -2  -9   35.86    5.29
  -2  -2  -9   33.48    4.54
   2  -2   9   31.26    4.31
  -2  -2  -9   33.17    5.25
  -2   2  -9   32.68    4.44
  -2   2  -9   32.00    4.65
  -3  -2  -9    3.80    2.06
  -3  -2  -9    3.41    2.06
  -3  -2  -9    2.35    2.21
  -3  -2  -9    3.81    1.77
  -3   2  -9    1.82    1.99
  -3   2  -9    2.42    1.71
  -4  -2  -9   34.22    5.83
  -4  -2  -9   32.33    5.45
  -4  -2  -9   35.21    5.37
  -4  -2  -9   38.46    5.05
   4   2   9   28.06    5.88
  -4   2  -9   25.68    4.60
  -4   2  -9   28.20    4.75
  -5  -2  -9   18.13    3.99
  -5  -2  -9   21.43    3.79
  -5  -2  -9   22.33    4.15
  -5  -2  -9   16.22    3.77
   5   2   9   10.98    3.74
  -5   2  -9   24.13    4.71
  -6  -2  -9    1.48    2.50
  -6  -2  -9    1.74    2.76
  -6  -2  -9    4.57    2.84
  -6  -2  -9    5.60    2.48
   6   2   9    2.51    3.36
  -7  -2  -9    9.22    3.74
  -7  -2  -9    5.18    3.18
  -7  -2  -9    9.23    3.12
  -7  -2  -9    9.71    2.98
   7   2   9   -0.38    3.80
  -8  -2  -9   11.62    3.92
  -8  -2  -9    7.56    2.90
  -8  -2  -9   23.84    4.68
  -8  -2  -9   15.69    4.34
   8   2   9    2.23    4.69
  10  -3  -9   33.63    6.12
  10   3  -9   47.16    6.90
   9  -3  -9   -0.22    2.43
   9   3  -9   -2.66    2.42
   8  -3  -9   57.94    6.62
   8  -3  -9   57.01    7.09
   8   3  -9   51.27    7.38
   7  -3  -9    3.84    2.35
  -7  -3   9    6.28    3.90
   7  -3  -9    1.34    3.96
   7  -3  -9    5.74    2.41
   7   3  -9    8.28    2.32
   6  -3  -9    4.28    1.79
   6  -3  -9    1.81    3.43
   6  -3  -9    2.97    1.93
  -6  -3   9    2.85    2.87
  -6   3   9    4.10    3.29
   6   3  -9    1.02    1.94
   5  -3  -9   38.13    4.54
  -5  -3   9   34.21    5.57
   5  -3  -9   27.18    4.33
   5  -3  -9   32.85    6.72
  -5   3   9   37.91    6.37
   5   3  -9   25.68    5.09
   4  -3  -9   66.00    6.62
   4  -3  -9   62.30    8.05
   4  -3  -9   68.95    8.88
  -4  -3   9   69.08    7.59
   4  -3  -9   59.04    6.96
  -4  -3   9   59.52    8.67
  -4   3   9   77.96    9.49
   4   3  -9   60.35    7.11
   3  -3  -9   16.84    4.16
  -3  -3   9   11.03    3.98
   3  -3  -9   21.04    3.26
   3  -3  -9   14.97    2.97
  -3  -3   9   15.08    3.06
   2  -3  -9    2.36    2.77
   2  -3  -9    1.04    1.84
   2  -3  -9    2.26    1.69
   2  -3  -9    1.34    1.60
  -2  -3   9   -3.21    2.31
   1  -3  -9   82.90    8.24
   1  -3  -9   71.12    8.36
   1  -3  -9   72.25    9.11
   1  -3  -9   77.40    7.58
   1   3  -9   70.24    8.11
   0  -3  -9   65.14    7.36
   0  -3  -9   71.30    8.78
   0  -3  -9   69.70    6.92
   0  -3  -9   57.46    7.13
   0   3  -9   56.48    7.33
  -1  -3  -9   -1.38    2.16
  -1  -3  -9    3.76    2.15
  -1  -3  -9    0.85    2.20
  -1  -3  -9   -1.83    3.21
  -2  -3  -9   17.16    3.26
  -2  -3  -9   14.22    3.50
  -2  -3  -9   12.75    2.85
  -2  -3  -9   13.40    4.43
  -3  -3  -9   18.04    3.44
  -3  -3  -9   15.83    3.26
  -3  -3  -9   18.31    5.34
  -4  -3  -9   98.48   11.25
  -4  -3  -9  108.92   13.54
  -4  -3  -9  111.53   10.74
  -4  -3  -9  110.24   11.86
  -5  -3  -9    3.20    2.54
  -5  -3  -9    3.52    2.61
  -5  -3  -9    6.64    2.46
  -6  -3  -9   42.63    6.55
  -6  -3  -9   49.93    6.93
  -6  -3  -9   36.67    7.50
  -6  -3  -9   40.02    6.74
   6  -4  -9   13.97    5.51
  -6  -4   9   11.30    3.24
   6  -4  -9   14.48    2.94
  -5  -4   9   29.43    5.11
   5  -4  -9   29.44    6.28
   5  -4  -9   22.16    4.02
  -4  -4   9    0.37    2.76
   4  -4  -9   -1.92    1.87
   4  -4  -9    4.94    3.79
  -3  -4   9   31.08    5.64
   3  -4  -9   27.72    4.46
   3  -4  -9   47.22    7.64
   2  -4  -9   50.68    7.25
   2  -4  -9   42.94    5.03
  -2  -4   9   31.11    5.01
   1  -4  -9    6.82    4.20
  -1  -4   9    7.03    3.00
   1  -4  -9    9.28    2.20
   1  -4  -9   11.65    2.83
   0  -4  -9    4.49    2.56
   0  -4   9   -4.20    2.67
   0  -4  -9   -0.74    2.19
   0  -4  -9   -3.62    4.64
  -1  -4  -9   40.49    5.57
  -1  -4  -9   39.07    5.58
   1  -4   9   30.27    4.69
  -1  -4  -9   38.23    8.02
  -2  -4  -9    2.06    5.61
  -2  -4  -9   14.10    3.29
  -2  -4  -9    9.14    2.88
 -14   0  10   72.86   13.79
  14   0 -10   53.77    9.18
  13   0 -10   50.96    6.38
  13   0 -10   49.07    8.31
 -13   0  10   67.43   11.33
  12   0 -10    3.37    2.58
  12   0 -10    1.73    2.41
  12   0 -10   -4.83    3.24
 -12   0  10   -6.24    5.81
  11   0 -10   87.96   11.19
  11   0 -10  108.22   11.62
  11   0 -10   95.57   10.04
 -11   0  10  109.16   14.48
  10   0 -10  138.59   13.87
  10   0 -10  148.97   15.44
  10   0 -10  160.22   15.34
 -10   0  10  159.56   18.95
   9   0 -10   14.34    3.19
   9   0 -10   19.40    3.27
  -9   0  10   22.31    4.98
  -9   0  10   13.80    3.28
   9   0 -10   16.51    3.50
   9   0 -10   16.72    3.42
   8   0 -10  137.00   12.14
  -8   0  10  138.35   12.55
   8   0 -10  142.01   13.74
   8   0 -10  109.74   12.96
  -8   0  10  134.51   15.48
   7   0 -10  196.91   21.49
   7   0 -10  258.21   20.26
  -7   0  10  239.16   24.94
   7   0 -10  233.55   22.59
   6   0 -10   59.50    5.99
   6   0 -10   63.83    6.90
   6   0 -10   48.36    6.48
  -6   0  10   49.25    7.80
  -6   0  10   63.75    6.29
   6   0 -10   62.96    7.41
   5   0 -10   -0.48    1.20
  -5   0  10    0.54    2.70
  -5   0  10   -1.93    2.10
   5   0 -10    0.57    1.45
   5   0 -10    0.61    1.61
   5   0 -10   -0.55    1.88
   4   0 -10   62.33    6.19
  -4   0  10   49.72    5.80
   4   0 -10   42.30    6.22
   4   0 -10   51.66    6.13
  -4   0  10   51.81    7.34
   4   0 -10   54.60    5.50
   3   0 -10  221.77   24.25
   3   0 -10  259.40   21.74
   3   0 -10  281.79   23.32
   2   0 -10    0.59    2.09
   2   0 -10   -0.01    1.20
   2   0 -10    0.88    1.30
   2   0 -10    0.10    1.33
   1   0 -10  132.36   13.18
   1   0 -10  129.64   12.54
   0   0 -10  247.36   23.92
   0   0 -10  249.93   21.38
  -1   0 -10   37.55    5.35
  -1   0 -10   46.07    5.39
  -1   0 -10   35.24    4.66
  -1   0 -10   49.27    5.58
  -2   0 -10   11.31    2.29
  -2   0 -10    5.94    2.41
  -2   0 -10   12.44    2.56
  -2   0 -10    8.23    2.27
  -3   0 -10  153.25   17.11
  -3   0 -10  204.00   17.21
  -3   0 -10  160.67   16.40
  -4   0 -10   49.89    7.15
  -4   0 -10   58.42    7.01
  -4   0 -10   68.65    7.15
  -5   0 -10    3.50    2.51
  -5   0 -10    0.02    2.08
  -5   0 -10    1.75    1.84
  -5   0 -10    2.65    2.32
   5   0  10    1.39    2.89
  -6   0 -10  108.07   11.19
  -6   0 -10  113.01   12.09
   6   0  10   97.44   11.71
  -7   0 -10  133.66   13.90
  -7   0 -10  122.73   14.31
  -8   0 -10    8.59    3.67
  -8   0 -10    1.48    3.02
   8   0  10    3.26    3.44
  -9   0 -10   39.44    7.79
   9   0  10   25.27    5.97
 -13  -1  10   58.27    9.86
  13  -1 -10   49.25    5.81
  13  -1 -10   39.82    7.38
  13   1 -10   35.60    6.74
 -13   1  10   55.71   12.07
  12  -1 -10   74.66    8.97
  12  -1 -10   53.45   10.79
 -12  -1  10   78.53   13.53
  12  -1 -10   58.34    7.86
 -12   1  10   71.62   12.09
  12   1 -10   60.10    8.78
  11  -1 -10   29.96    5.92
  11  -1 -10   28.53    5.62
  11  -1 -10   25.35    4.41
 -11  -1  10   30.26    7.55
  11  -1 -10   32.98    5.66
  11   1 -10   25.88    5.45
  11   1 -10   28.76    5.20
 -11   1  10   29.06    7.55
  10  -1 -10   22.17    4.25
  10  -1 -10   11.47    3.38
 -10  -1  10   12.89    3.57
  10  -1 -10   15.40    3.39
  10  -1 -10   15.05    3.95
 -10  -1  10   20.64    7.23
  10   1 -10   18.41    4.10
  10   1 -10   18.51    3.88
  10   1 -10   17.67    3.60
 -10   1  10   19.20    7.14
   9  -1 -10   42.65    6.03
  -9  -1  10   50.46    8.34
   9  -1 -10   39.02    6.03
  -9  -1  10   34.25    6.13
   9  -1 -10   41.86    5.40
   9  -1 -10   37.16    6.93
   9   1 -10   41.25    5.25
   9   1 -10   50.91    6.72
   9   1 -10   41.34    6.24
  -9   1  10   53.76    8.73
   8  -1 -10  154.85   16.33
  -8  -1  10  188.32   15.65
  -8  -1  10  155.20   18.87
   8  -1 -10  187.59   15.26
  -8   1  10  154.56   19.16
  -8   1  10  158.01   15.27
   8   1 -10  182.66   15.27
   7  -1 -10    0.48    1.44
  -7  -1  10    1.11    2.21
  -7  -1  10   -0.05    3.34
   7  -1 -10   -0.74    2.55
   7  -1 -10   -0.01    1.56
  -7   1  10    0.37    1.80
   7   1 -10   -0.67    1.78
   7   1 -10   -1.18    1.55
  -7   1  10    4.13    3.04
   6  -1 -10  100.32    9.00
  -6  -1  10  104.46    9.53
  -6  -1  10   93.14   11.56
   6  -1 -10   97.26    9.83
   6  -1 -10   96.11   10.15
  -6  -1  10   87.58    9.01
   6   1 -10   93.28    8.93
   6   1 -10   87.18    9.76
  -6   1  10   87.73    9.13
  -6   1  10  103.44   11.74
   5  -1 -10  169.23   17.12
  -5  -1  10  158.37   15.22
   5  -1 -10  187.12   15.31
  -5  -1  10  182.87   18.85
   5  -1 -10  147.36   16.26
   5  -1 -10  180.78   17.37
  -5  -1  10  185.38   15.58
  -5   1  10  159.91   18.71
   5   1 -10  147.17   16.38
   5   1 -10  175.91   17.14
   5   1 -10  192.07   15.33
   5   1 -10  188.66   17.21
  -5   1  10  182.35   15.37
   4  -1 -10    8.92    2.24
   4  -1 -10    9.73    2.19
  -4  -1  10   10.71    2.72
  -4  -1  10   12.91    3.69
   4  -1 -10    9.03    2.67
   4  -1 -10   17.08    2.59
  -4  -1  10   11.64    2.25
   4   1 -10   12.98    2.56
   4   1 -10   15.64    2.73
  -4   1  10    8.79    2.38
   4   1 -10   14.48    2.63
  -4   1  10   12.35    3.43
   4   1 -10   12.52    2.79
   3  -1 -10   26.35    4.18
   3  -1 -10   26.94    4.05
  -3  -1  10   27.93    3.96
   3  -1 -10   32.39    5.18
   3  -1 -10   30.64    3.81
   3   1 -10   20.16    4.09
   3   1 -10   36.48    4.70
  -3   1  10   32.15    6.00
   3   1 -10   30.83    3.69
   3   1 -10   30.90    4.88
   2  -1 -10  221.41   18.22
   2  -1 -10  207.74   20.48
   2  -1 -10  215.98   20.37
   2  -1 -10  232.68   19.47
  -2  -1  10  176.29   18.04
   2   1 -10  207.94   18.09
   2   1 -10  187.50   20.33
   2   1 -10  229.56   19.46
   1  -1 -10   91.67    7.92
   1  -1 -10   98.18    9.03
  -1  -1  10   69.14    7.64
   1  -1 -10   79.95    8.28
   1  -1 -10   66.85    8.54
   1   1 -10   66.92    8.15
   1   1 -10   91.58    7.70
   1   1 -10   89.40    8.92
   0  -1 -10   65.23    7.04
   0  -1 -10   63.27    6.46
   0  -1  10   44.32    5.79
   0  -1 -10   44.67    5.83
   0  -1 -10   58.44    6.66
   0   1 -10   59.76    6.62
   0   1 -10   51.13    6.84
   0   1 -10   67.01    6.45
   0   1 -10   55.66    5.58
  -1  -1 -10   90.39   10.11
  -1  -1 -10  109.87   10.83
  -1  -1 -10   97.80    9.36
  -1   1 -10  101.49   10.79
  -1   1 -10   99.29   10.12
  -1   1 -10  112.27    9.38
  -2  -1 -10  194.17   17.61
  -2  -1 -10  224.16   18.98
  -2  -1 -10  183.05   17.54
   2  -1  10  191.34   17.56
  -2  -1 -10  211.19   19.69
  -2   1 -10  191.45   19.57
  -2   1 -10  209.80   17.46
  -3  -1 -10    1.57    1.87
  -3  -1 -10    1.62    1.85
  -3  -1 -10    0.34    1.71
  -3  -1 -10    1.12    1.69
  -3   1 -10   -0.49    2.15
  -3   1 -10    1.43    1.92
  -3   1 -10    3.11    1.62
  -3   1 -10    1.25    1.49
  -4  -1 -10   34.04    5.38
  -4  -1 -10   40.38    4.97
  -4  -1 -10   38.00    5.47
  -4  -1 -10   36.17    5.47
   4   1  10   26.66    5.41
  -4   1 -10   28.13    5.20
  -4   1 -10   34.82    5.24
  -4   1 -10   39.05    5.16
  -5  -1 -10  101.19   11.23
  -5  -1 -10   98.19   10.71
  -5  -1 -10   96.47    9.79
  -5   1 -10  111.54   10.56
  -5   1 -10   95.19   11.10
   5   1  10   86.06   11.04
  -5   1 -10  107.08   10.60
  -6  -1 -10   24.17    4.88
  -6  -1 -10   21.57    4.72
  -6  -1 -10   29.13    4.92
  -6  -1 -10   36.43    5.14
  -6   1 -10   37.73    6.16
   6   1  10   18.59    4.74
  -6   1 -10   31.62    4.92
  -7  -1 -10    2.45    2.94
  -7  -1 -10    6.65    2.74
  -7  -1 -10   -1.18    2.06
  -7  -1 -10    1.02    3.04
   7  -1  10   -0.23    3.06
  -7   1 -10    8.08    3.32
  -7   1 -10    3.16    2.22
   7   1  10    0.63    3.34
   8  -1  10   38.67    8.27
  -8  -1 -10   50.05    7.29
   8   1  10   52.71    8.07
   9  -1  10   24.07    5.69
  -9  -1 -10   32.92    6.11
  -9  -1 -10   23.38    5.41
  12  -2 -10   -2.29    3.01
 -12  -2  10   10.06    4.34
 -12   2  10    5.41    5.78
  11  -2 -10   60.35    7.96
  11  -2 -10   61.86    8.79
 -11  -2  10   58.11   11.56
  11  -2 -10   51.93    7.22
 -11   2  10   72.80   10.87
  11   2 -10   49.22    8.17
  10  -2 -10   36.54    6.35
  10  -2 -10   30.56    5.54
  10  -2 -10   48.73    6.48
 -10  -2  10   34.83    8.95
  10  -2 -10   36.81    6.68
  10   2 -10   37.30    6.53
  10   2 -10   30.46    6.03
 -10   2  10   51.44    9.24
   9  -2 -10   -2.14    2.40
   9  -2 -10    4.65    3.02
  -9  -2  10   -5.15    3.38
  -9  -2  10    9.24    4.98
   9  -2 -10   -0.69    2.23
   9  -2 -10   -2.61    2.40
  -9   2  10    1.06    5.28
   9   2 -10   -0.92    2.06
   9   2 -10   -2.90    2.33
  -8  -2  10    3.03    2.80
   8  -2 -10    3.07    2.23
   8  -2 -10    4.78    2.26
   8  -2 -10    6.52    2.97
   8   2 -10    2.40    2.25
   8   2 -10    2.58    2.71
  -8   2  10   -0.39    5.50
  -7  -2  10   50.16    7.59
   7  -2 -10   29.24    6.39
  -7  -2  10   32.11    6.00
   7  -2 -10   34.53    4.69
   7  -2 -10   42.99    5.74
  -7   2  10   52.70    8.20
   7   2 -10   40.16    5.59
   7   2 -10   34.75    5.57
   6  -2 -10    9.94    2.38
   6  -2 -10   10.49    2.51
  -6  -2  10   16.76    3.68
  -6  -2  10   12.09    3.34
   6  -2 -10   10.29    2.96
   6  -2 -10    8.75    3.37
   6   2 -10   10.58    2.36
  -6   2  10   20.29    4.61
   5  -2 -10   18.73    3.74
  -5  -2  10   19.60    4.51
   5  -2 -10   17.33    4.22
   5  -2 -10   21.16    3.59
   5  -2 -10   18.92    3.79
  -5  -2  10   16.14    3.36
  -5   2  10   27.90    5.91
   5   2 -10   23.21    3.95
  -4  -2  10   51.96    6.09
   4  -2 -10   60.14    7.44
   4  -2 -10   64.87    6.15
  -4  -2  10   53.13    8.69
   4  -2 -10   61.89    6.80
   4  -2 -10   54.53    6.74
  -4  -2  10   62.52    6.71
  -4   2  10   49.68    6.00
  -4   2  10   59.70    7.70
   4   2 -10   58.53    7.23
   4   2 -10   58.28    6.53
   4   2 -10   55.58    5.80
  -3  -2  10   48.44    5.35
   3  -2 -10   39.07    5.71
  -3  -2  10   51.99    5.99
   3  -2 -10   56.38    6.80
   3  -2 -10   48.26    6.14
   3  -2 -10   52.79    5.42
  -3   2  10   50.49    7.16
   3   2 -10   48.31    5.11
   3   2 -10   60.73    6.27
  -3   2  10   38.94    5.19
   3   2 -10   53.57    6.63
   2  -2 -10   -2.30    1.98
   2  -2 -10    0.28    1.66
   2  -2 -10   -0.46    2.32
   2  -2 -10   -0.32    1.63
  -2  -2  10   -0.90    1.67
  -2  -2  10   -0.27    1.62
   2   2 -10   -2.63    1.86
  -2   2  10   -3.83    2.70
   2   2 -10    3.02    1.51
   2   2 -10    2.62    0.99
   1  -2 -10   63.89    6.61
   1  -2 -10   51.26    6.59
   1  -2 -10   60.59    7.35
  -1  -2  10   51.15    5.99
   1  -2 -10   65.64    6.22
   1   2 -10   50.75    5.55
   1   2 -10   66.56    6.58
   1   2 -10   49.57    6.41
   0  -2 -10   39.86    4.56
   0  -2  10   28.81    4.27
   0  -2 -10   22.23    4.36
   0  -2 -10   34.37    5.36
   0  -2 -10   31.62    5.29
   0   2 -10   34.80    4.18
   0   2 -10   30.57    4.83
   0   2 -10   24.39    3.58
  -1  -2 -10   13.07    2.74
  -1  -2 -10   12.45    3.22
  -1  -2 -10   15.48    2.83
  -1  -2 -10   12.74    3.13
  -1   2 -10   12.63    2.55
  -1   2 -10   13.43    3.05
  -2  -2 -10    3.36    2.71
  -2  -2 -10    3.87    2.11
  -2  -2 -10    4.08    2.12
  -2  -2 -10    3.05    2.25
  -2   2 -10    1.76    1.77
  -2   2 -10    5.40    2.00
  -3  -2 -10  103.82   12.99
  -3  -2 -10  128.62   13.16
  -3  -2 -10  129.47   12.51
  -3  -2 -10  122.76   11.54
  -3   2 -10  109.56   11.98
  -3   2 -10  142.58   12.96
  -4  -2 -10   46.94    6.70
  -4  -2 -10   61.74    7.57
  -4  -2 -10   50.48    7.04
  -4  -2 -10   55.17    6.58
  -4   2 -10   51.81    7.49
  -5  -2 -10    3.71    2.61
  -5  -2 -10    2.35    2.35
  -5  -2 -10    1.04    2.49
  -5  -2 -10   -0.19    2.25
   5   2  10    0.32    3.27
  -5   2 -10   -3.39    2.58
  -6  -2 -10   24.24    4.10
  -6  -2 -10   14.94    3.91
  -6  -2 -10   16.57    3.80
  -6  -2 -10   18.42    4.08
   6   2  10   15.93    4.46
  -7  -2 -10   29.32    5.38
  -7  -2 -10   17.64    4.29
  -7  -2 -10   17.33    4.51
   7   2  10   17.32    4.72
  -8  -2 -10   -0.90    3.46
  -8  -2 -10    5.70    2.82
  -8  -2 -10    1.99    3.48
  -8  -2 -10    9.83    3.40
  10  -3 -10    3.51    3.01
  10   3 -10    1.80    3.10
   9  -3 -10   11.26    3.31
   9  -3 -10    6.44    3.38
   9   3 -10    9.97    3.31
   8  -3 -10    1.15    2.49
  -8  -3  10   -2.03    4.19
   8  -3 -10   -1.06    2.33
   8   3 -10    5.11    2.26
   7  -3 -10    0.56    2.13
  -7  -3  10   -0.01    3.09
   7  -3 -10    1.52    1.70
   7   3 -10    0.48    2.06
  -7   3  10   -0.30    3.70
  -6  -3  10    7.99    3.64
   6  -3 -10   10.92    2.47
   6  -3 -10   10.21    2.59
   6  -3 -10    4.27    3.94
   6   3 -10    4.41    2.70
  -6   3  10    8.03    4.62
   5  -3 -10    9.09    2.36
  -5  -3  10    9.53    3.15
   5  -3 -10    6.54    2.27
   5  -3 -10    8.10    4.37
  -5   3  10    9.68    4.98
   5   3 -10    6.07    2.14
   4  -3 -10    0.88    1.93
   4  -3 -10    1.12    1.87
   4  -3 -10    1.14    2.27
   4  -3 -10   -1.75    3.49
   2  -3 -10   11.62    3.91
   2  -3 -10   11.63    2.50
   2  -3 -10    8.10    2.41
  -2  -3  10    7.96    3.04
   2  -3 -10   11.58    2.69
   1  -3 -10    2.28    2.37
   1  -3 -10    5.39    2.39
   1  -3 -10    8.85    3.65
   1  -3 -10    5.10    2.59
   1   3 -10   -0.05    2.22
   0  -3 -10    3.73    3.25
   0  -3 -10   -0.34    1.87
   0  -3 -10    0.99    2.17
   0  -3 -10    3.66    1.96
   0   3 -10    3.68    1.90
  -1  -3 -10    7.34    2.69
  -1  -3 -10    3.65    2.46
  -1  -3 -10    7.22    3.27
  -1  -3 -10    5.86    2.58
  -2  -3 -10    4.03    2.22
  -2  -3 -10    0.20    3.45
  -2  -3 -10   -3.43    2.75
  -2  -3 -10    2.73    2.67
  -3  -3 -10    6.60    2.81
  -3  -3 -10    1.70    2.41
  -3  -3 -10    3.44    2.58
  -3  -3 -10    2.36    3.59
  -4  -3 -10    6.72    2.62
  -4  -3 -10    9.19    2.92
  -4  -3 -10    4.70    3.76
  -5  -3 -10    5.59    4.06
  -5  -3 -10   11.08    2.82
  -6  -3 -10    5.36    3.85
  -6  -3 -10    5.13    3.33
  -5  -4  10    4.11    3.23
   5  -4 -10   -1.00    2.12
  -4  -4  10   -2.12    3.17
   4  -4 -10    3.88    4.31
   4  -4 -10   -0.75    2.09
  -3  -4  10   -0.34    2.78
   3  -4 -10    0.34    2.14
   3  -4 -10    6.21    4.18
   2  -4 -10    8.40    4.20
   2  -4 -10    4.12    2.24
   1  -4 -10    1.38    2.45
   1  -4 -10    8.09    4.11
   1  -4 -10    3.98    1.86
   0  -4 -10    2.58    2.66
   0  -4 -10    7.37    3.73
  -1  -4 -10   -2.58    2.46
  -1  -4 -10    0.10    4.62
  -1  -4 -10    1.52    2.72
  14   0 -11   -2.58    3.11
 -13   0  11   -5.04    6.07
  13   0 -11   -0.33    2.52
 -12   0  11    3.20    5.24
  12   0 -11   -2.04    2.31
  12   0 -11    3.02    2.66
  11   0 -11   -1.09    2.10
  11   0 -11   -0.34    2.23
  11   0 -11   -0.79    2.36
 -11   0  11   -9.94    6.26
  10   0 -11   -0.72    2.00
  10   0 -11    0.05    2.26
  10   0 -11   -0.66    2.69
  10   0 -11   -0.68    1.99
 -10   0  11   -1.62    5.72
   9   0 -11   -0.73    1.93
  -9   0  11    2.82    4.46
  -9   0  11    0.79    2.21
   9   0 -11   -1.30    2.72
   9   0 -11    1.10    1.56
   8   0 -11   -1.03    1.70
  -8   0  11   -1.72    2.11
   8   0 -11   -0.68    1.78
  -8   0  11    2.85    3.41
   8   0 -11   -2.88    2.28
   7   0 -11   -1.94    2.45
   7   0 -11    1.40    1.54
  -7   0  11    1.23    3.26
   7   0 -11   -0.69    1.83
   7   0 -11   -0.72    1.53
  -7   0  11   -5.12    2.44
   6   0 -11    0.17    1.47
  -6   0  11   -1.13    3.17
   6   0 -11   -1.65    2.12
   6   0 -11   -1.07    1.79
   6   0 -11    0.30    1.72
  -6   0  11    2.45    2.09
   5   0 -11   -0.18    1.55
   5   0 -11    0.72    2.27
   5   0 -11   -0.62    1.38
  -5   0  11   -1.67    2.01
  -5   0  11   -0.44    2.71
   5   0 -11   -0.12    1.41
   4   0 -11   -0.12    1.33
  -4   0  11   -0.74    2.77
   4   0 -11   -0.63    1.56
   4   0 -11   -0.56    1.47
   4   0 -11   -0.18    1.90
  -4   0  11   -1.38    2.08
   3   0 -11   -0.86    2.01
   3   0 -11   -0.91    1.43
   3   0 -11    0.79    1.34
   3   0 -11    0.29    1.44
   2   0 -11    0.13    1.62
   2   0 -11   -0.97    1.80
   2   0 -11    0.33    1.24
   2   0 -11    1.13    1.54
   1   0 -11    0.17    1.55
   1   0 -11    0.22    1.54
   1   0 -11    0.79    1.58
   1   0 -11   -0.05    1.88
   0   0 -11    0.52    1.47
   0   0 -11    0.37    1.69
   0   0 -11    0.12    1.55
   0   0 -11    1.43    1.71
  -1   0 -11   -0.43    1.56
  -1   0 -11   -0.69    1.49
  -1   0 -11    1.45    1.60
  -1   0 -11   -0.16    1.69
  -2   0 -11    0.35    1.66
  -2   0 -11   -0.10    1.69
  -2   0 -11    0.87    1.44
  -2   0 -11    0.92    2.04
  -3   0 -11    0.67    1.90
  -3   0 -11    0.77    1.66
  -3   0 -11    1.84    2.23
  -3   0 -11   -1.02    2.04
  -4   0 -11    2.11    2.14
  -4   0 -11    3.02    1.79
  -4   0 -11    0.14    1.98
  -4   0 -11   -0.44    2.13
  -5   0 -11    2.32    1.76
  -5   0 -11    1.91    2.23
  -5   0 -11   -1.03    2.23
  -5   0 -11    1.09    2.12
   6   0  11   -1.15    2.79
  -6   0 -11    4.66    2.63
  -6   0 -11    1.59    2.30
  -6   0 -11    3.18    2.02
   7   0  11   -0.95    2.90
  -7   0 -11    4.71    3.00
  -7   0 -11   -1.91    2.57
   8   0  11   -1.23    3.60
  -8   0 -11   -5.99    3.81
  -8   0 -11    6.43    3.32
   9   0  11    0.21    3.31
  -9   0 -11    7.93    3.57
  -9   0 -11   -6.41    3.43
  13  -1 -11    3.53    3.02
 -13  -1  11    4.12    6.89
  13  -1 -11    5.66    3.67
 -13   1  11   16.11    5.99
  13   1 -11    2.46    2.97
  12  -1 -11    4.07    2.57
  12  -1 -11   -1.23    2.69
 -12  -1  11    9.12    5.30
  12   1 -11    1.55    2.42
 -12   1  11   -7.93    6.65
  11  -1 -11    5.19    2.95
  11  -1 -11    3.88    3.25
  11  -1 -11    5.77    3.32
  11  -1 -11    3.64    2.80
 -11  -1  11   -5.12    7.14
  11   1 -11    5.95    3.03
 -11   1  11    7.17    6.71
  11   1 -11    0.95    2.98
  10  -1 -11   38.21    6.45
 -10  -1  11   54.73    9.41
  10  -1 -11   36.74    5.49
  10  -1 -11   38.75    6.49
  10  -1 -11   31.25    5.68
 -10  -1  11   36.34    6.76
  10   1 -11   35.54    6.72
 -10   1  11   38.73    8.96
  10   1 -11   35.62    6.21
   9  -1 -11   12.00    3.04
   9  -1 -11    4.93    3.82
   9  -1 -11    9.24    2.80
  -9  -1  11    6.78    3.07
  -9   1  11   20.32    5.96
   9   1 -11    6.70    2.44
   9   1 -11    6.71    2.47
   9   1 -11    6.73    2.43
   8  -1 -11   14.86    3.74
   8  -1 -11   11.50    2.81
   8  -1 -11   10.93    2.68
  -8  -1  11   11.77    3.46
  -8  -1  11   17.16    4.82
   8   1 -11   12.31    2.84
   8   1 -11    9.74    2.50
  -8   1  11   21.66    5.44
   7  -1 -11   21.60    4.22
  -7  -1  11   18.04    3.91
  -7  -1  11   31.54    6.51
   7  -1 -11   27.94    5.57
   7  -1 -11   23.45    4.01
   7  -1 -11   24.28    3.78
   7   1 -11   26.85    4.59
  -7   1  11   17.08    3.29
  -7   1  11   33.54    6.95
   7   1 -11   24.47    3.91
   6  -1 -11   44.43    4.94
  -6  -1  11   34.87    7.10
   6  -1 -11   39.84    5.81
   6  -1 -11   45.72    5.57
   6  -1 -11   33.85    5.84
  -6  -1  11   34.14    4.88
  -6  -1  11   32.34    4.85
   6   1 -11   41.91    4.79
  -6   1  11   42.48    6.92
   6   1 -11   41.93    5.76
  -6   1  11   45.48    4.92
   6   1 -11   33.65    5.21
   6   1 -11   42.02    6.02
   5  -1 -11    9.71    2.90
  -5  -1  11    8.71    3.58
  -5  -1  11    8.66    2.41
   5  -1 -11   14.30    2.56
   5  -1 -11   17.30    3.18
   5  -1 -11    9.68    2.32
  -5  -1  11    9.69    2.88
   5   1 -11   10.94    2.70
   5   1 -11   15.27    2.67
   5   1 -11   11.85    2.94
  -5   1  11   11.05    3.67
  -5   1  11    6.51    2.64
   4  -1 -11   25.01    4.59
   4  -1 -11   30.97    4.02
   4  -1 -11   30.05    4.33
  -4  -1  11   28.77    4.62
  -4  -1  11   27.23    3.86
   4  -1 -11   22.63    4.02
   4   1 -11   27.13    3.70
   4   1 -11   29.21    4.96
   4   1 -11   28.32    4.72
   4   1 -11   22.27    4.14
  -4   1  11   28.49    5.93
   3  -1 -11   19.84    3.67
   3  -1 -11   22.89    3.45
   3  -1 -11   20.46    3.88
   3  -1 -11   22.12    4.45
  -3  -1  11   21.96    3.69
   3   1 -11   22.05    3.32
   3   1 -11   20.67    4.17
   3   1 -11   24.94    4.23
   3   1 -11   17.01    3.65
   2  -1 -11    3.14    1.87
   2  -1 -11    2.51    1.89
  -2  -1  11    0.97    1.75
   2  -1 -11    4.08    1.95
   2  -1 -11    1.99    2.21
   2   1 -11    1.99    1.58
   2   1 -11    1.07    2.33
   2   1 -11    0.91    1.46
   2   1 -11    3.18    1.77
   1  -1 -11    3.05    1.74
   1  -1 -11    3.92    1.86
  -1  -1  11    5.01    2.18
   1  -1 -11    6.09    2.10
   1  -1 -11    4.84    2.57
   1   1 -11    5.54    1.91
   1   1 -11    3.56    2.12
   1   1 -11    5.20    1.72
   1   1 -11    2.17    2.42
   0  -1 -11   26.61    4.75
   0  -1 -11   46.36    4.87
   0  -1 -11   40.30    5.40
   0  -1 -11   32.69    5.09
   0  -1  11   29.33    4.58
   0   1 -11   43.18    5.12
   0   1 -11   29.94    5.64
   0   1 -11   36.43    5.19
   0   1 -11   35.71    4.10
  -1  -1 -11    3.54    2.29
  -1  -1 -11    3.83    2.00
  -1  -1 -11    4.51    2.29
   1  -1  11    9.10    2.25
  -1  -1 -11    5.47    2.11
  -1   1 -11    3.17    1.66
  -1   1 -11    3.00    1.72
  -1   1 -11    4.02    2.18
  -1   1 -11    2.15    2.53
  -2  -1 -11    0.97    2.34
  -2  -1 -11    2.53    1.94
  -2  -1 -11    2.81    2.01
  -2  -1 -11    3.03    2.11
  -2   1 -11    0.90    1.51
  -2   1 -11    2.42    1.93
  -2   1 -11   -2.51    2.39
  -2   1 -11    0.95    2.08
  -3  -1 -11    9.59    2.51
  -3  -1 -11    7.88    2.47
  -3  -1 -11    8.91    2.66
  -3  -1 -11   13.34    2.95
  -3   1 -11    9.88    3.24
  -3   1 -11    6.95    2.16
  -3   1 -11    3.88    2.81
  -4  -1 -11    3.67    2.48
  -4  -1 -11    4.79    2.37
  -4  -1 -11    8.01    2.56
  -4  -1 -11    5.92    2.45
  -4   1 -11    5.91    2.10
  -4   1 -11    8.04    2.64
  -4   1 -11   -0.19    2.55
  -5  -1 -11   -1.50    2.07
  -5  -1 -11    5.49    2.16
  -5  -1 -11    3.16    2.44
  -5  -1 -11    1.47    2.00
   5   1  11   -0.41    2.90
  -5   1 -11    7.37    2.76
  -5   1 -11    2.99    1.94
  -6  -1 -11   10.86    3.53
  -6  -1 -11   20.29    4.12
  -6  -1 -11   12.79    3.23
   6   1  11    9.15    3.74
  -7  -1 -11    3.73    3.58
  -7  -1 -11   11.72    3.68
   7   1  11    8.59    4.08
  -8  -1 -11    1.69    3.40
   8   1  11   -0.82    3.41
  -8   1 -11    7.52    3.10
  12  -2 -11   27.15    5.00
  12  -2 -11   20.77    6.12
  12  -2 -11   20.03    4.53
 -12  -2  11   37.25    8.98
  12   2 -11   18.27    4.52
  11  -2 -11   19.70    3.97
  11  -2 -11   14.29    3.74
  11  -2 -11   12.53    4.59
 -11  -2  11   12.90    7.19
 -11   2  11   17.76    6.73
  11   2 -11   13.12    3.40
  11   2 -11    4.63    4.04
  10  -2 -11   -0.68    3.01
  10  -2 -11   -1.99    2.83
 -10  -2  11    1.16    3.77
 -10  -2  11   -5.78    6.55
  10  -2 -11   -1.12    2.56
  10   2 -11   -4.80    2.66
  10   2 -11    2.54    2.70
 -10   2  11   10.19    5.52
  -9  -2  11   55.93    8.78
   9  -2 -11   83.72    8.22
   9  -2 -11   76.99    9.46
   9  -2 -11   72.88    8.84
   9  -2 -11   79.39    8.86
   9   2 -11   68.70    8.78
   9   2 -11   76.82    9.41
  -9   2  11   71.74   14.09
  -8  -2  11   58.14    7.51
   8  -2 -11   53.85    6.32
   8  -2 -11   45.58    7.30
   8  -2 -11   59.58    7.17
  -8   2  11   66.05   10.70
   8   2 -11   52.37    7.12
   8   2 -11   42.35    6.92
   7  -2 -11    3.07    2.04
   7  -2 -11    5.14    2.22
   7  -2 -11    1.70    3.37
  -7  -2  11    2.57    2.71
  -7  -2  11    8.24    4.18
   7   2 -11    5.51    1.87
   6  -2 -11   25.91    5.44
  -6  -2  11   28.96    4.91
   6  -2 -11   41.99    5.68
   6  -2 -11   32.16    4.56
   6  -2 -11   28.61    4.86
  -6  -2  11   41.14    7.01
   6   2 -11   37.74    5.29
   5  -2 -11   74.58    9.90
   5  -2 -11   79.92    9.17
  -5  -2  11   76.03   10.82
  -5  -2  11   78.28    8.57
   5  -2 -11   83.60    8.07
   5  -2 -11   80.48    9.01
   5   2 -11   84.96    8.74
  -5   2  11   83.91   10.61
   4  -2 -11   21.23    4.49
  -4  -2  11   17.12    3.57
   4  -2 -11   26.76    3.98
   4  -2 -11   25.26    3.88
  -4  -2  11   24.20    5.17
   4  -2 -11   18.89    3.44
   4   2 -11   20.02    3.64
   4   2 -11   16.92    3.31
  -4   2  11   24.59    5.32
  -3  -2  11    3.48    2.61
   3  -2 -11    5.04    2.05
   3  -2 -11    7.37    2.19
   3  -2 -11    4.65    3.14
   3  -2 -11    6.04    2.01
  -3   2  11    2.71    3.25
   3   2 -11    4.16    2.57
   2  -2 -11   64.12    6.97
   2  -2 -11   56.29    6.31
   2  -2 -11   57.22    7.41
   2  -2 -11   56.20    7.63
  -2   2  11   50.92    8.82
   2   2 -11   51.25    7.33
   2   2 -11   59.71    7.17
   1  -2 -11   11.55    3.67
   1  -2 -11    9.41    2.50
   1  -2 -11    9.75    2.51
   1  -2 -11    9.14    2.45
   1   2 -11    8.71    2.31
   0  -2 -11    1.25    2.01
   0  -2 -11   -0.36    1.99
   0  -2 -11    0.75    1.77
   0  -2 -11   -0.21    2.81
   0   2 -11   -0.74    1.99
   0   2 -11    1.35    1.40
  -1  -2 -11   90.47   10.77
  -1  -2 -11   98.79    9.47
  -1  -2 -11  100.25   10.25
  -1  -2 -11   95.27   10.88
  -1   2 -11   95.19    9.80
  -1   2 -11   93.09   10.58
  -2  -2 -11   11.16    2.88
  -2  -2 -11    6.34    2.25
  -2  -2 -11    8.87    2.93
  -2  -2 -11    8.87    3.18
  -2   2 -11    9.12    2.52
  -2   2 -11    4.78    2.21
  -3  -2 -11    5.58    2.93
  -3  -2 -11    8.53    2.52
  -3  -2 -11    7.71    2.50
  -3  -2 -11    5.06    2.85
  -3   2 -11    4.32    2.65
  -4  -2 -11    9.94    3.41
  -4  -2 -11   10.09    3.10
  -4  -2 -11    8.93    2.78
  -4  -2 -11    7.83    2.43
  -4   2 -11    6.52    3.17
  -5  -2 -11   39.91    5.96
  -5  -2 -11   35.64    6.15
  -5  -2 -11   41.59    6.47
  -5  -2 -11   44.48    6.79
  -6  -2 -11   33.89    5.61
  -6  -2 -11   34.82    6.22
  -6  -2 -11   21.67    4.69
  -6   2 -11   29.02    5.53
  -7  -2 -11    7.36    3.24
  -7  -2 -11    7.35    3.53
  -7  -2 -11   -1.51    3.50
  -7  -2 -11    5.20    3.27
   7   2  11    0.74    3.55
  10  -3 -11   53.63    7.17
  10  -3 -11   42.83    7.23
  10   3 -11   57.62    8.23
 -10   3  11   75.74   11.49
  -9  -3  11   10.10    4.66
   9  -3 -11    9.03    3.24
   9  -3 -11    9.61    3.34
   9   3 -11   12.30    3.29
   8  -3 -11    1.66    2.54
   8  -3 -11    1.61    2.32
  -8  -3  11    3.05    3.86
   8   3 -11    3.55    2.47
   7  -3 -11   53.37    6.29
   7  -3 -11   33.31    7.13
  -7  -3  11   51.67    7.62
   7  -3 -11   46.97    5.68
   7   3 -11   40.82    6.83
  -7   3  11   43.09   10.02
   6  -3 -11   11.51    4.54
  -6  -3  11   14.98    3.94
   6  -3 -11   17.15    3.19
   6   3 -11   13.66    3.31
  -6   3  11   23.39    6.58
  -5  -3  11    0.65    3.54
   5  -3 -11   -1.55    3.71
   5  -3 -11    1.73    2.19
   5  -3 -11    1.34    2.13
   4  -3 -11   53.81    7.13
   4  -3 -11   46.97    8.06
  -4  -3  11   40.63    7.54
   4  -3 -11   56.75    6.08
   4  -3 -11   61.39    6.29
  -4  -3  11   43.09    6.63
  -3  -3  11   35.29    6.37
   3  -3 -11   41.30    5.76
   3  -3 -11   42.23    5.12
   3  -3 -11   47.67    8.12
   2  -3 -11    1.93    3.32
   2  -3 -11    0.94    2.25
   2  -3 -11    2.51    1.99
  -2  -3  11   -1.62    2.81
   2  -3 -11    0.52    1.98
   1  -3 -11    2.37    2.37
   1  -3 -11    1.67    3.04
   1  -3 -11   -3.03    2.42
   0  -3 -11   65.29    7.58
   0  -3 -11   61.77    7.58
   0  -3 -11   54.25    6.96
   0  -3 -11   65.03    9.16
   0   3 -11   64.45    7.16
  -1  -3 -11   16.50    3.82
  -1  -3 -11   20.48    3.65
  -1  -3 -11   27.11    4.82
  -2  -3 -11   18.70    3.65
  -2  -3 -11   25.27    4.48
  -2  -3 -11   21.96    4.82
  -2  -3 -11   13.53    4.24
  -3  -3 -11  114.95   10.69
  -3  -3 -11   79.71   10.53
  -3  -3 -11  103.35   12.06
  -3  -3 -11  104.62   12.07
  -4  -3 -11   29.47    5.67
  -4  -3 -11   32.84    6.57
  -4  -3 -11   23.50    4.56
  -5  -3 -11    6.68    3.50
  -5  -3 -11    6.19    2.76
  -5  -3 -11    8.33    3.17
   4  -4 -11    8.57    2.77
   4  -4 -11   15.61    5.77
  -4  -4  11   11.74    4.08
  -3  -4  11   -0.95    3.38
   3  -4 -11    2.32    2.43
   3  -4 -11    5.17    2.32
   3  -4 -11    7.30    4.14
   2  -4 -11   49.57    5.81
   2  -4 -11   50.89    8.07
  -2  -4  11   34.95    6.57
   1  -4 -11   19.19    3.63
   1  -4 -11   19.60    4.94
  -1  -4  11   10.05    3.88
   0  -4 -11   -4.65    2.59
   0  -4 -11    9.02    4.64
  13   0 -12   52.23    8.40
  13   0 -12   60.01    8.89
 -13   0  12   68.50   12.97
  12   0 -12   10.68    3.53
 -12   0  12    8.31    8.29
  12   0 -12   11.65    3.82
  12   0 -12   16.30    3.75
 -11   0  12   88.22   12.85
  11   0 -12   63.34    8.88
  11   0 -12   62.13    7.75
  11   0 -12   67.77    9.34
 -10   0  12   17.90    5.48
  10   0 -12    6.61    2.91
  10   0 -12    5.70    3.39
  10   0 -12    4.22    2.35
  10   0 -12    7.75    3.06
   9   0 -12   14.58    3.03
  -9   0  12   13.24    3.54
   9   0 -12   22.41    4.40
   9   0 -12   18.87    3.72
   8   0 -12    3.99    2.03
   8   0 -12    2.27    1.95
  -8   0  12    5.35    2.48
   8   0 -12    1.90    3.11
  -8   0  12    0.51    4.39
  -7   0  12  108.99   14.34
   7   0 -12  135.00   13.16
   7   0 -12  110.89   12.32
   7   0 -12  126.48   12.95
  -7   0  12  128.64   11.86
   7   0 -12  124.56   11.40
   6   0 -12  267.88   24.77
   6   0 -12  218.98   23.32
  -6   0  12  236.52   26.73
  -6   0  12  258.10   22.08
   6   0 -12  273.86   21.96
   6   0 -12  254.86   24.53
   5   0 -12    0.80    1.63
   5   0 -12   -0.01    1.95
  -5   0  12   -3.35    2.36
   5   0 -12    0.66    2.49
  -5   0  12    1.59    3.01
   5   0 -12    1.58    1.47
   4   0 -12   51.03    6.75
   4   0 -12   58.26    7.45
   4   0 -12   72.10    6.44
   3   0 -12   92.01   10.08
   3   0 -12   88.32    9.69
   3   0 -12  103.19   10.32
   2   0 -12   96.55   10.83
   2   0 -12  116.25   11.61
   2   0 -12  112.94   10.03
   1   0 -12   33.80    5.17
   1   0 -12   37.85    4.67
   1   0 -12   41.24    5.30
   1   0 -12   29.03    5.21
   0   0 -12   49.70    6.80
   0   0 -12   55.19    6.34
  -1   0 -12  261.82   25.08
  -1   0 -12  258.40   22.35
  -1   0 -12  251.97   23.87
  -2   0 -12    1.86    1.96
  -2   0 -12    0.53    2.30
  -2   0 -12    4.16    2.18
  -2   0 -12    4.14    1.94
  -3   0 -12   36.85    5.80
  -3   0 -12   28.58    5.36
  -3   0 -12   36.84    4.92
  -3   0 -12   32.29    5.25
  -4   0 -12   98.67    8.85
  -4   0 -12   66.33    9.14
  -4   0 -12   77.69    9.56
  -4   0 -12   91.45    9.47
  -5   0 -12    3.06    2.62
  -5   0 -12    6.98    2.16
  -5   0 -12    5.61    2.72
  -6   0 -12   12.46    3.29
  -6   0 -12   10.70    3.52
  -7   0 -12   64.99    8.62
  -7   0 -12   69.36    9.29
  -8   0 -12   41.87    7.38
  13  -1 -12    2.25    2.75
 -13  -1  12    0.24    6.39
  13  -1 -12   -3.38    3.02
 -13   1  12   -4.57    6.50
  13   1 -12    1.85    2.98
  12  -1 -12   40.59    6.60
 -12  -1  12   58.07   11.18
  12  -1 -12   41.26    8.18
  12  -1 -12   48.80    7.88
 -12   1  12   59.43   10.14
  12   1 -12   37.75    6.74
  12   1 -12   53.69    7.50
  11  -1 -12   67.01    9.34
  11  -1 -12   66.49    9.43
  11  -1 -12   73.46    9.40
 -11  -1  12   68.16    9.11
  11  -1 -12   59.56    7.71
 -11  -1  12   70.06   14.14
  11   1 -12   59.48    8.63
 -11   1  12   89.75   13.41
  11   1 -12   67.38    8.95
  10  -1 -12   -4.80    3.45
  10  -1 -12   -0.18    2.10
 -10  -1  12    4.37    2.65
  10  -1 -12    0.77    2.34
  10  -1 -12   -1.64    2.09
  10   1 -12   -1.27    2.44
  10   1 -12   -1.82    2.09
 -10   1  12   -2.91    7.37
  -9  -1  12   58.74    7.91
   9  -1 -12   58.51    9.08
   9  -1 -12   65.38    7.06
   9  -1 -12   63.04    7.92
   9   1 -12   60.80    7.32
   8  -1 -12   83.32   10.41
   8  -1 -12   76.75    9.57
  -8  -1  12   89.96   12.44
   8  -1 -12   89.05    8.85
   8   1 -12   98.40    9.99
   8   1 -12   87.46    8.79
  -8   1  12   96.82   12.00
   7  -1 -12   22.49    4.58
   7  -1 -12   23.15    3.88
  -7  -1  12   18.05    4.53
   7  -1 -12   18.49    3.69
   7  -1 -12   15.00    3.26
  -7  -1  12   17.30    3.98
  -7   1  12    7.62    3.57
   7   1 -12   14.56    2.85
   7   1 -12   17.13    3.35
  -7   1  12   27.20    5.63
   7   1 -12   18.63    3.80
   6  -1 -12   33.21    5.51
   6  -1 -12   50.12    5.50
   6  -1 -12   47.80    6.60
  -6  -1  12   49.21    6.21
   6  -1 -12   39.83    6.36
  -6  -1  12   46.96    8.55
  -6   1  12   46.66    7.92
   6   1 -12   54.87    5.44
   6   1 -12   46.57    6.76
   6   1 -12   44.85    6.67
   6   1 -12   46.50    6.22
  -6   1  12   35.82    5.22
  -5  -1  12   98.29   12.27
   5  -1 -12   83.04   10.33
  -5  -1  12   99.49    9.59
  -5  -1  12   87.42    8.88
   5  -1 -12  106.97    9.25
   5   1 -12   97.67   10.50
   5   1 -12   88.87    8.95
   5   1 -12   87.24    9.90
   5   1 -12  106.17   10.58
  -5   1  12  106.50   11.86
  -5   1  12   85.55    9.19
   4  -1 -12   68.71    8.60
  -4  -1  12   71.98    7.62
   4  -1 -12   71.22    7.76
  -4  -1  12   64.52    7.15
   4  -1 -12   83.70    7.32
   4   1 -12   59.05    7.85
  -4   1  12   55.60    7.16
  -4   1  12   79.45    9.76
   4   1 -12   73.98    7.11
   4   1 -12   77.54    8.70
   3  -1 -12    1.20    1.56
  -3  -1  12   -1.17    1.94
   3  -1 -12    0.35    1.46
   3  -1 -12   -0.02    1.63
   3  -1 -12    1.76    2.32
   3   1 -12    1.80    1.54
   3   1 -12   -0.65    1.41
   3   1 -12   -0.38    1.88
   3   1 -12   -0.26    2.19
   2  -1 -12   79.66    8.27
   2  -1 -12   74.51    7.26
  -2  -1  12   71.25    7.17
   2  -1 -12   73.91    8.36
   2   1 -12   68.24    8.27
   2   1 -12   64.23    7.93
   2   1 -12   68.59    6.92
   2   1 -12   55.62    7.43
   1  -1 -12  117.07   11.55
   1  -1 -12  125.62   10.99
   1   1 -12  101.38    9.82
   1   1 -12  102.26   11.48
   1   1 -12   88.76   10.60
   0  -1 -12    3.08    2.07
   0  -1 -12    2.68    2.10
   0  -1  12   -1.43    2.29
   0  -1 -12    2.37    2.78
   0  -1 -12    2.72    2.07
   0   1 -12    0.94    2.80
   0   1 -12    1.30    1.97
   0   1 -12    3.48    1.41
   0   1 -12    1.39    1.96
  -1  -1 -12    0.87    2.70
  -1  -1 -12    2.03    2.38
  -1  -1 -12    6.10    2.46
  -1  -1 -12    2.87    2.26
  -1   1 -12    1.21    1.69
  -1   1 -12    2.72    1.99
  -1   1 -12    3.06    2.21
  -1   1 -12   -1.29    2.52
  -2  -1 -12   66.86    7.68
  -2  -1 -12   63.57    7.92
  -2  -1 -12   58.86    7.20
  -2  -1 -12   64.10    6.89
  -2   1 -12   46.91    6.96
  -2   1 -12   62.78    7.63
  -3  -1 -12   49.90    7.68
  -3  -1 -12   58.58    6.99
  -3  -1 -12   72.57    7.93
  -3  -1 -12   59.86    8.06
  -3   1 -12   68.30    7.75
  -3   1 -12   69.10    8.45
  -4  -1 -12    0.88    2.50
  -4  -1 -12   -1.87    2.60
  -4  -1 -12    3.27    2.27
  -4  -1 -12    1.36    2.00
  -4   1 -12   -3.83    2.64
  -4   1 -12    0.15    3.06
  -4   1 -12    3.57    1.79
  -5  -1 -12   71.71    8.84
  -5  -1 -12   52.52    8.26
  -5  -1 -12   77.58    8.08
  -5  -1 -12   70.05    8.35
  -5   1 -12   69.24    8.03
  -5   1 -12   69.67    8.74
  -5   1 -12   56.39    8.29
  -6  -1 -12   51.34    7.63
  -6  -1 -12   50.01    7.33
  -6  -1 -12   52.31    6.94
  -6   1 -12   48.18    6.95
  -7  -1 -12    9.28    3.44
  -7  -1 -12    4.73    3.37
   7   1  12    0.53    3.55
  -7   1 -12    7.20    2.47
  -8  -1 -12   18.16    4.64
   8   1  12    8.46    5.27
 -12  -2  12   14.53    6.32
  12  -2 -12    6.70    2.84
 -12   2  12   13.87    5.57
  12   2 -12    1.30    2.96
 -11  -2  12    2.23    8.41
  11  -2 -12    9.03    3.35
 -11  -2  12   12.92    4.40
  11  -2 -12    6.66    3.49
  11  -2 -12   10.07    3.83
 -11   2  12   18.95    7.70
  11   2 -12   15.09    3.79
  11   2 -12    4.89    4.66
 -10  -2  12   60.50    9.18
  10  -2 -12   59.46    8.65
  10  -2 -12   74.14    9.00
  10  -2 -12   56.48    7.64
  10  -2 -12   65.79    8.64
  10   2 -12   68.76    9.01
  10   2 -12   58.37    8.40
 -10   2  12   77.19   12.45
   9  -2 -12   47.30    6.72
   9  -2 -12   34.57    5.51
   9  -2 -12   39.17    5.94
  -9  -2  12   22.97    5.19
  -9   2  12   40.13    9.66
   9   2 -12   32.70    6.54
   8  -2 -12    7.37    3.16
  -8  -2  12    9.71    4.95
   8  -2 -12    2.95    2.47
  -8   2  12   21.03    5.66
   7  -2 -12    8.78    3.20
   7  -2 -12   12.95    3.01
   7  -2 -12    6.87    3.76
  -7  -2  12   13.89    4.03
   7  -2 -12   11.56    2.80
   7   2 -12   12.75    2.72
   6  -2 -12   43.33    6.16
   6  -2 -12   42.72    5.42
  -6  -2  12   42.94    6.45
  -6  -2  12   38.12    8.39
   6  -2 -12   38.96    6.50
   6  -2 -12   37.73    7.74
   6   2 -12   45.26    6.00
  -6   2  12   57.20    8.44
  -5  -2  12   -1.69    2.99
   5  -2 -12   -0.71    2.32
   5  -2 -12   -1.86    3.54
  -5  -2  12   -5.00    4.04
   5  -2 -12    0.77    1.93
  -5   2  12    5.73    3.08
   5   2 -12   -0.61    2.34
   4  -2 -12   17.26    4.66
   4  -2 -12   23.80    4.01
  -4  -2  12   16.25    3.71
   4  -2 -12   13.72    3.06
   4   2 -12   16.88    3.83
  -4   2  12   22.67    4.57
   4   2 -12   28.30    5.33
   3  -2 -12   39.99    5.20
   3  -2 -12   39.48    5.99
   3  -2 -12   41.45    5.66
   3  -2 -12   42.56    6.86
   3   2 -12   48.79    6.22
  -3   2  12   39.23    6.57
   3   2 -12   39.82    6.27
   2  -2 -12   55.41    6.74
   2  -2 -12   53.37    7.77
   2  -2 -12   46.27    7.20
   2  -2 -12   56.48    6.08
   2   2 -12   45.70    6.39
  -2   2  12   45.34    8.91
   2   2 -12   48.57    7.00
   1  -2 -12    1.71    2.12
   1  -2 -12    2.33    2.35
   1  -2 -12    1.67    2.06
   1  -2 -12    1.30    2.81
   1   2 -12    0.39    1.69
   1   2 -12    3.36    1.85
   0  -2 -12   40.05    5.90
   0  -2 -12   54.31    6.63
   0  -2 -12   48.97    6.94
   0  -2 -12   55.63    7.57
   0   2 -12   50.89    5.94
   0   2 -12   46.36    6.73
  -1  -2 -12    9.56    3.35
  -1  -2 -12   10.72    2.83
  -1  -2 -12   13.64    4.14
  -1  -2 -12   11.93    3.03
  -1   2 -12    9.04    3.01
  -1   2 -12   11.28    2.72
  -2  -2 -12    5.37    2.27
  -2  -2 -12    3.54    3.38
  -2  -2 -12    6.45    2.65
  -2  -2 -12    6.65    3.28
  -2   2 -12    7.89    2.64
  -2   2 -12    1.19    2.35
  -3  -2 -12   12.82    3.12
  -3  -2 -12   17.37    4.28
  -3  -2 -12   13.85    3.23
  -3   2 -12   10.95    3.09
  -4  -2 -12   49.49    7.11
  -4  -2 -12   60.97    7.25
  -4  -2 -12   49.90    8.15
  -4  -2 -12   62.29    7.78
  -4   2 -12   39.55    7.45
  -5  -2 -12    5.76    3.55
  -5  -2 -12   12.46    3.34
  -5  -2 -12    5.67    2.47
  -5  -2 -12   10.64    3.43
  -5   2 -12   -3.15    3.68
  -6  -2 -12   11.16    3.33
  -6  -2 -12    1.07    3.28
  -6  -2 -12   10.21    3.20
  -6  -2 -12    7.23    2.54
  -7  -2 -12   16.55    4.87
  -7   2 -12   22.54    5.79
   9  -3 -12    2.94    2.99
   9  -3 -12    3.47    3.04
   9  -3 -12   -0.97    4.31
  -9  -3  12    1.81    4.99
  -9   3  12    7.09    5.64
   8  -3 -12   10.84    2.76
   8  -3 -12    7.79    3.07
  -8  -3  12   11.14    4.10
  -8   3  12   19.05    6.18
   8   3 -12    7.77    3.42
   7  -3 -12    1.66    2.42
   7  -3 -12    4.79    2.24
  -7  -3  12   -2.48    3.82
   7   3 -12   -3.10    2.58
   6  -3 -12    6.91    2.23
  -6  -3  12    1.22    3.18
   6   3 -12    3.63    1.91
   5  -3 -12   29.85    5.14
   4  -3 -12   22.79    4.39
   3  -3 -12    0.84    2.06
   3  -3 -12    3.76    2.06
   3  -3 -12   -1.78    3.68
  -3  -3  12   -3.26    3.10
   2  -3 -12    8.85    2.89
  -2  -3  12    6.03    3.40
   2  -3 -12    5.93    2.65
   2  -3 -12    9.08    4.60
   2  -3 -12   11.52    2.75
   2   3 -12    0.83    2.74
   1  -3 -12    3.53    3.08
   1  -3 -12    3.98    3.10
   1  -3 -12   10.54    4.51
   1   3 -12    2.03    2.96
   0  -3 -12    3.15    3.67
   0  -3 -12    9.36    2.60
   0  -3 -12    2.27    2.60
   0  -3 -12    6.08    2.86
  -1  -3 -12    7.97    4.16
  -1  -3 -12    3.86    2.96
  -1  -3 -12    0.18    2.92
  -1  -3 -12    3.15    2.70
  -2  -3 -12    9.24    3.69
  -2  -3 -12    2.96    3.44
  -2  -3 -12   13.16    3.71
  -2  -3 -12   11.20    3.99
  -3  -3 -12    6.67    2.72
  -3  -3 -12    7.02    3.16
  -3  -3 -12    9.35    4.11
  -4  -3 -12   -2.65    3.11
  -4  -3 -12    4.90    2.82
  -4  -3 -12    4.04    3.77
  -4  -3 -12    4.85    3.12
  13   0 -13    2.45    2.83
 -13   0  13    4.98    7.21
  13   0 -13   -6.19    3.39
  12   0 -13   -1.34    2.28
  12   0 -13   -1.02    2.78
  12   0 -13   -1.61    3.00
 -11   0  13   14.76    7.27
  11   0 -13   -0.86    2.31
  11   0 -13   -0.08    2.38
  11   0 -13   -1.50    2.46
  10   0 -13   -0.40    3.32
 -10   0  13    7.84    5.80
  10   0 -13    0.19    2.23
  10   0 -13    1.62    1.84
   9   0 -13   -0.39    1.86
   9   0 -13   -1.25    2.93
   9   0 -13    0.04    2.05
  -9   0  13   -2.40    2.71
  -8   0  13    1.72    4.19
   8   0 -13    0.24    1.84
   8   0 -13    0.39    1.94
   8   0 -13   -2.91    3.21
   7   0 -13   -2.25    2.17
  -7   0  13    3.86    2.40
   7   0 -13    0.50    1.90
   7   0 -13    1.71    1.59
   7   0 -13   -1.89    3.08
  -7   0  13    1.57    3.75
   6   0 -13   -0.59    1.74
   6   0 -13   -0.09    2.76
   6   0 -13    2.21    1.63
   6   0 -13   -0.39    2.12
  -6   0  13   -2.59    2.73
  -6   0  13   -0.10    3.61
  -5   0  13   -3.83    2.46
  -5   0  13   -4.00    3.11
   5   0 -13    0.68    1.62
   5   0 -13   -0.16    1.65
   5   0 -13   -0.22    2.70
   5   0 -13   -1.25    2.06
   4   0 -13   -0.57    1.65
   4   0 -13   -0.96    1.72
   4   0 -13    1.83    1.52
   4   0 -13    1.10    2.38
   3   0 -13    0.57    1.65
   3   0 -13   -0.13    1.79
   3   0 -13   -0.35    1.90
   3   0 -13    1.35    1.81
   2   0 -13    0.72    2.57
   2   0 -13    2.20    1.54
   2   0 -13    0.20    1.73
   2   0 -13    0.90    2.07
   1   0 -13   -1.10    1.82
   1   0 -13    0.88    2.48
   1   0 -13   -1.12    1.77
   1   0 -13   -0.33    1.82
   0   0 -13    0.68    1.82
   0   0 -13    2.02    2.63
   0   0 -13    0.45    1.87
   0   0 -13   -0.83    1.84
  -1   0 -13    1.13    1.79
  -1   0 -13    4.16    2.54
  -1   0 -13    0.27    1.91
  -1   0 -13    0.10    1.98
  -2   0 -13   -0.47    2.06
  -2   0 -13    3.81    2.39
  -2   0 -13   -1.19    2.22
  -2   0 -13   -1.53    2.51
  -3   0 -13    1.39    1.93
  -3   0 -13    1.59    2.26
  -3   0 -13    4.38    2.20
  -3   0 -13   -0.52    2.61
  -4   0 -13    4.64    2.78
  -4   0 -13    6.27    2.31
  -4   0 -13    2.70    2.45
  -5   0 -13    6.90    2.68
  -5   0 -13    4.50    2.57
  -5   0 -13    6.28    2.20
  -6   0 -13    7.24    2.96
  -6   0 -13    4.26    2.52
  -7   0 -13    7.34    3.04
  -7   0 -13    8.65    3.67
 -13  -1  13   21.87    8.03
  13  -1 -13    7.05    3.58
  13  -1 -13    4.68    5.14
  13  -1 -13   17.30    4.27
  13   1 -13   11.92    3.49
 -13   1  13   13.63    8.82
  13   1 -13    1.12    4.14
  12  -1 -13   -2.91    3.11
  12  -1 -13    0.57    4.11
  12  -1 -13   -3.53    2.71
  12  -1 -13   -1.79    3.01
 -12   1  13   -5.60    7.41
  12   1 -13   -1.90    2.72
  12   1 -13    0.02    2.79
  11  -1 -13   14.77    4.95
  11  -1 -13   18.75    4.59
  11  -1 -13   17.31    4.16
  11  -1 -13   18.01    3.99
  11   1 -13   24.95    5.20
  11   1 -13   24.93    4.85
 -11   1  13   23.89    9.94
  10  -1 -13    2.53    2.37
  10  -1 -13    0.35    2.47
 -10  -1  13    9.79    5.98
 -10  -1  13    1.52    2.91
  10   1 -13    1.99    2.14
  10   1 -13   -2.28    2.01
  -9  -1  13   12.78    3.96
   9  -1 -13   15.99    3.36
   9  -1 -13   17.39    3.85
   9  -1 -13    8.22    4.60
   9   1 -13    9.33    2.65
  -9   1  13   26.17    6.73
   8  -1 -13    2.13    1.90
   8  -1 -13    6.79    3.30
   8  -1 -13    1.45    1.80
  -8  -1  13   -5.76    3.04
  -8  -1  13    5.94    4.53
   8  -1 -13   -2.94    2.45
   8   1 -13    2.12    1.96
   8   1 -13   -1.79    1.85
  -8   1  13    7.66    4.57
  -7  -1  13    8.08    3.06
   7  -1 -13   12.67    2.96
   7  -1 -13   13.55    3.50
   7  -1 -13   14.26    3.48
  -7  -1  13   16.31    5.10
   7  -1 -13   12.02    4.11
   7   1 -13   12.58    3.77
   7   1 -13    9.94    2.70
   7   1 -13   15.53    3.52
   7   1 -13   10.92    2.62
  -7   1  13   16.01    4.83
   6  -1 -13   11.21    3.59
  -6  -1  13    6.69    4.54
   6  -1 -13   15.40    2.98
   6  -1 -13   11.02    3.73
  -6  -1  13    6.06    3.44
   6  -1 -13   12.37    2.99
  -6   1  13    5.25    2.87
  -6   1  13   13.73    4.44
   6   1 -13   11.50    3.22
   6   1 -13   12.84    2.55
   6   1 -13   13.69    3.63
   6   1 -13   13.37    3.45
  -5  -1  13    3.79    4.27
   5  -1 -13    8.47    2.92
   5  -1 -13    4.77    2.45
  -5  -1  13    2.00    2.94
   5  -1 -13    5.87    2.50
   5  -1 -13    7.60    2.39
   5   1 -13    4.90    2.68
   5   1 -13    5.56    2.95
  -5   1  13    4.28    3.96
   5   1 -13    8.21    2.13
   5   1 -13    5.42    2.03
  -5   1  13    1.90    2.58
   4  -1 -13    2.42    1.63
   4  -1 -13    1.64    1.96
   4  -1 -13    1.33    1.87
   4  -1 -13    0.29    2.89
   4   1 -13    0.91    1.73
   4   1 -13    1.19    2.61
   4   1 -13   -2.37    2.62
   4   1 -13    2.01    2.29
  -4   1  13   -0.50    3.92
   3  -1 -13   30.50    4.08
   3  -1 -13   18.70    4.28
   3  -1 -13   25.24    4.70
   3  -1 -13   27.69    4.64
   3   1 -13   27.04    5.26
   3   1 -13   26.18    4.76
   3   1 -13   24.62    4.20
   3   1 -13   25.17    3.91
   2  -1 -13    1.61    2.00
   2  -1 -13    3.60    2.77
   2  -1 -13    2.40    2.38
   2  -1 -13    4.03    2.40
   2   1 -13    0.11    2.97
   2   1 -13    3.04    1.78
   2   1 -13    4.42    2.18
   2   1 -13    1.86    1.86
   1  -1 -13    6.88    2.40
   1  -1 -13    5.95    2.98
   1  -1 -13    6.15    2.48
   1  -1 -13    7.34    2.44
   1   1 -13    2.04    2.84
   1   1 -13    4.34    2.67
   1   1 -13    6.35    2.24
   1   1 -13    3.91    1.91
   0  -1 -13   77.30    8.96
   0  -1 -13   84.36    7.89
   0  -1 -13   61.80    8.16
   0  -1 -13   69.73    8.84
   0   1 -13   84.33    8.51
   0   1 -13   57.06    9.19
   0   1 -13   75.74    8.77
  -1  -1 -13   50.30    6.57
  -1  -1 -13   47.53    6.92
  -1  -1 -13   44.37    5.97
  -1  -1 -13   44.76    6.99
  -1   1 -13   44.72    6.34
  -1   1 -13   54.82    6.40
  -2  -1 -13    3.78    3.17
  -2  -1 -13    8.96    2.91
  -2  -1 -13    4.71    2.94
  -2  -1 -13    3.25    2.12
  -2   1 -13    4.09    2.59
  -2   1 -13    5.42    2.73
  -2   1 -13   -2.73    3.11
  -3  -1 -13    0.96    1.85
  -3  -1 -13    0.96    2.58
  -3  -1 -13   -1.05    2.89
  -3  -1 -13    2.09    2.60
  -3   1 -13    1.86    2.22
  -3   1 -13    0.06    2.90
  -4  -1 -13    2.16    2.65
  -4  -1 -13    5.48    2.57
  -4  -1 -13    5.03    2.44
  -4  -1 -13   -2.52    2.83
  -4   1 -13    0.27    2.59
  -4   1 -13   -2.61    3.31
  -4   1 -13   -2.77    2.83
  -5  -1 -13    7.35    2.73
  -5  -1 -13    9.54    3.01
  -5  -1 -13    1.57    3.16
  -5   1 -13    9.17    3.80
  -6  -1 -13    6.46    3.38
  -6  -1 -13    3.64    2.44
  -6   1 -13    7.76    2.84
  -6   1 -13    9.77    3.53
  -7  -1 -13   39.51    7.70
  -7   1 -13   56.44    7.59
  12  -2 -13    6.45    3.30
  12  -2 -13   -2.51    3.64
  12  -2 -13    5.71    3.58
 -12  -2  13   -7.56    7.75
  12   2 -13    8.67    3.16
 -11  -2  13   50.47    8.70
  11  -2 -13   42.00    6.47
  11  -2 -13   43.08    7.93
  11  -2 -13   26.37    5.89
  11   2 -13   36.83    6.47
 -11   2  13   60.57   10.84
  11   2 -13   38.49    7.29
  10  -2 -13    1.97    2.95
 -10  -2  13    7.86    3.56
  10  -2 -13    8.75    2.71
  10  -2 -13    6.59    2.90
  10  -2 -13   14.29    3.99
 -10   2  13   -9.57    7.99
  10   2 -13    1.17    3.21
  10   2 -13    2.28    2.50
  -9  -2  13    1.01    3.94
   9  -2 -13    2.57    2.51
   9  -2 -13    6.41    3.73
  -9   2  13   12.81    8.06
   9   2 -13    4.46    2.52
  -8  -2  13   34.83    6.91
   8  -2 -13   49.27    6.68
  -8  -2  13   58.89   10.21
   8  -2 -13   43.52    5.76
   8  -2 -13   46.85    6.82
   8   2 -13   43.14    6.17
  -7  -2  13   13.45    4.34
   7  -2 -13    1.10    4.01
   7  -2 -13    5.50    2.64
   7  -2 -13    7.82    2.72
  -7  -2  13   -1.22    3.73
   7   2 -13    3.17    2.24
   6  -2 -13   -3.37    3.78
   6  -2 -13    1.63    2.27
  -6  -2  13    4.20    2.64
   6  -2 -13    6.84    2.10
   6  -2 -13   -4.59    3.14
  -6  -2  13   -2.92    4.54
   6   2 -13    3.90    1.80
  -6   2  13    1.73    4.05
   5  -2 -13   33.61    5.51
   5  -2 -13   24.36    5.60
  -5  -2  13   22.92    4.70
   5  -2 -13   26.95    4.61
  -5  -2  13   16.53    5.98
   5  -2 -13   29.34    4.63
  -5   2  13   35.37    6.43
   5   2 -13   22.91    4.58
   4  -2 -13   77.97    7.53
   4  -2 -13   72.76    9.73
  -4  -2  13   59.93    7.98
   4  -2 -13   64.41    7.91
   4  -2 -13   68.65    8.09
  -4   2  13   62.38    9.72
   4   2 -13   68.39    8.68
   4   2 -13   73.57    8.45
   3  -2 -13    1.25    2.26
   3  -2 -13    2.00    2.00
   3  -2 -13   -2.14    3.11
   3  -2 -13    2.05    2.18
   3   2 -13    1.65    2.52
   3   2 -13    6.06    2.12
   2  -2 -13    5.60    2.53
   2  -2 -13    6.39    3.58
   2  -2 -13    9.12    2.90
   2  -2 -13    5.42    3.27
   2   2 -13    9.28    2.36
   2   2 -13    2.82    2.62
   1  -2 -13   42.63    6.42
   1  -2 -13   44.85    5.97
   1  -2 -13   44.68    7.66
   1  -2 -13   45.04    6.57
   1   2 -13   45.86    6.35
   1   2 -13   41.45    5.88
   0  -2 -13   35.69    6.02
   0  -2 -13   47.24    5.84
   0  -2 -13   43.60    6.95
   0  -2 -13   45.57    6.53
   0   2 -13   42.96    5.50
   0   2 -13   32.52    6.33
  -1  -2 -13    6.78    2.89
  -1  -2 -13    3.28    2.78
  -1  -2 -13    2.74    3.22
  -1  -2 -13    4.25    2.47
  -1   2 -13    0.63    2.68
  -1   2 -13    3.00    1.99
  -2  -2 -13   68.47    9.45
  -2  -2 -13   58.28    9.57
  -2  -2 -13   71.74    8.33
  -2  -2 -13   63.61    7.64
  -2   2 -13   55.18    8.30
  -3  -2 -13   30.89    5.88
  -3  -2 -13   30.57    5.65
  -3  -2 -13   35.22    5.66
  -3  -2 -13   26.08    5.84
  -3   2 -13   39.06    5.90
  -4  -2 -13    4.80    2.99
  -4  -2 -13    8.88    3.09
  -4  -2 -13    1.63    3.68
  -4  -2 -13    4.93    2.89
  -4   2 -13    0.45    3.13
  -5  -2 -13    9.79    4.35
  -5  -2 -13   16.54    3.84
  -5  -2 -13    7.22    3.73
  -5   2 -13    6.81    4.14
  -6  -2 -13   41.16    7.00
  -6  -2 -13   38.65    6.99
  -9  -3  13   30.55    5.71
   9  -3 -13   32.53    5.68
   9   3 -13   20.09    4.59
   8  -3 -13   12.16    3.10
  -8  -3  13   14.49    4.84
   8  -3 -13   -1.01    5.20
   8   3 -13    4.73    3.54
  -8   3  13    1.29    7.75
  -7  -3  13   13.09    4.42
   7  -3 -13   14.17    3.44
   7   3 -13   11.12    3.06
  -7   3  13   24.07    8.02
   6  -3 -13   23.69    5.91
  -6  -3  13   28.07    5.52
   6  -3 -13   36.06    5.23
   5  -3 -13   13.96    3.22
   5  -3 -13   19.11    3.48
   5  -3 -13    7.51    5.42
  -5  -3  13    4.83    5.37
  -5  -3  13   12.82    3.96
   4  -3 -13   -1.94    2.35
  -4  -3  13   -4.63    3.41
   4  -3 -13   -4.06    4.21
   4  -3 -13    7.96    2.75
  -4   3  13    8.40    3.41
   3  -3 -13  114.04   11.00
  -3  -3  13   89.35   10.85
   3  -3 -13  108.97   10.96
   3  -3 -13  114.83   13.45
   3  -3 -13   91.43    9.97
   3   3 -13  100.95   11.52
  -2  -3  13   32.89    6.82
   2  -3 -13   38.45    6.68
   2  -3 -13   54.99    6.57
   2  -3 -13   54.17    8.66
   2  -3 -13   55.73    6.43
   2   3 -13   36.00    6.90
   1  -3 -13   -0.43    3.80
   1  -3 -13   -4.74    2.71
   1  -3 -13    2.29    2.80
   1   3 -13    4.61    2.77
   0  -3 -13   27.83    6.19
   0  -3 -13   20.77    4.32
   0  -3 -13   24.46    4.34
  -1  -3 -13   12.97    3.61
  -1  -3 -13   11.63    4.02
  -1  -3 -13   17.12    5.01
  -1  -3 -13   20.69    3.90
  -2  -3 -13    9.17    3.47
  -2  -3 -13    9.48    3.60
  -2  -3 -13   11.32    3.64
  -2  -3 -13   12.78    5.03
  -3  -3 -13   12.71    3.87
  -3  -3 -13   18.77    5.40
  -3  -3 -13   13.37    4.33
  13   0 -14   42.40    8.31
 -13   0  14   45.04   12.13
  13   0 -14   41.51    7.60
 -12   0  14  132.87   20.96
  12   0 -14  153.01   16.23
  12   0 -14  159.01   16.71
  11   0 -14   32.63    5.71
  11   0 -14   38.19    6.57
  11   0 -14   39.68    7.12
  11   0 -14   39.27    6.63
  10   0 -14   71.67    8.26
  10   0 -14   65.86    8.93
  10   0 -14   86.95   10.21
   9   0 -14   95.39   11.06
   9   0 -14   96.84   11.90
  -9   0  14  110.47   14.34
   9   0 -14   96.83    9.97
   8   0 -14   27.23    5.27
   8   0 -14   29.42    4.58
   8   0 -14   27.46    4.92
  -8   0  14   40.26    8.10
   8   0 -14   23.31    5.05
   7   0 -14   14.65    3.74
   7   0 -14   17.10    3.73
  -7   0  14   23.15    5.85
  -7   0  14   15.45    3.29
   7   0 -14   17.29    4.34
   7   0 -14   15.90    3.00
   6   0 -14  148.42   15.07
   6   0 -14  142.12   12.95
   6   0 -14  123.41   14.01
  -6   0  14  126.58   13.26
   6   0 -14  155.23   14.93
  -6   0  14  144.25   16.95
   5   0 -14   69.37    9.18
   5   0 -14   90.77    9.54
  -5   0  14   69.13    8.18
  -5   0  14   77.43   11.43
   5   0 -14   80.66   10.00
   5   0 -14   84.03    8.12
   4   0 -14    3.28    2.34
   4   0 -14    0.53    1.90
   4   0 -14    2.67    2.59
   4   0 -14    3.92    1.84
   3   0 -14   57.76    7.54
   3   0 -14   55.78    8.20
   3   0 -14   78.78    7.17
   3   0 -14   64.50    7.88
   2   0 -14  165.77   15.11
   2   0 -14  171.50   17.37
   1   0 -14    9.94    3.00
   1   0 -14    6.62    2.77
   1   0 -14    5.73    2.28
   1   0 -14    7.55    2.97
   0   0 -14  175.76   15.91
   0   0 -14  173.17   14.77
   0   0 -14  133.75   16.55
  -1   0 -14  122.62   12.37
  -1   0 -14  108.45   10.82
  -1   0 -14   90.05   12.09
  -1   0 -14  124.50   11.89
  -2   0 -14   61.10    8.46
  -2   0 -14   58.50    8.02
  -2   0 -14   64.87    7.96
  -2   0 -14   60.85    7.16
  -3   0 -14    3.02    2.56
  -3   0 -14   -0.78    2.76
  -3   0 -14   -1.98    3.09
  -4   0 -14  103.02   12.09
  -4   0 -14   89.64   10.31
  -4   0 -14   88.14   10.44
  -5   0 -14   92.29   10.67
  -5   0 -14   74.62    9.47
  -5   0 -14   78.60    9.76
  -7   0 -14   54.11    7.91
  -7   0 -14   38.43    7.46
  12  -1 -14   40.56    7.87
 -12  -1  14   50.11   12.48
  12  -1 -14   31.37    5.88
  12  -1 -14   37.54    6.83
  12  -1 -14   34.30    6.28
  12   1 -14   33.88    6.41
 -12   1  14   38.27   11.91
  12   1 -14   38.07    7.13
  11  -1 -14   63.16   10.29
  11  -1 -14   75.21    9.51
  11  -1 -14   67.21    8.53
  11  -1 -14   77.90    9.59
  11   1 -14   84.20   10.06
 -11   1  14   87.92   14.76
  11   1 -14   73.21    9.57
 -10  -1  14   43.04    7.09
  10  -1 -14   37.70    5.85
  10  -1 -14   39.88    6.64
  10  -1 -14   36.41    6.89
  10   1 -14   41.02    6.20
  -9  -1  14    7.24    6.08
   9  -1 -14    6.94    2.78
   9  -1 -14    2.82    4.73
   9  -1 -14    4.42    2.59
  -9  -1  14    6.89    3.22
   9   1 -14    6.28    2.69
   8  -1 -14   33.81    6.59
   8  -1 -14   44.51    7.25
   8  -1 -14   32.98    4.87
   8  -1 -14   40.91    6.17
  -8  -1  14   26.13    5.42
  -8   1  14   48.20    9.64
   8   1 -14   36.78    5.88
   8   1 -14   35.06    6.42
   7  -1 -14  107.16   10.13
   7  -1 -14  102.97   11.86
  -7  -1  14   97.02   13.58
   7  -1 -14  104.33   11.73
  -7  -1  14   82.56   10.07
   7   1 -14  107.21   11.93
  -7   1  14  107.17   13.40
   7   1 -14  102.60   11.92
   7   1 -14  103.88   11.12
  -6  -1  14    3.32    4.72
   6  -1 -14    8.82    3.74
   6  -1 -14    7.07    2.49
   6  -1 -14    7.57    3.08
   6  -1 -14    7.24    2.97
  -6  -1  14    4.59    3.56
   6   1 -14   13.46    3.78
   6   1 -14    9.84    2.25
   6   1 -14    5.92    3.05
   6   1 -14    8.46    3.47
  -6   1  14    8.68    4.29
   5  -1 -14   76.76    8.64
   5  -1 -14   75.27    7.67
  -5  -1  14   68.82   11.33
   5  -1 -14   66.46    8.58
  -5  -1  14   62.26    8.00
   5   1 -14   74.03    7.47
   5   1 -14   67.65    8.88
   5   1 -14   64.22    8.78
   5   1 -14   73.98    8.86
  -5   1  14   76.32   10.72
   4  -1 -14   74.16    7.25
   4  -1 -14   62.89    7.75
   4  -1 -14   58.56    8.37
   4  -1 -14   50.51    7.65
   4   1 -14   70.83    8.61
   4   1 -14   71.14    8.19
   4   1 -14   65.69    8.88
  -4   1  14   62.58   10.70
   4   1 -14   64.24    6.86
   3  -1 -14   40.29    4.99
   3  -1 -14   33.52    6.57
   3  -1 -14   39.54    5.72
   3  -1 -14   33.59    6.28
   3   1 -14   34.98    5.22
   3   1 -14   38.20    4.90
   3   1 -14   32.70    6.86
   3   1 -14   35.16    5.67
   2  -1 -14   10.57    3.41
   2  -1 -14    9.75    2.82
   2  -1 -14   12.87    3.46
   2  -1 -14   14.19    3.08
   2   1 -14   14.11    3.35
   2   1 -14   10.59    4.01
   2   1 -14    9.72    2.52
   2   1 -14   11.31    2.70
   1  -1 -14  105.13    9.87
   1  -1 -14  103.87   11.37
   1  -1 -14  101.64   10.64
   1  -1 -14  101.28   11.13
   1   1 -14   86.34   11.67
   1   1 -14  111.29   11.32
   1   1 -14   81.42   10.30
   0  -1 -14  157.96   14.69
   0  -1 -14  161.19   16.53
   0  -1 -14  153.76   16.73
   0   1 -14  176.48   16.62
   0   1 -14  178.23   15.91
   0   1 -14  126.96   16.74
  -1  -1 -14    6.66    2.79
  -1  -1 -14    2.25    3.44
  -1  -1 -14    2.87    2.58
  -1  -1 -14    3.89    2.39
  -1   1 -14    6.23    2.71
  -1   1 -14   -2.15    3.13
  -1   1 -14    2.38    2.15
  -2  -1 -14   45.29    7.93
  -2  -1 -14   64.82    6.86
  -2  -1 -14   55.04    7.41
  -2  -1 -14   46.04    8.03
  -2   1 -14   48.22    6.91
  -2   1 -14   52.42    7.80
  -3  -1 -14   98.63   11.52
  -3  -1 -14  105.63   12.12
  -3  -1 -14  110.85   10.99
  -3  -1 -14  110.79   12.70
  -3   1 -14  115.03   12.46
  -4  -1 -14    9.99    3.73
  -4  -1 -14   11.68    3.36
  -4  -1 -14   14.57    3.85
  -4   1 -14    8.51    3.58
  -4   1 -14    3.07    4.05
  -5  -1 -14   23.34    4.77
  -5   1 -14   18.33    5.83
  -5   1 -14   12.64    3.59
  -6  -1 -14   52.01    8.07
  -6  -1 -14   64.54    8.26
  -6   1 -14   42.30    6.86
  -6   1 -14   50.92   10.02
 -11  -2  14   -3.19    4.52
 -10  -2  14   20.74    4.72
  10  -2 -14   16.67    3.93
  10  -2 -14   32.09    5.48
  10   2 -14   15.48    4.23
  10   2 -14   21.45    4.99
 -10   2  14   18.44   10.01
   9  -2 -14   70.80    8.81
   9  -2 -14   53.65    9.27
  -9  -2  14   50.22    9.04
   9  -2 -14   65.71    7.60
   9   2 -14   71.58    8.64
   9   2 -14   71.75    8.40
  -8  -2  14   51.98    9.24
   8  -2 -14   31.56    5.97
   8  -2 -14   31.78    6.12
   7  -2 -14    3.94    4.58
  -7  -2  14   -1.78    3.82
   7  -2 -14    0.25    3.54
   7  -2 -14    8.54    3.35
  -7  -2  14   12.59    5.33
   7  -2 -14   10.44    3.02
   7   2 -14    8.26    2.51
   6  -2 -14   51.89    7.06
   6  -2 -14   47.45    5.92
   6  -2 -14   40.36    7.81
  -6  -2  14   34.40    7.78
   6  -2 -14   35.85    7.81
  -6  -2  14   40.30    6.58
   6   2 -14   41.59    7.63
  -5  -2  14   28.76    5.35
  -5  -2  14   31.59    7.40
   5  -2 -14   42.83    6.50
   5  -2 -14   34.60    5.32
   5  -2 -14   23.09    6.14
   5  -2 -14   30.91    6.42
  -5   2  14   38.33    7.40
   5   2 -14   43.61    6.69
   5   2 -14   30.12    5.59
   4  -2 -14    6.65    2.70
   4  -2 -14    3.15    4.21
  -4  -2  14    2.07    3.29
   4  -2 -14    3.50    2.34
  -4   2  14    3.72    4.40
   4   2 -14    0.86    3.61
   3  -2 -14   55.89    7.63
   3  -2 -14   64.00    6.91
   3  -2 -14   51.03    9.16
   3  -2 -14   60.95    7.57
  -3   2  14   57.73    9.11
   3   2 -14   56.88    7.36
   3   2 -14   71.12    8.93
   2  -2 -14   38.84    7.30
   2  -2 -14   32.71    7.15
   2  -2 -14   41.93    6.38
   2  -2 -14   43.19    5.77
   2   2 -14   29.72    5.23
   1  -2 -14    8.79    4.09
   1  -2 -14   11.33    3.34
   1  -2 -14   16.69    3.63
   1  -2 -14    9.58    3.53
   1   2 -14    9.05    2.69
   0  -2 -14    3.85    2.60
   0  -2 -14    6.50    3.01
   0  -2 -14    2.40    3.96
   0  -2 -14    4.85    2.76
   0   2 -14    2.97    2.81
   0   2 -14    4.87    1.96
  -1  -2 -14   30.66    6.03
  -1  -2 -14   39.05    6.62
  -1  -2 -14   39.66    5.70
  -1  -2 -14   35.75    5.95
  -1   2 -14   29.04    5.55
  -2  -2 -14    2.70    3.49
  -2  -2 -14    6.06    3.99
  -2  -2 -14    7.75    3.43
  -2  -2 -14    3.99    3.41
  -2   2 -14    4.42    3.01
  -3  -2 -14    3.29    2.54
  -3  -2 -14    0.96    2.96
  -3  -2 -14   -4.55    3.36
  -3  -2 -14    1.84    3.24
  -4  -2 -14   31.12    5.55
  -4  -2 -14   17.50    5.16
  -4  -2 -14   37.62    6.11
  -4  -2 -14   34.27    7.11
  -4   2 -14   22.82    5.25
  -5  -2 -14   18.59    4.26
  -5  -2 -14   14.54    4.87
  -5   2 -14   18.14    4.48
   8  -3 -14   -4.28    4.57
  -8  -3  14    0.13    4.63
   8   3 -14    5.46    3.49
  -8   3  14   -5.47    7.89
   7  -3 -14   31.22    5.29
  -6  -3  14    1.23    5.02
   6  -3 -14   -1.05    2.47
   6  -3 -14    3.39    2.93
   5  -3 -14    2.57    2.94
   5  -3 -14   -6.51    4.99
  -5  -3  14    7.35    3.31
   5  -3 -14    1.37    2.59
   4  -3 -14    0.37    3.20
   4  -3 -14    3.75    4.80
   4  -3 -14    8.05    2.96
  -4  -3  14    1.41    4.05
  -4  -3  14   -2.04    6.62
   3  -3 -14    7.12    2.41
   3  -3 -14    1.20    2.48
   3  -3 -14   -2.75    4.52
   2  -3 -14   -0.95    2.64
   2  -3 -14    3.41    2.50
   2  -3 -14   -0.10    4.65
   2  -3 -14    0.13    2.84
   1  -3 -14    5.45    2.93
   1  -3 -14   -5.43    3.33
   1  -3 -14    0.01    4.90
   1  -3 -14    0.83    3.45
   0  -3 -14    3.76    3.19
   0  -3 -14    9.76    3.18
   0  -3 -14   -0.64    3.09
   0  -3 -14   -1.22    4.24
  -1  -3 -14    4.32    2.91
  -1  -3 -14   -3.09    4.57
  -1  -3 -14    0.50    2.69
  -1  -3 -14    2.56    2.85
  -2  -3 -14    4.91    3.44
  -2  -3 -14    4.06    3.31
  -2  -3 -14    3.68    4.33
  -2  -3 -14    7.14    3.05
  13   0 -15   -0.64    3.14
  13   0 -15   -4.75    3.25
 -12   0  15    5.56    9.09
  12   0 -15   -0.55    3.08
  12   0 -15   -0.46    2.83
  11   0 -15   -2.93    3.61
  11   0 -15    4.75    2.43
  11   0 -15   -1.45    2.33
   9   0 -15   -2.74    3.91
   9   0 -15   -0.01    2.24
  -9   0  15    4.26    5.83
   9   0 -15    3.49    2.41
   8   0 -15    3.29    2.39
  -8   0  15    9.14    4.23
   8   0 -15   -3.27    2.61
   8   0 -15    2.93    1.98
   8   0 -15   -4.09    3.85
   7   0 -15   -2.20    3.34
   7   0 -15   -2.85    2.74
   7   0 -15   -0.20    2.59
  -7   0  15   -3.62    2.83
  -7   0  15    0.14    4.47
   7   0 -15   -1.01    1.95
   6   0 -15   -0.59    1.88
   6   0 -15    1.60    2.26
   6   0 -15   -1.29    3.31
   6   0 -15   -0.36    2.46
  -6   0  15   -5.65    2.67
  -6   0  15   -5.26    4.26
  -5   0  15   -3.56    4.72
  -5   0  15   -5.20    2.79
   5   0 -15    1.30    2.29
   5   0 -15    0.42    1.97
   5   0 -15   -0.57    3.40
   5   0 -15   -2.75    2.41
   4   0 -15    3.42    1.82
   4   0 -15   -0.18    2.04
   4   0 -15    0.37    2.86
   4   0 -15    0.16    2.12
   3   0 -15    1.59    1.94
   3   0 -15    1.21    2.28
   3   0 -15   -0.21    2.06
   3   0 -15    1.15    2.15
   2   0 -15    2.25    3.09
   2   0 -15    2.34    1.89
   2   0 -15   -0.56    2.51
   2   0 -15    1.72    2.08
   1   0 -15   -2.83    2.20
   1   0 -15    0.62    2.43
   1   0 -15    0.59    3.19
   1   0 -15    1.80    2.27
   0   0 -15   -0.85    2.03
   0   0 -15   -1.00    2.03
   0   0 -15    2.58    2.31
   0   0 -15   -0.07    2.60
  -1   0 -15   -0.72    2.61
  -1   0 -15   -0.07    2.34
  -1   0 -15   -0.82    2.33
  -1   0 -15    1.08    3.01
  -2   0 -15    0.65    2.71
  -2   0 -15    2.81    2.94
  -2   0 -15    3.00    2.50
  -3   0 -15   -3.39    3.28
  -3   0 -15    3.12    2.78
  -3   0 -15   -3.92    2.73
  -4   0 -15   -0.25    2.43
  -4   0 -15    4.27    2.72
  -4   0 -15   -4.73    3.54
  -5   0 -15    7.01    2.55
  -5   0 -15    4.42    2.91
  -5   0 -15    3.44    4.43
  -6   0 -15    5.43    2.85
  -6   0 -15   10.56    4.05
  12  -1 -15   31.89    6.17
  12  -1 -15   40.16    7.65
  12  -1 -15   24.89    5.50
  12  -1 -15   36.65    6.52
  12   1 -15   36.59    6.36
  12   1 -15   31.81    6.51
 -12   1  15   41.07   12.54
  11   1 -15    3.54    2.31
 -10   1  15   20.79    7.57
   9  -1 -15   14.73    3.33
   9  -1 -15   13.01    5.67
   9  -1 -15   12.16    3.27
  -9  -1  15   10.58    3.63
  -9  -1  15   23.68    6.98
   9   1 -15   16.84    3.87
   8  -1 -15    1.90    3.34
   8  -1 -15    5.93    2.41
  -8  -1  15   16.95    4.93
   8  -1 -15   11.14    4.12
   8  -1 -15    7.65    2.84
   8   1 -15    6.65    4.10
   8   1 -15    9.16    2.85
  -8   1  15   14.43    6.07
  -7  -1  15    1.00    2.78
   7  -1 -15    3.61    2.36
   7  -1 -15    1.08    3.57
   7  -1 -15   -4.53    2.92
  -7  -1  15   -2.05    4.88
   7  -1 -15    0.54    2.18
   7   1 -15   -0.94    3.02
   7   1 -15   -1.50    2.78
  -7   1  15   10.14    4.46
   7   1 -15    6.32    2.40
   6  -1 -15    6.52    3.43
  -6  -1  15   -0.12    3.39
   6  -1 -15    3.86    2.88
  -6  -1  15   -1.14    5.20
   6  -1 -15    7.49    2.61
   6  -1 -15    4.43    2.54
   6   1 -15    2.50    3.18
   6   1 -15    6.55    2.72
  -6   1  15    2.91    4.40
   6   1 -15    4.02    3.94
  -5  -1  15   20.44    7.07
   5  -1 -15   21.28    4.85
  -5  -1  15   16.55    4.37
   5  -1 -15   30.37    5.08
   5  -1 -15   29.59    4.99
   5  -1 -15   24.82    4.60
  -5   1  15   21.68    6.34
   5   1 -15   28.81    5.25
   5   1 -15   33.56    5.32
   5   1 -15   27.06    5.36
   4  -1 -15    5.63    2.81
   4  -1 -15    4.15    2.55
   4  -1 -15    3.08    2.23
   4  -1 -15    6.65    2.52
   4   1 -15    1.00    3.18
  -4   1  15    1.67    5.46
   4   1 -15    6.38    2.74
   4   1 -15    3.08    3.38
   3  -1 -15    9.04    3.00
   3  -1 -15    9.58    2.54
   3  -1 -15    9.06    3.92
   3  -1 -15    2.35    2.90
   3   1 -15    4.41    3.53
   3   1 -15    3.96    2.36
   2  -1 -15   -0.64    2.59
   2  -1 -15   -2.95    2.53
   2  -1 -15   -0.59    2.32
   2  -1 -15   -1.11    3.23
   2   1 -15   -3.65    3.52
   2   1 -15    0.74    2.49
   2   1 -15    2.04    1.87
   1  -1 -15   14.80    3.38
   1  -1 -15    9.63    3.89
   1  -1 -15   10.87    3.35
   1  -1 -15   13.25    3.60
   1   1 -15    7.86    3.69
   1   1 -15    7.50    4.22
   1   1 -15    8.24    2.53
   0  -1 -15   -1.64    3.43
   0  -1 -15    2.45    2.31
   0  -1 -15   -0.12    2.34
   0  -1 -15    0.72    2.21
   0   1 -15   -0.32    2.85
   0   1 -15   -4.81    3.66
   0   1 -15   -3.07    2.31
  -1  -1 -15   13.26    3.79
  -1  -1 -15   17.48    3.66
  -1  -1 -15   11.37    4.02
  -1  -1 -15   19.96    4.10
  -1   1 -15   15.39    3.71
  -1   1 -15    6.73    4.29
  -1   1 -15   26.72    5.12
  -2  -1 -15    3.20    3.99
  -2  -1 -15    6.13    3.62
  -2  -1 -15    9.03    3.12
  -2  -1 -15   11.10    2.94
  -2   1 -15   11.80    3.62
  -2   1 -15   11.04    3.06
  -2   1 -15    2.10    3.88
  -3  -1 -15    1.47    2.76
  -3  -1 -15   -3.82    3.41
  -3  -1 -15   -3.63    2.96
  -3   1 -15   -0.01    3.03
  -3   1 -15   -0.28    2.83
  -4  -1 -15   -3.29    3.63
  -4  -1 -15    5.54    4.05
  -4   1 -15   -4.61    3.49
  -4   1 -15   -0.04    3.90
  -4   1 -15    7.78    3.19
  -5  -1 -15    8.91    3.29
  -5  -1 -15    7.90    3.97
  -5  -1 -15   -5.59    3.53
  -5   1 -15    1.44    3.51
  -5   1 -15   -5.49    4.81
  -6  -1 -15   11.50    3.68
  11  -2 -15    7.30    5.72
  11  -2 -15   10.95    3.72
  11  -2 -15   17.12    4.25
  11  -2 -15   13.06    3.58
 -11  -2  15   19.22    4.78
 -11   2  15    5.76   10.57
  11   2 -15   10.37    4.46
  11   2 -15    7.50    3.45
  10  -2 -15   50.52    8.91
 -10   2  15   65.33   13.39
   9  -2 -15    9.05    4.36
  -9  -2  15    2.31    3.74
   9  -2 -15    5.74    2.78
  -9  -2  15   13.50    6.69
   9  -2 -15    7.18    3.02
   9   2 -15    6.83    2.13
   8  -2 -15   48.42    6.62
   8  -2 -15   39.55    6.83
   8  -2 -15   29.53    5.57
   8   2 -15   30.67    6.19
   7  -2 -15   42.15    6.19
  -7  -2  15   43.26    7.44
   7  -2 -15   38.93    7.69
  -7  -2  15   43.20    9.95
   7  -2 -15   37.45    6.76
   7   2 -15   56.86    6.69
   6  -2 -15    3.90    3.01
   6  -2 -15   -0.88    3.56
  -6  -2  15   -9.01    5.65
  -6  -2  15   -2.91    3.44
   6  -2 -15    1.46    3.31
   6  -2 -15    3.23    2.62
   6   2 -15   -3.46    3.35
  -5  -2  15   -4.15    3.36
   5  -2 -15    4.39    2.82
   5  -2 -15   -4.18    2.69
   5  -2 -15   -4.91    4.18
   5  -2 -15   -0.15    2.43
   5   2 -15   -0.45    2.77
  -5   2  15   -2.40    3.95
   5   2 -15   -5.96    3.34
   4  -2 -15   26.21    6.05
  -4  -2  15   30.11    5.44
   4  -2 -15   37.95    5.56
   4  -2 -15   36.02    6.05
   4   2 -15   35.08    6.10
  -4   2  15   32.24    6.89
   3  -2 -15   12.51    5.18
   3  -2 -15   12.02    3.11
   3  -2 -15   23.41    4.26
   3  -2 -15   24.79    5.00
   3   2 -15   16.61    3.87
   3   2 -15    6.14    3.87
  -3   2  15    6.99    6.46
   2  -2 -15    0.02    2.60
   2  -2 -15   -1.16    4.22
   2  -2 -15   -0.48    2.57
   1  -2 -15   45.96    7.59
   1  -2 -15   46.77    7.61
   1  -2 -15   48.54    6.56
   1  -2 -15   39.81    8.80
   1   2 -15   42.90    6.68
   1   2 -15   58.88    7.24
   0  -2 -15   14.55    3.56
   0  -2 -15   12.10    3.25
   0  -2 -15   10.61    4.55
   0   2 -15   10.00    3.47
  -1  -2 -15    1.07    3.32
  -1  -2 -15    3.62    3.16
  -1  -2 -15   -0.33    4.29
  -1  -2 -15    4.20    3.04
  -1   2 -15   -3.00    3.12
  -2  -2 -15   21.59    4.71
  -2  -2 -15   27.19    4.90
  -2  -2 -15   17.53    5.15
  -2   2 -15   20.00    5.03
  -3  -2 -15   13.04    5.18
  -3  -2 -15   16.72    4.43
  -3  -2 -15   18.02    4.03
  -3  -2 -15    6.97    4.90
  -4  -2 -15    1.86    4.21
  -4  -2 -15    4.17    3.45
  -4  -2 -15    7.03    2.95
   7  -3 -15   28.90    5.73
   6  -3 -15   61.12    8.06
   5  -3 -15   11.02    6.46
   5  -3 -15   16.77    3.76
  -5  -3  15    4.41    7.29
  -5  -3  15   16.80    4.27
   5  -3 -15   15.79    4.43
  -3  -3  15    3.84    4.16
   3  -3 -15    3.69    5.16
   3  -3 -15   10.17    3.21
   2  -3 -15   49.81    6.73
   2  -3 -15   42.87    7.22
   2  -3 -15   35.70    7.22
   2   3 -15   33.56    6.36
   1  -3 -15    6.00    3.23
   1  -3 -15    2.90    4.35
   1  -3 -15   -1.30    3.44
   0  -3 -15   -0.98    5.03
   0  -3 -15   -0.22    3.27
   0  -3 -15   -1.01    3.13
  -1  -3 -15   13.41    5.52
  -1  -3 -15   18.26    4.18
  -1  -3 -15   11.95    3.86
  12   0 -16   24.61    5.75
  12   0 -16   34.40    6.01
  12   0 -16   37.64    7.22
  11   0 -16   50.28    7.12
  11   0 -16   39.93    7.28
  10   0 -16   15.83    5.13
  10   0 -16   14.28    4.05
  10   0 -16   11.02    3.37
   9   0 -16   68.59    8.17
   9   0 -16   66.12   10.60
   9   0 -16   72.65    9.22
  -9   0  16   93.07   12.74
   8   0 -16   38.76    8.39
   8   0 -16   50.13    5.84
   8   0 -16   46.94    7.60
  -8   0  16   53.30    9.51
   8   0 -16   42.80    8.99
  -7   0  16    7.59    5.35
   7   0 -16   10.67    3.25
   7   0 -16    9.61    4.43
   7   0 -16    7.25    3.69
   7   0 -16    7.27    2.74
   6   0 -16   98.43    9.50
   6   0 -16   85.67   11.22
  -6   0  16   98.25   13.75
  -6   0  16   74.79    9.87
   6   0 -16   95.76   10.68
   6   0 -16   99.30   11.63
  -5   0  16  137.26   17.98
   5   0 -16  139.83   13.17
   5   0 -16  134.93   14.91
  -5   0  16  122.70   13.20
   5   0 -16  144.10   15.78
   5   0 -16  163.13   15.05
   4   0 -16   36.23    5.33
   4   0 -16   36.76    7.60
   4   0 -16   34.41    5.29
   4   0 -16   31.05    6.05
   3   0 -16    2.11    2.18
   3   0 -16    4.58    2.84
   3   0 -16    0.30    2.27
   3   0 -16    0.70    2.36
   2   0 -16   -1.17    2.87
   2   0 -16    2.78    2.29
   2   0 -16    5.45    3.00
   2   0 -16    5.15    2.26
   1   0 -16  189.68   17.81
   1   0 -16  158.32   18.51
   1   0 -16  184.77   18.59
   0   0 -16   -1.75    2.39
   0   0 -16   -1.00    2.47
   0   0 -16    1.94    2.96
   0   0 -16    1.60    3.47
  -1   0 -16   49.71    7.67
  -1   0 -16   50.06    8.00
  -1   0 -16   51.23    7.27
  -2   0 -16   84.01    9.67
  -2   0 -16   64.52    9.58
  -2   0 -16   78.81   10.03
  -3   0 -16    9.72    4.26
  -3   0 -16   12.86    3.72
  -3   0 -16   10.18    3.73
  -4   0 -16   15.44    4.52
  -4   0 -16   17.04    4.18
  -4   0 -16   11.01    5.14
  -5   0 -16   44.81    8.03
  -5   0 -16   39.82    7.42
  12  -1 -16    2.47    3.37
  12  -1 -16    3.51    2.86
 -12   1  16   -3.57   10.65
  10  -1 -16   44.35    8.28
  10  -1 -16   51.05    6.92
  10  -1 -16   57.54    8.31
  10   1 -16   52.55    7.53
   9  -1 -16    9.37    2.81
  -9  -1  16   19.01    6.25
   9  -1 -16    8.72    2.86
   9  -1 -16   -1.98    5.13
  -9  -1  16   -1.77    3.95
   9  -1 -16    2.33    3.64
   9   1 -16    8.00    2.95
   8  -1 -16   20.99    3.91
  -8  -1  16   20.66    6.05
  -8  -1  16   14.67    4.40
   8  -1 -16   15.30    4.63
   8  -1 -16   18.12    4.11
   8   1 -16   17.70    4.61
  -8   1  16   33.23    6.98
   8   1 -16   16.16    4.58
   7  -1 -16   55.92    6.92
   7  -1 -16   63.97    9.32
   7  -1 -16   60.08    7.78
  -7  -1  16   48.01    9.33
   7  -1 -16   56.94    8.94
  -7  -1  16   53.38    7.83
  -7   1  16   68.45   10.22
   7   1 -16   56.19    8.83
   7   1 -16   62.35    9.23
   7   1 -16   55.83    8.66
   6  -1 -16   59.06    9.47
  -6  -1  16   50.15   11.74
   6  -1 -16   60.63    8.11
   6  -1 -16   57.73    7.20
   6  -1 -16   78.93    9.70
  -6  -1  16   52.44    7.77
   6   1 -16   64.43    9.46
   6   1 -16   69.49    9.32
   6   1 -16   73.61    8.46
  -6   1  16   69.27   10.83
  -5  -1  16   -6.21    3.25
   5  -1 -16   -0.75    2.34
   5  -1 -16    5.60    2.64
  -5  -1  16   -9.69    6.16
   5  -1 -16    1.63    3.30
   5  -1 -16   -2.03    2.62
   5   1 -16   -1.41    3.40
   5   1 -16   -2.25    2.89
   5   1 -16    5.65    2.51
   4  -1 -16   68.90    8.66
   4  -1 -16   78.83    8.91
   4  -1 -16   73.62    7.94
   4   1 -16   57.87    8.76
   4   1 -16   70.91    9.60
  -4   1  16   74.68   11.71
   4   1 -16   62.69    9.28
   3  -1 -16   93.02    8.94
   3  -1 -16   70.20   10.43
   3  -1 -16   92.46    9.97
   3  -1 -16   82.35   10.06
   3   1 -16   77.57    9.53
   3   1 -16   95.70   11.01
   3   1 -16   82.17    9.80
   2  -1 -16    8.86    3.05
   2  -1 -16    6.35    3.47
   2  -1 -16    7.09    4.28
   2  -1 -16    9.47    3.38
   2   1 -16    7.31    2.54
   2   1 -16    6.88    4.54
   2   1 -16    8.45    3.04
   1  -1 -16   16.99    3.97
   1  -1 -16   29.35    5.24
   1  -1 -16   19.15    5.12
   1  -1 -16   22.58    4.63
   1   1 -16   19.50    4.68
   1   1 -16   21.09    5.14
   1   1 -16   31.61    5.33
   0  -1 -16   74.23    8.38
   0  -1 -16   82.95    9.38
   0  -1 -16   66.37    9.02
   0  -1 -16   63.50    9.91
   0   1 -16   63.15   10.57
   0   1 -16   83.70    9.97
   0   1 -16   81.88    9.47
  -1  -1 -16    8.02    3.14
  -1  -1 -16    5.39    4.02
  -1  -1 -16    7.55    3.66
  -1  -1 -16    9.72    3.26
  -1   1 -16    7.51    3.54
  -1   1 -16   12.42    3.68
  -1   1 -16    1.74    4.45
  -2  -1 -16    1.13    3.01
  -2  -1 -16    1.18    2.81
  -2  -1 -16   -2.25    3.11
  -2  -1 -16    3.38    2.61
  -2   1 -16    7.83    2.86
  -2   1 -16   -4.67    3.92
  -2   1 -16    0.37    2.62
  -3  -1 -16   24.40    6.26
  -3  -1 -16   34.01    5.96
  -3   1 -16   34.64    6.27
  -3   1 -16   27.99    5.80
  -4  -1 -16   60.24    8.45
  -4  -1 -16   43.51    9.53
  -4   1 -16   45.49    7.43
  -4   1 -16   50.55    8.46
  -5  -1 -16   -6.29    3.28
  -5  -1 -16    3.44    2.38
  -5  -1 -16   -4.18    4.14
   9  -2 -16   36.41    6.60
   9  -2 -16   32.53    5.48
  -9  -2  16   59.31   11.67
   9   2 -16   36.19    5.87
   8  -2 -16   20.92    5.06
   8  -2 -16   14.48    3.86
   8  -2 -16   16.26    3.76
   8  -2 -16    9.98    4.32
   8   2 -16   16.13    3.82
  -7  -2  16    5.89    3.37
   7  -2 -16    4.03    3.83
  -7  -2  16   -4.07    5.99
   7  -2 -16    6.82    2.87
  -7   2  16   11.60    5.65
   5  -2 -16    8.95    4.89
   5  -2 -16    9.80    3.96
  -5  -2  16    8.88    4.39
   5  -2 -16   15.58    3.65
  -5  -2  16    8.46    7.76
  -5   2  16   17.70    5.12
   5   2 -16   17.77    4.35
   5   2 -16   11.25    4.45
   4  -2 -16   -1.93    4.29
   4  -2 -16   10.04    3.36
  -4  -2  16    0.17    3.77
   4  -2 -16    6.48    3.06
  -4   2  16   -1.33    5.34
   4   2 -16    8.72    3.96
   3  -2 -16   18.13    3.68
   3  -2 -16   11.67    5.60
   3  -2 -16   15.64    3.79
   3   2 -16   19.65    4.23
  -3   2  16   11.91    7.34
   3   2 -16   11.86    4.72
   2  -2 -16   27.66    5.65
   2  -2 -16   31.18    6.86
   2  -2 -16   41.13    6.95
   2  -2 -16   43.02    6.34
   1  -2 -16   23.75    5.24
   1  -2 -16   20.74    5.62
   1  -2 -16   27.02    5.16
   1  -2 -16   19.91    4.04
   0  -2 -16   -2.82    2.64
   0  -2 -16   -0.77    2.90
   0  -2 -16   -4.04    3.85
   0   2 -16    2.44    2.58
  -1  -2 -16   15.33    3.97
  -1  -2 -16   14.03    3.96
  -1  -2 -16    3.24    4.97
  -1  -2 -16   11.19    3.86
  -2  -2 -16   18.07    5.91
  -2  -2 -16   32.41    6.12
  -2  -2 -16   20.69    4.87
  -2   2 -16   19.65    5.01
  -3  -2 -16   -7.01    4.35
  -3  -2 -16    0.65    3.06
  -3  -2 -16   -5.75    3.83
  -3  -2 -16    6.50    3.71
  -3   2 -16    5.18    3.85
  -5  -3  16   -3.91    4.11
   5  -3 -16   -2.45    2.85
   4  -3 -16   -5.95    4.91
   4  -3 -16    5.06    3.14
   4  -3 -16   -0.18    3.52
  -4  -3  16   -3.62    4.35
   4   3 -16   -3.49    3.49
  -3  -3  16   -5.09    4.18
   3  -3 -16    5.77    3.17
   3  -3 -16   11.66    2.90
   3  -3 -16   -6.38    4.85
   2  -3 -16   -0.27    3.11
   2  -3 -16   -1.44    3.06
   2  -3 -16    4.81    2.88
   1  -3 -16   -5.80    5.28
   1  -3 -16    0.37    3.34
   1  -3 -16   -3.75    3.47
  11   0 -17    5.64    2.66
  11   0 -17   -2.64    4.11
  10   0 -17   -4.21    3.67
  10   0 -17    1.67    2.77
 -10   0  17    7.67    7.08
   9   0 -17   -3.03    3.36
   9   0 -17   -1.73    2.31
   9   0 -17   -4.34    4.38
   9   0 -17    6.92    2.55
   8   0 -17   -6.04    4.52
   8   0 -17   -5.61    3.21
   8   0 -17    0.18    2.67
  -8   0  17    3.11    5.04
   8   0 -17    3.22    1.78
   7   0 -17   -1.28    2.08
   7   0 -17   -4.54    3.39
   7   0 -17   -6.85    3.64
  -7   0  17   -5.55    5.25
  -6   0  17   -7.61    5.42
   6   0 -17   -5.79    4.10
   6   0 -17   -0.81    2.13
   6   0 -17   -1.03    3.07
   6   0 -17    6.17    2.67
   5   0 -17   -0.78    2.23
   5   0 -17    4.58    2.92
  -5   0  17   -9.99    6.23
   5   0 -17   -2.60    3.64
   5   0 -17   -2.44    2.62
   4   0 -17    0.88    2.31
   4   0 -17    5.90    2.15
   4   0 -17   -1.16    3.62
   4   0 -17   -2.23    2.27
   3   0 -17   -0.17    2.52
   3   0 -17    0.18    2.38
   3   0 -17   -1.60    2.27
   3   0 -17    3.36    3.71
   2   0 -17    3.16    2.79
   2   0 -17   -3.52    3.03
   2   0 -17    4.81    2.74
   2   0 -17    0.40    2.00
   1   0 -17   -1.43    3.08
   1   0 -17   -2.12    2.81
   1   0 -17    7.51    3.21
   0   0 -17   -4.62    3.02
   0   0 -17    0.38    2.99
   0   0 -17    3.44    3.62
  -1   0 -17    4.04    3.58
  -1   0 -17   -1.60    2.84
  -1   0 -17    5.79    2.85
  -2   0 -17    3.15    3.35
  -2   0 -17    0.57    3.47
  -2   0 -17    1.20    2.82
  -3   0 -17   -0.20    3.25
  -3   0 -17    3.13    3.24
  -3   0 -17    2.29    2.65
  -4   0 -17    6.71    3.23
  -4   0 -17   -0.29    3.39
 -10  -1  17    3.58    7.06
   9  -1 -17    7.16    2.70
   9  -1 -17    6.51    2.42
   9   1 -17    1.38    3.79
   9   1 -17    5.42    2.54
  -9   1  17    7.42    7.06
   8  -1 -17   13.80    4.73
  -8  -1  17   21.24    4.22
   8  -1 -17   20.86    4.76
   8  -1 -17   27.31    5.86
  -8  -1  17   27.71    7.50
   8  -1 -17   13.26    3.55
   8   1 -17   19.45    5.46
   8   1 -17   13.73    4.67
   7  -1 -17   -1.33    2.40
   7  -1 -17    6.70    3.67
  -7  -1  17  -10.33    6.22
   7  -1 -17   -6.22    3.74
   7   1 -17   -4.43    3.36
   7   1 -17    1.84    3.30
  -7   1  17    0.57    5.35
   7   1 -17   -1.21    4.11
   6  -1 -17   10.58    4.37
   6  -1 -17    6.89    2.96
  -6  -1  17    0.43    3.93
  -6  -1  17    1.21    6.58
   6  -1 -17    5.11    3.70
  -6   1  17    7.10    6.02
   6   1 -17    9.03    4.25
   6   1 -17    7.37    4.21
   5  -1 -17   14.11    4.28
  -5  -1  17    3.03    7.40
   5  -1 -17    4.71    3.23
  -5  -1  17    4.39    4.10
   5  -1 -17   11.65    3.30
   5   1 -17   10.35    4.36
   5   1 -17    9.45    4.65
  -5   1  17    5.04    6.57
   4  -1 -17   28.58    5.31
   4  -1 -17   18.26    3.81
   4  -1 -17   19.08    4.59
   4  -1 -17   15.38    3.69
   4   1 -17   18.42    5.09
   4   1 -17   13.05    4.25
  -4   1  17   25.42    8.68
   3  -1 -17   13.28    3.17
   3  -1 -17   14.38    3.77
   3  -1 -17   14.33    3.43
   3  -1 -17   16.40    3.99
   3   1 -17   10.60    3.15
   3   1 -17   13.91    4.78
   2  -1 -17   23.93    5.27
   2  -1 -17   22.63    5.32
   2  -1 -17   36.67    5.28
   2  -1 -17   21.56    4.50
   2   1 -17   33.43    6.02
   2   1 -17   36.21    5.93
   2   1 -17   25.82    6.31
   1  -1 -17    9.85    4.39
   1  -1 -17    7.64    3.25
   1  -1 -17    7.04    4.59
   1  -1 -17   10.77    4.15
   1   1 -17    7.58    4.49
   1   1 -17    6.35    3.87
   1   1 -17   13.15    3.42
   0  -1 -17   -3.82    3.42
   0  -1 -17    1.57    2.99
   0  -1 -17    6.74    3.04
   0  -1 -17    3.63    2.90
   0   1 -17   -4.36    4.34
   0   1 -17   -2.24    2.85
   0   1 -17   -2.81    3.37
  -1  -1 -17    0.67    3.03
  -1  -1 -17    2.50    2.61
  -1  -1 -17   -4.03    3.88
  -1  -1 -17    4.43    3.35
  -1   1 -17   -4.34    2.84
  -1   1 -17   -4.73    4.29
  -1   1 -17    1.44    3.23
  -2  -1 -17    3.74    4.21
  -2  -1 -17   13.37    4.16
  -2  -1 -17   10.35    4.10
  -2   1 -17    2.99    4.80
  -2   1 -17    6.61    3.25
  -3  -1 -17   -4.02    3.60
  -3  -1 -17   -1.95    3.33
  -3  -1 -17    1.75    3.09
  -3   1 -17    2.94    2.96
  -3   1 -17    2.47    3.56
  -4  -1 -17   -5.44    3.67
  -4  -1 -17   -3.78    3.77
  -4   1 -17   -2.18    4.29
  -4   1 -17   -1.93    2.82
   9  -2 -17   42.79    6.67
   9   2 -17   29.90    6.00
   8  -2 -17    3.31    3.17
   8  -2 -17   -1.22    2.74
   8  -2 -17    8.00    4.39
   8   2 -17    7.05    2.60
   7  -2 -17   31.70    5.68
   7  -2 -17   22.85    6.05
  -7  -2  17   27.05    8.47
  -7  -2  17   38.16    6.56
   7   2 -17   26.08    5.66
  -6  -2  17   22.10    8.70
   6  -2 -17   30.81    6.92
   6  -2 -17   41.33    6.75
  -6  -2  17   23.61    5.82
   6   2 -17   27.23    5.53
   5  -2 -17   -2.09    2.88
   5  -2 -17   -3.85    3.92
  -5   2  17   -4.04    4.74
   4  -2 -17   13.76    3.89
   4  -2 -17    9.59    4.91
   4  -2 -17   14.42    3.85
   4   2 -17   19.25    4.70
  -4   2  17    0.95    6.45
   4   2 -17   16.81    3.79
   3  -2 -17   79.53   10.27
   3  -2 -17   76.05    8.52
   3  -2 -17   67.71   11.18
   3  -2 -17   78.29    9.74
  -3   2  17   79.19   12.94
   3   2 -17   86.62   10.40
   2  -2 -17    2.39    3.10
   2  -2 -17    3.28    3.00
   1  -2 -17    1.65    3.19
   1  -2 -17   -2.89    3.71
   1  -2 -17   -4.15    4.46
   1  -2 -17   -0.81    3.43
   0  -2 -17   22.73    4.76
   0  -2 -17   10.09    5.98
   0  -2 -17   23.14    4.93
   0  -2 -17   23.31    5.22
   0   2 -17   30.54    5.72
  -1  -2 -17   22.31    4.75
  -1  -2 -17   22.32    4.86
  -1  -2 -17   37.11    6.85
  -1   2 -17   12.34    4.97
  -2  -2 -17    0.08    3.17
  -2  -2 -17   -2.53    3.65
  -2  -2 -17    1.89    3.77
  -2   2 -17   -6.57    3.76
  11   0 -18   54.16   10.03
  11   0 -18   57.05    8.79
  10   0 -18   11.24    3.40
 -10   0  18   24.09    8.29
  10   0 -18   12.60    4.96
   9   0 -18   55.14    8.09
   8   0 -18   41.48    7.86
   8   0 -18   50.04    8.87
  -8   0  18   54.37   10.94
   8   0 -18   36.66    6.79
  -7   0  18    0.00    6.28
   7   0 -18    3.31    4.47
   7   0 -18    3.72    4.27
   6   0 -18    1.07    2.52
  -6   0  18   -9.63    6.18
   6   0 -18   -5.89    3.78
   6   0 -18   -4.84    4.72
   5   0 -18   99.03   11.46
   5   0 -18   92.83   11.72
  -5   0  18   74.15   15.72
   5   0 -18   74.72   10.46
   4   0 -18  133.56   14.08
   4   0 -18  148.83   15.33
   4   0 -18  113.38   13.75
   3   0 -18    0.86    2.80
   3   0 -18    1.48    2.87
   3   0 -18    0.46    3.84
   2   0 -18   72.55    9.00
   2   0 -18   71.51    9.85
   2   0 -18   57.40    9.91
   1   0 -18  107.73   11.97
   1   0 -18   87.30   11.77
   1   0 -18  100.96   12.34
   0   0 -18   25.42    5.26
   0   0 -18   20.92    4.98
  -1   0 -18   40.68    7.12
  -1   0 -18   36.68    6.88
  -2   0 -18   55.54    8.28
  -2   0 -18   61.27    8.20
  -2   0 -18   45.85    8.66
  -3   0 -18   47.00    9.02
  -3   0 -18   47.50    8.45
 -10  -1  18   80.01   13.36
  10  -1 -18   48.14    7.25
  10  -1 -18   63.65    8.57
  10  -1 -18   42.33    9.12
  10   1 -18   59.72    8.63
   9  -1 -18   29.70    7.09
   9  -1 -18   46.62    6.01
   9  -1 -18   27.30    8.02
   9  -1 -18   64.38    7.89
   9   1 -18   42.43    8.08
   9   1 -18   49.18    7.09
  -9   1  18   59.02   12.33
   8  -1 -18   -0.27    4.29
  -8  -1  18   13.02    3.00
  -8  -1  18    1.41    6.25
   8  -1 -18   -1.09    2.71
   8  -1 -18   -2.41    3.66
   8   1 -18   -4.07    4.17
   7  -1 -18   44.67    6.63
  -7  -1  18   29.53    9.21
   7  -1 -18   48.02    7.93
   7  -1 -18   51.55    8.61
   7   1 -18   67.76    9.47
   7   1 -18   42.77    7.65
   7   1 -18   48.61    8.45
  -7   1  18   55.68   11.03
  -6  -1  18   37.14    9.57
   6  -1 -18   47.06    6.63
   6  -1 -18   50.50    7.81
   6  -1 -18   48.95    8.79
  -6   1  18   46.75    9.17
   6   1 -18   41.31    8.89
   6   1 -18   54.23    8.56
   5  -1 -18   11.26    4.83
  -5  -1  18    4.05    8.15
   5  -1 -18    4.73    3.71
  -5  -1  18    0.24    4.05
   5  -1 -18    9.49    3.27
  -5   1  18    4.09    7.51
   5   1 -18   10.03    4.67
   5   1 -18    9.85    4.93
   4  -1 -18   67.39    8.52
   4  -1 -18   54.48    7.49
   4  -1 -18   67.16    9.08
   4  -1 -18   53.75    9.01
   4   1 -18   48.57    8.12
   4   1 -18   72.01    8.51
   4   1 -18   64.91    9.70
  -4   1  18   74.41   12.74
   3  -1 -18   34.47    5.79
   3  -1 -18   30.01    6.62
   3  -1 -18   39.31    7.03
   3  -1 -18   35.78    6.32
   3   1 -18   30.43    6.80
   2  -1 -18   18.20    5.46
   2  -1 -18   23.60    4.69
   2   1 -18   16.98    4.20
   2   1 -18   31.51    5.92
   2   1 -18   16.91    5.94
   1  -1 -18   -5.65    3.08
   1  -1 -18   -4.53    3.60
   1  -1 -18    6.27    3.83
   1  -1 -18    0.06    3.10
   1   1 -18   -2.87    3.24
   1   1 -18   -5.56    4.57
   1   1 -18    3.81    2.52
   0  -1 -18   35.62    7.47
   0  -1 -18   41.81    6.71
   0  -1 -18   44.15    7.67
   0   1 -18   39.84    7.33
   0   1 -18   34.69    6.46
   0   1 -18   29.97    6.82
  -1  -1 -18   72.72    8.86
  -1  -1 -18   53.34    9.61
  -1  -1 -18   61.78    8.91
  -1   1 -18   58.36   10.47
  -1   1 -18   72.57    9.78
  -1   1 -18   50.76    9.24
  -2  -1 -18   -3.71    4.15
  -2  -1 -18    3.13    3.34
  -2  -1 -18   -0.41    3.79
  -2   1 -18   -6.30    4.39
  -2   1 -18    9.23    3.92
  -2   1 -18   -3.52    2.94
  -3  -1 -18    2.86    4.49
  -3  -1 -18    9.96    3.44
  -3  -1 -18    4.21    3.94
  -3   1 -18    9.37    3.95
  -8  -2  18   60.01   11.93
   8  -2 -18   47.49    9.69
   8  -2 -18   54.42    9.72
  -8   2  18   81.56   12.83
   8   2 -18   59.42    8.20
   7  -2 -18   55.07    8.26
   7  -2 -18   44.64    7.86
  -7   2  18   75.18   10.78
   7   2 -18   64.93    7.99
   6  -2 -18    6.38    4.65
  -6   2  18   13.55    5.25
  -5  -2  18   -0.56    4.66
   5  -2 -18    7.15    3.52
   5  -2 -18    2.14    4.06
   5   2 -18    0.48    4.72
  -5   2  18    8.94    5.67
   4  -2 -18   10.91    3.83
   4  -2 -18    5.67    3.24
  -4  -2  18    2.38    4.64
   4  -2 -18    3.88    4.51
   3  -2 -18    6.34    3.28
   3  -2 -18   -4.52    4.27
   3  -2 -18    6.02    2.91
   3  -2 -18    4.61    3.51
   3   2 -18   10.47    4.13
   2  -2 -18    7.86    4.70
   2  -2 -18   14.43    3.72
   2  -2 -18    3.76    5.29
   2  -2 -18   17.04    4.08
   1  -2 -18   39.24    6.83
   1  -2 -18   39.71    6.74
   1  -2 -18   25.46    6.60
   1  -2 -18   20.61    7.24
   0  -2 -18   -3.83    3.73
   0  -2 -18    4.36    3.58
   0  -2 -18    2.09    3.52
   0   2 -18    7.70    3.38
  10   0 -19   -3.96    4.98
  10   0 -19    6.91    2.78
 -10   0  19   11.71    7.92
   8   0 -19   -0.33    3.74
  -8   0  19   -0.31    6.03
   7   0 -19   -5.57    4.41
   7   0 -19   -3.01    4.32
   5   0 -19   -9.16    4.81
   3   0 -19    3.30    2.95
   3   0 -19    3.00    3.22
   3   0 -19   -4.61    4.36
   2   0 -19    3.11    3.01
   2   0 -19    1.66    4.08
   2   0 -19   -2.38    3.34
   1   0 -19    0.55    3.19
   1   0 -19   -3.31    3.69
   1   0 -19    7.33    4.13
   0   0 -19   -5.11    3.25
   0   0 -19   -5.16    3.74
  -1   0 -19    2.05    3.47
  -1   0 -19   -5.91    3.01
   9  -1 -19    8.18    2.93
   9  -1 -19   12.26    3.53
  -9   1  19   17.54    7.04
  -8  -1  19    0.90    6.71
   8  -1 -19   -1.58    5.41
   8  -1 -19    3.66    3.64
   8  -1 -19   -1.73    2.63
   8   1 -19   -2.16    4.07
  -7  -1  19   -0.24    7.74
   7  -1 -19   15.18    5.27
   7  -1 -19    7.94    3.26
  -7   1  19   15.82    6.61
   7   1 -19   16.20    4.72
   7   1 -19   11.28    4.90
   7   1 -19    7.08    4.83
   6  -1 -19   -1.19    2.76
   6  -1 -19    5.88    4.82
   6  -1 -19    3.10    3.62
   6   1 -19   -4.22    4.64
   6   1 -19   -3.79    3.97
   5  -1 -19    6.94    4.31
   5  -1 -19    3.94    3.10
  -5  -1  19   -3.77    3.93
   5  -1 -19    3.23    3.86
  -5  -1  19   -7.44    8.54
   5   1 -19    6.20    4.67
   5   1 -19   -1.91    4.26
  -5   1  19  -10.28    7.49
   4  -1 -19    1.33    2.97
   4  -1 -19    6.61    4.07
   4  -1 -19    9.22    3.19
   4  -1 -19    2.29    3.04
   4   1 -19   -0.27    4.45
   3  -1 -19    0.27    2.97
   3  -1 -19    6.33    3.37
   3  -1 -19    2.58    3.08
   3  -1 -19    1.43    3.69
   3   1 -19   -0.57    2.73
   3   1 -19   -4.68    4.87
   2  -1 -19   12.03    3.89
   2  -1 -19    3.11    2.89
   2   1 -19    4.90    3.07
   2   1 -19    4.59    3.01
   2   1 -19   -4.27    4.43
   1  -1 -19    7.49    4.21
   1  -1 -19    7.39    4.67
   1   1 -19    6.94    3.97
   1   1 -19    7.14    5.65
   0  -1 -19    2.45    3.82
   0   1 -19    7.37    3.19
  -1  -1 -19   -0.51    3.10
  -1   1 -19   -5.54    4.14
  -1   1 -19   -6.82    4.87
   7  -2 -19   15.14    5.06
   6  -2 -19   13.51    5.73
  -6  -2  19   15.16    9.20
  -6  -2  19    7.53    5.23
   6  -2 -19   23.16    4.60
   6   2 -19   14.17    5.25
   4  -2 -19    2.02    3.48
   4  -2 -19    2.56    3.33
   3  -2 -19    2.19    4.62
   3  -2 -19    8.87    3.56
   3  -2 -19    8.52    3.37
   3  -2 -19    8.93    3.39
   2  -2 -19   17.65    4.12
   2  -2 -19   14.60    4.35
   9   0 -20   45.92    8.39
   8   0 -20   54.63   10.87
   8   0 -20   90.66   11.42
  -8   0  20   67.76   13.57
   8   0 -20   66.41   11.72
   7   0 -20   39.24    7.45
   7   0 -20   39.86    7.84
  -7   0  20   31.94    9.29
  -6   0  20   15.84    9.46
   6   0 -20   17.21    5.95
   6   0 -20   12.51    5.65
   5   0 -20    7.66    4.51
  -5   0  20    4.93   10.56
   5   0 -20   10.56    5.57
   4   0 -20   41.76    8.01
   4   0 -20   55.43    8.67
   3   0 -20   42.86    7.39
   3   0 -20   31.15    7.78
   3   0 -20   46.00    8.02
   2   0 -20    9.29    3.78
   2   0 -20    3.60    3.66
   2   0 -20    1.61    5.32
   1   0 -20   14.17    5.23
   1   0 -20   16.30    5.90
   1   0 -20   23.72    4.99
   0   0 -20   69.17    9.79
   0   0 -20   49.98    9.96
   0   0 -20   52.75    9.98
   8  -1 -20    6.76    6.29
  -8  -1  20   12.13    7.52
   8  -1 -20    5.73    5.20
   8  -1 -20   10.78    3.85
   8   1 -20   13.17    5.05
   8   1 -20    4.64    4.68
   7  -1 -20    1.10    2.99
   7  -1 -20    8.22    3.85
   7  -1 -20    1.60    4.80
   7   1 -20   -4.72    4.52
   7   1 -20    7.73    3.26
   7   1 -20    1.60    4.46
  -7   1  20    3.34    6.23
  -6  -1  20    9.64    9.02
   6  -1 -20   25.86    5.44
   6  -1 -20   22.11    6.75
   6  -1 -20   17.40    4.40
   6   1 -20   24.24    5.99
  -6   1  20   10.53    8.41
   6   1 -20   26.67    6.07
   5  -1 -20   52.83    9.40
  -5  -1  20   50.32   12.09
  -5  -1  20   29.25    6.48
   5  -1 -20   46.45    7.00
   5  -1 -20   47.99    9.47
   5   1 -20   67.31    9.51
   5   1 -20   32.81    7.15
  -5   1  20   51.95   11.56
   4  -1 -20   10.59    4.06
   4  -1 -20    8.51    3.87
   4  -1 -20   10.71    4.62
   4   1 -20    7.83    5.62
  -4   1  20   -8.41   10.34
   3  -1 -20   13.12    4.73
   3  -1 -20   16.22    4.31
   3  -1 -20   18.21    4.22
   3   1 -20    9.93    6.04
   3   1 -20   12.18    4.25
   2  -1 -20   65.04    8.64
   2  -1 -20   48.03    8.44
   2  -1 -20   37.61    7.85
   2   1 -20   52.29    8.11
   2   1 -20   51.08    8.41
   2   1 -20   42.42    8.47
   1  -1 -20   12.59    5.24
   1  -1 -20   16.04    4.55
   1  -1 -20    4.48    4.75
   1   1 -20    7.31    5.33
   1   1 -20   10.37    4.57
   1   1 -20   14.18    3.66
   7   0 -21   -1.06    5.27
   6   0 -21   48.53    7.58
   5   0 -21    9.68    3.89
   4   0 -21   -1.07    3.67
   3   0 -21   -0.15    3.76
   3   0 -21    5.54    3.68
   2   0 -21    5.04    3.69
   2   0 -21    5.90    3.44
   6  -1 -21    5.67    4.17
   6   1 -21    1.42    4.73
   6   1 -21    3.37    4.89
   4  -1 -21    9.20    4.31
   4  -1 -21    7.86    5.57
  -4   1  21   -9.76   11.38
   4   1 -21    2.46    5.70
   3  -1 -21    6.96    3.70
   3  -1 -21    7.48    4.38
   0   0   0    0.00    0.00
;
_shelx_hkl_checksum              64843
_shelx_shelxl_version_number     2014/7
_olex2_submission_special_instructions 'No special instructions were received'
loop_
_space_group_symop_operation_xyz
'x, y, z'
'-x, y+1/2, -z+1/2'
'-x, -y, -z'
'x, -y-1/2, z-1/2'
loop_
_atom_site_label
_atom_site_type_symbol
_atom_site_fract_x
_atom_site_fract_y
_atom_site_fract_z
_atom_site_U_iso_or_equiv
_atom_site_adp_type
_atom_site_occupancy
_atom_site_site_symmetry_order
_atom_site_calc_flag
_atom_site_refinement_flags_posn
_atom_site_refinement_flags_adp
Br1 Br 0.35364(7) 0.3118(2) 0.54674(5) 0.0193(3) Uani 1 1 d . .
C1 C 1.0493(7) 0.338(3) 0.9161(5) 0.024(2) Uani 1 1 d . U
H1A H 1.1202 0.2304 0.9122 0.037 Uiso 1 1 calc GR .
H1B H 1.0190 0.2080 0.9511 0.037 Uiso 1 1 calc GR .
H1C H 1.0685 0.5659 0.9369 0.037 Uiso 1 1 calc GR .
C2 C 0.8604(7) 0.507(2) 0.8376(5) 0.0183(19) Uani 1 1 d . U
C3 C 0.7708(7) 0.499(2) 0.7581(5) 0.0141(17) Uani 1 1 d . U
C4 C 0.6612(7) 0.649(2) 0.7467(5) 0.0171(18) Uani 1 1 d . U
H4 H 0.6463 0.7575 0.7892 0.021 Uiso 1 1 calc R .
C5 C 0.5757(7) 0.642(2) 0.6754(5) 0.0188(18) Uani 1 1 d . U
H5 H 0.5026 0.7501 0.6685 0.023 Uiso 1 1 calc R .
C6 C 0.5941(7) 0.479(2) 0.6127(5) 0.0168(17) Uani 1 1 d . U
C7 C 0.7019(7) 0.328(2) 0.6226(5) 0.0188(17) Uani 1 1 d . U
H7 H 0.7157 0.2185 0.5799 0.023 Uiso 1 1 calc R .
C8 C 0.7905(7) 0.336(2) 0.6958(5) 0.0167(17) Uani 1 1 d . U
H8 H 0.8639 0.2295 0.7028 0.020 Uiso 1 1 calc R .
C9 C 0.4990(7) 0.469(2) 0.5362(5) 0.0164(17) Uani 1 1 d . U
O1 O 0.9607(5) 0.3550(16) 0.8395(3) 0.0256(15) Uani 1 1 d . .
O2 O 0.8472(5) 0.6416(18) 0.8939(3) 0.0316(17) Uani 1 1 d . .
loop_
_atom_site_aniso_label
_atom_site_aniso_U_11
_atom_site_aniso_U_22
_atom_site_aniso_U_33
_atom_site_aniso_U_23
_atom_site_aniso_U_13
_atom_site_aniso_U_12
Br1 0.0148(5) 0.0270(5) 0.0170(5) -0.0001(4) 0.0062(3) -0.0038(4)
C1 0.017(4) 0.034(6) 0.018(4) 0.001(4) -0.001(4) 0.007(4)
C2 0.017(4) 0.018(5) 0.020(4) 0.000(3) 0.007(3) -0.003(3)
C3 0.015(3) 0.014(4) 0.016(3) -0.001(3) 0.008(3) -0.004(3)
C4 0.019(3) 0.022(5) 0.012(3) -0.004(3) 0.008(3) 0.001(3)
C5 0.017(4) 0.020(5) 0.020(3) 0.000(3) 0.008(3) -0.003(3)
C6 0.018(3) 0.013(4) 0.020(3) 0.002(3) 0.008(3) -0.002(3)
C7 0.022(3) 0.018(4) 0.019(4) 0.004(3) 0.011(3) -0.001(3)
C8 0.013(3) 0.020(4) 0.019(3) 0.000(3) 0.007(3) -0.001(3)
C9 0.017(4) 0.014(4) 0.019(4) -0.002(3) 0.006(3) 0.001(3)
O1 0.017(3) 0.039(4) 0.019(3) -0.004(3) 0.002(3) 0.007(3)
O2 0.026(3) 0.052(5) 0.018(3) -0.009(3) 0.008(3) 0.008(3)
loop_
_atom_type_symbol
_atom_type_description
_atom_type_scat_dispersion_real
_atom_type_scat_dispersion_imag
_atom_type_scat_source
C C 0.0033 0.0016 'International Tables Vol C Tables 4.2.6.8 and 6.1.1.4'
H H 0.0000 0.0000 'International Tables Vol C Tables 4.2.6.8 and 6.1.1.4'
Br Br -0.2901 2.4595 'International Tables Vol C Tables 4.2.6.8 and 6.1.1.4'
O O 0.0106 0.0060 'International Tables Vol C Tables 4.2.6.8 and 6.1.1.4'
loop_
_geom_angle_atom_site_label_1
_geom_angle_atom_site_label_2
_geom_angle_atom_site_label_3
_geom_angle
_geom_angle_site_symmetry_1
H1A C1 H1B 109.5 .
H1A C1 H1C 109.5 .
H1B C1 H1C 109.5 .
O1 C1 H1A 109.5 .
O1 C1 H1B 109.5 .
O1 C1 H1C 109.5 .
O1 C2 C3 112.0(7) .
O2 C2 C3 125.0(8) .
O2 C2 O1 123.0(8) .
C4 C3 C2 118.7(7) .
C8 C3 C2 122.3(7) .
C8 C3 C4 118.9(7) .
C3 C4 H4 119.6 .
C5 C4 C3 120.8(8) .
C5 C4 H4 119.6 .
C4 C5 H5 119.6 .
C4 C5 C6 120.9(8) .
C6 C5 H5 119.6 .
C5 C6 C9 119.9(7) .
C7 C6 C5 119.4(8) .
C7 C6 C9 120.7(8) .
C6 C7 H7 120.0 .
C6 C7 C8 119.9(8) .
C8 C7 H7 120.0 .
C3 C8 C7 120.0(8) .
C3 C8 H8 120.0 .
C7 C8 H8 120.0 .
C6 C9 Br1 111.3(6) .
C9 C9 Br1 117.8(8) 3_666
C9 C9 C6 130.8(10) 3_666
C2 O1 C1 114.7(6) .
loop_
_geom_bond_atom_site_label_1
_geom_bond_atom_site_label_2
_geom_bond_distance
_geom_bond_site_symmetry_2
Br1 C9 1.925(8) .
C1 H1A 0.9800 .
C1 H1B 0.9800 .
C1 H1C 0.9800 .
C1 O1 1.449(10) .
C2 C3 1.490(11) .
C2 O1 1.342(10) .
C2 O2 1.209(10) .
C3 C4 1.400(11) .
C3 C8 1.392(11) .
C4 H4 0.9500 .
C4 C5 1.364(11) .
C5 H5 0.9500 .
C5 C6 1.391(12) .
C6 C7 1.389(12) .
C6 C9 1.481(11) .
C7 H7 0.9500 .
C7 C8 1.404(12) .
C8 H8 0.9500 .
C9 C9 1.347(16) 3_666
loop_
_geom_torsion_atom_site_label_1
_geom_torsion_atom_site_label_2
_geom_torsion_atom_site_label_3
_geom_torsion_atom_site_label_4
_geom_torsion
_geom_torsion_site_symmetry_4
C2 C3 C4 C5 -178.7(8) .
C2 C3 C8 C7 178.2(8) .
C3 C2 O1 C1 -176.8(7) .
C3 C4 C5 C6 1.5(13) .
C4 C3 C8 C7 1.0(12) .
C4 C5 C6 C7 -1.3(13) .
C4 C5 C6 C9 178.8(8) .
C5 C6 C7 C8 1.0(13) .
C5 C6 C9 Br1 -51.4(10) .
C5 C6 C9 C9 132.8(13) 3_666
C6 C7 C8 C3 -0.8(13) .
C7 C6 C9 Br1 128.7(7) .
C7 C6 C9 C9 -47.1(17) 3_666
C8 C3 C4 C5 -1.4(13) .
C9 C6 C7 C8 -179.1(8) .
O1 C2 C3 C4 -179.9(7) .
O1 C2 C3 C8 2.9(11) .
O2 C2 C3 C4 -1.7(13) .
O2 C2 C3 C8 -178.9(9) .
O2 C2 O1 C1 5.0(13) .
