#------------------------------------------------------------------------------
#$Date: 2017-06-05 03:21:22 +0300 (Mon, 05 Jun 2017) $
#$Revision: 197420 $
#$URL: file:///home/coder/svn-repositories/cod/cif/4/12/59/4125916.cif $
#------------------------------------------------------------------------------
#
# This file is available in the Crystallography Open Database (COD),
# http://www.crystallography.net/
#
# All data on this site have been placed in the public domain by the
# contributors.
#
data_4125916
loop_
_publ_author_name
'Bezuidenhout, Charl X.'
'Smith, Vincent J.'
'Esterhuysen, Catharine'
'Barbour, Leonard J.'
_publ_section_title
;
 Solvent- and Pressure-Induced Phase Changes in Two 3D Copper
 Glutarate-Based Metal-Organic Frameworks via Glutarate (+gauche &#x21C4;
 -gauche) Conformational Isomerism.
;
_journal_issue                   16
_journal_name_full               'Journal of the American Chemical Society'
_journal_page_first              5923
_journal_page_last               5929
_journal_paper_doi               10.1021/jacs.7b01764
_journal_volume                  139
_journal_year                    2017
_chemical_formula_moiety         '0.25(C88 H96 Cu8 N8 O32)'
_chemical_formula_sum            'C22 H24 Cu2 N2 O8'
_chemical_formula_weight         571.51
_chemical_name_systematic        '[Cu2glu2Bpa]n'
_space_group_crystal_system      monoclinic
_space_group_IT_number           15
_space_group_name_Hall           '-C 2yc'
_space_group_name_H-M_alt        'C 1 2/c 1'
_symmetry_space_group_name_Hall  '-C 2yc'
_symmetry_space_group_name_H-M   'C 1 2/c 1'
_atom_sites_solution_hydrogens   geom
_audit_creation_date             2017-03-28
_audit_creation_method
;
Olex2 1.2
(compiled 2017.03.02 svn.r3394 for OlexSys, GUI svn.r5324)
;
_cell_angle_alpha                90
_cell_angle_beta                 91.627(2)
_cell_angle_gamma                90
_cell_formula_units_Z            4
_cell_length_a                   24.4258(11)
_cell_length_b                   13.1097(6)
_cell_length_c                   8.6242(4)
_cell_measurement_reflns_used    6941
_cell_measurement_temperature    100(2)
_cell_measurement_theta_max      24.71
_cell_measurement_theta_min      2.93
_cell_volume                     2760.5(2)
_computing_cell_refinement       'SAINT v7.68A (Bruker, 2009)'
_computing_data_reduction        'SAINT v7.68A (Bruker, 2009)'
_computing_molecular_graphics    'Olex2 (Dolomanov et al., 2009)'
_computing_publication_material  'Olex2 (Dolomanov et al., 2009)'
_computing_structure_refinement  'ShelXL (Sheldrick, 2015)'
_diffrn_ambient_temperature      100.15
_diffrn_measured_fraction_theta_full 0.992
_diffrn_measured_fraction_theta_max 0.992
_diffrn_measurement_device_type  'Bruker APEX-II CCD'
_diffrn_measurement_method       '\f and \w scans'
_diffrn_radiation_monochromator  graphite
_diffrn_radiation_type           MoK\a
_diffrn_radiation_wavelength     0.71073
_diffrn_reflns_av_R_equivalents  0.0366
_diffrn_reflns_av_unetI/netI     0.0275
_diffrn_reflns_Laue_measured_fraction_full 0.992
_diffrn_reflns_Laue_measured_fraction_max 0.992
_diffrn_reflns_limit_h_max       28
_diffrn_reflns_limit_h_min       -28
_diffrn_reflns_limit_k_max       15
_diffrn_reflns_limit_k_min       -13
_diffrn_reflns_limit_l_max       7
_diffrn_reflns_limit_l_min       -10
_diffrn_reflns_number            10270
_diffrn_reflns_point_group_measured_fraction_full 0.992
_diffrn_reflns_point_group_measured_fraction_max 0.992
_diffrn_reflns_theta_full        24.713
_diffrn_reflns_theta_max         24.713
_diffrn_reflns_theta_min         1.668
_diffrn_standards_number         0
_exptl_absorpt_coefficient_mu    1.583
_exptl_absorpt_correction_T_max  1.0000
_exptl_absorpt_correction_T_min  0.6623
_exptl_absorpt_correction_type   multi-scan
_exptl_absorpt_process_details
'SADABS-2008/1 (Bruker,2008) was used for absorption correction. wR2(int) was 0.1266 before and 0.0557 after correction. The Ratio of minimum to maximum transmission is 0.6623. The \l/2 correction factor is 0.0000.'
_exptl_crystal_colour            'clear greenish green'
_exptl_crystal_colour_lustre     clear
_exptl_crystal_colour_modifier   greenish
_exptl_crystal_colour_primary    green
_exptl_crystal_density_diffrn    1.375
_exptl_crystal_description       block
_exptl_crystal_F_000             1168
_exptl_crystal_size_max          0.542
_exptl_crystal_size_mid          0.081
_exptl_crystal_size_min          0.056
_refine_diff_density_max         0.513
_refine_diff_density_min         -0.336
_refine_diff_density_rms         0.059
_refine_ls_extinction_method     none
_refine_ls_goodness_of_fit_ref   1.075
_refine_ls_hydrogen_treatment    constr
_refine_ls_matrix_type           full
_refine_ls_number_parameters     152
_refine_ls_number_reflns         2341
_refine_ls_number_restraints     0
_refine_ls_restrained_S_all      1.075
_refine_ls_R_factor_all          0.0280
_refine_ls_R_factor_gt           0.0265
_refine_ls_shift/su_max          0.001
_refine_ls_shift/su_mean         0.000
_refine_ls_structure_factor_coef Fsqd
_refine_ls_weighting_details
'w=1/[\s^2^(Fo^2^)+(0.0197P)^2^+7.4954P] where P=(Fo^2^+2Fc^2^)/3'
_refine_ls_weighting_scheme      calc
_refine_ls_wR_factor_gt          0.0669
_refine_ls_wR_factor_ref         0.0678
_reflns_Friedel_coverage         0.000
_reflns_number_gt                2229
_reflns_number_total             2341
_reflns_threshold_expression     'I > 2\s(I)'
_iucr_refine_instructions_details
;
TITL solve1 in C2/c
    1a.res
    created by SHELXL-2016/6 at 19:07:33 on 28-Mar-2017
REM solve1 in C2/c
REM 190 parameters refined using 0 restraints
REM Highest difference peak 0.727, deepest hole -0.394, 1-sigma level 0.091
REM 230 parameters refined using 0 restraints
REM Highest difference peak 0.554, deepest hole -0.374, 1-sigma level 0.084
CELL 0.71073 24.4258 13.1097 8.6242 90 91.627 90
ZERR 4 0.0011 0.0006 0.0004 0 0.002 0
LATT 7
SYMM -X,+Y,0.5-Z
SFAC C H Cu N O
UNIT 88 96 8 8 32
EADP C9A C9B
EADP N1A N1B
EADP C11A C8A C8B C7B C7A C10B C10A C6B C6A C11B

L.S. 20
PLAN  20
SIZE 0.056 0.081 0.542
TEMP -173
GRID
MORE -1
BOND $H
CONF
fmap 2
acta 52
ABIN
MERG 2
REM <olex2.extras>
REM <HklSrc "%.\\1a.hkl">
REM </olex2.extras>

WGHT    0.019700    7.495400
FVAR       0.06072   0.74201
CU1   3    0.294622    0.795092    0.554330    11.00000    0.02018    0.01159 =
         0.01006   -0.00030   -0.00538   -0.00335
O2    5    0.256815    0.922591    0.492372    11.00000    0.02751    0.01234 =
         0.02144    0.00238   -0.00647   -0.00255
O3    5    0.251151    0.790778    0.744243    11.00000    0.02894    0.02710 =
         0.01221   -0.00180   -0.00194   -0.00914
C1    1    0.209339    0.923641    0.431249    11.00000    0.02780    0.01541 =
         0.00908   -0.00092   -0.00494   -0.00144
O1    5    0.325712    0.782441    0.345621    11.00000    0.02893    0.02873 =
         0.01482   -0.00753   -0.00059   -0.00767
O4    5    0.319889    0.654733    0.592973    11.00000    0.03024    0.01359 =
         0.03162    0.00028   -0.01438   -0.00185
PART 2
N1B   4    0.353491    0.854075    0.684261    10.20843    0.00953    0.01676 =
         0.01304   -0.00450   -0.00399   -0.00699
PART 0
PART 1
C6A   1    0.403290    0.802276    0.753224    10.79157    0.01784    0.01946 =
         0.01456    0.00007   -0.00236   -0.00015
AFIX  43
H6A   2    0.406780    0.735011    0.713736    21.00000   -1.20000
AFIX   0
PART 0
C5    1    0.202675    0.762453    0.758429    11.00000    0.02755    0.01078 =
         0.01177    0.00255   -0.00527   -0.00081
C4    1    0.176253    0.785375    0.911563    11.00000    0.03050    0.01570 =
         0.01369    0.00067   -0.00071   -0.00290
AFIX  23
H4A   2    0.183973    0.728566    0.984588    11.00000   -1.20000
H4B   2    0.136062    0.789577    0.894569    11.00000   -1.20000
AFIX   0
PART 1
C7A   1    0.439055    0.834770    0.863620    10.79157    0.01784    0.01946 =
         0.01456    0.00007   -0.00236   -0.00015
AFIX  43
H7A   2    0.467580    0.790787    0.899710    21.00000   -1.20000
AFIX   0
C8A   1    0.434638    0.932860    0.925887    10.79157    0.01784    0.01946 =
         0.01456    0.00007   -0.00236   -0.00015
C11A  1    0.355353    0.952766    0.757235    10.79157    0.01784    0.01946 =
         0.01456    0.00007   -0.00236   -0.00015
AFIX  43
H11A  2    0.324926    0.992824    0.723070    21.00000   -1.20000
AFIX   0
C10A  1    0.390755    0.992064    0.869965    10.79157    0.01784    0.01946 =
         0.01456    0.00007   -0.00236   -0.00015
AFIX  43
H10A  2    0.385299    1.058897    0.909205    21.00000   -1.20000
AFIX   0
PART 0
C3    1    0.196910    1.114756    0.484570    11.00000    0.03696    0.01682 =
         0.01090    0.00030   -0.00264    0.00196
AFIX  23
H3A   2    0.236864    1.119726    0.505837    11.00000   -1.20000
H3B   2    0.178872    1.103906    0.584597    11.00000   -1.20000
AFIX   0
PART 1
C9A   1    0.475182    0.975094    1.043737    10.79157    0.02397    0.03654 =
         0.00785    0.00358    0.00033   -0.01084
AFIX  23
H9AA  2    0.488784    0.919739    1.112758    21.00000   -1.20000
H9AB  2    0.457247    1.027125    1.108201    21.00000   -1.20000
AFIX   0
PART 0
C2    1    0.185135    1.024229    0.378349    11.00000    0.03828    0.01533 =
         0.01884    0.00025   -0.01000    0.00144
AFIX  23
H2A   2    0.144933    1.016083    0.366747    11.00000   -1.20000
H2B   2    0.199181    1.040196    0.274564    11.00000   -1.20000
AFIX   0
PART 2
C9B   1    0.477572    1.000258    1.004861    10.20843    0.02397    0.03654 =
         0.00785    0.00358    0.00033   -0.01084
AFIX  23
H9BA  2    0.468490    1.073182    1.019245   -21.00000   -1.20000
H9BB  2    0.471358    0.967571    1.106337   -21.00000   -1.20000
AFIX   0
C8B   1    0.430837    0.959820    0.899858    10.20843    0.01784    0.01946 =
         0.01456    0.00007   -0.00236   -0.00015
C7B   1    0.438305    0.862569    0.863058    10.20843    0.01784    0.01946 =
         0.01456    0.00007   -0.00236   -0.00015
AFIX  43
H7B   2    0.468651    0.824471    0.902904   -21.00000   -1.20000
AFIX   0
C10B  1    0.389732    1.012844    0.831959    10.20843    0.01784    0.01946 =
         0.01456    0.00007   -0.00236   -0.00015
AFIX  43
H10B  2    0.384722    1.082560    0.858052   -21.00000   -1.20000
AFIX   0
C11B  1    0.354677    0.967170    0.724666    10.20843    0.01784    0.01946 =
         0.01456    0.00007   -0.00236   -0.00015
AFIX  43
H11B  2    0.329040    1.009989    0.671325   -21.00000   -1.20000
AFIX   0
C6B   1    0.394692    0.814966    0.751507    10.20843    0.01784    0.01946 =
         0.01456    0.00007   -0.00236   -0.00015
AFIX  43
H6B   2    0.399910    0.744574    0.730339   -21.00000   -1.20000
AFIX   0
PART 0
PART 1
N1A   4    0.362067    0.863080    0.696090    10.79157    0.00953    0.01676 =
         0.01304   -0.00450   -0.00399   -0.00699
HKLF 4




REM  solve1 in C2/c
REM R1 =  0.0265 for    2229 Fo > 4sig(Fo)  and  0.0280 for all    2341 data
REM    152 parameters refined using      0 restraints

END  
     
WGHT      0.0198      7.4927 

REM Highest difference peak  0.513,  deepest hole -0.336,  1-sigma level  0.059
Q1    1   0.4811  1.0403  0.9427  11.00000  0.05    0.51
Q2    1   0.3312  0.7810  0.5358  11.00000  0.05    0.49
Q3    1   0.4013  1.0350  0.7520  11.00000  0.05    0.38
Q4    1   0.4333  0.9870  0.8351  11.00000  0.05    0.35
Q5    1   0.2519  0.7805  0.5582  11.00000  0.05    0.30
Q6    1   0.3015  0.7073  0.5534  11.00000  0.05    0.30
Q7    1   0.3004  0.8373  0.4416  11.00000  0.05    0.27
Q8    1   0.4341  0.8363  0.7720  11.00000  0.05    0.26
Q9    1   0.2938  0.7709  0.6634  11.00000  0.05    0.25
Q10   1   0.2923  0.6506  0.6463  11.00000  0.05    0.24
Q11   1   0.3600  0.9906  0.6477  11.00000  0.05    0.24
Q12   1   0.4365  0.8438  0.9194  11.00000  0.05    0.23
Q13   1   0.1843  0.7790  0.8244  11.00000  0.05    0.22
Q14   1   0.4017  0.9485  0.9179  11.00000  0.05    0.22
Q15   1   0.1982  0.7689  0.8535  11.00000  0.05    0.21
Q16   1   0.3609  0.9082  0.6685  11.00000  0.05    0.21
Q17   1   0.3156  0.7577  0.4334  11.00000  0.05    0.21
Q18   1   0.2899  0.9188  0.4542  11.00000  0.05    0.21
Q19   1   0.1990  1.0723  0.4224  11.00000  0.05    0.20
Q20   1   0.3184  0.7342  0.3245  11.00000  0.05    0.20

  REM The information below was added by Olex2.
  REM
  REM R1 = 0.0265 for 2229 Fo > 4sig(Fo) and 0.0280 for all 10603 data
  REM n/a parameters refined using n/a restraints
  REM Highest difference peak 0.51, deepest hole -0.34
  REM Mean Shift 0, Max Shift 0.001.

  REM +++ Tabular Listing of Refinement Information +++
  REM R1_all = 0.0280
  REM R1_gt = 0.0265
  REM wR_ref = 0.0678
  REM GOOF = 1.075
  REM Shift_max = 0.001
  REM Shift_mean = 0
  REM Reflections_all = 10603
  REM Reflections_gt = 2229
  REM Parameters = n/a
  REM Hole = -0.34
  REM Peak = 0.51
  REM Flack = n/a

  
;
_cod_data_source_file            1a.cif
_cod_data_source_block           1a
_cod_depositor_comments
'Adding full bibliography for 4125916--4125921.cif.'
_cod_database_code               4125916
_shelx_shelxl_version_number     2016/6
_shelx_space_group_comment
;
The symmetry employed for this shelxl refinement is uniquely defined
by the following loop, which should always be used as a source of
symmetry information in preference to the above space-group names.
They are only intended as comments.
;
_shelx_estimated_absorpt_t_max   0.917
_shelx_estimated_absorpt_t_min   0.481
_olex2_refinement_description
;
1. Fixed Uiso
 At 1.2 times of:
  All C(H) groups, All C(H,H) groups
2. Uiso/Uaniso restraints and constraints
Uanis(C9A) = Uanis(C9B)
Uanis(N1A) = Uanis(N1B)
Uanis(C11A) = Uanis(C8A) = Uanis(C8B) = Uanis(C7B) = Uanis(C7A) = Uanis(C10B) =
Uanis(C10A) = Uanis(C6B) = Uanis(C6A) = Uanis(C11B)
3. Others
 Sof(H9BA)=Sof(H9BB)=Sof(H7B)=Sof(H10B)=Sof(H11B)=Sof(H6B)=1-FVAR(1)
 Sof(H6A)=Sof(H7A)=Sof(H11A)=Sof(H10A)=Sof(H9AA)=Sof(H9AB)=FVAR(1)
 Fixed Sof: N1B(0.20843) C6A(0.79157) C7A(0.79157) C8A(0.79157) C11A(0.79157)
 C10A(0.79157) C9A(0.79157) C9B(0.20843) C8B(0.20843) C7B(0.20843)
 C10B(0.20843) C11B(0.20843) C6B(0.20843) N1A(0.79157)
4.a Secondary CH2 refined with riding coordinates:
 C4(H4A,H4B), C3(H3A,H3B), C9A(H9AA,H9AB), C2(H2A,H2B), C9B(H9BA,H9BB)
4.b Aromatic/amide H refined with riding coordinates:
 C6A(H6A), C7A(H7A), C11A(H11A), C10A(H10A), C7B(H7B), C10B(H10B), C11B(H11B),
 C6B(H6B)
;
_shelx_fab_file
;
-28 0 2 1.6583 0.0000
-28 2 1 -0.4515 0.0000
-28 2 2 0.3655 0.0000
-27 1 1 0.2076 0.0000
-27 1 2 1.3646 0.0000
-27 3 1 -0.9072 0.0000
-27 3 2 -0.0969 0.0000
-27 5 1 -0.0538 0.0000
-26 0 2 2.6246 0.0000
-26 2 1 -1.3407 0.0000
-26 2 2 0.1118 0.0000
-26 2 3 -0.4567 0.0000
-26 4 1 -0.2206 0.0000
-26 4 2 -0.3808 0.0000
-26 4 3 0.0747 0.0000
-26 6 1 -1.1337 0.0000
-26 6 2 -1.1996 0.0000
-25 1 1 -0.4359 0.0000
-25 1 2 1.3439 0.0000
-25 1 3 -0.8465 0.0000
-25 1 4 -1.1873 0.0000
-25 3 1 -1.6345 0.0000
-25 3 2 0.2833 0.0000
-25 3 3 -0.7439 0.0000
-25 3 4 0.0042 0.0000
-25 5 1 -0.7215 0.0000
-25 5 2 -0.6838 0.0000
-25 5 3 0.3797 0.0000
-25 7 1 -0.6808 0.0000
-25 7 2 -0.7787 0.0000
-24 0 2 2.3768 0.0000
-24 0 4 -1.9931 0.0000
-24 2 1 -2.0610 0.0000
-24 2 2 0.0555 0.0000
-24 2 3 -0.9410 0.0000
-24 2 4 -1.0286 0.0000
-24 2 5 0.1063 0.0000
-24 4 1 -0.7288 0.0000
-24 4 2 0.4690 0.0000
-24 4 3 -0.8408 0.0000
-24 4 4 0.9342 0.0000
-24 6 1 -1.2035 0.0000
-24 6 2 -0.3880 0.0000
-24 6 3 0.4422 0.0000
-24 8 1 0.8102 0.0000
-24 8 2 0.6583 0.0000
-23 1 1 -1.8622 0.0000
-23 1 2 0.6092 0.0000
-23 1 3 -1.4405 0.0000
-23 1 4 -2.2395 0.0000
-23 1 5 -0.2167 0.0000
-23 3 1 -0.9927 0.0000
-23 3 2 1.0069 0.0000
-23 3 3 -1.3310 0.0000
-23 3 4 -0.0941 0.0000
-23 3 5 1.3524 0.0000
-23 5 1 -1.0169 0.0000
-23 5 2 0.5556 0.0000
-23 5 3 -0.3172 0.0000
-23 5 4 1.2530 0.0000
-23 5 5 0.4087 0.0000
-23 7 1 -0.1945 0.0000
-23 7 2 0.7901 0.0000
-23 7 3 1.1836 0.0000
-23 7 4 1.0267 0.0000
-23 9 1 1.0457 0.0000
-22 0 2 0.2546 0.0000
-22 0 4 -4.5050 0.0000
-22 0 6 -2.3886 0.0000
-22 2 1 -1.9625 0.0000
-22 2 2 0.6656 0.0000
-22 2 3 -0.7246 0.0000
-22 2 4 -1.2659 0.0000
-22 2 5 1.2643 0.0000
-22 2 6 -0.7159 0.0000
-22 4 1 -0.3178 0.0000
-22 4 2 1.2849 0.0000
-22 4 3 -1.9613 0.0000
-22 4 4 1.8157 0.0000
-22 4 5 0.6596 0.0000
-22 4 6 0.3389 0.0000
-22 6 1 -0.6005 0.0000
-22 6 2 0.5636 0.0000
-22 6 3 0.1199 0.0000
-22 6 4 1.3000 0.0000
-22 6 5 0.4724 0.0000
-22 8 1 1.2630 0.0000
-22 8 2 2.2533 0.0000
-22 8 3 0.5196 0.0000
-22 8 4 -0.6586 0.0000
-21 1 1 -3.0640 0.0000
-21 1 2 -0.1867 0.0000
-21 1 3 -0.6767 0.0000
-21 1 4 -3.4708 0.0000
-21 1 5 1.7189 0.0000
-21 1 6 -1.4977 0.0000
-21 1 7 1.2951 0.0000
-21 3 1 1.0771 0.0000
-21 3 2 1.6003 0.0000
-21 3 3 -1.4466 0.0000
-21 3 4 -0.1687 0.0000
-21 3 5 2.1981 0.0000
-21 3 6 -0.7162 0.0000
-21 5 1 -1.2089 0.0000
-21 5 2 1.2843 0.0000
-21 5 3 -1.6555 0.0000
-21 5 4 2.6962 0.0000
-21 5 5 -0.9802 0.0000
-21 5 6 2.1886 0.0000
-21 7 1 0.5957 0.0000
-21 7 2 1.2232 0.0000
-21 7 3 1.2473 0.0000
-21 7 4 0.6387 0.0000
-21 7 5 -0.1282 0.0000
-21 9 1 0.9098 0.0000
-21 9 2 0.9505 0.0000
-21 9 3 -1.7138 0.0000
-20 0 2 -1.7138 0.0000
-20 0 4 -5.9635 0.0000
-20 0 6 -0.5854 0.0000
-20 2 1 -0.5983 0.0000
-20 2 2 2.0627 0.0000
-20 2 3 0.3065 0.0000
-20 2 4 -1.3316 0.0000
-20 2 5 2.8058 0.0000
-20 2 6 -0.5390 0.0000
-20 2 7 0.6623 0.0000
-20 4 1 0.4665 0.0000
-20 4 2 0.8413 0.0000
-20 4 3 -2.4529 0.0000
-20 4 4 2.3855 0.0000
-20 4 5 0.8913 0.0000
-20 4 6 0.0653 0.0000
-20 6 1 -0.5533 0.0000
-20 6 2 0.8143 0.0000
-20 6 3 -0.9498 0.0000
-20 6 4 2.3880 0.0000
-20 6 5 -0.9970 0.0000
-20 6 6 3.0095 0.0000
-20 8 1 1.1786 0.0000
-20 8 2 1.6628 0.0000
-20 8 3 0.1035 0.0000
-20 8 4 -2.1347 0.0000
-20 8 5 -0.8494 0.0000
-20 10 1 -0.3102 0.0000
-20 10 2 -0.0315 0.0000
-20 10 3 -0.8637 0.0000
-19 1 1 -2.9603 0.0000
-19 1 2 0.3945 0.0000
-19 1 3 1.0406 0.0000
-19 1 4 -3.3550 0.0000
-19 1 5 3.5243 0.0000
-19 1 6 0.6965 0.0000
-19 1 7 0.8152 0.0000
-19 3 1 3.4553 0.0000
-19 3 2 1.6021 0.0000
-19 3 3 -1.2013 0.0000
-19 3 4 -0.3981 0.0000
-19 3 5 2.9973 0.0000
-19 3 6 -0.3819 0.0000
-19 3 7 -0.4335 0.0000
-19 5 1 -2.1657 0.0000
-19 5 2 0.6464 0.0000
-19 5 3 -2.0315 0.0000
-19 5 4 3.5916 0.0000
-19 5 5 -1.3180 0.0000
-19 5 6 2.1562 0.0000
-19 5 7 0.7569 0.0000
-19 7 1 0.9306 0.0000
-19 7 2 0.8708 0.0000
-19 7 3 0.2357 0.0000
-19 7 4 0.6443 0.0000
-19 7 5 -1.3772 0.0000
-19 7 6 1.5424 0.0000
-19 9 1 0.1258 0.0000
-19 9 2 -0.1055 0.0000
-19 9 3 -1.5300 0.0000
-19 9 4 -2.0253 0.0000
-19 11 1 -0.4611 0.0000
-19 11 2 -0.0457 0.0000
-18 0 2 -1.4578 0.0000
-18 0 4 -4.5823 0.0000
-18 0 6 3.1731 0.0000
-18 0 8 -0.1717 0.0000
-18 2 1 1.4408 0.0000
-18 2 2 3.6416 0.0000
-18 2 3 1.0536 0.0000
-18 2 4 -1.1836 0.0000
-18 2 5 3.3033 0.0000
-18 2 6 0.6725 0.0000
-18 2 7 -0.3896 0.0000
-18 4 1 0.7647 0.0000
-18 4 2 -0.9155 0.0000
-18 4 3 -1.9180 0.0000
-18 4 4 1.8215 0.0000
-18 4 5 2.1795 0.0000
-18 4 6 -0.3518 0.0000
-18 4 7 0.3034 0.0000
-18 6 1 -1.6211 0.0000
-18 6 2 1.1712 0.0000
-18 6 3 -1.0074 0.0000
-18 6 4 2.7007 0.0000
-18 6 5 -1.7423 0.0000
-18 6 6 2.4884 0.0000
-18 6 7 0.6574 0.0000
-18 8 1 0.8257 0.0000
-18 8 2 -0.0152 0.0000
-18 8 3 -0.6482 0.0000
-18 8 4 -2.0039 0.0000
-18 8 5 -1.4477 0.0000
-18 8 6 0.6361 0.0000
-18 10 1 -0.5473 0.0000
-18 10 2 -0.8906 0.0000
-18 10 3 -0.2770 0.0000
-18 10 4 -0.0001 0.0000
-17 1 1 -1.8748 0.0000
-17 1 2 1.9043 0.0000
-17 1 3 2.2740 0.0000
-17 1 4 -2.1830 0.0000
-17 1 5 3.5155 0.0000
-17 1 6 2.4789 0.0000
-17 1 7 -0.6236 0.0000
-17 1 8 -0.7667 0.0000
-17 3 1 4.6731 0.0000
-17 3 2 1.0524 0.0000
-17 3 3 -1.3850 0.0000
-17 3 4 -0.9371 0.0000
-17 3 5 3.0993 0.0000
-17 3 6 0.6108 0.0000
-17 3 7 -1.3199 0.0000
-17 3 8 0.4402 0.0000
-17 5 1 -3.4413 0.0000
-17 5 2 -0.9136 0.0000
-17 5 3 -0.6087 0.0000
-17 5 4 2.6253 0.0000
-17 5 5 0.0371 0.0000
-17 5 6 0.2046 0.0000
-17 5 7 1.4536 0.0000
-17 7 1 0.7874 0.0000
-17 7 2 1.5059 0.0000
-17 7 3 -0.7490 0.0000
-17 7 4 0.5286 0.0000
-17 7 5 -1.9845 0.0000
-17 7 6 0.6605 0.0000
-17 9 1 -0.2935 0.0000
-17 9 2 -1.5486 0.0000
-17 9 3 -0.6993 0.0000
-17 9 4 -1.3552 0.0000
-17 9 5 -0.1774 0.0000
-17 11 1 -1.3544 0.0000
-17 11 2 -1.4834 0.0000
-17 11 3 0.4475 0.0000
-16 0 2 -0.3768 0.0000
-16 0 4 -2.4522 0.0000
-16 0 6 3.6565 0.0000
-16 0 8 -1.6216 0.0000
-16 2 1 2.5855 0.0000
-16 2 2 4.3294 0.0000
-16 2 3 0.6122 0.0000
-16 2 4 -1.6380 0.0000
-16 2 5 2.3175 0.0000
-16 2 6 0.9951 0.0000
-16 2 7 -1.8195 0.0000
-16 2 8 -0.2925 0.0000
-16 4 1 0.3317 0.0000
-16 4 2 -2.7924 0.0000
-16 4 3 -1.4611 0.0000
-16 4 4 0.4435 0.0000
-16 4 5 3.2570 0.0000
-16 4 6 -0.4813 0.0000
-16 4 7 -0.3744 0.0000
-16 4 8 0.8432 0.0000
-16 6 1 -2.5874 0.0000
-16 6 2 1.8085 0.0000
-16 6 3 0.6612 0.0000
-16 6 4 1.2365 0.0000
-16 6 5 -1.2473 0.0000
-16 6 6 -0.1727 0.0000
-16 6 7 0.8458 0.0000
-16 8 1 0.6279 0.0000
-16 8 2 -0.7580 0.0000
-16 8 3 -1.5872 0.0000
-16 8 4 -0.6717 0.0000
-16 8 5 -1.6761 0.0000
-16 8 6 0.3268 0.0000
-16 10 1 0.1466 0.0000
-16 10 2 -2.0115 0.0000
-16 10 3 0.4806 0.0000
-16 10 4 0.2205 0.0000
-16 10 5 -0.1314 0.0000
-16 12 1 -1.8231 0.0000
-16 12 2 -0.7403 0.0000
-16 12 3 0.7800 0.0000
-15 1 1 -0.7984 0.0000
-15 1 2 2.4032 0.0000
-15 1 3 2.5183 0.0000
-15 1 4 -2.3984 0.0000
-15 1 5 1.8775 0.0000
-15 1 6 1.0427 0.0000
-15 1 7 -1.7172 0.0000
-15 1 8 -1.2925 0.0000
-15 3 1 3.6402 0.0000
-15 3 2 0.7285 0.0000
-15 3 3 -2.5893 0.0000
-15 3 4 -1.4074 0.0000
-15 3 5 2.5502 0.0000
-15 3 6 1.1398 0.0000
-15 3 7 -2.2344 0.0000
-15 3 8 0.9231 0.0000
-15 5 1 -3.8556 0.0000
-15 5 2 -2.3279 0.0000
-15 5 3 1.1479 0.0000
-15 5 4 1.0289 0.0000
-15 5 5 1.3003 0.0000
-15 5 6 -1.7592 0.0000
-15 5 7 0.4551 0.0000
-15 5 8 -0.0004 0.0000
-15 7 1 0.6992 0.0000
-15 7 2 2.5716 0.0000
-15 7 3 -1.0521 0.0000
-15 7 4 -0.4186 0.0000
-15 7 5 -1.5362 0.0000
-15 7 6 -0.8821 0.0000
-15 7 7 0.6205 0.0000
-15 9 1 -0.0483 0.0000
-15 9 2 -1.9472 0.0000
-15 9 3 -0.2496 0.0000
-15 9 4 0.3423 0.0000
-15 9 5 -0.7288 0.0000
-15 9 6 0.7670 0.0000
-15 11 1 -0.7089 0.0000
-15 11 2 -2.5721 0.0000
-15 11 3 1.1007 0.0000
-15 11 4 0.5410 0.0000
-15 13 1 0.2014 0.0000
-14 0 2 -0.3600 0.0000
-14 0 4 -2.7685 0.0000
-14 0 6 0.3390 0.0000
-14 0 8 -1.3002 0.0000
-14 2 1 1.7930 0.0000
-14 2 2 4.2206 0.0000
-14 2 3 -0.4445 0.0000
-14 2 4 -3.2699 0.0000
-14 2 5 1.4401 0.0000
-14 2 6 0.1099 0.0000
-14 2 7 -2.4387 0.0000
-14 2 8 0.1734 0.0000
-14 4 1 -0.8726 0.0000
-14 4 2 -2.9739 0.0000
-14 4 3 -2.0297 0.0000
-14 4 4 0.4990 0.0000
-14 4 5 2.9826 0.0000
-14 4 6 -0.3551 0.0000
-14 4 7 -1.7489 0.0000
-14 4 8 0.9530 0.0000
-14 6 1 -2.3410 0.0000
-14 6 2 1.9814 0.0000
-14 6 3 2.4899 0.0000
-14 6 4 -0.2969 0.0000
-14 6 5 -0.7125 0.0000
-14 6 6 -2.1960 0.0000
-14 6 7 0.2378 0.0000
-14 6 8 -0.0489 0.0000
-14 8 1 0.6547 0.0000
-14 8 2 -0.8861 0.0000
-14 8 3 -2.3325 0.0000
-14 8 4 0.4992 0.0000
-14 8 5 -0.7960 0.0000
-14 8 6 0.0908 0.0000
-14 8 7 1.3090 0.0000
-14 10 1 1.1151 0.0000
-14 10 2 -1.8978 0.0000
-14 10 3 0.6144 0.0000
-14 10 4 0.9150 0.0000
-14 10 5 -0.4588 0.0000
-14 10 6 0.1868 0.0000
-14 12 1 -0.6856 0.0000
-14 12 2 -0.2711 0.0000
-14 12 3 1.3141 0.0000
-14 12 4 -0.1435 0.0000
-13 1 1 0.3488 0.0000
-13 1 2 1.8986 0.0000
-13 1 3 2.5809 0.0000
-13 1 4 -4.9256 0.0000
-13 1 5 0.3422 0.0000
-13 1 6 -1.0376 0.0000
-13 1 7 -1.7382 0.0000
-13 1 8 -0.1540 0.0000
-13 1 9 0.1344 0.0000
-13 3 1 -0.0068 0.0000
-13 3 2 1.9626 0.0000
-13 3 3 -3.9425 0.0000
-13 3 4 -0.7827 0.0000
-13 3 5 2.5738 0.0000
-13 3 6 0.7325 0.0000
-13 3 7 -2.7047 0.0000
-13 3 8 1.2964 0.0000
-13 5 1 -3.0554 0.0000
-13 5 2 -1.9758 0.0000
-13 5 3 1.9479 0.0000
-13 5 4 1.6333 0.0000
-13 5 5 0.8393 0.0000
-13 5 6 -2.1505 0.0000
-13 5 7 -1.3958 0.0000
-13 5 8 0.1237 0.0000
-13 7 1 0.7155 0.0000
-13 7 2 2.3877 0.0000
-13 7 3 -1.1709 0.0000
-13 7 4 -1.0877 0.0000
-13 7 5 -0.5274 0.0000
-13 7 6 -1.2768 0.0000
-13 7 7 1.2376 0.0000
-13 9 1 0.2366 0.0000
-13 9 2 -1.7806 0.0000
-13 9 3 -0.0456 0.0000
-13 9 4 1.7692 0.0000
-13 9 5 -0.0554 0.0000
-13 9 6 0.7598 0.0000
-13 11 1 0.8172 0.0000
-13 11 2 -1.6232 0.0000
-13 11 3 0.9078 0.0000
-13 11 4 0.8427 0.0000
-13 11 5 -0.4516 0.0000
-13 13 1 0.9469 0.0000
-13 13 2 0.9920 0.0000
-13 13 3 -0.2827 0.0000
-12 0 2 -0.3094 0.0000
-12 0 4 -5.2388 0.0000
-12 0 8 0.3699 0.0000
-12 2 1 -0.5158 0.0000
-12 2 2 4.1837 0.0000
-12 2 3 -0.4803 0.0000
-12 2 4 -5.2404 0.0000
-12 2 5 2.1366 0.0000
-12 2 6 0.0520 0.0000
-12 2 7 -2.4228 0.0000
-12 2 8 1.0145 0.0000
-12 2 9 0.2304 0.0000
-12 4 1 -2.6026 0.0000
-12 4 2 0.1128 0.0000
-12 4 3 -2.3904 0.0000
-12 4 4 3.3578 0.0000
-12 4 5 1.7567 0.0000
-12 4 6 -0.5730 0.0000
-12 4 7 -2.7968 0.0000
-12 4 8 0.8208 0.0000
-12 6 1 -1.2042 0.0000
-12 6 2 1.9408 0.0000
-12 6 3 2.9419 0.0000
-12 6 4 -0.0128 0.0000
-12 6 5 -0.9637 0.0000
-12 6 6 -1.8972 0.0000
-12 6 7 -0.7145 0.0000
-12 6 8 0.9617 0.0000
-12 8 1 0.6356 0.0000
-12 8 2 -1.5682 0.0000
-12 8 3 -2.5787 0.0000
-12 8 4 1.5056 0.0000
-12 8 5 1.0089 0.0000
-12 8 6 0.1595 0.0000
-12 8 7 1.9948 0.0000
-12 10 1 0.8397 0.0000
-12 10 2 -0.7337 0.0000
-12 10 3 0.8485 0.0000
-12 10 4 1.2283 0.0000
-12 10 5 0.4038 0.0000
-12 10 6 0.1285 0.0000
-12 12 1 1.5812 0.0000
-12 12 2 0.6204 0.0000
-12 12 3 0.4699 0.0000
-12 12 4 -0.1737 0.0000
-11 1 1 2.8215 0.0000
-11 1 2 1.4052 0.0000
-11 1 3 3.3138 0.0000
-11 1 4 -7.6609 0.0000
-11 1 5 -0.1723 0.0000
-11 1 6 -0.2319 0.0000
-11 1 7 -1.2344 0.0000
-11 1 8 0.8330 0.0000
-11 1 9 -0.1862 0.0000
-11 3 1 -5.2999 0.0000
-11 3 2 4.8277 0.0000
-11 3 3 -3.1218 0.0000
-11 3 4 0.7548 0.0000
-11 3 5 3.6468 0.0000
-11 3 6 -0.0655 0.0000
-11 3 7 -3.0877 0.0000
-11 3 8 1.2253 0.0000
-11 3 9 -0.1988 0.0000
-11 5 1 -1.2635 0.0000
-11 5 2 1.0600 0.0000
-11 5 3 2.2383 0.0000
-11 5 4 4.1939 0.0000
-11 5 5 -1.0679 0.0000
-11 5 6 -1.1464 0.0000
-11 5 7 -2.4661 0.0000
-11 5 8 0.6184 0.0000
-11 7 1 0.2349 0.0000
-11 7 2 1.1592 0.0000
-11 7 3 -1.6922 0.0000
-11 7 4 -0.4643 0.0000
-11 7 5 0.6604 0.0000
-11 7 6 -0.4170 0.0000
-11 7 7 0.9072 0.0000
-11 7 8 1.2924 0.0000
-11 9 1 0.0772 0.0000
-11 9 2 -2.2412 0.0000
-11 9 3 0.5609 0.0000
-11 9 4 2.8015 0.0000
-11 9 5 1.3512 0.0000
-11 9 6 0.2187 0.0000
-11 9 7 0.8635 0.0000
-11 11 1 1.3672 0.0000
-11 11 2 0.8999 0.0000
-11 11 3 0.4489 0.0000
-11 11 4 0.4520 0.0000
-11 11 5 0.9030 0.0000
-11 11 6 0.0976 0.0000
-11 13 1 1.3327 0.0000
-11 13 2 0.3820 0.0000
-11 13 3 -0.7556 0.0000
-10 0 2 1.2676 0.0000
-10 0 4 -6.8006 0.0000
-10 0 6 -0.2963 0.0000
-10 0 8 0.6702 0.0000
-10 2 1 -2.0334 0.0000
-10 2 2 2.6316 0.0000
-10 2 3 2.1125 0.0000
-10 2 4 -6.4590 0.0000
-10 2 5 3.3864 0.0000
-10 2 6 1.4575 0.0000
-10 2 7 -2.4991 0.0000
-10 2 8 0.7161 0.0000
-10 2 9 -0.3343 0.0000
-10 4 1 -3.8259 0.0000
-10 4 2 5.7122 0.0000
-10 4 3 -0.6597 0.0000
-10 4 4 6.3757 0.0000
-10 4 5 0.6303 0.0000
-10 4 6 -1.0950 0.0000
-10 4 7 -2.9443 0.0000
-10 4 8 0.8347 0.0000
-10 4 9 -0.6408 0.0000
-10 6 1 -0.2265 0.0000
-10 6 2 2.0868 0.0000
-10 6 3 1.9858 0.0000
-10 6 4 1.0007 0.0000
-10 6 5 -1.3834 0.0000
-10 6 6 0.2948 0.0000
-10 6 7 -1.5047 0.0000
-10 6 8 1.5628 0.0000
-10 8 1 0.0953 0.0000
-10 8 2 -2.3484 0.0000
-10 8 3 -2.5301 0.0000
-10 8 4 2.9998 0.0000
-10 8 5 2.6003 0.0000
-10 8 6 -0.2348 0.0000
-10 8 7 1.2293 0.0000
-10 8 8 -0.5566 0.0000
-10 10 1 -0.6137 0.0000
-10 10 2 0.1246 0.0000
-10 10 3 1.8643 0.0000
-10 10 4 1.2175 0.0000
-10 10 5 1.3591 0.0000
-10 10 6 -0.1091 0.0000
-10 12 1 3.1070 0.0000
-10 12 2 1.3117 0.0000
-10 12 3 -0.6138 0.0000
-10 12 4 -0.2973 0.0000
-10 12 5 1.4079 0.0000
-10 14 1 -0.4482 0.0000
-10 14 2 -0.0617 0.0000
-9 1 1 7.7661 0.0000
-9 1 2 0.3086 0.0000
-9 1 3 4.3427 0.0000
-9 1 4 -8.0821 0.0000
-9 1 5 -0.5024 0.0000
-9 1 6 1.9249 0.0000
-9 1 7 -0.7216 0.0000
-9 1 8 0.0967 0.0000
-9 1 9 -0.4571 0.0000
-9 3 1 -8.6930 0.0000
-9 3 2 6.0476 0.0000
-9 3 4 1.0000 0.0000
-9 3 5 4.5647 0.0000
-9 3 6 -0.3260 0.0000
-9 3 7 -3.4117 0.0000
-9 3 8 0.4454 0.0000
-9 3 9 -0.4109 0.0000
-9 5 1 0.6460 0.0000
-9 5 2 4.7616 0.0000
-9 5 3 2.2445 0.0000
-9 5 4 5.2942 0.0000
-9 5 5 -2.5887 0.0000
-9 5 6 0.6581 0.0000
-9 5 7 -1.9679 0.0000
-9 5 8 1.1064 0.0000
-9 5 9 -0.5225 0.0000
-9 7 1 -1.1750 0.0000
-9 7 2 0.1630 0.0000
-9 7 3 -2.3364 0.0000
-9 7 4 0.9262 0.0000
-9 7 5 1.9872 0.0000
-9 7 6 0.7911 0.0000
-9 7 7 -0.6696 0.0000
-9 7 8 0.9428 0.0000
-9 9 1 -0.4351 0.0000
-9 9 2 -2.9874 0.0000
-9 9 3 1.0948 0.0000
-9 9 4 3.9952 0.0000
-9 9 5 1.6272 0.0000
-9 9 6 -1.0995 0.0000
-9 9 7 0.5043 0.0000
-9 11 1 0.9384 0.0000
-9 11 2 3.1177 0.0000
-9 11 3 0.3197 0.0000
-9 11 4 -0.1657 0.0000
-9 11 5 2.1415 0.0000
-9 11 6 0.3864 0.0000
-9 13 1 1.4420 0.0000
-9 13 2 -0.6534 0.0000
-9 13 3 -0.1383 0.0000
-9 13 4 -0.0358 0.0000
-8 0 2 5.0799 0.0000
-8 0 4 -5.8485 0.0000
-8 0 6 0.8255 0.0000
-8 0 8 -0.2471 0.0000
-8 2 1 0.9547 0.0000
-8 2 2 -3.3277 0.0000
-8 2 3 7.0654 0.0000
-8 2 4 -6.2416 0.0000
-8 2 5 2.9272 0.0000
-8 2 6 2.7292 0.0000
-8 2 7 -2.2951 0.0000
-8 2 8 -0.6359 0.0000
-8 2 9 -0.6344 0.0000
-8 4 1 -3.2414 0.0000
-8 4 2 9.4012 0.0000
-8 4 3 3.3873 0.0000
-8 4 4 5.5695 0.0000
-8 4 5 0.5469 0.0000
-8 4 6 -0.7473 0.0000
-8 4 7 -2.2284 0.0000
-8 4 8 0.9035 0.0000
-8 4 9 -0.1041 0.0000
-8 6 1 -0.5967 0.0000
-8 6 2 1.5799 0.0000
-8 6 3 0.3706 0.0000
-8 6 4 1.3536 0.0000
-8 6 5 -0.8039 0.0000
-8 6 6 3.0629 0.0000
-8 6 7 -1.6984 0.0000
-8 6 8 0.9951 0.0000
-8 8 1 -1.0849 0.0000
-8 8 2 -1.9254 0.0000
-8 8 3 -2.5823 0.0000
-8 8 4 4.8417 0.0000
-8 8 5 2.9073 0.0000
-8 8 6 -1.2782 0.0000
-8 8 7 -0.5309 0.0000
-8 8 8 -0.6371 0.0000
-8 10 1 -1.5939 0.0000
-8 10 2 0.2892 0.0000
-8 10 3 2.5865 0.0000
-8 10 4 1.2881 0.0000
-8 10 5 0.9934 0.0000
-8 10 6 -0.6464 0.0000
-8 10 7 0.8884 0.0000
-8 12 1 3.6610 0.0000
-8 12 2 1.4733 0.0000
-8 12 3 -1.0444 0.0000
-8 12 4 -0.1811 0.0000
-8 12 5 2.6658 0.0000
-8 14 1 -0.4230 0.0000
-8 14 2 -0.0172 0.0000
-8 14 3 1.0895 0.0000
-7 1 1 13.2765 0.0000
-7 1 2 -0.4028 0.0000
-7 1 3 3.3948 0.0000
-7 1 4 -5.7947 0.0000
-7 1 5 -1.4224 0.0000
-7 1 6 1.9334 0.0000
-7 1 7 0.0730 0.0000
-7 1 8 -0.6420 0.0000
-7 1 9 -0.5606 0.0000
-7 3 1 -5.0918 0.0000
-7 3 2 1.5799 0.0000
-7 3 3 10.6834 0.0000
-7 3 4 -0.7634 0.0000
-7 3 5 3.9578 0.0000
-7 3 6 0.8208 0.0000
-7 3 7 -3.1690 0.0000
-7 3 8 -0.4142 0.0000
-7 3 9 0.2043 0.0000
-7 5 1 0.7500 0.0000
-7 5 2 5.4076 0.0000
-7 5 3 1.7064 0.0000
-7 5 4 3.5704 0.0000
-7 5 5 -1.8784 0.0000
-7 5 6 2.5679 0.0000
-7 5 7 -0.5296 0.0000
-7 5 8 0.8563 0.0000
-7 5 9 -0.3963 0.0000
-7 7 1 -2.9571 0.0000
-7 7 2 0.0972 0.0000
-7 7 3 -2.4025 0.0000
-7 7 4 2.5750 0.0000
-7 7 5 3.0758 0.0000
-7 7 6 1.5425 0.0000
-7 7 7 -2.3229 0.0000
-7 7 8 0.1192 0.0000
-7 9 1 -0.9826 0.0000
-7 9 2 -2.6329 0.0000
-7 9 3 0.4447 0.0000
-7 9 4 5.0976 0.0000
-7 9 5 0.1012 0.0000
-7 9 6 -2.4513 0.0000
-7 9 7 0.0552 0.0000
-7 11 1 0.8777 0.0000
-7 11 2 3.8119 0.0000
-7 11 3 -0.0564 0.0000
-7 11 4 -0.5401 0.0000
-7 11 5 2.4374 0.0000
-7 11 6 0.1717 0.0000
-7 13 1 2.0517 0.0000
-7 13 2 -1.1630 0.0000
-7 13 3 1.1807 0.0000
-7 13 4 0.0372 0.0000
-6 0 2 12.4949 0.0000
-6 0 4 -4.4814 0.0000
-6 0 6 -0.7170 0.0000
-6 0 8 0.3075 0.0000
-6 2 1 8.3304 0.0000
-6 2 2 -11.0653 0.0000
-6 2 3 10.5124 0.0000
-6 2 4 -3.4689 0.0000
-6 2 5 0.4375 0.0000
-6 2 6 2.9799 0.0000
-6 2 7 -1.1187 0.0000
-6 2 8 -1.2879 0.0000
-6 2 9 -0.4143 0.0000
-6 4 1 -0.0098 0.0000
-6 4 2 6.5448 0.0000
-6 4 3 8.5702 0.0000
-6 4 4 1.2415 0.0000
-6 4 5 1.4058 0.0000
-6 4 6 1.0215 0.0000
-6 4 7 -1.5701 0.0000
-6 4 8 0.8525 0.0000
-6 4 9 0.7597 0.0000
-6 6 1 -2.6144 0.0000
-6 6 2 0.2636 0.0000
-6 6 3 -0.8390 0.0000
-6 6 4 1.9138 0.0000
-6 6 5 0.8817 0.0000
-6 6 6 4.3761 0.0000
-6 6 7 -1.2346 0.0000
-6 6 8 -0.6775 0.0000
-6 6 9 -0.6256 0.0000
-6 8 1 -2.1866 0.0000
-6 8 2 -0.0022 0.0000
-6 8 3 -2.9622 0.0000
-6 8 4 6.0945 0.0000
-6 8 5 1.8386 0.0000
-6 8 6 -2.3575 0.0000
-6 8 7 -1.8716 0.0000
-6 8 8 -0.0071 0.0000
-6 10 1 -1.1838 0.0000
-6 10 2 0.3894 0.0000
-6 10 3 1.7312 0.0000
-6 10 4 1.2620 0.0000
-6 10 5 -0.2734 0.0000
-6 10 6 -0.9657 0.0000
-6 10 7 0.7786 0.0000
-6 12 1 3.5988 0.0000
-6 12 2 1.2797 0.0000
-6 12 3 -1.1941 0.0000
-6 12 4 0.1297 0.0000
-6 12 5 2.9767 0.0000
-6 12 6 -0.6972 0.0000
-6 14 1 0.8319 0.0000
-6 14 2 0.2252 0.0000
-6 14 3 1.9818 0.0000
-5 1 1 11.1551 0.0000
-5 1 2 2.8529 0.0000
-5 1 3 -1.6928 0.0000
-5 1 4 -2.9239 0.0000
-5 1 5 -1.8323 0.0000
-5 1 6 -0.0031 0.0000
-5 1 7 1.3753 0.0000
-5 1 8 0.3568 0.0000
-5 1 9 -0.6522 0.0000
-5 1 10 0.1553 0.0000
-5 3 1 6.4998 0.0000
-5 3 2 -6.8641 0.0000
-5 3 3 18.1835 0.0000
-5 3 4 -1.4716 0.0000
-5 3 5 1.4322 0.0000
-5 3 6 2.9978 0.0000
-5 3 7 -2.4961 0.0000
-5 3 8 -0.6242 0.0000
-5 3 9 1.1396 0.0000
-5 5 1 -1.4381 0.0000
-5 5 2 1.9448 0.0000
-5 5 3 1.6224 0.0000
-5 5 4 1.1001 0.0000
-5 5 5 0.4951 0.0000
-5 5 6 3.1328 0.0000
-5 5 7 0.1837 0.0000
-5 5 8 -0.1489 0.0000
-5 5 9 -0.5229 0.0000
-5 7 1 -3.4579 0.0000
-5 7 2 1.1218 0.0000
-5 7 3 -1.8945 0.0000
-5 7 4 4.0233 0.0000
-5 7 5 3.2370 0.0000
-5 7 6 0.8539 0.0000
-5 7 7 -2.8255 0.0000
-5 7 8 -0.8562 0.0000
-5 9 1 -1.5055 0.0000
-5 9 2 -0.6460 0.0000
-5 9 3 -1.4832 0.0000
-5 9 4 5.2340 0.0000
-5 9 5 -1.8765 0.0000
-5 9 6 -2.9154 0.0000
-5 9 7 -0.2649 0.0000
-5 9 8 0.4082 0.0000
-5 11 1 1.5090 0.0000
-5 11 2 2.9028 0.0000
-5 11 3 -0.8139 0.0000
-5 11 4 -0.7018 0.0000
-5 11 5 2.2514 0.0000
-5 11 6 -0.1091 0.0000
-5 13 1 2.6530 0.0000
-5 13 2 -0.7838 0.0000
-5 13 3 1.6950 0.0000
-5 13 4 0.0040 0.0000
-5 13 5 1.3895 0.0000
-5 15 1 0.8490 0.0000
-4 0 2 19.4424 0.0000
-4 0 4 -6.2825 0.0000
-4 0 6 -2.4924 0.0000
-4 0 8 2.5752 0.0000
-4 0 10 -0.4042 0.0000
-4 2 1 10.9471 0.0000
-4 2 2 -12.0852 0.0000
-4 2 3 8.2083 0.0000
-4 2 4 1.9161 0.0000
-4 2 5 -1.8411 0.0000
-4 2 6 2.4690 0.0000
-4 2 7 0.6991 0.0000
-4 2 8 -0.8854 0.0000
-4 2 9 -0.0160 0.0000
-4 4 1 5.8429 0.0000
-4 4 2 -1.9641 0.0000
-4 4 3 12.7455 0.0000
-4 4 4 -2.4349 0.0000
-4 4 5 1.1802 0.0000
-4 4 6 2.7322 0.0000
-4 4 7 -1.9288 0.0000
-4 4 8 0.5928 0.0000
-4 4 9 1.0235 0.0000
-4 6 1 -4.0573 0.0000
-4 6 2 -0.2844 0.0000
-4 6 3 -0.8907 0.0000
-4 6 4 2.9101 0.0000
-4 6 5 2.2072 0.0000
-4 6 6 2.6619 0.0000
-4 6 7 -0.8621 0.0000
-4 6 8 -2.4411 0.0000
-4 6 9 -0.7780 0.0000
-4 8 1 -2.3271 0.0000
-4 8 2 2.2858 0.0000
-4 8 3 -3.5453 0.0000
-4 8 4 5.5468 0.0000
-4 8 5 0.4845 0.0000
-4 8 6 -3.3262 0.0000
-4 8 7 -2.1040 0.0000
-4 8 8 0.5682 0.0000
-4 10 1 -0.1733 0.0000
-4 10 2 0.9961 0.0000
-4 10 3 -0.2885 0.0000
-4 10 4 1.0778 0.0000
-4 10 5 -1.1300 0.0000
-4 10 6 -0.6010 0.0000
-4 10 7 0.1552 0.0000
-4 12 1 2.7119 0.0000
-4 12 2 0.7702 0.0000
-4 12 3 -1.1354 0.0000
-4 12 4 0.4113 0.0000
-4 12 5 2.5765 0.0000
-4 12 6 -0.8415 0.0000
-4 14 1 1.9991 0.0000
-4 14 2 0.2965 0.0000
-4 14 3 1.9182 0.0000
-4 14 4 -0.8221 0.0000
-3 1 1 -8.1338 0.0000
-3 1 2 7.6709 0.0000
-3 1 3 -8.0848 0.0000
-3 1 4 -2.2457 0.0000
-3 1 5 -0.0875 0.0000
-3 1 6 -1.2467 0.0000
-3 1 7 2.6812 0.0000
-3 1 8 1.9118 0.0000
-3 1 9 -0.8959 0.0000
-3 1 10 -1.0783 0.0000
-3 3 1 19.3073 0.0000
-3 3 2 -11.2322 0.0000
-3 3 3 18.7687 0.0000
-3 3 4 1.1367 0.0000
-3 3 5 -2.3871 0.0000
-3 3 6 3.9581 0.0000
-3 3 7 -1.7477 0.0000
-3 3 8 -0.6312 0.0000
-3 3 9 1.5625 0.0000
-3 5 1 -3.1947 0.0000
-3 5 2 -2.7368 0.0000
-3 5 3 2.8548 0.0000
-3 5 4 -0.5453 0.0000
-3 5 5 1.6248 0.0000
-3 5 6 1.5922 0.0000
-3 5 7 -0.6143 0.0000
-3 5 8 -1.3549 0.0000
-3 5 9 -0.8812 0.0000
-3 7 1 -1.0537 0.0000
-3 7 2 2.4476 0.0000
-3 7 3 -1.6498 0.0000
-3 7 4 3.8534 0.0000
-3 7 5 2.4058 0.0000
-3 7 6 -1.4239 0.0000
-3 7 7 -2.5006 0.0000
-3 7 8 -1.5014 0.0000
-3 7 9 0.1918 0.0000
-3 9 1 -2.2280 0.0000
-3 9 2 2.2216 0.0000
-3 9 3 -3.3437 0.0000
-3 9 4 3.8688 0.0000
-3 9 5 -2.5024 0.0000
-3 9 6 -2.7246 0.0000
-3 9 7 -0.3648 0.0000
-3 9 8 0.9453 0.0000
-3 11 1 2.1179 0.0000
-3 11 2 1.1637 0.0000
-3 11 3 -1.1558 0.0000
-3 11 4 -0.3628 0.0000
-3 11 5 1.9212 0.0000
-3 11 6 0.1796 0.0000
-3 11 7 -0.6968 0.0000
-3 13 1 1.9112 0.0000
-3 13 2 -0.1782 0.0000
-3 13 3 0.9681 0.0000
-3 13 4 0.2545 0.0000
-3 13 5 0.7208 0.0000
-3 15 1 1.0300 0.0000
-3 15 2 0.7128 0.0000
-2 0 2 11.9524 0.0000
-2 0 4 -10.9360 0.0000
-2 0 6 -1.6891 0.0000
-2 0 8 4.4204 0.0000
-2 0 10 -2.0227 0.0000
-2 2 1 -1.1528 0.0000
-2 2 2 -2.4376 0.0000
-2 2 3 2.2457 0.0000
-2 2 4 6.5886 0.0000
-2 2 5 -1.9890 0.0000
-2 2 6 1.0104 0.0000
-2 2 7 2.1801 0.0000
-2 2 8 -0.6904 0.0000
-2 2 9 -0.0905 0.0000
-2 2 10 -1.0986 0.0000
-2 4 1 12.4157 0.0000
-2 4 2 -9.9134 0.0000
-2 4 3 12.9432 0.0000
-2 4 4 -3.0728 0.0000
-2 4 5 -1.6497 0.0000
-2 4 6 2.5842 0.0000
-2 4 7 -2.5507 0.0000
-2 4 8 -0.2221 0.0000
-2 4 9 0.6518 0.0000
-2 6 1 -2.0343 0.0000
-2 6 2 0.9243 0.0000
-2 6 3 -0.4439 0.0000
-2 6 4 2.5838 0.0000
-2 6 5 1.9712 0.0000
-2 6 6 -0.8834 0.0000
-2 6 7 -1.1770 0.0000
-2 6 8 -3.4150 0.0000
-2 6 9 -0.6017 0.0000
-2 8 1 -1.2599 0.0000
-2 8 2 3.1974 0.0000
-2 8 3 -3.5093 0.0000
-2 8 4 2.8280 0.0000
-2 8 5 0.0628 0.0000
-2 8 6 -4.0940 0.0000
-2 8 7 -1.8435 0.0000
-2 8 8 1.0006 0.0000
-2 10 1 0.3158 0.0000
-2 10 2 2.3226 0.0000
-2 10 3 -2.2609 0.0000
-2 10 4 1.0073 0.0000
-2 10 5 -1.0148 0.0000
-2 10 6 -0.0037 0.0000
-2 10 7 -0.0864 0.0000
-2 12 1 1.1284 0.0000
-2 12 2 -0.0934 0.0000
-2 12 3 -0.5751 0.0000
-2 12 4 0.7354 0.0000
-2 12 5 1.8305 0.0000
-2 12 6 -0.1193 0.0000
-2 14 1 1.6563 0.0000
-2 14 2 -0.1370 0.0000
-2 14 3 0.9962 0.0000
-2 14 4 -0.4366 0.0000
-1 1 1 -41.1451 0.0000
-1 1 2 3.7736 0.0000
-1 1 3 -7.9346 0.0000
-1 1 4 -3.7770 0.0000
-1 1 5 2.9253 0.0000
-1 1 6 -0.8558 0.0000
-1 1 7 2.9855 0.0000
-1 1 8 2.5442 0.0000
-1 1 9 -1.5852 0.0000
-1 1 10 -2.2053 0.0000
-1 3 1 24.9149 0.0000
-1 3 2 -6.1130 0.0000
-1 3 3 11.5870 0.0000
-1 3 4 4.2511 0.0000
-1 3 5 -5.8152 0.0000
-1 3 6 2.0834 0.0000
-1 3 7 -0.7515 0.0000
-1 3 8 -1.2410 0.0000
-1 3 9 0.9833 0.0000
-1 5 1 -2.6075 0.0000
-1 5 2 -5.1048 0.0000
-1 5 3 4.1153 0.0000
-1 5 4 -1.5492 0.0000
-1 5 5 0.3596 0.0000
-1 5 6 -0.7602 0.0000
-1 5 7 -1.6732 0.0000
-1 5 8 -2.5603 0.0000
-1 5 9 -0.7187 0.0000
-1 7 1 3.9814 0.0000
-1 7 2 2.6985 0.0000
-1 7 3 -2.1550 0.0000
-1 7 4 1.7987 0.0000
-1 7 5 1.3752 0.0000
-1 7 6 -3.5552 0.0000
-1 7 7 -2.2589 0.0000
-1 7 8 -1.4248 0.0000
-1 7 9 0.5406 0.0000
-1 9 1 -2.9064 0.0000
-1 9 2 4.6007 0.0000
-1 9 3 -3.5689 0.0000
-1 9 4 1.1879 0.0000
-1 9 5 -1.3866 0.0000
-1 9 6 -2.3257 0.0000
-1 9 7 -0.3078 0.0000
-1 9 8 1.4815 0.0000
-1 11 1 2.2659 0.0000
-1 11 2 -0.1862 0.0000
-1 11 3 -1.1866 0.0000
-1 11 4 0.7195 0.0000
-1 11 5 1.4090 0.0000
-1 11 6 0.7668 0.0000
-1 11 7 -0.2450 0.0000
-1 13 1 -0.1226 0.0000
-1 13 2 -0.0225 0.0000
-1 13 3 -0.2271 0.0000
-1 13 4 0.7098 0.0000
-1 13 5 0.1434 0.0000
-1 15 1 0.6164 0.0000
-1 15 2 0.1028 0.0000
0 0 2 -18.0258 0.0000
0 0 4 -12.8039 0.0000
0 0 6 1.0184 0.0000
0 0 8 4.9640 0.0000
0 0 10 -2.5718 0.0000
0 2 0 12.2500 0.0000
0 2 1 -22.7866 0.0000
0 2 2 11.1727 0.0000
0 2 3 0.0410 0.0000
0 2 4 6.5059 0.0000
0 2 5 -0.9965 0.0000
0 2 6 -1.2800 0.0000
0 2 7 2.2805 0.0000
0 2 8 -0.9868 0.0000
0 2 9 -1.2712 0.0000
0 2 10 -1.9149 0.0000
0 4 0 1.8159 0.0000
0 4 1 15.9040 0.0000
0 4 2 -12.4810 0.0000
0 4 3 7.9865 0.0000
0 4 4 -1.6952 0.0000
0 4 5 -4.9723 0.0000
0 4 6 0.7712 0.0000
0 4 7 -2.1066 0.0000
0 4 8 -1.6467 0.0000
0 4 9 0.1264 0.0000
0 6 1 2.4378 0.0000
0 6 2 3.5273 0.0000
0 6 3 -0.5670 0.0000
0 6 4 0.7785 0.0000
0 6 5 1.0268 0.0000
0 6 6 -3.5311 0.0000
0 6 7 -1.5765 0.0000
0 6 8 -3.5995 0.0000
0 6 9 0.2665 0.0000
0 8 0 1.9223 0.0000
0 8 1 0.8066 0.0000
0 8 2 2.0459 0.0000
0 8 3 -2.0206 0.0000
0 8 4 -0.3617 0.0000
0 8 5 0.4823 0.0000
0 8 6 -3.8286 0.0000
0 8 7 -1.6893 0.0000
0 8 8 1.6089 0.0000
0 10 0 1.5080 0.0000
0 10 1 0.2133 0.0000
0 10 2 3.8359 0.0000
0 10 3 -3.6796 0.0000
0 10 4 0.8013 0.0000
0 10 5 -0.0969 0.0000
0 10 6 0.4133 0.0000
0 10 7 0.3041 0.0000
0 12 0 4.1660 0.0000
0 12 1 -0.3082 0.0000
0 12 2 -0.9606 0.0000
0 12 3 -0.1295 0.0000
0 12 4 0.9261 0.0000
0 12 5 1.1296 0.0000
0 12 6 0.6450 0.0000
0 14 0 -0.9246 0.0000
0 14 1 0.3816 0.0000
0 14 2 -0.6117 0.0000
0 14 3 0.0082 0.0000
0 14 4 0.3310 0.0000
1 1 0 122.4743 0.0000
1 1 1 -67.0167 0.0000
1 1 2 -12.2641 0.0000
1 1 3 2.4117 0.0000
1 1 4 -4.6076 0.0000
1 1 5 3.9279 0.0000
1 1 6 0.0765 0.0000
1 1 7 1.4431 0.0000
1 1 8 2.5028 0.0000
1 1 9 -2.7338 0.0000
1 1 10 -2.3372 0.0000
1 3 0 -8.2318 0.0000
1 3 1 22.2004 0.0000
1 3 2 4.3909 0.0000
1 3 3 1.5701 0.0000
1 3 4 3.9406 0.0000
1 3 5 -7.0357 0.0000
1 3 6 -1.1490 0.0000
1 3 7 0.0062 0.0000
1 3 8 -2.0412 0.0000
1 3 9 -0.4310 0.0000
1 5 0 -13.2766 0.0000
1 5 1 -2.1144 0.0000
1 5 2 -3.8802 0.0000
1 5 3 4.1989 0.0000
1 5 4 -1.4646 0.0000
1 5 5 -1.0175 0.0000
1 5 6 -2.4358 0.0000
1 5 7 -1.7981 0.0000
1 5 8 -3.4295 0.0000
1 5 9 -0.0491 0.0000
1 7 0 -9.3225 0.0000
1 7 1 8.9232 0.0000
1 7 2 2.3032 0.0000
1 7 3 -2.9235 0.0000
1 7 4 0.1981 0.0000
1 7 5 0.8924 0.0000
1 7 6 -3.9782 0.0000
1 7 7 -1.8902 0.0000
1 7 8 -0.8761 0.0000
1 7 9 1.0709 0.0000
1 9 0 2.7826 0.0000
1 9 1 -2.6515 0.0000
1 9 2 5.1816 0.0000
1 9 3 -1.9427 0.0000
1 9 4 -1.7275 0.0000
1 9 5 0.3074 0.0000
1 9 6 -1.3850 0.0000
1 9 7 -0.3203 0.0000
1 9 8 2.0712 0.0000
1 11 0 3.5572 0.0000
1 11 1 2.0759 0.0000
1 11 2 -0.6297 0.0000
1 11 3 -1.9134 0.0000
1 11 4 1.7670 0.0000
1 11 5 1.0377 0.0000
1 11 6 1.1279 0.0000
1 11 7 0.6584 0.0000
1 13 0 0.4244 0.0000
1 13 1 -1.8886 0.0000
1 13 2 -0.1021 0.0000
1 13 3 -1.1893 0.0000
1 13 4 0.5255 0.0000
1 13 5 0.1285 0.0000
1 15 0 0.5944 0.0000
1 15 1 0.4552 0.0000
1 15 2 -0.4453 0.0000
2 0 0 173.3267 0.0000
2 0 2 -54.4982 0.0000
2 0 4 -8.2296 0.0000
2 0 6 2.9174 0.0000
2 0 8 4.3038 0.0000
2 0 10 -1.9313 0.0000
2 2 0 11.0769 0.0000
2 2 1 -35.3528 0.0000
2 2 2 18.9300 0.0000
2 2 3 4.3780 0.0000
2 2 4 1.6370 0.0000
2 2 5 -1.2624 0.0000
2 2 6 -3.0269 0.0000
2 2 7 0.3138 0.0000
2 2 8 -0.8167 0.0000
2 2 9 -2.9025 0.0000
2 2 10 -1.9425 0.0000
2 4 0 3.9296 0.0000
2 4 1 13.5798 0.0000
2 4 2 -10.3102 0.0000
2 4 3 0.7752 0.0000
2 4 4 0.4197 0.0000
2 4 5 -5.3988 0.0000
2 4 6 -1.1830 0.0000
2 4 7 -1.3385 0.0000
2 4 8 -2.6105 0.0000
2 4 9 -0.2175 0.0000
2 6 0 -19.5700 0.0000
2 6 1 4.8121 0.0000
2 6 2 7.2901 0.0000
2 6 3 -0.8251 0.0000
2 6 4 -0.3257 0.0000
2 6 5 0.8743 0.0000
2 6 6 -4.5095 0.0000
2 6 7 -1.2567 0.0000
2 6 8 -3.0219 0.0000
2 6 9 0.9385 0.0000
2 8 0 1.1868 0.0000
2 8 1 3.1582 0.0000
2 8 2 0.1400 0.0000
2 8 3 0.1774 0.0000
2 8 4 -1.5400 0.0000
2 8 5 0.8131 0.0000
2 8 6 -2.3257 0.0000
2 8 7 -1.3535 0.0000
2 8 8 1.8628 0.0000
2 10 0 1.3243 0.0000
2 10 1 0.2175 0.0000
2 10 2 4.2302 0.0000
2 10 3 -4.3100 0.0000
2 10 4 -0.0009 0.0000
2 10 5 1.1935 0.0000
2 10 6 0.8305 0.0000
2 10 7 0.3917 0.0000
2 12 0 3.7658 0.0000
2 12 1 -0.8956 0.0000
2 12 2 -1.5611 0.0000
2 12 3 -0.5883 0.0000
2 12 4 0.4529 0.0000
2 12 5 0.6828 0.0000
2 12 6 0.8138 0.0000
2 14 0 -0.8312 0.0000
2 14 1 -0.2322 0.0000
2 14 2 -0.2588 0.0000
2 14 3 -0.5203 0.0000
2 14 4 0.4501 0.0000
3 1 0 84.3877 0.0000
3 1 1 -65.9095 0.0000
3 1 2 -28.5759 0.0000
3 1 3 15.9182 0.0000
3 1 4 -3.5624 0.0000
3 1 5 1.4056 0.0000
3 1 6 0.3624 0.0000
3 1 7 -1.5809 0.0000
3 1 8 2.0190 0.0000
3 1 9 -3.2384 0.0000
3 1 10 -1.6868 0.0000
3 3 0 -1.7782 0.0000
3 3 1 16.1887 0.0000
3 3 2 11.4042 0.0000
3 3 3 -5.8527 0.0000
3 3 4 0.4829 0.0000
3 3 5 -5.7187 0.0000
3 3 6 -3.0298 0.0000
3 3 7 -0.6363 0.0000
3 3 8 -1.8064 0.0000
3 3 9 -1.3800 0.0000
3 5 0 -7.7883 0.0000
3 5 1 -4.5143 0.0000
3 5 2 -0.1699 0.0000
3 5 3 3.9829 0.0000
3 5 4 0.4097 0.0000
3 5 5 -0.6339 0.0000
3 5 6 -3.5245 0.0000
3 5 7 -1.6943 0.0000
3 5 8 -2.9140 0.0000
3 5 9 0.3294 0.0000
3 7 0 -7.7208 0.0000
3 7 1 10.5594 0.0000
3 7 2 3.2668 0.0000
3 7 3 -3.4314 0.0000
3 7 4 0.6461 0.0000
3 7 5 1.0942 0.0000
3 7 6 -3.2344 0.0000
3 7 7 -0.8169 0.0000
3 7 8 -0.3196 0.0000
3 9 0 1.5214 0.0000
3 9 1 -1.2943 0.0000
3 9 2 3.6849 0.0000
3 9 4 -3.3454 0.0000
3 9 5 1.4249 0.0000
3 9 6 -0.1421 0.0000
3 9 7 -0.4819 0.0000
3 9 8 1.7936 0.0000
3 11 0 2.9187 0.0000
3 11 1 1.9052 0.0000
3 11 2 -0.8287 0.0000
3 11 3 -3.1390 0.0000
3 11 4 1.7670 0.0000
3 11 5 0.9839 0.0000
3 11 6 1.1500 0.0000
3 13 0 0.3875 0.0000
3 13 1 -2.2441 0.0000
3 13 2 -0.0461 0.0000
3 13 3 -1.5265 0.0000
3 13 4 -0.6601 0.0000
3 13 5 0.3647 0.0000
3 15 0 0.4474 0.0000
3 15 1 0.9178 0.0000
3 15 2 -0.2746 0.0000
4 0 0 94.3132 0.0000
4 0 2 -70.1495 0.0000
4 0 4 -1.3863 0.0000
4 0 6 2.4189 0.0000
4 0 8 2.0202 0.0000
4 2 0 9.0551 0.0000
4 2 1 -28.1830 0.0000
4 2 2 17.2714 0.0000
4 2 3 9.7926 0.0000
4 2 4 -4.5517 0.0000
4 2 5 -2.9745 0.0000
4 2 6 -3.0972 0.0000
4 2 7 -2.7800 0.0000
4 2 8 0.2379 0.0000
4 2 9 -2.9404 0.0000
4 4 0 7.4619 0.0000
4 4 1 6.6041 0.0000
4 4 2 -6.8447 0.0000
4 4 3 -4.2940 0.0000
4 4 4 2.6022 0.0000
4 4 5 -2.7039 0.0000
4 4 6 -2.3738 0.0000
4 4 7 -1.8716 0.0000
4 4 8 -1.9185 0.0000
4 4 9 0.0174 0.0000
4 6 0 -12.0901 0.0000
4 6 1 2.7756 0.0000
4 6 2 11.3297 0.0000
4 6 3 -0.2629 0.0000
4 6 4 -0.0634 0.0000
4 6 5 1.4998 0.0000
4 6 6 -4.7550 0.0000
4 6 7 -0.4977 0.0000
4 6 8 -1.4240 0.0000
4 6 9 0.5585 0.0000
4 8 0 -0.0825 0.0000
4 8 1 4.2788 0.0000
4 8 2 -0.7508 0.0000
4 8 3 1.2188 0.0000
4 8 4 -0.3721 0.0000
4 8 5 0.9436 0.0000
4 8 6 -0.8738 0.0000
4 8 7 -0.7549 0.0000
4 8 8 1.2180 0.0000
4 10 0 0.6638 0.0000
4 10 1 0.6142 0.0000
4 10 2 2.9489 0.0000
4 10 3 -3.5111 0.0000
4 10 4 -1.1677 0.0000
4 10 5 2.1677 0.0000
4 10 6 0.9510 0.0000
4 10 7 -0.1645 0.0000
4 12 0 2.6020 0.0000
4 12 1 -0.5471 0.0000
4 12 2 -2.1930 0.0000
4 12 3 -1.4048 0.0000
4 12 4 -0.4488 0.0000
4 12 5 0.1022 0.0000
4 12 6 0.6124 0.0000
4 14 0 -0.3408 0.0000
4 14 1 0.0720 0.0000
4 14 2 0.8338 0.0000
4 14 3 -0.4795 0.0000
5 1 0 35.0895 0.0000
5 1 1 -39.5879 0.0000
5 1 2 -31.8723 0.0000
5 1 3 22.2594 0.0000
5 1 4 -2.7579 0.0000
5 1 5 -2.3205 0.0000
5 1 6 -0.1687 0.0000
5 1 7 -4.1063 0.0000
5 1 8 0.8566 0.0000
5 1 9 -1.8645 0.0000
5 3 0 5.4665 0.0000
5 3 1 10.2142 0.0000
5 3 2 10.2603 0.0000
5 3 3 -8.6278 0.0000
5 3 4 -3.2582 0.0000
5 3 5 -2.8841 0.0000
5 3 6 -2.6638 0.0000
5 3 7 -2.3461 0.0000
5 3 8 -0.2394 0.0000
5 3 9 -0.6463 0.0000
5 5 0 -1.0410 0.0000
5 5 1 -8.2746 0.0000
5 5 2 3.5050 0.0000
5 5 3 4.3246 0.0000
5 5 4 2.6769 0.0000
5 5 5 0.7017 0.0000
5 5 6 -4.3735 0.0000
5 5 7 -2.2632 0.0000
5 5 8 -0.7290 0.0000
5 5 9 0.3135 0.0000
5 7 0 -4.3092 0.0000
5 7 1 7.9063 0.0000
5 7 2 5.5082 0.0000
5 7 3 -3.7126 0.0000
5 7 4 1.6101 0.0000
5 7 5 1.7912 0.0000
5 7 6 -2.3899 0.0000
5 7 7 0.3323 0.0000
5 7 8 0.0935 0.0000
5 9 0 0.1627 0.0000
5 9 1 -0.0485 0.0000
5 9 2 1.3216 0.0000
5 9 3 2.0448 0.0000
5 9 4 -3.1212 0.0000
5 9 5 1.7658 0.0000
5 9 6 0.1973 0.0000
5 9 7 -0.6941 0.0000
5 11 0 1.2489 0.0000
5 11 1 1.9345 0.0000
5 11 2 -1.4361 0.0000
5 11 3 -3.4222 0.0000
5 11 4 0.7897 0.0000
5 11 5 0.7871 0.0000
5 11 6 0.7235 0.0000
5 13 0 0.6609 0.0000
5 13 1 -1.4999 0.0000
5 13 2 -0.0952 0.0000
5 13 3 -0.8935 0.0000
5 13 4 -1.6794 0.0000
5 13 5 0.1226 0.0000
5 15 0 0.4688 0.0000
5 15 1 1.1165 0.0000
6 0 0 20.1006 0.0000
6 0 2 -55.8958 0.0000
6 0 4 1.9642 0.0000
6 0 6 0.2370 0.0000
6 0 8 -1.1935 0.0000
6 2 0 7.9183 0.0000
6 2 1 -9.6152 0.0000
6 2 2 9.0970 0.0000
6 2 3 10.7694 0.0000
6 2 4 -8.8952 0.0000
6 2 5 -4.0311 0.0000
6 2 6 -1.6155 0.0000
6 2 7 -4.5720 0.0000
6 2 8 1.5907 0.0000
6 2 9 -0.7616 0.0000
6 4 0 7.6478 0.0000
6 4 1 -1.2579 0.0000
6 4 2 -4.5437 0.0000
6 4 3 -5.1846 0.0000
6 4 4 3.5770 0.0000
6 4 5 0.8673 0.0000
6 4 6 -2.6726 0.0000
6 4 7 -3.3733 0.0000
6 4 8 -0.0328 0.0000
6 4 9 0.8577 0.0000
6 6 0 -3.7186 0.0000
6 6 1 -1.3264 0.0000
6 6 2 12.9994 0.0000
6 6 3 0.8278 0.0000
6 6 4 -0.0248 0.0000
6 6 5 2.0819 0.0000
6 6 6 -4.4615 0.0000
6 6 7 -0.0234 0.0000
6 6 8 0.5924 0.0000
6 6 9 -0.1640 0.0000
6 8 0 -0.3806 0.0000
6 8 1 3.1199 0.0000
6 8 2 -0.4614 0.0000
6 8 3 0.5702 0.0000
6 8 4 1.1827 0.0000
6 8 5 1.2914 0.0000
6 8 6 -0.3802 0.0000
6 8 7 -0.6667 0.0000
6 8 8 0.3121 0.0000
6 10 0 -0.1800 0.0000
6 10 1 0.8378 0.0000
6 10 2 0.9903 0.0000
6 10 3 -1.3226 0.0000
6 10 4 -2.1117 0.0000
6 10 5 2.1678 0.0000
6 10 6 0.3194 0.0000
6 10 7 -0.4981 0.0000
6 12 0 0.9756 0.0000
6 12 1 0.3193 0.0000
6 12 2 -3.0219 0.0000
6 12 3 -1.3067 0.0000
6 12 4 -0.6753 0.0000
6 12 5 -0.8242 0.0000
6 14 0 0.5239 0.0000
6 14 1 0.2801 0.0000
6 14 2 1.5867 0.0000
6 14 3 0.0396 0.0000
7 1 0 0.7942 0.0000
7 1 1 -7.8303 0.0000
7 1 2 -22.1622 0.0000
7 1 3 18.8961 0.0000
7 1 4 -3.0740 0.0000
7 1 5 -4.4720 0.0000
7 1 6 -0.7657 0.0000
7 1 7 -4.2268 0.0000
7 1 8 -0.3727 0.0000
7 1 9 0.6618 0.0000
7 3 0 8.2582 0.0000
7 3 1 4.2338 0.0000
7 3 2 2.9208 0.0000
7 3 3 -7.2421 0.0000
7 3 4 -5.4764 0.0000
7 3 5 0.3727 0.0000
7 3 6 -0.7960 0.0000
7 3 7 -3.5355 0.0000
7 3 8 1.4323 0.0000
7 3 9 0.8869 0.0000
7 5 0 2.1502 0.0000
7 5 1 -9.9099 0.0000
7 5 2 4.8811 0.0000
7 5 3 4.8806 0.0000
7 5 4 3.1884 0.0000
7 5 5 1.8375 0.0000
7 5 6 -4.5492 0.0000
7 5 7 -2.9594 0.0000
7 5 8 1.6524 0.0000
7 5 9 0.4113 0.0000
7 7 0 -0.5005 0.0000
7 7 1 2.9744 0.0000
7 7 2 6.4271 0.0000
7 7 3 -3.5514 0.0000
7 7 4 1.2690 0.0000
7 7 5 2.5150 0.0000
7 7 6 -1.5206 0.0000
7 7 7 0.5326 0.0000
7 7 8 0.2234 0.0000
7 9 0 -0.0013 0.0000
7 9 1 0.0332 0.0000
7 9 2 -0.4501 0.0000
7 9 3 2.7095 0.0000
7 9 4 -2.0279 0.0000
7 9 5 1.4077 0.0000
7 9 6 -0.2971 0.0000
7 9 7 -0.8975 0.0000
7 11 0 -0.9159 0.0000
7 11 1 1.8281 0.0000
7 11 2 -2.2123 0.0000
7 11 3 -2.2720 0.0000
7 11 4 -0.1483 0.0000
7 11 5 0.2185 0.0000
7 11 6 -0.0122 0.0000
7 13 0 1.1785 0.0000
7 13 1 -0.5299 0.0000
7 13 2 -0.4455 0.0000
7 13 3 0.6325 0.0000
7 13 4 -1.2858 0.0000
8 0 0 -18.9725 0.0000
8 0 2 -26.5388 0.0000
8 0 4 2.2364 0.0000
8 0 6 -1.9863 0.0000
8 0 8 -3.2000 0.0000
8 2 0 7.0712 0.0000
8 2 1 5.5225 0.0000
8 2 2 -0.4948 0.0000
8 2 3 7.6357 0.0000
8 2 4 -9.9523 0.0000
8 2 5 -3.4716 0.0000
8 2 6 0.7940 0.0000
8 2 7 -3.9314 0.0000
8 2 8 2.2110 0.0000
8 2 9 1.4419 0.0000
8 4 0 3.6493 0.0000
8 4 1 -6.8079 0.0000
8 4 2 -3.9297 0.0000
8 4 3 -2.4597 0.0000
8 4 4 2.9231 0.0000
8 4 5 3.6917 0.0000
8 4 6 -2.2240 0.0000
8 4 7 -4.4740 0.0000
8 4 8 1.4265 0.0000
8 4 9 1.4775 0.0000
8 6 0 1.1804 0.0000
8 6 1 -3.9353 0.0000
8 6 2 10.5706 0.0000
8 6 3 1.8456 0.0000
8 6 4 -0.9422 0.0000
8 6 5 2.2930 0.0000
8 6 6 -3.5090 0.0000
8 6 7 0.0646 0.0000
8 6 8 1.7423 0.0000
8 8 0 0.4318 0.0000
8 8 1 0.6447 0.0000
8 8 2 -0.0823 0.0000
8 8 3 -0.4801 0.0000
8 8 4 1.5466 0.0000
8 8 5 1.3521 0.0000
8 8 6 -0.1569 0.0000
8 8 7 -1.2988 0.0000
8 8 8 -0.0609 0.0000
8 10 0 -0.5244 0.0000
8 10 1 0.2479 0.0000
8 10 2 -0.5175 0.0000
8 10 3 0.5571 0.0000
8 10 4 -2.3672 0.0000
8 10 5 1.2640 0.0000
8 10 6 -0.1732 0.0000
8 10 7 -0.1858 0.0000
8 12 0 -0.3949 0.0000
8 12 1 1.2366 0.0000
8 12 2 -3.4506 0.0000
8 12 3 0.0224 0.0000
8 12 4 0.2495 0.0000
8 12 5 -1.4477 0.0000
8 14 0 1.0963 0.0000
8 14 1 -0.0019 0.0000
8 14 2 1.3488 0.0000
8 14 3 0.6734 0.0000
9 1 0 -11.2439 0.0000
9 1 1 11.8284 0.0000
9 1 2 -8.7586 0.0000
9 1 3 10.7624 0.0000
9 1 4 -2.8588 0.0000
9 1 5 -4.9925 0.0000
9 1 6 -0.8290 0.0000
9 1 7 -2.1990 0.0000
9 1 8 -1.0073 0.0000
9 1 9 2.1906 0.0000
9 3 0 6.5658 0.0000
9 3 1 -1.1084 0.0000
9 3 2 -5.4734 0.0000
9 3 3 -3.5339 0.0000
9 3 4 -5.3213 0.0000
9 3 5 3.0842 0.0000
9 3 6 1.5250 0.0000
9 3 7 -3.9131 0.0000
9 3 8 1.7516 0.0000
9 3 9 1.3541 0.0000
9 5 0 0.7715 0.0000
9 5 1 -8.3033 0.0000
9 5 2 3.9338 0.0000
9 5 3 5.5514 0.0000
9 5 4 2.0233 0.0000
9 5 5 2.3371 0.0000
9 5 6 -4.0874 0.0000
9 5 7 -3.0127 0.0000
9 5 8 2.8265 0.0000
9 7 0 1.6121 0.0000
9 7 1 -1.0461 0.0000
9 7 2 4.6253 0.0000
9 7 3 -2.3829 0.0000
9 7 4 0.0144 0.0000
9 7 5 2.4367 0.0000
9 7 6 -0.7528 0.0000
9 7 7 0.0236 0.0000
9 7 8 -0.0337 0.0000
9 9 0 0.7231 0.0000
9 9 1 -0.7186 0.0000
9 9 2 -1.3051 0.0000
9 9 3 2.0109 0.0000
9 9 4 -1.1934 0.0000
9 9 5 0.4109 0.0000
9 9 6 0.0551 0.0000
9 9 7 -0.9595 0.0000
9 11 0 -2.2751 0.0000
9 11 1 1.2808 0.0000
9 11 2 -2.4251 0.0000
9 11 3 -0.8457 0.0000
9 11 4 -0.0184 0.0000
9 11 5 -0.2774 0.0000
9 11 6 -0.3016 0.0000
9 13 0 1.5317 0.0000
9 13 1 0.4546 0.0000
9 13 2 -0.7843 0.0000
9 13 3 2.1846 0.0000
9 13 4 -0.0293 0.0000
10 0 0 -23.5691 0.0000
10 0 2 -1.5263 0.0000
10 0 4 2.0515 0.0000
10 0 6 -3.4070 0.0000
10 0 8 -3.2545 0.0000
10 2 0 5.8355 0.0000
10 2 1 10.8335 0.0000
10 2 2 -7.1136 0.0000
10 2 3 3.0233 0.0000
10 2 4 -7.9394 0.0000
10 2 5 -2.3457 0.0000
10 2 6 3.2548 0.0000
10 2 7 -2.2833 0.0000
10 2 8 1.3116 0.0000
10 2 9 1.6936 0.0000
10 4 0 -0.8543 0.0000
10 4 1 -8.7074 0.0000
10 4 2 -3.9444 0.0000
10 4 3 1.9407 0.0000
10 4 4 2.3132 0.0000
10 4 5 4.8992 0.0000
10 4 6 -1.7030 0.0000
10 4 7 -4.8907 0.0000
10 4 8 1.7765 0.0000
10 4 9 1.2814 0.0000
10 6 0 1.5829 0.0000
10 6 1 -3.6208 0.0000
10 6 2 5.6759 0.0000
10 6 3 2.6855 0.0000
10 6 4 -2.0218 0.0000
10 6 5 1.7786 0.0000
10 6 6 -2.6312 0.0000
10 6 7 0.0483 0.0000
10 6 8 1.7693 0.0000
10 8 0 1.0788 0.0000
10 8 1 -1.2003 0.0000
10 8 2 -0.3260 0.0000
10 8 3 -0.8291 0.0000
10 8 4 0.8692 0.0000
10 8 5 0.3748 0.0000
10 8 6 0.4836 0.0000
10 8 7 -1.5820 0.0000
10 10 0 -0.5604 0.0000
10 10 1 -0.9367 0.0000
10 10 2 -1.2031 0.0000
10 10 3 0.4610 0.0000
10 10 4 -1.5787 0.0000
10 10 5 0.3919 0.0000
10 10 6 0.5545 0.0000
10 12 0 -0.8175 0.0000
10 12 1 2.1951 0.0000
10 12 2 -2.7628 0.0000
10 12 3 1.4832 0.0000
10 12 4 1.5192 0.0000
10 12 5 -1.2958 0.0000
10 14 0 0.9796 0.0000
10 14 1 -0.1526 0.0000
10 14 2 0.4500 0.0000
11 1 0 -8.0570 0.0000
11 1 1 15.7483 0.0000
11 1 2 0.6261 0.0000
11 1 3 2.7523 0.0000
11 1 4 -2.2217 0.0000
11 1 5 -4.7769 0.0000
11 1 6 -0.5039 0.0000
11 1 7 0.0407 0.0000
11 1 8 -1.4298 0.0000
11 1 9 1.8743 0.0000
11 3 0 4.0441 0.0000
11 3 1 -3.8835 0.0000
11 3 2 -10.4477 0.0000
11 3 3 -0.1495 0.0000
11 3 4 -2.6303 0.0000
11 3 5 4.4127 0.0000
11 3 6 3.1339 0.0000
11 3 7 -4.2654 0.0000
11 3 8 0.6888 0.0000
11 3 9 0.6779 0.0000
11 5 0 -1.8982 0.0000
11 5 1 -4.8245 0.0000
11 5 2 2.5440 0.0000
11 5 3 6.0651 0.0000
11 5 4 0.6340 0.0000
11 5 5 1.3990 0.0000
11 5 6 -3.6742 0.0000
11 5 7 -2.4662 0.0000
11 5 8 2.9197 0.0000
11 7 0 1.5650 0.0000
11 7 1 -2.4017 0.0000
11 7 2 1.3398 0.0000
11 7 3 -0.6250 0.0000
11 7 4 -0.9524 0.0000
11 7 5 1.2781 0.0000
11 7 6 -0.6080 0.0000
11 7 7 -0.2531 0.0000
11 7 8 -0.2827 0.0000
11 9 0 0.5180 0.0000
11 9 1 -1.3652 0.0000
11 9 2 -1.6073 0.0000
11 9 3 0.3148 0.0000
11 9 4 -0.8522 0.0000
11 9 5 -0.5552 0.0000
11 9 6 1.6352 0.0000
11 9 7 -0.6789 0.0000
11 11 0 -2.1514 0.0000
11 11 1 0.6853 0.0000
11 11 2 -1.3969 0.0000
11 11 3 -0.3002 0.0000
11 11 4 1.2121 0.0000
11 11 5 -0.3569 0.0000
11 13 0 1.5038 0.0000
11 13 1 1.6329 0.0000
11 13 2 -0.9275 0.0000
11 13 3 2.5661 0.0000
12 0 0 -10.9330 0.0000
12 0 2 10.0284 0.0000
12 0 4 0.2323 0.0000
12 0 6 -3.6357 0.0000
12 2 0 4.7453 0.0000
12 2 1 8.9823 0.0000
12 2 2 -9.1850 0.0000
12 2 3 -1.5023 0.0000
12 2 4 -4.6513 0.0000
12 2 5 -1.1899 0.0000
12 2 6 4.6929 0.0000
12 2 7 -1.2775 0.0000
12 2 8 -0.5508 0.0000
12 4 0 -2.0870 0.0000
12 4 1 -7.4160 0.0000
12 4 2 -3.0991 0.0000
12 4 3 5.3251 0.0000
12 4 4 2.6778 0.0000
12 4 5 3.8929 0.0000
12 4 6 -1.7697 0.0000
12 4 7 -4.7324 0.0000
12 4 8 1.5714 0.0000
12 6 0 0.0117 0.0000
12 6 1 -1.4726 0.0000
12 6 2 1.1989 0.0000
12 6 3 2.6220 0.0000
12 6 4 -2.7475 0.0000
12 6 5 0.3291 0.0000
12 6 6 -2.0221 0.0000
12 6 7 0.0018 0.0000
12 6 8 1.4123 0.0000
12 8 0 0.3791 0.0000
12 8 1 -1.6070 0.0000
12 8 2 -1.0023 0.0000
12 8 3 -0.5466 0.0000
12 8 4 0.0958 0.0000
12 8 5 -0.9945 0.0000
12 8 6 1.0114 0.0000
12 8 7 -0.8206 0.0000
12 10 0 -0.9400 0.0000
12 10 1 -1.7496 0.0000
12 10 2 -0.8214 0.0000
12 10 3 -0.8113 0.0000
12 10 4 -0.2085 0.0000
12 10 5 0.3934 0.0000
12 10 6 1.5817 0.0000
12 12 0 -0.3543 0.0000
12 12 1 3.0895 0.0000
12 12 2 -1.0555 0.0000
12 12 3 1.6805 0.0000
12 12 4 1.9953 0.0000
12 14 0 0.5158 0.0000
13 1 0 -0.6488 0.0000
13 1 1 10.5731 0.0000
13 1 2 3.7254 0.0000
13 1 3 -3.1103 0.0000
13 1 4 -3.1051 0.0000
13 1 5 -3.3425 0.0000
13 1 6 0.1565 0.0000
13 1 7 1.0656 0.0000
13 1 8 -1.7927 0.0000
13 3 0 3.2236 0.0000
13 3 1 -3.6466 0.0000
13 3 2 -10.6228 0.0000
13 3 3 1.5417 0.0000
13 3 4 0.8361 0.0000
13 3 5 4.2051 0.0000
13 3 6 3.3360 0.0000
13 3 7 -4.4180 0.0000
13 3 8 -0.4228 0.0000
13 5 0 -2.4629 0.0000
13 5 1 -1.7054 0.0000
13 5 2 1.8692 0.0000
13 5 3 5.0794 0.0000
13 5 4 -0.6433 0.0000
13 5 5 -0.9933 0.0000
13 5 6 -3.0723 0.0000
13 5 7 -1.5261 0.0000
13 5 8 2.3816 0.0000
13 7 0 0.2325 0.0000
13 7 1 -1.7769 0.0000
13 7 2 -1.4647 0.0000
13 7 3 0.3227 0.0000
13 7 4 -1.1311 0.0000
13 7 5 0.1542 0.0000
13 7 6 -0.7623 0.0000
13 7 7 -0.1941 0.0000
13 9 0 -1.2368 0.0000
13 9 1 -1.3226 0.0000
13 9 2 -1.4304 0.0000
13 9 3 -0.7655 0.0000
13 9 4 -0.8308 0.0000
13 9 5 -0.7020 0.0000
13 9 6 2.6858 0.0000
13 11 0 -0.8755 0.0000
13 11 1 0.4266 0.0000
13 11 2 0.8094 0.0000
13 11 3 -0.4032 0.0000
13 11 4 2.1305 0.0000
13 11 5 -0.1871 0.0000
13 13 0 0.9882 0.0000
13 13 1 2.4550 0.0000
13 13 2 -0.9913 0.0000
14 0 0 1.1296 0.0000
14 0 2 10.3698 0.0000
14 0 4 -4.3102 0.0000
14 0 6 -2.0592 0.0000
14 0 8 -1.7399 0.0000
14 2 0 3.5569 0.0000
14 2 1 5.1812 0.0000
14 2 2 -8.1362 0.0000
14 2 3 -4.3865 0.0000
14 2 4 -1.7746 0.0000
14 2 5 0.4058 0.0000
14 2 6 4.7186 0.0000
14 2 7 -1.0129 0.0000
14 2 8 -1.6385 0.0000
14 4 0 0.1934 0.0000
14 4 1 -4.8443 0.0000
14 4 2 -1.3628 0.0000
14 4 3 6.0079 0.0000
14 4 4 2.4244 0.0000
14 4 5 1.3633 0.0000
14 4 6 -1.9174 0.0000
14 4 7 -3.7109 0.0000
14 4 8 1.1954 0.0000
14 6 0 -1.3116 0.0000
14 6 1 0.0992 0.0000
14 6 2 -1.3761 0.0000
14 6 3 1.0424 0.0000
14 6 4 -3.0372 0.0000
14 6 5 -0.9259 0.0000
14 6 6 -0.6640 0.0000
14 6 7 -0.1337 0.0000
14 8 0 -1.2767 0.0000
14 8 1 -1.0718 0.0000
14 8 2 -1.4171 0.0000
14 8 3 -0.0742 0.0000
14 8 4 -0.0679 0.0000
14 8 5 -1.4265 0.0000
14 8 6 0.8004 0.0000
14 10 0 -1.2116 0.0000
14 10 1 -1.4983 0.0000
14 10 2 0.4777 0.0000
14 10 3 -0.9047 0.0000
14 10 4 0.3314 0.0000
14 10 5 0.9626 0.0000
14 12 0 0.1588 0.0000
14 12 1 3.0258 0.0000
14 12 2 0.7061 0.0000
14 12 3 0.5547 0.0000
15 1 0 2.8950 0.0000
15 1 1 4.5147 0.0000
15 1 2 2.9501 0.0000
15 1 3 -6.1510 0.0000
15 1 4 -4.8462 0.0000
15 1 5 -0.3523 0.0000
15 1 6 1.3164 0.0000
15 1 7 0.8563 0.0000
15 1 8 -1.4559 0.0000
15 3 0 3.4958 0.0000
15 3 1 -1.7898 0.0000
15 3 2 -7.8125 0.0000
15 3 3 2.3537 0.0000
15 3 4 2.6446 0.0000
15 3 5 2.7536 0.0000
15 3 6 2.6089 0.0000
15 3 7 -3.7497 0.0000
15 3 8 -0.6131 0.0000
15 5 0 -0.9069 0.0000
15 5 1 -0.8322 0.0000
15 5 2 1.4405 0.0000
15 5 3 2.5464 0.0000
15 5 4 -2.0007 0.0000
15 5 5 -2.9085 0.0000
15 5 6 -1.4472 0.0000
15 5 7 -0.3738 0.0000
15 7 0 -1.3309 0.0000
15 7 1 -0.8903 0.0000
15 7 2 -2.3924 0.0000
15 7 3 0.0724 0.0000
15 7 4 -0.5442 0.0000
15 7 5 0.3271 0.0000
15 7 6 -0.3421 0.0000
15 7 7 -0.3202 0.0000
15 9 0 -2.6922 0.0000
15 9 1 -0.5599 0.0000
15 9 2 -0.7898 0.0000
15 9 3 -0.0747 0.0000
15 9 4 -0.9631 0.0000
15 9 5 -0.3162 0.0000
15 9 6 2.1027 0.0000
15 11 0 0.6657 0.0000
15 11 1 0.2043 0.0000
15 11 2 2.7586 0.0000
15 11 3 -0.1888 0.0000
15 11 4 1.4487 0.0000
15 13 0 0.0356 0.0000
15 13 1 2.0809 0.0000
16 0 0 4.8486 0.0000
16 0 2 7.2862 0.0000
16 0 4 -8.3525 0.0000
16 0 6 0.8283 0.0000
16 0 8 -0.8060 0.0000
16 2 0 1.4946 0.0000
16 2 1 2.7552 0.0000
16 2 2 -5.7933 0.0000
16 2 3 -4.5738 0.0000
16 2 4 0.4604 0.0000
16 2 5 1.8803 0.0000
16 2 6 3.6959 0.0000
16 2 7 -0.9836 0.0000
16 2 8 -1.1686 0.0000
16 4 0 3.2240 0.0000
16 4 1 -2.8793 0.0000
16 4 2 -0.1176 0.0000
16 4 3 4.7999 0.0000
16 4 4 0.6084 0.0000
16 4 5 -1.0542 0.0000
16 4 6 -1.2684 0.0000
16 6 0 -2.0873 0.0000
16 6 1 -0.3147 0.0000
16 6 2 -1.6969 0.0000
16 6 3 -0.4780 0.0000
16 6 4 -2.5789 0.0000
16 6 5 -0.7106 0.0000
16 6 6 1.4853 0.0000
16 6 7 -0.2634 0.0000
16 8 0 -2.1484 0.0000
16 8 1 -0.3889 0.0000
16 8 2 -1.0084 0.0000
16 8 3 0.2995 0.0000
16 8 4 0.4077 0.0000
16 8 5 -0.8040 0.0000
16 8 6 0.1796 0.0000
16 10 0 -0.5538 0.0000
16 10 1 -0.4409 0.0000
16 10 2 1.5159 0.0000
16 10 3 0.6860 0.0000
16 10 4 -0.4260 0.0000
16 10 5 1.0972 0.0000
16 12 0 0.0920 0.0000
16 12 1 1.5813 0.0000
16 12 2 1.4574 0.0000
17 1 0 2.0634 0.0000
17 1 1 1.2894 0.0000
17 1 2 2.1784 0.0000
17 1 3 -6.5081 0.0000
17 1 4 -5.0058 0.0000
17 1 5 2.6407 0.0000
17 1 6 2.3092 0.0000
17 1 7 0.1341 0.0000
17 3 0 3.1818 0.0000
17 3 1 0.1180 0.0000
17 3 2 -4.5511 0.0000
17 3 3 2.8783 0.0000
17 3 4 2.4591 0.0000
17 3 5 0.4922 0.0000
17 3 7 -2.6066 0.0000
17 5 0 0.5644 0.0000
17 5 1 -2.0695 0.0000
17 5 2 0.9210 0.0000
17 5 3 0.8938 0.0000
17 5 4 -2.5805 0.0000
17 5 5 -2.9120 0.0000
17 5 6 0.5848 0.0000
17 5 7 0.5152 0.0000
17 7 0 -2.1035 0.0000
17 7 1 -0.5449 0.0000
17 7 2 -1.1585 0.0000
17 7 3 -0.1970 0.0000
17 7 4 0.2571 0.0000
17 7 5 1.3036 0.0000
17 7 6 0.4884 0.0000
17 9 0 -2.2070 0.0000
17 9 1 0.2734 0.0000
17 9 2 -0.0860 0.0000
17 9 3 1.3308 0.0000
17 9 4 -0.9090 0.0000
17 9 5 -0.2264 0.0000
17 11 0 1.5176 0.0000
17 11 1 -0.1129 0.0000
17 11 2 2.8063 0.0000
17 11 3 0.4362 0.0000
18 0 0 4.1597 0.0000
18 0 2 5.4012 0.0000
18 0 4 -8.7582 0.0000
18 2 0 -0.5888 0.0000
18 2 1 1.5903 0.0000
18 2 2 -3.0901 0.0000
18 2 3 -3.1411 0.0000
18 2 4 1.8381 0.0000
18 2 5 2.2197 0.0000
18 2 6 2.0399 0.0000
18 2 7 -0.9710 0.0000
18 4 0 4.3469 0.0000
18 4 1 -1.8796 0.0000
18 4 2 0.0341 0.0000
18 4 3 3.3993 0.0000
18 4 4 -0.8916 0.0000
18 4 5 -2.3855 0.0000
18 4 6 -0.2502 0.0000
18 6 0 -2.5607 0.0000
18 6 1 -1.5745 0.0000
18 6 2 -0.0981 0.0000
18 6 3 0.0979 0.0000
18 6 4 -1.4973 0.0000
18 6 5 0.2331 0.0000
18 6 6 2.6325 0.0000
18 8 0 -1.4801 0.0000
18 8 1 -0.2129 0.0000
18 8 2 -0.0665 0.0000
18 8 3 0.4072 0.0000
18 8 4 0.8622 0.0000
18 8 5 -0.1367 0.0000
18 10 0 0.5035 0.0000
18 10 1 0.5792 0.0000
18 10 2 1.3433 0.0000
18 10 3 1.9424 0.0000
18 10 4 -1.1395 0.0000
18 12 0 -0.2295 0.0000
19 1 0 1.3556 0.0000
19 1 1 -0.4327 0.0000
19 1 2 1.7908 0.0000
19 1 3 -4.8320 0.0000
19 1 4 -3.6530 0.0000
19 1 5 3.7988 0.0000
19 1 6 2.2419 0.0000
19 1 7 -0.3759 0.0000
19 3 0 1.8268 0.0000
19 3 1 1.0297 0.0000
19 3 2 -2.0457 0.0000
19 3 3 2.4005 0.0000
19 3 4 1.7014 0.0000
19 3 5 -1.2898 0.0000
19 3 6 0.6257 0.0000
19 3 7 -1.5966 0.0000
19 5 0 0.5364 0.0000
19 5 1 -3.2960 0.0000
19 5 2 0.8515 0.0000
19 5 3 1.5008 0.0000
19 5 4 -1.5995 0.0000
19 5 5 -1.9251 0.0000
19 5 6 1.3193 0.0000
19 7 0 -2.0002 0.0000
19 7 1 -0.4113 0.0000
19 7 2 0.8076 0.0000
19 7 3 0.2770 0.0000
19 7 4 0.3883 0.0000
19 7 5 1.5068 0.0000
19 9 0 -0.7721 0.0000
19 9 1 0.3047 0.0000
19 9 2 0.3313 0.0000
19 9 3 1.7009 0.0000
19 9 4 -0.4763 0.0000
19 11 0 1.3789 0.0000
19 11 1 -0.0858 0.0000
19 11 2 1.1795 0.0000
20 0 0 4.6775 0.0000
20 0 2 2.3823 0.0000
20 0 4 -6.1965 0.0000
20 0 6 3.0792 0.0000
20 2 0 -1.3512 0.0000
20 2 1 -0.1680 0.0000
20 2 2 -1.1139 0.0000
20 2 3 -1.4542 0.0000
20 2 4 1.4822 0.0000
20 2 5 1.8641 0.0000
20 2 6 0.4495 0.0000
20 4 0 3.0999 0.0000
20 4 1 -1.3099 0.0000
20 4 2 -0.1524 0.0000
20 4 3 2.3267 0.0000
20 4 4 -0.2786 0.0000
20 4 5 -2.4539 0.0000
20 4 6 0.1040 0.0000
20 6 0 -2.9414 0.0000
20 6 1 -1.8330 0.0000
20 6 2 1.9347 0.0000
20 6 3 1.8577 0.0000
20 6 4 -0.6544 0.0000
20 6 5 0.3720 0.0000
20 8 0 -0.7351 0.0000
20 8 1 -0.6887 0.0000
20 8 2 0.4974 0.0000
20 8 3 0.3357 0.0000
20 8 4 0.7135 0.0000
20 10 0 0.8080 0.0000
20 10 1 0.9143 0.0000
20 10 2 0.5211 0.0000
21 1 0 2.3995 0.0000
21 1 1 -2.6593 0.0000
21 1 2 -0.6926 0.0000
21 1 3 -1.4971 0.0000
21 1 4 -2.3593 0.0000
21 1 5 2.9493 0.0000
21 1 6 1.4920 0.0000
21 3 0 0.0740 0.0000
21 3 1 0.6290 0.0000
21 3 2 -0.4864 0.0000
21 3 3 1.0968 0.0000
21 3 4 1.2937 0.0000
21 3 5 -1.1103 0.0000
21 3 6 -0.2579 0.0000
21 5 0 -0.6560 0.0000
21 5 1 -3.2070 0.0000
21 5 2 1.3266 0.0000
21 5 3 2.6067 0.0000
21 5 4 0.0435 0.0000
21 5 5 -1.2227 0.0000
21 7 0 -2.1248 0.0000
21 7 1 -0.1413 0.0000
21 7 2 1.5978 0.0000
21 7 3 0.7850 0.0000
21 7 4 -0.1992 0.0000
21 9 0 -0.2546 0.0000
21 9 1 -0.4418 0.0000
21 9 2 0.5107 0.0000
21 9 3 0.9653 0.0000
22 0 0 5.6910 0.0000
22 0 2 -3.9026 0.0000
22 0 4 -2.4671 0.0000
22 0 6 1.9894 0.0000
22 2 0 -1.1156 0.0000
22 2 1 -2.6510 0.0000
22 2 2 -0.5696 0.0000
22 2 3 0.6591 0.0000
22 2 4 -0.1866 0.0000
22 2 5 1.7156 0.0000
22 2 6 -0.1716 0.0000
22 4 0 0.7566 0.0000
22 4 1 -1.0792 0.0000
22 4 2 -0.1691 0.0000
22 4 3 1.4803 0.0000
22 4 4 1.4761 0.0000
22 4 5 -1.4978 0.0000
22 6 0 -3.2692 0.0000
22 6 1 -1.0799 0.0000
22 6 2 2.7229 0.0000
22 6 3 2.2574 0.0000
22 6 4 -0.4842 0.0000
22 8 0 -1.1555 0.0000
22 8 1 -1.1580 0.0000
22 8 2 0.3721 0.0000
22 8 3 0.2996 0.0000
23 1 0 3.0096 0.0000
23 1 1 -4.6800 0.0000
23 1 2 -4.5882 0.0000
23 1 3 2.5351 0.0000
23 1 4 -1.1749 0.0000
23 1 5 1.1311 0.0000
23 3 0 -1.3365 0.0000
23 3 1 -0.4149 0.0000
23 3 2 0.1904 0.0000
23 3 3 0.4285 0.0000
23 3 4 1.1496 0.0000
23 3 5 0.4362 0.0000
23 5 0 -1.7284 0.0000
23 5 1 -2.4481 0.0000
23 5 2 1.5515 0.0000
23 5 3 2.3392 0.0000
23 5 4 0.8497 0.0000
23 7 0 -2.6116 0.0000
23 7 1 0.1732 0.0000
23 7 2 1.0042 0.0000
23 7 3 0.6092 0.0000
23 9 0 -0.6304 0.0000
23 9 1 -1.0238 0.0000
24 0 0 4.7911 0.0000
24 0 2 -9.2857 0.0000
24 0 4 1.0837 0.0000
24 2 0 -0.6473 0.0000
24 2 1 -4.0106 0.0000
24 2 2 -0.5541 0.0000
24 2 3 2.8723 0.0000
24 2 4 -1.3433 0.0000
24 2 5 1.4164 0.0000
24 4 0 -1.1378 0.0000
24 4 1 -1.1837 0.0000
24 4 2 -0.2796 0.0000
24 4 3 1.0200 0.0000
24 4 4 2.2782 0.0000
24 6 0 -2.8105 0.0000
24 6 1 -0.3723 0.0000
24 6 2 2.0368 0.0000
24 6 3 0.9887 0.0000
24 8 0 -1.6348 0.0000
24 8 1 -0.9262 0.0000
25 1 0 2.5410 0.0000
25 1 1 -4.7434 0.0000
25 1 2 -6.0314 0.0000
25 1 3 4.8975 0.0000
25 1 4 0.0731 0.0000
25 3 0 -1.8315 0.0000
25 3 1 -1.0693 0.0000
25 3 2 0.2459 0.0000
25 3 3 0.6389 0.0000
25 3 4 0.9233 0.0000
25 5 0 -1.5860 0.0000
25 5 1 -1.6345 0.0000
25 5 2 1.0604 0.0000
25 5 3 1.1508 0.0000
25 7 0 -2.1082 0.0000
25 7 1 0.3991 0.0000
26 0 0 3.1288 0.0000
26 0 2 -9.1809 0.0000
26 0 4 2.6037 0.0000
26 2 0 0.1516 0.0000
26 2 1 -3.3096 0.0000
26 2 2 -0.1247 0.0000
26 2 3 3.3380 0.0000
26 4 0 -1.6857 0.0000
26 4 1 -1.0537 0.0000
26 4 2 -0.5580 0.0000
26 4 3 0.8129 0.0000
26 6 0 -1.1278 0.0000
26 6 1 0.0258 0.0000
27 1 0 2.1776 0.0000
27 1 1 -2.9351 0.0000
27 1 2 -4.1042 0.0000
27 1 3 4.0296 0.0000
27 3 0 -1.2916 0.0000
27 3 1 -0.9336 0.0000
27 3 2 -0.0045 0.0000
27 5 0 -0.4158 0.0000
28 0 0 2.1232 0.0000
28 0 2 -5.1957 0.0000
28 2 0 0.9195 0.0000
28 2 1 -1.5781 0.0000
0 0 0 0.0 0.0
;
_olex2_submission_special_instructions 'No special instructions were received'
loop_
_space_group_symop_operation_xyz
'x, y, z'
'-x, y, -z+1/2'
'x+1/2, y+1/2, z'
'-x+1/2, y+1/2, -z+1/2'
'-x, -y, -z'
'x, -y, z-1/2'
'-x+1/2, -y+1/2, -z'
'x+1/2, -y+1/2, z-1/2'
loop_
_atom_site_label
_atom_site_type_symbol
_atom_site_fract_x
_atom_site_fract_y
_atom_site_fract_z
_atom_site_U_iso_or_equiv
_atom_site_adp_type
_atom_site_occupancy
_atom_site_site_symmetry_order
_atom_site_calc_flag
_atom_site_refinement_flags_posn
_atom_site_refinement_flags_occupancy
_atom_site_disorder_assembly
_atom_site_disorder_group
Cu1 Cu 0.29462(2) 0.79509(2) 0.55433(3) 0.01406(10) Uani 1 1 d . . . .
O2 O 0.25682(6) 0.92259(11) 0.49237(18) 0.0206(3) Uani 1 1 d . . . .
O3 O 0.25115(7) 0.79078(12) 0.74424(18) 0.0228(4) Uani 1 1 d . . . .
C1 C 0.20934(9) 0.92364(17) 0.4312(2) 0.0175(5) Uani 1 1 d . . . .
O1 O 0.32571(7) 0.78244(13) 0.34562(18) 0.0242(4) Uani 1 1 d . . . .
O4 O 0.31989(7) 0.65473(12) 0.59297(19) 0.0254(4) Uani 1 1 d . . . .
N1B N 0.3535(15) 0.854(4) 0.684(5) 0.0132(10) Uani 0.2084 1 d . P A 2
C6A C 0.40329(16) 0.8023(4) 0.7532(6) 0.0173(4) Uani 0.7916 1 d . P A 1
H6A H 0.406780 0.735011 0.713736 0.021 Uiso 0.74(2) 1 calc R P B 1
C5 C 0.20267(9) 0.76245(16) 0.7584(2) 0.0168(5) Uani 1 1 d . . . .
C4 C 0.17625(10) 0.78538(17) 0.9116(3) 0.0200(5) Uani 1 1 d . . . .
H4A H 0.183973 0.728566 0.984588 0.024 Uiso 1 1 calc R . . .
H4B H 0.136062 0.789577 0.894569 0.024 Uiso 1 1 calc R . . .
C7A C 0.43905(16) 0.8348(2) 0.8636(5) 0.0173(4) Uani 0.7916 1 d . P A 1
H7A H 0.467580 0.790787 0.899710 0.021 Uiso 0.74(2) 1 calc R P B 1
C8A C 0.43464(15) 0.9329(2) 0.9259(4) 0.0173(4) Uani 0.7916 1 d . P A 1
C11A C 0.35535(17) 0.9528(3) 0.7572(4) 0.0173(4) Uani 0.7916 1 d . P A 1
H11A H 0.324926 0.992824 0.723070 0.021 Uiso 0.74(2) 1 calc R P B 1
C10A C 0.39075(14) 0.9921(3) 0.8700(4) 0.0173(4) Uani 0.7916 1 d . P A 1
H10A H 0.385299 1.058897 0.909205 0.021 Uiso 0.74(2) 1 calc R P B 1
C3 C 0.19691(10) 1.11476(17) 0.4846(2) 0.0216(5) Uani 1 1 d . . . .
H3A H 0.236864 1.119726 0.505837 0.026 Uiso 1 1 calc R . . .
H3B H 0.178872 1.103906 0.584597 0.026 Uiso 1 1 calc R . . .
C9A C 0.47518(17) 0.9751(3) 1.0437(4) 0.0228(8) Uani 0.7916 1 d . P A 1
H9AA H 0.488784 0.919739 1.112758 0.027 Uiso 0.74(2) 1 calc R P B 1
H9AB H 0.457247 1.027125 1.108201 0.027 Uiso 0.74(2) 1 calc R P B 1
C2 C 0.18514(11) 1.02423(18) 0.3783(3) 0.0244(5) Uani 1 1 d . . . .
H2A H 0.144933 1.016083 0.366747 0.029 Uiso 1 1 calc R . . .
H2B H 0.199181 1.040196 0.274564 0.029 Uiso 1 1 calc R . . .
C9B C 0.4776(7) 1.0003(16) 1.005(2) 0.0228(8) Uani 0.2084 1 d . P A 2
H9BA H 0.468490 1.073182 1.019245 0.027 Uiso 0.26(2) 1 calc R P B 2
H9BB H 0.471358 0.967571 1.106337 0.027 Uiso 0.26(2) 1 calc R P B 2
C8B C 0.4308(6) 0.9598(10) 0.8999(15) 0.0173(4) Uani 0.2084 1 d . P A 2
C7B C 0.4383(7) 0.8626(10) 0.8631(18) 0.0173(4) Uani 0.2084 1 d . P A 2
H7B H 0.468651 0.824471 0.902904 0.021 Uiso 0.26(2) 1 calc R P B 2
C10B C 0.3897(6) 1.0128(11) 0.8320(14) 0.0173(4) Uani 0.2084 1 d . P A 2
H10B H 0.384722 1.082560 0.858052 0.021 Uiso 0.26(2) 1 calc R P B 2
C11B C 0.3547(7) 0.9672(13) 0.7247(15) 0.0173(4) Uani 0.2084 1 d . P A 2
H11B H 0.329040 1.009989 0.671325 0.021 Uiso 0.26(2) 1 calc R P B 2
C6B C 0.3947(6) 0.8150(16) 0.752(3) 0.0173(4) Uani 0.2084 1 d . P A 2
H6B H 0.399910 0.744574 0.730339 0.021 Uiso 0.26(2) 1 calc R P B 2
N1A N 0.3621(3) 0.8631(8) 0.6961(12) 0.0132(10) Uani 0.7916 1 d . P A 1
loop_
_atom_site_aniso_label
_atom_site_aniso_U_11
_atom_site_aniso_U_22
_atom_site_aniso_U_33
_atom_site_aniso_U_23
_atom_site_aniso_U_13
_atom_site_aniso_U_12
Cu1 0.02018(17) 0.01159(16) 0.01006(15) -0.00030(9) -0.00538(11) -0.00335(10)
O2 0.0275(9) 0.0123(8) 0.0214(8) 0.0024(6) -0.0065(7) -0.0025(7)
O3 0.0289(9) 0.0271(9) 0.0122(8) -0.0018(6) -0.0019(6) -0.0091(7)
C1 0.0278(12) 0.0154(12) 0.0091(10) -0.0009(8) -0.0049(9) -0.0014(9)
O1 0.0289(9) 0.0287(9) 0.0148(8) -0.0075(7) -0.0006(7) -0.0077(7)
O4 0.0302(9) 0.0136(8) 0.0316(9) 0.0003(7) -0.0144(7) -0.0019(7)
N1B 0.010(3) 0.017(2) 0.013(2) -0.0045(16) -0.004(2) -0.007(2)
C6A 0.0178(6) 0.0195(11) 0.0146(7) 0.0001(6) -0.0024(6) -0.0002(7)
C5 0.0275(12) 0.0108(11) 0.0118(10) 0.0026(8) -0.0053(9) -0.0008(9)
C4 0.0305(13) 0.0157(12) 0.0137(11) 0.0007(9) -0.0007(9) -0.0029(9)
C7A 0.0178(6) 0.0195(11) 0.0146(7) 0.0001(6) -0.0024(6) -0.0002(7)
C8A 0.0178(6) 0.0195(11) 0.0146(7) 0.0001(6) -0.0024(6) -0.0002(7)
C11A 0.0178(6) 0.0195(11) 0.0146(7) 0.0001(6) -0.0024(6) -0.0002(7)
C10A 0.0178(6) 0.0195(11) 0.0146(7) 0.0001(6) -0.0024(6) -0.0002(7)
C3 0.0370(13) 0.0168(12) 0.0109(10) 0.0003(9) -0.0026(9) 0.0020(10)
C9A 0.0240(13) 0.037(3) 0.008(2) 0.0036(14) 0.0003(15) -0.0108(16)
C2 0.0383(14) 0.0153(12) 0.0188(12) 0.0003(9) -0.0100(10) 0.0014(10)
C9B 0.0240(13) 0.037(3) 0.008(2) 0.0036(14) 0.0003(15) -0.0108(16)
C8B 0.0178(6) 0.0195(11) 0.0146(7) 0.0001(6) -0.0024(6) -0.0002(7)
C7B 0.0178(6) 0.0195(11) 0.0146(7) 0.0001(6) -0.0024(6) -0.0002(7)
C10B 0.0178(6) 0.0195(11) 0.0146(7) 0.0001(6) -0.0024(6) -0.0002(7)
C11B 0.0178(6) 0.0195(11) 0.0146(7) 0.0001(6) -0.0024(6) -0.0002(7)
C6B 0.0178(6) 0.0195(11) 0.0146(7) 0.0001(6) -0.0024(6) -0.0002(7)
N1A 0.010(3) 0.017(2) 0.013(2) -0.0045(16) -0.004(2) -0.007(2)
loop_
_atom_type_symbol
_atom_type_description
_atom_type_scat_dispersion_real
_atom_type_scat_dispersion_imag
_atom_type_scat_source
C C 0.0033 0.0016 'International Tables Vol C Tables 4.2.6.8 and 6.1.1.4'
H H 0.0000 0.0000 'International Tables Vol C Tables 4.2.6.8 and 6.1.1.4'
Cu Cu 0.3201 1.2651 'International Tables Vol C Tables 4.2.6.8 and 6.1.1.4'
N N 0.0061 0.0033 'International Tables Vol C Tables 4.2.6.8 and 6.1.1.4'
O O 0.0106 0.0060 'International Tables Vol C Tables 4.2.6.8 and 6.1.1.4'
loop_
_geom_angle_atom_site_label_1
_geom_angle_atom_site_label_2
_geom_angle_atom_site_label_3
_geom_angle
_geom_angle_site_symmetry_1
_geom_angle_site_symmetry_3
O2 Cu1 Cu1 84.70(5) . 7_566
O2 Cu1 O3 89.45(7) . .
O2 Cu1 O1 90.77(7) . .
O2 Cu1 N1A 98.3(3) . .
O3 Cu1 Cu1 79.81(5) . 7_566
O3 Cu1 O1 168.24(7) . .
O3 Cu1 N1A 87.9(3) . .
O1 Cu1 Cu1 88.50(5) . 7_566
O1 Cu1 N1A 103.7(3) . .
O4 Cu1 Cu1 83.84(5) . 7_566
O4 Cu1 O2 168.39(6) . .
O4 Cu1 O3 90.35(7) . .
O4 Cu1 O1 87.08(7) . .
O4 Cu1 N1A 93.3(3) . .
N1B Cu1 O2 98.7(15) . .
N1B Cu1 O3 86.6(14) . .
N1B Cu1 O1 105.0(14) . .
N1B Cu1 O4 92.9(15) . .
N1A Cu1 Cu1 167.3(3) . 7_566
C1 O2 Cu1 122.67(14) . .
C5 O3 Cu1 128.44(14) . .
O2 C1 O4 124.6(2) . 7_566
O2 C1 C2 118.9(2) . .
O4 C1 C2 116.42(19) 7_566 .
C5 O1 Cu1 117.88(15) 7_566 .
C1 O4 Cu1 123.99(15) 7_566 .
C11B N1B Cu1 122(3) . .
C6B N1B Cu1 132(3) . .
C6B N1B C11B 106(2) . .
C7A C6A H6A 119.0 . .
C7A C6A N1A 121.9(5) . .
N1A C6A H6A 119.0 . .
O3 C5 O1 124.8(2) . 7_566
O3 C5 C4 117.00(19) . .
O1 C5 C4 118.2(2) 7_566 .
C5 C4 H4A 109.1 . .
C5 C4 H4B 109.1 . .
C5 C4 C3 112.58(19) . 6_576
H4A C4 H4B 107.8 . .
C3 C4 H4A 109.1 6_576 .
C3 C4 H4B 109.1 6_576 .
C6A C7A H7A 119.7 . .
C6A C7A C8A 120.5(3) . .
C8A C7A H7A 119.7 . .
C7A C8A C9A 122.8(3) . .
C10A C8A C7A 116.4(3) . .
C10A C8A C9A 120.8(3) . .
C10A C11A H11A 118.7 . .
N1A C11A H11A 118.7 . .
N1A C11A C10A 122.6(5) . .
C8A C10A H10A 120.2 . .
C11A C10A C8A 119.6(3) . .
C11A C10A H10A 120.2 . .
C4 C3 H3A 109.4 6_575 .
C4 C3 H3B 109.4 6_575 .
H3A C3 H3B 108.0 . .
C2 C3 C4 111.39(18) . 6_575
C2 C3 H3A 109.4 . .
C2 C3 H3B 109.4 . .
C8A C9A C9A 109.1(4) . 5_677
C8A C9A H9AA 109.9 . .
C8A C9A H9AB 109.9 . .
C9A C9A H9AA 109.9 5_677 .
C9A C9A H9AB 109.9 5_677 .
H9AA C9A H9AB 108.3 . .
C1 C2 C3 115.68(19) . .
C1 C2 H2A 108.4 . .
C1 C2 H2B 108.4 . .
C3 C2 H2A 108.4 . .
C3 C2 H2B 108.4 . .
H2A C2 H2B 107.4 . .
C9B C9B H9BA 104.0 5_677 .
C9B C9B H9BB 104.0 5_677 .
C9B C9B C8B 133(3) 5_677 .
H9BA C9B H9BB 105.5 . .
C8B C9B H9BA 104.0 . .
C8B C9B H9BB 104.0 . .
C7B C8B C9B 111.6(13) . .
C7B C8B C10B 120.0(12) . .
C10B C8B C9B 127.9(13) . .
C8B C7B H7B 122.0 . .
C8B C7B C6B 116.1(12) . .
C6B C7B H7B 122.0 . .
C8B C10B H10B 119.7 . .
C8B C10B C11B 120.7(12) . .
C11B C10B H10B 119.7 . .
N1B C11B H11B 117.2 . .
C10B C11B N1B 125.7(19) . .
C10B C11B H11B 117.2 . .
N1B C6B C7B 131(2) . .
N1B C6B H6B 114.7 . .
C7B C6B H6B 114.7 . .
C6A N1A Cu1 119.6(6) . .
C11A N1A Cu1 119.2(6) . .
C11A N1A C6A 118.8(6) . .
loop_
_geom_bond_atom_site_label_1
_geom_bond_atom_site_label_2
_geom_bond_distance
_geom_bond_site_symmetry_2
Cu1 Cu1 2.6290(5) 7_566
Cu1 O2 1.9759(15) .
Cu1 O3 1.9779(16) .
Cu1 O1 1.9803(16) .
Cu1 O4 1.9662(16) .
Cu1 N1B 1.96(3) .
Cu1 N1A 2.211(6) .
O2 C1 1.260(3) .
O3 C5 1.250(3) .
C1 O4 1.265(3) 7_566
C1 C2 1.510(3) .
O1 C5 1.264(3) 7_566
N1B C11B 1.52(5) .
N1B C6B 1.26(4) .
C6A H6A 0.9500 .
C6A C7A 1.343(6) .
C6A N1A 1.365(11) .
C5 C4 1.516(3) .
C4 H4A 0.9900 .
C4 H4B 0.9900 .
C4 C3 1.532(3) 6_576
C7A H7A 0.9500 .
C7A C8A 1.399(5) .
C8A C10A 1.398(4) .
C8A C9A 1.504(6) .
C11A H11A 0.9500 .
C11A C10A 1.382(5) .
C11A N1A 1.301(12) .
C10A H10A 0.9500 .
C3 H3A 0.9900 .
C3 H3B 0.9900 .
C3 C2 1.522(3) .
C9A C9A 1.587(7) 5_677
C9A H9AA 0.9900 .
C9A H9AB 0.9900 .
C2 H2A 0.9900 .
C2 H2B 0.9900 .
C9B C9B 1.10(4) 5_677
C9B H9BA 0.9900 .
C9B H9BB 0.9900 .
C9B C8B 1.53(2) .
C8B C7B 1.328(17) .
C8B C10B 1.342(17) .
C7B H7B 0.9500 .
C7B C6B 1.55(2) .
C10B H10B 0.9500 .
C10B C11B 1.379(19) .
C11B H11B 0.9500 .
C6B H6B 0.9500 .
loop_
_geom_torsion_atom_site_label_1
_geom_torsion_atom_site_label_2
_geom_torsion_atom_site_label_3
_geom_torsion_atom_site_label_4
_geom_torsion
_geom_torsion_site_symmetry_1
_geom_torsion_site_symmetry_4
Cu1 O2 C1 O4 2.2(3) . 7_566
Cu1 O2 C1 C2 -176.14(15) . .
Cu1 O3 C5 O1 10.2(3) . 7_566
Cu1 O3 C5 C4 -169.00(14) . .
Cu1 N1B C11B C10B 170.3(18) . .
Cu1 N1B C6B C7B -175(2) . .
O2 C1 C2 C3 -39.5(3) . .
O3 C5 C4 C3 33.0(3) . 6_576
O1 C5 C4 C3 -146.2(2) 7_566 6_576
O4 C1 C2 C3 142.0(2) 7_566 .
C6A C7A C8A C10A 1.7(5) . .
C6A C7A C8A C9A -176.8(4) . .
C4 C3 C2 C1 173.5(2) 6_575 .
C7A C6A N1A Cu1 -166.6(5) . .
C7A C6A N1A C11A -4.2(12) . .
C7A C8A C10A C11A -1.1(5) . .
C7A C8A C9A C9A 86.4(5) . 5_677
C10A C8A C9A C9A -92.0(5) . 5_677
C10A C11A N1A Cu1 167.4(4) . .
C10A C11A N1A C6A 4.9(11) . .
C9A C8A C10A C11A 177.5(3) . .
C9B C9B C8B C7B 52(3) 5_677 .
C9B C9B C8B C10B -120(3) 5_677 .
C9B C8B C7B C6B -177.5(13) . .
C9B C8B C10B C11B 171.7(13) . .
C8B C7B C6B N1B 3(4) . .
C8B C10B C11B N1B 7(3) . .
C7B C8B C10B C11B 0.5(19) . .
C10B C8B C7B C6B -5(2) . .
C11B N1B C6B C7B 4(5) . .
C6B N1B C11B C10B -9(4) . .
N1A C6A C7A C8A 0.9(8) . .
N1A C11A C10A C8A -2.3(7) . .
loop_
_refln_index_h
_refln_index_k
_refln_index_l
_refln_F_squared_meas
_refln_F_squared_sigma
2 0 0 288.65 35.36
4 0 0 106.41 13.84
-4 0 0 113.91 5.32
-4 0 0 108.16 5.32
-4 0 0 111.67 5.29
-4 0 0 123.62 13.86
4 0 0 114.23 5.32
6 0 0 48.01 2.27
6 0 0 50.76 2.23
6 0 0 39.38 5.89
-6 0 0 50.53 2.26
6 0 0 51.89 2.26
-6 0 0 45.97 2.27
-6 0 0 50.14 5.9
-6 0 0 48.02 2.27
-8 0 0 185.7 9.01
8 0 0 186.64 9.06
-8 0 0 212.18 23.58
8 0 0 204.04 23.59
-8 0 0 173.96 9.06
8 0 0 192.19 9.01
-10 0 0 66.51 7.33
10 0 0 57.11 2.78
10 0 0 61.3 7.32
-10 0 0 56.12 2.82
10 0 0 61.02 2.81
-10 0 0 56.98 2.82
10 0 0 58.69 2.82
12 0 0 45.99 2.16
-12 0 0 45.13 2.15
12 0 0 45.79 2.15
12 0 0 44.95 5.59
-12 0 0 46.61 5.59
12 0 0 45.45 2.13
-12 0 0 44.41 2.15
-14 0 0 1.28 0.19
14 0 0 1.11 0.18
16 0 0 15.61 0.71
16 0 0 13.51 1.79
16 0 0 14.65 0.71
-16 0 0 14.6 0.7
-16 0 0 13.41 1.8
-16 0 0 14.78 0.7
18 0 0 27.37 1.24
18 0 0 24.2 3.16
-18 0 0 27.19 1.23
-18 0 0 23.62 3.16
-20 0 0 44.81 2.04
20 0 0 46.27 2.05
-20 0 0 36.81 5.25
-22 0 0 42.05 2
22 0 0 41.33 2.01
-24 0 0 8.88 0.47
24 0 0 8.65 0.48
26 0 0 32.84 1.62
-26 0 0 33.05 1.6
28 0 0 11.29 0.63
-28 0 0 12.1 0.62
-1 -1 0 15.9 0.79
1 -1 0 16.93 0.79
-1 -1 0 17.26 0.79
-1 1 0 16.37 0.79
1 1 0 17.01 0.8
-1 1 0 17.59 2.06
3 -1 0 1.42 0.08
3 -1 0 1.36 0.07
-3 -1 0 1.45 0.18
-3 -1 0 1.27 0.07
-3 -1 0 1.42 0.07
-3 -1 0 1.34 0.07
3 1 0 1.47 0.08
3 1 0 1.37 0.18
-3 1 0 1.3 0.07
3 1 0 1.48 0.07
3 1 0 1.34 0.08
5 -1 0 83.5 4.08
5 -1 0 90.5 4
-5 -1 0 84.64 4.08
-5 -1 0 89.4 10.61
-5 -1 0 86.71 4.06
5 -1 0 88.62 10.6
5 1 0 84.41 4.08
5 1 0 83.92 10.61
5 1 0 87.54 4.06
-5 1 0 86.98 4.08
5 1 0 88 4
-5 1 0 84.72 10.6
-7 -1 0 4.13 0.22
7 -1 0 4.47 0.22
7 -1 0 4.47 0.22
7 -1 0 4.46 0.54
-7 -1 0 4.26 0.21
-7 -1 0 5.31 0.56
-7 -1 0 4.07 0.22
7 -1 0 4.01 0.22
-7 1 0 4.07 0.22
-7 1 0 4.11 0.22
7 1 0 4.1 0.22
7 1 0 5.32 0.55
7 1 0 4.1 0.22
-7 1 0 4.32 0.54
7 1 0 3.83 0.22
9 -1 0 11.5 0.56
9 -1 0 11.34 0.56
9 -1 0 11.53 1.44
-9 -1 0 11.14 0.56
-9 -1 0 13.83 1.46
9 -1 0 11.48 0.57
-9 1 0 11.17 0.56
9 1 0 11 0.57
-9 1 0 11.45 1.44
9 1 0 11.99 0.57
9 1 0 11 0.56
-9 1 0 11.02 0.57
9 1 0 13.38 1.46
11 -1 0 29.7 1.43
-11 -1 0 28.82 1.43
11 -1 0 30.57 1.42
11 -1 0 28.57 3.7
-11 -1 0 33.79 3.71
-11 -1 0 29.42 1.41
11 1 0 30.01 1.44
11 1 0 32.26 3.71
-11 1 0 28.25 3.7
11 1 0 29.75 1.42
-11 1 0 29.71 1.43
11 1 0 30.17 1.43
13 -1 0 6.4 0.87
-13 -1 0 7.23 0.36
13 -1 0 6.78 0.36
-13 -1 0 7.65 0.89
13 -1 0 7.37 0.36
-13 -1 0 6.71 0.35
13 1 0 7.03 0.88
13 1 0 7.13 0.35
-13 1 0 6.34 0.87
-13 1 0 6.82 0.35
13 1 0 7.3 0.36
13 1 0 6.92 0.36
-15 -1 0 0.34 0.06
15 -1 0 0.16 0.05
-15 -1 0 0.33 0.05
15 -1 0 0.22 0.06
-15 -1 0 0.34 0.1
-15 -1 0 0.3 0.05
15 -1 0 0.28 0.07
15 1 0 0.36 0.05
15 1 0 0.33 0.06
15 1 0 0.24 0.09
-15 1 0 0.22 0.05
-15 1 0 0.25 0.08
15 1 0 0.45 0.07
-17 -1 0 2.82 0.17
-17 -1 0 3.13 0.17
17 -1 0 3.23 0.19
17 -1 0 2.91 0.18
-17 -1 0 2.98 0.18
17 -1 0 2.64 0.38
-17 -1 0 2.8 0.4
17 1 0 3.15 0.19
-17 1 0 2.99 0.17
-17 1 0 2.52 0.39
17 1 0 2.8 0.4
17 1 0 3.29 0.19
-19 -1 0 1.49 0.12
-19 -1 0 1.52 0.12
19 -1 0 1.61 0.14
-19 -1 0 1.47 0.24
19 1 0 1.9 0.14
-19 1 0 1.05 0.21
19 1 0 1.56 0.24
-19 1 0 1.59 0.12
-21 -1 0 0.6 0.15
21 -1 0 0.57 0.1
-21 -1 0 0.65 0.08
21 1 0 0.54 0.09
-21 1 0 0.44 0.08
23 -1 0 9.37 0.5
-23 -1 0 9.12 0.48
23 1 0 8.87 0.49
-23 1 0 9.45 0.48
-25 -1 0 0.27 0.09
25 -1 0 0.48 0.1
-25 1 0 0.29 0.09
25 1 0 0.29 0.09
-27 -1 0 1.55 0.15
27 -1 0 1.52 0.17
-27 1 0 1.39 0.15
27 1 0 1.56 0.17
0 -2 0 115.07 15.63
0 -2 0 131.8 6
0 -2 0 127.99 5.96
0 2 0 128.42 5.96
0 2 0 123.83 5.99
0 2 0 134.97 15.63
0 2 0 129.54 6
2 -2 0 267.27 12.44
-2 -2 0 265.61 12.44
-2 -2 0 243.37 32.59
2 -2 0 267.33 32.55
2 -2 0 264.95 12.51
2 -2 0 257.59 12.27
-2 -2 0 275.13 12.52
2 2 0 270.96 12.52
-2 2 0 264.59 12.45
-2 2 0 277.25 32.55
-2 2 0 258.2 12.51
2 2 0 274.82 12.44
-2 2 0 266.83 12.27
4 -2 0 13.52 0.68
4 -2 0 14.34 0.67
-4 -2 0 13.3 0.68
-4 -2 0 13.59 0.68
-4 -2 0 17.05 1.76
-4 2 0 12.98 0.68
4 2 0 15.9 1.76
-4 2 0 13.97 0.67
4 2 0 14.1 0.68
4 2 0 13.55 0.68
6 -2 0 3.67 0.19
-6 -2 0 4.09 0.46
-6 -2 0 3.54 0.18
6 -2 0 3.3 0.18
-6 -2 0 3.6 0.18
-6 -2 0 3.52 0.18
6 2 0 4.27 0.46
6 2 0 3.29 0.18
6 2 0 3.33 0.19
-6 2 0 3.4 0.18
-6 2 0 3.37 0.18
-6 2 0 3.53 0.19
-8 -2 0 104.78 4.9
-8 -2 0 102 4.93
8 -2 0 107.12 4.84
8 -2 0 81.25 12.8
-8 -2 0 115.49 12.83
8 2 0 105.82 4.93
8 2 0 119.22 12.83
-8 2 0 99.92 4.93
8 2 0 107.02 4.84
-8 2 0 103.85 4.93
8 2 0 104.04 4.91
10 -2 0 68.57 3.08
-10 -2 0 63.94 3.07
-10 -2 0 77.72 8.13
-10 -2 0 66.54 3.12
10 -2 0 66.01 3.11
10 -2 0 52.77 8.1
10 2 0 63.64 3.07
10 2 0 74.53 8.13
10 2 0 63.86 3.11
-10 2 0 65.67 3.07
-10 2 0 66.95 3.12
10 2 0 65.05 3.13
-10 2 0 64.48 3.13
12 -2 0 17.47 0.81
-12 -2 0 16.92 0.81
-12 -2 0 18.8 2.1
12 -2 0 13.54 2.07
12 -2 0 16.61 0.82
-12 -2 0 16.15 0.81
12 2 0 18.03 2.1
12 2 0 17.09 0.82
12 2 0 16.8 0.81
-12 2 0 17.05 0.81
12 2 0 17.06 0.82
14 -2 0 2.71 0.43
-14 -2 0 3.27 0.18
-14 -2 0 3.44 0.19
-14 -2 0 3.81 0.46
14 -2 0 3.65 0.2
14 -2 0 3.46 0.2
-14 2 0 3.05 0.19
14 2 0 3.55 0.2
14 2 0 3.68 0.46
14 2 0 3.49 0.19
14 2 0 3.2 0.19
-16 -2 0 0.04 0.04
16 -2 0 0 0.05
16 -2 0 0.06 0.05
-16 -2 0 0.05 0.08
-16 -2 0 0.12 0.05
16 -2 0 0.12 0.05
16 2 0 0.08 0.05
-16 2 0 0.02 0.04
16 2 0 0.11 0.08
16 2 0 0.01 0.05
18 -2 0 1.63 0.14
-18 -2 0 1.72 0.12
-18 -2 0 1.63 0.14
-18 -2 0 1.75 0.27
-18 -2 0 1.46 0.12
18 2 0 1.69 0.26
-18 2 0 1.65 0.13
18 2 0 1.87 0.14
20 -2 0 16.42 0.84
-20 -2 0 16.32 0.82
-20 -2 0 16.25 2.11
-20 -2 0 16.99 0.82
-20 2 0 16.57 0.83
20 2 0 18.11 0.84
-22 -2 0 8.18 0.43
-22 -2 0 7.79 1.06
22 -2 0 8.12 0.44
-22 -2 0 8.19 0.42
22 2 0 8.44 0.45
-22 2 0 7.9 0.43
-24 -2 0 32.83 1.59
24 -2 0 31.67 1.6
-24 2 0 32.09 1.59
24 2 0 34.43 1.6
26 -2 0 13.56 0.71
-26 -2 0 13.81 0.69
-26 2 0 13.12 0.69
26 2 0 13.3 0.71
-28 -2 0 0.39 0.1
28 2 0 0.12 0.09
-28 2 0 -0.03 0.09
-1 -3 0 1.02 0.07
-1 -3 0 0.98 0.14
-1 -3 0 1.06 0.06
1 -3 0 1.12 0.14
1 -3 0 0.93 0.06
1 -3 0 0.98 0.06
1 3 0 0.88 0.07
-1 3 0 0.94 0.07
1 3 0 0.89 0.07
1 3 0 1.05 0.14
-1 3 0 1.07 0.14
-1 3 0 0.96 0.07
3 -3 0 40.54 1.98
3 -3 0 48.4 5.14
-3 -3 0 41.8 1.98
3 -3 0 42.84 1.97
-3 -3 0 42.96 5.15
3 -3 0 42.29 1.94
-3 -3 0 41.35 1.97
-3 3 0 40.28 1.98
3 3 0 41.6 1.98
-3 3 0 41.64 1.97
-3 3 0 40.58 5.13
-3 3 0 40.94 1.94
-3 3 0 39.92 1.98
3 3 0 41.15 1.97
5 -3 0 31.31 4.03
5 -3 0 33.85 1.53
-5 -3 0 35.16 4.05
-5 -3 0 33.66 1.55
-5 -3 0 31.98 1.55
5 -3 0 31.88 1.55
-5 3 0 32.03 1.56
-5 3 0 33.49 1.53
-5 3 0 32.58 1.56
5 3 0 32.18 1.56
5 3 0 33.37 1.55
7 -3 0 66.76 3.03
-7 -3 0 61.79 3.07
-7 -3 0 63.92 3.06
-7 -3 0 73.05 8.01
-7 -3 0 59.38 3.02
-7 3 0 63.95 3.08
-7 3 0 64.58 3.03
7 3 0 75.69 8.01
-7 3 0 61.2 3.08
7 3 0 63.12 3.06
7 3 0 63.44 3.08
-9 -3 0 16.55 0.83
9 -3 0 17.25 0.83
-9 -3 0 16.76 0.83
-9 -3 0 19.51 2.17
-9 3 0 17.07 0.83
-9 3 0 16.24 0.84
9 3 0 19.19 2.17
9 3 0 17.36 0.84
9 3 0 17.52 0.85
-9 3 0 17.04 0.84
-11 -3 0 3.76 0.21
11 -3 0 3.77 0.21
-11 -3 0 4.1 0.51
-11 -3 0 3.79 0.2
-11 3 0 3.71 0.2
-11 3 0 3.27 0.2
-11 3 0 3.48 0.21
11 3 0 4.07 0.5
11 3 0 3.66 0.21
11 3 0 4.11 0.21
13 -3 0 0.87 0.09
-13 -3 0 1.24 0.19
13 -3 0 0.96 0.09
-13 -3 0 0.95 0.08
-13 -3 0 0.79 0.09
13 3 0 1.05 0.18
-13 3 0 0.96 0.08
13 3 0 1.02 0.09
13 3 0 1.02 0.09
-13 3 0 0.98 0.09
-15 -3 0 49.46 5.9
15 -3 0 46.57 2.27
15 -3 0 48.7 2.24
-15 -3 0 47.18 2.27
-15 -3 0 47.24 2.24
-15 3 0 47.11 2.27
15 3 0 46.42 2.28
15 3 0 48.46 2.25
15 3 0 48.26 2.27
15 3 0 48.24 5.89
-17 -3 0 28.37 3.42
-17 -3 0 26.86 1.31
17 -3 0 27.88 1.33
-17 -3 0 27.08 1.32
17 3 0 26.85 1.33
17 3 0 28.02 3.42
-17 3 0 28.19 1.33
17 3 0 26.81 1.32
19 -3 0 22.79 1.14
-19 -3 0 23.1 1.12
-19 -3 0 23.5 2.91
19 3 0 23.3 1.14
-19 3 0 23.49 1.13
21 -3 0 0.21 0.08
-21 -3 0 0.18 0.07
-21 -3 0 0.2 0.07
-21 -3 0 0.29 0.14
21 3 0 0.26 0.08
-21 3 0 0.19 0.07
-23 -3 0 0.28 0.08
23 -3 0 0.26 0.09
-23 -3 0 0.3 0.14
-23 -3 0 0.27 0.08
-23 3 0 0.16 0.08
23 3 0 0.15 0.08
25 -3 0 1.83 0.18
-25 -3 0 1.69 0.16
-25 3 0 1.75 0.16
25 3 0 2.08 0.18
27 -3 0 14.32 0.77
-27 -3 0 14.91 0.75
-27 3 0 14.26 0.75
27 3 0 15.04 0.77
0 -4 0 106.5 5.08
0 -4 0 109.9 5.1
0 -4 0 109.94 13.29
0 4 0 99.51 5.11
0 4 0 107.19 5.08
0 4 0 117.1 13.31
2 -4 0 20.09 2.2
-2 -4 0 16.93 0.85
-2 -4 0 19.16 2.2
2 -4 0 16.69 0.84
-2 -4 0 18.06 0.85
2 -4 0 16.64 0.85
2 -4 0 18.15 0.85
-2 4 0 18.88 2.2
2 4 0 16.48 0.85
-2 4 0 17.37 0.85
2 4 0 17.34 0.85
-2 4 0 15.46 0.85
2 4 0 20.15 2.21
-4 -4 0 4.16 0.52
4 -4 0 4.23 0.51
-4 -4 0 3.94 0.21
4 -4 0 4.01 0.2
-4 -4 0 4.04 0.2
4 -4 0 3.97 0.21
-4 4 0 4.09 0.21
-4 4 0 3.66 0.5
-4 4 0 3.76 0.2
-4 4 0 4.29 0.21
4 4 0 4.1 0.21
4 4 0 3.92 0.21
-4 4 0 4.16 0.21
-6 -4 0 6.59 0.35
6 -4 0 6.23 0.86
-6 -4 0 7.42 0.88
6 -4 0 7.03 0.34
-6 -4 0 7.05 0.34
6 -4 0 7.47 0.35
-6 4 0 6.67 0.34
6 4 0 6.91 0.35
-6 4 0 7.35 0.35
-6 4 0 7.09 0.35
6 4 0 6.95 0.35
-8 -4 0 6.8 0.33
8 -4 0 6.28 0.33
-8 -4 0 6.11 0.33
-8 -4 0 7.18 0.85
8 4 0 6.73 0.34
-8 4 0 6.17 0.33
-8 4 0 6.54 0.34
8 4 0 8.01 0.86
8 4 0 6.13 0.34
-8 4 0 6.55 0.34
-10 -4 0 36.9 1.76
-10 -4 0 41.19 4.58
-10 -4 0 35.73 1.74
10 -4 0 36.85 1.74
10 4 0 36.39 1.77
-10 4 0 33.75 1.76
10 4 0 36.88 1.76
-10 4 0 36.49 1.76
10 4 0 39.54 4.57
-10 4 0 36.51 1.74
12 -4 0 6.07 0.33
-12 -4 0 7.38 0.84
-12 -4 0 6.01 0.32
-12 -4 0 6 0.33
12 4 0 7.19 0.84
-12 4 0 6.5 0.33
12 4 0 5.91 0.34
12 4 0 6.23 0.34
-12 4 0 6.35 0.34
14 -4 0 2.73 0.17
14 -4 0 2.74 0.17
-14 -4 0 2.63 0.17
-14 -4 0 2.72 0.16
-14 -4 0 2.96 0.4
14 4 0 2.94 0.18
-14 4 0 2.37 0.17
-14 4 0 2.78 0.18
14 4 0 2.7 0.18
14 4 0 3.11 0.4
-16 -4 0 2.77 0.16
-16 -4 0 2.52 0.17
16 -4 0 2.94 0.18
-16 -4 0 2.62 0.39
16 -4 0 2.48 0.17
16 4 0 2.66 0.18
-16 4 0 2.34 0.17
-16 4 0 2.98 0.18
-18 -4 0 0.07 0.11
18 -4 0 0.28 0.07
-18 -4 0 0.12 0.05
18 4 0 0.23 0.06
-18 4 0 0.08 0.06
-20 -4 0 2.86 0.19
20 -4 0 2.87 0.2
-20 -4 0 2.8 0.45
20 4 0 3.28 0.21
-20 4 0 3.3 0.2
22 -4 0 10.62 0.56
-22 -4 0 10.38 0.54
-22 -4 0 10.49 1.36
-22 -4 0 10.54 0.54
22 4 0 10.49 0.55
-22 4 0 10.23 0.54
-24 -4 0 3.01 0.21
-24 -4 0 3.14 0.21
24 -4 0 2.85 0.23
24 4 0 3.32 0.22
-24 4 0 3.25 0.22
26 -4 0 1.22 0.15
-26 -4 0 1.18 0.13
-26 -4 0 0.94 0.12
26 4 0 0.86 0.13
-26 4 0 0.57 0.12
1 -5 0 61.21 2.83
-1 -5 0 56.64 2.83
1 -5 0 67.4 7.38
-1 -5 0 63.76 7.38
-1 -5 0 60.19 2.83
-1 5 0 64.61 7.38
-1 5 0 56.66 2.83
1 5 0 59.01 2.83
1 5 0 57.19 2.84
-1 5 0 53.97 2.84
-3 -5 0 69.03 8.09
3 -5 0 62.57 3.06
3 -5 0 67.25 3.11
-3 -5 0 68.42 3.11
3 -5 0 73.12 8.08
-3 -5 0 62.69 3.1
-3 5 0 62.24 3.12
3 5 0 62.93 3.12
-3 5 0 62.13 3.1
3 5 0 67.19 3.1
-3 5 0 66.81 8.08
-5 -5 0 108.91 12.42
5 -5 0 101.12 4.69
5 -5 0 101.85 4.77
5 -5 0 107.3 12.4
-5 -5 0 102.72 4.77
5 5 0 96.67 4.78
5 5 0 104.94 4.75
-5 5 0 101.93 4.78
-5 5 0 85.51 12.4
-7 -5 0 113.59 5.27
7 -5 0 93.49 13.69
7 -5 0 112.61 5.18
-7 -5 0 124.24 13.73
-7 5 0 112.04 5.28
-7 5 0 114.85 5.18
7 5 0 111.6 5.25
7 5 0 112.14 5.28
-9 -5 0 55.58 2.64
9 -5 0 53.21 2.6
-9 -5 0 52.51 2.6
-9 -5 0 61.39 6.88
-9 5 0 54.65 2.65
-9 5 0 55.05 2.61
9 5 0 62.32 6.88
9 5 0 53.79 2.65
9 5 0 53.88 2.64
-11 -5 0 1.54 0.1
-11 -5 0 1.61 0.24
11 -5 0 1.17 0.11
-11 -5 0 1.56 0.12
11 5 0 1.57 0.12
-11 5 0 1.6 0.12
-11 5 0 1.41 0.11
11 5 0 1.41 0.12
11 5 0 1.73 0.25
13 -5 0 34.39 1.66
-13 -5 0 34.55 1.68
-13 -5 0 33.34 1.66
-13 -5 0 38.48 4.37
-13 5 0 34.14 1.66
13 5 0 34.95 1.69
13 5 0 35.15 1.68
-13 5 0 36.59 1.69
-15 -5 0 21.46 1.05
-15 -5 0 20.65 1.05
-15 -5 0 22.97 2.73
15 -5 0 21.79 1.05
-15 5 0 21.32 1.06
-15 5 0 22.16 1.06
15 5 0 22.44 1.07
-17 -5 0 60.26 7.36
-17 -5 0 59.9 2.83
17 -5 0 58.86 2.83
17 5 0 58.98 2.83
-17 5 0 60.06 2.84
-19 -5 0 42.17 5.36
-19 -5 0 44.02 2.07
19 -5 0 41.1 2.07
19 5 0 44.75 2.07
-19 5 0 44 2.08
21 -5 0 8.81 0.48
-21 -5 0 9.04 0.46
-21 5 0 8.67 0.47
21 5 0 9.1 0.48
-23 -5 0 1.12 0.13
23 -5 0 1.16 0.14
-23 -5 0 1.41 0.13
23 5 0 1.69 0.15
-23 5 0 1.41 0.14
25 -5 0 5.34 0.33
-25 -5 0 4.92 0.31
-25 -5 0 5.24 0.31
-25 5 0 5.68 0.33
25 5 0 5.02 0.32
-27 -5 0 13.81 0.69
-27 -5 0 13.34 0.69
-27 5 0 12.75 0.7
27 5 0 13.43 0.71
-2 -6 0 7.64 0.38
2 -6 0 7.96 0.38
2 -6 0 8.97 1
2 -6 0 7.2 0.39
-2 -6 0 8.12 1
2 6 0 7.09 0.4
2 6 0 8.2 0.4
-2 6 0 7.73 0.4
2 6 0 8.63 1
-2 6 0 8 0.99
-2 6 0 7.14 0.39
4 -6 0 31.12 1.5
-4 -6 0 34.02 3.95
-4 -6 0 32.41 1.52
4 -6 0 33.88 3.94
4 -6 0 32.77 1.52
4 6 0 31.59 1.52
-4 6 0 30.15 1.52
4 6 0 30.58 1.53
-4 6 0 30.33 1.53
-4 6 0 30.3 3.93
4 6 0 34.48 3.95
-6 -6 0 8.44 0.98
6 -6 0 7.91 0.96
-6 6 0 6.69 0.95
-8 -6 0 1.95 0.27
8 -6 0 1.62 0.12
8 -6 0 1.4 0.23
-8 -6 0 1.79 0.11
-8 6 0 1.93 0.12
-8 6 0 1.71 0.12
8 6 0 2.05 0.13
8 6 0 1.96 0.13
-10 -6 0 2.86 0.39
-10 -6 0 2.75 0.17
10 -6 0 2.49 0.17
-10 -6 0 2.69 0.15
-10 6 0 2.65 0.17
-10 6 0 2.56 0.17
10 6 0 2.46 0.16
10 6 0 3.03 0.39
10 6 0 2.68 0.17
-12 -6 0 1.74 0.13
-12 -6 0 1.47 0.1
-12 -6 0 1.57 0.26
12 -6 0 1.48 0.13
12 6 0 1.67 0.13
-12 6 0 1.5 0.12
12 6 0 1.45 0.12
-12 6 0 1.62 0.13
-14 -6 0 1.38 0.24
-14 -6 0 1.16 0.1
14 -6 0 1.14 0.11
-14 -6 0 1.25 0.11
-14 6 0 1.5 0.13
-14 6 0 1.11 0.11
14 6 0 1.22 0.12
14 6 0 1.26 0.11
-16 -6 0 0.55 0.07
-16 -6 0 0.39 0.14
16 6 0 0.23 0.07
-16 6 0 0.11 0.07
18 -6 0 0.71 0.1
-18 -6 0 0.79 0.09
-18 -6 0 0.66 0.19
18 6 0 0.76 0.1
-18 6 0 0.75 0.1
20 -6 0 1.3 0.13
-20 -6 0 1.13 0.11
-20 6 0 1.25 0.13
20 6 0 1.04 0.13
22 -6 0 0.82 0.11
-22 -6 0 0.52 0.09
-22 6 0 0.48 0.1
22 6 0 0.61 0.11
-24 -6 0 4.4 0.26
-24 -6 0 4.51 0.26
24 -6 0 4.01 0.27
24 6 0 4.52 0.28
-24 6 0 3.51 0.27
-26 -6 0 0.25 0.09
-26 -6 0 0.33 0.1
26 6 0 0.22 0.1
-26 6 0 -0.18 0.09
-1 -7 0 3.43 0.44
1 -7 0 2.96 0.17
1 -7 0 3.55 0.43
-1 -7 0 3.13 0.17
-1 7 0 3.14 0.43
1 7 0 3.17 0.19
-1 7 0 2.98 0.18
1 7 0 3.44 0.44
-1 7 0 3.19 0.19
1 7 0 3.08 0.18
3 -7 0 73.51 8.57
3 -7 0 67.31 3.24
3 -7 0 71.02 3.29
-3 -7 0 72.28 8.58
-3 -7 0 71.97 3.29
3 7 0 73.68 8.58
-3 7 0 66.54 3.31
-3 7 0 65.99 3.29
3 7 0 66.86 3.29
3 7 0 68.15 3.31
-5 -7 0 97.85 4.54
-5 -7 0 102.13 11.81
5 -7 0 98.17 11.79
5 -7 0 95.99 4.46
5 -7 0 99.88 4.53
5 7 0 94.79 4.55
-5 7 0 81.56 11.79
-5 7 0 90.59 4.55
-5 7 0 92.96 4.52
5 7 0 96.72 4.52
5 7 0 106.95 11.82
-7 -7 0 79.96 9.11
7 -7 0 67.92 9.08
7 -7 0 76.75 3.45
-7 -7 0 79.96 3.5
7 7 0 73.29 3.51
-7 7 0 55.17 9.07
-7 7 0 73.75 3.51
7 7 0 82.59 9.11
7 7 0 76.92 3.49
-9 -7 0 4.26 0.23
9 -7 0 4.04 0.24
-9 -7 0 4.63 0.59
-9 7 0 4.32 0.24
-9 7 0 4.63 0.25
9 7 0 4.6 0.25
9 7 0 3.9 0.25
-11 -7 0 6.72 0.34
-11 -7 0 7.05 0.89
-11 -7 0 6.4 0.35
11 -7 0 6.81 0.36
11 7 0 6.51 0.36
11 7 0 7.31 0.37
-11 7 0 6.85 0.36
-11 7 0 6.71 0.36
-13 -7 0 5.32 0.7
-13 -7 0 5.46 0.27
-13 -7 0 4.71 0.28
-13 7 0 5.33 0.29
13 7 0 5.12 0.29
-13 7 0 5.04 0.29
13 7 0 4.87 0.29
-15 -7 0 9.45 1.19
-15 -7 0 9.2 0.46
-15 7 0 8.26 0.47
15 7 0 9.4 0.48
-17 -7 0 8.63 0.45
17 7 0 8.76 0.47
-17 7 0 8.92 0.47
19 -7 0 3.66 0.23
-19 -7 0 3.28 0.2
19 7 0 3.05 0.22
-19 7 0 3.32 0.22
21 -7 0 0.24 0.08
-21 -7 0 0.19 0.07
-21 7 0 0.14 0.09
21 7 0 0.11 0.08
23 -7 0 0.87 0.12
-23 -7 0 0.6 0.1
23 7 0 0.46 0.11
-23 7 0 0.8 0.12
-25 7 0 5.3 0.35
25 7 0 6.4 0.36
0 -8 0 42.64 5.04
0 -8 0 41.89 1.94
0 8 0 40.77 5.04
0 8 0 38.52 1.95
0 8 0 40.48 1.94
-2 -8 0 26.98 3.27
-2 -8 0 26.64 1.26
2 -8 0 26.65 1.25
2 -8 0 27.79 3.26
2 -8 0 27.16 1.25
-2 8 0 24.82 1.27
2 8 0 27.35 3.27
-2 8 0 24.66 1.26
2 8 0 25.52 1.26
2 8 0 26.29 1.27
-2 8 0 25.79 3.26
4 -8 0 21.39 1.01
-4 -8 0 21.29 1.02
4 -8 0 20.7 2.63
-4 -8 0 22.52 2.65
4 -8 0 21.2 1.01
-4 8 0 21.17 1.03
-4 8 0 20 1.02
4 8 0 19.96 1.03
4 8 0 22.32 2.65
4 8 0 21.4 1.03
-6 -8 0 11.93 1.5
6 -8 0 11.4 1.48
6 -8 0 11.89 0.59
-6 -8 0 11.96 0.58
-6 8 0 12.23 0.6
6 8 0 11.59 0.6
6 8 0 12.31 0.59
-6 8 0 11.59 0.59
-8 -8 0 4.02 0.21
-8 -8 0 3.71 0.53
8 -8 0 3.72 0.23
8 -8 0 3.15 0.5
8 8 0 4.36 0.24
-8 8 0 4.29 0.23
8 8 0 4.43 0.23
10 -8 0 3.9 0.23
-10 -8 0 3.79 0.54
-10 -8 0 4.18 0.21
10 8 0 4.07 0.24
10 8 0 3.64 0.23
-10 8 0 3.65 0.23
-12 -8 0 3.47 0.22
-12 -8 0 3.69 0.52
-12 -8 0 3.63 0.2
12 8 0 3.52 0.22
12 8 0 3.58 0.23
-12 8 0 3.89 0.22
-14 -8 0 9.1 1.15
-14 -8 0 8.84 0.44
14 8 0 8.83 0.46
-14 8 0 8.14 0.46
-16 -8 0 0.47 0.07
-16 8 0 0.22 0.08
16 8 0 0.42 0.09
-18 -8 0 0.28 0.07
-18 8 0 0.35 0.09
18 8 0 0.11 0.07
20 -8 0 7.95 0.43
-20 -8 0 7.86 0.41
20 8 0 7.51 0.42
-20 8 0 6.99 0.42
22 -8 0 8.4 0.48
-22 8 0 8.1 0.48
22 8 0 9.74 0.49
24 8 0 8.01 0.46
-24 8 0 8.07 0.46
-1 -9 0 0.16 0.04
1 -9 0 0.13 0.09
-1 -9 0 0.14 0.1
-1 9 0 0.07 0.05
-1 9 0 0.11 0.09
1 9 0 0.14 0.05
1 9 0 0.12 0.09
1 9 0 0.16 0.06
-1 9 0 0.02 0.05
-3 -9 0 14.85 1.79
-3 -9 0 15.22 0.69
3 -9 0 14.58 1.78
3 -9 0 13.8 0.69
-3 9 0 14.03 0.7
3 9 0 13.39 0.71
-3 9 0 14.04 0.71
-3 9 0 13.29 1.78
3 9 0 14.39 0.7
-5 -9 0 21.56 2.48
5 -9 0 20.2 0.96
5 -9 0 19.14 2.46
-5 -9 0 20.85 0.95
5 9 0 20.46 0.97
5 9 0 20.01 0.98
-5 9 0 16.82 2.45
-5 9 0 19.22 0.96
-5 9 0 20.06 0.97
7 -9 0 5.69 0.31
-7 -9 0 6.15 0.76
-7 -9 0 6.36 0.29
7 -9 0 4.95 0.72
7 9 0 5.29 0.31
-7 9 0 5.62 0.31
7 9 0 5.35 0.31
-9 -9 0 7.64 0.4
-9 -9 0 7.68 1.03
9 9 0 8.19 0.43
9 9 0 8.18 0.42
-9 9 0 7.82 0.42
-11 -9 0 2.22 0.14
-11 -9 0 2.09 0.35
-11 9 0 2.04 0.17
11 9 0 2.55 0.18
11 9 0 2.27 0.16
-13 -9 0 7.32 0.37
13 9 0 7.57 0.39
-13 9 0 6.46 0.39
-15 9 0 0.48 0.09
15 9 0 0.43 0.08
-17 9 0 3.81 0.25
17 9 0 4.23 0.26
-19 9 0 3.06 0.23
19 9 0 3.74 0.24
21 -9 0 2.32 0.2
-21 9 0 2.3 0.2
21 9 0 2.27 0.19
-23 9 0 0.64 0.13
0 -10 0 53.38 6.51
0 10 0 51.16 6.51
0 10 0 53.94 2.53
0 10 0 52.63 2.51
2 -10 0 45.48 2.11
2 -10 0 45.12 5.53
-2 -10 0 46.76 5.54
2 10 0 45.06 2.14
-2 10 0 43.69 5.53
-2 10 0 43.27 2.13
2 10 0 45.03 2.15
-2 10 0 44.11 2.15
-4 -10 0 18.32 2.19
4 -10 0 17.04 2.17
4 -10 0 18.39 0.85
-4 10 0 17.74 0.87
4 10 0 17.47 0.86
-4 10 0 17.42 0.86
-4 10 0 15.16 2.17
4 10 0 17.77 0.87
6 -10 0 1.41 0.23
-6 -10 0 1.59 0.27
6 10 0 1.36 0.12
-6 10 0 1.62 0.14
6 10 0 1.58 0.14
-6 10 0 1.48 0.12
-6 10 0 1.31 0.23
-8 -10 0 5.62 0.71
-8 10 0 4.85 0.3
8 10 0 5.03 0.3
8 10 0 5.05 0.29
-10 10 0 44.55 2.19
10 10 0 44.52 2.19
10 10 0 47.34 2.18
12 10 0 17.77 0.87
-12 10 0 17.01 0.87
14 10 0 0.72 0.11
-14 10 0 0.56 0.11
-16 10 0 3 0.22
16 10 0 3.04 0.21
18 10 0 0.59 0.11
-18 10 0 0.74 0.12
-20 10 0 12.18 0.65
-1 -11 0 0.27 0.12
1 -11 0 0.2 0.11
-1 11 0 0.31 0.08
1 11 0 0.05 0.07
1 11 0 0.08 0.06
-1 11 0 0.23 0.07
3 -11 0 0.31 0.12
-3 -11 0 0.31 0.12
-3 11 0 0.15 0.08
-3 11 0 0.27 0.07
3 11 0 0.41 0.07
3 11 0 0.21 0.08
-3 11 0 0.26 0.11
5 -11 0 0.08 0.09
-5 -11 0 0.09 0.11
5 11 0 -0.04 0.06
5 11 0 0.07 0.07
-5 11 0 0.08 0.07
-5 11 0 0.06 0.06
-7 11 0 3.06 0.21
7 11 0 2.99 0.21
7 11 0 2.96 0.2
9 11 0 1.91 0.16
9 11 0 2.12 0.17
-9 11 0 1.73 0.16
-11 11 0 2.86 0.21
11 11 0 2.99 0.2
-13 11 0 1.94 0.17
13 11 0 1.88 0.17
15 11 0 2.02 0.17
-15 11 0 1.53 0.16
-17 11 0 1.36 0.15
-19 11 0 0.11 0.1
0 -12 0 37.26 4.82
0 12 0 39.24 1.87
0 12 0 40.04 1.89
-2 -12 0 29.5 3.75
2 -12 0 28.51 3.74
2 12 0 30.59 1.46
2 12 0 30.67 1.47
-2 12 0 30.58 1.47
-2 12 0 30.58 1.46
4 12 0 0.98 0.12
4 12 0 1.47 0.14
-4 12 0 1.13 0.13
-4 12 0 1.11 0.12
6 12 0 5.74 0.32
-6 12 0 5.29 0.33
6 12 0 5.54 0.33
-8 12 0 9.16 0.51
8 12 0 9.66 0.5
-10 12 0 15.62 0.81
10 12 0 15.95 0.8
-12 12 0 11.03 0.58
12 12 0 10.78 0.57
-14 12 0 7.24 0.42
-16 12 0 1.28 0.15
-18 12 0 5.69 0.35
1 -13 0 0.98 0.22
1 13 0 0.88 0.12
1 13 0 0.87 0.13
-1 13 0 0.9 0.13
-1 13 0 1.06 0.12
-3 13 0 7.82 0.45
3 13 0 8.37 0.44
3 13 0 8.67 0.46
-3 13 0 7.98 0.44
-5 13 0 11.87 0.63
-5 13 0 11.81 0.62
5 13 0 11.94 0.62
5 13 0 12.48 0.64
-7 13 0 5.63 0.34
7 13 0 5.52 0.32
9 13 0 3.36 0.23
-9 13 0 3.89 0.26
-11 13 0 0.35 0.11
-13 13 0 1.41 0.16
-15 13 0 3.23 0.25
0 14 0 37.24 1.81
0 14 0 36.46 1.78
-2 14 0 20.49 1.02
2 14 0 20.22 1.02
2 14 0 21.03 1.04
-2 14 0 20.52 1.04
-4 14 0 2.13 0.2
-4 14 0 2.56 0.2
4 14 0 2.38 0.21
4 14 0 2.34 0.19
-6 14 0 -0.18 0.08
-8 14 0 1.76 0.18
-10 14 0 2.91 0.24
-12 14 0 1.41 0.17
-1 15 0 4.09 0.28
1 15 0 3.68 0.26
-1 15 0 4.21 0.26
1 15 0 3.72 0.29
-3 15 0 19.29 0.95
-3 15 0 18.35 0.97
-5 15 0 13.92 0.74
-28 0 1 -0.09 0.09
26 0 -1 -0.04 0.08
-26 0 1 -0.06 0.08
24 0 -1 -0.13 0.07
-24 0 1 -0.13 0.07
22 0 -1 -0.04 0.06
-22 0 1 -0.07 0.06
20 0 -1 0 0.06
-20 0 1 -0.02 0.08
-20 0 1 0.07 0.06
18 0 -1 -0.01 0.06
-18 0 1 -0.06 0.05
18 0 -1 -0.03 0.05
-18 0 1 -0.01 0.07
-16 0 1 0.04 0.04
16 0 -1 -0.08 0.04
16 0 -1 -0.01 0.05
16 0 -1 -0.03 0.04
-16 0 1 -0.03 0.06
16 0 -1 -0.02 0.05
14 0 -1 -0.02 0.04
-14 0 1 -0.07 0.04
14 0 -1 0.04 0.05
14 0 -1 0.01 0.04
-14 0 1 -0.02 0.06
-14 0 1 0 0.03
14 0 -1 0.1 0.05
12 0 -1 -0.02 0.03
12 0 -1 0.02 0.04
-12 0 1 -0.01 0.04
12 0 -1 -0.04 0.03
12 0 -1 -0.02 0.03
-12 0 1 0.05 0.04
-12 0 1 0.03 0.05
-10 0 1 0.01 0.03
10 0 -1 0.07 0.03
10 0 -1 0.02 0.03
-10 0 1 0.05 0.04
-10 0 1 0.04 0.03
10 0 -1 -0.01 0.04
10 0 -1 -0.01 0.03
-8 0 1 -0.05 0.03
-8 0 1 -0.01 0.02
8 0 -1 0.01 0.03
8 0 -1 -0.01 0.03
-8 0 1 0 0.03
8 0 -1 -0.03 0.03
-6 0 1 0.04 0.03
6 0 -1 0 0.02
-6 0 1 0 0.03
6 0 -1 0.03 0.03
6 0 -1 0.02 0.02
-6 0 1 0 0.02
-4 0 1 0.06 0.02
4 0 -1 0 0.02
4 0 -1 0 0.02
4 0 -1 0.01 0.02
-4 0 1 0.04 0.02
-4 0 1 -0.01 0.02
2 0 -1 -0.01 0.01
2 0 -1 0.05 0.02
-2 0 1 0.05 0.01
-2 0 1 0.01 0.01
-2 0 1 0.01 0.01
2 0 -1 0 0.01
0 0 -1 0 0.01
0 0 1 0.02 0.01
0 0 -1 0.03 0.01
2 0 1 0 0.01
-2 0 -1 0.01 0.01
-2 0 -1 0 0.01
2 0 1 0.02 0.01
-4 0 -1 0.03 0.01
-4 0 -1 0.01 0.01
4 0 1 -0.03 0.02
-4 0 -1 0.06 0.02
-6 0 -1 -0.02 0.02
-6 0 -1 -0.01 0.02
-6 0 -1 0 0.01
6 0 1 -0.01 0.02
6 0 1 0 0.03
8 0 1 0.02 0.04
-8 0 -1 0.01 0.03
8 0 1 0.01 0.03
8 0 1 0.04 0.03
-8 0 -1 0.01 0.02
-10 0 -1 0.02 0.03
-10 0 -1 -0.01 0.03
10 0 1 0.01 0.03
10 0 1 0.01 0.04
10 0 1 0 0.03
-12 0 -1 -0.02 0.03
12 0 1 0 0.03
12 0 1 0.04 0.05
12 0 1 0.1 0.04
-12 0 -1 -0.03 0.04
-12 0 -1 -0.03 0.02
-14 0 -1 -0.05 0.03
14 0 1 0.05 0.05
-14 0 -1 -0.02 0.04
-14 0 -1 0.04 0.04
14 0 1 0.02 0.04
14 0 1 0.07 0.04
16 0 1 0.01 0.04
-16 0 -1 0.02 0.04
-16 0 -1 -0.02 0.03
16 0 1 0.01 0.06
16 0 1 0.01 0.05
-18 0 -1 0.02 0.04
-18 0 -1 -0.05 0.04
-18 0 -1 0.08 0.05
18 0 1 0.04 0.07
18 0 1 0.01 0.05
-20 0 -1 0.05 0.05
-20 0 -1 0.01 0.05
20 0 1 0.08 0.06
-22 0 -1 -0.15 0.05
22 0 1 0.05 0.06
-22 0 -1 0.03 0.06
24 0 1 0.07 0.08
-24 0 -1 0 0.07
26 0 1 -0.06 0.07
-26 0 -1 0.01 0.07
-28 0 -1 -0.01 0.08
28 0 1 0.01 0.09
27 -1 -1 5.53 0.34
-27 -1 1 5.11 0.32
-27 1 1 5.25 0.32
27 1 -1 5.06 0.33
25 -1 -1 9.53 0.55
-25 -1 1 11.04 0.54
-25 1 1 9.95 0.54
25 1 -1 10.29 0.56
23 -1 -1 33.4 1.62
-23 -1 1 33.83 1.61
-23 1 1 33.14 1.61
23 1 -1 32.5 1.62
-21 -1 1 22.16 2.68
-21 -1 1 21.58 1.05
21 -1 -1 20.45 1.06
21 1 -1 21.24 1.06
-21 1 1 21.93 1.06
19 -1 -1 3.85 0.24
-19 -1 1 4.65 0.52
-19 -1 1 4.09 0.22
19 1 -1 3.7 0.23
-19 1 1 3.72 0.22
19 1 -1 2.5 0.49
-19 1 1 3.96 0.5
-17 -1 1 9.56 1.15
17 -1 -1 9.46 0.47
17 -1 -1 8.7 0.47
-17 -1 1 8.82 0.46
-17 1 1 9.56 0.47
17 1 -1 9.59 0.47
-17 1 1 10.25 1.14
17 1 -1 9.35 0.48
17 1 -1 6.58 1.14
15 -1 -1 34.68 1.56
15 -1 -1 31.66 1.58
-15 -1 1 33.04 1.57
-15 -1 1 35.29 4.06
15 -1 -1 32.93 1.58
15 1 -1 32.83 1.56
-15 1 1 36.96 4.05
15 1 -1 24.01 4.06
-15 1 1 33.24 1.56
-15 1 1 33.39 1.58
15 1 -1 33.99 1.58
15 1 -1 32.88 1.58
-13 -1 1 23.34 2.64
13 -1 -1 21.61 1.03
-13 -1 1 21.5 1.03
13 -1 -1 22.11 1.03
13 -1 -1 22.16 1.02
13 1 -1 21.12 1.03
13 1 -1 22.49 1.04
13 1 -1 16.49 2.64
-13 1 1 21.97 1.02
-13 1 1 21.5 1.03
13 1 -1 20.63 1.02
-11 -1 1 29.46 1.41
11 -1 -1 31.04 1.42
-11 -1 1 32.19 3.66
11 -1 -1 29.18 1.4
11 -1 -1 29.23 1.42
11 1 -1 22.3 3.65
11 1 -1 28.89 1.4
11 1 -1 30.41 1.42
-11 1 1 29.96 1.42
11 1 -1 30.11 1.42
-11 1 1 30.54 1.4
-11 1 1 32.79 3.65
-9 -1 1 6.34 0.31
9 -1 -1 6.77 0.32
9 -1 -1 6.63 0.32
9 -1 -1 6.58 0.32
-9 -1 1 6.89 0.79
9 1 -1 4.67 0.79
9 1 -1 6.32 0.32
9 1 -1 6.28 0.32
9 1 -1 6.2 0.32
-9 1 1 6.63 0.32
-9 1 1 6.15 0.79
-9 1 1 6.37 0.32
7 -1 -1 0.07 0.03
-7 -1 1 0.11 0.04
7 -1 -1 0.08 0.03
7 -1 -1 0.06 0.03
-7 -1 1 0.01 0.02
7 1 -1 0.06 0.03
-7 1 1 0.06 0.03
7 1 -1 0.02 0.03
7 1 -1 0.09 0.04
7 1 -1 0.08 0.03
-7 1 1 0.06 0.03
-7 1 1 0.05 0.03
-7 1 1 0.04 0.03
-5 -1 1 6.9 0.31
5 -1 -1 6.8 0.3
5 -1 -1 6.14 0.31
5 -1 -1 6.54 0.31
-5 -1 1 5.43 0.78
-5 -1 1 6.04 0.3
5 1 -1 6.49 0.31
-5 1 1 6.28 0.3
-5 1 1 6.67 0.31
5 1 -1 6.92 0.31
-5 1 1 6.49 0.31
5 1 -1 4.51 0.78
3 -1 -1 165.7 7.28
-3 -1 1 150.71 7.43
-3 -1 1 120.06 19.34
3 -1 -1 165.61 7.39
3 -1 -1 158.57 7.43
-3 1 1 168.71 7.29
-3 1 1 163.06 7.42
-3 1 1 163.72 7.38
3 1 -1 163.22 7.42
1 -1 -1 257.21 12.77
1 -1 -1 258.27 12.77
1 -1 -1 277.54 12.69
-1 -1 1 277.21 12.77
1 -1 -1 271.76 12.51
1 1 -1 272.79 12.77
-1 1 1 273.77 12.69
-1 1 1 260.35 12.78
-1 1 1 284.12 12.51
1 1 -1 279.09 12.69
1 -1 1 154.23 7.2
-1 -1 -1 152.64 7.09
-1 -1 -1 155.76 7.24
-1 1 -1 153.13 7.21
1 1 1 152.6 7.24
3 -1 1 45.42 2.08
-3 -1 -1 45.29 2.12
-3 -1 -1 44.88 2.08
3 -1 1 45.78 2.11
3 1 1 46.56 2.1
3 1 1 33.95 5.51
3 1 1 48.32 2.08
-3 1 -1 47.07 2.08
3 1 1 45.48 2.12
-3 1 -1 46.72 2.11
-5 -1 -1 21.97 3.75
5 -1 1 32.55 1.44
-5 -1 -1 31.16 1.44
5 -1 1 32.29 1.42
-5 -1 -1 31.4 1.42
-5 1 -1 30.73 1.44
5 1 1 32.16 1.42
5 1 1 28.05 3.75
-5 1 -1 30.82 1.44
5 1 1 31.83 1.43
-5 1 -1 32.71 1.42
-7 -1 -1 27.1 4.27
7 -1 1 37.24 1.62
-7 -1 -1 36.71 1.65
-7 -1 -1 36.73 1.62
7 -1 1 27.29 4.26
7 1 1 35.54 4.27
-7 1 -1 35.79 1.64
-7 1 -1 37.76 1.62
7 1 1 35.86 1.62
7 1 1 37.63 1.64
9 -1 1 106.27 4.76
-9 -1 -1 81.35 12.59
-9 -1 -1 102.16 4.83
9 -1 1 98.61 12.58
-9 -1 -1 102.95 4.84
-9 1 -1 104.16 4.84
9 1 1 118.05 12.59
9 1 1 107.88 4.82
11 -1 1 100.18 4.64
-11 -1 -1 77.56 12.28
11 -1 1 103.32 4.7
-11 -1 -1 96.2 4.72
-11 -1 -1 100.42 4.73
11 -1 1 109.82 12.27
-11 -1 -1 97.33 4.64
11 1 1 103.13 4.7
-11 1 -1 100.46 4.72
-11 1 -1 99.63 4.64
11 1 1 113.02 12.28
11 1 1 99.95 4.64
13 -1 1 38.56 4.63
-13 -1 -1 37.38 1.78
13 -1 1 37.77 1.79
13 -1 1 38.34 1.77
-13 -1 -1 39.36 1.8
-13 -1 -1 37.73 1.77
-13 -1 -1 29.11 4.64
-13 1 -1 38.83 1.79
-13 1 -1 36.58 1.78
13 1 1 39.19 1.79
13 1 1 41.1 4.64
13 1 1 37.55 1.77
-13 1 -1 37.89 1.77
15 -1 1 0.25 0.06
15 -1 1 0.17 0.05
-15 -1 -1 0.1 0.05
-15 -1 -1 0.13 0.04
15 -1 1 0.22 0.07
-15 -1 -1 0.2 0.09
15 1 1 0 0.04
15 1 1 0.11 0.05
-15 1 -1 0.1 0.04
-15 1 -1 0.11 0.04
-15 1 -1 0.23 0.05
-15 1 -1 0.14 0.05
15 1 1 0.24 0.08
17 -1 1 9.81 0.47
17 -1 1 9.72 0.47
-17 -1 -1 8.84 0.47
17 -1 1 10.11 1.15
-17 -1 -1 8.71 0.46
-17 -1 -1 6.48 1.16
-17 1 -1 9.38 0.46
17 1 1 9.02 0.47
17 1 1 9.44 0.47
17 1 1 10.35 1.16
-17 1 -1 9.32 0.47
-17 1 -1 9.14 0.46
-19 -1 -1 21.91 3.75
19 -1 1 31.53 1.47
-19 -1 -1 32.26 1.45
19 1 1 32.35 3.75
19 1 1 32.44 1.47
-19 1 -1 31.53 1.45
-21 -1 -1 10.44 0.53
-21 -1 -1 10.65 0.53
21 -1 1 9.6 0.54
21 1 1 11.29 0.55
-21 1 -1 10.6 0.53
-23 -1 -1 12.44 0.62
23 -1 1 12.25 0.64
-23 -1 -1 11.76 0.62
-23 1 -1 12.1 0.62
23 1 1 12.73 0.64
25 -1 1 22.57 1.14
-25 -1 -1 22.52 1.12
25 1 1 23.19 1.14
-25 1 -1 23.29 1.13
-27 -1 -1 0.07 0.08
27 -1 1 0.1 0.09
27 1 1 0 0.08
-27 1 -1 0.01 0.08
-28 -2 1 0.91 0.13
-28 2 1 0.89 0.14
28 2 -1 1.08 0.15
-26 -2 1 2.48 0.2
26 -2 -1 2.56 0.22
26 2 -1 2.31 0.21
-26 2 1 2.76 0.21
24 -2 -1 3.82 0.26
-24 -2 1 3.95 0.25
-24 2 1 3.48 0.24
24 2 -1 3.94 0.26
22 -2 -1 0.14 0.08
-22 -2 1 0.16 0.08
-22 -2 1 0.44 0.14
-22 2 1 0.26 0.09
22 2 -1 0.32 0.09
20 -2 -1 6.48 0.37
-20 -2 1 7 0.88
-20 -2 1 6.64 0.36
20 2 -1 7.08 0.38
-20 2 1 6.53 0.36
-18 -2 1 26.74 1.28
18 -2 -1 27.12 1.29
-18 -2 1 31.37 3.28
-18 2 1 26.98 1.28
18 2 -1 20.86 3.27
18 2 -1 25.37 1.29
-18 2 1 26.52 3.26
-16 -2 1 11.02 0.58
-16 -2 1 12.68 1.47
16 -2 -1 12.03 0.59
-16 -2 1 11.28 0.58
16 -2 -1 12.09 0.59
-16 2 1 11.63 0.58
16 2 -1 12.14 0.59
-16 2 1 11.48 0.58
16 2 -1 11.57 0.59
-16 2 1 12.97 1.45
16 2 -1 9.39 1.47
16 2 -1 12.19 0.6
-14 -2 1 1.46 0.1
14 -2 -1 1.17 0.11
14 -2 -1 1.65 0.11
14 -2 -1 1.54 0.12
-14 -2 1 1.5 0.22
-14 -2 1 1.39 0.1
14 2 -1 1.35 0.12
14 2 -1 1.3 0.11
14 2 -1 1.11 0.22
14 2 -1 1.29 0.11
-14 2 1 1.15 0.1
-14 2 1 1.54 0.12
-14 2 1 1.76 0.2
-12 -2 1 0.89 0.07
-12 -2 1 0.78 0.07
-12 -2 1 0.81 0.14
12 -2 -1 0.74 0.08
12 -2 -1 0.9 0.07
12 -2 -1 0.98 0.08
12 2 -1 0.96 0.09
12 2 -1 0.63 0.15
-12 2 1 1 0.08
12 2 -1 0.92 0.09
-12 2 1 0.96 0.08
12 2 -1 0.7 0.08
-12 2 1 0.94 0.13
10 -2 -1 2.92 0.18
-10 -2 1 3.2 0.18
10 -2 -1 3.27 0.18
10 -2 -1 3.23 0.18
-10 -2 1 3.24 0.18
-10 -2 1 3.71 0.43
-10 2 1 3.4 0.41
10 2 -1 3.55 0.19
-10 2 1 3.57 0.18
10 2 -1 2.84 0.43
-10 2 1 3.35 0.18
10 2 -1 3.1 0.18
-8 -2 1 11.29 0.55
8 -2 -1 12.75 0.55
-8 -2 1 11.6 0.55
8 -2 -1 11.49 0.55
-8 -2 1 11.88 1.41
8 -2 -1 11.72 0.55
8 2 -1 12.09 0.56
-8 2 1 12.09 0.55
8 2 -1 9.24 1.42
-8 2 1 11.61 0.55
-8 2 1 9.12 1.4
8 2 -1 11.79 0.56
6 -2 -1 0.55 0.05
6 -2 -1 0.43 0.05
6 -2 -1 0.45 0.04
-6 -2 1 0.76 0.05
-6 -2 1 0.39 0.08
-6 -2 1 0.43 0.04
6 2 -1 0.43 0.05
6 2 -1 0.32 0.08
-6 2 1 0.54 0.05
-6 2 1 0.49 0.05
6 2 -1 0.35 0.05
-4 -2 1 149.47 19.94
4 -2 -1 169.37 7.65
-4 -2 1 165.19 7.66
-4 -2 1 165.16 7.65
4 -2 -1 168.37 7.61
4 -2 -1 175.99 7.5
4 2 -1 121.7 19.92
-4 2 1 168.39 7.66
-4 2 1 172.09 7.5
4 2 -1 161.95 7.65
4 2 -1 170.43 7.61
-2 -2 1 4.77 0.71
2 -2 -1 5.92 0.28
2 -2 -1 6.33 0.27
-2 -2 1 5.21 0.27
-2 -2 1 5.25 0.27
2 2 -1 5.73 0.27
-2 2 1 5.72 0.28
2 2 -1 5.96 0.28
2 2 -1 5.81 0.28
-2 2 1 5.98 0.27
0 -2 -1 121.65 5.66
0 -2 -1 130.9 5.63
0 2 -1 123.07 5.66
0 2 1 123.84 5.67
0 2 -1 129.41 5.63
0 2 1 93.1 14.75
-2 -2 -1 4.93 0.24
-2 -2 -1 5.19 0.24
-2 -2 -1 3.59 0.62
2 -2 1 4.98 0.24
-2 2 -1 5.28 0.25
2 2 1 5.43 0.24
2 2 1 4.89 0.24
-2 2 -1 4.89 0.23
-2 2 -1 5.24 0.23
-4 -2 -1 101.88 4.68
4 -2 1 102.63 4.62
-4 -2 -1 81.28 12.25
-4 -2 -1 101.29 4.62
-4 -2 -1 100.94 4.7
-4 -2 -1 103.18 4.71
4 2 1 99.4 4.71
4 2 1 101.15 4.68
-4 2 -1 105.01 4.7
-4 2 -1 102.78 4.68
6 -2 1 43.48 2
6 -2 1 42.89 1.97
-6 -2 -1 35.3 5.22
-6 -2 -1 43.69 2.01
-6 -2 -1 42.16 2
-6 -2 -1 41.97 1.99
-6 -2 -1 42.43 1.97
6 2 1 45.4 5.22
-6 2 -1 41.92 2
-6 2 -1 43.64 2
6 2 1 43.35 1.97
6 2 1 42.4 2.01
6 2 1 42.86 1.99
-8 -2 -1 36.19 1.69
-8 -2 -1 36.16 1.67
8 -2 1 37.62 1.66
-8 -2 -1 31.66 4.37
-8 -2 -1 35.43 1.68
-8 -2 -1 36.11 1.65
8 -2 1 26.17 4.35
8 2 1 37.48 1.67
8 2 1 39.76 4.37
8 2 1 36.48 1.68
8 2 1 36.97 1.66
-8 2 -1 35.81 1.68
-10 -2 -1 37.61 5.42
-10 -2 -1 43.73 2.05
10 -2 1 42.12 5.4
-10 -2 -1 43.35 2.08
10 -2 1 44.94 2.06
10 2 1 42.85 2.09
10 2 1 53.71 5.42
-10 2 -1 43.79 2.08
10 2 1 43.96 2.08
-10 2 -1 44.91 2.06
10 2 1 43.21 2.05
-12 -2 -1 13.64 0.66
12 -2 1 15.35 1.68
12 -2 1 13.65 0.66
-12 -2 -1 11.96 1.7
-12 -2 -1 13.2 0.65
12 2 1 14.44 1.7
12 2 1 13.08 0.66
12 2 1 13.59 0.66
-12 2 -1 13.86 0.66
-12 2 -1 13.14 0.66
14 -2 1 26.09 1.24
14 -2 1 25.87 1.23
-14 -2 -1 24.84 1.22
-14 -2 -1 21.73 3.19
-14 -2 -1 25.45 1.23
14 -2 1 26.33 3.17
14 2 1 26.77 1.23
14 2 1 27.14 1.24
14 2 1 28.33 3.19
-14 2 -1 24.84 1.24
-14 2 -1 25.86 1.23
-16 -2 -1 7.79 1.22
16 -2 1 9.83 0.49
16 -2 1 9.53 0.49
16 -2 1 10.2 1.19
-16 -2 -1 9.19 0.48
-16 -2 -1 9.47 0.47
16 2 1 9.47 0.48
16 2 1 9.79 0.49
16 2 1 10.69 1.21
-18 -2 -1 1.12 0.25
-18 -2 -1 1.71 0.11
18 -2 1 1.68 0.14
-18 -2 -1 1.32 0.13
-18 2 -1 1.68 0.12
18 2 1 1.88 0.25
18 2 1 1.54 0.13
20 -2 1 8.95 0.47
-20 -2 -1 7.04 1.13
-20 -2 -1 9.26 0.45
20 2 1 9.26 0.47
-20 2 -1 9.73 0.45
-22 -2 -1 1.52 0.13
22 -2 1 1.66 0.15
-22 -2 -1 1.61 0.29
-22 2 -1 1.81 0.14
22 2 1 1.94 0.16
24 -2 1 2.5 0.2
-24 -2 -1 2.42 0.17
-24 -2 -1 2.23 0.17
-24 2 -1 2.31 0.18
24 2 1 2.21 0.19
26 -2 1 17.12 0.83
-26 -2 -1 15.89 0.8
-26 -2 -1 15.42 0.8
-26 2 -1 15.3 0.81
26 2 1 16.55 0.82
-28 -2 -1 5.93 0.33
-28 2 -1 5.59 0.33
28 2 1 5.1 0.34
-27 -3 1 0.82 0.13
-27 3 1 1.31 0.15
27 3 -1 1.01 0.15
25 -3 -1 3.85 0.26
-25 -3 1 3.82 0.25
-25 3 1 3.71 0.25
25 3 -1 3.98 0.27
23 -3 -1 8.28 0.44
-23 -3 1 8.4 1.02
-23 -3 1 6.87 0.41
-23 3 1 7.42 0.42
23 3 -1 7.87 0.44
21 -3 -1 10.31 0.55
-21 -3 1 10.8 1.34
-21 -3 1 10.57 0.54
-21 3 1 10.17 0.54
21 3 -1 10.1 0.55
19 -3 -1 0.17 0.07
-19 -3 1 0.07 0.06
-19 -3 1 0.17 0.11
-19 -3 1 0.17 0.06
-19 3 1 0.19 0.07
19 3 -1 0.19 0.07
-17 -3 1 0.63 0.08
-17 -3 1 0.9 0.17
17 -3 -1 0.9 0.1
-17 -3 1 0.96 0.09
17 3 -1 0.82 0.1
-17 3 1 0.87 0.1
17 3 -1 0.72 0.17
-17 3 1 0.74 0.12
-17 3 1 0.82 0.1
-15 -3 1 3.25 0.19
-15 -3 1 3.67 0.46
-15 -3 1 3.65 0.19
15 -3 -1 3.56 0.2
15 -3 -1 3.37 0.2
15 3 -1 2.82 0.46
-15 3 1 3.11 0.42
-15 3 1 3.78 0.2
15 3 -1 3.21 0.2
15 3 -1 3.14 0.2
-15 3 1 3.59 0.2
-13 -3 1 42.56 2.09
-13 -3 1 44.21 2.09
13 -3 -1 42.92 2.09
-13 -3 1 42.88 2.06
13 -3 -1 45.64 2.07
13 -3 -1 44.73 2.09
-13 -3 1 46.83 5.42
-13 3 1 45.55 2.1
13 3 -1 42.75 2.09
13 3 -1 44.42 2.1
-13 3 1 50.01 5.4
-13 3 1 43.81 2.06
13 3 -1 35.69 5.42
-11 -3 1 53.4 2.59
11 -3 -1 57.3 2.63
-11 -3 1 55.16 2.63
-11 -3 1 58.86 6.83
11 -3 -1 55.93 2.63
11 -3 -1 56.94 2.59
-11 3 1 55.96 2.59
11 3 -1 56.26 2.64
11 3 -1 46.41 6.84
-11 3 1 55.23 6.81
11 3 -1 56.61 2.63
-11 3 1 58.73 2.64
9 -3 -1 11.98 0.54
9 -3 -1 11.53 0.54
-9 -3 1 11.07 1.37
-9 -3 1 10.96 0.53
9 -3 -1 11.55 0.54
-9 3 1 11.83 0.54
-9 3 1 11.37 0.54
9 3 -1 11.58 0.55
9 3 -1 9.23 1.38
-9 3 1 8.71 1.35
9 3 -1 11.43 0.55
-7 -3 1 15.73 0.72
7 -3 -1 14.91 0.73
-7 -3 1 15.7 1.87
7 -3 -1 14.64 0.72
7 3 -1 15.78 0.73
-7 3 1 16.03 0.72
-7 3 1 15.67 0.73
7 3 -1 14.45 0.73
7 3 -1 12.87 1.87
-5 -3 1 3.52 0.44
5 -3 -1 3.64 0.18
5 -3 -1 3.17 0.18
-5 -3 1 3.48 0.18
-5 -3 1 3.51 0.17
5 3 -1 3.33 0.18
-5 3 1 3.41 0.18
5 3 -1 3.31 0.19
-5 3 1 3.25 0.18
-3 -3 1 12.44 0.58
-3 -3 1 12.15 0.57
3 -3 -1 12.59 0.56
-3 -3 1 10.88 1.48
3 -3 -1 11.89 0.57
3 3 -1 12.54 0.58
-3 3 1 12.59 0.58
-3 3 1 9.36 1.47
3 3 -1 12.38 0.58
-3 3 1 12.51 0.56
-1 -3 1 1.17 0.08
-1 -3 1 1.12 0.16
1 -3 -1 1.1 0.07
1 -3 -1 1.21 0.07
-1 -3 1 1.22 0.06
1 -3 -1 1.21 0.07
1 3 -1 1.12 0.07
1 3 -1 1.12 0.06
-1 3 1 1.02 0.16
1 3 -1 1.26 0.08
1 3 -1 0.89 0.16
-1 3 1 1.18 0.07
-1 -3 -1 59.7 8.74
-1 -3 -1 73.97 3.36
-1 -3 -1 78.06 3.34
1 -3 1 59.45 8.74
1 3 1 72.75 3.36
-1 3 -1 74.71 3.35
-1 3 -1 77.03 3.35
1 3 1 70.9 8.74
1 3 1 74.97 3.34
-3 -3 -1 16.16 2.34
-3 -3 -1 19.64 0.89
-3 -3 -1 18.45 0.9
3 -3 1 19.13 0.89
3 3 1 18.93 0.91
-3 3 -1 19.46 0.89
-3 3 -1 19.32 0.9
3 3 1 19.84 0.89
-3 3 -1 19.46 0.9
-5 -3 -1 3.58 0.18
-5 -3 -1 3.55 0.18
-5 -3 -1 3.49 0.18
-5 -3 -1 3.2 0.46
5 -3 1 3.49 0.18
-5 3 -1 3.61 0.19
5 3 1 3.63 0.18
-5 3 -1 3.6 0.17
5 3 1 3.6 0.19
-7 -3 -1 90.86 4.34
-7 -3 -1 93.61 4.42
-7 -3 -1 93.98 4.39
-7 -3 -1 84 11.51
7 -3 1 88.71 4.34
-7 3 -1 92.5 4.42
7 3 1 111.88 11.51
7 3 1 92.88 4.4
7 3 1 95.45 4.43
-9 -3 -1 158.39 21.63
-9 -3 -1 172.68 8.3
9 -3 1 176.99 8.16
-9 -3 -1 169.75 8.26
-9 3 -1 178.31 8.31
9 3 1 206.41 21.65
-9 3 -1 172.91 8.31
9 3 1 178.35 8.32
9 3 1 174.12 8.26
-11 -3 -1 30.16 1.46
-11 -3 -1 30.27 1.48
-11 -3 -1 28.03 3.85
11 -3 1 31.04 1.47
11 -3 1 31.86 3.82
-11 3 -1 31.57 1.48
11 3 1 35.05 3.85
11 3 1 33.03 1.48
-11 3 -1 29.36 1.48
11 3 1 30.8 1.46
11 3 1 31.3 1.49
-13 -3 -1 17.77 2.43
13 -3 1 20.7 2.39
13 -3 1 19.83 0.94
-13 -3 -1 18.98 0.93
-13 -3 -1 19.16 0.93
-13 3 -1 18.81 0.94
13 3 1 19.65 0.94
13 3 1 19.16 0.93
13 3 1 21.18 2.42
13 3 1 19.28 0.94
15 -3 1 11.04 0.54
15 -3 1 10.92 1.32
-15 -3 -1 9.52 1.36
-15 -3 -1 10.48 0.53
-15 -3 -1 10.99 0.53
15 -3 1 10.77 0.54
15 3 1 11.91 1.36
15 3 1 10.39 0.54
-15 3 -1 10.56 0.53
15 3 1 10.42 0.54
-17 -3 -1 3.09 0.49
-17 -3 -1 3.28 0.19
-17 -3 -1 3.44 0.21
17 -3 1 3.52 0.21
17 3 1 4.27 0.22
17 3 1 3.51 0.21
19 -3 1 4.52 0.26
-19 -3 -1 4.13 0.61
-19 -3 -1 4.27 0.24
-19 3 -1 4.85 0.25
19 3 1 4.39 0.26
-21 -3 -1 8.49 1.33
-21 -3 -1 10.74 0.52
21 -3 1 10.7 0.55
21 3 1 11.26 0.54
-21 3 -1 10.8 0.53
23 -3 1 3.81 0.24
-23 -3 -1 3.52 0.22
-23 -3 -1 3.15 0.52
-23 3 -1 4.2 0.23
23 3 1 3.58 0.24
25 -3 1 0.55 0.11
-25 -3 -1 0.41 0.09
-25 -3 -1 0.43 0.09
-25 3 -1 0.4 0.09
25 3 1 0.43 0.1
-27 -3 -1 0.41 0.09
-27 -3 -1 0.25 0.09
27 -3 1 0.32 0.11
27 3 1 0.37 0.1
-27 3 -1 0.19 0.1
26 -4 -1 0.06 0.08
-26 -4 1 0.05 0.08
26 4 -1 0.19 0.1
-26 4 1 -0.16 0.08
24 -4 -1 1.13 0.14
-24 -4 1 0.93 0.12
-24 4 1 1.05 0.13
24 4 -1 1.13 0.14
22 -4 -1 22.84 1.12
-22 -4 1 23.47 2.82
-22 -4 1 21.48 1.1
22 4 -1 22.44 1.12
-22 4 1 22.21 1.11
-20 -4 1 64.29 2.99
20 -4 -1 59.91 2.99
-20 -4 1 61.49 2.99
-20 -4 1 63.19 7.75
20 4 -1 65.74 3
-20 4 1 62.27 3
-18 -4 1 55.93 6.36
-18 -4 1 51.69 2.46
18 -4 -1 48.86 2.46
-18 -4 1 50.98 2.45
-18 4 1 51.33 2.46
18 4 -1 50.04 2.46
-16 -4 1 52.5 5.87
-16 -4 1 47.21 2.27
16 -4 -1 47.49 2.27
-16 -4 1 45.22 2.24
-16 -4 1 46.44 2.27
16 -4 -1 48.85 2.24
16 4 -1 47.83 2.27
-16 4 1 45.98 2.27
16 4 -1 47.18 2.28
-16 4 1 47.06 2.24
14 -4 -1 15.18 0.71
14 -4 -1 14.25 0.71
-14 -4 1 13.25 0.7
-14 -4 1 15.04 0.71
-14 -4 1 15.64 1.81
-14 4 1 14.36 0.71
-14 4 1 14.87 0.71
14 4 -1 12.65 1.81
14 4 -1 14.26 0.72
14 4 -1 14.49 0.72
12 -4 -1 1.31 0.11
12 -4 -1 1.47 0.11
-12 -4 1 1.36 0.21
12 -4 -1 1.28 0.1
-12 -4 1 1.35 0.1
-12 -4 1 1.43 0.11
12 4 -1 1.54 0.12
12 4 -1 1.06 0.22
-12 4 1 1.39 0.11
-12 4 1 1.14 0.1
12 4 -1 1.43 0.11
-10 -4 1 25.84 3.11
-10 -4 1 26.54 1.2
10 -4 -1 25.57 1.19
-10 -4 1 25.53 1.19
10 -4 -1 25.69 1.2
-10 4 1 24.87 1.19
10 4 -1 26.34 1.21
10 4 -1 19.81 3.11
-10 4 1 27.07 1.21
10 4 -1 24.3 1.21
-8 -4 1 21.73 2.56
8 -4 -1 20.53 0.99
8 -4 -1 20.57 0.98
-8 -4 1 20.34 0.99
-8 4 1 20.57 1
-8 4 1 18.43 2.54
-8 4 1 21.42 0.98
8 4 -1 21.09 1
8 4 -1 21.56 1
-6 -4 1 12.44 0.6
6 -4 -1 12.63 0.6
6 -4 -1 13.09 0.6
-6 -4 1 13.2 1.55
6 4 -1 12.36 0.61
-6 4 1 11.43 1.53
-6 4 1 12.43 0.6
6 4 -1 11.95 0.61
-6 4 1 12.46 0.61
4 -4 -1 8.9 0.42
-4 -4 1 8.72 1.08
-4 -4 1 8.53 0.42
4 -4 -1 8.66 0.42
4 -4 -1 8.31 0.42
4 4 -1 8.66 0.43
-4 4 1 8.62 0.42
4 4 -1 9.14 0.43
-4 4 1 8.72 0.43
-4 4 1 8.02 1.07
2 -4 -1 16.42 0.73
2 -4 -1 15.76 0.74
-2 -4 1 15.71 1.9
2 -4 -1 11.7 1.9
2 -4 -1 16.56 0.72
-2 -4 1 15.73 0.74
-2 -4 1 16.22 0.73
-2 4 1 15.55 0.74
-2 4 1 15.88 1.9
2 4 -1 15.43 0.74
2 4 -1 13.12 1.9
2 4 -1 16.47 0.74
0 -4 -1 52.82 2.47
0 -4 -1 54.49 2.45
0 -4 -1 44.11 6.42
0 -4 1 50.31 6.41
0 -4 1 55.65 2.46
0 4 -1 38.29 6.41
0 4 1 56.88 6.42
0 4 -1 56.86 2.46
0 4 1 54.02 2.47
0 4 -1 54.91 2.46
0 4 -1 52.53 2.47
0 4 1 56.23 2.45
2 -4 1 65.99 9.14
-2 -4 -1 74.88 3.49
-2 -4 -1 69.25 9.15
-2 -4 -1 74.09 3.51
2 4 1 77.27 3.52
2 4 1 80.11 9.15
-2 4 -1 78.15 3.5
2 4 1 75.48 3.49
-2 4 -1 75.55 3.51
4 -4 1 172.47 7.97
-4 -4 -1 164.34 21.16
4 -4 1 149.24 21.14
-4 -4 -1 171.69 8.12
-4 -4 -1 168.96 8.07
4 4 1 184.75 8.08
-4 4 -1 179.38 8.08
-4 4 -1 182.62 8.12
4 4 1 179.74 8.13
6 -4 1 222.66 9.98
-6 -4 -1 193.58 26.49
-6 -4 -1 220.78 9.98
6 -4 1 179.44 26.48
-6 -4 -1 227.21 10.11
-6 -4 -1 226.06 10.19
-6 4 -1 215.85 10.12
6 4 1 227.79 10.11
-6 4 -1 220.21 10.17
6 4 1 227.88 10.18
8 -4 1 60.11 2.82
8 -4 1 45.32 7.42
-8 -4 -1 63.2 2.86
-8 -4 -1 62.12 2.85
-8 -4 -1 54.37 7.46
8 4 1 63.39 2.87
8 4 1 72.05 7.45
-8 4 -1 62.96 2.86
-8 4 -1 60.76 2.86
8 4 1 61.66 2.85
-10 -4 -1 0.27 0.1
-10 -4 -1 0.2 0.03
10 -4 1 0.22 0.05
-10 -4 -1 0.27 0.05
10 4 1 0.21 0.08
-10 4 -1 0.14 0.03
-10 4 -1 0.3 0.04
10 4 1 0.26 0.04
10 4 1 0.3 0.05
-12 -4 -1 18.98 0.94
-12 -4 -1 19.08 0.94
-12 -4 -1 17.88 2.46
12 -4 1 20.98 0.95
12 4 1 20.99 2.45
12 4 1 19.69 0.95
-12 4 -1 18.62 0.95
12 4 1 21.33 0.96
-14 -4 -1 27.67 1.32
14 -4 1 26.52 1.32
-14 -4 -1 28.02 1.32
-14 -4 -1 25.36 3.45
14 4 1 27.93 1.33
-14 4 -1 27.72 1.33
14 4 1 30.84 3.44
-16 -4 -1 68.93 3.19
-16 -4 -1 66.1 3.15
-16 -4 -1 64.02 8.31
16 4 1 70.45 3.19
-18 -4 -1 19.99 2.68
18 -4 1 20.33 1.05
-18 -4 -1 21.48 1.03
18 4 1 22.4 1.05
-18 4 -1 22.64 1.04
-20 -4 -1 3.81 0.21
20 -4 1 4.11 0.24
-20 -4 -1 3.29 0.54
20 4 1 4.15 0.24
-20 4 -1 3.38 0.22
-22 -4 -1 0.48 0.18
-22 -4 -1 0.64 0.08
22 -4 1 0.61 0.1
-22 4 -1 0.52 0.09
22 4 1 0.78 0.11
24 -4 1 10.26 0.58
-24 -4 -1 10.91 0.56
-24 4 -1 11.49 0.57
24 4 1 11.07 0.58
-26 -4 -1 18.2 0.9
-26 -4 -1 17.67 0.89
26 -4 1 17.69 0.92
26 4 1 18.42 0.91
-26 4 -1 17.65 0.9
-27 5 1 0.99 0.15
27 5 -1 0.97 0.15
-25 -5 1 4.44 0.29
25 -5 -1 5.29 0.32
25 5 -1 4.89 0.32
-25 5 1 4.86 0.31
23 -5 -1 5.62 0.34
-23 -5 1 5.92 0.33
-23 -5 1 5.59 0.32
23 5 -1 5.35 0.34
-23 5 1 5.58 0.33
-21 -5 1 4.37 0.26
-21 -5 1 4.57 0.27
21 -5 -1 4.12 0.28
-21 5 1 4.89 0.28
21 5 -1 4.55 0.28
-19 -5 1 0.65 0.08
-19 -5 1 0.41 0.08
-19 -5 1 0.57 0.17
19 -5 -1 0.38 0.08
-19 5 1 0.43 0.09
19 5 -1 0.47 0.1
17 -5 -1 4.34 0.27
-17 -5 1 4.9 0.26
-17 -5 1 5.14 0.65
17 5 -1 4.64 0.28
-17 5 1 4.73 0.28
-15 -5 1 0.07 0.05
15 -5 -1 0.02 0.05
-15 -5 1 0.03 0.04
-15 -5 1 0.04 0.08
15 -5 -1 0.08 0.05
15 5 -1 -0.01 0.05
15 5 -1 -0.04 0.05
-15 5 1 0.03 0.06
-15 5 1 -0.11 0.06
13 -5 -1 0.3 0.06
-13 -5 1 0.23 0.06
13 -5 -1 0.35 0.06
-13 -5 1 0.23 0.1
-13 -5 1 0.27 0.05
13 5 -1 0.4 0.07
-13 5 1 0.35 0.07
-13 5 1 0.33 0.06
13 5 -1 0.34 0.07
-11 -5 1 1.38 0.11
-11 -5 1 1.43 0.1
11 -5 -1 1.31 0.11
11 -5 -1 1.33 0.09
-11 -5 1 1.33 0.21
-11 5 1 1.62 0.12
11 5 -1 1.24 0.11
11 5 -1 1.44 0.12
-11 5 1 1.58 0.12
11 5 -1 0.99 0.22
9 -5 -1 4.47 0.22
-9 -5 1 4.25 0.22
-9 -5 1 4.61 0.56
9 -5 -1 4.42 0.23
9 5 -1 3.21 0.56
9 5 -1 4.11 0.23
-9 5 1 4.26 0.23
9 5 -1 4.44 0.24
-9 5 1 4.44 0.24
-7 -5 1 9.77 0.47
7 -5 -1 9.36 0.47
7 -5 -1 9.29 0.47
-7 -5 1 9.63 1.22
7 5 -1 9.78 0.49
7 5 -1 9.9 0.49
-7 5 1 9.42 0.47
-7 5 1 9.66 0.49
-7 5 1 10.3 1.2
5 -5 -1 0.34 0.04
-5 -5 1 0.41 0.04
-5 -5 1 0.39 0.09
5 -5 -1 0.43 0.05
5 5 -1 0.29 0.1
5 5 -1 0.25 0.05
-5 5 1 0.29 0.05
5 5 -1 0.35 0.05
-5 5 1 0.39 0.07
-5 5 1 0.44 0.05
-3 -5 1 0.12 0.06
-3 -5 1 0.05 0.02
3 -5 -1 0.13 0.03
3 -5 -1 0.07 0.05
3 -5 -1 0.09 0.03
-3 5 1 0.09 0.04
-3 5 1 0.1 0.05
3 5 -1 0.07 0.04
3 5 -1 0.11 0.04
1 -5 -1 2.48 0.38
-1 -5 1 2.92 0.15
1 -5 -1 2.82 0.15
1 -5 -1 2.9 0.15
-1 -5 1 2.74 0.37
1 -5 -1 3.05 0.15
-1 5 1 2.98 0.37
1 5 -1 2.91 0.16
-1 5 1 2.79 0.16
-1 5 1 2.76 0.15
1 5 -1 2.83 0.16
-1 -5 -1 20.45 0.9
-1 -5 -1 16.67 2.34
-1 -5 -1 19.47 0.9
1 -5 1 20.39 2.34
-1 5 -1 19.62 0.9
-1 5 -1 19.22 0.91
-1 5 -1 20.71 0.91
1 5 1 19.56 0.91
1 5 1 19.45 0.9
-1 5 -1 13.67 2.33
-3 -5 -1 60.13 2.77
3 -5 1 61.08 2.75
-3 -5 -1 58.68 2.79
3 -5 1 57.98 7.24
-3 -5 -1 53.59 7.26
3 5 1 61.48 2.77
3 5 1 61.51 2.8
-3 5 -1 56.39 2.78
-3 5 -1 60.41 2.78
-5 -5 -1 53.1 2.45
-5 -5 -1 51.02 2.44
5 -5 1 49.92 6.37
-5 -5 -1 44.19 6.39
5 -5 1 50.82 2.42
5 5 1 51.91 2.46
-5 5 -1 51.19 2.45
5 5 1 59.86 6.39
5 5 1 53.92 2.44
-5 5 -1 53.22 2.45
7 -5 1 6.53 0.33
7 -5 1 6.33 0.81
-7 -5 -1 5.19 0.84
-7 -5 -1 6.92 0.33
-7 -5 -1 6.71 0.32
7 5 1 6.76 0.34
-7 5 -1 6.51 0.32
7 5 1 6.79 0.33
-7 5 -1 6.93 0.34
-9 -5 -1 2.26 0.12
9 -5 1 2.17 0.14
-9 -5 -1 2.19 0.13
9 -5 1 2.25 0.28
-9 -5 -1 1.88 0.32
9 5 1 2.4 0.14
-9 5 -1 2.03 0.14
-9 5 -1 2.07 0.13
9 5 1 2.09 0.13
9 5 1 2.45 0.31
-11 -5 -1 9.06 0.46
-11 -5 -1 8.32 1.2
11 -5 1 9.45 0.47
-11 -5 -1 8.79 0.47
-11 5 -1 9.04 0.46
11 5 1 9.73 0.47
11 5 1 10.59 1.2
-11 5 -1 9.93 0.48
11 5 1 9.66 0.48
-13 -5 -1 12.06 0.6
-13 -5 -1 12.08 0.59
-13 -5 -1 11.65 1.56
13 -5 1 12.49 0.61
13 5 1 12.17 0.6
13 5 1 12.93 0.61
-13 5 -1 11.93 0.6
-15 -5 -1 0.74 0.09
-15 -5 -1 0.7 0.19
-15 -5 -1 0.62 0.07
15 5 1 0.84 0.09
-17 -5 -1 0.91 0.08
-17 -5 -1 0.92 0.23
-17 -5 -1 1.07 0.11
17 5 1 0.91 0.1
-17 5 -1 0.97 0.1
19 -5 1 6.33 0.34
-19 -5 -1 6.09 0.32
-19 -5 -1 5.24 0.82
-19 5 -1 6.29 0.33
19 5 1 6.42 0.34
21 -5 1 6.81 0.38
-21 -5 -1 6.73 0.36
-21 5 -1 6.57 0.36
21 5 1 6.78 0.37
23 -5 1 0.65 0.12
-23 -5 -1 1.09 0.11
-23 5 -1 0.88 0.11
23 5 1 0.87 0.12
-25 -5 -1 0.16 0.08
25 -5 1 0.09 0.08
25 5 1 0.54 0.1
-25 5 -1 0.29 0.1
-26 6 1 4.08 0.28
26 6 -1 4.24 0.3
24 -6 -1 0.83 0.12
24 6 -1 0.77 0.13
-24 6 1 0.45 0.11
-22 -6 1 11.36 0.59
22 -6 -1 10.92 0.6
-22 -6 1 12.04 0.59
-22 6 1 10.78 0.6
22 6 -1 11.74 0.61
20 -6 -1 30.64 1.54
-20 -6 1 32.44 1.53
-20 -6 1 31.75 1.53
20 6 -1 31.78 1.54
-20 6 1 31.14 1.54
-18 -6 1 30.79 1.44
18 -6 -1 28.76 1.45
-18 -6 1 32.77 3.72
-18 6 1 28.66 1.45
18 6 -1 28.25 1.45
-16 -6 1 14.61 1.75
-16 -6 1 14.06 0.68
16 -6 -1 12.96 0.69
16 6 -1 13.64 0.7
-16 6 1 13.62 0.7
-14 -6 1 15.78 0.74
14 -6 -1 15.66 0.74
-14 -6 1 16.22 1.9
-14 -6 1 13.92 0.74
14 6 -1 14.31 0.76
-14 6 1 14.69 0.75
14 6 -1 14.81 0.76
-14 6 1 15.24 0.74
-12 -6 1 3.05 0.19
-12 -6 1 3.16 0.43
-12 -6 1 3.18 0.18
12 -6 -1 2.93 0.19
12 6 -1 3.1 0.19
12 6 -1 3.05 0.2
-12 6 1 3.4 0.19
-12 6 1 2.95 0.19
10 -6 -1 4.98 0.27
10 -6 -1 5.19 0.26
-10 -6 1 5.22 0.27
-10 -6 1 5.42 0.68
-10 6 1 5.32 0.28
-10 6 1 5.29 0.28
10 6 -1 5.44 0.29
10 6 -1 5.53 0.29
10 6 -1 3.93 0.68
8 -6 -1 39.73 1.91
-8 -6 1 39.1 4.97
8 -6 -1 39.72 1.89
-8 -6 1 41.39 1.92
8 6 -1 39.85 1.93
-8 6 1 44.58 4.95
-8 6 1 40.29 1.93
-8 6 1 39.82 1.89
8 6 -1 38.44 1.92
-6 -6 1 41.86 1.97
6 -6 -1 40.8 1.94
6 -6 -1 40.45 1.97
-6 -6 1 42.49 5.12
6 6 -1 42.11 1.98
-6 6 1 38.87 1.94
6 6 -1 40.66 1.99
-6 6 1 41.84 1.99
-6 6 1 45.03 5.11
4 -6 -1 68.05 3.22
-4 -6 1 73.44 3.22
4 -6 -1 72.11 3.16
-4 -6 1 70.49 8.36
4 -6 -1 49.81 8.35
-4 6 1 70.1 3.23
4 6 -1 70.88 3.23
4 6 -1 70.32 3.21
4 6 -1 61.67 8.37
-4 6 1 73.88 8.35
2 -6 -1 0.29 0.04
-2 -6 1 0.28 0.08
2 -6 -1 0.33 0.09
2 -6 -1 0.19 0.03
-2 -6 1 0.27 0.03
2 6 -1 0.2 0.05
2 6 -1 0.22 0.08
-2 6 1 0.21 0.04
-2 6 1 0.1 0.04
2 6 -1 0.18 0.05
0 -6 1 67.49 3.11
0 -6 -1 65.69 3.11
0 -6 1 72.66 8.09
0 -6 -1 63.26 8.1
0 6 1 65.81 3.1
0 6 -1 63.78 3.11
0 6 -1 63.29 3.12
0 6 1 65.01 3.12
-2 -6 -1 140.51 6.81
2 -6 1 155.46 17.82
-2 -6 -1 143.49 6.85
-2 -6 -1 128.72 17.84
-2 6 -1 144.73 6.82
2 6 1 164.49 17.83
2 6 1 144.99 6.86
2 6 1 147.09 6.81
-2 6 -1 146.03 6.85
-2 6 -1 138.45 6.86
-4 -6 -1 171.71 24.66
-4 -6 -1 200.12 9.41
4 -6 1 213.3 24.64
4 -6 1 198.7 9.29
-4 -6 -1 203.42 9.47
4 6 1 200.92 9.48
-4 6 -1 187.61 9.47
4 6 1 225.75 24.69
-4 6 -1 196.68 9.42
-4 6 -1 205.74 9.47
4 6 1 208.2 9.42
6 -6 1 111.7 5.08
-6 -6 -1 112.1 5.17
6 -6 1 121.44 13.44
-6 -6 -1 79.37 13.46
-6 6 -1 107.46 5.18
6 6 1 107.17 5.18
-6 6 -1 112.34 5.17
-6 6 -1 107.51 5.15
6 6 1 120.39 13.46
6 6 1 116.8 5.15
-8 -6 -1 17.88 0.85
8 -6 1 20.15 2.19
-8 -6 -1 13.04 2.22
8 -6 1 18.02 0.86
8 6 1 18.37 0.86
-8 6 -1 18.08 0.86
8 6 1 18.11 0.87
-8 6 -1 17.96 0.85
-8 6 -1 18.37 0.86
-10 -6 -1 8.78 0.48
-10 -6 -1 9.44 0.47
10 -6 1 10.44 1.2
-10 -6 -1 8.85 1.25
10 -6 1 10.27 0.49
10 6 1 9.53 0.49
10 6 1 9.64 0.48
-10 6 -1 9.84 0.49
10 6 1 10.56 1.24
-10 6 -1 9.58 0.48
12 -6 1 13.96 0.66
-12 -6 -1 12.08 1.68
-12 -6 -1 13.46 0.64
-12 -6 -1 12.88 0.65
12 6 1 13.27 0.66
12 6 1 13.7 0.65
-14 -6 -1 18.75 0.9
-14 -6 -1 17.85 2.36
-14 -6 -1 19.07 0.9
14 6 1 19.02 0.91
-16 -6 -1 9.03 0.46
-16 -6 -1 8.46 1.19
-16 -6 -1 9.15 0.47
16 6 1 9.46 0.47
-16 6 -1 9.4 0.47
-18 -6 -1 4.19 0.24
-18 -6 -1 3.93 0.61
18 6 1 4.51 0.26
-18 6 -1 4.72 0.26
20 -6 1 0.66 0.1
-20 -6 -1 0.62 0.08
-20 6 -1 0.56 0.09
20 6 1 0.82 0.11
22 -6 1 0.81 0.11
-22 -6 -1 0.5 0.08
22 6 1 0.49 0.1
-22 6 -1 0.33 0.09
-24 -6 -1 2.35 0.18
24 -6 1 2.4 0.21
24 6 1 2.74 0.21
-24 6 -1 2.4 0.19
-26 -6 -1 13.91 0.71
-26 6 -1 13.76 0.72
25 7 -1 1.34 0.17
-25 7 1 1.66 0.18
23 -7 -1 4.32 0.29
-23 7 1 4.32 0.29
23 7 -1 4.68 0.3
21 -7 -1 1.81 0.17
21 7 -1 1.94 0.18
-21 7 1 2.16 0.18
-19 -7 1 0.03 0.07
19 -7 -1 -0.03 0.07
-19 7 1 -0.24 0.07
19 7 -1 0.13 0.08
17 -7 -1 2.14 0.17
-17 -7 1 2.07 0.15
17 7 -1 2.03 0.17
-17 7 1 1.93 0.17
-15 -7 1 6.04 0.76
-15 -7 1 5.69 0.31
15 7 -1 5.28 0.32
-15 7 1 5.52 0.32
-13 -7 1 8.41 0.44
13 -7 -1 8.87 0.44
-13 -7 1 9.1 0.43
-13 -7 1 9.63 1.1
-13 7 1 8.22 0.44
13 7 -1 7.94 0.45
-13 7 1 7.86 0.45
13 7 -1 7.76 0.45
11 -7 -1 12.69 0.64
-11 -7 1 14.05 1.64
-11 -7 1 13.75 0.64
11 7 -1 12.88 0.66
-11 7 1 12.34 0.64
11 7 -1 12.91 0.65
-11 7 1 11.9 0.65
-9 -7 1 11.96 0.59
9 -7 -1 11.89 0.59
9 -7 -1 12.15 0.58
-9 -7 1 12.76 1.51
9 7 -1 11.76 0.6
-9 7 1 11.66 0.59
-9 7 1 11.48 0.6
-9 7 1 11.61 1.47
9 7 -1 11.97 0.6
-7 -7 1 0.2 0.04
7 -7 -1 0.2 0.05
7 -7 -1 0.15 0.04
-7 -7 1 0.16 0.08
-7 7 1 0.17 0.06
7 7 -1 0.06 0.05
-7 7 1 0.19 0.06
7 7 -1 0.04 0.05
7 7 -1 0.17 0.1
-5 -7 1 0.21 0.04
-5 -7 1 0.34 0.09
5 -7 -1 0.3 0.04
5 -7 -1 0.26 0.05
5 7 -1 0.23 0.05
5 7 -1 0.19 0.05
5 7 -1 0.2 0.1
-5 7 1 0.22 0.06
-3 -7 1 39.35 4.72
3 -7 -1 38.39 1.81
3 -7 -1 40.53 1.79
-3 -7 1 41.64 1.82
3 -7 -1 32.63 4.71
-3 7 1 38.69 1.83
3 7 -1 38.91 1.82
3 7 -1 34 4.72
-3 7 1 38.63 1.81
3 7 -1 39.84 1.83
1 -7 -1 33.61 4.61
1 -7 -1 37.88 1.77
1 -7 -1 37.25 1.75
-1 -7 1 38.83 1.77
-1 -7 1 40.07 4.61
1 7 -1 36.67 1.79
-1 7 1 38 1.79
1 7 -1 39.17 1.78
1 7 -1 32.33 4.61
-1 7 1 37.65 1.77
-1 7 1 39.87 4.61
-1 -7 -1 0.23 0.09
-1 -7 -1 0.26 0.04
1 -7 1 0.25 0.08
1 7 1 0.3 0.05
-1 7 -1 0.16 0.08
1 7 1 0.54 0.1
1 7 1 0.25 0.05
-1 7 -1 0.14 0.05
-1 7 -1 0.21 0.05
3 -7 1 4.88 0.26
-3 -7 -1 4.75 0.25
-3 -7 -1 3.98 0.64
3 -7 1 5.37 0.62
-3 7 -1 4.91 0.26
-3 7 -1 4.8 0.26
3 7 1 4.61 0.26
3 7 1 5.2 0.63
3 7 1 5.09 0.25
-5 -7 -1 3.13 0.51
-5 -7 -1 3.93 0.19
5 -7 1 3.4 0.21
5 -7 1 3.87 0.47
-5 7 -1 3.56 0.21
5 7 1 3.8 0.2
5 7 1 4.03 0.5
-5 7 -1 3.75 0.21
5 7 1 3.46 0.21
-5 7 -1 3.66 0.19
-7 -7 -1 7.8 1.34
-7 -7 -1 10.72 0.51
7 -7 1 10.89 0.53
7 -7 1 11.15 1.31
-7 7 -1 9.9 0.53
-7 7 -1 10.76 0.53
7 7 1 11.82 1.34
7 7 1 11.22 0.54
-7 7 -1 10.61 0.52
7 7 1 10.35 0.52
-9 -7 -1 14.09 2.22
-9 -7 -1 17.82 0.85
9 -7 1 17.39 0.86
9 -7 1 19.09 2.18
9 7 1 18.12 0.87
-9 7 -1 18.28 0.85
9 7 1 18.92 0.86
11 -7 1 15.53 0.75
-11 -7 -1 14.29 0.74
11 -7 1 15.71 1.87
-11 -7 -1 13.47 1.92
-11 -7 -1 15.34 0.74
-11 7 -1 15.52 0.75
11 7 1 15.8 0.76
11 7 1 15.75 0.75
-13 -7 -1 5.5 0.26
-13 -7 -1 4.39 0.69
-13 -7 -1 5.35 0.28
-13 7 -1 4.81 0.27
13 7 1 5.04 0.28
-15 -7 -1 0.05 0.12
-15 -7 -1 0.11 0.06
-15 -7 -1 0.09 0.04
15 7 1 0.17 0.06
-15 7 -1 0.1 0.06
-17 -7 -1 1.55 0.11
-17 7 -1 1.45 0.13
17 7 1 1.2 0.12
-19 -7 -1 10.33 0.54
19 7 1 11.09 0.56
-19 7 -1 10.8 0.56
21 -7 1 1.47 0.15
-21 -7 -1 1.62 0.13
-21 7 -1 1.65 0.15
21 7 1 1.87 0.16
23 -7 1 1.55 0.15
-23 -7 -1 1.21 0.12
-23 7 -1 1.12 0.13
-25 -7 -1 2.29 0.18
-25 7 -1 2.03 0.19
24 8 -1 0.38 0.11
-24 8 1 0.71 0.13
22 -8 -1 3.98 0.26
22 8 -1 3.97 0.27
-22 8 1 3.49 0.26
20 -8 -1 10.24 0.54
-20 8 1 9.98 0.54
20 8 -1 9.5 0.54
18 -8 -1 6.13 0.36
18 8 -1 7 0.37
-18 8 1 6.38 0.37
16 8 -1 5.52 0.32
-16 8 1 5.24 0.32
-14 -8 1 12.25 1.48
-14 -8 1 11.52 0.58
-14 8 1 11.53 0.6
14 8 -1 11.15 0.6
14 8 -1 11.21 0.59
-12 -8 1 3.29 0.18
12 -8 -1 2.65 0.19
-12 -8 1 3.38 0.45
-12 8 1 2.78 0.2
12 8 -1 2.86 0.2
12 8 -1 3.28 0.21
-12 8 1 3.28 0.21
-10 -8 1 6.83 0.85
10 -8 -1 6.47 0.34
-10 -8 1 6.98 0.33
10 8 -1 6.3 0.35
-10 8 1 6.75 0.35
-10 8 1 5.32 0.8
10 8 -1 6.44 0.35
-10 8 1 6.52 0.34
8 -8 -1 12.53 0.63
-8 -8 1 13.18 0.63
-8 -8 1 13.48 1.61
8 8 -1 12.79 0.65
-8 8 1 12.27 0.64
-8 8 1 12.34 1.58
8 8 -1 12.72 0.64
6 -8 -1 33.15 1.57
-6 -8 1 35.53 4.12
6 -8 -1 31.84 1.58
-6 -8 1 34.48 1.59
6 8 -1 33.79 1.6
6 8 -1 33.48 1.61
-6 8 1 30.89 1.6
4 -8 -1 9.1 1.46
4 -8 -1 11.96 0.57
-4 -8 1 12.31 0.57
4 -8 -1 11.92 0.57
-4 -8 1 12.4 1.47
-4 8 1 11.25 0.59
4 8 -1 12.18 0.59
4 8 -1 10.35 1.48
4 8 -1 11.71 0.59
-4 8 1 13.52 1.46
2 -8 -1 8.03 0.4
-2 -8 1 8.22 0.4
2 -8 -1 7.76 0.4
2 -8 -1 6.67 1.02
-2 -8 1 8.56 1.03
2 8 -1 7.42 1.04
-2 8 1 9.28 1.02
2 8 -1 7.97 0.42
-2 8 1 8.36 0.41
2 8 -1 8.03 0.42
-2 8 1 8.17 0.42
0 -8 -1 1.9 0.3
0 -8 1 2.17 0.12
0 -8 -1 2.19 0.12
0 -8 1 1.93 0.29
0 8 -1 1.52 0.29
0 8 1 1.91 0.13
0 8 -1 2.05 0.14
0 8 1 2 0.14
0 8 1 2.24 0.29
0 8 -1 2.22 0.14
-2 -8 -1 79.1 3.68
-2 -8 -1 71.47 9.59
2 -8 1 85.04 9.57
-2 8 -1 58.38 9.57
2 8 1 80.03 3.7
2 8 1 92.86 9.58
2 8 1 79.22 3.67
-2 8 -1 77.46 3.68
-2 8 -1 77.65 3.69
-4 -8 -1 111.75 15.64
4 -8 1 129.17 5.91
-4 -8 -1 127.8 6.01
4 -8 1 136.4 15.62
4 8 1 147.87 15.64
4 8 1 123.8 5.98
-4 8 -1 119.92 6.02
-4 8 -1 122.15 5.99
4 8 1 127.44 6.03
6 -8 1 83.97 3.97
6 -8 1 94.38 10.46
-6 -8 -1 85.61 4.03
6 8 1 83.28 4.01
6 8 1 84.4 4.05
-6 8 -1 82.79 4.02
-6 8 -1 82.23 4.04
-8 -8 -1 7.37 0.38
-8 -8 -1 6.28 0.99
8 -8 1 6.95 0.39
8 -8 1 8.73 0.95
-8 8 -1 7.86 0.39
8 8 1 8.09 0.4
8 8 1 7.62 0.39
-10 -8 -1 7.78 1.12
10 -8 1 8.95 1.06
-10 -8 -1 8.12 0.42
-10 8 -1 8.76 0.44
10 8 1 9.12 0.45
10 8 1 8.53 0.44
-12 -8 -1 11.41 0.58
-12 -8 -1 12.06 0.57
-12 -8 -1 10.1 1.48
12 8 1 11.98 0.58
-12 8 -1 11.97 0.58
-14 -8 -1 2.69 0.18
-14 -8 -1 2.63 0.16
14 8 1 2.52 0.17
-14 8 -1 2.77 0.18
-16 -8 -1 5.98 0.32
16 8 1 5.87 0.33
-16 8 -1 6.14 0.33
-18 -8 -1 0.18 0.06
18 8 1 0.12 0.07
-18 8 -1 0.12 0.07
-20 -8 -1 0.13 0.06
-20 8 -1 0.23 0.09
-22 -8 -1 2.85 0.19
22 -8 1 3.41 0.23
-22 8 -1 3.14 0.22
-24 -8 -1 10.03 0.51
-24 8 -1 9.15 0.52
23 9 -1 18.55 0.94
-23 9 1 17.87 0.94
21 -9 -1 8.57 0.47
-21 9 1 8.08 0.47
21 9 -1 8.04 0.46
19 -9 -1 0.32 0.09
19 9 -1 0.46 0.1
-19 9 1 0.42 0.11
17 9 -1 2.36 0.19
-17 9 1 2.36 0.19
15 9 -1 9.29 0.52
-15 9 1 10.19 0.52
-13 9 1 31.76 1.51
13 9 -1 29.98 1.51
13 9 -1 31.07 1.5
-11 -9 1 53.9 6.28
11 9 -1 50.62 2.44
11 9 -1 51.01 2.43
-11 9 1 47.64 2.44
-9 -9 1 1.4 0.23
9 -9 -1 1.29 0.12
9 9 -1 1.24 0.12
-9 9 1 1.11 0.12
9 9 -1 1.26 0.13
-7 -9 1 12.98 1.48
7 -9 -1 11.94 0.58
7 9 -1 11.06 0.59
7 9 -1 10.96 0.59
-7 9 1 11.11 0.59
5 -9 -1 42.13 1.93
5 -9 -1 29.01 5.04
-5 -9 1 46.67 5.06
5 9 -1 41.12 1.96
-5 9 1 44.94 5.04
5 9 -1 41.82 1.97
-5 9 1 40.96 1.97
-3 -9 1 53.02 6
3 -9 -1 39.68 5.99
3 -9 -1 48.47 2.28
3 9 -1 47.91 2.33
-3 9 1 48.37 2.33
-3 9 1 54.29 5.99
3 9 -1 49.47 2.32
-3 9 1 47.77 2.3
1 -9 -1 74.58 3.48
-1 -9 1 82.04 9.04
1 -9 -1 74.52 3.42
1 -9 -1 65.48 9.05
1 9 -1 63.85 9.05
-1 9 1 71.56 3.5
-1 9 1 83.84 9.04
-1 9 1 73.36 3.47
1 9 -1 72.89 3.48
1 9 -1 73.12 3.5
-1 -9 -1 51.66 6.98
1 -9 1 62.91 6.96
-1 -9 -1 55.97 2.68
1 9 1 58.63 2.67
-1 9 -1 58.41 2.69
1 9 1 54.75 2.7
1 9 1 65.79 6.97
-1 9 -1 56.13 2.7
-1 9 -1 44.77 6.96
3 -9 1 31.24 1.46
3 -9 1 37.06 3.8
-3 -9 -1 31.87 1.47
-3 -9 -1 28.99 3.82
-3 9 -1 21.78 3.79
3 9 1 31.06 1.49
3 9 1 31.83 1.47
-3 9 -1 31.37 1.48
-3 9 -1 31.58 1.48
-5 -9 -1 0.58 0.06
-5 -9 -1 0.5 0.15
5 -9 1 0.55 0.12
5 -9 1 0.48 0.08
-5 9 -1 0.5 0.08
-5 9 -1 0.45 0.07
5 9 1 0.46 0.07
5 9 1 0.33 0.08
7 -9 1 35.69 3.86
-7 -9 -1 26.54 3.9
-7 -9 -1 30.81 1.49
-7 9 -1 32.09 1.51
7 9 1 31.74 1.52
7 9 1 32.34 1.5
-7 9 -1 30 1.51
-9 -9 -1 38.27 5.24
-9 -9 -1 42.61 2.01
9 9 1 44.14 2.01
9 9 1 44.21 2.04
-9 9 -1 42.11 2.03
-11 -9 -1 19.82 0.94
-11 -9 -1 17.05 2.45
-11 -9 -1 20.25 0.94
11 9 1 20.73 0.95
-11 9 -1 19.2 0.96
-13 -9 -1 3.27 0.19
-13 9 -1 3.36 0.21
13 9 1 3.35 0.21
-15 -9 -1 1.16 0.1
15 9 1 1.12 0.12
-15 9 -1 1.31 0.12
-17 -9 -1 7.44 0.38
-17 9 -1 7.16 0.4
-19 -9 -1 22.66 1.12
-19 9 -1 23.33 1.14
-21 9 -1 22.68 1.13
-23 9 -1 11.83 0.63
20 -10 -1 5.65 0.34
-20 10 1 5.68 0.36
20 10 -1 5.94 0.36
-18 10 1 6.83 0.41
18 10 -1 7.32 0.41
-16 10 1 5.22 0.32
16 10 -1 5.28 0.32
14 10 -1 4.47 0.29
-14 10 1 5.08 0.3
12 10 -1 0.04 0.08
-12 10 1 0.09 0.08
12 10 -1 0.14 0.08
10 10 -1 1.05 0.12
10 10 -1 0.96 0.12
-10 10 1 0.66 0.11
-8 -10 1 1.64 0.28
-8 10 1 1.57 0.14
8 10 -1 1.5 0.14
8 10 -1 1.47 0.14
6 -10 -1 20.92 1
-6 -10 1 22.05 2.6
6 10 -1 21.15 1.02
-6 10 1 20.07 1.03
-6 10 1 20.23 2.57
6 10 -1 19.98 1.03
-4 -10 1 17.63 1.94
4 -10 -1 16.02 0.75
4 -10 -1 11.52 1.92
-4 10 1 16.67 1.92
-4 10 1 15.31 0.77
4 10 -1 14.62 0.77
4 10 -1 15.84 0.77
-2 -10 1 0.58 0.15
2 -10 -1 0.39 0.13
2 -10 -1 0.55 0.08
-2 10 1 0.45 0.08
-2 10 1 0.52 0.13
2 10 -1 0.43 0.08
-2 10 1 0.46 0.07
2 10 -1 0.45 0.08
0 -10 -1 8.25 1.2
0 -10 1 10.72 1.19
0 10 1 9.81 0.47
0 10 -1 8.85 0.48
0 10 1 9.18 0.49
0 10 -1 8.92 0.48
2 -10 1 55.56 5.82
-2 -10 -1 44.19 5.84
-2 10 -1 47.23 2.25
-2 10 -1 36.01 5.82
-2 10 -1 48.71 2.26
2 10 1 50.42 2.24
2 10 1 48.32 2.27
4 -10 1 31.83 3.47
-4 -10 -1 24.57 3.49
4 10 1 28.01 1.37
-4 10 -1 27.4 1.35
4 10 1 28.01 1.34
-4 10 -1 28 1.36
-6 -10 -1 9.5 0.47
6 -10 1 10.8 1.2
-6 -10 -1 8.07 1.23
6 10 1 9.53 0.48
-6 10 -1 9.09 0.49
6 10 1 9.26 0.5
-6 10 -1 10.04 0.5
-8 -10 -1 1.38 0.29
-8 -10 -1 1.63 0.11
8 10 1 1.35 0.14
-8 10 -1 1.63 0.13
8 10 1 1.61 0.13
-10 -10 -1 8.26 0.41
-10 10 -1 7.62 0.43
10 10 1 8.45 0.43
-12 -10 -1 5.46 0.28
-12 10 -1 4.97 0.3
12 10 1 5.44 0.3
-14 10 -1 13.36 0.68
-16 10 -1 1.61 0.15
-18 10 -1 0.81 0.12
-20 10 -1 -0.05 0.09
19 -11 -1 0.85 0.12
19 11 -1 0.86 0.13
-19 11 1 0.78 0.14
-17 11 1 13.12 0.71
17 11 -1 13.86 0.71
-15 11 1 16.1 0.85
15 11 -1 17.33 0.86
13 11 -1 40.77 1.98
-13 11 1 41.38 2
11 11 -1 11.46 0.58
11 11 -1 10.66 0.57
-11 11 1 10.03 0.57
9 11 -1 0.85 0.12
9 11 -1 0.93 0.12
-9 11 1 0.9 0.12
-7 11 1 0.28 0.09
7 11 -1 0.17 0.08
7 11 -1 0.39 0.09
5 -11 -1 3.1 0.55
-5 -11 1 4.86 0.58
-5 11 1 4.17 0.26
5 11 -1 4.64 0.26
5 11 -1 4.09 0.26
-3 -11 1 5 0.6
3 -11 -1 4.51 0.26
3 -11 -1 3.53 0.58
3 11 -1 4.53 0.26
3 11 -1 4.22 0.26
-3 11 1 4.14 0.27
-3 11 1 4.33 0.25
1 -11 -1 4.61 0.73
-1 -11 1 6.03 0.73
1 -11 -1 5.26 0.3
-1 11 1 5.67 0.3
1 11 -1 5.62 0.32
-1 11 1 5.69 0.32
1 11 -1 5.49 0.31
1 -11 1 7.94 0.95
-1 -11 -1 6.14 0.96
-1 11 -1 7.33 0.4
-1 11 -1 7.16 0.4
1 11 1 7.78 0.38
1 11 1 7.36 0.4
-3 -11 -1 1.96 0.35
3 -11 1 2.39 0.33
-3 11 -1 2.23 0.17
3 11 1 2.15 0.18
-3 11 -1 2.16 0.17
3 11 1 2.31 0.15
-5 -11 -1 0.54 0.18
5 -11 1 0.64 0.14
5 11 1 0.54 0.08
5 11 1 0.49 0.09
-5 11 -1 0.56 0.09
-5 11 -1 0.22 0.08
-7 11 -1 8.24 0.45
-7 11 -1 8.83 0.46
7 11 1 8.26 0.44
9 11 1 55.65 2.58
-9 11 -1 52.8 2.6
-11 11 -1 21.71 1.08
-13 11 -1 30.31 1.48
-15 11 -1 4.65 0.29
-17 11 -1 5.77 0.34
-19 11 -1 11.14 0.6
-16 12 1 1.06 0.15
16 12 -1 1.08 0.14
14 12 -1 10.65 0.56
-14 12 1 9.77 0.56
-12 12 1 0.41 0.11
12 12 -1 0.37 0.11
10 12 -1 0.16 0.09
-10 12 1 0.31 0.1
10 12 -1 0.56 0.11
-8 12 1 8.54 0.46
8 12 -1 8.25 0.46
8 12 -1 8.17 0.46
-6 12 1 6.36 0.39
6 12 -1 7.06 0.38
6 12 -1 6.93 0.39
-4 12 1 5.44 0.33
4 12 -1 6.04 0.33
4 12 -1 5.44 0.33
-2 -12 1 0.5 0.15
2 -12 -1 0.35 0.15
-2 12 1 0.39 0.08
-2 12 1 0.27 0.08
2 12 -1 0.41 0.09
2 12 -1 0.35 0.09
0 -12 -1 0.49 0.17
0 -12 1 0.63 0.16
0 12 1 0.53 0.09
0 12 1 0.41 0.1
0 12 -1 0.48 0.1
0 12 -1 0.65 0.1
-2 -12 -1 3.85 0.63
2 -12 1 4.64 0.61
-2 12 -1 4.87 0.28
2 12 1 4.19 0.26
-2 12 -1 4.76 0.28
2 12 1 4.64 0.28
4 12 1 4.93 0.3
-4 12 -1 4.6 0.29
-4 12 -1 5.26 0.3
4 12 1 4.6 0.27
6 12 1 6.04 0.33
-6 12 -1 6.2 0.35
-6 12 -1 6.1 0.35
-8 12 -1 0.75 0.11
-10 12 -1 3.67 0.25
-12 12 -1 0.18 0.09
-14 12 -1 0 0.09
-16 12 -1 3.52 0.24
-15 13 1 11.27 0.62
-13 13 1 9.6 0.56
13 13 -1 10.71 0.56
11 13 -1 11.79 0.62
-11 13 1 11.26 0.62
-9 13 1 2.91 0.23
9 13 -1 2.57 0.21
7 13 -1 0.41 0.09
-7 13 1 0.45 0.11
7 13 -1 0.62 0.12
5 13 -1 2.53 0.23
-5 13 1 3.32 0.24
5 13 -1 3.42 0.22
3 13 -1 20.39 1.02
3 13 -1 20.05 1.01
-3 13 1 20.13 1.02
1 -13 -1 23.8 3.62
1 13 -1 30.36 1.43
-1 13 1 31.17 1.44
-1 13 1 30.01 1.41
1 13 -1 30.37 1.42
1 -13 1 14.28 1.77
1 13 1 13.65 0.7
-1 13 -1 13.37 0.72
-1 13 -1 14.22 0.72
1 13 1 13.8 0.72
-3 13 -1 1.91 0.17
-3 13 -1 1.8 0.17
3 13 1 1.84 0.16
-5 13 -1 1.19 0.14
-5 13 -1 0.94 0.12
-7 13 -1 9.44 0.52
-7 13 -1 9.75 0.52
-9 13 -1 18.43 0.94
-11 13 -1 28.08 1.39
-13 13 -1 5.21 0.33
-15 13 -1 0.22 0.11
10 14 -1 3.03 0.23
-10 14 1 2.26 0.22
-8 14 1 4.6 0.32
8 14 -1 5.1 0.31
-6 14 1 14.44 0.77
6 14 -1 14.51 0.77
6 14 -1 15.21 0.76
-4 14 1 10.53 0.58
4 14 -1 10.56 0.58
4 14 -1 10.91 0.57
-2 14 1 1.96 0.19
-2 14 1 2.01 0.17
2 14 -1 1.91 0.19
2 14 -1 2.12 0.18
0 14 1 3.54 0.26
0 14 -1 3.83 0.25
0 14 -1 3.18 0.26
-2 14 -1 11.14 0.59
-2 14 -1 10.63 0.58
-4 14 -1 10.3 0.54
-4 14 -1 9.64 0.54
-6 14 -1 14.64 0.78
-6 14 -1 15.63 0.79
-8 14 -1 8.06 0.46
-10 14 -1 0.92 0.14
5 15 -1 2.03 0.19
5 15 -1 1.78 0.19
-5 15 1 1.58 0.18
3 15 -1 6.7 0.41
3 15 -1 7.01 0.4
1 15 -1 11.41 0.6
1 15 -1 10.98 0.61
-1 15 -1 11 0.62
-1 15 -1 12.09 0.62
-3 15 -1 5.18 0.33
-3 15 -1 5.65 0.35
-5 15 -1 0.15 0.1
-5 15 -1 0.09 0.1
-28 0 2 1.08 0.14
26 0 -2 8.65 0.5
-26 0 2 9.21 0.49
-24 0 2 10.98 0.58
24 0 -2 10.97 0.59
-22 0 2 15.88 0.79
22 0 -2 15.68 0.81
20 0 -2 2.23 0.18
-20 0 2 1.88 0.16
-20 0 2 2.44 0.33
-18 0 2 10.59 0.52
18 0 -2 9.51 0.52
16 0 -2 49 2.41
-16 0 2 49.95 2.38
-16 0 2 50.8 2.42
16 0 -2 50.55 2.38
-16 0 2 52.36 6.23
16 0 -2 51.15 2.42
-14 0 2 45.49 2.17
14 0 -2 46.92 2.14
14 0 -2 44.43 2.17
-14 0 2 46.53 5.61
14 0 -2 46.56 2.18
-14 0 2 43.62 2.14
12 0 -2 129.76 5.87
-12 0 2 129.36 5.87
12 0 -2 129.24 5.99
12 0 -2 125.08 5.95
-12 0 2 122.78 15.53
-12 0 2 123.73 5.98
-10 0 2 27.67 3.87
10 0 -2 31.6 1.5
-10 0 2 30.9 1.47
10 0 -2 33.28 1.48
-10 0 2 32.74 1.5
10 0 -2 32.25 1.5
8 0 -2 39.52 1.81
8 0 -2 41.52 1.83
-8 0 2 30.98 4.76
8 0 -2 40.31 1.84
-8 0 2 39.76 1.84
-8 0 2 40.15 1.81
6 0 -2 38.76 1.93
-6 0 2 40.56 1.93
6 0 -2 41.19 1.89
-6 0 2 41.94 1.92
-6 0 2 41.79 1.89
6 0 -2 39.37 1.92
-4 0 2 1000 45.79
4 0 -2 947.04 46.06
-4 0 2 984.45 45.14
4 0 -2 983.5 45.79
-4 0 2 976.73 46.05
2 0 -2 179.87 8.35
-2 0 2 174.17 8.3
2 0 -2 175.58 8.31
-2 0 2 179.76 8.35
0 0 -2 61 2.77
0 0 -2 55.5 2.77
0 0 2 60 2.75
0 0 -2 58.52 2.75
-2 0 -2 26.5 1.24
2 0 2 26.21 1.22
2 0 2 26.3 1.24
4 0 2 102.18 4.89
4 0 2 107.57 4.83
-4 0 -2 100.01 4.89
-4 0 -2 108.14 4.83
-6 0 -2 81.41 3.75
6 0 2 83.05 3.75
6 0 2 78.71 3.8
8 0 2 146.78 23.37
-8 0 -2 204.98 8.81
8 0 2 205.77 8.81
-8 0 -2 205.58 8.98
-10 0 -2 136.45 6.34
10 0 2 116.18 16.53
10 0 2 139.19 6.24
-10 0 -2 143.12 6.35
-10 0 -2 139.15 6.24
12 0 2 6.48 0.31
-12 0 -2 5.9 0.29
12 0 2 5.76 0.31
-12 0 -2 6.33 0.31
12 0 2 5.62 0.77
-12 0 -2 6.13 0.31
14 0 2 0.19 0.05
-14 0 -2 0.12 0.05
14 0 2 0.14 0.07
14 0 2 0.16 0.05
-14 0 -2 0.21 0.05
16 0 2 57.42 2.72
16 0 2 59.83 7.16
-16 0 -2 56.71 2.72
16 0 2 58.83 2.76
-18 0 -2 28.67 1.41
-18 0 -2 28.49 1.41
18 0 2 29.45 1.43
18 0 2 31.75 3.66
-20 0 -2 0.28 0.06
20 0 2 0.29 0.07
-22 0 -2 44.14 2.13
-22 0 -2 43.84 2.13
22 0 2 45.76 2.14
-24 0 -2 8.73 0.47
-24 0 -2 8.87 0.48
24 0 2 10.17 0.5
26 0 2 0.44 0.1
-26 0 -2 0.45 0.09
28 0 2 10.01 0.55
27 -1 -2 5.04 0.33
-27 -1 2 5.19 0.32
-27 1 2 5.17 0.33
27 1 -2 5.72 0.35
-25 -1 2 0.02 0.07
25 -1 -2 -0.01 0.08
25 1 -2 0.2 0.1
-25 1 2 0.17 0.09
-23 -1 2 0.06 0.08
23 -1 -2 0.15 0.08
-23 1 2 0.08 0.08
23 1 -2 0.06 0.08
-21 -1 2 3.18 0.43
21 -1 -2 3.23 0.21
-21 -1 2 3.18 0.2
-21 1 2 2.78 0.2
21 1 -2 3.1 0.22
19 -1 -2 4.55 0.29
-19 -1 2 5.23 0.28
-19 -1 2 4.82 0.65
19 1 -2 5.33 0.3
-19 1 2 5.19 0.28
-17 -1 2 -0.07 0.05
-17 -1 2 0.09 0.08
17 -1 -2 0.05 0.05
17 -1 -2 0.07 0.06
-17 -1 2 0.03 0.05
-17 1 2 -0.02 0.05
-17 1 2 0.09 0.07
17 1 -2 0.04 0.05
-17 1 2 -0.04 0.05
17 1 -2 -0.01 0.05
15 -1 -2 17.16 0.83
-15 -1 2 16.49 0.83
15 -1 -2 17.26 0.84
15 -1 -2 17.21 0.84
-15 -1 2 16.95 0.83
-15 -1 2 16.75 2.12
15 1 -2 17.44 0.84
15 1 -2 17.35 0.84
-15 1 2 17.03 0.84
15 1 -2 16.69 0.83
-15 1 2 16.66 0.83
-15 1 2 17.59 2.11
-13 -1 2 1.33 0.2
13 -1 -2 1.34 0.11
13 -1 -2 1.41 0.11
-13 -1 2 1.18 0.1
13 -1 -2 1.49 0.12
-13 -1 2 1.34 0.1
13 1 -2 1.42 0.11
13 1 -2 1.36 0.12
-13 1 2 1.53 0.11
-13 1 2 1.23 0.19
13 1 -2 1.35 0.11
-13 1 2 1.29 0.1
-11 -1 2 5.84 0.3
-11 -1 2 5.39 0.72
11 -1 -2 5.48 0.3
11 -1 -2 5.76 0.29
-11 -1 2 5.65 0.29
11 -1 -2 5.84 0.3
-11 1 2 5.71 0.3
-11 1 2 4.6 0.71
-11 1 2 5.84 0.29
11 1 -2 5.91 0.3
11 1 -2 6.21 0.3
11 1 -2 5.83 0.3
9 -1 -2 5.55 0.27
9 -1 -2 5.29 0.27
-9 -1 2 5.55 0.27
9 -1 -2 5.25 0.27
-9 -1 2 4.64 0.67
-9 -1 2 5.15 0.27
9 1 -2 5.09 0.27
9 1 -2 5.03 0.27
-9 1 2 5.2 0.27
-9 1 2 5.26 0.27
-7 -1 2 7.95 0.36
-7 -1 2 5.94 0.92
7 -1 -2 7.48 0.36
-7 -1 2 7.35 0.36
7 -1 -2 7.46 0.37
7 -1 -2 7.11 0.37
-7 1 2 7.58 0.36
7 1 -2 7.96 0.37
7 1 -2 6.92 0.37
-7 1 2 7.73 0.37
5 -1 -2 3.86 0.19
-5 -1 2 3.77 0.19
5 -1 -2 3.98 0.19
5 -1 -2 3.36 0.19
-5 -1 2 3.49 0.19
-5 -1 2 3.91 0.2
-5 1 2 3.72 0.19
-5 1 2 3.52 0.19
5 1 -2 3.61 0.19
-5 1 2 3.68 0.19
5 1 -2 3.78 0.2
3 -1 -2 69.48 3.38
-3 -1 2 72.56 3.39
3 -1 -2 68.49 3.4
-3 -1 2 69.66 3.4
3 -1 -2 71.42 3.33
3 1 -2 76.75 3.4
-3 1 2 76.27 3.4
3 1 -2 73.04 3.39
3 1 -2 68.9 3.4
-3 1 2 72.16 3.38
-3 1 2 74.55 3.33
-1 -1 2 29.1 1.36
1 -1 -2 27.85 1.37
1 -1 -2 29.43 1.36
1 -1 -2 27.33 1.37
-1 1 2 27.79 1.37
-1 1 2 29.68 1.36
1 1 -2 30.15 1.36
1 1 -2 28.03 1.36
-1 1 2 30.16 1.33
-1 -1 -2 39.31 1.83
-1 -1 -2 38.02 1.81
1 -1 2 39.47 1.82
1 1 2 38.55 1.79
-1 1 -2 38.42 1.82
1 1 2 38.51 1.81
-3 -1 -2 33.29 1.62
3 -1 2 34.63 1.6
-3 -1 -2 35.14 1.59
3 -1 2 33.87 1.62
-3 -1 -2 34.06 1.62
-3 1 -2 34.78 1.62
3 1 2 34.29 1.61
-3 1 -2 34.62 1.6
3 1 2 34.6 1.59
-5 -1 -2 23.01 1.13
5 -1 2 23.34 1.12
-5 -1 -2 24.82 1.12
5 -1 2 23.53 1.13
-5 1 -2 24.64 1.13
-5 1 -2 24.27 1.12
5 1 2 24.58 1.12
5 1 2 23.35 1.13
7 -1 2 14.67 0.69
7 -1 2 15.17 0.68
-7 -1 -2 15.22 0.69
-7 -1 -2 14.27 0.68
7 1 2 15.08 0.68
7 1 2 10.57 1.78
-7 1 -2 14.99 0.69
7 1 2 15.09 0.68
-9 -1 -2 45.05 2.11
9 -1 2 43.98 2.08
-9 1 -2 45.18 2.08
-9 1 -2 45.41 2.1
9 1 2 46.37 2.1
-9 1 -2 44.94 2.1
9 1 2 45.79 2.08
9 1 2 39.76 5.48
11 -1 2 0.62 0.07
-11 -1 -2 0.68 0.07
-11 -1 -2 0.68 0.06
11 -1 2 0.62 0.12
-11 1 -2 0.66 0.05
11 1 2 0.71 0.13
-11 1 -2 0.59 0.07
11 1 2 0.75 0.07
-11 1 -2 0.69 0.06
11 1 2 0.66 0.06
13 -1 2 4.14 0.22
-13 -1 -2 3.98 0.22
13 -1 2 4.16 0.22
13 -1 2 3.61 0.51
-13 -1 -2 3.89 0.22
-13 1 -2 3.97 0.2
-13 1 -2 3.7 0.21
-13 1 -2 3.71 0.22
13 1 2 3.83 0.22
13 1 2 4.17 0.52
13 1 2 3.95 0.21
15 -1 2 9.59 0.49
-15 -1 -2 10.15 0.5
-15 -1 -2 9.26 0.49
15 -1 2 9.95 1.23
15 -1 2 10.04 0.5
-15 1 -2 9.9 0.49
15 1 2 9.78 0.49
15 1 2 9.68 0.49
15 1 2 10.52 1.24
-15 1 -2 9.32 0.49
17 -1 2 0.25 0.09
-17 -1 -2 0.2 0.06
17 -1 2 0.27 0.07
-17 -1 -2 0.14 0.04
17 -1 2 0.19 0.06
17 1 2 0.31 0.07
17 1 2 0.29 0.1
17 1 2 0.24 0.06
-17 1 -2 0.23 0.06
-19 -1 -2 5.46 0.3
19 -1 2 5.77 0.32
19 1 2 6.16 0.32
19 1 2 5.89 0.75
-19 1 -2 5.7 0.3
21 -1 2 3.04 0.2
-21 -1 -2 2.96 0.18
-21 1 -2 3.08 0.18
21 1 2 2.69 0.19
-21 1 -2 3.03 0.18
-23 -1 -2 3.76 0.23
23 -1 2 3.8 0.25
-23 1 -2 4.39 0.23
-23 1 -2 4.07 0.23
23 1 2 4.01 0.25
-25 -1 -2 9.47 0.51
25 -1 2 9.87 0.53
-25 -1 -2 10.12 0.51
25 1 2 10.07 0.53
-25 1 -2 9.67 0.51
-27 -1 -2 0.6 0.1
-27 -1 -2 0.45 0.09
27 -1 2 0.62 0.12
27 1 2 0.59 0.11
-27 1 -2 0.5 0.1
-28 2 2 2.47 0.22
26 -2 -2 1.71 0.17
-26 -2 2 1.36 0.15
26 2 -2 1.1 0.15
-26 2 2 1.51 0.16
-24 -2 2 11.81 0.57
24 -2 -2 10.73 0.58
24 2 -2 10.84 0.59
-24 2 2 9.91 0.57
-22 -2 2 2.13 0.31
22 -2 -2 1.83 0.17
-22 -2 2 1.75 0.16
22 2 -2 1.99 0.18
-22 2 2 1.68 0.16
-20 -2 2 0.97 0.18
-20 -2 2 0.65 0.1
20 -2 -2 0.72 0.11
-20 2 2 0.65 0.1
20 2 -2 1.02 0.12
-18 -2 2 11.19 0.57
-18 -2 2 10.68 1.42
18 -2 -2 11.31 0.58
-18 2 2 10.91 0.57
18 2 -2 12.33 0.59
16 -2 -2 26.86 1.35
16 -2 -2 27.96 1.33
-16 -2 2 28.69 1.35
-16 -2 2 28.05 3.45
-16 2 2 27.75 1.33
16 2 -2 27.78 1.35
16 2 -2 27.61 1.35
-16 2 2 28.42 3.43
-16 2 2 27.82 1.35
-14 -2 2 80.68 3.87
-14 -2 2 83.83 3.81
14 -2 -2 84.34 3.81
-14 -2 2 86.03 10.05
14 -2 -2 81.84 3.86
14 -2 -2 80.4 3.88
14 2 -2 83.55 3.88
14 2 -2 78.54 3.86
-14 2 2 80.33 3.88
-14 2 2 82.3 3.81
-14 2 2 78.14 10.03
-12 -2 2 60.7 7.31
12 -2 -2 59.77 2.77
12 -2 -2 61.77 2.83
-12 -2 2 58.63 2.82
12 -2 -2 59.06 2.81
-12 -2 2 59.44 2.77
12 2 -2 59.19 2.82
-12 2 2 61.28 2.83
12 2 -2 59.18 2.83
-12 2 2 51.07 7.3
-12 2 2 63.97 2.77
10 -2 -2 11 0.56
-10 -2 2 11.54 0.55
10 -2 -2 11.89 0.55
-10 -2 2 11.28 0.55
10 -2 -2 10.91 0.56
-10 -2 2 10.57 1.41
10 2 -2 11.58 0.56
-10 2 2 11.09 0.55
10 2 -2 10.97 0.56
-10 2 2 11.99 0.56
8 -2 -2 0.62 0.06
8 -2 -2 0.72 0.06
-8 -2 2 0.6 0.12
8 -2 -2 0.65 0.06
-8 -2 2 0.62 0.06
-8 -2 2 0.5 0.05
-8 2 2 0.6 0.06
8 2 -2 0.43 0.06
8 2 -2 0.51 0.06
-8 2 2 0.5 0.05
-6 -2 2 27.44 1.3
-6 -2 2 22.7 3.38
6 -2 -2 27.82 1.3
6 -2 -2 28.18 1.28
6 -2 -2 27.84 1.31
6 2 -2 28.45 1.31
-6 2 2 28.77 1.28
-6 2 2 27.68 1.3
-6 2 2 28.86 1.31
6 2 -2 26.1 1.31
4 -2 -2 0.56 0.05
4 -2 -2 0.59 0.05
-4 -2 2 0.54 0.06
-4 -2 2 0.5 0.04
4 -2 -2 0.75 0.05
4 2 -2 0.58 0.06
-4 2 2 0.64 0.05
-4 2 2 0.74 0.05
4 2 -2 0.56 0.05
-4 2 2 0.53 0.06
2 -2 -2 56.02 2.61
-2 -2 2 55.79 2.66
2 -2 -2 55.29 2.67
2 -2 -2 53.68 2.65
2 2 -2 56.46 2.66
2 2 -2 60.09 2.67
-2 2 2 59.43 2.61
-2 2 2 56.19 2.65
-2 2 2 55.88 2.67
0 -2 2 5.6 0.27
0 -2 -2 5.12 0.27
0 -2 -2 5.2 0.26
0 -2 -2 5.28 0.27
0 2 -2 5.66 0.27
0 2 2 5.09 0.27
0 2 -2 5.48 0.26
0 2 -2 5.74 0.26
-2 -2 -2 1.17 0.07
2 -2 2 1.17 0.08
-2 -2 -2 1.05 0.06
2 2 2 1.15 0.07
-2 2 -2 1.11 0.08
4 -2 2 56.35 2.61
-4 -2 -2 54.53 2.62
4 -2 2 52.73 2.57
-4 -2 -2 53.98 2.56
4 2 2 56.02 2.56
4 2 2 56.79 2.59
-4 2 -2 57.18 2.57
-4 2 -2 55.7 2.61
-6 -2 -2 64.75 2.97
6 -2 2 65.36 2.97
-6 -2 -2 65.08 3.03
-6 2 -2 66.52 3.01
6 2 2 67.42 3
6 2 2 68.89 2.97
-6 2 -2 61.43 2.97
6 2 2 53.19 7.87
-8 -2 -2 175.75 8.27
-8 -2 -2 173.26 8.11
8 -2 2 178.46 8.11
-8 2 -2 186.07 8.12
8 2 2 178.48 8.11
8 2 2 161.19 21.52
8 2 2 176.01 8.22
-10 -2 -2 75.71 3.67
-10 -2 -2 74.28 3.61
-10 -2 -2 81.48 3.69
10 -2 2 76.79 3.62
-10 2 -2 86.06 3.63
-10 2 -2 78.26 3.67
10 2 2 76.64 9.58
10 2 2 74.77 3.62
-10 2 -2 77.01 3.67
10 2 2 78.83 3.66
12 -2 2 36.3 1.69
-12 -2 -2 35.46 1.7
12 -2 2 29.94 4.41
-12 -2 -2 37.11 1.71
-12 -2 -2 34.36 1.68
-12 2 -2 36.05 1.7
12 2 2 37.85 1.7
-12 2 -2 35.48 1.69
12 2 2 38.28 4.43
12 2 2 35.62 1.68
-12 2 -2 38.14 1.69
-14 -2 -2 10.6 0.5
14 -2 2 9.83 0.5
14 -2 2 9.57 1.24
-14 -2 -2 9 0.49
-14 -2 -2 9.71 0.48
14 2 2 10.66 1.25
14 2 2 10.21 0.49
14 2 2 10.15 0.49
-14 2 -2 9.52 0.5
-14 2 -2 9.95 0.49
-14 2 -2 9.6 0.48
16 -2 2 3.75 0.22
16 -2 2 4.18 0.48
-16 -2 -2 3.35 0.21
-16 -2 -2 3.29 0.19
16 -2 2 3.72 0.22
16 2 2 3.46 0.21
16 2 2 3.41 0.21
-16 2 -2 3.5 0.22
16 2 2 4.03 0.5
18 -2 2 7.37 0.39
-18 -2 -2 7.11 0.39
-18 -2 -2 7.28 0.37
18 2 2 8.04 0.39
-18 2 -2 7.38 0.37
-18 2 -2 6.99 0.37
20 -2 2 19.02 0.94
-20 -2 -2 18.65 0.92
-20 2 -2 19.11 0.92
20 2 2 19.11 0.93
22 -2 2 0.89 0.12
-22 -2 -2 1.05 0.1
-22 2 -2 0.93 0.1
22 2 2 1.15 0.12
24 -2 2 0.12 0.08
-24 -2 -2 0.02 0.07
-24 2 -2 0.02 0.07
24 2 2 0.1 0.07
26 -2 2 2.77 0.21
-26 -2 -2 2.18 0.18
-26 -2 -2 2.71 0.18
26 2 2 2.48 0.2
-26 2 -2 2.52 0.19
-27 3 2 1.82 0.19
27 3 -2 2.07 0.21
-25 -3 2 4.32 0.26
25 -3 -2 3.02 0.26
-25 3 2 3.88 0.26
25 3 -2 4.07 0.27
-23 -3 2 5.32 0.67
-23 -3 2 4.67 0.29
23 -3 -2 4.89 0.31
-23 3 2 4.3 0.29
23 3 -2 5.22 0.32
-21 -3 2 22.57 1.11
-21 -3 2 24.37 2.82
21 -3 -2 21.45 1.12
21 3 -2 22.21 1.12
-21 3 2 22.07 1.11
-19 -3 2 52.44 2.5
-19 -3 2 54.04 6.44
-19 3 2 52.49 2.5
19 3 -2 49.89 2.5
17 -3 -2 16.14 0.8
-17 -3 2 15.88 0.79
-17 -3 2 16.02 1.99
17 3 -2 15.75 0.8
-17 3 2 15.61 0.79
-17 3 2 16.03 0.78
17 3 -2 16.08 0.8
-15 -3 2 2.87 0.38
15 -3 -2 3.01 0.17
15 -3 -2 2.87 0.18
-15 -3 2 2.53 0.16
15 -3 -2 3.05 0.17
-15 3 2 2.83 0.35
-15 3 2 2.57 0.17
15 3 -2 2.85 0.18
15 3 -2 1.74 0.37
-15 3 2 2.97 0.17
15 3 -2 2.43 0.18
-13 -3 2 15.33 0.76
13 -3 -2 16.12 0.77
13 -3 -2 17.07 0.77
-13 -3 2 17.59 1.95
13 -3 -2 16.13 0.76
-13 -3 2 16.01 0.76
-13 3 2 15.76 0.77
-13 3 2 16.4 0.76
13 3 -2 16.11 0.77
13 3 -2 16.99 0.78
13 3 -2 10.29 1.94
-13 3 2 13.8 1.93
11 -3 -2 57.78 2.6
-11 -3 2 54.85 2.56
11 -3 -2 56.39 2.55
-11 -3 2 56.49 2.59
11 -3 -2 55.72 2.59
-11 -3 2 58.14 6.73
-11 3 2 57.27 2.55
11 3 -2 55.24 2.61
11 3 -2 56.01 2.59
11 3 -2 35.75 6.72
-11 3 2 58.16 2.6
9 -3 -2 36.63 1.67
9 -3 -2 35.12 1.69
-9 -3 2 33.96 4.39
-9 -3 2 33.87 1.69
9 -3 -2 35.45 1.7
-9 -3 2 35.33 1.67
-9 3 2 37.59 1.7
9 3 -2 36.27 1.7
9 3 -2 36.56 1.7
-9 3 2 35.28 1.67
7 -3 -2 0.89 0.07
-7 -3 2 0.72 0.14
-7 -3 2 0.81 0.06
7 -3 -2 0.88 0.07
7 -3 -2 0.78 0.07
7 3 -2 0.73 0.08
-7 3 2 0.8 0.08
7 3 -2 0.87 0.07
-7 3 2 0.75 0.06
-5 -3 2 21.8 1.09
-5 -3 2 19.76 2.83
5 -3 -2 21.8 1.08
5 -3 -2 24.26 1.07
5 -3 -2 23.39 1.09
-5 3 2 23.94 1.07
-5 3 2 24.19 1.1
5 3 -2 22.4 1.09
5 3 -2 24.18 1.1
3 -3 -2 1.39 0.08
3 -3 -2 1.31 0.09
3 -3 -2 1.36 0.07
-3 -3 2 1.08 0.2
-3 -3 2 1.3 0.08
3 3 -2 1.34 0.09
3 3 -2 1.28 0.1
-3 3 2 1.26 0.09
3 3 -2 1.5 0.08
-3 3 2 1.37 0.08
1 -3 -2 46.71 2.36
1 -3 -2 52.07 2.31
1 -3 -2 48.43 2.34
-1 3 2 49.65 2.36
1 3 -2 50.82 2.35
1 3 -2 51.63 2.35
1 3 -2 50.01 2.35
-1 -3 -2 2.39 0.11
1 -3 2 2.43 0.13
-1 -3 -2 2.23 0.12
-1 3 -2 2.3 0.11
1 3 2 2.47 0.13
-1 3 -2 2.37 0.12
-1 3 -2 2.59 0.14
1 3 2 1.78 0.31
3 -3 2 29.8 1.42
-3 -3 -2 29.88 1.44
-3 -3 -2 30.21 1.4
-3 3 -2 30.23 1.44
3 3 2 31.34 1.44
-5 -3 -2 31.57 1.52
5 -3 2 31.12 1.5
-5 -3 -2 33.51 1.53
-5 -3 -2 32 1.49
-5 -3 -2 31.19 1.51
5 3 2 33.5 1.53
-5 3 -2 31.78 1.52
5 3 2 32.65 1.51
-7 -3 -2 90.16 4.28
-7 -3 -2 89.15 4.19
-7 -3 -2 90.65 4.27
7 -3 2 91.23 4.2
-7 -3 -2 89.15 4.24
7 3 2 87.21 11.12
-7 3 -2 98.22 4.2
-7 3 -2 89.54 4.26
7 3 2 90.3 4.24
-9 -3 -2 1.83 0.1
9 -3 2 1.78 0.12
-9 -3 -2 1.75 0.12
9 3 2 1.82 0.27
-9 3 -2 1.96 0.12
-9 3 -2 1.8 0.09
-9 3 -2 1.75 0.1
9 3 2 2.09 0.12
9 3 2 1.9 0.11
-11 -3 -2 15.26 0.73
-11 -3 -2 14.74 0.73
-11 -3 -2 14.8 0.74
11 -3 2 14.8 0.73
-11 3 -2 15.1 0.72
11 3 2 15 0.73
-11 3 -2 16.67 0.74
11 3 2 14.98 0.73
-11 3 -2 15.07 0.73
11 3 2 15.61 1.9
13 -3 2 56.41 2.64
13 -3 2 48.5 6.93
-13 -3 -2 56.13 2.67
-13 -3 -2 54.95 2.63
-13 3 -2 57.02 2.67
13 3 2 57.09 2.67
13 3 2 56.36 2.64
13 3 2 62.86 6.96
-13 3 -2 57.61 2.67
-13 3 -2 59.59 2.65
-13 3 -2 54.95 2.67
15 -3 2 54.35 6.8
15 -3 2 55.77 2.6
-15 -3 -2 53.25 2.62
-15 -3 -2 52.79 2.59
-15 3 -2 58.1 2.6
-15 3 -2 54.95 2.63
15 3 2 59.33 6.82
15 3 2 54.54 2.62
15 3 2 55.44 2.59
-17 -3 -2 20.3 0.98
-17 -3 -2 20.28 0.98
17 3 2 20.05 0.98
17 3 2 20.58 0.99
-19 -3 -2 0.93 0.08
19 -3 2 0.86 0.1
19 3 2 1 0.1
-19 3 -2 0.78 0.08
-21 -3 -2 3.79 0.22
21 -3 2 4.06 0.24
21 3 2 3.68 0.23
-21 3 -2 3.9 0.22
-23 -3 -2 8.38 0.42
23 -3 2 7.92 0.45
23 3 2 8.23 0.44
-23 3 -2 8.12 0.43
-25 -3 -2 12.46 0.63
25 -3 2 12.43 0.65
25 3 2 12.69 0.65
-25 3 -2 12.26 0.63
-27 -3 -2 1.84 0.16
27 -3 2 2.35 0.2
-27 -3 -2 2.08 0.17
-27 3 -2 2.02 0.17
26 -4 -2 3.49 0.27
-26 4 2 2.97 0.25
26 4 -2 3.47 0.27
24 -4 -2 1.4 0.16
-24 4 2 1.4 0.15
24 4 -2 1.28 0.16
-22 -4 2 0.53 0.1
22 -4 -2 0.58 0.11
-22 -4 2 0.64 0.18
22 4 -2 0.47 0.11
-22 4 2 0.37 0.1
-20 -4 2 1.76 0.28
-20 -4 2 1.69 0.14
20 -4 -2 1.37 0.14
-20 4 2 1.33 0.15
20 4 -2 1.65 0.16
18 -4 -2 0.82 0.1
-18 -4 2 1.03 0.1
-18 -4 2 0.9 0.19
18 4 -2 0.9 0.11
-18 4 2 0.74 0.11
-16 -4 2 19.63 0.94
-16 -4 2 19.62 2.39
16 -4 -2 19.49 0.93
16 -4 -2 17.27 0.94
16 4 -2 19.95 0.95
16 4 -2 19.19 0.95
-16 4 2 19.01 0.93
-16 4 2 19.01 0.95
14 -4 -2 19.71 0.95
14 -4 -2 19.18 0.94
-14 -4 2 20.29 2.41
-14 -4 2 19.25 0.94
14 -4 -2 20.41 0.94
-14 4 2 18.31 0.93
-14 4 2 17.78 2.38
-14 4 2 19.24 0.95
14 4 -2 19.52 0.95
14 4 -2 20.06 0.96
12 -4 -2 10.37 0.5
-12 -4 2 10.95 1.28
-12 -4 2 9.97 0.5
12 -4 -2 10.21 0.5
12 -4 -2 10.3 0.51
12 4 -2 7 1.27
-12 4 2 10.07 0.5
-12 4 2 10.63 0.51
12 4 -2 10.69 0.52
12 4 -2 10.64 0.52
-10 -4 2 1.57 0.1
10 -4 -2 1.46 0.11
-10 -4 2 1.44 0.1
10 -4 -2 1.45 0.1
-10 -4 2 1.63 0.23
10 -4 -2 1.42 0.11
10 4 -2 0.99 0.22
10 4 -2 1.7 0.11
-10 4 2 1.48 0.1
10 4 -2 1.54 0.12
-10 4 2 1.55 0.12
-8 -4 2 3.11 0.4
-8 -4 2 2.86 0.16
-8 -4 2 2.94 0.16
8 -4 -2 2.97 0.16
8 -4 -2 2.89 0.17
8 -4 -2 2.87 0.16
-8 4 2 3.27 0.18
8 4 -2 2.05 0.39
-8 4 2 3.17 0.16
8 4 -2 2.96 0.18
8 4 -2 2.84 0.17
6 -4 -2 6.62 0.32
6 -4 -2 6.69 0.33
6 -4 -2 6.92 0.32
-6 -4 2 6.24 0.83
-6 -4 2 6.07 0.32
-6 -4 2 6.08 0.32
6 4 -2 6.61 0.33
6 4 -2 6.33 0.34
-6 4 2 6.53 0.32
-6 4 2 6.61 0.33
4 -4 -2 0.53 0.05
-4 -4 2 0.44 0.04
-4 -4 2 0.4 0.11
4 -4 -2 0.52 0.05
-4 4 2 0.47 0.06
4 4 -2 0.69 0.07
-4 4 2 0.58 0.05
4 4 -2 0.5 0.06
2 -4 -2 18.94 0.83
2 -4 -2 19.43 0.84
-2 -4 2 15.94 2.21
2 -4 -2 17.86 0.85
-2 4 2 13.27 2.2
2 4 -2 18.93 0.86
2 4 -2 18.41 0.85
-2 4 2 18.29 0.86
2 4 -2 19.14 0.85
0 -4 -2 11.25 0.55
0 -4 -2 11.72 0.54
0 -4 2 9 1.41
0 -4 -2 11.77 0.53
0 4 2 12.11 0.55
0 4 -2 11.74 0.56
0 4 -2 11.4 0.54
-2 -4 -2 6.61 0.34
-2 -4 -2 6.83 0.33
2 4 2 6.94 0.34
-2 4 -2 6.78 0.33
-2 4 -2 7.06 0.35
2 4 2 6.94 0.33
-4 -4 -2 3.7 0.19
-4 -4 -2 3.67 0.19
-4 -4 -2 3.66 0.18
4 -4 2 4.02 0.2
-4 4 -2 3.39 0.18
4 4 2 3.75 0.18
-4 4 -2 3.53 0.2
-4 4 -2 3.6 0.18
4 4 2 4.04 0.2
6 -4 2 56.42 2.61
-6 -4 -2 57.54 2.6
-6 -4 -2 56.08 2.62
-6 -4 -2 41.53 6.89
-6 -4 -2 56.23 2.64
6 4 2 57.35 2.63
-6 4 -2 60.71 2.64
6 4 2 57.72 2.65
-6 4 -2 58.85 2.64
-6 4 -2 57.34 2.63
-8 -4 -2 7.38 0.35
-8 -4 -2 6.95 0.35
8 -4 2 7.22 0.36
-8 -4 -2 5.11 0.92
8 4 2 7.9 0.92
-8 4 -2 8 0.37
8 4 2 7.22 0.35
-8 4 -2 7.4 0.35
8 4 2 7.56 0.37
-8 4 -2 7.48 0.35
-10 -4 -2 1.85 0.1
-10 -4 -2 1.85 0.11
10 -4 2 1.63 0.12
-10 -4 -2 1.3 0.26
-10 -4 -2 1.72 0.1
-10 4 -2 1.71 0.1
-10 4 -2 1.72 0.1
-10 4 -2 1.57 0.13
10 4 2 1.75 0.25
10 4 2 1.71 0.1
-12 -4 -2 16.87 0.81
-12 -4 -2 12.67 2.12
-12 -4 -2 16.32 0.81
12 -4 2 17.56 0.82
-12 4 -2 17.79 0.83
12 4 2 18.13 0.82
12 4 2 19.21 2.12
-12 4 -2 17.57 0.81
-12 4 -2 16.58 0.81
-14 -4 -2 1.18 0.24
-14 -4 -2 1.28 0.09
14 -4 2 1.11 0.11
14 -4 2 1.13 0.18
-14 -4 -2 1.31 0.11
-14 4 -2 1.22 0.09
-14 4 -2 1.22 0.09
-14 4 -2 1.43 0.12
14 4 2 1.36 0.1
-16 -4 -2 0.56 0.17
-16 -4 -2 0.87 0.09
-16 -4 -2 0.74 0.07
16 4 2 0.76 0.08
16 4 2 0.84 0.09
-18 -4 -2 2 0.39
-18 -4 -2 2.6 0.15
-18 -4 -2 2.84 0.18
18 4 2 2.76 0.17
-18 4 -2 2.78 0.16
-20 -4 -2 0.09 0.05
20 -4 2 0.17 0.06
20 4 2 0.11 0.06
-20 4 -2 0.06 0.06
22 -4 2 0.23 0.08
-22 -4 -2 0.24 0.06
22 4 2 0.11 0.07
-22 4 -2 0.05 0.07
-24 -4 -2 0.43 0.08
24 -4 2 0.38 0.1
-24 4 -2 0.2 0.09
24 4 2 0.48 0.1
-26 -4 -2 0.23 0.08
26 -4 2 0.15 0.1
-26 4 -2 0.32 0.1
25 -5 -2 0.21 0.1
25 5 -2 0.13 0.1
-25 5 2 0.35 0.11
23 -5 -2 9.22 0.52
23 5 -2 9.56 0.53
-23 5 2 9.65 0.52
21 -5 -2 38.11 1.82
-21 5 2 36.86 1.82
21 5 -2 37.62 1.83
19 -5 -2 43.66 2.21
-19 -5 2 48.55 5.71
-19 -5 2 46.53 2.22
19 5 -2 46.63 2.23
-19 5 2 45.53 2.23
-17 -5 2 57.03 7
17 -5 -2 54.56 2.7
-17 -5 2 58.85 2.71
-17 5 2 59.49 2.72
17 5 -2 53.8 2.71
-15 -5 2 7.78 0.4
15 -5 -2 6.81 0.4
-15 -5 2 8.3 0.99
-15 -5 2 8.04 0.4
15 -5 -2 8.12 0.4
15 5 -2 7.56 0.42
-15 5 2 7.43 0.41
15 5 -2 7.59 0.41
-15 5 2 7.17 0.4
13 -5 -2 5.39 0.28
13 -5 -2 5.06 0.28
13 -5 -2 5.18 0.28
-13 -5 2 5.25 0.28
-13 -5 2 5.55 0.69
-13 -5 2 5.19 0.28
13 5 -2 5.74 0.3
-13 5 2 6.02 0.3
-13 5 2 4.95 0.28
13 5 -2 5.27 0.3
-13 5 2 4.1 0.65
11 -5 -2 50.71 2.27
11 -5 -2 51.52 2.24
-11 -5 2 49.95 2.28
-11 -5 2 49.39 2.28
-11 -5 2 53.94 5.91
11 -5 -2 51.28 2.28
-11 5 2 50.99 2.29
11 5 -2 32.67 5.9
11 5 -2 51.83 2.29
-11 5 2 35.19 5.87
11 5 -2 49.12 2.29
-11 5 2 48.67 2.24
-9 -5 2 54.05 6.38
-9 -5 2 52.87 2.46
9 -5 -2 53.4 2.45
9 -5 -2 52.98 2.41
9 -5 -2 53.39 2.46
-9 -5 2 53.59 2.46
-9 5 2 52.25 2.41
9 5 -2 51.34 2.47
9 5 -2 53.99 2.46
-9 5 2 53.71 2.47
-9 5 2 38.03 6.35
-7 -5 2 50.98 2.38
7 -5 -2 51.88 2.39
-7 -5 2 50.85 2.38
7 -5 -2 54.04 2.34
-7 -5 2 51.48 6.2
-7 5 2 53.75 2.4
-7 5 2 48.54 2.34
-7 5 2 37.27 6.17
7 5 -2 51.7 2.39
7 5 -2 52.91 2.4
-5 -5 2 29.81 1.32
5 -5 -2 29.87 1.33
-5 -5 2 27.85 3.44
5 -5 -2 29.48 1.3
-5 -5 2 29.51 1.32
5 5 -2 29.18 1.33
-5 5 2 27.96 1.3
5 5 -2 19.05 3.43
-5 5 2 23.46 3.42
-5 5 2 30.93 1.34
5 5 -2 28.9 1.33
-3 -5 2 0.48 0.11
3 -5 -2 0.54 0.05
3 -5 -2 0.46 0.05
-3 -5 2 0.5 0.04
3 -5 -2 0.38 0.05
-3 -5 2 0.48 0.04
-3 5 2 0.37 0.06
3 5 -2 0.52 0.06
3 5 -2 0.57 0.07
1 -5 -2 0.1 0.03
1 -5 -2 0.19 0.03
1 -5 -2 0.2 0.03
-1 -5 2 0.14 0.07
1 5 -2 0.08 0.04
1 5 -2 0.22 0.04
-1 5 2 0.14 0.04
1 5 -2 0.16 0.02
1 -5 2 14.49 2.01
-1 -5 -2 16.78 0.78
-1 -5 -2 16.9 0.77
1 5 2 16.46 0.79
-1 5 -2 15.52 0.78
-1 5 -2 16.18 0.77
1 5 2 16.87 0.77
3 -5 2 119.95 5.7
-3 -5 -2 124.6 5.76
3 -5 2 106.53 15.1
-3 -5 -2 125.2 5.8
-3 5 -2 124.44 5.78
-3 5 -2 126.82 5.8
3 5 2 129.54 5.81
3 5 2 130.18 5.76
3 5 2 119.92 15.11
-3 5 -2 124.22 5.8
5 -5 2 254.33 11.44
-5 -5 -2 257.4 11.58
-5 -5 -2 259.95 11.66
-5 -5 -2 188.52 30.36
5 -5 2 201.83 30.36
-5 5 -2 259.7 11.65
5 5 2 262.36 11.67
-5 5 -2 259.87 11.66
-5 5 -2 256.33 11.61
5 5 2 264.72 30.36
5 5 2 260.08 11.59
-7 -5 -2 57.3 2.63
-7 -5 -2 43.53 6.9
7 -5 2 57.38 2.61
-7 -5 -2 57.83 2.65
-7 5 -2 55.78 2.65
-7 5 -2 59.56 2.64
7 5 2 56.59 2.63
7 5 2 59.73 2.66
-7 5 -2 56.57 2.65
9 -5 2 1.7 0.12
-9 -5 -2 1.88 0.11
-9 -5 -2 1.33 0.28
-9 -5 -2 1.76 0.11
-9 -5 -2 1.83 0.11
-9 5 -2 1.8 0.1
-9 5 -2 2.01 0.11
-9 5 -2 1.98 0.13
9 5 2 2.03 0.28
9 5 2 1.93 0.12
9 5 2 1.68 0.11
-11 -5 -2 16.26 0.79
-11 -5 -2 17.43 0.8
-11 -5 -2 12.65 2.08
11 -5 2 17.76 0.81
11 5 2 16.53 0.8
11 5 2 17.52 0.81
-11 5 -2 17.15 0.8
-11 5 -2 17.27 0.79
-13 -5 -2 94.92 14.64
-13 -5 -2 120.29 5.52
13 -5 2 127.39 5.54
-13 -5 -2 120.78 5.62
-13 5 -2 123.22 5.62
-13 5 -2 125.37 5.62
13 5 2 122.13 5.59
-15 -5 -2 138.2 6.11
-15 -5 -2 109.08 16.2
-15 -5 -2 136.94 6.22
-15 5 -2 140.89 6.22
15 5 2 133.94 6.19
-17 -5 -2 39.14 5.81
-17 -5 -2 47.03 2.23
-17 -5 -2 49.81 2.21
17 5 2 48.53 2.23
-17 5 -2 50 2.23
-19 -5 -2 0.26 0.14
-19 -5 -2 0.37 0.06
-19 5 -2 0.24 0.06
19 5 2 0.36 0.07
21 -5 2 1.79 0.16
-21 -5 -2 1.74 0.13
21 5 2 1.58 0.15
-21 5 -2 1.95 0.14
23 -5 2 23.25 1.17
-23 -5 -2 23.78 1.15
-23 5 -2 23.62 1.15
25 -5 2 21.17 1.06
-25 -5 -2 20.7 1.03
-25 5 -2 21 1.04
-26 6 2 -0.16 0.09
24 -6 -2 0.04 0.09
-24 6 2 0.03 0.09
24 6 -2 -0.07 0.09
22 -6 -2 0.32 0.09
-22 6 2 0.3 0.1
22 6 -2 0.17 0.09
20 -6 -2 0.87 0.11
20 6 -2 0.61 0.12
-20 6 2 0.7 0.12
18 -6 -2 1.03 0.12
18 6 -2 1.19 0.14
-18 6 2 0.94 0.13
-16 -6 2 1.92 0.15
16 -6 -2 2.25 0.16
-16 -6 2 2.14 0.33
-16 -6 2 2.47 0.16
16 6 -2 1.97 0.17
-16 6 2 2.18 0.17
16 6 -2 1.96 0.17
14 -6 -2 0.21 0.06
-14 -6 2 0.23 0.05
-14 -6 2 0.14 0.06
-14 -6 2 0.21 0.11
14 -6 -2 0.17 0.06
-14 6 2 0.09 0.07
14 6 -2 0.12 0.07
-14 6 2 0.15 0.06
14 6 -2 0.21 0.07
-12 -6 2 6.07 0.3
-12 -6 2 5.78 0.74
12 -6 -2 5.56 0.3
12 -6 -2 5.44 0.3
-12 -6 2 5.7 0.3
12 6 -2 5.51 0.31
-12 6 2 5.34 0.7
-12 6 2 5.56 0.3
-12 6 2 5.73 0.32
12 6 -2 5.59 0.32
-10 -6 2 16.81 0.82
-10 -6 2 18.53 2.13
10 -6 -2 17.23 0.83
-10 -6 2 17.39 0.83
10 -6 -2 17.07 0.83
10 -6 -2 17.47 0.82
10 6 -2 17.18 0.84
-10 6 2 14.65 2.09
10 6 -2 16.86 0.84
-10 6 2 16.68 0.84
-10 6 2 16.86 0.82
-8 -6 2 21.31 2.46
8 -6 -2 19.8 0.95
-8 -6 2 19.94 0.95
8 -6 -2 19.87 0.94
8 6 -2 19.84 0.96
-8 6 2 19.43 0.94
-8 6 2 20.35 0.97
-8 6 2 17.75 2.43
8 6 -2 19.3 0.96
6 -6 -2 4.49 0.23
-6 -6 2 4.7 0.58
-6 -6 2 4.45 0.23
6 -6 -2 4.54 0.23
-6 6 2 4.13 0.56
6 6 -2 4.5 0.25
-6 6 2 4.45 0.23
6 6 -2 3.44 0.58
-6 6 2 4.8 0.25
6 6 -2 4.51 0.24
4 -6 -2 13.66 0.61
4 -6 -2 13.32 0.62
-4 -6 2 13.27 1.61
-4 -6 2 13.1 0.62
4 6 -2 13.17 0.63
4 6 -2 13.61 0.64
4 6 -2 9.23 1.6
-4 6 2 13.24 0.64
2 -6 -2 0.44 0.05
-2 -6 2 0.4 0.1
2 -6 -2 0.41 0.05
2 6 -2 0.42 0.06
2 6 -2 0.41 0.06
-2 6 2 0.34 0.06
0 -6 -2 4.11 0.21
0 -6 -2 3.85 0.21
0 -6 2 3.72 0.52
0 -6 -2 4.28 0.21
0 6 -2 3.93 0.2
0 6 -2 3.97 0.21
0 6 2 4.04 0.52
0 6 -2 3.76 0.22
0 6 2 3.88 0.22
-2 -6 -2 10.57 0.5
2 -6 2 9.96 1.29
-2 -6 -2 7.4 1.29
-2 -6 -2 10.75 0.5
-2 6 -2 10.79 0.49
2 6 2 11.2 1.3
2 6 2 10.51 0.49
-2 6 -2 10.95 0.52
2 6 2 10.51 0.51
4 -6 2 8.41 1.19
-4 -6 -2 9.69 0.46
4 -6 2 9.73 0.47
-4 -6 -2 7.14 1.2
-4 -6 -2 9.81 0.46
4 6 2 9.59 0.48
4 6 2 10.2 0.46
-4 6 -2 9.93 0.47
4 6 2 10.31 1.2
-4 6 -2 9.46 0.48
-4 6 -2 9.78 0.45
-6 -6 -2 26.72 1.25
6 -6 2 24.49 3.27
6 -6 2 27.27 1.26
-6 -6 -2 26.7 1.26
-6 -6 -2 20.19 3.29
-6 6 -2 27.53 1.26
6 6 2 27.98 1.26
6 6 2 27.07 1.28
-6 6 -2 26.66 1.27
-6 6 -2 26.68 1.27
6 6 2 30.3 3.29
8 -6 2 0.38 0.09
8 -6 2 0.39 0.06
-8 -6 -2 0.38 0.13
-8 -6 -2 0.43 0.05
-8 -6 -2 0.63 0.05
-8 -6 -2 0.42 0.06
-8 6 -2 0.4 0.05
-8 6 -2 0.42 0.04
-8 6 -2 0.42 0.06
8 6 2 0.46 0.05
8 6 2 0.38 0.06
-10 -6 -2 0.34 0.14
10 -6 2 0.75 0.08
-10 -6 -2 0.55 0.06
10 -6 2 0.59 0.11
-10 -6 -2 0.73 0.07
-10 6 -2 0.72 0.06
-10 6 -2 0.72 0.07
10 6 2 0.69 0.07
10 6 2 0.73 0.08
12 -6 2 0.64 0.12
-12 -6 -2 0.82 0.08
-12 -6 -2 0.61 0.18
12 -6 2 0.66 0.08
-12 -6 -2 0.74 0.06
-12 6 -2 0.66 0.07
12 6 2 0.75 0.07
-14 -6 -2 0.7 0.2
-14 -6 -2 1.1 0.1
-14 -6 -2 0.9 0.08
-14 6 -2 0.68 0.08
14 6 2 1.1 0.09
-16 -6 -2 1.5 0.33
-16 -6 -2 1.78 0.14
-16 -6 -2 2.02 0.12
-16 6 -2 1.74 0.13
16 6 2 2.08 0.14
-18 -6 -2 1.6 0.11
18 6 2 1.77 0.14
-18 6 -2 1.42 0.12
-20 -6 -2 4.27 0.26
20 6 2 5.27 0.28
-20 6 -2 4.69 0.27
22 -6 2 0.85 0.12
-22 -6 -2 0.67 0.09
-22 6 -2 0.67 0.1
-24 -6 -2 1.54 0.13
24 -6 2 1.74 0.17
-24 6 -2 1.45 0.15
-25 7 2 2.91 0.24
25 7 -2 3.07 0.26
23 -7 -2 0.3 0.1
-23 7 2 0.15 0.1
23 7 -2 0.14 0.1
21 -7 -2 12.56 0.66
-21 7 2 12.62 0.66
21 7 -2 12.4 0.66
19 -7 -2 16.16 0.79
-19 7 2 14.83 0.79
19 7 -2 15.46 0.79
17 -7 -2 9.29 0.49
-17 7 2 9 0.5
17 7 -2 9.31 0.5
15 -7 -2 25.03 1.26
-15 -7 2 27.67 3.23
15 7 -2 25.92 1.28
-15 7 2 25.81 1.27
15 7 -2 24.88 1.27
13 -7 -2 0.83 0.1
13 -7 -2 0.98 0.1
-13 -7 2 1.42 0.22
-13 7 2 1.15 0.11
13 7 -2 1.02 0.12
13 7 -2 0.75 0.11
-13 7 2 0.81 0.11
-11 -7 2 42.7 1.98
11 -7 -2 40.59 1.95
-11 -7 2 44.35 5.13
-11 7 2 40.85 1.95
-11 7 2 39.53 1.99
11 7 -2 41.36 2
11 7 -2 40.66 1.99
-9 -7 2 61.81 7.04
9 -7 -2 57.07 2.66
-9 -7 2 58.11 2.71
9 -7 -2 56.28 2.71
-9 7 2 54.25 2.72
-9 7 2 59.13 7
-9 7 2 53.53 2.66
9 7 -2 56.52 2.71
9 7 -2 56.85 2.73
7 -7 -2 41.63 1.98
-7 -7 2 41.72 1.98
-7 -7 2 45.11 5.14
7 -7 -2 41.69 1.95
7 7 -2 40.75 2
-7 7 2 40.99 2
7 7 -2 39.47 1.99
5 -7 -2 20.44 0.92
-5 -7 2 19.86 0.93
-5 -7 2 20.23 2.42
5 -7 -2 19.98 0.94
5 7 -2 19.87 0.95
-5 7 2 20.88 0.95
5 7 -2 14.5 2.42
5 7 -2 19.65 0.95
-3 -7 2 6.97 0.83
3 -7 -2 6.79 0.33
3 -7 -2 6.6 0.32
3 7 -2 6.62 0.34
3 7 -2 4.65 0.83
-3 7 2 6.44 0.34
3 7 -2 6.44 0.34
-3 7 2 6.89 0.82
1 -7 -2 1.04 0.08
1 -7 -2 1.17 0.08
-1 -7 2 1.1 0.18
-1 7 2 1.13 0.18
1 7 -2 0.94 0.09
1 7 -2 0.84 0.1
-1 7 2 1 0.1
-1 -7 -2 31.41 1.47
-1 -7 -2 22.6 3.83
1 -7 2 32.37 3.83
-1 -7 -2 32.21 1.48
-1 7 -2 31.5 1.48
1 7 2 31.61 1.49
1 7 2 33.79 3.83
-1 7 -2 31.21 1.47
-1 7 -2 31.03 1.49
1 7 2 32.02 1.47
-3 -7 -2 53.45 8.51
-3 -7 -2 70.61 3.25
3 -7 2 69.47 3.22
-3 -7 -2 69.32 3.27
3 -7 2 67.17 8.5
3 7 2 72.12 3.29
-3 7 -2 66.97 3.27
3 7 2 78.61 8.51
-3 7 -2 72.3 3.26
-3 7 -2 69.26 3.28
3 7 2 71.52 3.25
-5 -7 -2 70.69 3.23
5 -7 2 68.5 8.43
-5 -7 -2 69.64 3.25
-5 -7 -2 50.47 8.45
5 -7 2 68.33 3.2
5 7 2 79.98 8.45
-5 7 -2 71.48 3.24
5 7 2 69.63 3.23
-5 7 -2 68.68 3.25
5 7 2 69.01 3.26
7 -7 2 25.52 3.11
-7 -7 -2 25.05 1.2
-7 -7 -2 20.04 3.14
7 -7 2 26.45 1.2
-7 7 -2 26.95 1.2
7 7 2 25.65 1.22
-7 7 -2 24.93 1.22
7 7 2 26.96 1.2
-9 -7 -2 1.14 0.26
-9 -7 -2 1.45 0.09
9 -7 2 1.46 0.21
9 -7 2 1.4 0.12
-9 -7 -2 1.45 0.11
9 7 2 1.59 0.1
9 7 2 1.4 0.12
-9 7 -2 1.41 0.09
-9 7 -2 1.37 0.12
-11 -7 -2 15.4 0.67
-11 -7 -2 9.76 1.74
-11 -7 -2 13.93 0.66
11 -7 2 14.14 1.69
11 7 2 15.15 0.67
-13 -7 -2 25.35 1.16
-13 -7 -2 26.27 1.17
-13 -7 -2 19.18 3.04
13 7 2 25.65 1.17
-13 7 -2 24.87 1.17
-15 -7 -2 31.74 1.41
-15 -7 -2 23.32 3.7
-15 -7 -2 30.43 1.42
-15 7 -2 31.63 1.43
15 7 2 31.11 1.42
-17 -7 -2 9.38 0.47
-17 7 -2 9.76 0.49
17 7 2 9.21 0.48
-19 -7 -2 0.15 0.06
-19 7 -2 0.35 0.07
-21 -7 -2 8.61 0.46
-21 7 -2 9.19 0.47
-23 -7 -2 10.44 0.53
23 -7 2 10.17 0.56
-23 7 -2 10.24 0.54
24 8 -2 9.63 0.54
-24 8 2 9.37 0.53
22 -8 -2 3.67 0.26
22 8 -2 3.97 0.27
-22 8 2 3.74 0.27
20 -8 -2 0.64 0.11
20 8 -2 0.55 0.11
-20 8 2 0.79 0.13
18 -8 -2 6.38 0.35
18 8 -2 6.28 0.36
-18 8 2 5.45 0.35
16 -8 -2 2.1 0.17
-16 8 2 1.66 0.17
16 8 -2 1.9 0.17
14 -8 -2 23.81 1.13
-14 8 2 22.73 1.15
14 8 -2 22.89 1.15
14 8 -2 23.24 1.15
-12 -8 2 29.11 3.48
12 -8 -2 28.64 1.34
12 8 -2 27.84 1.37
-12 8 2 27.33 1.33
12 8 -2 27.22 1.37
-12 8 2 27.65 1.37
10 -8 -2 0.73 0.08
-10 -8 2 0.52 0.15
-10 8 2 0.62 0.08
10 8 -2 0.65 0.09
-10 8 2 0.59 0.09
10 8 -2 0.58 0.09
-8 -8 2 2.41 0.33
8 -8 -2 2.02 0.14
8 8 -2 1.97 0.17
-8 8 2 2.11 0.17
8 8 -2 2.35 0.16
6 -8 -2 7.84 0.4
-6 -8 2 8.02 1.03
6 -8 -2 7.84 0.4
6 8 -2 7.83 0.43
-6 8 2 8.32 1.01
6 8 -2 7.97 0.42
-6 8 2 8.13 0.42
4 -8 -2 31.21 1.51
4 -8 -2 30.9 1.53
-4 -8 2 34.04 3.98
4 8 -2 32 1.55
4 8 -2 32.45 1.55
-4 8 2 31.69 1.55
-4 8 2 32.7 3.96
2 -8 -2 32.81 1.53
2 -8 -2 31.68 1.56
-2 -8 2 33.78 4.04
-2 8 2 34.71 4.03
2 8 -2 31.41 1.57
-2 8 2 31.41 1.57
2 8 -2 32.45 1.57
0 -8 -2 21.81 1.04
0 -8 -2 21.19 1.05
0 -8 2 23.5 2.72
0 8 -2 20.8 1.06
0 8 -2 21.1 1.07
0 8 2 21.49 1.05
0 8 2 24.01 2.72
0 8 2 21.21 1.07
2 -8 2 13.89 1.63
-2 -8 -2 9.85 1.64
-2 -8 -2 13.47 0.63
-2 8 -2 13.02 0.63
2 8 2 13.25 0.63
-2 8 -2 12.96 0.65
-2 8 -2 12.86 0.64
2 8 2 14.8 1.64
2 8 2 12.95 0.65
-4 -8 -2 0.43 0.05
4 -8 2 0.52 0.07
-4 -8 -2 0.41 0.14
4 -8 2 0.66 0.12
4 8 2 0.52 0.07
-4 8 -2 0.49 0.08
4 8 2 0.47 0.06
6 -8 2 7.47 0.87
6 -8 2 7.24 0.37
-6 -8 -2 6.95 0.35
-6 -8 -2 5.04 0.9
6 8 2 7.1 0.37
-6 8 -2 6.95 0.37
6 8 2 7.33 0.35
-8 -8 -2 34.85 1.61
8 -8 2 37.8 4.17
-8 -8 -2 24.59 4.2
8 8 2 36 1.61
-8 8 -2 33.36 1.63
8 8 2 36.41 1.63
10 -8 2 21.51 2.44
-10 -8 -2 19.93 0.95
-10 -8 -2 13.55 2.48
-10 -8 -2 21.37 0.95
10 8 2 22.57 0.96
-12 -8 -2 5.27 0.26
-12 -8 -2 3.73 0.68
-12 -8 -2 5.12 0.27
-12 8 -2 5.01 0.27
12 8 2 5.73 0.27
-14 -8 -2 5 0.28
-14 -8 -2 5.48 0.3
-14 8 -2 5.47 0.3
14 8 2 5.46 0.29
-16 -8 -2 2.08 0.13
-16 8 -2 1.57 0.14
-18 -8 -2 10.39 0.51
-18 8 -2 9.92 0.52
-20 -8 -2 13.36 0.67
-20 8 -2 13.6 0.69
-22 -8 -2 13.14 0.65
-22 8 -2 12.49 0.66
21 -9 -2 6.61 0.38
-21 9 2 5.72 0.39
21 9 -2 7.13 0.4
19 -9 -2 9.77 0.55
19 9 -2 10.52 0.56
-19 9 2 10.45 0.56
17 -9 -2 20.17 1
-17 9 2 19.55 1.01
17 9 -2 20.44 1.01
15 -9 -2 1.82 0.15
15 9 -2 1.93 0.17
-15 9 2 1.7 0.17
13 9 -2 5.17 0.31
13 9 -2 5.18 0.31
-13 9 2 4.99 0.31
11 -9 -2 3.67 0.23
-11 9 2 4.08 0.25
11 9 -2 3.73 0.24
11 9 -2 3.85 0.25
9 -9 -2 16.25 0.8
-9 -9 2 17.03 2.06
9 9 -2 16.3 0.82
9 9 -2 15.78 0.82
-9 9 2 16.27 0.82
-7 -9 2 8.41 1.08
7 -9 -2 8.65 0.43
7 9 -2 7.88 0.44
-7 9 2 8.27 0.45
7 9 -2 8.59 0.45
5 -9 -2 0.56 0.07
-5 -9 2 0.54 0.14
5 9 -2 0.48 0.08
5 9 -2 0.34 0.08
-5 9 2 0.47 0.09
-5 9 2 0.37 0.11
3 -9 -2 1.32 0.1
3 -9 -2 1.21 0.1
-3 -9 2 1.41 0.23
-3 9 2 1.26 0.21
3 9 -2 1.18 0.12
-3 9 2 1.17 0.12
3 9 -2 1.34 0.12
1 -9 -2 1.86 0.13
1 -9 -2 1.6 0.12
-1 -9 2 2.12 0.29
-1 9 2 1.86 0.15
-1 9 2 1.91 0.28
1 9 -2 1.9 0.14
1 9 -2 1.68 0.14
-1 -9 -2 7.02 0.35
1 -9 2 7.65 0.89
-1 -9 -2 5.26 0.9
1 9 2 7.45 0.37
-1 9 -2 7.3 0.37
1 9 2 7.09 0.35
-1 9 -2 6.82 0.37
3 -9 2 18.37 2
-3 -9 -2 15.91 0.78
-3 -9 -2 12.56 2.02
-3 9 -2 16.24 0.8
3 9 2 16.09 0.78
3 9 2 16.33 0.8
-3 9 -2 16.7 0.79
-5 -9 -2 22.89 3.62
5 -9 2 33.36 3.59
-5 -9 -2 28.93 1.39
5 9 2 29.29 1.38
5 9 2 29.67 1.41
-5 9 -2 29.1 1.41
-5 9 -2 30.15 1.4
-7 -9 -2 0.72 0.07
7 -9 2 0.88 0.15
-7 -9 -2 0.57 0.19
-7 9 -2 0.78 0.09
7 9 2 0.79 0.08
-7 9 -2 0.66 0.1
-9 -9 -2 0.12 0.04
-9 -9 -2 0.07 0.11
-9 9 -2 0.15 0.06
-9 9 -2 0.12 0.06
9 9 2 0.11 0.05
-11 -9 -2 0.84 0.09
-11 -9 -2 0.76 0.07
-11 9 -2 0.7 0.09
-13 -9 -2 25.17 1.17
-13 -9 -2 23.56 1.17
-13 9 -2 24.17 1.18
-15 -9 -2 16.17 0.79
-15 9 -2 16.25 0.81
-17 -9 -2 5.85 0.31
-17 9 -2 5.5 0.32
-19 -9 -2 0.71 0.09
-19 9 -2 0.51 0.1
-21 -9 -2 1.9 0.15
-21 9 -2 1.74 0.16
20 -10 -2 0.15 0.1
-20 10 2 0.02 0.1
20 10 -2 0.18 0.11
18 -10 -2 0.6 0.11
18 10 -2 0.45 0.11
-18 10 2 0.26 0.11
16 -10 -2 23.71 1.09
-16 10 2 21.02 1.1
16 10 -2 21.01 1.1
14 10 -2 49.77 2.41
14 10 -2 48.63 2.4
-14 10 2 51.28 2.41
-12 10 2 27.22 1.36
12 10 -2 27.85 1.36
12 10 -2 27.9 1.37
10 10 -2 9.59 0.52
10 10 -2 9.58 0.52
-10 10 2 9.96 0.52
8 -10 -2 0.03 0.05
-8 10 2 0.01 0.07
8 10 -2 0.05 0.07
8 10 -2 -0.01 0.07
6 -10 -2 5.33 0.29
-6 -10 2 5.69 0.73
-6 10 2 5.41 0.32
6 10 -2 5.76 0.32
-6 10 2 5.44 0.7
6 10 -2 4.83 0.31
-4 -10 2 17.29 2.06
4 -10 -2 16.25 0.79
-4 10 2 17.6 2.04
-4 10 2 15.3 0.82
4 10 -2 15.36 0.82
4 10 -2 16.16 0.82
-2 -10 2 38.73 4.36
2 -10 -2 34.95 1.66
2 10 -2 33.47 1.7
-2 10 2 33.79 1.7
-2 10 2 36.39 4.35
2 10 -2 33.63 1.7
0 -10 2 38.84 4.28
0 -10 -2 35.76 1.63
0 -10 -2 25.84 4.28
0 10 2 35.96 1.65
0 10 -2 35.96 1.67
0 10 -2 35.86 1.67
0 10 2 33.86 1.67
-2 -10 -2 11.87 0.58
2 -10 2 13.16 1.48
-2 -10 -2 9.16 1.49
-2 10 -2 11.84 0.6
2 10 2 11.74 0.6
2 10 2 12.41 0.58
-2 10 -2 11.76 0.6
4 -10 2 0.17 0.09
-4 -10 -2 0.17 0.05
-4 -10 -2 0.2 0.13
-4 10 -2 0.17 0.06
-4 10 -2 0.13 0.07
4 10 2 0.34 0.08
4 10 2 0.07 0.05
-6 -10 -2 51.56 2.41
-6 -10 -2 39.46 6.29
6 -10 2 57.29 6.25
6 10 2 53.16 2.4
-6 10 -2 49.95 2.43
-6 10 -2 53.2 2.43
-8 -10 -2 43.13 2.03
-8 10 -2 43.75 2.05
-8 10 -2 40.96 2.04
-10 -10 -2 27.49 1.28
-10 -10 -2 26.89 1.29
-10 10 -2 26.16 1.31
-12 -10 -2 51.91 2.35
-12 -10 -2 48.37 2.38
-12 10 -2 49.71 2.4
-14 -10 -2 7.37 0.38
-14 10 -2 7.35 0.4
-16 -10 -2 5.19 0.28
-16 10 -2 5.07 0.3
-18 -10 -2 21.12 1.04
-18 10 -2 21.27 1.05
-20 10 -2 24.55 1.22
19 -11 -2 4.45 0.28
19 11 -2 3.81 0.28
-19 11 2 4.06 0.29
17 -11 -2 0.29 0.1
17 11 -2 0.25 0.11
-17 11 2 0.09 0.1
15 11 -2 0.4 0.11
-15 11 2 0.3 0.11
-13 11 2 0.29 0.1
13 11 -2 0.19 0.1
13 11 -2 0.03 0.09
11 11 -2 0.36 0.11
11 11 -2 0.39 0.1
-11 11 2 0.26 0.1
-9 11 2 -0.1 0.08
9 11 -2 -0.14 0.07
9 11 -2 -0.09 0.07
7 11 -2 0.04 0.08
7 11 -2 0.13 0.08
-7 11 2 0.01 0.08
5 -11 -2 -0.01 0.06
-5 -11 2 0 0.11
5 11 -2 0 0.07
-5 11 2 0.15 0.08
5 11 -2 -0.07 0.06
3 -11 -2 0.09 0.06
-3 -11 2 0.12 0.11
3 11 -2 0.14 0.07
-3 11 2 0.19 0.09
3 11 -2 0.14 0.07
-1 -11 2 0.06 0.1
1 -11 -2 0.08 0.06
1 11 -2 -0.01 0.06
-1 11 2 0.18 0.08
1 11 -2 -0.01 0.07
-1 -11 -2 0.38 0.07
-1 -11 -2 0.22 0.13
1 -11 2 0.27 0.12
1 11 2 0.32 0.06
1 11 2 0.23 0.08
-1 11 -2 0.27 0.08
-1 11 -2 0.32 0.08
-3 -11 -2 1.41 0.31
3 -11 2 1.98 0.27
-3 11 -2 1.39 0.14
3 11 2 1.79 0.13
-3 11 -2 1.7 0.15
5 -11 2 0.35 0.12
-5 11 -2 0.34 0.08
-5 11 -2 0.42 0.09
-7 11 -2 14.42 0.7
-7 11 -2 13.09 0.7
-9 11 -2 2.14 0.17
-9 11 -2 2.33 0.18
-11 11 -2 6.65 0.37
-13 11 -2 7.31 0.4
-15 11 -2 1.28 0.14
-17 11 -2 -0.04 0.08
-19 11 -2 0.11 0.09
16 -12 -2 8.64 0.49
-16 12 2 9.28 0.51
16 12 -2 8.93 0.51
-14 12 2 25.11 1.26
14 12 -2 25.04 1.25
-12 12 2 29.29 1.44
12 12 -2 28.94 1.44
10 12 -2 19.82 0.97
-10 12 2 18.74 0.97
10 12 -2 18.5 0.96
8 12 -2 5.01 0.31
-8 12 2 4.82 0.31
8 12 -2 5.04 0.31
6 12 -2 0.84 0.12
6 12 -2 0.8 0.12
-6 12 2 0.61 0.11
-4 12 2 11.01 0.6
4 12 -2 11.6 0.6
4 12 -2 11.41 0.6
2 12 -2 21.45 1.06
2 12 -2 21.29 1.07
-2 12 2 21.39 1.07
0 -12 2 6.08 0.71
0 12 -2 4.75 0.31
0 12 2 4.71 0.32
0 12 -2 5.14 0.31
-2 -12 -2 0.12 0.12
2 -12 2 0.05 0.11
-2 12 -2 0.28 0.08
-2 12 -2 0 0.07
-4 12 -2 0.54 0.1
-4 12 -2 0.61 0.1
-6 12 -2 22.53 1.1
-6 12 -2 21.52 1.09
-8 12 -2 47.19 2.27
-8 12 -2 46.88 2.26
-10 12 -2 51.46 2.48
-12 12 -2 21.85 1.09
-14 12 -2 0.4 0.1
-16 12 -2 1.81 0.17
13 13 -2 0.32 0.11
-13 13 2 0.08 0.11
11 13 -2 3.67 0.25
-11 13 2 2.98 0.25
-9 13 2 6.59 0.4
9 13 -2 7 0.41
9 13 -2 6.95 0.4
-7 13 2 6.08 0.37
7 13 -2 6.12 0.36
7 13 -2 5.93 0.37
5 13 -2 2.61 0.22
5 13 -2 2.32 0.21
-5 13 2 2.95 0.22
-3 13 2 0.34 0.11
3 13 -2 0.07 0.09
3 13 -2 0.05 0.08
1 13 -2 11.22 0.59
1 13 -2 10.91 0.59
-1 13 -2 11.13 0.58
-1 13 -2 10.62 0.58
-3 13 -2 3.54 0.25
-3 13 -2 3.72 0.25
-5 13 -2 5.08 0.32
-5 13 -2 5.4 0.32
-7 13 -2 -0.07 0.07
-7 13 -2 -0.17 0.08
-9 13 -2 1.79 0.17
-11 13 -2 1.12 0.14
-13 13 -2 2.91 0.23
-10 14 2 2.21 0.21
10 14 -2 2.11 0.2
8 14 -2 0.35 0.11
8 14 -2 0.46 0.12
6 14 -2 4.18 0.28
6 14 -2 3.84 0.27
4 14 -2 14.56 0.76
4 14 -2 14.38 0.76
2 14 -2 14.6 0.77
2 14 -2 14.82 0.77
0 14 -2 8.75 0.5
0 14 -2 9.23 0.51
-2 14 -2 1.53 0.16
-2 14 -2 1.55 0.17
-4 14 -2 1.96 0.18
-4 14 -2 1.36 0.16
-6 14 -2 5.44 0.34
-6 14 -2 5.5 0.34
-8 14 -2 8.92 0.5
-8 14 -2 9.15 0.5
-10 14 -2 7.82 0.45
3 15 -2 -0.26 0.09
3 15 -2 0.21 0.11
1 15 -2 5.52 0.35
1 15 -2 5.69 0.36
-1 15 -2 9.89 0.56
-1 15 -2 10.06 0.55
-3 15 -2 11.59 0.62
-3 15 -2 11.34 0.62
26 0 -3 0.12 0.1
-24 0 3 -0.02 0.08
24 0 -3 0.02 0.08
-22 0 3 -0.01 0.07
22 0 -3 0.13 0.08
-20 0 3 0.03 0.06
-20 0 3 0 0.09
20 0 -3 0.01 0.07
18 0 -3 0.04 0.07
-18 0 3 0.04 0.08
-18 0 3 0 0.06
-16 0 3 -0.02 0.05
16 0 -3 -0.02 0.05
16 0 -3 -0.03 0.06
-16 0 3 0.07 0.08
-16 0 3 -0.01 0.06
16 0 -3 -0.11 0.04
14 0 -3 -0.05 0.05
14 0 -3 0.03 0.05
-14 0 3 -0.07 0.04
-14 0 3 0.02 0.07
14 0 -3 0.05 0.05
-14 0 3 -0.05 0.04
-12 0 3 -0.06 0.03
12 0 -3 0.03 0.04
-12 0 3 0.03 0.07
12 0 -3 0.05 0.05
12 0 -3 -0.04 0.04
-12 0 3 -0.05 0.04
10 0 -3 0.05 0.04
-10 0 3 -0.03 0.03
10 0 -3 0.05 0.04
-10 0 3 0.02 0.04
8 0 -3 0.02 0.04
-8 0 3 0.08 0.04
8 0 -3 0.04 0.04
-8 0 3 -0.01 0.03
-6 0 3 0.06 0.03
6 0 -3 0.02 0.04
6 0 -3 0.05 0.03
-6 0 3 0.02 0.03
-4 0 3 0.01 0.03
-4 0 3 -0.02 0.03
4 0 -3 0.05 0.03
4 0 -3 -0.04 0.03
-4 0 3 -0.08 0.03
2 0 -3 0.02 0.02
2 0 -3 0.03 0.03
-2 0 3 -0.02 0.02
0 0 -3 -0.02 0.02
0 0 3 -0.02 0.02
0 0 -3 0.02 0.03
-2 0 -3 0.01 0.02
2 0 3 -0.02 0.02
-2 0 -3 0 0.02
-2 0 -3 0 0.02
2 0 3 0.01 0.02
4 0 3 -0.01 0.02
-4 0 -3 0.05 0.03
-4 0 -3 -0.01 0.02
4 0 3 0.02 0.02
6 0 3 -0.01 0.02
-6 0 -3 0.05 0.03
6 0 3 0.01 0.02
8 0 3 0 0.03
8 0 3 -0.01 0.03
-8 0 -3 0.03 0.02
-8 0 -3 0 0.02
-8 0 -3 0.01 0.02
-10 0 -3 0 0.02
-10 0 -3 0 0.03
10 0 3 0.01 0.03
-10 0 -3 0.03 0.02
12 0 3 0.04 0.06
12 0 3 0 0.03
-12 0 -3 0.06 0.02
-12 0 -3 0.01 0.03
-12 0 -3 0 0.04
-14 0 -3 0.02 0.04
14 0 3 -0.05 0.03
-14 0 -3 0.06 0.03
-14 0 -3 0.01 0.04
14 0 3 0.03 0.07
14 0 3 0.05 0.04
16 0 3 0.03 0.07
16 0 3 0.01 0.04
16 0 3 -0.07 0.05
-16 0 -3 -0.04 0.04
-18 0 -3 -0.03 0.04
18 0 3 0.04 0.08
18 0 3 -0.01 0.05
-20 0 -3 0.03 0.04
20 0 3 0.12 0.06
-22 0 -3 -0.04 0.05
22 0 3 0.02 0.06
-24 0 -3 -0.03 0.06
24 0 3 0.18 0.08
-26 0 -3 -0.06 0.07
-26 0 -3 -0.01 0.07
26 0 3 0.04 0.08
25 -1 -3 15.64 0.83
25 1 -3 16.89 0.84
-25 1 3 15.55 0.82
23 -1 -3 14.9 0.77
-23 1 3 14.73 0.76
23 1 -3 15.19 0.78
-21 -1 3 0.56 0.09
-21 -1 3 0.8 0.17
21 -1 -3 0.61 0.1
-21 1 3 0.71 0.1
21 1 -3 0.8 0.11
-19 -1 3 8.84 0.47
19 -1 -3 9.09 0.48
-19 -1 3 9.48 1.14
-19 1 3 9.09 1.13
-19 1 3 8.57 0.47
19 1 -3 8.6 0.48
-17 -1 3 24.08 1.24
-17 -1 3 25.72 3.16
17 -1 -3 26.32 1.24
17 -1 -3 25.96 1.24
-17 1 3 26.02 3.15
-17 1 3 26.01 1.22
-17 1 3 24.67 1.24
17 1 -3 24.56 1.24
17 1 -3 25.81 1.25
-15 -1 3 88.16 10.6
-15 -1 3 85.35 4.01
-15 -1 3 85.46 4.09
15 -1 -3 84.29 4.07
15 -1 -3 87.52 4.02
15 -1 -3 87.81 4.09
-15 1 3 80.96 10.59
-15 1 3 84.59 4.09
15 1 -3 89.05 4.1
-15 1 3 87.58 4.01
15 1 -3 87.78 4.08
13 -1 -3 73.79 3.24
13 -1 -3 73.12 3.29
-13 -1 3 67.36 8.55
-13 -1 3 71.52 3.24
13 -1 -3 70.11 3.3
-13 -1 3 67.97 3.3
-13 1 3 67.57 3.24
-13 1 3 60.68 8.54
-13 1 3 72.63 3.3
13 1 -3 69.65 3.29
13 1 -3 70.34 3.31
11 -1 -3 9.43 0.48
11 -1 -3 9.53 0.48
-11 -1 3 8.38 1.21
-11 -1 3 10.01 0.48
-11 -1 3 9.37 0.48
11 -1 -3 9.22 0.47
-11 1 3 10.1 0.47
11 1 -3 10.01 0.49
11 1 -3 9.73 0.48
-11 1 3 9.45 0.48
-9 -1 3 0.69 0.07
-9 -1 3 0.53 0.14
9 -1 -3 0.8 0.07
9 -1 -3 0.61 0.07
9 -1 -3 0.72 0.07
-9 -1 3 0.68 0.07
-9 1 3 0.61 0.06
9 1 -3 0.55 0.07
-9 1 3 0.74 0.07
9 1 -3 0.59 0.07
-7 -1 3 148.48 7.12
7 -1 -3 154.92 6.98
7 -1 -3 150.34 7.08
-7 -1 3 157.12 6.98
7 -1 -3 144.1 7.12
-7 1 3 152.58 7.12
7 1 -3 146.6 7.12
-7 1 3 153.65 6.97
5 -1 -3 313.78 15.24
-5 -1 3 329.92 15.33
5 -1 -3 314.78 15.33
5 1 -3 317.35 15.35
-5 1 3 327.85 15.03
5 1 -3 328.95 15.24
-5 1 3 333.3 15.24
-5 1 3 340.2 15.33
-3 -1 3 88.21 4.15
3 -1 -3 86.02 4.15
3 -1 -3 84.57 4.18
-3 1 3 87.44 4.15
-3 1 3 90.42 4.09
3 1 -3 92.63 4.17
3 1 -3 88.1 4.16
-3 1 3 90.4 4.18
1 -1 -3 13.25 0.66
-1 -1 3 13.73 0.66
1 -1 -3 13.31 0.66
-1 1 3 13.9 0.66
1 1 -3 13.8 0.66
1 1 -3 14.55 0.66
-1 -1 -3 0.52 0.04
-1 -1 -3 0.5 0.04
1 -1 3 0.56 0.05
-1 1 -3 0.45 0.03
1 1 3 0.46 0.04
-1 1 -3 0.36 0.03
-1 1 -3 0.46 0.05
1 1 3 0.42 0.03
3 -1 3 2.23 0.12
-3 -1 -3 2.17 0.12
-3 -1 -3 2.1 0.11
3 -1 3 2.34 0.12
3 1 3 2.14 0.11
3 1 3 2.12 0.11
-3 1 -3 2.14 0.12
-5 -1 -3 61.29 2.74
-5 -1 -3 56.55 2.79
5 -1 3 57.73 2.74
-5 -1 -3 57 2.79
5 -1 3 58.14 2.78
-5 1 -3 61.3 2.74
-5 1 -3 60.63 2.78
5 1 3 58.68 2.77
5 1 3 60.5 2.73
-7 -1 -3 95.47 4.4
-7 -1 -3 91.74 4.4
7 -1 3 92.45 4.32
-7 -1 -3 93.42 4.32
7 1 3 93.34 4.32
7 1 3 94.06 4.38
9 -1 3 58.6 2.62
-9 -1 -3 56.2 2.66
-9 -1 -3 59.85 2.66
-9 1 -3 58.67 2.62
9 1 3 58.35 2.65
9 1 3 60.12 2.62
9 1 3 42.49 6.92
-11 -1 -3 23.64 1.12
-11 -1 -3 25.35 1.13
-11 -1 -3 24 1.11
11 -1 3 23.09 1.12
-11 1 -3 24.46 1.12
11 1 3 24.34 1.11
11 1 3 23.77 1.12
-11 1 -3 24 1.11
11 1 3 19.46 2.92
13 -1 3 0.13 0.07
-13 -1 -3 0.17 0.05
13 -1 3 0.08 0.04
-13 -1 -3 0.03 0.04
-13 1 -3 0.1 0.02
-13 1 -3 0.09 0.05
13 1 3 0.14 0.04
13 1 3 0.01 0.04
13 1 3 0.05 0.08
-13 1 -3 0.14 0.04
15 -1 3 31.08 1.44
15 -1 3 29.97 1.42
-15 -1 -3 29.87 1.42
15 -1 3 27.02 3.71
-15 1 -3 33.81 1.44
15 1 3 30.29 1.42
-15 1 -3 29.71 1.42
-15 1 -3 31.57 1.43
15 1 3 27.98 3.72
15 1 3 28.98 1.43
-17 -1 -3 33.92 1.64
17 -1 3 35.77 4.27
17 -1 3 33.81 1.65
17 1 3 36.3 4.27
17 1 3 34.22 1.65
-17 1 -3 34.39 1.64
-17 1 -3 33.8 1.64
17 1 3 33.99 1.64
-19 -1 -3 39.39 1.87
19 -1 3 39.56 1.88
19 1 3 39.07 1.88
-19 1 -3 39.28 1.87
21 -1 3 49.24 2.37
-21 -1 -3 48.8 2.35
-21 1 -3 50.82 2.36
21 1 3 49.29 2.36
-23 -1 -3 3.41 0.21
23 -1 3 3.86 0.24
23 1 3 3.64 0.23
-23 1 -3 3.7 0.21
-23 1 -3 3.3 0.21
-25 -1 -3 3.09 0.2
25 -1 3 3.06 0.22
-25 1 -3 3.55 0.21
-25 1 -3 3.35 0.21
25 1 3 3.47 0.23
27 -1 3 6.17 0.36
-27 -1 -3 6.18 0.34
-27 -1 -3 5.91 0.34
-27 1 -3 6.13 0.34
26 -2 -3 2.46 0.22
26 2 -3 2.58 0.23
24 -2 -3 0.28 0.1
-24 2 3 0.03 0.09
24 2 -3 0.09 0.09
22 -2 -3 2.4 0.21
-22 -2 3 2.82 0.41
22 2 -3 3.18 0.22
-22 2 3 2.79 0.21
-20 -2 3 4.49 0.58
-20 -2 3 3.9 0.25
20 -2 -3 4.15 0.27
-20 2 3 4.54 0.27
20 2 -3 4.16 0.27
18 -2 -3 0.11 0.07
-18 -2 3 0.13 0.06
-18 -2 3 0.13 0.11
-18 2 3 0.1 0.07
-18 2 3 0.2 0.08
18 2 -3 0.04 0.06
-16 -2 3 0.71 0.09
16 -2 -3 0.57 0.08
-16 -2 3 0.66 0.09
-16 -2 3 0.69 0.15
16 -2 -3 0.58 0.09
16 -2 -3 0.72 0.09
-16 2 3 0.63 0.08
-16 2 3 0.6 0.14
16 2 -3 0.76 0.1
-16 2 3 0.5 0.09
16 2 -3 0.7 0.1
-14 -2 3 2.93 0.18
14 -2 -3 3.12 0.19
-14 -2 3 3 0.19
14 -2 -3 3.48 0.2
-14 -2 3 3.12 0.43
14 -2 -3 3.35 0.19
-14 2 3 3.17 0.19
14 2 -3 3.28 0.19
-14 2 3 2.61 0.41
-14 2 3 2.9 0.19
14 2 -3 3.12 0.2
-12 -2 3 14.68 0.7
12 -2 -3 14.79 0.7
12 -2 -3 14.71 0.71
12 -2 -3 14.25 0.71
-12 -2 3 14.15 0.71
-12 -2 3 13.93 1.81
12 2 -3 14.53 0.72
-12 2 3 14.13 0.7
-12 2 3 14.5 0.71
12 2 -3 14.35 0.72
-10 -2 3 12.87 0.62
10 -2 -3 12.62 0.62
-10 -2 3 11.83 0.62
10 -2 -3 13.17 0.61
-10 -2 3 11.06 1.58
10 -2 -3 12.87 0.62
10 2 -3 13.2 0.63
10 2 -3 12.71 0.63
-10 2 3 12.69 0.61
-10 2 3 12.92 0.62
8 -2 -3 105.41 5.11
-8 -2 3 112.92 5.02
-8 -2 3 108.16 5.11
-8 -2 3 92.24 13.29
8 -2 -3 108.68 5.08
8 -2 -3 109.64 5.01
8 2 -3 108.39 5.09
8 2 -3 110.79 5.12
-8 2 3 109.76 5.01
-8 2 3 116.32 5.12
-6 -2 3 19.94 0.95
6 -2 -3 19.78 0.95
6 -2 -3 19.59 0.93
6 -2 -3 19.71 0.95
-6 2 3 19.53 0.93
6 2 -3 19.14 0.95
-6 2 3 20.62 0.96
6 2 -3 19.78 0.95
4 -2 -3 0.61 0.05
4 -2 -3 0.56 0.04
4 -2 -3 0.28 0.05
-4 2 3 0.41 0.04
-4 2 3 0.41 0.04
-4 2 3 0.38 0.05
4 2 -3 0.44 0.05
4 2 -3 0.29 0.06
4 2 -3 0.33 0.05
2 -2 -3 1.75 0.1
2 -2 -3 1.58 0.09
-2 2 3 1.64 0.09
2 2 -3 1.95 0.1
-2 2 3 1.62 0.1
2 2 -3 1.53 0.11
-2 2 3 1.52 0.08
0 -2 -3 0.9 0.07
0 -2 -3 0.85 0.05
0 -2 -3 0.89 0.06
0 2 3 0.75 0.05
0 2 -3 0.82 0.07
0 2 -3 0.85 0.05
-2 -2 -3 0.32 0.02
-2 -2 -3 0.4 0.04
2 2 3 0.28 0.02
-2 2 -3 0.5 0.05
-4 -2 -3 11.74 0.55
-4 -2 -3 11.36 0.53
4 -2 3 10.97 0.55
-4 2 -3 11.66 0.56
4 2 3 11.11 0.53
4 2 3 11.59 0.54
6 -2 3 65.33 3.08
-6 -2 -3 64.82 3.13
-6 -2 -3 67.85 3.07
-6 2 -3 67.16 3.12
6 2 3 66.64 3.07
6 2 3 67.41 3.11
6 2 3 65.34 3.11
-8 -2 -3 1.35 0.08
8 -2 3 1.46 0.09
-8 -2 -3 1.5 0.09
-8 -2 -3 1.5 0.09
8 2 3 1.34 0.08
8 2 3 1.13 0.21
8 2 3 1.37 0.08
-8 2 -3 1.42 0.11
8 2 3 1.33 0.09
-10 -2 -3 7.51 0.37
10 -2 3 8.03 0.39
-10 -2 -3 8.12 0.39
10 2 3 7.84 0.38
10 2 3 7.59 0.38
10 2 3 6.39 0.98
-10 2 -3 8.3 0.39
12 -2 3 22.01 1.04
-12 -2 -3 23.18 1.05
-12 -2 -3 22.01 1.03
12 2 3 20.99 1.03
-12 2 -3 23.05 1.04
-12 2 -3 21.48 1.03
12 2 3 22.18 1.04
12 2 3 18.83 2.7
14 -2 3 28.54 4.27
-14 -2 -3 35.36 1.63
14 -2 3 36.71 1.64
-14 2 -3 35.29 1.64
14 2 3 33.91 4.29
14 2 3 35.54 1.63
14 2 3 35.57 1.65
-14 2 -3 36.58 1.64
-16 -2 -3 0.75 0.09
16 -2 3 0.79 0.09
16 -2 3 0.92 0.16
-16 2 -3 0.9 0.1
16 2 3 0.89 0.08
16 2 3 0.69 0.08
-16 2 -3 0.7 0.06
-18 -2 -3 3.94 0.21
18 -2 3 4.01 0.24
-18 -2 -3 4.18 0.24
-18 2 -3 4.18 0.22
18 2 3 3.94 0.23
-20 -2 -3 0.1 0.05
20 -2 3 -0.05 0.05
-20 2 -3 -0.05 0.05
20 2 3 -0.15 0.05
22 -2 3 18.31 0.89
-22 -2 -3 17.51 0.87
-22 2 -3 17.38 0.87
22 2 3 17.47 0.88
-22 2 -3 18.29 0.87
24 -2 3 10.52 0.54
-24 -2 -3 9.75 0.51
-24 2 -3 9.88 0.51
24 2 3 10.11 0.53
26 -2 3 4.53 0.29
-26 -2 -3 4.65 0.26
-26 2 -3 4.39 0.26
25 -3 -3 5.85 0.36
-25 3 3 5.07 0.35
25 3 -3 6.63 0.38
23 -3 -3 4.32 0.28
23 3 -3 3.97 0.28
-23 3 3 4.63 0.28
-21 -3 3 2.97 0.46
21 -3 -3 3.56 0.23
-21 3 3 3.51 0.22
21 3 -3 3.24 0.24
19 -3 -3 0.27 0.08
-19 -3 3 0.19 0.12
-19 -3 3 0.14 0.06
-19 3 3 0.36 0.09
19 3 -3 0.18 0.08
17 -3 -3 26.5 1.3
-17 -3 3 29.23 3.33
-17 -3 3 26.79 1.3
-17 3 3 27.23 1.28
17 3 -3 25.38 1.31
-17 3 3 25.39 3.3
17 3 -3 25.89 1.31
-17 3 3 27.38 1.31
-15 -3 3 63.42 7.04
-15 -3 3 56.8 2.72
15 -3 -3 59.44 2.72
15 -3 -3 59.18 2.67
-15 -3 3 54.83 2.68
15 -3 -3 57.9 2.71
-15 3 3 45.67 7.01
15 3 -3 58.12 2.72
-15 3 3 59.07 2.73
-15 3 3 55.07 2.67
15 3 -3 58.35 2.73
-13 -3 3 50.17 2.43
13 -3 -3 54.37 2.43
13 -3 -3 51.14 2.47
-13 -3 3 51.72 6.39
-13 -3 3 49.82 2.46
13 -3 -3 53.32 2.46
-13 3 3 53.31 2.47
13 3 -3 52.49 2.48
13 3 -3 51.09 2.47
-13 3 3 50.53 2.42
11 -3 -3 13.49 0.66
11 -3 -3 13.99 0.67
11 -3 -3 14.1 0.68
-11 -3 3 13.85 1.72
-11 -3 3 14.08 0.67
-11 -3 3 13.4 0.67
11 3 -3 12.89 0.68
-11 3 3 14.18 0.68
-11 3 3 12.91 0.66
11 3 -3 13.15 0.68
-7 -3 3 0.45 0.13
7 -3 -3 0.35 0.06
-7 -3 3 0.53 0.05
7 -3 -3 0.47 0.05
7 -3 -3 0.46 0.06
-7 3 3 0.29 0.06
7 3 -3 0.39 0.06
7 3 -3 0.39 0.06
-7 3 3 0.42 0.05
-5 -3 3 18.95 0.92
5 -3 -3 18.13 0.93
5 -3 -3 19.37 0.9
5 -3 -3 18.8 0.91
5 3 -3 18.97 0.92
-5 3 3 20.29 0.93
-5 3 3 18.43 0.9
5 3 -3 20.48 0.93
3 -3 -3 23.68 1.19
3 -3 -3 24.43 1.18
3 -3 -3 23.65 1.15
3 3 -3 26.3 1.19
-3 3 3 23.36 1.15
3 3 -3 26.46 1.18
-3 3 3 26.32 1.19
1 -3 -3 0.2 0.04
1 -3 -3 0.18 0.03
1 3 -3 0.21 0.05
1 3 -3 0.24 0.03
-1 3 3 0.24 0.04
-1 -3 -3 0.07 0.03
1 3 3 0.13 0.03
-1 3 -3 0.12 0.02
-1 3 -3 0.03 0.01
-1 3 -3 0.05 0.04
3 -3 3 16.25 0.8
-3 -3 -3 16.91 0.79
-3 -3 -3 16.3 0.81
-3 -3 -3 18.22 0.82
-3 3 -3 17.18 0.82
-5 -3 -3 69.73 3.38
-5 -3 -3 72.63 3.39
5 -3 3 71.14 3.33
-5 -3 -3 71.91 3.31
-5 3 -3 72.77 3.37
-7 -3 -3 15.77 0.78
7 -3 3 15.59 0.78
-7 -3 -3 16.91 0.77
-7 -3 -3 16.74 0.79
-7 3 -3 17.12 0.78
7 3 3 16.61 0.77
7 3 3 16.93 0.77
-7 3 -3 17.17 0.79
7 3 3 13.21 2.03
7 3 3 16.76 0.77
9 -3 3 64.21 2.98
-9 -3 -3 63.57 3.02
-9 -3 -3 66.18 3.03
-9 3 -3 69.95 2.99
9 3 3 64.52 2.97
9 3 3 56.67 7.88
9 3 3 63.46 3.01
11 -3 3 62.75 2.88
-11 -3 -3 61.34 2.92
-11 -3 -3 59.08 2.87
-11 -3 -3 60.41 2.91
-11 3 -3 69.29 2.88
11 3 3 57.17 7.59
11 3 3 61.42 2.87
11 3 3 62.02 2.9
13 -3 3 6.68 0.35
-13 -3 -3 6.18 0.34
-13 3 -3 7.1 0.35
13 3 3 6.34 0.33
13 3 3 6.73 0.34
-13 3 -3 6.59 0.32
-15 -3 -3 3.03 0.18
15 -3 3 2.72 0.42
-15 -3 -3 3.12 0.17
15 -3 3 2.91 0.19
15 3 3 3.29 0.18
15 3 3 3.01 0.19
-15 3 -3 3.47 0.21
-15 3 -3 3.44 0.16
-17 -3 -3 39.99 1.88
-17 -3 -3 39.66 1.89
17 3 3 39.63 1.88
-17 3 -3 39.89 1.89
-17 3 -3 40.65 1.89
17 3 3 39.51 1.9
19 -3 3 15.51 0.8
-19 -3 -3 16.16 0.78
-19 3 -3 15.53 0.78
-19 3 -3 16.27 0.78
19 3 3 16.99 0.8
-21 -3 -3 3.24 0.18
21 -3 3 3.21 0.21
21 3 3 3.24 0.2
-21 3 -3 2.96 0.18
23 -3 3 0.03 0.07
-23 -3 -3 0.08 0.06
-23 3 -3 -0.01 0.06
-25 -3 -3 4.46 0.27
25 -3 3 5.42 0.31
-25 3 -3 4.71 0.28
-26 4 3 0.22 0.11
24 -4 -3 4.97 0.32
-24 4 3 5.38 0.32
24 4 -3 4.84 0.32
22 -4 -3 14.23 0.73
-22 4 3 13.59 0.73
22 4 -3 14.54 0.74
20 -4 -3 23.32 1.18
-20 -4 3 25.23 2.99
20 4 -3 22.9 1.19
-20 4 3 23.97 1.18
18 -4 -3 18.23 0.93
-18 -4 3 20.46 2.34
-18 4 3 18.47 0.93
18 4 -3 17.17 0.93
16 -4 -3 0.53 0.08
-16 -4 3 0.58 0.08
-16 -4 3 0.7 0.17
16 -4 -3 0.66 0.09
16 4 -3 0.64 0.09
-16 4 3 0.46 0.09
16 4 -3 0.53 0.09
-16 4 3 0.45 0.08
-14 -4 3 9.38 1.14
-14 -4 3 8.82 0.45
14 -4 -3 8.99 0.46
-14 -4 3 8.67 0.46
14 -4 -3 8.65 0.46
14 -4 -3 8.69 0.45
-14 4 3 8.46 0.45
14 4 -3 9.08 0.47
14 4 -3 8.63 0.47
-14 4 3 8.89 0.46
12 -4 -3 55.2 2.6
-12 -4 3 55.08 6.72
12 -4 -3 53.05 2.58
-12 -4 3 53.73 2.59
12 -4 -3 55.69 2.55
-12 -4 3 54.3 2.55
12 4 -3 52.9 2.6
-12 4 3 53.61 2.54
-12 4 3 57.49 2.6
12 4 -3 53.75 2.59
-10 -4 3 47.31 6.01
-10 -4 3 44.88 2.31
10 -4 -3 50.42 2.32
10 -4 -3 49.87 2.31
10 -4 -3 48.54 2.27
-10 4 3 48.5 2.33
10 4 -3 51.32 2.33
-10 4 3 48.9 2.27
-8 -4 3 50.18 6.35
8 -4 -3 51.9 2.39
-8 -4 3 50.21 2.44
8 -4 -3 51.68 2.43
8 -4 -3 53.48 2.45
-8 4 3 52.57 2.45
8 4 -3 51.56 2.45
-8 4 3 50.3 2.39
8 4 -3 51.03 2.44
6 -4 -3 99.1 4.55
6 -4 -3 98.76 4.48
-6 -4 3 95.07 4.57
6 -4 -3 99.56 4.58
-6 -4 3 85.85 11.9
-6 4 3 96.93 4.48
6 4 -3 97.21 4.56
6 4 -3 98.29 4.58
-6 4 3 101.16 4.59
4 -4 -3 6.42 0.31
4 -4 -3 6.25 0.3
4 -4 -3 5.75 0.31
-4 -4 3 5.21 0.79
-4 4 3 5.99 0.3
-4 4 3 6.82 0.32
4 4 -3 6.08 0.32
4 4 -3 6.47 0.3
4 4 -3 6.15 0.31
2 -4 -3 9.16 0.43
2 -4 -3 8.83 0.44
2 -4 -3 9.24 0.45
2 4 -3 8.73 0.46
-2 4 3 8.7 0.45
2 4 -3 9.65 0.44
2 4 -3 9.63 0.44
0 -4 -3 38.1 1.77
0 -4 -3 36.67 1.79
0 -4 -3 38.45 1.82
0 -4 -3 38.37 1.79
0 4 -3 38.96 1.82
0 4 -3 38.21 1.81
0 4 -3 38.21 1.81
0 4 -3 39.54 1.81
0 4 3 37.46 1.82
-2 -4 -3 55.45 2.52
-2 -4 -3 54.32 2.45
2 4 3 56.42 2.52
-2 4 -3 55.5 2.5
-2 4 -3 55.83 2.51
2 4 3 39.6 6.53
-2 4 -3 54.81 2.51
4 -4 3 20.76 0.97
-4 -4 -3 21.22 0.98
-4 -4 -3 21.05 0.95
-4 4 -3 21.09 0.98
4 4 3 16.86 2.53
4 4 3 21.27 0.98
-6 -4 -3 2.84 0.15
6 -4 3 2.65 0.16
-6 -4 -3 2.74 0.14
-6 4 -3 2.88 0.16
-8 -4 -3 0.09 0.03
8 -4 3 0.08 0.04
-8 -4 -3 0.08 0.03
8 4 3 0.05 0.02
-8 4 -3 0.12 0.04
8 4 3 0.14 0.08
-10 -4 -3 24.46 1.16
10 -4 3 25.06 1.16
10 4 3 23.7 3.04
-10 4 -3 25.15 1.15
-10 4 -3 25.43 1.17
10 4 3 22.74 1.16
-12 -4 -3 87.35 4.2
12 -4 3 86.46 4.14
-12 -4 -3 89.06 4.13
12 4 3 84.14 4.18
-12 4 -3 89.25 4.19
-12 4 -3 92.32 4.19
-12 4 -3 94.7 4.15
14 -4 3 113.96 5.49
-14 -4 -3 116.33 5.48
-14 -4 -3 115.51 5.57
-14 4 -3 120.03 5.57
14 4 3 118.56 5.48
-14 4 -3 121.48 5.57
-14 4 -3 122.73 5.49
14 4 3 116.52 5.54
-16 -4 -3 49.69 2.39
-16 -4 -3 49.81 2.36
16 4 3 51.04 2.36
-16 4 -3 51.14 2.39
16 4 3 50.28 2.39
-18 -4 -3 6.19 0.32
-18 -4 -3 6.21 0.34
18 4 3 6.48 0.33
-18 4 -3 6.12 0.32
-20 -4 -3 0.06 0.05
-20 4 -3 0.06 0.05
22 -4 3 11.79 0.63
-22 -4 -3 11.84 0.6
-22 4 -3 12.63 0.61
24 -4 3 16.89 0.86
-24 -4 -3 16.88 0.83
-24 4 -3 16.8 0.83
-26 -4 -3 4.5 0.28
26 -4 3 4.97 0.31
-26 4 -3 4.94 0.28
-25 5 3 3.17 0.25
25 5 -3 3 0.26
23 -5 -3 0.5 0.11
-23 5 3 0.61 0.12
23 5 -3 0.44 0.12
21 -5 -3 0.22 0.09
21 5 -3 0.34 0.1
-21 5 3 0.53 0.11
19 -5 -3 0.03 0.07
-19 5 3 0.01 0.08
19 5 -3 0.01 0.07
17 -5 -3 1.36 0.14
-17 -5 3 1.52 0.27
-17 5 3 1.35 0.14
17 5 -3 1.7 0.15
17 5 -3 1.36 0.15
15 -5 -3 9.69 0.49
15 -5 -3 8.41 0.49
-15 -5 3 10.19 1.23
15 5 -3 9.73 0.51
-15 5 3 9.53 0.48
-15 5 3 9.76 0.5
15 5 -3 9.22 0.51
-13 -5 3 1.37 0.12
13 -5 -3 1.69 0.13
-13 -5 3 1.99 0.28
13 -5 -3 1.45 0.13
13 -5 -3 1.8 0.14
-13 5 3 1.42 0.12
13 5 -3 1.51 0.14
13 5 -3 1.41 0.14
-13 5 3 1.37 0.13
11 -5 -3 0.25 0.05
-11 -5 3 0.32 0.05
11 -5 -3 0.27 0.06
-11 -5 3 0.35 0.13
11 -5 -3 0.23 0.06
11 5 -3 0.37 0.08
-11 5 3 0.23 0.07
11 5 -3 0.27 0.07
-11 5 3 0.34 0.06
9 -5 -3 15.66 0.75
-9 -5 3 15.48 1.91
9 -5 -3 14.75 0.74
-9 -5 3 14.82 0.74
9 -5 -3 15.27 0.73
-9 5 3 15.31 0.75
-9 5 3 14.59 0.72
9 5 -3 16.18 0.75
9 5 -3 14.1 0.75
-7 -5 3 24.39 1.18
7 -5 -3 24.4 1.18
7 -5 -3 25.44 1.16
-7 -5 3 23.51 3.07
7 -5 -3 25.18 1.19
7 5 -3 24.76 1.2
7 5 -3 25.99 1.2
-7 5 3 23.51 1.16
-7 5 3 24.85 1.2
-5 -5 3 1.24 0.21
5 -5 -3 1.35 0.1
5 -5 -3 1.14 0.08
5 -5 -3 1.11 0.08
5 5 -3 1.23 0.1
-5 5 3 1.3 0.1
5 5 -3 0.98 0.1
-5 5 3 1.09 0.08
3 -5 -3 4.37 0.22
3 -5 -3 4.62 0.22
-3 -5 3 3.75 0.58
3 -5 -3 4.31 0.22
3 -5 -3 4.34 0.23
3 5 -3 4.21 0.23
3 5 -3 4.66 0.22
-3 5 3 4.72 0.24
3 5 -3 4.11 0.24
1 -5 -3 11.04 0.52
1 -5 -3 10.88 0.49
1 -5 -3 11.53 0.5
1 -5 -3 10.55 0.5
-1 -5 3 9.21 1.32
1 5 -3 10.96 0.5
1 5 -3 11.12 0.53
-1 5 3 10.86 0.52
-1 5 3 7.93 1.31
-1 -5 -3 18.88 0.87
-1 -5 -3 18.54 0.89
-1 -5 -3 19.55 0.86
-1 -5 -3 19.58 0.88
-1 5 -3 18.89 0.89
1 5 3 18.84 0.9
1 5 3 14.81 2.31
-1 5 -3 19.28 0.9
-1 5 -3 18.6 0.88
3 -5 3 18.19 0.87
-3 -5 -3 19.23 0.87
-3 -5 -3 18.54 0.85
-3 5 -3 17.96 0.86
-3 5 -3 18.4 0.86
3 5 3 15.83 2.26
-3 5 -3 18.21 0.88
3 5 3 18.62 0.88
5 -5 3 0.77 0.08
-5 -5 -3 0.84 0.06
-5 -5 -3 0.71 0.06
-5 5 -3 0.71 0.05
-5 5 -3 0.67 0.08
5 5 3 0.83 0.07
5 5 3 0.73 0.16
-7 -5 -3 5.57 0.27
7 -5 3 4.67 0.28
-7 -5 -3 5.36 0.27
7 5 3 5.4 0.28
-7 5 -3 5.51 0.26
-7 5 -3 5.57 0.29
7 5 3 5.23 0.26
9 -5 3 10.84 0.54
-9 -5 -3 11.19 0.53
9 5 3 10.65 0.52
-9 5 -3 11.08 0.55
-9 5 -3 10.84 0.52
11 -5 3 6.16 0.34
-11 -5 -3 6.13 0.32
-11 -5 -3 6.44 0.32
-11 5 -3 6.45 0.31
11 5 3 5.97 0.32
-11 5 -3 7.09 0.35
-13 -5 -3 0.44 0.05
-13 -5 -3 0.42 0.06
13 5 3 0.29 0.05
-13 5 -3 0.29 0.05
-13 5 -3 0.29 0.08
-15 -5 -3 9.86 0.5
-15 -5 -3 10.53 0.51
-15 5 -3 10.05 0.5
15 5 3 10.53 0.51
-17 -5 -3 18.18 0.88
-17 -5 -3 17.98 0.87
-17 5 -3 18.1 0.87
17 5 3 17.96 0.88
-19 -5 -3 23.54 1.18
-19 5 -3 25.55 1.18
-21 -5 -3 1.48 0.11
-21 5 -3 1.38 0.12
-23 -5 -3 0.23 0.07
23 -5 3 0.39 0.09
-23 5 -3 0.21 0.08
25 -5 3 3.36 0.23
-25 -5 -3 3.06 0.2
-25 5 -3 2.91 0.2
24 -6 -3 2.67 0.23
24 6 -3 3 0.25
-24 6 3 2.63 0.23
22 -6 -3 4.26 0.29
22 6 -3 4.78 0.31
-22 6 3 4.74 0.3
20 -6 -3 4.23 0.27
-20 6 3 4.11 0.27
20 6 -3 4.74 0.3
18 -6 -3 10.35 0.57
18 6 -3 10.87 0.58
-18 6 3 11.33 0.58
16 -6 -3 13.06 0.67
-16 -6 3 14.2 1.68
16 6 -3 13 0.68
16 6 -3 12.6 0.68
-16 6 3 13.04 0.68
-14 -6 3 4.09 0.5
14 -6 -3 3.34 0.21
14 -6 -3 3.54 0.21
-14 6 3 2.99 0.2
-14 6 3 3.68 0.23
14 6 -3 2.9 0.23
14 6 -3 3.09 0.22
12 -6 -3 57.44 2.78
12 -6 -3 58.7 2.74
12 -6 -3 60.75 2.79
-12 -6 3 64.69 7.23
-12 6 3 57.5 2.8
-12 6 3 55.3 2.73
12 6 -3 59.02 2.8
12 6 -3 55.07 2.79
10 -6 -3 95.75 4.51
-10 -6 3 102.26 11.77
10 -6 -3 96.43 4.53
10 -6 -3 96.01 4.44
-10 6 3 97.3 4.54
10 6 -3 92.55 4.52
-10 6 3 92.93 4.44
10 6 -3 92.22 4.54
-8 -6 3 121.87 5.87
8 -6 -3 122.06 5.84
-8 -6 3 132.39 15.28
8 -6 -3 126.84 5.76
8 -6 -3 123.48 5.88
8 6 -3 124.91 5.89
-8 6 3 118.34 5.76
-8 6 3 129.91 5.89
8 6 -3 119.69 5.86
-6 -6 3 20.32 0.97
6 -6 -3 20.62 0.98
6 -6 -3 20.99 0.97
-6 -6 3 20.68 2.53
6 -6 -3 21.57 0.96
-6 6 3 15.6 2.5
6 6 -3 20.11 0.99
-6 6 3 21.64 0.99
6 6 -3 21.15 0.99
-6 6 3 19.55 0.95
-4 -6 3 0.09 0.08
4 -6 -3 0.11 0.04
4 -6 -3 0.14 0.04
4 -6 -3 0.01 0.03
4 6 -3 0.06 0.04
-4 6 3 0.07 0.07
4 6 -3 0.03 0.05
-4 6 3 0.02 0.04
-2 -6 3 19.46 2.61
2 -6 -3 22.49 0.99
2 -6 -3 21.93 1.01
2 -6 -3 21.38 0.98
2 6 -3 20.81 0.99
2 6 -3 21.08 1.02
-2 6 3 17.14 2.59
-2 6 3 21.61 1.02
2 6 -3 22.18 1.01
0 -6 -3 41.32 1.84
0 -6 -3 40.63 1.86
0 -6 3 35.17 4.82
0 -6 -3 41.8 1.81
0 6 3 40.05 1.87
0 6 -3 40.47 1.85
0 6 -3 40.11 1.87
0 6 3 32.76 4.81
2 -6 3 29.87 4.14
-2 -6 -3 34.24 1.6
-2 -6 -3 35.82 1.58
-2 6 -3 33.83 1.58
-2 6 -3 33.39 1.6
-2 6 -3 35.81 1.6
2 6 3 30.49 4.14
2 6 3 34.46 1.6
4 -6 3 5.69 0.29
-4 -6 -3 5.64 0.26
-4 -6 -3 5.69 0.28
4 -6 3 4.46 0.7
-4 6 -3 5.5 0.26
-4 6 -3 5.59 0.3
4 6 3 5.05 0.71
4 6 3 5.54 0.29
-4 6 -3 5.67 0.28
-6 -6 -3 6.26 0.31
-6 -6 -3 6.55 0.32
6 -6 3 5.97 0.34
-6 -6 -3 6.59 0.32
6 6 3 6.6 0.31
6 6 3 6.76 0.34
6 6 3 6.51 0.84
-6 6 -3 6.19 0.32
-6 6 -3 6.38 0.31
-6 6 -3 6.36 0.34
8 -6 3 16.34 0.83
-8 -6 -3 17.76 0.81
-8 -6 -3 17.35 0.83
8 6 3 17.58 0.81
-8 6 -3 16.92 0.82
-8 6 -3 16.83 0.84
-10 -6 -3 9.16 0.45
10 -6 3 9.67 0.47
-10 -6 -3 9 0.45
-10 6 -3 8.65 0.45
-10 6 -3 9.66 0.47
10 6 3 8.89 0.44
-12 -6 -3 22.09 1.07
-12 -6 -3 21.97 1.06
12 6 3 22.02 1.06
-12 6 -3 22.87 1.07
-14 -6 -3 35.09 1.68
-14 -6 -3 35.62 1.66
-14 6 -3 34.98 1.68
-16 -6 -3 13.85 0.7
-16 -6 -3 14.47 0.7
-16 6 -3 14.66 0.7
-18 -6 -3 12.8 0.64
-18 6 -3 13.25 0.65
-20 -6 -3 0.29 0.07
-20 6 -3 0.36 0.07
-22 -6 -3 6.87 0.37
-22 6 -3 7.02 0.37
-24 -6 -3 11.71 0.58
24 -6 3 11.02 0.61
-24 6 -3 11.48 0.59
23 -7 -3 0.01 0.09
23 7 -3 -0.04 0.09
-23 7 3 0.05 0.1
21 -7 -3 -0.03 0.08
-21 7 3 0.08 0.09
21 7 -3 -0.05 0.08
19 -7 -3 0.36 0.09
19 7 -3 0.35 0.1
-19 7 3 0.15 0.1
17 -7 -3 0.07 0.07
17 7 -3 0.07 0.09
17 7 -3 0.19 0.09
-17 7 3 0.11 0.09
15 -7 -3 2.92 0.19
-15 7 3 2.93 0.22
-15 7 3 3.14 0.19
15 7 -3 2.6 0.21
15 7 -3 2.62 0.22
13 -7 -3 6.77 0.38
-13 -7 3 8.1 0.94
13 -7 -3 7.12 0.37
-13 7 3 6.85 0.39
13 7 -3 7.01 0.39
13 7 -3 7.13 0.39
-13 7 3 6.26 0.37
11 -7 -3 1.4 0.11
11 -7 -3 1.39 0.12
-11 -7 3 1.48 0.25
-11 7 3 1.25 0.14
11 7 -3 1.37 0.14
-11 7 3 1.31 0.11
11 7 -3 1.36 0.13
9 -7 -3 6.09 0.33
9 -7 -3 6.22 0.33
9 -7 -3 6.81 0.33
-9 -7 3 6.56 0.84
-9 7 3 6.57 0.35
9 7 -3 6.52 0.35
-9 7 3 5.96 0.32
9 7 -3 5.89 0.35
-7 -7 3 3.14 0.42
7 -7 -3 3.02 0.17
7 -7 -3 3.07 0.17
7 -7 -3 2.56 0.17
-7 7 3 2.55 0.38
-7 7 3 2.62 0.16
-7 7 3 3.16 0.2
7 7 -3 2.71 0.18
7 7 -3 2.93 0.2
-5 -7 3 1.8 0.3
5 -7 -3 2.13 0.12
5 -7 -3 1.98 0.13
5 7 -3 2.17 0.14
5 7 -3 2.06 0.16
-5 7 3 2.15 0.15
-5 7 3 1.8 0.29
3 -7 -3 3.97 0.2
3 -7 -3 3.76 0.19
-3 -7 3 3.47 0.48
-3 7 3 3.34 0.21
3 7 -3 3.42 0.2
3 7 -3 3.47 0.21
-3 7 3 3.05 0.47
1 -7 -3 10.38 0.47
1 -7 -3 10.77 0.48
1 -7 -3 9.89 0.49
-1 -7 3 10.11 1.26
1 7 -3 10.03 0.48
-1 7 3 9.16 0.5
1 7 -3 9.55 0.51
-1 7 3 8.62 1.24
1 7 -3 9.96 0.49
1 -7 3 10.15 1.4
-1 -7 -3 10.77 0.54
-1 -7 -3 11.71 0.53
-1 -7 -3 11.51 0.53
1 7 3 11.1 1.4
-1 7 -3 11 0.56
-1 7 -3 10.95 0.53
1 7 3 11.21 0.56
3 -7 3 0.22 0.06
-3 -7 -3 0.33 0.05
-3 -7 -3 0.24 0.03
3 -7 3 0.17 0.09
-3 7 -3 0.23 0.03
3 7 3 0.17 0.06
-3 7 -3 0.25 0.06
3 7 3 0.22 0.1
5 -7 3 6.4 0.34
5 -7 3 5.66 0.82
-5 -7 -3 6.59 0.31
-5 -7 -3 6.22 0.32
5 7 3 6.63 0.31
-5 7 -3 6.11 0.34
-5 7 -3 6.26 0.31
5 7 3 6.5 0.34
-5 7 -3 6.58 0.32
7 -7 3 22.27 3.16
-7 -7 -3 26.02 1.2
-7 -7 -3 25.98 1.22
7 -7 3 26.21 1.22
-7 7 -3 25.9 1.24
-7 7 -3 26.35 1.21
7 7 3 25.77 1.2
-7 7 -3 25.5 1.22
-9 -7 -3 9.81 0.49
9 -7 3 8.72 1.25
-9 -7 -3 9.94 0.49
9 7 3 10.41 0.48
-9 7 -3 9.91 0.49
-9 7 -3 10.83 0.48
-9 7 -3 10.15 0.51
-11 -7 -3 3.02 0.17
-11 -7 -3 2.89 0.16
11 -7 3 2.53 0.38
-11 7 -3 2.74 0.16
-13 -7 -3 1.84 0.13
-13 -7 -3 2.22 0.14
-13 7 -3 2.01 0.13
-15 -7 -3 2.25 0.13
-15 -7 -3 2.02 0.15
-15 7 -3 1.84 0.14
-17 -7 -3 0.12 0.06
-17 -7 -3 0.07 0.05
-17 7 -3 0.01 0.06
-19 -7 -3 3.27 0.2
-19 7 -3 3.74 0.21
-21 -7 -3 5.49 0.31
-21 7 -3 5.78 0.31
-23 -7 -3 0.44 0.08
-23 7 -3 0.25 0.09
22 -8 -3 0.16 0.1
22 8 -3 0.14 0.11
-22 8 3 -0.14 0.1
20 -8 -3 0.19 0.09
-20 8 3 0.08 0.1
20 8 -3 0 0.08
18 -8 -3 10.45 0.56
-18 8 3 10.89 0.58
18 8 -3 10.41 0.58
16 -8 -3 3.64 0.23
-16 8 3 3.71 0.25
16 8 -3 3.37 0.24
16 8 -3 3.14 0.24
14 -8 -3 1.1 0.12
14 8 -3 1.2 0.13
-14 8 3 1.23 0.14
-14 8 3 1.01 0.11
14 8 -3 1.01 0.13
12 -8 -3 12.39 0.59
12 -8 -3 11.81 0.6
12 8 -3 11.53 0.62
-12 8 3 12 0.62
12 8 -3 12.23 0.62
-12 8 3 10.98 0.59
10 -8 -3 40.74 1.97
-10 -8 3 46.57 5.14
10 -8 -3 41.75 1.95
10 8 -3 40.21 1.99
10 8 -3 39.95 2
-10 8 3 40.41 1.94
-10 8 3 40.04 2
8 -8 -3 37.5 1.82
8 -8 -3 38.28 1.81
8 -8 -3 38.04 1.78
-8 -8 3 42.17 4.71
-8 8 3 37.85 1.84
8 8 -3 37.39 1.83
-8 8 3 35.73 4.68
8 8 -3 36.83 1.83
6 -8 -3 45.23 2.1
-6 -8 3 48.51 5.57
6 -8 -3 45.49 2.15
6 8 -3 45.56 2.16
6 8 -3 42.44 2.15
-6 8 3 45.01 2.16
-6 8 3 42.54 5.54
4 -8 -3 9.88 0.5
-4 -8 3 10.64 1.28
4 -8 -3 9.98 0.49
-4 8 3 10.69 0.52
-4 8 3 9.09 1.25
4 8 -3 9.74 0.51
4 8 -3 9.48 0.52
2 -8 -3 5.17 0.28
2 -8 -3 5.32 0.27
-2 -8 3 5.69 0.71
2 8 -3 5.1 0.3
2 8 -3 5.32 0.29
-2 8 3 5.21 0.69
-2 8 3 5.16 0.29
0 -8 3 22.02 2.69
0 -8 -3 22.12 1.02
0 -8 -3 22.2 1.04
0 8 -3 20.83 1.05
0 8 3 20.69 1.05
0 8 3 21.32 2.68
2 -8 3 19.71 2.47
-2 -8 -3 20.76 0.95
-2 -8 -3 19.91 0.96
2 8 3 19.77 0.97
-2 8 -3 18.78 0.97
-4 -8 -3 7.73 0.39
4 -8 3 7.72 1
4 -8 3 7.8 0.4
-4 8 -3 7.33 0.41
4 8 3 8.08 0.38
4 8 3 7.68 0.41
-6 -8 -3 3.73 0.2
6 -8 3 3.51 0.5
-6 8 -3 3.91 0.23
6 8 3 3.59 0.19
8 -8 3 1.69 0.26
-8 -8 -3 1.93 0.12
-8 -8 -3 1.67 0.11
-8 8 -3 1.6 0.14
-8 8 -3 1.65 0.12
-10 -8 -3 0.93 0.09
-10 -8 -3 0.97 0.08
-10 8 -3 0.68 0.1
-10 8 -3 0.8 0.08
-12 -8 -3 21.49 1.01
-12 -8 -3 21.02 1.02
-12 8 -3 20.93 1.03
-14 -8 -3 16.8 0.81
-14 8 -3 16.64 0.82
-16 -8 -3 16.85 0.83
-16 8 -3 17.25 0.84
-18 -8 -3 0.64 0.08
-18 8 -3 0.52 0.09
-20 -8 -3 1.36 0.12
-20 8 -3 1.35 0.13
-22 -8 -3 3.86 0.22
-22 8 -3 3.51 0.23
21 -9 -3 0.13 0.09
21 9 -3 0.22 0.11
-21 9 3 0.21 0.1
19 -9 -3 0.16 0.09
19 9 -3 -0.01 0.09
-19 9 3 -0.04 0.1
17 -9 -3 12.81 0.65
-17 9 3 12.47 0.66
17 9 -3 11.97 0.66
15 -9 -3 35.49 1.72
15 9 -3 35.69 1.74
15 9 -3 36.12 1.75
-15 9 3 35.46 1.75
13 -9 -3 10.33 0.54
13 9 -3 9.68 0.55
-13 9 3 10.74 0.56
13 9 -3 10.43 0.55
11 -9 -3 0.02 0.06
11 -9 -3 0.05 0.05
11 9 -3 0.02 0.07
-11 9 3 0.24 0.09
11 9 -3 0.18 0.08
9 -9 -3 5.76 0.3
9 9 -3 5.38 0.32
9 9 -3 5.29 0.33
-9 9 3 6.02 0.33
-7 -9 3 15.74 1.86
7 -9 -3 13.79 0.71
-7 9 3 14.13 0.74
7 9 -3 14.27 0.74
7 9 -3 14.7 0.75
-7 9 3 14.99 1.82
5 -9 -3 46.49 2.23
-5 -9 3 49.81 5.78
5 -9 -3 45.11 2.18
5 9 -3 45 2.24
-5 9 3 47.22 5.76
5 9 -3 46.21 2.24
-5 9 3 47.19 2.25
3 -9 -3 36.78 1.82
-3 -9 3 39.74 4.72
3 -9 -3 38.48 1.78
-3 9 3 38.62 4.7
-3 9 3 38.15 1.84
3 9 -3 38.07 1.83
3 9 -3 36.5 1.83
1 -9 -3 38.11 1.81
-1 -9 3 42.25 4.8
1 -9 -3 38.89 1.85
1 9 -3 35.23 1.86
-1 9 3 39.17 1.87
1 9 -3 38.69 1.86
-1 -9 -3 8.08 0.41
-1 -9 -3 8.17 0.42
1 -9 3 8.86 1.07
1 9 3 7.93 0.44
-1 9 -3 8.34 0.44
-1 9 -3 8.39 0.43
5 -9 3 19.21 2.3
-5 -9 -3 18.25 0.89
-5 9 -3 18.97 0.9
-5 9 -3 17.27 0.91
-7 -9 -3 12.84 0.63
-7 -9 -3 12.59 0.63
7 -9 3 13.46 1.63
-7 9 -3 12.92 0.64
-7 9 -3 12.83 0.66
-9 -9 -3 6.49 0.34
-9 -9 -3 6.45 0.34
-9 9 -3 6.84 0.35
-9 9 -3 6.27 0.36
-11 -9 -3 21.27 1.03
-11 9 -3 21.42 1.04
-13 -9 -3 1.09 0.09
-13 9 -3 1 0.1
-15 -9 -3 6.65 0.35
-15 9 -3 6.58 0.36
-17 -9 -3 25.18 1.22
-17 9 -3 25.4 1.23
-19 -9 -3 18.38 0.87
-19 9 -3 17.11 0.88
-21 -9 -3 12.64 0.63
-21 9 -3 12.12 0.64
20 -10 -3 2.51 0.21
-20 10 3 2.13 0.22
20 10 -3 2.9 0.24
18 -10 -3 2.82 0.22
-18 10 3 2.51 0.23
16 -10 -3 1.5 0.15
16 10 -3 1.4 0.16
-16 10 3 1.7 0.17
14 -10 -3 3.49 0.22
-14 10 3 2.82 0.24
14 10 -3 3.48 0.26
14 10 -3 3.37 0.24
12 -10 -3 0.82 0.11
12 10 -3 0.6 0.11
-12 10 3 0.94 0.13
12 10 -3 0.54 0.12
10 -10 -3 13.97 0.66
-10 10 3 12.87 0.69
10 10 -3 12.88 0.69
10 10 -3 13.23 0.69
8 -10 -3 18.94 0.85
8 10 -3 16.03 0.88
-8 10 3 17.01 0.88
8 10 -3 17.81 0.88
-6 -10 3 3.22 0.43
6 -10 -3 2.78 0.17
6 10 -3 2.5 0.21
-6 10 3 2.65 0.21
6 10 -3 2.6 0.2
4 -10 -3 0.11 0.05
-4 -10 3 0.02 0.11
-4 10 3 0.01 0.07
4 10 -3 0.04 0.07
4 10 -3 0.04 0.07
2 -10 -3 11.06 0.58
-2 -10 3 13.12 1.52
-2 10 3 12.25 0.62
2 10 -3 11.13 0.61
2 10 -3 11.79 0.61
0 -10 3 5.29 0.65
0 -10 -3 4.33 0.26
0 -10 -3 4.57 0.26
0 10 -3 5.08 0.28
0 10 -3 4.67 0.29
2 -10 3 2.2 0.31
-2 -10 -3 1.99 0.13
-2 10 -3 2.01 0.17
-2 10 -3 1.76 0.15
-4 -10 -3 0.2 0.05
4 -10 3 0.27 0.11
-4 10 -3 0.16 0.07
-4 10 -3 0.19 0.08
6 -10 3 0.64 0.14
-6 -10 -3 0.47 0.07
-6 10 -3 0.36 0.08
-6 10 -3 0.45 0.09
-8 -10 -3 0.18 0.05
-8 10 -3 0.18 0.06
-8 10 -3 0.2 0.08
-10 -10 -3 8.14 0.43
-10 10 -3 8.32 0.46
-10 10 -3 8.92 0.45
-12 -10 -3 3.77 0.22
-12 10 -3 3.92 0.23
-14 -10 -3 1.51 0.12
-14 10 -3 1.58 0.14
-16 -10 -3 3.33 0.2
-16 10 -3 3.25 0.22
-18 -10 -3 3.57 0.21
-18 10 -3 3.32 0.23
17 -11 -3 16.95 0.87
17 11 -3 16.18 0.89
-17 11 3 18.4 0.9
15 -11 -3 19.14 0.95
-15 11 3 19.02 0.97
15 11 -3 18.3 0.96
13 -11 -3 12.19 0.62
-13 11 3 11.64 0.64
13 11 -3 11.88 0.64
13 11 -3 12.27 0.65
11 11 -3 1.6 0.16
11 11 -3 1.27 0.16
-11 11 3 1.62 0.17
9 11 -3 0.85 0.13
9 11 -3 0.99 0.13
-9 11 3 1.16 0.14
7 11 -3 2.95 0.21
-7 11 3 2.81 0.22
7 11 -3 2.98 0.21
5 11 -3 3.53 0.25
5 11 -3 3.74 0.24
-5 11 3 3.8 0.25
3 11 -3 7.59 0.42
3 11 -3 7.76 0.43
-1 -11 3 1.07 0.21
1 11 -3 0.5 0.1
1 11 -3 0.79 0.11
1 -11 3 7.36 0.85
-1 11 -3 5.77 0.36
-1 11 -3 5.81 0.36
3 -11 3 0.83 0.19
-3 11 -3 0.83 0.11
-3 11 -3 0.73 0.11
-5 -11 -3 12.61 0.63
-5 11 -3 12.25 0.66
-5 11 -3 13.26 0.65
-7 -11 -3 16.44 0.82
-7 11 -3 16.59 0.86
-7 11 -3 17.6 0.85
-9 -11 -3 44.48 2.07
-9 11 -3 42.48 2.09
-9 11 -3 43.22 2.09
-11 -11 -3 25.12 1.23
-11 11 -3 25.78 1.25
-13 -11 -3 1.72 0.13
-13 11 -3 1.66 0.15
-15 -11 -3 2.76 0.18
-15 11 -3 2.53 0.2
-17 11 -3 12.34 0.64
16 -12 -3 0.92 0.13
16 12 -3 0.67 0.14
14 -12 -3 -0.01 0.08
14 12 -3 0.07 0.11
12 -12 -3 4 0.25
12 12 -3 3.72 0.27
12 12 -3 3.61 0.28
10 12 -3 4.23 0.28
10 12 -3 3.73 0.28
8 12 -3 3.14 0.24
8 12 -3 2.9 0.24
6 12 -3 3.35 0.24
6 12 -3 3.4 0.24
4 12 -3 0.37 0.1
4 12 -3 0.55 0.11
2 12 -3 4.16 0.26
2 12 -3 3.75 0.26
0 12 -3 7.51 0.42
0 12 -3 7.25 0.41
2 -12 3 20.29 2.44
-2 12 -3 18.75 0.98
-2 12 -3 19.31 0.97
-4 12 -3 3.32 0.24
-4 12 -3 3.78 0.24
-6 12 -3 1.94 0.16
-6 12 -3 1.75 0.17
-8 12 -3 0.2 0.09
-8 12 -3 0.28 0.1
-10 12 -3 1.77 0.16
-10 12 -3 2 0.18
-12 12 -3 3.8 0.25
-14 12 -3 2.85 0.22
13 13 -3 8.75 0.51
11 13 -3 5.75 0.35
11 13 -3 4.93 0.34
9 13 -3 0.21 0.11
9 13 -3 0.07 0.09
7 13 -3 10.17 0.56
7 13 -3 10.31 0.56
5 13 -3 19.22 0.98
5 13 -3 19.48 0.98
3 13 -3 9.74 0.53
3 13 -3 9.72 0.54
1 13 -3 2.7 0.22
1 13 -3 2.45 0.21
-1 13 -3 0.01 0.09
-1 13 -3 0.11 0.09
-3 13 -3 0.03 0.08
-3 13 -3 0.1 0.09
-5 13 -3 7.36 0.41
-5 13 -3 6.65 0.4
-7 13 -3 17.19 0.88
-7 13 -3 17.03 0.87
-9 13 -3 9.56 0.52
-9 13 -3 9.42 0.53
-11 13 -3 7.22 0.41
8 14 -3 15.19 0.79
8 14 -3 14.65 0.79
6 14 -3 11.53 0.62
6 14 -3 10.99 0.61
4 14 -3 -0.16 0.09
4 14 -3 -0.14 0.08
2 14 -3 3.97 0.27
2 14 -3 3.46 0.28
0 14 -3 10.29 0.56
0 14 -3 9.96 0.55
-2 14 -3 18.99 0.95
-2 14 -3 17.74 0.93
-4 14 -3 24.07 1.16
-4 14 -3 22.24 1.16
-6 14 -3 1.42 0.16
-8 14 -3 2.38 0.21
24 0 -4 7.6 0.44
22 0 -4 0.84 0.13
20 0 -4 0.42 0.1
-20 0 4 0.59 0.16
18 0 -4 0.68 0.1
-18 0 4 0.8 0.18
-16 0 4 32.09 4.1
-16 0 4 35.12 1.57
-16 0 4 31.86 1.6
16 0 -4 31.76 1.6
16 0 -4 34.64 1.61
-14 0 4 32.81 1.48
14 0 -4 32.85 1.51
14 0 -4 32.8 1.51
-14 0 4 27.27 3.86
-14 0 4 30.27 1.5
12 0 -4 54.66 2.67
-12 0 4 57.58 2.61
12 0 -4 55.63 2.66
-12 0 4 55.91 2.66
10 0 -4 1.98 0.13
-10 0 4 2.01 0.13
10 0 -4 1.84 0.14
-10 0 4 1.7 0.13
-8 0 4 153.25 7.21
8 0 -4 149.9 7.22
-8 0 4 154.28 7.07
8 0 -4 153.99 7.18
-6 0 4 367.3 16.9
-6 0 4 373.23 17.24
6 0 -4 352.88 17.25
6 0 -4 371.87 17.14
4 0 -4 389 18.12
4 0 -4 400.78 18.22
4 0 -4 371.84 18.24
2 0 -4 221.43 10.48
2 0 -4 223.86 10.42
0 0 4 10.84 0.52
0 0 -4 10.87 0.52
0 0 -4 10.73 0.52
0 0 -4 10.65 0.52
2 0 4 0.58 0.05
-2 0 -4 0.56 0.05
-2 0 -4 0.52 0.05
-2 0 -4 0.67 0.05
2 0 4 0.65 0.06
4 0 4 50.41 2.37
-4 0 -4 49.89 2.38
-4 0 -4 49.66 2.38
4 0 4 49.04 2.34
-4 0 -4 53.03 2.37
-6 0 -4 74.57 3.46
-6 0 -4 75.2 3.41
6 0 4 73.52 3.46
6 0 4 71.13 3.41
8 0 4 0.87 0.07
10 0 4 1.16 0.09
-10 0 -4 1.11 0.07
-10 0 -4 1.24 0.1
-12 0 -4 25.35 1.18
12 0 4 24.42 1.17
-12 0 -4 24.53 1.17
-14 0 -4 10.75 0.51
14 0 4 10.92 0.52
14 0 4 9.13 1.34
-14 0 -4 11.48 0.53
-16 0 -4 6.14 0.33
16 0 4 6.25 0.33
16 0 4 6.36 0.33
-16 0 -4 6.09 0.31
18 0 4 121.8 5.6
-18 0 -4 116.28 5.61
20 0 4 78.31 3.73
-20 0 -4 79.39 3.73
22 0 4 25.13 1.23
-24 0 -4 1.17 0.11
-26 0 -4 7.08 0.38
25 -1 -4 0.45 0.12
25 1 -4 0.38 0.12
23 -1 -4 3.29 0.24
23 1 -4 3.16 0.25
-21 -1 4 0.28 0.13
21 -1 -4 0.21 0.08
21 1 -4 0.19 0.09
-19 -1 4 0.95 0.21
19 -1 -4 0.93 0.12
-19 1 4 0.97 0.2
19 1 -4 0.88 0.12
17 -1 -4 0.09 0.06
-17 -1 4 0.09 0.11
17 -1 -4 -0.01 0.06
-17 1 4 0.03 0.06
17 1 -4 0.06 0.07
17 1 -4 0.14 0.07
-17 1 4 0.09 0.1
15 -1 -4 2.43 0.17
15 -1 -4 2.4 0.17
-15 -1 4 2.17 0.16
15 -1 -4 2.61 0.17
-15 -1 4 2.93 0.17
-15 -1 4 2.59 0.38
15 1 -4 2.74 0.18
-15 1 4 2.2 0.17
-15 1 4 2.45 0.37
15 1 -4 2.75 0.18
-15 1 4 2.33 0.16
13 -1 -4 0.96 0.1
-13 -1 4 1.04 0.1
13 -1 -4 0.84 0.1
-13 -1 4 0.79 0.09
-13 -1 4 0.99 0.2
-13 1 4 0.95 0.09
-13 1 4 0.88 0.09
13 1 -4 0.85 0.1
13 1 -4 1.02 0.1
11 -1 -4 9.55 0.49
-11 -1 4 9.25 0.48
11 -1 -4 9.52 0.48
-11 -1 4 9.62 0.47
11 1 -4 9.66 0.49
-11 1 4 8.82 0.48
11 1 -4 9.39 0.49
-11 1 4 9.81 0.47
9 -1 -4 1.36 0.11
9 -1 -4 1.36 0.11
-9 -1 4 1.36 0.11
-9 -1 4 1.32 0.1
9 1 -4 1.24 0.11
-9 1 4 1.32 0.11
9 1 -4 1.37 0.11
-9 1 4 1.33 0.1
7 -1 -4 1.87 0.12
7 -1 -4 1.59 0.13
-7 -1 4 1.67 0.11
-7 -1 4 1.97 0.12
-7 1 4 1.78 0.13
-7 1 4 1.79 0.11
7 1 -4 1.9 0.13
7 1 -4 1.75 0.12
5 -1 -4 3.67 0.21
5 -1 -4 3.93 0.21
-5 1 4 3.95 0.21
5 1 -4 3.47 0.21
-5 1 4 4.14 0.2
5 1 -4 3.82 0.21
3 -1 -4 4.38 0.22
3 -1 -4 3.89 0.22
3 -1 -4 3.73 0.22
3 1 -4 4.56 0.22
-3 1 4 4.22 0.21
3 1 -4 4 0.22
3 1 -4 3.86 0.22
-3 1 4 4.21 0.21
1 -1 -4 3.15 0.17
1 -1 -4 3.31 0.17
1 1 -4 2.79 0.17
-1 1 4 3.09 0.17
1 1 -4 2.97 0.17
1 1 -4 3.36 0.17
-1 -1 -4 0.09 0.03
-1 -1 -4 0.06 0.03
-1 -1 -4 0.1 0.03
-1 1 -4 0.13 0.02
-1 1 -4 0.12 0.03
-1 1 -4 0.1 0.04
1 1 4 0.13 0.02
1 1 4 0.13 0.03
-3 -1 -4 12.78 0.59
3 -1 4 11.39 0.58
-3 -1 -4 12.27 0.59
-3 -1 -4 12.45 0.59
3 1 4 12.48 0.59
3 1 4 11.98 0.58
-3 1 -4 12.48 0.6
-5 -1 -4 21.56 0.99
-5 -1 -4 20.35 0.99
5 -1 4 20.59 0.98
-5 -1 -4 20.57 0.99
5 1 4 20.48 0.99
-5 1 -4 21.67 1
5 1 4 20.56 0.97
-7 -1 -4 5.16 0.26
-7 -1 -4 4.87 0.26
7 -1 4 5.19 0.26
-7 -1 -4 5.65 0.26
7 1 4 4.89 0.26
7 1 4 5.33 0.26
-7 1 -4 5.29 0.27
-9 -1 -4 1.28 0.08
-9 -1 -4 1.18 0.07
9 -1 4 1.03 0.09
-9 1 -4 1.05 0.09
9 1 4 1.18 0.08
9 1 4 1.16 0.08
-11 -1 -4 11.99 0.52
11 -1 4 10.17 0.52
-11 -1 -4 10.76 0.51
-11 -1 -4 11.45 0.52
11 1 4 10.72 0.52
11 1 4 7.7 1.33
-11 1 -4 11.38 0.53
-13 -1 -4 1.12 0.09
13 -1 4 0.96 0.09
-13 -1 -4 1 0.09
-13 -1 -4 0.81 0.06
-13 1 -4 1.1 0.06
13 1 4 1.22 0.09
-13 1 -4 1 0.07
-13 1 -4 0.96 0.1
13 1 4 0.79 0.19
13 1 4 0.93 0.08
-15 -1 -4 0.33 0.04
15 -1 4 0.37 0.07
15 -1 4 0.37 0.12
-15 -1 -4 0.34 0.07
-15 1 -4 0.35 0.04
15 1 4 0.4 0.06
-15 1 -4 0.34 0.07
15 1 4 0.42 0.07
-17 -1 -4 2.7 0.18
17 -1 4 2.84 0.41
17 -1 4 2.71 0.18
-17 -1 -4 2.72 0.15
-17 1 -4 2.98 0.15
17 1 4 2.82 0.17
17 1 4 2.92 0.18
19 -1 4 5.55 0.31
-19 -1 -4 5.71 0.29
-19 1 -4 5.39 0.28
19 1 4 5.65 0.31
21 -1 4 8 0.43
-21 -1 -4 8.07 0.4
-21 1 -4 7.75 0.4
21 1 4 8.05 0.42
-23 -1 -4 1.35 0.11
23 -1 4 1.47 0.14
-23 1 -4 1.29 0.11
25 -1 4 0.07 0.08
-25 -1 -4 -0.11 0.06
-25 1 -4 0.03 0.06
24 -2 -4 2.36 0.21
24 2 -4 2.48 0.22
-22 -2 4 1.34 0.27
22 -2 -4 1.5 0.16
22 2 -4 1.4 0.16
-20 -2 4 0.08 0.13
20 -2 -4 0.04 0.08
20 2 -4 0.07 0.07
-18 -2 4 4 0.56
18 -2 -4 4.11 0.26
-18 2 4 4 0.25
18 2 -4 4.13 0.26
18 2 -4 3.98 0.26
16 -2 -4 7.17 0.38
-16 -2 4 7.9 0.96
16 -2 -4 7.38 0.39
16 -2 -4 6.87 0.39
-16 2 4 6.35 0.93
-16 2 4 7.84 0.38
16 2 -4 7.06 0.4
16 2 -4 7.23 0.4
-16 2 4 7.21 0.39
-14 -2 4 17.09 2.16
-14 -2 4 17.15 0.84
14 -2 -4 17.17 0.85
14 -2 -4 18.1 0.84
14 -2 -4 17.76 0.85
-14 -2 4 16.81 0.84
14 2 -4 16.69 0.85
-14 2 4 17.5 0.85
-14 2 4 16.47 0.83
14 2 -4 16.85 0.86
12 -2 -4 9.72 0.48
-12 -2 4 8.59 1.19
12 -2 -4 9.09 0.46
-12 -2 4 8.66 0.47
12 -2 -4 9.85 0.48
-12 -2 4 9.19 0.47
-12 2 4 9.16 0.47
12 2 -4 9.3 0.48
12 2 -4 9.82 0.49
-12 2 4 9.03 0.46
10 -2 -4 41.1 1.93
-10 -2 4 40.5 1.93
-10 -2 4 34.85 5.01
-10 -2 4 41.08 1.9
10 -2 -4 42.22 1.9
10 -2 -4 40.42 1.94
10 2 -4 42.25 1.94
-10 2 4 39.5 1.89
10 2 -4 41.53 1.94
-10 2 4 41.61 1.94
8 -2 -4 24.09 1.2
-8 -2 4 24.72 1.18
-8 -2 4 24.24 1.19
8 -2 -4 25.27 1.19
-8 2 4 25.11 1.2
8 2 -4 25.22 1.2
8 2 -4 25.38 1.2
-8 2 4 24.19 1.16
6 -2 -4 136.39 6.49
6 -2 -4 140 6.45
-6 2 4 131.37 6.35
-6 2 4 143.76 6.49
6 2 -4 140.23 6.46
6 2 -4 133.01 6.49
4 -2 -4 91.09 4.53
4 -2 -4 96.55 4.5
4 2 -4 100.09 4.51
4 2 -4 92.01 4.53
-4 2 4 100.08 4.53
-4 2 4 95.18 4.49
-4 2 4 89.99 4.42
4 2 -4 101.43 4.52
2 -2 -4 81.79 3.68
2 -2 -4 78.27 3.71
2 2 -4 75.5 3.7
2 2 -4 77.35 3.69
-2 2 4 75.84 3.62
2 2 -4 82.06 3.7
-2 2 4 77.77 3.68
0 -2 -4 6.42 0.32
0 -2 -4 6.47 0.31
0 -2 -4 6.32 0.32
0 2 -4 6.64 0.31
0 2 4 5.96 0.31
0 2 -4 6.15 0.31
0 2 -4 6.19 0.33
-2 -2 -4 15.47 0.73
-2 -2 -4 15.22 0.71
-2 2 -4 15.1 0.73
2 2 4 14.14 0.71
-4 -2 -4 64.52 3.03
4 -2 4 62.21 2.97
-4 -2 -4 64.73 3.02
-4 2 -4 64.74 3.01
4 2 4 63.88 3
4 2 4 63.85 2.96
6 -2 4 18.91 0.96
-6 -2 -4 20.75 0.97
-6 -2 -4 20.1 0.97
-6 -2 -4 21.63 0.95
6 2 4 20.05 0.96
-6 2 -4 20.19 0.97
6 2 4 20.02 0.94
8 -2 4 14.57 0.71
-8 -2 -4 15.69 0.71
-8 -2 -4 14.84 0.72
-8 -2 -4 14.65 0.71
-8 2 -4 15.34 0.72
8 2 4 14.84 0.71
-8 2 -4 14.75 0.72
8 2 4 14.41 0.71
8 2 4 14.57 0.7
-10 -2 -4 12.06 0.58
10 -2 4 12.97 0.59
-10 -2 -4 12.5 0.59
10 2 4 9.01 1.52
10 2 4 12.15 0.58
10 2 4 12.72 0.58
10 2 4 11.91 0.58
-10 2 -4 13.54 0.6
12 -2 4 1.02 0.1
-12 -2 -4 0.99 0.09
-12 -2 -4 1.09 0.09
12 2 4 0.98 0.08
12 2 4 1.13 0.09
-12 2 -4 1.11 0.1
-14 -2 -4 15.07 0.75
14 -2 4 15.3 0.76
-14 2 -4 16.43 0.74
-14 2 -4 15.6 0.73
-14 2 -4 16.41 0.76
14 2 4 14.85 0.75
14 2 4 14.72 0.75
-16 -2 -4 14.35 0.67
-16 -2 -4 13.76 0.66
16 -2 4 11.7 1.72
16 2 4 13.98 0.67
-16 2 -4 15.06 0.69
16 2 4 13.25 0.67
-16 2 -4 13.82 0.65
-18 -2 -4 13.66 0.65
-18 -2 -4 13.13 0.67
-18 2 -4 13.86 0.65
18 2 4 13.2 0.67
20 -2 4 29.51 1.45
-20 -2 -4 29.08 1.43
-20 2 -4 31.17 1.43
22 -2 4 6.69 0.38
-22 -2 -4 6.63 0.35
-22 2 -4 7.24 0.35
24 -2 4 0.15 0.08
-24 -2 -4 0.18 0.07
-24 2 -4 0.19 0.07
-24 2 -4 0.13 0.06
25 -3 -4 3.24 0.26
23 -3 -4 15.05 0.78
23 3 -4 15.04 0.79
21 -3 -4 16.56 0.84
21 3 -4 16.19 0.84
-19 -3 4 8.24 0.96
19 -3 -4 6.85 0.4
19 3 -4 7.07 0.41
-19 3 4 6.61 0.4
-17 -3 4 0.06 0.12
17 -3 -4 0.06 0.07
17 3 -4 0.04 0.07
17 3 -4 0.12 0.07
-17 3 4 0.14 0.07
15 -3 -4 10.94 0.53
15 -3 -4 10.01 0.54
15 -3 -4 10.49 0.54
-15 -3 4 10.94 1.35
-15 3 4 10.47 0.54
15 3 -4 9.92 0.55
-15 3 4 9.98 0.52
15 3 -4 10.4 0.54
13 -3 -4 16.19 0.78
-13 -3 4 15.23 0.76
13 -3 -4 15.27 0.76
-13 -3 4 15.71 1.97
13 -3 -4 16.2 0.77
13 3 -4 15.68 0.78
13 3 -4 14.82 0.78
-13 3 4 15.57 0.75
-13 3 4 15.25 0.78
-11 -3 4 9.49 0.51
11 -3 -4 10.54 0.53
11 -3 -4 10.61 0.51
11 -3 -4 10.65 0.52
-11 -3 4 10.78 0.52
-11 -3 4 9.52 1.33
-11 3 4 10.85 0.53
-11 3 4 10.43 0.51
11 3 -4 10.04 0.53
11 3 -4 10.62 0.53
-9 -3 4 84.73 4.09
-9 -3 4 77.73 10.66
9 -3 -4 88.94 4.11
9 -3 -4 88.42 4.02
9 -3 -4 86.43 4.08
9 3 -4 90.37 4.09
-9 3 4 88.8 4.11
-9 3 4 85.09 4.01
9 3 -4 89.1 4.11
7 -3 -4 6.44 0.31
7 -3 -4 6.04 0.32
7 -3 -4 5.87 0.32
-7 3 4 6.07 0.33
7 3 -4 6.77 0.34
-7 3 4 6.22 0.31
7 3 -4 5.99 0.33
5 -3 -4 21.13 1.05
5 -3 -4 21.06 1.04
5 3 -4 21.68 1.05
5 3 -4 21.78 1.06
-5 3 4 21.1 1.02
5 3 -4 23.14 1.05
-5 3 4 22.64 1.05
3 -3 -4 11.61 0.59
3 -3 -4 12 0.58
-3 3 4 11.46 0.56
3 3 -4 12.67 0.58
3 3 -4 11.69 0.59
-3 3 4 12.26 0.59
-3 3 4 11.91 0.57
1 -3 -4 20.48 0.98
1 -3 -4 20.54 0.96
-1 3 4 20.04 0.96
-1 3 4 20.35 0.98
1 3 -4 20.27 0.97
1 3 -4 19.62 0.97
1 3 -4 21.18 0.99
-1 -3 -4 24.32 1.2
-1 -3 -4 24.1 1.19
-1 -3 -4 25.49 1.17
-1 3 -4 25.28 1.18
-1 3 -4 24.87 1.2
1 3 4 24.54 1.17
-1 3 -4 25.77 1.18
-3 -3 -4 43.26 1.98
-3 -3 -4 40.71 1.97
3 -3 4 40.69 1.94
-3 3 -4 41.47 1.97
-5 -3 -4 1.29 0.08
-5 -3 -4 1.2 0.07
5 -3 4 1.24 0.1
-5 -3 -4 1.25 0.09
-5 3 -4 1.25 0.1
-7 -3 -4 0.31 0.04
7 -3 4 0.36 0.05
-7 -3 -4 0.29 0.05
7 3 4 0.31 0.03
7 3 4 0.27 0.03
-7 3 -4 0.3 0.06
7 3 4 0.36 0.03
7 3 4 0.19 0.1
9 -3 4 19.18 0.88
-9 -3 -4 18.13 0.89
-9 3 -4 18.95 0.89
9 3 4 18.27 0.87
9 3 4 18.11 0.87
9 3 4 17.74 0.87
-11 -3 -4 39.69 1.82
11 -3 4 37.44 1.83
11 3 4 37.62 1.84
11 3 4 37.11 1.82
11 3 4 40.46 1.84
-11 3 -4 41.73 1.84
-13 -3 -4 45.8 2.13
13 -3 4 44.6 2.14
13 3 4 44.79 2.15
-13 3 -4 49.33 2.15
13 3 4 43.65 2.13
-15 -3 -4 3.79 0.21
-15 -3 -4 3.5 0.19
-15 3 -4 3.49 0.18
15 3 4 3.3 0.21
15 3 4 3.55 0.2
-15 3 -4 3.73 0.22
-15 3 -4 3.7 0.19
-17 -3 -4 0.69 0.07
-17 -3 -4 0.87 0.1
-17 3 -4 0.73 0.06
17 3 4 0.75 0.09
-19 -3 -4 0.12 0.05
-19 3 -4 0.13 0.05
21 -3 4 16.36 0.82
-21 -3 -4 16.38 0.8
-21 3 -4 16.67 0.8
-21 3 -4 16.23 0.8
-23 -3 -4 9.95 0.51
23 -3 4 10.2 0.54
-23 3 -4 10.45 0.51
25 -3 4 8.06 0.48
-25 -3 -4 8.82 0.45
-25 3 -4 9.28 0.45
24 -4 -4 0.61 0.13
24 4 -4 0.48 0.13
22 -4 -4 0.35 0.1
22 4 -4 0.61 0.13
20 -4 -4 0.33 0.09
20 4 -4 0.32 0.1
18 -4 -4 0.2 0.08
-18 -4 4 0.27 0.15
18 4 -4 0.36 0.09
-18 4 4 0.21 0.09
18 4 -4 0.46 0.1
16 -4 -4 7.55 0.4
-16 -4 4 8.38 1.02
16 -4 -4 7.43 0.41
16 4 -4 7.55 0.42
-16 4 4 7.32 0.4
16 4 -4 7.52 0.43
-16 4 4 7.71 0.42
14 -4 -4 10.15 0.48
-14 -4 4 10.26 1.23
14 -4 -4 9.35 0.49
14 -4 -4 8.84 0.49
-14 4 4 9.2 0.47
14 4 -4 9.07 0.5
14 4 -4 8.66 0.49
-14 4 4 9.39 0.49
-12 -4 4 1.3 0.12
12 -4 -4 1.33 0.12
-12 -4 4 1.44 0.25
12 -4 -4 1.2 0.11
12 -4 -4 1.15 0.11
12 4 -4 1.23 0.12
-12 4 4 1.28 0.1
-12 4 4 1.3 0.12
12 4 -4 1.76 0.14
10 -4 -4 3.25 0.2
10 -4 -4 3.33 0.19
-10 -4 4 3.19 0.48
10 -4 -4 3.3 0.18
10 4 -4 3.32 0.2
10 4 -4 3.43 0.21
-10 4 4 3.15 0.18
-10 4 4 3.23 0.2
-8 -4 4 0.49 0.15
8 -4 -4 0.46 0.06
-8 -4 4 0.45 0.05
8 -4 -4 0.53 0.07
8 -4 -4 0.45 0.05
8 4 -4 0.43 0.08
8 4 -4 0.34 0.07
-8 4 4 0.35 0.07
-8 4 4 0.43 0.05
6 -4 -4 7.27 0.35
6 -4 -4 7.15 0.37
-6 -4 4 5.69 0.92
6 -4 -4 7.11 0.36
-6 4 4 7.62 0.37
6 4 -4 7.82 0.37
-6 4 4 7.08 0.34
6 4 -4 7.25 0.38
4 -4 -4 26.94 1.3
4 -4 -4 26.1 1.28
4 -4 -4 26.8 1.26
4 4 -4 28.23 1.29
-4 4 4 28.95 1.3
4 4 -4 26.19 1.29
-4 4 4 25.06 1.25
4 4 -4 27.79 1.29
4 4 -4 27.06 1.3
2 -4 -4 11.95 0.59
2 -4 -4 11.72 0.57
2 4 -4 12.77 0.58
2 4 -4 11.21 0.58
-2 4 4 11.93 0.59
2 4 -4 11.53 0.59
0 -4 -4 0.07 0.02
0 -4 -4 0.09 0.04
0 4 4 0.07 0.04
0 4 -4 0.06 0.03
0 4 -4 0.05 0.05
0 4 -4 0.11 0.03
-2 -4 -4 18.22 0.92
-2 4 -4 19.52 0.93
-2 4 -4 19.79 0.91
4 -4 4 1.24 0.1
-4 -4 -4 1.25 0.1
-4 -4 -4 1.43 0.1
-4 4 -4 1.34 0.11
-6 -4 -4 1.4 0.1
6 -4 4 1.4 0.11
-6 -4 -4 1.61 0.09
-6 -4 -4 1.74 0.11
-6 4 -4 1.39 0.11
-8 -4 -4 0.54 0.07
8 -4 4 0.63 0.07
-8 -4 -4 0.58 0.06
-8 -4 -4 0.56 0.05
-8 4 -4 0.69 0.08
10 -4 4 3.53 0.2
10 4 4 3.15 0.17
-10 4 -4 3.23 0.2
12 -4 4 0.24 0.06
-12 -4 -4 0.26 0.04
-12 -4 -4 0.19 0.05
-12 4 -4 0.17 0.07
12 4 4 0.21 0.04
12 4 4 0.25 0.05
-14 -4 -4 0.62 0.06
-14 -4 -4 0.77 0.08
14 4 4 0.69 0.08
-14 4 -4 0.76 0.05
-14 4 -4 0.69 0.05
-16 -4 -4 3.92 0.22
-16 -4 -4 4.11 0.23
16 4 4 4.07 0.23
-16 4 -4 4.08 0.21
-18 -4 -4 7.5 0.39
-18 -4 -4 7.62 0.38
18 4 4 7.21 0.39
-18 4 -4 7.2 0.37
-18 4 -4 7.5 0.37
-20 -4 -4 2.75 0.17
-20 4 -4 2.96 0.17
22 -4 4 1.49 0.15
-22 -4 -4 1.54 0.12
-22 4 -4 1.36 0.12
-24 -4 -4 0.13 0.07
24 -4 4 0.04 0.08
-24 4 -4 0.12 0.07
23 -5 -4 15.17 0.78
23 5 -4 14.62 0.79
21 -5 -4 17.68 0.92
21 5 -4 18.7 0.94
19 -5 -4 7.49 0.41
19 5 -4 7.36 0.42
-19 5 4 6.95 0.41
17 -5 -4 6.99 0.39
-17 5 4 6.87 0.4
17 5 -4 7.45 0.41
17 5 -4 7.17 0.4
15 -5 -4 4.79 0.28
-15 -5 4 5.14 0.68
15 -5 -4 4.77 0.27
-15 5 4 5.1 0.27
-15 5 4 4.69 0.29
15 5 -4 4.89 0.29
15 5 -4 4.82 0.3
-13 -5 4 25.91 3.01
13 -5 -4 23.17 1.16
13 -5 -4 24.1 1.14
13 -5 -4 23.95 1.17
13 5 -4 23.57 1.18
13 5 -4 22.44 1.18
-13 5 4 23.41 1.14
-13 5 4 25.14 1.18
11 -5 -4 43.77 2.03
11 -5 -4 42.92 2.08
-11 -5 4 43.33 5.38
11 -5 -4 43.45 2.06
-11 5 4 41.52 2.03
11 5 -4 44.05 2.08
11 5 -4 42.28 2.08
-11 5 4 45.48 2.09
9 -5 -4 40.66 1.9
-9 -5 4 40.52 5.05
9 -5 -4 40.01 1.93
9 -5 -4 40.56 1.95
-9 5 4 41.14 1.96
-9 5 4 39.85 1.9
9 5 -4 41.31 1.96
9 5 -4 41.5 1.96
7 -5 -4 24.77 1.21
-7 -5 4 23.15 3.12
7 -5 -4 25.36 1.2
7 -5 -4 24.73 1.17
-7 5 4 24.13 1.17
7 5 -4 25.58 1.22
7 5 -4 25.39 1.21
-7 5 4 26.61 1.22
5 -5 -4 0.26 0.05
5 -5 -4 0.28 0.04
-5 -5 4 0.32 0.13
5 -5 -4 0.15 0.05
5 5 -4 0.3 0.06
5 5 -4 0.47 0.05
5 5 -4 0.08 0.06
-5 5 4 0.22 0.04
-5 5 4 0.32 0.06
3 -5 -4 10.83 0.51
3 -5 -4 10.77 0.5
-3 -5 4 8 1.34
3 -5 -4 10.82 0.53
-3 5 4 10.72 0.53
3 5 -4 11.28 0.54
3 5 -4 11.57 0.52
1 -5 -4 82.5 3.74
1 -5 -4 76.97 3.74
1 -5 -4 79.4 3.78
1 5 -4 81.86 3.77
1 5 -4 77.34 3.78
1 5 -4 83.56 3.77
1 5 -4 76.19 3.77
-1 5 4 81.45 3.79
-1 -5 -4 139.97 6.72
1 5 4 141.72 6.72
-1 5 -4 143 6.71
-1 5 -4 140.87 6.69
-1 5 -4 142.83 6.7
-1 5 -4 145.58 6.7
3 -5 4 53.96 2.44
-3 -5 -4 54.52 2.48
3 5 4 39.77 6.42
-3 5 -4 56.3 2.46
-3 5 -4 54.99 2.48
3 5 4 53.43 2.48
5 -5 4 19.07 0.94
-5 -5 -4 18.97 0.92
-5 -5 -4 20.07 0.95
-5 5 -4 20.69 0.96
-7 -5 -4 3.28 0.19
-7 -5 -4 3.51 0.17
7 -5 4 3.46 0.2
-7 5 -4 3.41 0.2
-9 -5 -4 36.33 1.73
9 -5 4 34.64 1.71
-9 5 -4 37.77 1.74
-11 -5 -4 94.69 4.47
11 -5 4 93.61 4.4
-11 -5 -4 95.41 4.38
-13 -5 -4 65.95 3.21
-13 -5 -4 68.09 3.15
-13 5 -4 68.84 3.2
-13 5 -4 68.31 3.2
-15 -5 -4 29.14 1.38
-15 -5 -4 29.07 1.39
-15 5 -4 29.3 1.39
-17 -5 -4 3.11 0.19
-17 5 -4 3.58 0.19
-19 -5 -4 7.32 0.38
-19 5 -4 7.53 0.38
-21 -5 -4 28.77 1.39
-21 5 -4 29.26 1.39
23 -5 4 19.95 1.01
-23 -5 -4 19.67 0.99
-23 5 -4 21.19 0.99
22 -6 -4 0.27 0.1
22 6 -4 0.13 0.1
20 -6 -4 2.64 0.21
20 6 -4 2.49 0.22
18 -6 -4 0.01 0.07
18 6 -4 -0.05 0.08
18 6 -4 -0.01 0.08
-18 6 4 -0.09 0.07
16 -6 -4 3.1 0.21
-16 6 4 3.17 0.2
16 6 -4 3.57 0.23
16 6 -4 2.89 0.23
-16 6 4 2.8 0.21
14 -6 -4 2 0.15
14 -6 -4 1.95 0.15
-14 6 4 1.78 0.16
14 6 -4 1.44 0.16
-14 6 4 1.95 0.14
14 6 -4 1.92 0.17
-12 -6 4 0.55 0.18
12 -6 -4 0.43 0.08
12 -6 -4 0.53 0.07
12 -6 -4 0.48 0.08
12 6 -4 0.38 0.09
-12 6 4 0.49 0.07
12 6 -4 0.61 0.1
-12 6 4 0.45 0.09
-10 -6 4 0.73 0.19
10 -6 -4 0.67 0.07
10 -6 -4 0.54 0.08
10 -6 -4 0.7 0.08
-10 6 4 0.5 0.07
10 6 -4 0.37 0.08
10 6 -4 0.59 0.1
-10 6 4 0.65 0.09
-8 -6 4 1.79 0.3
8 -6 -4 1.91 0.13
8 -6 -4 1.81 0.12
8 -6 -4 1.81 0.12
8 6 -4 1.75 0.14
-8 6 4 1.83 0.12
8 6 -4 1.72 0.15
-8 6 4 1.78 0.14
-6 -6 4 0.22 0.12
6 -6 -4 0.34 0.05
6 -6 -4 0.19 0.06
6 -6 -4 0.22 0.04
-6 6 4 0.09 0.05
6 6 -4 0.22 0.06
6 6 -4 0.18 0.07
-6 6 4 0.3 0.04
4 -6 -4 3.16 0.18
-4 -6 4 3.13 0.45
4 -6 -4 2.59 0.15
4 -6 -4 3.01 0.16
4 6 -4 2.81 0.19
4 6 -4 2.88 0.18
-4 6 4 3.44 0.19
2 -6 -4 4.7 0.22
-2 -6 4 3.75 0.58
2 -6 -4 4.26 0.21
2 -6 -4 4.19 0.23
2 -6 -4 4.72 0.22
2 6 -4 4.6 0.22
-2 6 4 4.65 0.24
2 6 -4 4.2 0.25
-2 6 4 3.19 0.56
0 -6 -4 15.95 0.78
0 -6 -4 16.22 0.75
0 -6 -4 17.63 0.75
0 -6 4 12.86 1.99
0 -6 -4 16.75 0.74
0 6 4 16.72 0.78
0 6 4 12.27 1.98
0 6 -4 16.55 0.79
0 6 -4 16.79 0.76
0 6 -4 16.81 0.77
-2 -6 -4 14.68 0.71
2 6 4 14.49 0.72
-2 6 -4 14.34 0.7
-2 6 -4 14.79 0.71
-2 6 -4 14.58 0.73
4 -6 4 0.1 0.05
-4 -6 -4 0.05 0.02
-4 -6 -4 0.12 0.04
-4 6 -4 0.13 0.04
-4 6 -4 0.02 0.05
-6 -6 -4 8.48 0.4
-6 -6 -4 7.79 0.38
6 -6 4 7.31 0.41
-6 6 -4 8.12 0.39
-6 6 -4 7.95 0.42
-8 -6 -4 0.09 0.04
-8 -6 -4 -0.01 0.03
8 -6 4 -0.02 0.05
-8 6 -4 0.02 0.05
-8 6 -4 0.01 0.02
-8 6 -4 -0.01 0.03
-10 -6 -4 0.29 0.05
-10 6 -4 0.21 0.04
-10 6 -4 0.24 0.03
-10 6 -4 0.3 0.07
-12 -6 -4 0.15 0.05
-12 -6 -4 0.13 0.04
-12 6 -4 0.04 0.04
-12 6 -4 0.03 0.03
-14 -6 -4 0.72 0.07
-14 6 -4 0.93 0.07
-16 -6 -4 9.38 0.45
-16 6 -4 8.43 0.44
-18 -6 -4 1.09 0.09
-18 6 -4 1.09 0.09
-20 -6 -4 0.39 0.07
-20 6 -4 0.07 0.07
-22 -6 -4 0.4 0.07
-22 6 -4 0.3 0.08
23 -7 -4 0.59 0.12
21 -7 -4 2.07 0.19
21 7 -4 1.5 0.18
19 -7 -4 20.42 1.04
19 7 -4 21.14 1.06
17 -7 -4 1.3 0.14
17 7 -4 1.61 0.16
17 7 -4 1.37 0.16
15 -7 -4 3.79 0.24
-15 7 4 3.48 0.22
15 7 -4 2.99 0.25
15 7 -4 3.96 0.25
-15 7 4 3.97 0.25
13 -7 -4 17.3 0.87
13 -7 -4 17.6 0.85
-13 7 4 17.25 0.88
13 7 -4 18.11 0.88
-13 7 4 16.95 0.84
13 7 -4 17.47 0.89
11 -7 -4 43.64 2.09
-11 -7 4 49.39 5.55
11 -7 -4 43.21 2.13
11 7 -4 45.06 2.15
11 7 -4 43.15 2.15
-11 7 4 45.68 2.15
-11 7 4 42.21 2.09
-9 -7 4 54.13 6.12
9 -7 -4 52.1 2.36
9 -7 -4 52.48 2.35
9 -7 -4 51.04 2.31
9 7 -4 50.14 2.37
-9 7 4 48.26 2.3
-9 7 4 49.91 2.37
9 7 -4 48.42 2.37
-9 7 4 37.85 6.07
-7 -7 4 26.54 3.22
7 -7 -4 27.02 1.21
7 -7 -4 26.92 1.25
7 -7 -4 26.82 1.24
-7 7 4 19.94 3.19
7 7 -4 24.79 1.26
7 7 -4 27.24 1.26
-7 7 4 26.75 1.26
5 -7 -4 2.09 0.12
5 -7 -4 2.19 0.12
-5 -7 4 1.89 0.32
5 -7 -4 2.27 0.14
5 7 -4 1.81 0.16
-5 7 4 1.36 0.28
-5 7 4 1.98 0.15
5 7 -4 1.83 0.14
3 -7 -4 17.51 0.81
-3 -7 4 17.03 2.18
3 -7 -4 17.93 0.83
3 -7 -4 18.34 0.85
3 7 -4 17.26 0.86
-3 7 4 14.15 2.15
-3 7 4 18.31 0.85
1 -7 -4 39.24 1.8
1 -7 -4 38.56 1.77
1 -7 -4 41.92 1.8
-1 -7 4 35.78 4.74
1 -7 -4 38.59 1.83
1 7 -4 39.42 1.84
-1 7 4 39.46 1.84
-1 7 4 32.76 4.72
-1 -7 -4 63.88 2.84
-1 -7 -4 61.91 2.91
1 -7 4 55.22 7.57
-1 -7 -4 64.76 2.88
-1 7 -4 62.08 2.9
-1 7 -4 60.15 2.91
-3 -7 -4 24.57 1.11
-3 -7 -4 24.32 1.11
3 -7 4 24.09 1.14
3 -7 4 19.33 2.96
-3 -7 -4 25.24 1.15
-3 7 -4 24.34 1.13
-3 7 -4 24.53 1.14
-3 7 -4 23.8 1.16
-5 -7 -4 10.15 0.46
-5 -7 -4 10.3 0.49
5 -7 4 9.75 0.5
5 -7 4 7.65 1.24
-5 7 -4 9.79 0.51
-5 7 -4 10.66 0.48
-7 -7 -4 2.68 0.16
-7 -7 -4 2.83 0.15
-7 7 -4 2.39 0.18
-7 7 -4 2.67 0.15
-9 -7 -4 4.49 0.25
-9 7 -4 4.74 0.24
-9 7 -4 4.82 0.23
-9 7 -4 4.43 0.27
-11 -7 -4 15.94 0.78
-11 7 -4 15.75 0.78
-11 7 -4 16.59 0.81
-13 -7 -4 15.76 0.78
-13 7 -4 16.47 0.78
-15 -7 -4 5.58 0.29
-15 7 -4 5.3 0.28
-17 -7 -4 0.05 0.05
-17 7 -4 -0.13 0.05
-19 -7 -4 2.44 0.16
-19 7 -4 2.54 0.16
-21 -7 -4 9.27 0.48
-21 7 -4 9.5 0.48
22 -8 -4 0.21 0.11
20 -8 -4 0.02 0.08
20 8 -4 0.06 0.1
18 -8 -4 12.56 0.67
18 8 -4 13.35 0.7
16 -8 -4 15.14 0.76
16 8 -4 14.66 0.78
16 8 -4 15.16 0.78
14 -8 -4 0.61 0.1
-14 8 4 0.98 0.13
14 8 -4 0.81 0.12
14 8 -4 0.86 0.12
12 -8 -4 0.72 0.1
12 8 -4 0.56 0.1
12 8 -4 0.38 0.1
-12 8 4 0.75 0.11
10 -8 -4 8.33 0.42
10 -8 -4 7.82 0.41
10 8 -4 8.02 0.44
-10 8 4 8.27 0.44
10 8 -4 7.67 0.44
-8 -8 4 30.24 3.39
8 -8 -4 27.63 1.31
8 -8 -4 28.42 1.3
8 -8 -4 26.9 1.27
-8 8 4 27.49 1.32
-8 8 4 22.5 3.34
8 8 -4 26.53 1.32
8 8 -4 26.26 1.33
6 -8 -4 36.83 1.72
-6 -8 4 38.13 4.56
6 -8 -4 38.76 1.75
6 -8 -4 37.89 1.76
-6 8 4 32.17 4.53
6 8 -4 36 1.77
-6 8 4 39.32 1.78
6 8 -4 34.2 1.77
-4 -8 4 25.51 3.07
4 -8 -4 25.66 1.19
4 -8 -4 24.44 1.15
4 -8 -4 25.91 1.17
4 8 -4 23.64 1.2
-4 8 4 20.73 3.03
4 8 -4 25.1 1.19
-2 -8 4 22.1 2.72
2 -8 -4 23.06 1.03
2 -8 -4 21.29 1.01
2 -8 -4 20.86 1.05
2 8 -4 22.09 1.05
2 8 -4 20.16 1.06
0 -8 4 4.95 0.7
0 -8 -4 5.19 0.26
0 -8 -4 5.41 0.28
0 -8 -4 5.11 0.25
0 8 -4 4.77 0.3
2 -8 4 2.4 0.4
-2 -8 -4 2.92 0.17
-2 8 -4 2.73 0.19
-4 -8 -4 37.06 1.75
4 -8 4 33.76 4.54
-4 8 -4 37.01 1.77
-4 8 -4 38.8 1.75
6 -8 4 3.43 0.54
-6 -8 -4 4.17 0.22
-6 8 -4 3.85 0.24
-6 8 -4 4.42 0.22
8 -8 4 0.92 0.2
-8 -8 -4 1.11 0.09
-8 8 -4 1.32 0.1
-8 8 -4 0.95 0.11
-10 -8 -4 2.64 0.16
-10 8 -4 2.87 0.2
-10 8 -4 2.75 0.17
-12 -8 -4 2.22 0.14
-12 8 -4 2.03 0.14
-14 -8 -4 14.61 0.72
-14 8 -4 14.53 0.72
-16 -8 -4 13 0.65
-16 8 -4 13.25 0.65
-18 -8 -4 14.77 0.71
-18 8 -4 14.02 0.71
-20 -8 -4 6.6 0.36
-20 8 -4 7.05 0.37
19 -9 -4 0.53 0.12
19 9 -4 0.96 0.15
17 -9 -4 -0.03 0.08
17 9 -4 0.01 0.1
15 -9 -4 0.24 0.09
15 9 -4 0.06 0.09
15 9 -4 0.2 0.1
13 -9 -4 7.64 0.41
13 9 -4 6.97 0.43
13 9 -4 7.86 0.43
11 -9 -4 16.88 0.77
11 9 -4 13.91 0.79
11 9 -4 15.19 0.79
9 -9 -4 7.38 0.38
9 9 -4 7.07 0.4
9 9 -4 6.74 0.39
7 -9 -4 10.12 0.49
7 9 -4 9.53 0.51
7 9 -4 9.32 0.52
5 -9 -4 1.75 0.12
5 -9 -4 1.53 0.13
-5 -9 4 1.8 0.3
5 9 -4 1.77 0.15
5 9 -4 1.66 0.16
-3 -9 4 15.81 1.99
3 -9 -4 16.43 0.76
3 -9 -4 15.05 0.77
3 9 -4 15.75 0.78
3 9 -4 15.06 0.79
1 -9 -4 25.31 1.22
-1 -9 4 26.48 3.16
1 9 -4 25.57 1.23
1 9 -4 23.5 1.24
1 -9 4 18.51 2.33
-1 -9 -4 18.62 0.9
-1 9 -4 19.09 0.91
-1 9 -4 17.53 0.92
-3 -9 -4 0.13 0.05
3 -9 4 0.09 0.11
-3 9 -4 0.13 0.06
-3 9 -4 0.17 0.08
-5 -9 -4 0.08 0.05
5 -9 4 0.02 0.1
-5 9 -4 0.08 0.07
-5 9 -4 -0.01 0.05
-7 -9 -4 1.35 0.11
7 -9 4 1.53 0.26
-7 9 -4 1.33 0.14
-7 9 -4 1.74 0.12
-9 -9 -4 14.72 0.71
-9 9 -4 14.33 0.71
-9 9 -4 14.05 0.73
-11 -9 -4 6.38 0.34
-11 9 -4 6.34 0.37
-11 9 -4 6.9 0.35
-13 -9 -4 2.39 0.15
-13 9 -4 2.26 0.16
-15 -9 -4 1.96 0.14
-15 9 -4 1.84 0.14
-17 -9 -4 0.2 0.07
-17 9 -4 0.32 0.08
-19 -9 -4 0.64 0.09
-19 9 -4 0.42 0.09
18 -10 -4 8.14 0.47
18 10 -4 8.57 0.49
16 -10 -4 13.81 0.69
16 10 -4 12.87 0.71
16 10 -4 13.07 0.71
14 -10 -4 9.48 0.49
14 10 -4 8.39 0.51
14 10 -4 9.23 0.51
12 -10 -4 0.35 0.09
12 10 -4 0.22 0.1
12 10 -4 0.26 0.1
10 -10 -4 1.53 0.14
10 10 -4 1.86 0.17
10 10 -4 1.71 0.17
8 -10 -4 10.83 0.53
8 10 -4 10.09 0.55
8 10 -4 9.88 0.56
6 10 -4 45.23 2.17
6 10 -4 44.67 2.17
4 10 -4 50.35 2.46
4 10 -4 51.94 2.46
-2 -10 4 31.11 3.58
2 -10 -4 27.69 1.38
2 10 -4 27.64 1.4
2 10 -4 27.82 1.39
0 -10 4 4.63 0.6
0 -10 -4 3.96 0.24
0 10 -4 4.2 0.25
0 10 -4 3.81 0.27
-2 -10 -4 9.33 0.47
2 -10 4 9.2 1.19
-2 10 -4 9.55 0.48
-2 10 -4 8.51 0.49
-4 -10 -4 10.55 0.55
4 -10 4 11.45 1.41
-4 10 -4 10.39 0.57
-4 10 -4 11.29 0.56
-6 -10 -4 13.67 0.68
6 -10 4 13.54 1.74
-6 10 -4 13.08 0.7
-6 10 -4 14.51 0.69
-8 -10 -4 31.36 1.55
-8 10 -4 34 1.56
-8 10 -4 31.52 1.57
-10 -10 -4 7.74 0.4
-10 10 -4 7.57 0.4
-10 10 -4 7.65 0.43
-12 -10 -4 0.77 0.09
-12 10 -4 0.83 0.1
-14 -10 -4 14.6 0.73
-14 10 -4 14.88 0.74
-16 -10 -4 27.97 1.37
-16 10 -4 28.99 1.39
-18 -10 -4 21.49 1.05
-18 10 -4 21.64 1.06
15 -11 -4 0.04 0.08
15 11 -4 0.24 0.12
15 11 -4 0.08 0.11
13 -11 -4 -0.12 0.07
13 11 -4 -0.06 0.1
13 11 -4 0.14 0.09
11 11 -4 0.56 0.12
11 11 -4 0.63 0.13
9 11 -4 0.34 0.1
9 11 -4 0.2 0.1
7 11 -4 0.84 0.13
7 11 -4 1.05 0.13
5 11 -4 2.12 0.2
5 11 -4 2.18 0.18
3 11 -4 0.67 0.11
3 11 -4 0.7 0.11
1 11 -4 0.26 0.09
1 11 -4 0.06 0.08
1 -11 4 0.15 0.13
-1 11 -4 0.24 0.09
-1 11 -4 0.08 0.07
3 -11 4 1.95 0.3
-3 -11 -4 1.59 0.13
-3 11 -4 1.73 0.17
-3 11 -4 1.27 0.14
-5 -11 -4 -0.09 0.05
-5 11 -4 0.01 0.07
-5 11 -4 0.1 0.09
-7 -11 -4 2.45 0.16
-7 11 -4 2.54 0.2
-7 11 -4 2.53 0.18
-9 -11 -4 1.33 0.12
-9 11 -4 1.27 0.13
-9 11 -4 1.5 0.16
-11 -11 -4 0.03 0.05
-11 11 -4 0.02 0.08
-11 11 -4 0.07 0.07
-13 -11 -4 0.02 0.06
-13 11 -4 0.24 0.09
-15 -11 -4 0.01 0.06
-15 11 -4 0.15 0.08
14 12 -4 10.42 0.59
12 12 -4 6.84 0.4
12 12 -4 5.66 0.37
10 12 -4 0.16 0.11
10 12 -4 0.04 0.1
8 12 -4 9.26 0.51
8 12 -4 8.9 0.51
6 12 -4 28.07 1.41
6 12 -4 28.55 1.4
4 12 -4 17.14 0.88
4 12 -4 17.62 0.9
2 12 -4 8.61 0.48
2 12 -4 8.84 0.49
0 12 -4 5 0.3
0 12 -4 4.24 0.28
-2 12 -4 4.88 0.31
-2 12 -4 5.09 0.31
-4 12 -4 26.67 1.3
-4 12 -4 26.15 1.31
-6 12 -4 20.26 0.98
-6 12 -4 19.02 0.99
-8 12 -4 11.02 0.61
-8 12 -4 11.56 0.59
-10 12 -4 2.21 0.18
-10 12 -4 2.36 0.21
-12 12 -4 -0.01 0.09
9 13 -4 5 0.33
9 13 -4 5 0.34
7 13 -4 1.92 0.18
7 13 -4 1.11 0.16
5 13 -4 1.92 0.19
5 13 -4 1.81 0.18
3 13 -4 1.91 0.2
3 13 -4 2.29 0.2
1 13 -4 4.33 0.29
1 13 -4 4.1 0.27
-1 13 -4 20.63 1.03
-1 13 -4 20.45 1.05
-3 13 -4 6.69 0.4
-3 13 -4 6.87 0.39
-5 13 -4 0.37 0.11
-5 13 -4 0.23 0.1
-7 13 -4 1.06 0.14
-9 13 -4 2.38 0.2
4 14 -4 30.76 1.53
2 14 -4 6.75 0.41
0 14 -4 0.1 0.11
-2 14 -4 1.93 0.19
24 0 -5 -0.03 0.08
22 0 -5 0.16 0.1
20 0 -5 0 0.08
18 0 -5 0.07 0.08
18 0 -5 0.08 0.07
-18 0 5 -0.08 0.11
-16 0 5 0.07 0.11
16 0 -5 0.11 0.07
16 0 -5 0.06 0.07
-14 0 5 -0.07 0.05
-14 0 5 0 0.1
14 0 -5 0 0.05
14 0 -5 0.02 0.06
-12 0 5 0.02 0.05
12 0 -5 -0.01 0.05
12 0 -5 -0.12 0.04
8 0 -5 -0.06 0.05
-8 0 5 0.11 0.04
8 0 -5 0.02 0.05
6 0 -5 -0.04 0.04
-6 0 5 0.04 0.04
6 0 -5 0.02 0.05
4 0 -5 0.05 0.04
4 0 -5 -0.04 0.03
4 0 -5 -0.1 0.04
2 0 -5 -0.02 0.03
2 0 -5 -0.02 0.04
2 0 -5 -0.01 0.02
0 0 -5 0.15 0.04
0 0 -5 0.11 0.04
0 0 -5 0.08 0.03
-2 0 -5 0.03 0.03
-2 0 -5 0.01 0.03
-2 0 -5 -0.01 0.03
2 0 5 0.03 0.03
-4 0 -5 -0.04 0.02
4 0 5 0.03 0.03
-4 0 -5 0 0.03
-4 0 -5 -0.01 0.03
-6 0 -5 0.03 0.04
6 0 5 -0.01 0.03
-6 0 -5 0.05 0.03
-8 0 -5 0.01 0.02
8 0 5 0 0.03
-8 0 -5 0.01 0.02
10 0 5 0.18 0.04
-10 0 -5 0.16 0.05
-10 0 -5 0.2 0.03
12 0 5 0.11 0.04
-12 0 -5 -0.04 0.05
-12 0 -5 -0.04 0.02
-12 0 -5 -0.01 0.03
-14 0 -5 -0.01 0.03
-14 0 -5 -0.03 0.05
14 0 5 -0.05 0.04
-16 0 -5 0.07 0.07
-16 0 -5 0.01 0.03
16 0 5 0 0.04
16 0 5 -0.01 0.05
-18 0 -5 0.02 0.04
18 0 5 -0.04 0.05
-20 0 -5 0.19 0.05
-22 0 -5 0.04 0.05
-24 0 -5 0.06 0.06
23 -1 -5 1.19 0.16
23 1 -5 1.58 0.17
21 -1 -5 4.16 0.27
21 1 -5 4.17 0.28
-19 -1 5 18.56 2.31
19 -1 -5 17.87 0.92
19 1 -5 18.28 0.93
17 -1 -5 13.7 0.69
17 -1 -5 13.39 0.69
-17 -1 5 13.91 1.73
-17 1 5 12.62 1.71
17 1 -5 13.52 0.7
17 1 -5 13.79 0.7
15 -1 -5 4.66 0.27
-15 -1 5 4.47 0.63
15 -1 -5 4.24 0.27
-15 -1 5 4.65 0.26
15 1 -5 4.73 0.28
-15 1 5 4.4 0.25
15 1 -5 4.25 0.27
-13 -1 5 2.48 0.16
-13 -1 5 1.88 0.35
13 -1 -5 2.37 0.16
13 -1 -5 2.37 0.16
13 1 -5 2.15 0.17
-13 1 5 2.2 0.15
13 1 -5 2.19 0.18
11 -1 -5 4.2 0.25
11 -1 -5 4.73 0.26
-11 -1 5 4.28 0.24
11 1 -5 4 0.25
11 1 -5 4.65 0.26
-11 1 5 4.05 0.23
-9 -1 5 51.09 2.32
9 -1 -5 50.1 2.37
9 -1 -5 49.91 2.36
-9 1 5 48.1 2.31
9 1 -5 50.34 2.37
9 1 -5 48.39 2.37
7 -1 -5 58.68 2.86
7 -1 -5 59.51 2.84
-7 -1 5 60.48 2.79
-7 1 5 59.74 2.79
-7 1 5 61.1 2.85
7 1 -5 60.3 2.86
7 1 -5 60.01 2.84
5 -1 -5 54.17 2.55
5 -1 -5 51.8 2.57
5 1 -5 56.33 2.57
-5 1 5 53.32 2.51
5 1 -5 54.6 2.57
5 1 -5 53.91 2.56
3 -1 -5 35.33 1.68
3 -1 -5 36.95 1.67
3 -1 -5 35.29 1.68
3 1 -5 37.16 1.68
3 1 -5 31.53 1.68
3 1 -5 36.05 1.68
-3 1 5 33.8 1.63
1 -1 -5 11.53 0.54
1 -1 -5 10.44 0.54
1 -1 -5 11.09 0.55
1 1 -5 10.5 0.54
1 1 -5 11.57 0.54
1 1 -5 11.24 0.55
-1 -1 -5 12.15 0.61
-1 -1 -5 12.65 0.61
-1 -1 -5 12.59 0.61
-1 1 -5 13.21 0.62
-1 1 -5 12.86 0.6
1 1 5 11.92 0.59
-1 1 -5 12.34 0.6
1 1 5 12.34 0.6
3 -1 5 97.7 4.64
-3 -1 -5 100.02 4.74
-3 -1 -5 103.82 4.7
-3 -1 -5 102.13 4.74
-3 1 -5 101.88 4.71
3 1 5 97.58 4.63
-3 1 -5 100.52 4.73
3 1 5 99.06 4.7
-5 -1 -5 50.88 2.47
-5 -1 -5 52.57 2.47
-5 -1 -5 54.42 2.45
5 -1 5 51.15 2.43
5 1 5 51.3 2.42
5 1 5 51.74 2.45
-5 1 -5 53.01 2.46
-7 -1 -5 25.18 1.19
7 -1 5 25.08 1.17
-7 -1 -5 24.42 1.19
7 1 5 23.8 1.16
7 1 5 25.34 1.18
-7 1 -5 25.55 1.19
9 -1 5 0.11 0.04
-9 -1 -5 0.09 0.03
9 1 5 0.13 0.04
-11 -1 -5 19.26 0.91
11 -1 5 19.08 0.91
-11 -1 -5 18.68 0.91
-11 1 -5 19.96 0.92
11 1 5 18.24 0.9
-13 -1 -5 15.73 0.79
13 -1 5 15.63 0.8
-13 -1 -5 16.86 0.8
13 1 5 16.15 0.79
-13 1 -5 18.59 0.79
-13 1 -5 17.31 0.8
13 1 5 15.4 0.79
-13 1 -5 16.17 0.78
-15 -1 -5 14.88 0.72
15 -1 5 14.68 0.74
-15 -1 -5 16.25 0.74
15 1 5 14.79 0.73
-15 1 -5 15 0.72
-15 1 -5 15.77 0.75
15 1 5 14.35 0.73
-17 -1 -5 32.6 1.44
-17 -1 -5 29.09 1.43
17 1 5 28.57 1.43
-19 -1 -5 13.47 0.66
19 -1 5 13.78 0.68
-19 1 -5 13.53 0.66
-21 -1 -5 0.73 0.07
-21 1 -5 0.71 0.07
-23 -1 -5 0.29 0.07
-23 1 -5 0.2 0.06
24 -2 -5 2.84 0.24
22 -2 -5 0.71 0.12
22 2 -5 0.86 0.14
20 -2 -5 2.23 0.19
20 2 -5 1.89 0.19
18 -2 -5 0.3 0.09
-18 -2 5 0.32 0.16
18 2 -5 0.39 0.1
18 2 -5 0.32 0.09
16 -2 -5 0 0.07
-16 -2 5 0.23 0.14
16 -2 -5 0.23 0.08
-16 2 5 0.15 0.06
16 2 -5 0 0.07
16 2 -5 0.14 0.07
14 -2 -5 0.34 0.07
-14 -2 5 0.19 0.07
14 -2 -5 0.25 0.08
-14 -2 5 0.21 0.14
-14 2 5 0.34 0.07
14 2 -5 0.39 0.08
14 2 -5 0.31 0.08
12 -2 -5 12.07 0.61
-12 -2 5 12.7 0.6
-12 -2 5 10.33 1.53
12 -2 -5 12.86 0.61
12 2 -5 12.39 0.61
12 2 -5 11.6 0.61
-12 2 5 11.76 0.58
10 -2 -5 12.15 0.59
-10 -2 5 11.96 0.57
10 -2 -5 11.28 0.58
-10 2 5 10.83 0.56
10 2 -5 11.19 0.58
10 2 -5 11.51 0.59
-8 -2 5 4.5 0.24
8 -2 -5 4.45 0.24
8 -2 -5 3.9 0.25
8 2 -5 4.45 0.25
8 2 -5 4.59 0.26
-8 2 5 4.32 0.23
6 -2 -5 1.7 0.12
6 -2 -5 1.66 0.13
-6 2 5 1.66 0.1
6 2 -5 1.4 0.13
-6 2 5 1.85 0.12
6 2 -5 1.76 0.13
4 -2 -5 -0.02 0.04
4 -2 -5 0.01 0.04
-4 2 5 0.07 0.03
4 2 -5 -0.05 0.05
4 2 -5 0.12 0.04
2 -2 -5 2.66 0.18
2 -2 -5 2.74 0.18
2 -2 -5 3.48 0.17
2 2 -5 3.11 0.18
2 2 -5 3.18 0.17
-2 2 5 3.03 0.15
-2 2 5 3.04 0.16
2 2 -5 2.95 0.17
0 -2 -5 33.58 1.63
0 -2 -5 35.98 1.62
0 -2 -5 35.02 1.63
0 2 -5 34.19 1.62
0 2 5 32.98 1.61
0 2 -5 33.97 1.63
0 2 -5 33.58 1.62
-2 -2 -5 68.42 3.17
-2 -2 -5 70.36 3.14
2 -2 5 63.85 3.11
-2 2 -5 66.69 3.16
-2 2 -5 65.68 3.16
2 2 5 66.48 3.14
-4 -2 -5 8.71 0.4
-4 -2 -5 8.43 0.41
-4 -2 -5 7.89 0.41
4 -2 5 8.41 0.41
4 2 5 8.06 0.4
-4 2 -5 8.67 0.42
4 2 5 7.77 0.39
6 -2 5 0.43 0.06
-6 -2 -5 0.49 0.05
-6 -2 -5 0.56 0.05
-6 2 -5 0.43 0.06
6 2 5 0.47 0.04
6 2 5 0.49 0.04
-8 -2 -5 3.71 0.21
8 -2 5 3.82 0.22
-8 -2 -5 3.98 0.22
-8 -2 -5 4.16 0.21
8 2 5 3.98 0.21
8 2 5 4.32 0.21
-8 2 -5 4.34 0.23
-10 -2 -5 19.02 0.92
10 -2 5 19.28 0.91
-10 -2 -5 18.73 0.91
10 2 5 19.33 0.91
10 2 5 18.9 0.9
-12 -2 -5 1.87 0.12
12 -2 5 1.97 0.14
-12 -2 -5 2.48 0.14
12 2 5 2.08 0.12
-12 2 -5 2.19 0.16
12 2 5 1.96 0.13
14 -2 5 5.14 0.28
-14 -2 -5 5.2 0.27
-14 -2 -5 5.01 0.25
-14 2 -5 4.88 0.24
14 2 5 4.54 0.26
-14 2 -5 5.1 0.28
-16 -2 -5 1.42 0.1
-16 -2 -5 1.29 0.12
-16 2 -5 1.47 0.08
-18 -2 -5 9 0.46
-18 2 -5 9.51 0.45
20 -2 5 12.89 0.67
-20 -2 -5 13.66 0.65
-20 2 -5 13.36 0.65
22 -2 5 13.21 0.66
-22 -2 -5 12.4 0.63
-22 2 -5 13.15 0.63
-24 -2 -5 3.86 0.23
-24 2 -5 4.12 0.23
23 -3 -5 0.04 0.09
23 3 -5 0.05 0.09
21 -3 -5 3.47 0.25
21 3 -5 3.34 0.26
19 -3 -5 3.43 0.23
19 3 -5 3.32 0.24
17 -3 -5 9.52 0.52
-17 -3 5 10.91 1.3
17 3 -5 9.88 0.53
17 3 -5 8.89 0.52
15 -3 -5 0.67 0.1
-15 -3 5 0.53 0.18
15 -3 -5 0.62 0.09
15 -3 -5 0.54 0.08
15 3 -5 0.27 0.09
15 3 -5 0.59 0.1
-15 3 5 0.54 0.08
13 -3 -5 2.52 0.16
-13 -3 5 2.71 0.18
-13 -3 5 2.77 0.42
13 -3 -5 2.54 0.18
13 -3 -5 2.73 0.18
13 3 -5 2.34 0.18
13 3 -5 2.06 0.19
-13 3 5 2.57 0.16
-11 -3 5 3.86 0.6
-11 -3 5 4.17 0.24
11 -3 -5 4.2 0.25
11 -3 -5 4.3 0.24
11 3 -5 4.53 0.26
11 3 -5 4.58 0.25
-11 3 5 3.91 0.22
9 -3 -5 0.74 0.09
9 -3 -5 0.85 0.09
-9 3 5 0.88 0.07
9 3 -5 1.08 0.11
9 3 -5 0.78 0.09
7 -3 -5 2.87 0.2
7 -3 -5 3.31 0.19
7 3 -5 3.81 0.21
-7 3 5 3.3 0.17
7 3 -5 3.4 0.2
5 -3 -5 6.49 0.33
5 -3 -5 6.59 0.35
5 3 -5 6.32 0.34
-5 3 5 6.21 0.34
-5 3 5 6.09 0.31
5 3 -5 7.32 0.34
5 3 -5 6.68 0.35
3 -3 -5 9.85 0.5
3 -3 -5 9.75 0.49
-3 3 5 9.74 0.49
-3 3 5 9.44 0.47
3 3 -5 10.73 0.51
3 3 -5 10.65 0.49
1 -3 -5 1.3 0.11
1 -3 -5 1.43 0.09
1 3 -5 1.44 0.12
-1 3 5 1.43 0.08
1 3 -5 1.5 0.1
1 3 -5 1.34 0.1
-1 -3 -5 9.58 0.49
-1 -3 -5 10.29 0.49
-1 -3 -5 10.41 0.47
-1 3 -5 10.07 0.5
1 3 5 9.19 0.47
-1 3 -5 9.28 0.47
3 -3 5 10.56 0.53
-3 -3 -5 11.24 0.54
-3 3 -5 10.52 0.54
-5 -3 -5 44.75 2.07
5 -3 5 41.98 2.04
-5 3 -5 43.85 2.07
7 -3 5 31.26 1.51
-7 -3 -5 32.88 1.49
-7 -3 -5 33.48 1.54
-7 3 -5 31.87 1.53
7 3 5 31.02 1.49
9 -3 5 14.37 0.7
-9 3 -5 14.7 0.71
9 3 5 14.03 0.68
11 -3 5 0.2 0.06
-11 -3 -5 0.51 0.06
11 3 5 0.4 0.05
-13 -3 -5 11.19 0.52
13 -3 5 9.84 0.53
-13 -3 -5 10.25 0.51
-13 3 -5 10.81 0.54
-15 -3 -5 1.47 0.1
-15 3 -5 1.41 0.09
-17 -3 -5 2.48 0.14
-17 3 -5 2.23 0.12
-19 -3 -5 1.66 0.12
-19 3 -5 1.86 0.11
-21 -3 -5 0.16 0.05
21 -3 5 0.18 0.07
-21 3 -5 0.12 0.05
23 -3 5 0.33 0.09
-23 -3 -5 0.42 0.07
-23 3 -5 0.27 0.07
-23 3 -5 0.15 0.06
22 -4 -5 13.44 0.71
22 4 -5 13.5 0.73
20 -4 -5 5.52 0.34
20 4 -5 5.65 0.35
18 -4 -5 1.67 0.16
18 4 -5 1.7 0.17
18 4 -5 1.56 0.16
16 -4 -5 3.1 0.21
16 -4 -5 3.22 0.2
16 4 -5 3.06 0.22
-16 4 5 2.92 0.19
16 4 -5 3.11 0.22
14 -4 -5 0.93 0.11
14 -4 -5 0.8 0.1
-14 -4 5 0.84 0.22
14 -4 -5 0.67 0.09
14 4 -5 0.7 0.1
-14 4 5 0.7 0.08
14 4 -5 0.54 0.11
12 -4 -5 11.83 0.58
12 -4 -5 11.22 0.57
-12 -4 5 10.86 1.46
12 -4 -5 11.53 0.56
12 4 -5 11.31 0.59
-12 4 5 10.96 0.55
12 4 -5 11.2 0.58
10 -4 -5 45.92 2.12
10 -4 -5 45.77 2.15
10 -4 -5 46.55 2.17
-10 -4 5 40.3 5.61
-10 4 5 43.54 2.11
10 4 -5 47.73 2.18
10 4 -5 47.11 2.18
8 -4 -5 0.62 0.08
8 -4 -5 0.78 0.07
8 -4 -5 0.62 0.08
-8 -4 5 0.51 0.18
8 4 -5 0.56 0.08
8 4 -5 0.68 0.09
-8 4 5 0.55 0.06
6 -4 -5 1.42 0.11
6 -4 -5 1.51 0.12
6 4 -5 1.44 0.12
6 4 -5 1.84 0.14
-6 4 5 1.5 0.09
4 -4 -5 32.6 1.56
4 -4 -5 31.62 1.53
4 4 -5 33.06 1.56
-4 4 5 30.14 1.5
4 4 -5 34.24 1.54
2 -4 -5 102.54 4.94
2 -4 -5 104.76 4.9
2 4 -5 103.41 4.93
2 4 -5 107.19 4.93
0 -4 -5 123.71 5.67
0 -4 -5 123.34 5.73
0 4 -5 121.78 5.7
0 4 -5 122.74 5.71
0 4 -5 114.38 5.71
-2 -4 -5 93.65 4.4
-2 4 -5 92.03 4.39
-2 4 -5 93.38 4.38
-4 -4 -5 22.94 1.08
4 -4 5 21.86 1.07
-4 4 -5 22.5 1.09
6 -4 5 4.03 0.23
-6 4 -5 4.03 0.23
-8 -4 -5 32.11 1.48
8 -4 5 31.21 1.5
-8 4 -5 31.83 1.52
10 -4 5 82.88 3.95
-10 4 -5 86.6 4
-12 -4 -5 29.78 1.42
-14 -4 -5 1.5 0.1
-16 -4 -5 1.02 0.09
-16 4 -5 1.35 0.07
-18 -4 -5 9.49 0.47
-18 4 -5 9.47 0.46
-20 -4 -5 20.99 1.03
-20 4 -5 21.74 1.03
-22 -4 -5 18.25 0.91
-22 4 -5 19.14 0.91
23 -5 -5 0.03 0.1
21 -5 -5 0.36 0.11
21 5 -5 0.03 0.1
19 -5 -5 2.03 0.18
19 5 -5 1.96 0.19
17 -5 -5 0.24 0.08
17 5 -5 0.59 0.11
17 5 -5 0.25 0.09
15 -5 -5 0.24 0.08
15 -5 -5 0.3 0.07
15 5 -5 0.52 0.1
15 5 -5 0.1 0.08
-15 5 5 0.11 0.06
13 -5 -5 10.93 0.58
13 -5 -5 11.31 0.57
13 -5 -5 11.34 0.59
13 5 -5 11.98 0.6
13 5 -5 11.71 0.6
-13 5 5 10.89 0.56
-11 -5 5 4.41 0.61
11 -5 -5 3.86 0.25
11 -5 -5 4.15 0.23
11 -5 -5 4.11 0.24
11 5 -5 4.2 0.26
-11 5 5 4.11 0.22
11 5 -5 3.91 0.25
-9 -5 5 7.55 1.08
9 -5 -5 8.63 0.41
9 -5 -5 8.58 0.42
9 -5 -5 8.55 0.43
-9 5 5 7.77 0.4
9 5 -5 8.1 0.44
9 5 -5 8.15 0.43
7 -5 -5 0.21 0.06
7 -5 -5 0.38 0.05
-7 -5 5 0.36 0.15
7 -5 -5 0.29 0.06
7 5 -5 0.45 0.09
-7 5 5 0.45 0.05
7 5 -5 0.39 0.07
5 -5 -5 2.53 0.16
5 -5 -5 2.45 0.14
5 5 -5 2.48 0.18
5 5 -5 2.34 0.15
-5 5 5 1.85 0.12
3 -5 -5 12.33 0.61
3 -5 -5 12.3 0.63
3 5 -5 13.53 0.65
1 -5 -5 13.12 0.62
1 -5 -5 13.11 0.65
1 5 -5 12.62 0.66
1 5 -5 12.92 0.64
1 5 -5 13.58 0.63
-1 -5 -5 0.18 0.05
-1 5 -5 0.09 0.04
-1 5 -5 0.16 0.03
-1 5 -5 0.23 0.06
-3 -5 -5 1.3 0.1
3 -5 5 1.09 0.11
-3 5 -5 1.29 0.08
-3 5 -5 1.34 0.12
-5 -5 -5 0.07 0.04
5 -5 5 0.1 0.05
-5 5 -5 0.25 0.07
-7 -5 -5 3.99 0.21
7 -5 5 3.77 0.22
-7 5 -5 3.63 0.23
-9 -5 -5 0.1 0.05
9 -5 5 0.15 0.06
-9 5 -5 0.19 0.07
-11 -5 -5 0.38 0.06
-11 5 -5 0.46 0.08
-13 -5 -5 6.22 0.32
-15 -5 -5 18.36 0.89
-17 -5 -5 0.97 0.09
-17 5 -5 0.93 0.07
-17 5 -5 1 0.07
-19 -5 -5 0.1 0.06
-19 5 -5 -0.03 0.05
-21 -5 -5 0.47 0.07
-21 5 -5 0.62 0.08
22 -6 -5 11.36 0.62
20 -6 -5 22.63 1.12
20 6 -5 21.86 1.13
18 -6 -5 1.48 0.15
18 6 -5 1.56 0.16
18 6 -5 1.51 0.17
16 -6 -5 1.82 0.16
16 6 -5 1.39 0.16
16 6 -5 1.56 0.17
14 -6 -5 16.78 0.84
14 6 -5 16.55 0.86
14 6 -5 16.93 0.85
12 -6 -5 19.56 0.98
12 -6 -5 19.71 0.99
12 6 -5 20.19 1.01
12 6 -5 20.57 1
-10 -6 5 18.8 2.44
10 -6 -5 18.86 0.94
10 -6 -5 19.06 0.95
10 6 -5 19.56 0.96
10 6 -5 19.72 0.97
8 -6 -5 17.52 0.85
-8 -6 5 16.72 2.18
8 -6 -5 17.52 0.83
8 6 -5 17 0.85
8 6 -5 16.52 0.86
-6 -6 5 0.78 0.22
6 -6 -5 0.92 0.09
6 -6 -5 1.02 0.09
6 6 -5 0.89 0.1
6 6 -5 0.8 0.11
-4 -6 5 25.07 3.53
4 -6 -5 29.57 1.37
4 -6 -5 29.55 1.34
4 6 -5 28.78 1.38
2 -6 -5 123.21 5.81
2 -6 -5 123.47 5.87
2 6 -5 125.49 5.85
0 -6 -5 124.89 5.86
0 6 -5 123.76 5.85
0 6 -5 123.41 5.85
-2 -6 -5 30.86 1.53
-2 6 -5 32.12 1.52
-2 6 -5 32.44 1.54
-4 -6 -5 1.62 0.12
4 -6 5 1.33 0.13
-4 6 -5 1.77 0.1
-4 6 -5 1.54 0.14
-4 6 -5 1.51 0.09
-6 -6 -5 1.44 0.11
-6 6 -5 1.7 0.09
-6 6 -5 1.32 0.13
-6 6 -5 1.4 0.08
-8 -6 -5 13.43 0.65
-8 6 -5 12.88 0.66
-10 -6 -5 17.25 0.83
-10 6 -5 16.8 0.85
-12 -6 -5 7.52 0.38
-14 -6 -5 5.06 0.26
-14 6 -5 4.89 0.25
-16 -6 -5 0.21 0.06
-16 6 -5 0.29 0.05
-18 -6 -5 3.27 0.19
-18 6 -5 3.26 0.18
-20 -6 -5 12.23 0.61
-20 6 -5 12.48 0.61
21 -7 -5 1.06 0.15
19 -7 -5 2.46 0.21
19 7 -5 2.48 0.23
17 -7 -5 6.36 0.36
17 7 -5 6.35 0.38
17 7 -5 5.9 0.38
15 -7 -5 4 0.24
15 7 -5 3.07 0.26
15 7 -5 3.69 0.25
13 -7 -5 2.83 0.19
13 7 -5 2.79 0.22
13 7 -5 2.54 0.22
11 -7 -5 0.12 0.07
11 -7 -5 0.29 0.07
11 7 -5 0.44 0.09
11 7 -5 0.19 0.09
9 -7 -5 0.94 0.1
9 -7 -5 1 0.11
9 7 -5 0.89 0.11
9 7 -5 0.57 0.11
7 -7 -5 4.18 0.23
7 -7 -5 3.97 0.24
-7 -7 5 4 0.59
7 7 -5 4.05 0.26
7 7 -5 3.91 0.24
5 -7 -5 11.24 0.55
5 -7 -5 10.98 0.53
-5 -7 5 10.54 1.41
5 7 -5 10.82 0.55
5 7 -5 10.12 0.56
3 -7 -5 16.52 0.8
-3 -7 5 14.36 2.05
3 7 -5 16.7 0.82
3 7 -5 17.17 0.8
-1 -7 5 1.9 0.37
1 -7 -5 2.59 0.16
1 7 -5 2.34 0.15
1 7 -5 2.54 0.19
1 -7 5 0.4 0.16
-1 -7 -5 0.69 0.08
-1 7 -5 0.71 0.1
-1 7 -5 0.58 0.07
-3 -7 -5 20.53 1.02
-3 7 -5 21.58 1.01
-3 7 -5 20.54 1.03
-5 -7 -5 9.44 0.47
-5 7 -5 9.18 0.45
-5 7 -5 9.84 0.46
-5 7 -5 8.82 0.49
-7 -7 -5 10.24 0.51
-7 7 -5 10.65 0.5
-7 7 -5 10.13 0.49
-7 7 -5 9.64 0.53
-9 -7 -5 9.9 0.51
-9 7 -5 9.84 0.53
-9 7 -5 10.28 0.49
-9 7 -5 10.51 0.5
-11 -7 -5 0.08 0.05
-11 7 -5 0.16 0.07
-11 7 -5 0 0.04
-13 -7 -5 0.77 0.08
-13 7 -5 0.84 0.07
-15 -7 -5 8.99 0.46
-15 7 -5 9.11 0.45
-17 -7 -5 10.31 0.52
-17 7 -5 10.46 0.52
-19 -7 -5 3.5 0.2
-19 7 -5 3.31 0.2
20 -8 -5 2.07 0.2
18 -8 -5 2.33 0.2
18 8 -5 2.08 0.21
16 -8 -5 0.42 0.1
16 8 -5 0.16 0.1
16 8 -5 0.24 0.1
14 -8 -5 0.7 0.11
14 8 -5 0.75 0.13
14 8 -5 0.65 0.12
12 -8 -5 7.42 0.39
12 8 -5 7.29 0.42
12 8 -5 6.75 0.41
10 -8 -5 28.08 1.29
10 8 -5 25.07 1.31
10 8 -5 26.43 1.32
8 -8 -5 22.55 1.09
8 -8 -5 23.05 1.08
8 8 -5 20.59 1.11
8 8 -5 22.52 1.1
6 -8 -5 2.11 0.16
6 8 -5 2.07 0.16
6 8 -5 2 0.18
4 -8 -5 13.48 0.66
-4 -8 5 13.06 1.69
4 8 -5 12.56 0.68
4 8 -5 13.17 0.66
2 -8 -5 46.73 2.13
-2 -8 5 40.97 5.52
2 8 -5 45.38 2.13
2 8 -5 44.86 2.14
0 -8 5 71.23 9.59
0 -8 -5 80.93 3.69
0 8 -5 78.21 3.69
0 8 -5 80.67 3.69
2 -8 5 8.98 1.32
-2 -8 -5 10.64 0.52
-2 8 -5 10.95 0.54
-2 8 -5 10.49 0.52
4 -8 5 3.23 0.54
-4 -8 -5 4.26 0.23
-4 8 -5 4.31 0.22
-4 8 -5 3.69 0.24
-6 -8 -5 0.66 0.08
6 -8 5 0.54 0.16
-6 8 -5 0.59 0.07
-6 8 -5 0.5 0.09
-8 -8 -5 14.19 0.66
8 -8 5 10.79 1.67
-8 8 -5 13.41 0.68
-8 8 -5 14.42 0.65
-10 -8 -5 11.49 0.57
-10 8 -5 11.33 0.57
-10 8 -5 11.61 0.6
-12 -8 -5 6.09 0.33
-12 8 -5 6.06 0.36
-12 8 -5 6.53 0.32
-14 -8 -5 0.14 0.06
-14 8 -5 0.07 0.05
-16 -8 -5 0.55 0.08
-16 8 -5 0.57 0.08
-18 -8 -5 1.63 0.12
-18 8 -5 1.24 0.12
17 -9 -5 16.82 0.82
17 9 -5 15.55 0.84
17 9 -5 15.19 0.83
15 -9 -5 4.94 0.28
15 9 -5 3.86 0.29
15 9 -5 4.15 0.3
13 -9 -5 0.2 0.08
13 9 -5 0.04 0.09
13 9 -5 0.19 0.1
11 -9 -5 3.05 0.21
11 9 -5 2.87 0.24
11 9 -5 3.47 0.24
9 9 -5 17.87 0.92
9 9 -5 18.32 0.91
7 9 -5 34 1.66
7 9 -5 33.84 1.65
5 -9 -5 39.93 1.92
5 9 -5 41.27 1.94
5 9 -5 38.68 1.93
3 -9 -5 20.51 1
3 9 -5 20.54 1.02
3 9 -5 19.77 1
1 -9 -5 8.67 0.45
-1 -9 5 8.44 1.15
1 9 -5 9.21 0.46
1 9 -5 8.35 0.47
1 -9 5 7.42 1.06
-1 -9 -5 8.02 0.42
-1 9 -5 8.16 0.44
-1 9 -5 8.35 0.42
3 -9 5 7.29 1.03
-3 -9 -5 8.24 0.41
-3 9 -5 8.32 0.41
-3 9 -5 7.16 0.42
-5 -9 -5 13.82 0.68
5 -9 5 12.2 1.73
-5 9 -5 13.96 0.7
-5 9 -5 14.46 0.68
7 -9 5 29.82 4.2
-7 -9 -5 33.83 1.62
-7 9 -5 34.79 1.64
-7 9 -5 36.84 1.62
-9 -9 -5 10.22 0.53
-9 9 -5 10.87 0.56
-9 9 -5 10.42 0.53
-11 -9 -5 2.12 0.15
-11 9 -5 2.2 0.19
-11 9 -5 2.22 0.15
-13 -9 -5 21.59 1.09
-13 9 -5 23.37 1.09
-15 -9 -5 26.26 1.3
-15 9 -5 27.7 1.3
-17 -9 -5 24.96 1.26
-17 9 -5 27.1 1.26
16 10 -5 1.52 0.18
14 10 -5 0.43 0.12
14 10 -5 0.3 0.11
12 10 -5 1.68 0.18
12 10 -5 1.89 0.2
10 10 -5 4.3 0.29
10 10 -5 3.96 0.27
8 10 -5 2.3 0.22
8 10 -5 3.12 0.21
6 10 -5 1.05 0.13
6 10 -5 1.21 0.15
4 10 -5 3.69 0.27
4 10 -5 4.41 0.26
2 -10 -5 17.95 0.91
2 10 -5 18.68 0.93
2 10 -5 18.35 0.91
0 -10 -5 12.06 0.6
0 10 -5 12.45 0.6
0 10 -5 10.45 0.61
2 -10 5 11.78 1.53
-2 -10 -5 12.29 0.6
-2 10 -5 10.81 0.62
-2 10 -5 12.28 0.6
-4 -10 -5 0.54 0.08
4 -10 5 0.51 0.18
-4 10 -5 0.62 0.09
-4 10 -5 0.25 0.09
-6 -10 -5 3.81 0.22
-6 10 -5 4.16 0.23
-6 10 -5 3.34 0.25
-8 -10 -5 4.45 0.25
-8 10 -5 4.72 0.26
-8 10 -5 4.1 0.28
-10 -10 -5 0.52 0.08
-10 10 -5 0.33 0.08
-10 10 -5 0.28 0.09
-12 -10 -5 1.09 0.11
-12 10 -5 1.19 0.15
-12 10 -5 1.28 0.12
-14 -10 -5 1.12 0.11
-14 10 -5 1.49 0.13
-16 -10 -5 0.43 0.08
-16 10 -5 0.54 0.1
13 11 -5 0.44 0.12
11 11 -5 0.2 0.11
11 11 -5 0.03 0.11
9 11 -5 3.76 0.29
9 11 -5 3.67 0.26
7 11 -5 11.97 0.65
7 11 -5 12.11 0.64
5 11 -5 7.28 0.45
5 11 -5 8.36 0.44
3 11 -5 18.18 0.89
3 11 -5 17.16 0.91
1 11 -5 2.71 0.21
1 11 -5 3.04 0.24
-1 -11 -5 2.93 0.19
-1 11 -5 2.59 0.2
-1 11 -5 2.53 0.22
-3 -11 -5 23.81 1.17
-3 11 -5 24.63 1.18
-3 11 -5 23.43 1.2
-5 -11 -5 46.6 2.29
-5 11 -5 45.98 2.31
-5 11 -5 50.95 2.3
-7 -11 -5 37.9 1.86
-7 11 -5 37.56 1.89
-7 11 -5 40.89 1.87
-9 -11 -5 9.65 0.5
-9 11 -5 10.45 0.52
-9 11 -5 9.34 0.54
-11 -11 -5 0.02 0.06
-11 11 -5 0.3 0.09
-11 11 -5 0.19 0.09
-13 -11 -5 14.23 0.74
-13 11 -5 15.75 0.76
10 12 -5 1.25 0.16
8 12 -5 0.18 0.1
8 12 -5 0.11 0.1
6 12 -5 2.92 0.24
6 12 -5 2.59 0.22
4 12 -5 0.45 0.11
4 12 -5 0.38 0.11
2 12 -5 4.16 0.29
2 12 -5 4.94 0.31
0 12 -5 0.29 0.1
0 12 -5 0.05 0.09
-2 12 -5 0 0.09
-2 12 -5 0 0.08
-4 12 -5 0.02 0.09
-4 12 -5 0.15 0.08
-6 12 -5 0.05 0.08
-6 12 -5 0.19 0.1
-8 12 -5 0.32 0.1
-10 12 -5 0.93 0.12
5 13 -5 9.54 0.53
3 13 -5 5.89 0.36
1 13 -5 4.34 0.28
-1 13 -5 3.85 0.26
-3 13 -5 11.5 0.61
-5 13 -5 18.71 0.94
22 0 -6 4.18 0.29
20 0 -6 28.93 1.43
18 0 -6 31.1 1.48
18 0 -6 30.75 1.48
-18 0 6 28.24 3.75
16 0 -6 17.67 0.86
16 0 -6 17.42 0.86
-16 0 6 15.42 2.13
14 0 -6 4.4 0.27
-14 0 6 4.51 0.25
14 0 -6 4.44 0.28
10 0 -6 49.13 2.33
-10 0 6 48.13 2.28
10 0 -6 48.63 2.32
8 0 -6 63.82 3.06
-8 0 6 64.24 2.99
8 0 -6 64.34 3.04
-6 0 6 50.03 2.36
6 0 -6 51.52 2.42
6 0 -6 50.08 2.4
-4 0 6 17.18 0.82
4 0 -6 17.53 0.85
4 0 -6 17.19 0.85
2 0 -6 5.44 0.29
0 0 -6 53.05 2.52
0 0 -6 53.65 2.53
-2 0 -6 120.65 5.57
-2 0 -6 116.94 5.57
-2 0 -6 120.97 5.54
2 0 6 113.52 5.45
4 0 6 47.08 2.32
-4 0 -6 50.79 2.37
-4 0 -6 52.03 2.36
-6 0 -6 55.54 2.52
-6 0 -6 54.5 2.53
6 0 6 50.16 2.48
-8 0 -6 2.46 0.14
8 0 6 2.23 0.14
-8 0 -6 2.74 0.14
-10 0 -6 1.65 0.1
-10 0 -6 1.47 0.1
10 0 6 1.6 0.11
-12 0 -6 16.13 0.76
-12 0 -6 15 0.74
-14 0 -6 48.35 2.29
-16 0 -6 49.68 2.35
-20 0 -6 3.42 0.19
-22 0 -6 4.85 0.26
21 -1 -6 0.37 0.11
21 1 -6 0.08 0.09
19 -1 -6 0.63 0.12
19 1 -6 0.75 0.13
17 -1 -6 0.85 0.13
17 -1 -6 0.9 0.12
17 1 -6 1.14 0.14
17 1 -6 1.2 0.14
-17 1 6 0.94 0.23
15 -1 -6 2.83 0.2
-15 -1 6 2.47 0.43
15 -1 -6 2.91 0.21
15 1 -6 2.6 0.21
15 1 -6 2.94 0.21
-15 1 6 3.33 0.19
13 -1 -6 0.5 0.09
-13 -1 6 0.55 0.09
13 -1 -6 0.54 0.09
13 1 -6 0.54 0.09
-13 1 6 0.43 0.07
13 1 -6 0.45 0.09
11 -1 -6 2.58 0.19
-11 -1 6 3.16 0.19
11 -1 -6 3.15 0.2
11 1 -6 2.59 0.19
11 1 -6 2.87 0.2
-11 1 6 2.72 0.17
9 -1 -6 0.3 0.07
9 -1 -6 0.27 0.07
-9 -1 6 0.34 0.07
9 1 -6 0.28 0.08
9 1 -6 0.13 0.07
-9 1 6 0.32 0.06
7 -1 -6 1.07 0.11
-7 -1 6 1.04 0.1
7 -1 -6 0.98 0.1
7 1 -6 0.95 0.11
-7 1 6 1.11 0.09
7 1 -6 0.87 0.1
5 -1 -6 2.3 0.16
5 -1 -6 2.3 0.15
5 1 -6 2.59 0.16
5 1 -6 2.13 0.16
-5 1 6 2.31 0.13
3 -1 -6 1.75 0.12
3 -1 -6 1.57 0.12
-3 1 6 1.3 0.09
3 1 -6 1.77 0.13
1 -1 -6 13.52 0.65
1 1 -6 13.79 0.65
1 1 -6 12.67 0.66
1 -1 6 7.39 0.39
-1 -1 -6 7.68 0.4
-1 -1 -6 8.42 0.4
-1 1 -6 7.73 0.4
-1 1 -6 8.09 0.41
1 1 6 7.67 0.38
-1 1 -6 8.52 0.4
-3 -1 -6 0 0.04
3 -1 6 0.03 0.04
-3 -1 -6 -0.02 0.04
-3 -1 -6 0 0.04
-3 1 -6 0.04 0.04
-3 1 -6 -0.02 0.04
3 1 6 0.06 0.03
5 -1 6 0.07 0.04
-5 -1 -6 0.07 0.04
-5 -1 -6 -0.06 0.04
-5 -1 -6 0.02 0.04
5 1 6 0.01 0.03
-5 1 -6 -0.02 0.03
-5 1 -6 0.04 0.04
-5 1 -6 0.02 0.03
-7 -1 -6 5.29 0.27
7 -1 6 5.08 0.27
7 1 6 4.99 0.26
-7 1 -6 5.47 0.28
9 -1 6 0.8 0.08
-9 -1 -6 0.69 0.06
-11 -1 -6 6.2 0.32
11 -1 6 6.7 0.34
-13 -1 -6 0.5 0.05
13 -1 6 0.56 0.07
-13 1 -6 0.42 0.04
-13 1 -6 0.49 0.08
-13 1 -6 0.5 0.05
-15 -1 -6 3.77 0.21
-15 1 -6 3.96 0.2
-15 1 -6 4.24 0.25
-17 -1 -6 5.16 0.26
-17 1 -6 5.02 0.25
-19 -1 -6 1.75 0.11
-19 1 -6 1.84 0.11
-21 -1 -6 0.23 0.05
-21 1 -6 0.21 0.05
22 -2 -6 4.06 0.28
22 2 -6 3.94 0.3
20 -2 -6 12.45 0.66
20 2 -6 12.41 0.67
18 -2 -6 15.82 0.82
18 2 -6 15.8 0.82
18 2 -6 16.41 0.83
16 -2 -6 14.01 0.71
16 -2 -6 14.34 0.71
16 2 -6 13.51 0.71
16 2 -6 13.19 0.72
-14 -2 6 15.79 2.32
14 -2 -6 18.98 0.92
14 -2 -6 19.49 0.91
14 2 -6 18.34 0.92
14 2 -6 18.86 0.92
-14 2 6 18.38 0.88
12 -2 -6 1.02 0.12
-12 -2 6 1.25 0.12
12 -2 -6 1.29 0.13
12 2 -6 1.37 0.13
-12 2 6 1.14 0.1
12 2 -6 1.17 0.13
-10 -2 6 8.68 0.44
10 -2 -6 9.06 0.46
10 -2 -6 8.99 0.46
-10 2 6 8.53 0.43
10 2 -6 8.26 0.46
10 2 -6 8.43 0.46
-8 -2 6 10.48 0.51
8 -2 -6 10.06 0.53
8 -2 -6 9.85 0.52
-8 2 6 9.7 0.49
8 2 -6 10.33 0.52
8 2 -6 10.5 0.53
6 -2 -6 19.29 0.92
6 -2 -6 19.16 0.91
6 2 -6 18.73 0.92
-6 2 6 17.14 0.88
6 2 -6 18.8 0.92
4 -2 -6 8.21 0.42
4 -2 -6 8.54 0.41
4 2 -6 7.83 0.42
-4 2 6 7.42 0.38
2 -2 -6 1.45 0.12
2 -2 -6 1.49 0.1
2 2 -6 1.4 0.12
-2 2 6 1.23 0.08
0 -2 -6 25.45 1.16
0 2 -6 24.57 1.17
0 2 -6 23.63 1.17
0 2 -6 25.46 1.18
0 2 6 22.99 1.13
2 -2 6 69.13 3.4
-2 -2 -6 77 3.44
-2 2 -6 73.17 3.46
-2 2 -6 73.31 3.45
4 -2 6 92.19 4.5
-4 -2 -6 101.71 4.55
-4 2 -6 97.41 4.57
-4 2 -6 95.32 4.58
-4 2 -6 99.08 4.58
6 -2 6 72.25 3.46
-6 -2 -6 74.83 3.52
-6 2 -6 75.98 3.51
8 -2 6 17.49 0.84
-8 -2 -6 16.83 0.84
-8 2 -6 18 0.85
10 -2 6 12.94 0.62
-10 -2 -6 12.33 0.62
12 -2 6 2.69 0.18
-12 -2 -6 2.9 0.16
-14 -2 -6 10.34 0.51
-16 -2 -6 13.15 0.64
-18 -2 -6 1.61 0.11
-18 2 -6 1.72 0.1
-20 -2 -6 2.17 0.13
-20 2 -6 1.89 0.12
-22 -2 -6 4.96 0.27
-22 2 -6 5.13 0.27
21 -3 -6 3.23 0.24
21 3 -6 2.63 0.24
19 -3 -6 0.51 0.11
19 3 -6 0.37 0.11
19 3 -6 0.26 0.1
17 -3 -6 4.28 0.27
17 3 -6 4.21 0.28
17 3 -6 4.16 0.28
15 -3 -6 6.52 0.37
15 -3 -6 6.24 0.37
15 3 -6 6.15 0.37
15 3 -6 6.81 0.38
13 -3 -6 39.6 1.87
13 -3 -6 38.51 1.85
13 3 -6 37.32 1.87
13 3 -6 38.73 1.87
11 -3 -6 2.3 0.16
-11 -3 6 2.48 0.17
-11 -3 6 1.96 0.37
11 -3 -6 2.18 0.17
11 3 -6 2.49 0.17
11 3 -6 2.37 0.19
9 -3 -6 2.6 0.18
9 -3 -6 2.48 0.17
9 3 -6 2.39 0.18
9 3 -6 2.58 0.18
7 -3 -6 2.39 0.16
7 -3 -6 2.07 0.16
7 3 -6 2.37 0.18
7 3 -6 2.3 0.16
5 -3 -6 2.07 0.15
5 -3 -6 2.23 0.14
5 3 -6 2.26 0.17
3 -3 -6 9.39 0.46
3 -3 -6 9.43 0.48
3 3 -6 8.96 0.48
1 -3 -6 22.81 1.11
1 -3 -6 23.55 1.09
1 3 -6 22.4 1.1
1 3 -6 22.24 1.11
1 3 -6 23.54 1.1
-1 -3 -6 34.85 1.58
-1 3 -6 32.23 1.59
-1 3 -6 33.2 1.6
3 -3 6 15.37 0.77
-3 3 -6 15.72 0.78
-3 3 -6 15.32 0.76
-3 3 -6 17.08 0.76
5 -3 6 0.09 0.05
-5 3 -6 0.13 0.06
-7 -3 -6 26.85 1.31
7 -3 6 26.86 1.3
-7 3 -6 28.26 1.32
-9 -3 -6 56.89 2.72
9 -3 6 57.88 2.68
-9 3 -6 57.18 2.72
11 -3 6 7.61 0.39
-11 -3 -6 7.33 0.38
-13 -3 -6 11.98 0.59
-15 -3 -6 1.04 0.08
-19 -3 -6 18.07 0.88
-19 3 -6 18.43 0.87
-21 -3 -6 8.37 0.42
22 -4 -6 2.8 0.24
20 -4 -6 14.26 0.75
20 4 -6 14.52 0.77
18 -4 -6 11.25 0.63
18 4 -6 12.06 0.64
18 4 -6 12.42 0.65
16 -4 -6 1.32 0.14
16 4 -6 1.37 0.16
16 4 -6 1.3 0.15
14 -4 -6 1.34 0.14
14 -4 -6 1.59 0.15
14 4 -6 1.57 0.16
14 4 -6 1.5 0.15
12 -4 -6 0.22 0.08
12 -4 -6 0.28 0.08
12 4 -6 0.37 0.1
12 4 -6 0.14 0.08
10 -4 -6 2.7 0.18
10 -4 -6 3.32 0.2
10 4 -6 2.75 0.21
10 4 -6 2.67 0.19
8 -4 -6 4.18 0.25
8 -4 -6 4.38 0.24
8 4 -6 4.11 0.25
8 4 -6 4 0.26
6 -4 -6 2.27 0.16
6 -4 -6 2.32 0.15
6 4 -6 2.13 0.18
6 4 -6 2.25 0.16
4 -4 -6 0.19 0.05
4 -4 -6 -0.05 0.05
4 4 -6 0.18 0.07
2 -4 -6 3.61 0.22
2 -4 -6 3.69 0.2
2 4 -6 3.63 0.22
0 -4 -6 13.36 0.65
0 4 -6 12.88 0.65
0 4 -6 13.52 0.63
0 4 -6 12.01 0.63
2 -4 6 15.8 0.77
-2 -4 -6 16.56 0.78
-2 4 -6 15.28 0.76
-2 4 -6 15.56 0.78
4 -4 6 13.54 0.63
-4 -4 -6 12.73 0.64
-4 4 -6 12.12 0.64
-4 4 -6 12.65 0.61
-4 4 -6 13.18 0.61
-6 -4 -6 13.32 0.65
6 -4 6 13.31 0.65
-6 4 -6 13.1 0.66
8 -4 6 5.4 0.31
-8 -4 -6 5.73 0.3
-8 4 -6 6.21 0.32
-10 -4 -6 0.37 0.06
-10 4 -6 0.27 0.07
-12 -4 -6 13.49 0.66
-14 -4 -6 3.85 0.21
-16 -4 -6 0.12 0.05
-18 -4 -6 0.22 0.05
-18 4 -6 0.22 0.04
-20 -4 -6 0.65 0.08
-20 4 -6 0.6 0.06
21 -5 -6 13.69 0.73
19 -5 -6 0.57 0.11
19 5 -6 0.22 0.1
19 5 -6 0.18 0.1
17 -5 -6 7.8 0.43
17 5 -6 7.39 0.43
17 5 -6 7.37 0.44
15 -5 -6 4.84 0.31
15 5 -6 5.83 0.34
15 5 -6 5.19 0.32
13 -5 -6 9.64 0.5
13 -5 -6 9.06 0.5
13 5 -6 9.03 0.51
13 5 -6 9.97 0.52
11 -5 -6 14.04 0.68
11 -5 -6 13.29 0.69
11 5 -6 12.65 0.7
11 5 -6 14.27 0.7
9 -5 -6 1.37 0.13
9 -5 -6 1.06 0.11
9 5 -6 1.13 0.12
9 5 -6 1.13 0.13
7 -5 -6 0.3 0.06
-7 -5 6 0.1 0.12
7 -5 -6 0.2 0.07
7 5 -6 0.18 0.07
7 5 -6 0.17 0.07
5 -5 -6 7.54 0.39
5 -5 -6 7.57 0.4
5 5 -6 7.64 0.42
5 5 -6 7.54 0.4
3 -5 -6 26.68 1.29
3 5 -6 27.17 1.28
3 5 -6 25.44 1.29
1 -5 -6 75.7 3.52
1 5 -6 72.91 3.5
1 5 -6 73.26 3.51
-1 -5 -6 77.05 3.59
-1 5 -6 74.71 3.57
-1 5 -6 74.96 3.58
3 -5 6 11.46 0.58
-3 -5 -6 11.58 0.59
-3 5 -6 11.7 0.57
-3 5 -6 12.13 0.6
-3 5 -6 11.76 0.57
-5 -5 -6 0.43 0.07
5 -5 6 0.4 0.07
-5 5 -6 0.42 0.04
-5 5 -6 0.42 0.08
-7 -5 -6 42.01 2
-7 5 -6 41.77 2.01
-9 -5 -6 78.32 3.78
-9 5 -6 81.15 3.78
-11 -5 -6 64.52 3.11
-11 5 -6 66.46 3.11
-13 -5 -6 9.48 0.48
-15 -5 -6 0.03 0.05
-17 -5 -6 18.12 0.88
-19 -5 -6 17.22 0.87
-19 5 -6 18.41 0.86
20 -6 -6 0.38 0.12
18 -6 -6 0.57 0.12
18 6 -6 0.51 0.13
18 6 -6 0.31 0.11
16 -6 -6 0.24 0.09
16 6 -6 0.42 0.11
16 6 -6 0.45 0.11
14 -6 -6 4.33 0.27
14 6 -6 4.57 0.3
14 6 -6 4.38 0.29
12 -6 -6 0.94 0.11
12 -6 -6 0.76 0.11
12 6 -6 0.72 0.12
12 6 -6 0.85 0.12
10 -6 -6 0.76 0.1
10 -6 -6 0.63 0.1
10 6 -6 0.65 0.11
10 6 -6 0.7 0.11
8 -6 -6 0.28 0.06
8 -6 -6 0.05 0.07
8 6 -6 0.23 0.08
8 6 -6 0.19 0.08
6 -6 -6 0.57 0.09
6 6 -6 0.51 0.1
6 6 -6 0.5 0.08
4 -6 -6 5.14 0.28
4 6 -6 4.62 0.27
4 6 -6 4.91 0.3
2 -6 -6 0.42 0.07
2 6 -6 0.39 0.09
2 6 -6 0.51 0.07
0 -6 -6 0.35 0.07
0 6 -6 0.14 0.07
0 6 -6 0.32 0.06
-2 -6 -6 4.21 0.23
-2 6 -6 4.18 0.22
-2 6 -6 3.57 0.24
-4 -6 -6 1.03 0.1
-4 6 -6 1.25 0.13
-4 6 -6 1.16 0.08
-6 -6 -6 0.54 0.07
-6 6 -6 0.42 0.04
-6 6 -6 0.27 0.07
-6 6 -6 0.44 0.05
-8 -6 -6 1.14 0.1
-8 6 -6 1.07 0.12
-10 -6 -6 3.1 0.18
-10 6 -6 2.81 0.2
-12 -6 -6 10.51 0.53
-14 -6 -6 5.21 0.28
-16 -6 -6 0 0.05
-18 -6 -6 0.4 0.07
19 -7 -6 0.24 0.11
17 -7 -6 4.61 0.28
17 7 -6 3.9 0.29
17 7 -6 4.07 0.3
15 -7 -6 14.71 0.75
15 7 -6 14.57 0.77
15 7 -6 14.69 0.78
13 -7 -6 8.98 0.47
13 7 -6 8.46 0.48
13 7 -6 8.22 0.49
11 -7 -6 8.05 0.45
11 -7 -6 8.5 0.44
11 7 -6 8.08 0.46
11 7 -6 8.42 0.47
9 -7 -6 8.17 0.43
9 7 -6 7.51 0.43
9 7 -6 7.59 0.44
7 -7 -6 0.17 0.07
7 7 -6 0.25 0.08
7 7 -6 0.34 0.09
5 -7 -6 0.23 0.07
5 7 -6 0.18 0.08
5 7 -6 0.24 0.07
3 -7 -6 25.32 1.19
3 7 -6 23.1 1.2
3 7 -6 24.59 1.19
1 -7 -6 27.23 1.32
1 7 -6 28.07 1.34
1 7 -6 26.31 1.31
-1 -7 -6 1.75 0.14
-1 7 -6 1.83 0.13
-1 7 -6 1.84 0.16
-3 -7 -6 16.58 0.81
-3 7 -6 15.87 0.83
-3 7 -6 16.8 0.8
-5 -7 -6 0.64 0.08
-5 7 -6 0.7 0.07
-5 7 -6 0.37 0.09
-7 -7 -6 12.06 0.61
-7 7 -6 12.43 0.59
-7 7 -6 11.98 0.63
-9 -7 -6 27.91 1.4
-9 7 -6 30.59 1.39
-9 7 -6 28.88 1.42
-11 -7 -6 19.71 0.99
-11 7 -6 20.86 1.01
-13 -7 -6 4.65 0.26
-15 -7 -6 0.29 0.07
-15 7 -6 0.4 0.05
-17 -7 -6 3.42 0.2
-17 7 -6 3.43 0.19
18 8 -6 5.32 0.35
16 8 -6 2.17 0.22
16 8 -6 2.64 0.22
14 8 -6 -0.02 0.09
14 8 -6 0.01 0.1
12 8 -6 1.32 0.16
12 8 -6 1.55 0.16
10 8 -6 3.62 0.25
10 8 -6 4.16 0.28
8 -8 -6 12.88 0.67
8 8 -6 12.16 0.68
8 8 -6 13.8 0.67
6 -8 -6 12.54 0.63
6 8 -6 12.46 0.65
6 8 -6 11.79 0.63
4 -8 -6 13.55 0.7
4 8 -6 13.35 0.71
4 8 -6 14.27 0.7
2 -8 -6 0.61 0.09
2 8 -6 0.52 0.11
2 8 -6 0.6 0.09
0 -8 -6 15.73 0.76
0 8 -6 14.87 0.76
0 8 -6 15.13 0.78
-2 -8 -6 3.43 0.21
-2 8 -6 3.26 0.2
-2 8 -6 3.16 0.22
-4 -8 -6 6.58 0.33
4 -8 6 4.39 0.8
-4 8 -6 6.88 0.36
-4 8 -6 6.41 0.32
-6 -8 -6 16.76 0.86
-6 8 -6 17.66 0.88
-6 8 -6 18.03 0.85
-8 -8 -6 2.84 0.18
-8 8 -6 2.87 0.21
-8 8 -6 2.94 0.17
-10 -8 -6 1.35 0.12
-10 8 -6 1.72 0.16
-10 8 -6 1.67 0.12
-12 -8 -6 4.88 0.28
-12 8 -6 4.83 0.3
-12 8 -6 5.27 0.27
-14 -8 -6 13.22 0.68
-14 8 -6 14.1 0.67
-16 -8 -6 9.29 0.48
-16 8 -6 9.58 0.47
15 9 -6 2.92 0.25
13 9 -6 3.07 0.26
13 9 -6 3.27 0.25
11 9 -6 4.25 0.29
11 9 -6 3.86 0.27
9 9 -6 0.01 0.09
9 9 -6 0.1 0.09
7 9 -6 2.34 0.19
7 9 -6 1.83 0.19
5 -9 -6 2.14 0.17
5 9 -6 1.47 0.15
5 9 -6 2.28 0.19
3 -9 -6 5.37 0.29
3 9 -6 4.84 0.32
3 9 -6 4.9 0.29
1 -9 -6 5.71 0.33
1 9 -6 5.77 0.33
1 9 -6 6.14 0.36
-1 -9 -6 14.94 0.75
-1 9 -6 15.12 0.75
-1 9 -6 14.68 0.77
-3 -9 -6 1.92 0.15
-3 9 -6 1.92 0.14
-3 9 -6 1.71 0.17
-5 -9 -6 3.78 0.24
-5 9 -6 4.24 0.23
-5 9 -6 3.9 0.26
-7 -9 -6 8.19 0.44
-7 9 -6 8.24 0.46
-7 9 -6 8.73 0.43
-9 -9 -6 11.25 0.57
-9 9 -6 11.66 0.56
-9 9 -6 10.6 0.59
-11 -9 -6 7.68 0.41
-11 9 -6 8.02 0.41
-11 9 -6 7.86 0.44
-13 -9 -6 0.17 0.07
-13 9 -6 0.04 0.06
-15 -9 -6 0.24 0.07
-15 9 -6 0.39 0.08
14 10 -6 2.99 0.25
12 10 -6 0.51 0.12
10 10 -6 5.92 0.38
10 10 -6 6.32 0.37
8 10 -6 10.4 0.55
8 10 -6 10.02 0.57
6 10 -6 9.72 0.54
6 10 -6 9.24 0.51
4 10 -6 8.04 0.43
4 10 -6 7.36 0.45
2 -10 -6 0.77 0.1
2 10 -6 0.41 0.09
2 10 -6 0.56 0.12
0 -10 -6 1.69 0.15
0 10 -6 1.87 0.18
0 10 -6 1.63 0.15
-2 -10 -6 15.61 0.77
-2 10 -6 14.36 0.79
-2 10 -6 15.94 0.77
-4 -10 -6 32.12 1.57
-4 10 -6 32.23 1.59
-4 10 -6 32.82 1.57
-6 -10 -6 32.6 1.63
-6 10 -6 32.87 1.65
-6 10 -6 35.73 1.63
-8 -10 -6 14.59 0.73
-8 10 -6 14.61 0.77
-8 10 -6 14.88 0.73
-10 -10 -6 0 0.07
-10 10 -6 -0.04 0.09
-10 10 -6 0.05 0.07
-12 -10 -6 9.64 0.55
-12 10 -6 12.2 0.56
11 11 -6 2.71 0.23
9 11 -6 0.65 0.13
7 11 -6 0.07 0.09
7 11 -6 0.27 0.12
5 11 -6 0.94 0.13
5 11 -6 0.98 0.16
3 11 -6 0.11 0.09
3 11 -6 0.13 0.1
1 11 -6 0.36 0.11
1 11 -6 0.26 0.09
-1 -11 -6 1.12 0.12
-1 11 -6 1.15 0.15
-1 11 -6 1.04 0.12
-3 -11 -6 1.38 0.13
-3 11 -6 1.2 0.16
-3 11 -6 1.45 0.14
-5 -11 -6 -0.02 0.07
-5 11 -6 0 0.08
-5 11 -6 0.02 0.08
-7 -11 -6 0.71 0.1
-7 11 -6 0.77 0.13
-7 11 -6 0.5 0.1
-9 -11 -6 0.33 0.09
-9 11 -6 0.4 0.09
6 12 -6 4.41 0.3
4 12 -6 8.37 0.47
2 12 -6 0.09 0.09
0 12 -6 6.81 0.39
-2 12 -6 11.09 0.58
-4 12 -6 26.13 1.29
20 0 -7 -0.03 0.1
18 0 -7 -0.06 0.09
18 0 -7 -0.16 0.08
16 0 -7 -0.05 0.08
16 0 -7 -0.04 0.08
12 0 -7 -0.13 0.07
12 0 -7 0.1 0.08
10 0 -7 -0.11 0.07
10 0 -7 0.03 0.07
8 0 -7 0.01 0.06
8 0 -7 -0.11 0.06
6 0 -7 -0.09 0.06
6 0 -7 -0.09 0.05
4 0 -7 -0.08 0.06
4 0 -7 0.03 0.06
2 0 -7 0.02 0.05
2 0 -7 -0.01 0.05
0 0 -7 0.27 0.06
-2 0 -7 -0.03 0.05
-2 0 -7 -0.09 0.05
-4 0 -7 0.04 0.05
-4 0 -7 -0.04 0.04
-6 0 -7 0.1 0.05
-6 0 -7 -0.06 0.04
-8 0 -7 0.06 0.04
-10 0 -7 -0.04 0.04
-12 0 -7 0 0.04
-16 0 -7 0.06 0.04
-18 0 -7 0 0.04
-20 0 -7 0.03 0.05
21 -1 -7 14.71 0.78
19 -1 -7 20.14 1.02
19 1 -7 19.69 1.02
17 -1 -7 16.99 0.86
17 -1 -7 16.32 0.85
17 1 -7 16.67 0.86
17 1 -7 16.49 0.86
15 -1 -7 2.98 0.22
15 -1 -7 2.79 0.22
15 1 -7 2.65 0.22
15 1 -7 2.75 0.22
13 -1 -7 9.84 0.52
13 -1 -7 9.56 0.51
13 1 -7 9.81 0.52
13 1 -7 9.07 0.51
11 -1 -7 32.44 1.62
-11 -1 7 34.75 1.59
11 -1 -7 34.22 1.64
11 1 -7 33.78 1.64
11 1 -7 32.58 1.63
9 -1 -7 31.41 1.51
9 -1 -7 31.43 1.52
-9 -1 7 30.85 1.48
9 1 -7 31.17 1.52
9 1 -7 31.06 1.51
7 -1 -7 19.61 0.96
-7 -1 7 19.54 0.93
7 -1 -7 19.51 0.97
7 1 -7 19.14 0.97
7 1 -7 19.55 0.96
5 -1 -7 11.55 0.58
5 -1 -7 11.07 0.58
5 1 -7 11.8 0.59
5 1 -7 11.22 0.58
3 -1 -7 0.15 0.06
3 -1 -7 0.13 0.06
3 1 -7 0.31 0.07
3 1 -7 0.14 0.06
1 -1 -7 16.7 0.79
1 -1 -7 15.88 0.8
1 1 -7 16.07 0.8
1 1 -7 16.29 0.8
-1 -1 -7 26.64 1.33
-1 -1 -7 28.31 1.31
-1 1 -7 27.8 1.32
-1 1 -7 27.12 1.32
-3 -1 -7 44.49 2.12
-3 1 -7 46.54 2.11
-3 1 -7 41.86 2.1
-5 -1 -7 41.75 1.94
-5 1 -7 39.16 1.93
-5 1 -7 41.04 1.93
-7 -1 -7 6.67 0.35
-7 1 -7 6.38 0.34
-7 1 -7 6.94 0.34
-7 1 -7 7.07 0.36
-9 -1 -7 0.87 0.08
-9 1 -7 0.94 0.07
-9 1 -7 0.97 0.07
-11 -1 -7 12.79 0.65
-11 1 -7 14.09 0.65
-13 -1 -7 49.44 2.39
-13 1 -7 51.32 2.38
-15 -1 -7 47.17 2.26
-15 1 -7 48.01 2.25
-17 -1 -7 11.96 0.58
-19 -1 -7 0 0.05
-19 1 -7 -0.01 0.04
20 -2 -7 0.13 0.1
20 2 -7 0.06 0.1
18 -2 -7 1.09 0.15
18 2 -7 1.15 0.15
18 2 -7 0.97 0.14
16 -2 -7 3.28 0.24
16 -2 -7 3.13 0.24
16 2 -7 3.75 0.25
16 2 -7 2.84 0.24
14 -2 -7 13.13 0.67
14 -2 -7 12.75 0.67
14 2 -7 12.27 0.67
14 2 -7 12.85 0.67
12 -2 -7 5.56 0.34
12 -2 -7 6.1 0.34
12 2 -7 5.52 0.34
12 2 -7 5.75 0.34
10 -2 -7 2.64 0.2
-10 -2 7 2.84 0.19
10 -2 -7 2.42 0.19
10 2 -7 2.84 0.2
10 2 -7 2.56 0.21
8 -2 -7 1.46 0.13
8 -2 -7 1.12 0.13
-8 -2 7 1.37 0.12
8 2 -7 1.4 0.14
8 2 -7 1.37 0.14
6 -2 -7 1.43 0.12
6 -2 -7 1.38 0.13
6 2 -7 1.33 0.13
6 2 -7 1.43 0.13
4 -2 -7 0.63 0.09
4 -2 -7 0.82 0.09
4 2 -7 0.84 0.1
4 2 -7 0.56 0.08
2 -2 -7 9.51 0.47
2 -2 -7 9.36 0.48
2 2 -7 9.2 0.48
2 2 -7 8.97 0.48
0 -2 -7 1.47 0.13
0 2 -7 1.66 0.12
0 2 -7 1.49 0.13
2 -2 7 1.93 0.14
-2 -2 -7 2.57 0.16
-2 2 -7 2.27 0.16
-2 2 -7 2.35 0.15
4 -2 7 0.06 0.05
-4 -2 -7 -0.01 0.05
-4 2 -7 0.02 0.05
-4 2 -7 0.01 0.04
-6 -2 -7 8.1 0.44
-6 2 -7 8.5 0.42
-6 2 -7 8.45 0.44
-6 2 -7 9.18 0.42
-8 -2 -7 8.07 0.42
-8 2 -7 8.75 0.44
-10 -2 -7 17.08 0.83
-12 -2 -7 12.45 0.61
-14 -2 -7 0.4 0.06
-16 -2 -7 3.93 0.22
-16 2 -7 3.98 0.2
-18 -2 -7 7.97 0.4
19 -3 -7 6.01 0.38
19 3 -7 7.01 0.4
19 3 -7 6.12 0.39
17 -3 -7 8.49 0.5
17 3 -7 9.4 0.52
17 3 -7 9.76 0.52
15 -3 -7 3.7 0.24
15 -3 -7 3.25 0.24
15 3 -7 3.57 0.25
15 3 -7 3.08 0.25
13 -3 -7 0.29 0.09
13 -3 -7 0.41 0.09
13 3 -7 0.27 0.09
13 3 -7 0.11 0.09
11 -3 -7 0.76 0.11
11 -3 -7 0.65 0.1
11 3 -7 0.67 0.1
11 3 -7 0.63 0.11
9 -3 -7 3.36 0.22
9 -3 -7 3.43 0.21
-9 -3 7 3.21 0.21
9 3 -7 3.13 0.23
9 3 -7 3.46 0.22
7 -3 -7 2.27 0.18
7 -3 -7 2.21 0.15
7 3 -7 2.13 0.17
7 3 -7 2.36 0.19
5 -3 -7 1.8 0.15
5 -3 -7 1.98 0.14
5 3 -7 1.83 0.15
5 3 -7 1.76 0.16
3 -3 -7 0.94 0.11
3 3 -7 1 0.11
3 3 -7 1.15 0.11
1 -3 -7 0.02 0.06
1 3 -7 0.05 0.06
1 3 -7 0 0.05
-1 -3 -7 9.16 0.44
1 -3 7 8.26 0.42
-1 3 -7 8.18 0.42
-1 3 -7 7.45 0.43
3 -3 7 19.53 0.99
-3 -3 -7 21.73 1.01
-3 3 -7 20.37 1.01
-3 3 -7 20.84 0.99
5 -3 7 56.21 2.72
-5 -3 -7 60.57 2.77
-5 3 -7 58.64 2.77
-5 3 -7 60.38 2.75
-5 3 -7 55.23 2.75
7 -3 7 20.29 1
-7 -3 -7 20.96 1.01
-7 3 -7 21.23 1.02
-9 -3 -7 2.57 0.16
-9 3 -7 2.23 0.17
-11 -3 -7 0.69 0.08
-13 -3 -7 9.98 0.5
-15 -3 -7 16.52 0.8
-17 -3 -7 2.85 0.16
-17 3 -7 2.67 0.14
-19 -3 -7 0.17 0.06
-19 3 -7 0.11 0.04
18 -4 -7 0.86 0.14
18 4 -7 0.89 0.15
18 4 -7 0.82 0.14
16 -4 -7 18.52 0.96
16 4 -7 19.13 0.97
16 4 -7 19.24 0.98
14 -4 -7 36.23 1.75
14 -4 -7 36.83 1.74
14 4 -7 35.12 1.75
14 4 -7 34.98 1.75
12 -4 -7 10.59 0.59
12 -4 -7 11.69 0.59
12 4 -7 11.27 0.6
12 4 -7 11.4 0.61
10 -4 -7 0.82 0.12
10 -4 -7 1.15 0.12
10 4 -7 1.17 0.14
10 4 -7 1.01 0.13
8 -4 -7 1.94 0.15
8 -4 -7 1.86 0.16
8 4 -7 2.09 0.16
8 4 -7 1.86 0.17
6 -4 -7 15.17 0.75
6 4 -7 14.02 0.75
6 4 -7 15.1 0.75
4 -4 -7 21.23 1.05
4 4 -7 20.51 1.05
4 4 -7 21.73 1.04
2 -4 -7 38.74 1.89
2 4 -7 39.63 1.89
2 4 -7 39.58 1.89
0 -4 -7 12.47 0.63
0 4 -7 12.28 0.63
0 4 -7 12.28 0.61
-2 -4 -7 0.39 0.08
2 -4 7 0.22 0.07
-2 4 -7 0.3 0.06
-2 4 -7 0.41 0.08
-4 -4 -7 5.85 0.32
4 -4 7 5.88 0.32
-4 4 -7 5.98 0.3
-4 4 -7 5.9 0.33
-6 -4 -7 60.66 2.83
6 -4 7 57.14 2.78
-6 4 -7 60.2 2.82
-8 -4 -7 49.63 2.32
-8 4 -7 47.84 2.33
-10 -4 -7 20.47 1
-10 4 -7 20.59 1.01
-12 -4 -7 28.27 1.36
-14 -4 -7 0 0.05
19 -5 -7 1.83 0.19
19 5 -7 2 0.2
17 -5 -7 1.64 0.17
17 5 -7 1.7 0.19
17 5 -7 1.31 0.17
15 -5 -7 -0.04 0.08
15 5 -7 0 0.09
15 5 -7 0.15 0.11
13 -5 -7 2.07 0.18
13 -5 -7 2.26 0.18
13 5 -7 1.85 0.19
13 5 -7 1.84 0.18
11 -5 -7 0.21 0.09
11 5 -7 0.39 0.1
11 5 -7 0.33 0.09
9 -5 -7 0.44 0.09
9 5 -7 0.47 0.1
9 5 -7 0.4 0.09
7 -5 -7 3.2 0.23
7 5 -7 3.85 0.25
7 5 -7 3.62 0.23
5 -5 -7 5.23 0.3
5 5 -7 4.8 0.31
5 5 -7 5.55 0.3
3 -5 -7 0.18 0.08
3 5 -7 0.28 0.08
3 5 -7 0.27 0.07
1 -5 -7 1.22 0.12
1 5 -7 1.28 0.11
1 5 -7 1.32 0.14
-1 -5 -7 2.91 0.18
-1 5 -7 2.51 0.19
-1 5 -7 2.65 0.16
-3 -5 -7 7.34 0.38
-3 5 -7 6.83 0.35
-3 5 -7 6.86 0.39
-5 -5 -7 4.25 0.24
-5 5 -7 4.03 0.21
-5 5 -7 4.09 0.26
-7 -5 -7 12.04 0.59
-7 5 -7 11.37 0.6
-9 -5 -7 1.03 0.1
-9 5 -7 1.22 0.13
-11 -5 -7 20.21 0.99
-11 5 -7 20.48 1.01
-13 -5 -7 7.49 0.39
-15 -5 -7 3.47 0.2
-17 -5 -7 0.26 0.07
18 6 -7 10.75 0.6
16 6 -7 14.33 0.77
16 6 -7 14.3 0.76
14 6 -7 30.31 1.5
14 6 -7 30.49 1.51
12 -6 -7 28.86 1.43
12 6 -7 29.3 1.44
12 6 -7 29.14 1.45
10 -6 -7 4.85 0.3
10 6 -7 4.92 0.32
10 6 -7 4.68 0.3
8 -6 -7 1.75 0.16
8 6 -7 2.08 0.17
8 6 -7 1.82 0.18
6 -6 -7 21.83 1.06
6 6 -7 21.54 1.07
6 6 -7 20.87 1.06
4 -6 -7 41.5 1.94
4 6 -7 38.62 1.94
4 6 -7 40.1 1.93
2 -6 -7 8.48 0.43
2 6 -7 7.55 0.42
2 6 -7 7.85 0.44
0 -6 -7 2.02 0.15
0 6 -7 1.78 0.13
0 6 -7 1.53 0.16
-2 -6 -7 0.12 0.07
-2 6 -7 0.12 0.05
-2 6 -7 0.09 0.08
-4 -6 -7 5.25 0.3
-4 6 -7 5.69 0.32
-4 6 -7 5.14 0.28
-6 -6 -7 16.16 0.79
-6 6 -7 15.99 0.76
-6 6 -7 15.29 0.8
-8 -6 -7 37.18 1.78
-8 6 -7 37.04 1.79
-10 -6 -7 26.35 1.27
-10 6 -7 26.28 1.29
-12 -6 -7 7.03 0.36
-12 6 -7 6.76 0.39
-14 -6 -7 0.69 0.09
-16 -6 -7 3.26 0.2
15 7 -7 1.22 0.16
13 7 -7 -0.05 0.09
13 7 -7 0.07 0.11
11 -7 -7 0.05 0.09
11 7 -7 0.15 0.1
11 7 -7 0.16 0.09
9 -7 -7 2.71 0.21
9 7 -7 2.79 0.21
9 7 -7 2.54 0.23
7 -7 -7 6.38 0.36
7 7 -7 6.15 0.37
7 7 -7 6.01 0.35
5 -7 -7 1.94 0.16
5 7 -7 2.08 0.18
5 7 -7 1.41 0.15
3 -7 -7 0.1 0.08
3 7 -7 0.04 0.08
3 7 -7 -0.03 0.06
1 -7 -7 10.99 0.55
1 7 -7 9.95 0.56
1 7 -7 10.55 0.54
-1 -7 -7 0.85 0.1
-1 7 -7 0.93 0.09
-1 7 -7 0.91 0.13
-3 -7 -7 4.63 0.26
-3 7 -7 3.75 0.27
-3 7 -7 4.45 0.24
-5 -7 -7 5.3 0.3
-5 7 -7 5.63 0.32
-5 7 -7 5.32 0.28
-7 -7 -7 1.16 0.11
-7 7 -7 1.07 0.13
-7 7 -7 1.27 0.09
-9 -7 -7 0.33 0.08
-9 7 -7 0.23 0.05
-9 7 -7 0.26 0.09
-11 -7 -7 0.87 0.09
-11 7 -7 0.67 0.12
-13 -7 -7 2.59 0.17
-15 -7 -7 0.91 0.1
14 8 -7 14.22 0.75
12 8 -7 23.11 1.13
12 8 -7 20.83 1.11
10 8 -7 4.96 0.31
10 8 -7 5.06 0.33
8 -8 -7 0.18 0.08
8 8 -7 0.18 0.09
8 8 -7 0.03 0.09
6 -8 -7 3.77 0.25
6 8 -7 4.16 0.26
6 8 -7 3.87 0.28
4 -8 -7 13.91 0.71
4 8 -7 13.34 0.73
4 8 -7 14.37 0.71
2 -8 -7 1.55 0.15
2 8 -7 2.18 0.16
2 8 -7 1.65 0.18
0 -8 -7 1.63 0.15
0 8 -7 1.72 0.17
0 8 -7 1.94 0.15
-2 -8 -7 0.08 0.07
-2 8 -7 0.11 0.09
-2 8 -7 0.34 0.07
-4 -8 -7 5.39 0.31
-4 8 -7 5.61 0.33
-4 8 -7 5.28 0.29
-6 -8 -7 11.66 0.6
-6 8 -7 12.18 0.59
-6 8 -7 11.54 0.62
-8 -8 -7 12.65 0.65
-8 8 -7 13.63 0.63
-8 8 -7 12.07 0.67
-10 -8 -7 9.01 0.47
-10 8 -7 8.91 0.5
-10 8 -7 9.38 0.45
-12 -8 -7 2.63 0.18
-12 8 -7 2.82 0.23
-12 8 -7 2.78 0.16
11 9 -7 17.2 0.89
9 9 -7 11.54 0.62
9 9 -7 11.54 0.64
7 9 -7 8.87 0.5
7 9 -7 8.25 0.47
5 -9 -7 4.46 0.28
5 9 -7 4.52 0.28
5 9 -7 4.69 0.31
3 -9 -7 1.99 0.17
3 9 -7 1.76 0.19
3 9 -7 1.87 0.16
1 -9 -7 1.01 0.12
1 9 -7 0.9 0.11
1 9 -7 0.9 0.13
-1 -9 -7 5.54 0.31
-1 9 -7 5.6 0.3
-1 9 -7 4.46 0.32
-3 -9 -7 13.34 0.68
-3 9 -7 13.68 0.68
-3 9 -7 13.37 0.71
-5 -9 -7 16.43 0.82
-5 9 -7 16.02 0.85
-5 9 -7 16.97 0.81
-7 -9 -7 1.11 0.12
-7 9 -7 1.01 0.14
-7 9 -7 1.03 0.1
-9 -9 -7 1.92 0.15
-9 9 -7 2.04 0.14
-9 9 -7 1.67 0.18
-11 -9 -7 14.03 0.72
-11 9 -7 14.38 0.75
-11 9 -7 14.54 0.7
8 10 -7 1.73 0.18
6 10 -7 3.27 0.23
4 10 -7 0.92 0.13
4 10 -7 1.05 0.15
2 -10 -7 1.42 0.15
2 10 -7 1.55 0.15
2 10 -7 1.65 0.18
0 -10 -7 0.15 0.08
0 10 -7 0.17 0.1
0 10 -7 0.07 0.08
-2 -10 -7 0.46 0.09
-2 10 -7 0.36 0.11
-2 10 -7 0.53 0.1
-4 -10 -7 1.06 0.12
-4 10 -7 0.88 0.14
-4 10 -7 1.17 0.12
-6 -10 -7 0.19 0.08
-6 10 -7 0.15 0.08
-6 10 -7 0.24 0.11
-8 -10 -7 2.55 0.18
-8 10 -7 2.54 0.18
3 11 -7 -0.04 0.09
1 11 -7 8.85 0.48
-1 -11 -7 14.3 0.74
-1 11 -7 14.75 0.74
18 0 -8 7.02 0.41
18 0 -8 6.32 0.4
16 0 -8 2.5 0.22
16 0 -8 2.72 0.23
14 0 -8 12.94 0.69
14 0 -8 13.38 0.69
12 0 -8 27.7 1.38
12 0 -8 28.41 1.39
10 0 -8 41.73 1.96
10 0 -8 38.75 1.94
8 0 -8 34.85 1.72
8 0 -8 36.29 1.73
6 0 -8 20.14 0.97
6 0 -8 18.65 0.96
4 0 -8 3.57 0.23
4 0 -8 3.32 0.22
2 0 -8 12.85 0.62
2 0 -8 11.27 0.61
0 0 -8 3.26 0.21
-2 0 -8 4.62 0.27
-4 0 -8 1.16 0.11
-6 0 -8 0.44 0.08
-8 0 -8 2.57 0.16
-10 0 -8 5.98 0.31
-14 0 -8 54.09 2.56
-16 0 -8 40.22 1.91
17 -1 -8 0.51 0.13
17 -1 -8 0.49 0.12
17 1 -8 0.7 0.14
17 1 -8 0.74 0.13
15 -1 -8 6.12 0.37
15 -1 -8 5.67 0.37
15 1 -8 6.02 0.38
15 1 -8 6.92 0.38
13 -1 -8 1.17 0.15
13 -1 -8 1.3 0.15
13 1 -8 1.3 0.15
13 1 -8 1.68 0.17
11 -1 -8 1.32 0.16
11 -1 -8 1.72 0.16
11 1 -8 1.64 0.17
11 1 -8 1.96 0.18
9 -1 -8 0.69 0.12
9 -1 -8 0.97 0.12
9 1 -8 1.14 0.13
9 1 -8 1.14 0.13
7 -1 -8 0.06 0.07
7 -1 -8 -0.07 0.07
7 1 -8 0.02 0.07
7 1 -8 0 0.07
5 -1 -8 7.14 0.38
5 -1 -8 7.13 0.39
5 1 -8 6.52 0.39
5 1 -8 7.42 0.39
3 -1 -8 0.8 0.11
3 1 -8 0.76 0.11
3 1 -8 0.7 0.1
1 -1 -8 1.09 0.12
1 1 -8 1.24 0.12
1 1 -8 1.07 0.12
-1 -1 -8 0 0.06
-1 1 -8 -0.08 0.06
-1 1 -8 -0.05 0.06
-3 -1 -8 0.79 0.1
-3 1 -8 0.76 0.09
-5 -1 -8 5.5 0.3
-5 1 -8 5.46 0.3
-7 -1 -8 7.23 0.4
-7 1 -8 8.22 0.4
-9 -1 -8 0.14 0.06
-9 1 -8 0.17 0.06
-11 -1 -8 0.16 0.06
-11 1 -8 0.11 0.05
-13 -1 -8 1.68 0.12
-13 1 -8 1.69 0.11
-15 -1 -8 1.3 0.11
-15 1 -8 1.54 0.1
16 -2 -8 1.02 0.14
16 -2 -8 0.79 0.14
16 2 -8 0.95 0.14
16 2 -8 0.86 0.13
14 -2 -8 0.12 0.1
14 -2 -8 0.2 0.1
14 2 -8 0.52 0.12
14 2 -8 0.19 0.1
12 -2 -8 10.86 0.62
12 -2 -8 12.12 0.62
12 2 -8 11.84 0.63
12 2 -8 11.91 0.62
10 -2 -8 25.19 1.21
10 -2 -8 24.79 1.22
10 2 -8 24.72 1.22
10 2 -8 23.28 1.22
8 -2 -8 22.64 1.08
8 2 -8 20.47 1.07
8 2 -8 21.7 1.08
6 -2 -8 6.01 0.36
6 2 -8 6.38 0.37
6 2 -8 6.75 0.37
4 -2 -8 0.21 0.08
4 2 -8 0.23 0.08
4 2 -8 0.12 0.08
2 -2 -8 21.23 1.02
2 2 -8 19.58 1.01
2 2 -8 20.84 1.02
0 -2 -8 15.59 0.78
0 2 -8 15.59 0.77
0 2 -8 15.08 0.77
-2 -2 -8 13.58 0.67
-2 2 -8 12.51 0.66
-2 2 -8 13.86 0.68
-4 -2 -8 1.59 0.14
-4 2 -8 2 0.14
-4 2 -8 1.58 0.14
-6 -2 -8 1.73 0.14
-6 2 -8 1.78 0.13
-8 -2 -8 0.47 0.08
-8 2 -8 0.76 0.07
-10 -2 -8 3.41 0.21
-10 2 -8 4 0.2
-12 -2 -8 12.79 0.63
-14 -2 -8 12.3 0.61
-16 -2 -8 5.09 0.27
-16 2 -8 5.2 0.26
17 -3 -8 16.4 0.84
17 3 -8 15.85 0.85
17 3 -8 16.4 0.86
15 -3 -8 9.33 0.52
15 -3 -8 10.17 0.53
15 3 -8 9.19 0.53
15 3 -8 9.39 0.53
13 -3 -8 4.17 0.27
13 3 -8 3.62 0.27
13 3 -8 3.77 0.27
11 -3 -8 -0.08 0.08
11 3 -8 -0.22 0.08
11 3 -8 -0.09 0.08
9 -3 -8 1.18 0.14
9 3 -8 0.99 0.14
9 3 -8 1.03 0.13
7 -3 -8 3.4 0.23
7 3 -8 3.13 0.23
7 3 -8 3.35 0.22
5 -3 -8 8.65 0.47
5 3 -8 9.04 0.47
5 3 -8 8.49 0.47
3 -3 -8 29.44 1.39
3 3 -8 27.82 1.38
3 3 -8 27.69 1.38
1 -3 -8 5.68 0.33
1 3 -8 5.6 0.34
1 3 -8 6.36 0.33
-1 -3 -8 0.37 0.09
-1 3 -8 0.45 0.08
-1 3 -8 0.33 0.09
-3 -3 -8 6.93 0.37
-3 3 -8 6.72 0.37
-3 3 -8 6.64 0.36
-5 -3 -8 20.68 1.05
-5 3 -8 20.84 1.05
-5 3 -8 22.63 1.03
-7 -3 -8 8.3 0.47
-7 3 -8 9.46 0.45
-7 3 -8 9.43 0.48
-9 -3 -8 29.09 1.4
-11 -3 -8 11.26 0.56
-13 -3 -8 0.49 0.07
-15 -3 -8 12.61 0.62
16 4 -8 0.9 0.14
16 4 -8 0.32 0.13
14 -4 -8 0.44 0.12
14 4 -8 0.43 0.12
14 4 -8 0.63 0.13
12 -4 -8 3.65 0.26
12 4 -8 3.63 0.26
12 4 -8 3.67 0.28
10 -4 -8 6.5 0.38
10 4 -8 6.7 0.39
10 4 -8 6.08 0.37
8 -4 -8 4.12 0.27
8 4 -8 4.18 0.27
8 4 -8 3.94 0.27
6 -4 -8 0.33 0.1
6 4 -8 0.35 0.09
6 4 -8 0.22 0.09
4 -4 -8 6.08 0.35
4 4 -8 6.2 0.36
4 4 -8 6.21 0.35
2 -4 -8 0.83 0.11
2 4 -8 0.5 0.1
2 4 -8 0.75 0.1
0 -4 -8 0.07 0.07
0 4 -8 -0.07 0.07
0 4 -8 0.07 0.06
-2 -4 -8 0.19 0.08
-2 4 -8 0.16 0.07
-2 4 -8 0.16 0.08
-4 -4 -8 3.16 0.2
-4 4 -8 2.63 0.21
-4 4 -8 2.98 0.18
-6 -4 -8 0.69 0.09
-6 4 -8 0.59 0.1
-6 4 -8 0.84 0.07
-8 -4 -8 3.57 0.22
-8 4 -8 3.99 0.24
-10 -4 -8 0.27 0.07
-10 4 -8 0.35 0.09
-12 -4 -8 1.53 0.12
-14 -4 -8 1.48 0.12
15 5 -8 15.84 0.83
13 -5 -8 7.58 0.44
13 5 -8 7.1 0.43
13 5 -8 7.92 0.45
11 -5 -8 3.09 0.23
11 5 -8 2.86 0.23
11 5 -8 3.02 0.25
9 -5 -8 1.05 0.13
9 5 -8 0.73 0.12
9 5 -8 0.99 0.14
7 -5 -8 7.98 0.44
7 5 -8 7.76 0.43
7 5 -8 7.93 0.45
5 -5 -8 46.33 2.16
5 5 -8 43.49 2.16
5 5 -8 44.24 2.15
3 -5 -8 29.21 1.38
3 5 -8 27.72 1.37
3 5 -8 27.38 1.38
1 -5 -8 6.8 0.37
1 5 -8 6.37 0.35
1 5 -8 6.39 0.38
-1 -5 -8 5.18 0.3
-1 5 -8 4.92 0.3
-1 5 -8 4.9 0.28
-3 -5 -8 4.24 0.25
-3 5 -8 4.01 0.23
-3 5 -8 3.99 0.26
-5 -5 -8 40.4 1.95
-5 5 -8 39.37 1.93
-5 5 -8 41.93 1.96
-7 -5 -8 39.73 1.89
-7 5 -8 39.21 1.9
-7 5 -8 39.23 1.87
-9 -5 -8 22 1.1
-9 5 -8 23.31 1.12
-11 -5 -8 10.96 0.54
-11 5 -8 10.15 0.56
-13 -5 -8 0.25 0.07
14 6 -8 0.76 0.14
12 -6 -8 0.06 0.09
12 6 -8 -0.06 0.1
12 6 -8 -0.1 0.08
10 -6 -8 0.07 0.09
10 6 -8 0.29 0.1
10 6 -8 0.12 0.09
8 -6 -8 0.42 0.1
8 6 -8 0.43 0.1
8 6 -8 0.33 0.11
6 -6 -8 1.53 0.16
6 6 -8 1.65 0.16
6 6 -8 1.79 0.18
4 -6 -8 0.65 0.11
4 6 -8 0.39 0.09
4 6 -8 0.62 0.12
2 -6 -8 3.84 0.26
2 6 -8 4.2 0.27
2 6 -8 4.09 0.25
0 -6 -8 0.12 0.08
0 6 -8 0.12 0.09
0 6 -8 0.26 0.07
-2 -6 -8 1.23 0.13
-2 6 -8 1.08 0.11
-2 6 -8 1.03 0.14
-4 -6 -8 3.35 0.21
-4 6 -8 3.07 0.22
-4 6 -8 2.89 0.18
-6 -6 -8 0.17 0.07
-6 6 -8 0 0.08
-6 6 -8 -0.05 0.05
-8 -6 -8 1.69 0.14
-8 6 -8 1.83 0.17
-10 -6 -8 2.48 0.18
-10 6 -8 2.68 0.21
-12 -6 -8 0.2 0.07
11 7 -8 3.07 0.26
11 7 -8 4.11 0.28
9 -7 -8 0.37 0.1
9 7 -8 0.32 0.12
9 7 -8 0.26 0.1
7 -7 -8 13.84 0.69
7 7 -8 13.27 0.71
7 7 -8 12.53 0.69
5 -7 -8 9.82 0.53
5 7 -8 9.68 0.55
5 7 -8 10.06 0.53
3 -7 -8 2.76 0.21
3 7 -8 2.68 0.19
3 7 -8 2.19 0.21
1 -7 -8 8.17 0.43
1 7 -8 7.67 0.42
1 7 -8 7.31 0.44
-1 -7 -8 0.77 0.11
-1 7 -8 0.41 0.11
-1 7 -8 0.56 0.09
-3 -7 -8 1.56 0.14
-3 7 -8 1.45 0.16
-3 7 -8 1.64 0.13
-5 -7 -8 8.35 0.45
-5 7 -8 8.41 0.47
-5 7 -8 8.61 0.43
-7 -7 -8 21.83 1.07
-7 7 -8 22.37 1.04
-7 7 -8 20.78 1.08
-9 -7 -8 14.06 0.69
-9 7 -8 13.32 0.71
-11 -7 -8 4.15 0.24
-11 7 -8 3.7 0.27
10 8 -8 17.49 0.9
8 -8 -8 21.87 1.06
8 8 -8 20 1.05
8 8 -8 20.81 1.07
6 -8 -8 1.61 0.17
6 8 -8 1.85 0.2
6 8 -8 1.86 0.17
4 -8 -8 1.37 0.15
4 8 -8 1.42 0.14
4 8 -8 1.28 0.17
2 -8 -8 2.84 0.2
2 8 -8 2.18 0.19
2 8 -8 2.41 0.22
0 -8 -8 10.4 0.53
0 8 -8 10.01 0.55
0 8 -8 9.52 0.52
-2 -8 -8 13.04 0.65
-2 8 -8 12.37 0.67
-2 8 -8 12.41 0.64
-4 -8 -8 5.42 0.31
-4 8 -8 5.13 0.29
-4 8 -8 5.17 0.33
-6 -8 -8 0.05 0.08
-6 8 -8 0.34 0.11
-6 8 -8 0.17 0.07
-8 -8 -8 7.47 0.42
-8 8 -8 7.93 0.45
-8 8 -8 7.75 0.39
5 -9 -8 13.54 0.71
5 9 -8 13.8 0.71
3 -9 -8 8.41 0.47
3 9 -8 8.47 0.46
1 -9 -8 0.95 0.13
1 9 -8 1.24 0.16
1 9 -8 0.9 0.12
-1 -9 -8 1.18 0.13
-1 9 -8 0.71 0.14
-1 9 -8 0.81 0.11
-3 -9 -8 3.59 0.23
-3 9 -8 3.04 0.26
-3 9 -8 3.33 0.22
12 0 -9 -0.04 0.09
12 0 -9 -0.22 0.09
10 0 -9 -0.04 0.09
8 0 -9 -0.15 0.08
6 0 -9 -0.2 0.08
4 0 -9 -0.02 0.08
2 0 -9 -0.08 0.08
0 0 -9 -0.08 0.08
-2 0 -9 0 0.08
-4 0 -9 0.04 0.07
-6 0 -9 -0.02 0.07
-8 0 -9 -0.04 0.07
-10 0 -9 -0.03 0.06
-12 0 -9 -0.03 0.06
13 -1 -9 14.84 0.77
13 1 -9 14.59 0.77
13 1 -9 14.19 0.77
11 -1 -9 19.53 1
11 1 -9 19.41 0.99
11 1 -9 19.48 1
9 -1 -9 21.65 1.09
9 1 -9 21.52 1.08
9 1 -9 21.36 1.09
7 -1 -9 10.15 0.56
7 1 -9 10.34 0.56
5 -1 -9 1.58 0.16
5 1 -9 1.65 0.16
3 -1 -9 19.16 0.97
3 1 -9 19.45 0.97
1 -1 -9 36.04 1.78
1 1 -9 37.3 1.78
-1 -1 -9 34.31 1.68
-1 1 -9 34.79 1.68
-3 -1 -9 6.62 0.37
-3 1 -9 6.37 0.36
-5 -1 -9 3.46 0.21
-5 1 -9 2.55 0.19
-7 -1 -9 10.32 0.54
-7 1 -9 10.79 0.54
-9 -1 -9 25.91 1.33
-9 1 -9 28.98 1.33
-11 -1 -9 33.73 1.69
-11 1 -9 36.87 1.69
12 -2 -9 0.73 0.14
12 2 -9 0.84 0.14
12 2 -9 0.88 0.14
10 -2 -9 0.7 0.13
10 2 -9 0.65 0.12
10 2 -9 0.39 0.11
8 -2 -9 0.16 0.1
8 2 -9 0.22 0.1
8 2 -9 0.19 0.1
6 -2 -9 4.47 0.28
6 2 -9 3.88 0.27
6 2 -9 4.29 0.28
4 -2 -9 7.59 0.41
4 2 -9 6.32 0.39
4 2 -9 7.02 0.4
2 -2 -9 5.15 0.32
2 2 -9 5.41 0.31
0 -2 -9 1.99 0.18
0 2 -9 2.21 0.18
-2 -2 -9 0.19 0.09
-2 2 -9 0.36 0.09
-4 -2 -9 1.87 0.16
-4 2 -9 2.08 0.16
-6 -2 -9 2.28 0.18
-6 2 -9 2.87 0.18
-8 -2 -9 7.13 0.39
-8 2 -9 7.31 0.38
-10 -2 -9 2.48 0.18
-10 2 -9 2.67 0.17
11 -3 -9 2.46 0.21
11 3 -9 1.98 0.2
11 3 -9 2.31 0.21
9 -3 -9 4.96 0.31
9 3 -9 4.24 0.3
9 3 -9 4.53 0.3
7 -3 -9 5.85 0.34
7 3 -9 5.17 0.32
7 3 -9 4.53 0.32
5 -3 -9 0.2 0.1
5 3 -9 0.21 0.09
5 3 -9 0.32 0.1
3 -3 -9 2.65 0.21
3 3 -9 2.23 0.2
3 3 -9 2.69 0.2
1 -3 -9 7.78 0.42
1 3 -9 7.13 0.4
1 3 -9 6.96 0.41
-1 -3 -9 22.06 1.08
-1 3 -9 21.38 1.07
-3 -3 -9 7.15 0.4
-3 3 -9 7.21 0.39
-5 -3 -9 1.97 0.17
-5 3 -9 2.34 0.16
-7 -3 -9 0.1 0.08
-7 3 -9 -0.05 0.06
-9 -3 -9 3.73 0.24
-9 3 -9 4.4 0.23
-11 -3 -9 5.06 0.31
-11 3 -9 6.13 0.3
10 -4 -9 1.59 0.17
10 4 -9 1.62 0.17
10 4 -9 1.5 0.18
8 -4 -9 11.93 0.63
8 4 -9 11.83 0.64
8 4 -9 11.53 0.63
6 -4 -9 60.92 2.84
6 4 -9 57.68 2.83
6 4 -9 57.91 2.83
4 -4 -9 37.12 1.72
4 4 -9 33.28 1.71
4 4 -9 34.66 1.7
2 -4 -9 7.12 0.41
2 4 -9 7.26 0.42
2 4 -9 7.33 0.4
0 -4 -9 1 0.13
0 4 -9 1.23 0.13
0 4 -9 1.08 0.14
-2 -4 -9 16.6 0.84
-2 4 -9 16.17 0.83
-2 4 -9 17.36 0.85
-4 -4 -9 13.15 0.68
-4 4 -9 13.18 0.66
-6 -4 -9 10.86 0.58
-6 4 -9 11.63 0.57
-8 -4 -9 12.96 0.67
-8 4 -9 13.69 0.66
-10 -4 -9 1.09 0.12
9 -5 -9 2.22 0.21
9 5 -9 2.03 0.2
9 5 -9 2.68 0.23
7 -5 -9 0.86 0.14
7 5 -9 0.92 0.13
7 5 -9 0.86 0.14
5 -5 -9 0.37 0.11
5 5 -9 0.32 0.1
5 5 -9 0.28 0.12
3 -5 -9 0.38 0.11
3 5 -9 0.36 0.1
3 5 -9 0.23 0.11
1 -5 -9 3.62 0.24
1 5 -9 3.63 0.27
1 5 -9 3.26 0.23
-1 -5 -9 0.88 0.12
-1 5 -9 1.05 0.14
-1 5 -9 0.98 0.11
-3 -5 -9 3.72 0.25
-3 5 -9 4.01 0.27
-3 5 -9 3.82 0.24
-5 -5 -9 2.5 0.2
-5 5 -9 2.71 0.18
-5 5 -9 2.92 0.22
-7 -5 -9 13.12 0.67
-7 5 -9 13.3 0.65
6 -6 -9 24.34 1.18
6 6 -9 22.79 1.19
6 6 -9 23.55 1.18
4 -6 -9 14.92 0.77
4 6 -9 14.26 0.77
4 6 -9 14.91 0.76
2 -6 -9 11.27 0.61
2 6 -9 11.53 0.6
2 6 -9 11.91 0.63
0 -6 -9 0.82 0.12
0 6 -9 0.69 0.11
0 6 -9 0.63 0.13
-2 -6 -9 2.44 0.2
-2 6 -9 2.68 0.18
-2 6 -9 2.32 0.21
-4 -6 -9 23.51 1.12
-4 6 -9 21.76 1.13
-4 6 -9 22.32 1.1
-6 -6 -9 8.2 0.45
-6 6 -9 8.62 0.43
-6 6 -9 8.03 0.47
3 7 -9 0.11 0.11
1 -7 -9 0.38 0.11
1 7 -9 0.33 0.09
1 7 -9 0.49 0.12
-1 -7 -9 4.7 0.32
-1 7 -9 5.97 0.31
-1 7 -9 5.31 0.34
4 0 -10 9.88 0.55
2 0 -10 19.26 0.98
0 0 -10 42.92 2.09
-2 0 -10 6.77 0.39
5 -1 -10 4.47 0.3
5 1 -10 4.05 0.29
3 -1 -10 0.97 0.14
3 1 -10 0.72 0.13
1 -1 -10 -0.01 0.1
1 1 -10 0.14 0.1
-1 -1 -10 4.77 0.32
-1 1 -10 5.32 0.32
-3 -1 -10 3.25 0.23
-3 1 -10 2.8 0.22
2 -2 -10 29.51 1.46
0 -2 -10 23.24 1.16
0 2 -10 22.98 1.15
-2 -2 -10 14.65 0.77
-2 2 -10 15.12 0.77
loop_
_smtbx_masks_void_nr
_smtbx_masks_void_average_x
_smtbx_masks_void_average_y
_smtbx_masks_void_average_z
_smtbx_masks_void_volume
_smtbx_masks_void_count_electrons
1 0.000 0.000 -0.246 368.3 104.0
2 0.500 0.500 -0.210 368.3 104.0
