#------------------------------------------------------------------------------
#$Date: 2017-06-05 03:21:22 +0300 (Mon, 05 Jun 2017) $
#$Revision: 197420 $
#$URL: file:///home/coder/svn-repositories/cod/cif/4/12/59/4125921.cif $
#------------------------------------------------------------------------------
#
# This file is available in the Crystallography Open Database (COD),
# http://www.crystallography.net/
#
# All data on this site have been placed in the public domain by the
# contributors.
#
data_4125921
loop_
_publ_author_name
'Bezuidenhout, Charl X.'
'Smith, Vincent J.'
'Esterhuysen, Catharine'
'Barbour, Leonard J.'
_publ_section_title
;
 Solvent- and Pressure-Induced Phase Changes in Two 3D Copper
 Glutarate-Based Metal-Organic Frameworks via Glutarate (+gauche &#x21C4;
 -gauche) Conformational Isomerism.
;
_journal_issue                   16
_journal_name_full               'Journal of the American Chemical Society'
_journal_page_first              5923
_journal_page_last               5929
_journal_paper_doi               10.1021/jacs.7b01764
_journal_volume                  139
_journal_year                    2017
_chemical_formula_moiety         'C11.5 H13 Cu N O4, C3 H6 O'
_chemical_formula_sum            'C14.5 H19 Cu N O5'
_chemical_formula_weight         350.85
_space_group_crystal_system      orthorhombic
_space_group_IT_number           56
_space_group_name_Hall           '-P 2ab 2ac'
_space_group_name_H-M_alt        'P c c n'
_symmetry_space_group_name_Hall  '-P 2ab 2ac'
_symmetry_space_group_name_H-M   'P c c n'
_atom_sites_solution_hydrogens   geom
_audit_creation_date             2017-03-28
_audit_creation_method
;
Olex2 1.2
(compiled 2017.03.02 svn.r3394 for OlexSys, GUI svn.r5324)
;
_cell_angle_alpha                90
_cell_angle_beta                 90
_cell_angle_gamma                90
_cell_formula_units_Z            8
_cell_length_a                   12.9025(11)
_cell_length_b                   27.615(2)
_cell_length_c                   8.5728(7)
_cell_measurement_reflns_used    9903
_cell_measurement_temperature    100(2)
_cell_measurement_theta_max      28.349
_cell_measurement_theta_min      2.718
_cell_volume                     3054.5(4)
_computing_cell_refinement       'SAINT v8.27A (Bruker, 2012)'
_computing_data_reduction        'SAINT v8.27A (Bruker, 2012)'
_computing_molecular_graphics    'Olex2 (Dolomanov et al., 2009)'
_computing_publication_material  'Olex2 (Dolomanov et al., 2009)'
_computing_structure_refinement  'ShelXL (Sheldrick, 2015)'
_diffrn_ambient_temperature      100.15
_diffrn_measured_fraction_theta_full 1.000
_diffrn_measured_fraction_theta_max 0.952
_diffrn_measurement_device_type  'Bruker APEX-II CCD'
_diffrn_measurement_method       '\f and \w scans'
_diffrn_radiation_monochromator  graphite
_diffrn_radiation_type           MoK\a
_diffrn_radiation_wavelength     0.71073
_diffrn_reflns_av_R_equivalents  0.0209
_diffrn_reflns_av_unetI/netI     0.0172
_diffrn_reflns_Laue_measured_fraction_full 1.000
_diffrn_reflns_Laue_measured_fraction_max 0.952
_diffrn_reflns_limit_h_max       17
_diffrn_reflns_limit_h_min       -12
_diffrn_reflns_limit_k_max       36
_diffrn_reflns_limit_k_min       -36
_diffrn_reflns_limit_l_max       11
_diffrn_reflns_limit_l_min       -11
_diffrn_reflns_number            18023
_diffrn_reflns_point_group_measured_fraction_full 1.000
_diffrn_reflns_point_group_measured_fraction_max 0.952
_diffrn_reflns_theta_full        25.000
_diffrn_reflns_theta_max         28.440
_diffrn_reflns_theta_min         1.475
_diffrn_standards_number         0
_exptl_absorpt_coefficient_mu    1.451
_exptl_absorpt_correction_T_max  0.9680
_exptl_absorpt_correction_T_min  0.7601
_exptl_absorpt_correction_type   multi-scan
_exptl_absorpt_process_details
'SADABS-2012/1 (Bruker,2012) was used for absorption correction. wR2(int) was 0.0695 before and 0.0321 after correction. The Ratio of minimum to maximum transmission is 0.7852. The \l/2 correction factor is 0.0015.'
_exptl_crystal_colour            'clear greenish green'
_exptl_crystal_colour_lustre     clear
_exptl_crystal_colour_modifier   greenish
_exptl_crystal_colour_primary    green
_exptl_crystal_density_diffrn    1.526
_exptl_crystal_description       block
_exptl_crystal_F_000             1456
_exptl_crystal_size_max          0.652
_exptl_crystal_size_mid          0.228
_exptl_crystal_size_min          0.098
_refine_diff_density_max         0.382
_refine_diff_density_min         -0.463
_refine_diff_density_rms         0.059
_refine_ls_extinction_method     none
_refine_ls_goodness_of_fit_ref   1.050
_refine_ls_hydrogen_treatment    constr
_refine_ls_matrix_type           full
_refine_ls_number_parameters     197
_refine_ls_number_reflns         3676
_refine_ls_number_restraints     0
_refine_ls_restrained_S_all      1.050
_refine_ls_R_factor_all          0.0254
_refine_ls_R_factor_gt           0.0228
_refine_ls_shift/su_max          0.005
_refine_ls_shift/su_mean         0.000
_refine_ls_structure_factor_coef Fsqd
_refine_ls_weighting_details
'w=1/[\s^2^(Fo^2^)+(0.0263P)^2^+2.2456P] where P=(Fo^2^+2Fc^2^)/3'
_refine_ls_weighting_scheme      calc
_refine_ls_wR_factor_gt          0.0570
_refine_ls_wR_factor_ref         0.0583
_reflns_Friedel_coverage         0.000
_reflns_number_gt                3390
_reflns_number_total             3676
_reflns_threshold_expression     'I > 2\s(I)'
_iucr_refine_instructions_details
;
TITL solve1 in Pccn
    2a.res
    created by SHELXL-2016/6 at 21:29:15 on 28-Mar-2017
CELL 0.71073 12.9025 27.6154 8.5728 90 90 90
ZERR 8 0.0011 0.0023 0.0007 0 0 0
LATT 1
SYMM 0.5-X,0.5-Y,+Z
SYMM 0.5+X,-Y,0.5-Z
SYMM -X,0.5+Y,0.5-Z
SFAC C H N O Cu
UNIT 116 152 8 40 8

L.S. 10
PLAN  20
SIZE 0.098 0.228 0.652
TEMP -173
GRID
BOND $H
fmap
acta 50
MERG 2
REM <olex2.extras>
REM <HklSrc "%.\\2a.hkl">
REM </olex2.extras>

WGHT    0.026300    2.245600
FVAR       0.09550
CU1   5    0.547569    0.539030    0.052584    11.00000    0.00691    0.00829 =
         0.00704   -0.00045   -0.00064   -0.00119
C1    1    0.676638    0.463478   -0.058582    11.00000    0.00989    0.01463 =
         0.00564    0.00122   -0.00058    0.00034
O2    4    0.541275    0.566674   -0.159770    11.00000    0.01665    0.01498 =
         0.01025    0.00233   -0.00350   -0.00585
O3    4    0.538791    0.500163    0.245825    11.00000    0.01612    0.01046 =
         0.00978    0.00110   -0.00062   -0.00200
O4    4    0.678416    0.505525   -0.000238    11.00000    0.00901    0.01369 =
         0.01648   -0.00402    0.00139   -0.00051
C6    1    0.493601    0.542563   -0.262484    11.00000    0.00575    0.01326 =
         0.00970    0.00059    0.00167    0.00101
O7    4    0.403676    0.561543    0.081946    11.00000    0.00827    0.01421 =
         0.01856   -0.00376   -0.00123    0.00013
N9    3    0.607777    0.598509    0.190799    11.00000    0.01120    0.00986 =
         0.00881    0.00016   -0.00060   -0.00268
C10   1    0.472248    0.566751   -0.418641    11.00000    0.00957    0.01414 =
         0.00959    0.00357   -0.00033   -0.00207
AFIX  23
H10A  2    0.530654    0.560082   -0.490386    11.00000   -1.20000
H10B  2    0.468245    0.602234   -0.403304    11.00000   -1.20000
AFIX   0
C11   1    0.545857    0.635227    0.233003    11.00000    0.01108    0.01147 =
         0.01416    0.00013   -0.00109   -0.00121
AFIX  43
H11   2    0.478960    0.637371    0.187228    11.00000   -1.20000
AFIX   0
C12   1    0.750000    0.750000    0.420038    10.50000    0.02137    0.01089 =
         0.00805    0.00000    0.00000   -0.00485
AFIX  23
H12A  2    0.806606    0.738281    0.351827    10.50000   -1.20000
H12B  2    0.693392    0.761720    0.351833    10.50000   -1.20000
AFIX   0
C13   1    0.574986    0.670225    0.340424    11.00000    0.01570    0.00884 =
         0.01572   -0.00185    0.00116    0.00007
AFIX  43
H13   2    0.528626    0.695659    0.366862    11.00000   -1.20000
AFIX   0
C14   1    0.736564    0.629453    0.365912    11.00000    0.01423    0.01224 =
         0.01250    0.00200   -0.00456   -0.00234
AFIX  43
H14   2    0.803784    0.626376    0.410034    11.00000   -1.20000
AFIX   0
C15   1    0.672477    0.667861    0.409210    11.00000    0.01840    0.00915 =
         0.00679    0.00159    0.00087   -0.00580
C16   1    0.371380    0.549057   -0.493517    11.00000    0.00949    0.01562 =
         0.00833    0.00033   -0.00092   -0.00052
AFIX  23
H16A  2    0.361233    0.565733   -0.594597    11.00000   -1.20000
H16B  2    0.376570    0.513872   -0.514228    11.00000   -1.20000
AFIX   0
C17   1    0.709520    0.707314    0.516929    11.00000    0.02269    0.01070 =
         0.00801   -0.00009   -0.00151   -0.00584
AFIX  23
H17A  2    0.765501    0.694771    0.584785    11.00000   -1.20000
H17B  2    0.651733    0.718216    0.584298    11.00000   -1.20000
AFIX   0

C18   1    0.377723    0.702004   -0.043877    11.00000    0.05522    0.02339 =
         0.03463   -0.00268   -0.01067    0.01526
C19   1    0.778101    0.441267   -0.111596    11.00000    0.00955    0.01597 =
         0.01256   -0.00377    0.00077    0.00051
AFIX  23
H19A  2    0.794117    0.453639   -0.217269    11.00000   -1.20000
H19B  2    0.768543    0.405796   -0.120151    11.00000   -1.20000
AFIX   0
C20   1    0.701555    0.595828    0.258158    11.00000    0.01209    0.01023 =
         0.01285    0.00099   -0.00161   -0.00050
AFIX  43
H20   2    0.745873    0.569711    0.230708    11.00000   -1.20000
AFIX   0

O23   4    0.388214    0.725595    0.074714    11.00000    0.07862    0.05997 =
         0.05358   -0.02960   -0.03285    0.03745
C26   1    0.273816    0.684204   -0.094654    11.00000    0.05690    0.03912 =
         0.04105   -0.00489    0.00098    0.00216
AFIX 137
H26A  2    0.222099    0.692316   -0.015115    11.00000   -1.50000
H26B  2    0.276254    0.648998   -0.108569    11.00000   -1.50000
H26C  2    0.254882    0.699611   -0.193612    11.00000   -1.50000
AFIX   0
C27   1    0.467607    0.689459   -0.144810    11.00000    0.05575    0.03026 =
         0.05242    0.00580    0.00350    0.00642
AFIX 137
H27A  2    0.530835    0.703711   -0.101167    11.00000   -1.50000
H27B  2    0.456080    0.702226   -0.250050    11.00000   -1.50000
H27C  2    0.475111    0.654178   -0.149693    11.00000   -1.50000
AFIX   0
HKLF 4




REM  solve1 in Pccn
REM R1 =  0.0228 for    3390 Fo > 4sig(Fo)  and  0.0254 for all    3676 data
REM    197 parameters refined using      0 restraints

END  
     
WGHT      0.0264      2.2450 

REM Highest difference peak  0.382,  deepest hole -0.463,  1-sigma level  0.059
Q1    1   0.7337  0.7282  0.4672  11.00000  0.05    0.38
Q2    1   0.7059  0.6501  0.3857  11.00000  0.05    0.35
Q3    1   0.7282  0.4524 -0.0813  11.00000  0.05    0.35
Q4    1   0.4870  0.5555 -0.3399  11.00000  0.05    0.34
Q5    1   0.6931  0.6876  0.4574  11.00000  0.05    0.33
Q6    1   0.7125  0.6114  0.3240  11.00000  0.05    0.32
Q7    1   0.4225  0.5579 -0.4580  11.00000  0.05    0.31
Q8    1   0.5709  0.6604  0.2593  11.00000  0.05    0.29
Q9    1   0.5611  0.6470  0.2925  11.00000  0.05    0.29
Q10   1   0.6338  0.6727  0.3557  11.00000  0.05    0.28
Q11   1   0.8240  0.4461 -0.0581  11.00000  0.05    0.27
Q12   1   0.5838  0.6158  0.2189  11.00000  0.05    0.26
Q13   1   0.5277  0.4799  0.2555  11.00000  0.05    0.25
Q14   1   0.4237  0.7326 -0.0058  11.00000  0.05    0.23
Q15   1   0.6512  0.6012  0.2279  11.00000  0.05    0.23
Q16   1   0.6358  0.5213  0.0080  11.00000  0.05    0.23
Q17   1   0.5375  0.5099  0.1789  11.00000  0.05    0.22
Q18   1   0.6054  0.5879  0.1308  11.00000  0.05    0.22
Q19   1   0.3218  0.6871 -0.0520  11.00000  0.05    0.20
Q20   1   0.5364  0.5623 -0.0815  11.00000  0.05    0.20

  REM The information below was added by Olex2.
  REM
  REM R1 = 0.0228 for 3390 Fo > 4sig(Fo) and 0.0254 for all 19413 data
  REM n/a parameters refined using n/a restraints
  REM Highest difference peak 0.38, deepest hole -0.46
  REM Mean Shift 0, Max Shift -0.005.

  REM +++ Tabular Listing of Refinement Information +++
  REM R1_all = 0.0254
  REM R1_gt = 0.0228
  REM wR_ref = 0.0583
  REM GOOF = 1.050
  REM Shift_max = -0.005
  REM Shift_mean = 0
  REM Reflections_all = 19413
  REM Reflections_gt = 3390
  REM Parameters = n/a
  REM Hole = -0.46
  REM Peak = 0.38
  REM Flack = n/a

  
;
_cod_data_source_file            2a.cif
_cod_data_source_block           2a
_cod_depositor_comments
'Adding full bibliography for 4125916--4125921.cif.'
_cod_original_cell_volume        3054.6(4)
_cod_original_formula_sum        'C14.50 H19 Cu N O5'
_cod_database_code               4125921
_shelx_shelxl_version_number     2016/6
_shelx_space_group_comment
;
The symmetry employed for this shelxl refinement is uniquely defined
by the following loop, which should always be used as a source of
symmetry information in preference to the above space-group names.
They are only intended as comments.
;
_shelx_estimated_absorpt_t_max   0.871
_shelx_estimated_absorpt_t_min   0.451
_olex2_refinement_description
;
1. Fixed Uiso
 At 1.2 times of:
  All C(H) groups, All C(H,H) groups
 At 1.5 times of:
  All C(H,H,H) groups
2. Others
 Fixed Sof: H12A(0.5) H12B(0.5)
3.a Secondary CH2 refined with riding coordinates:
 C10(H10A,H10B), C12(H12A,H12B), C16(H16A,H16B), C17(H17A,H17B), C19(H19A,H19B)
3.b Aromatic/amide H refined with riding coordinates:
 C11(H11), C13(H13), C14(H14), C20(H20)
3.c Idealised Me refined as rotating group:
 C26(H26A,H26B,H26C), C27(H27A,H27B,H27C)
;
_olex2_submission_special_instructions 'No special instructions were received'
loop_
_space_group_symop_operation_xyz
'x, y, z'
'-x+1/2, -y+1/2, z'
'x+1/2, -y, -z+1/2'
'-x, y+1/2, -z+1/2'
'-x, -y, -z'
'x-1/2, y-1/2, -z'
'-x-1/2, y, z-1/2'
'x, -y-1/2, z-1/2'
loop_
_atom_site_label
_atom_site_type_symbol
_atom_site_fract_x
_atom_site_fract_y
_atom_site_fract_z
_atom_site_U_iso_or_equiv
_atom_site_adp_type
_atom_site_occupancy
_atom_site_site_symmetry_order
_atom_site_calc_flag
_atom_site_refinement_flags_posn
_atom_site_refinement_flags_adp
_atom_site_refinement_flags_occupancy
Cu1 Cu 0.54757(2) 0.53903(2) 0.05258(2) 0.00741(6) Uani 1 1 d . . .
C1 C 0.67664(10) 0.46348(5) -0.05858(14) 0.0101(2) Uani 1 1 d . . .
O2 O 0.54128(7) 0.56667(4) -0.15977(11) 0.0140(2) Uani 1 1 d . . .
O3 O 0.53879(7) 0.50016(3) 0.24582(11) 0.01212(19) Uani 1 1 d . . .
O4 O 0.67842(7) 0.50553(3) -0.00024(12) 0.01306(19) Uani 1 1 d . . .
C6 C 0.49360(10) 0.54256(5) -0.26248(15) 0.0096(2) Uani 1 1 d . . .
O7 O 0.40368(7) 0.56154(3) 0.08195(12) 0.0137(2) Uani 1 1 d . . .
N9 N 0.60778(9) 0.59851(4) 0.19080(12) 0.0100(2) Uani 1 1 d . . .
C10 C 0.47225(10) 0.56675(5) -0.41864(15) 0.0111(2) Uani 1 1 d . . .
H10A H 0.530654 0.560082 -0.490386 0.013 Uiso 1 1 calc R . .
H10B H 0.468245 0.602234 -0.403304 0.013 Uiso 1 1 calc R . .
C11 C 0.54586(10) 0.63523(5) 0.23300(16) 0.0122(3) Uani 1 1 d . . .
H11 H 0.478960 0.637371 0.187228 0.015 Uiso 1 1 calc R . .
C12 C 0.750000 0.750000 0.4200(2) 0.0134(4) Uani 1 2 d S T P
H12A H 0.806606 0.738281 0.351827 0.016 Uiso 0.5 1 calc R . .
H12B H 0.693392 0.761720 0.351833 0.016 Uiso 0.5 1 calc R . .
C13 C 0.57499(11) 0.67022(5) 0.34042(16) 0.0134(3) Uani 1 1 d . . .
H13 H 0.528626 0.695659 0.366862 0.016 Uiso 1 1 calc R . .
C14 C 0.73656(11) 0.62945(5) 0.36591(16) 0.0130(3) Uani 1 1 d . . .
H14 H 0.803784 0.626376 0.410034 0.016 Uiso 1 1 calc R . .
C15 C 0.67248(11) 0.66786(5) 0.40921(15) 0.0114(2) Uani 1 1 d . . .
C16 C 0.37138(10) 0.54906(5) -0.49352(15) 0.0111(2) Uani 1 1 d . . .
H16A H 0.361233 0.565733 -0.594597 0.013 Uiso 1 1 calc R . .
H16B H 0.376570 0.513872 -0.514228 0.013 Uiso 1 1 calc R . .
C17 C 0.70952(11) 0.70731(5) 0.51693(15) 0.0138(3) Uani 1 1 d . . .
H17A H 0.765501 0.694771 0.584785 0.017 Uiso 1 1 calc R . .
H17B H 0.651733 0.718216 0.584298 0.017 Uiso 1 1 calc R . .
C18 C 0.37772(18) 0.70200(7) -0.0439(2) 0.0377(5) Uani 1 1 d . . .
C19 C 0.77810(10) 0.44127(5) -0.11160(16) 0.0127(3) Uani 1 1 d . . .
H19A H 0.794117 0.453639 -0.217269 0.015 Uiso 1 1 calc R . .
H19B H 0.768543 0.405796 -0.120151 0.015 Uiso 1 1 calc R . .
C20 C 0.70156(10) 0.59583(5) 0.25816(16) 0.0117(2) Uani 1 1 d . . .
H20 H 0.745873 0.569711 0.230708 0.014 Uiso 1 1 calc R . .
O23 O 0.38821(15) 0.72559(6) 0.0747(2) 0.0641(6) Uani 1 1 d . . .
C26 C 0.27382(18) 0.68420(8) -0.0947(3) 0.0457(5) Uani 1 1 d . . .
H26A H 0.222099 0.692316 -0.015115 0.069 Uiso 1 1 calc GR . .
H26B H 0.276254 0.648998 -0.108569 0.069 Uiso 1 1 calc GR . .
H26C H 0.254882 0.699611 -0.193612 0.069 Uiso 1 1 calc GR . .
C27 C 0.46761(18) 0.68946(8) -0.1448(3) 0.0461(5) Uani 1 1 d . . .
H27A H 0.530835 0.703711 -0.101167 0.069 Uiso 1 1 calc GR . .
H27B H 0.456080 0.702226 -0.250050 0.069 Uiso 1 1 calc GR . .
H27C H 0.475111 0.654178 -0.149693 0.069 Uiso 1 1 calc GR . .
loop_
_atom_site_aniso_label
_atom_site_aniso_U_11
_atom_site_aniso_U_22
_atom_site_aniso_U_33
_atom_site_aniso_U_23
_atom_site_aniso_U_13
_atom_site_aniso_U_12
Cu1 0.00691(9) 0.00829(9) 0.00704(9) -0.00045(5) -0.00064(5) -0.00119(5)
C1 0.0099(6) 0.0146(6) 0.0056(6) 0.0012(5) -0.0006(5) 0.0003(5)
O2 0.0166(5) 0.0150(5) 0.0102(4) 0.0023(4) -0.0035(4) -0.0058(4)
O3 0.0161(5) 0.0105(4) 0.0098(4) 0.0011(3) -0.0006(4) -0.0020(4)
O4 0.0090(4) 0.0137(4) 0.0165(5) -0.0040(4) 0.0014(4) -0.0005(4)
C6 0.0058(6) 0.0133(6) 0.0097(6) 0.0006(5) 0.0017(4) 0.0010(4)
O7 0.0083(4) 0.0142(5) 0.0186(5) -0.0038(4) -0.0012(4) 0.0001(4)
N9 0.0112(5) 0.0099(5) 0.0088(5) 0.0002(4) -0.0006(4) -0.0027(4)
C10 0.0096(6) 0.0141(6) 0.0096(6) 0.0036(5) -0.0003(5) -0.0021(5)
C11 0.0111(6) 0.0115(6) 0.0142(6) 0.0001(5) -0.0011(5) -0.0012(5)
C12 0.0214(9) 0.0109(8) 0.0080(8) 0.000 0.000 -0.0048(7)
C13 0.0157(6) 0.0088(6) 0.0157(6) -0.0018(5) 0.0012(5) 0.0001(5)
C14 0.0142(6) 0.0122(6) 0.0125(6) 0.0020(5) -0.0046(5) -0.0023(5)
C15 0.0184(6) 0.0091(6) 0.0068(5) 0.0016(5) 0.0009(5) -0.0058(5)
C16 0.0095(6) 0.0156(6) 0.0083(6) 0.0003(5) -0.0009(5) -0.0005(5)
C17 0.0227(7) 0.0107(6) 0.0080(6) -0.0001(5) -0.0015(5) -0.0058(5)
C18 0.0552(13) 0.0234(8) 0.0346(10) -0.0027(7) -0.0107(9) 0.0153(8)
C19 0.0095(6) 0.0160(6) 0.0126(6) -0.0038(5) 0.0008(5) 0.0005(5)
C20 0.0121(6) 0.0102(6) 0.0129(6) 0.0010(5) -0.0016(5) -0.0005(5)
O23 0.0786(13) 0.0600(10) 0.0536(10) -0.0296(8) -0.0329(9) 0.0375(10)
C26 0.0569(14) 0.0391(11) 0.0411(11) -0.0049(9) 0.0010(10) 0.0022(10)
C27 0.0557(13) 0.0303(10) 0.0524(13) 0.0058(9) 0.0035(11) 0.0064(9)
loop_
_atom_type_symbol
_atom_type_description
_atom_type_scat_dispersion_real
_atom_type_scat_dispersion_imag
_atom_type_scat_source
C C 0.0033 0.0016 'International Tables Vol C Tables 4.2.6.8 and 6.1.1.4'
H H 0.0000 0.0000 'International Tables Vol C Tables 4.2.6.8 and 6.1.1.4'
N N 0.0061 0.0033 'International Tables Vol C Tables 4.2.6.8 and 6.1.1.4'
O O 0.0106 0.0060 'International Tables Vol C Tables 4.2.6.8 and 6.1.1.4'
Cu Cu 0.3201 1.2651 'International Tables Vol C Tables 4.2.6.8 and 6.1.1.4'
loop_
_geom_angle_atom_site_label_1
_geom_angle_atom_site_label_2
_geom_angle_atom_site_label_3
_geom_angle
_geom_angle_site_symmetry_1
_geom_angle_site_symmetry_3
O2 Cu1 Cu1 88.95(3) . 5_665
O2 Cu1 O3 168.36(4) . .
O2 Cu1 O4 90.28(4) . .
O2 Cu1 N9 103.03(4) . .
O3 Cu1 Cu1 79.41(3) . 5_665
O3 Cu1 O4 89.24(4) . .
O3 Cu1 N9 88.50(4) . .
O4 Cu1 Cu1 86.37(3) . 5_665
O4 Cu1 N9 100.00(4) . .
O7 Cu1 Cu1 82.15(3) . 5_665
O7 Cu1 O2 87.54(4) . .
O7 Cu1 O3 90.59(4) . .
O7 Cu1 O4 168.35(4) . .
O7 Cu1 N9 91.64(4) . .
N9 Cu1 Cu1 166.30(3) . 5_665
O4 C1 C19 118.33(12) . .
O7 C1 O4 125.50(12) 5_665 .
O7 C1 C19 116.13(11) 5_665 .
C6 O2 Cu1 117.29(8) . .
C6 O3 Cu1 128.49(9) 5_665 .
C1 O4 Cu1 120.31(9) . .
O2 C6 C10 118.03(11) . .
O3 C6 O2 125.16(12) 5_665 .
O3 C6 C10 116.80(11) 5_665 .
C1 O7 Cu1 125.44(9) 5_665 .
C11 N9 Cu1 120.45(9) . .
C11 N9 C20 117.56(11) . .
C20 N9 Cu1 121.06(9) . .
C6 C10 H10A 109.1 . .
C6 C10 H10B 109.1 . .
C6 C10 C16 112.50(11) . .
H10A C10 H10B 107.8 . .
C16 C10 H10A 109.1 . .
C16 C10 H10B 109.1 . .
N9 C11 H11 118.5 . .
N9 C11 C13 123.01(12) . .
C13 C11 H11 118.5 . .
H12A C12 H12B 107.6 . .
C17 C12 H12A 108.7 2_665 .
C17 C12 H12A 108.7 . .
C17 C12 H12B 108.7 2_665 .
C17 C12 H12B 108.7 . .
C17 C12 C17 114.42(15) 2_665 .
C11 C13 H13 120.2 . .
C11 C13 C15 119.60(12) . .
C15 C13 H13 120.2 . .
C15 C14 H14 120.2 . .
C20 C14 H14 120.2 . .
C20 C14 C15 119.58(12) . .
C13 C15 C14 117.32(12) . .
C13 C15 C17 120.87(12) . .
C14 C15 C17 121.67(12) . .
C10 C16 H16A 109.3 . .
C10 C16 H16B 109.3 . .
H16A C16 H16B 108.0 . .
C19 C16 C10 111.51(11) 3_464 .
C19 C16 H16A 109.3 3_464 .
C19 C16 H16B 109.3 3_464 .
C12 C17 H17A 109.8 . .
C12 C17 H17B 109.8 . .
C15 C17 C12 109.39(11) . .
C15 C17 H17A 109.8 . .
C15 C17 H17B 109.8 . .
H17A C17 H17B 108.2 . .
O23 C18 C26 121.4(2) . .
O23 C18 C27 121.6(2) . .
C27 C18 C26 116.99(18) . .
C1 C19 C16 115.66(11) . 3_564
C1 C19 H19A 108.4 . .
C1 C19 H19B 108.4 . .
C16 C19 H19A 108.4 3_564 .
C16 C19 H19B 108.4 3_564 .
H19A C19 H19B 107.4 . .
N9 C20 C14 122.93(12) . .
N9 C20 H20 118.5 . .
C14 C20 H20 118.5 . .
C18 C26 H26A 109.5 . .
C18 C26 H26B 109.5 . .
C18 C26 H26C 109.5 . .
H26A C26 H26B 109.5 . .
H26A C26 H26C 109.5 . .
H26B C26 H26C 109.5 . .
C18 C27 H27A 109.5 . .
C18 C27 H27B 109.5 . .
C18 C27 H27C 109.5 . .
H27A C27 H27B 109.5 . .
H27A C27 H27C 109.5 . .
H27B C27 H27C 109.5 . .
loop_
_geom_bond_atom_site_label_1
_geom_bond_atom_site_label_2
_geom_bond_distance
_geom_bond_site_symmetry_2
Cu1 Cu1 2.6395(3) 5_665
Cu1 O2 1.9757(10) .
Cu1 O3 1.9772(10) .
Cu1 O4 1.9777(10) .
Cu1 O7 1.9740(10) .
Cu1 N9 2.1692(11) .
C1 O4 1.2645(16) .
C1 O7 1.2614(16) 5_665
C1 C19 1.5154(18) .
O2 C6 1.2637(16) .
O3 C6 1.2598(16) 5_665
C6 C10 1.5212(18) .
N9 C11 1.3407(17) .
N9 C20 1.3427(17) .
C10 H10A 0.9900 .
C10 H10B 0.9900 .
C10 C16 1.5312(18) .
C11 H11 0.9500 .
C11 C13 1.3869(18) .
C12 H12A 0.9900 .
C12 H12B 0.9900 .
C12 C17 1.5336(16) 2_665
C12 C17 1.5337(16) .
C13 H13 0.9500 .
C13 C15 1.3908(19) .
C14 H14 0.9500 .
C14 C15 1.3952(19) .
C14 C20 1.3855(18) .
C15 C17 1.5061(18) .
C16 H16A 0.9900 .
C16 H16B 0.9900 .
C16 C19 1.5271(18) 3_464
C17 H17A 0.9900 .
C17 H17B 0.9900 .
C18 O23 1.215(2) .
C18 C26 1.493(3) .
C18 C27 1.488(3) .
C19 H19A 0.9900 .
C19 H19B 0.9900 .
C20 H20 0.9500 .
C26 H26A 0.9800 .
C26 H26B 0.9800 .
C26 H26C 0.9800 .
C27 H27A 0.9800 .
C27 H27B 0.9800 .
C27 H27C 0.9800 .
loop_
_refln_index_h
_refln_index_k
_refln_index_l
_refln_F_squared_meas
_refln_F_squared_sigma
0 0 -1 -0.47 0.03
0 0 -2 453.99 8.67
0 0 -3 -0.16 0.04
0 0 -4 33.85 0.79
0 0 -5 -0.14 0.06
0 0 -6 125.44 2.6
0 0 -7 0.05 0.09
0 0 -8 26.41 0.79
0 0 -9 0.06 0.13
0 0 10 65.9 1.64
0 0 10 68.78 1.52
0 0 11 -0.22 0.14
0 0 11 0.04 0.14
1 0 0 -0.39 0.02
1 0 1 -0.04 0.02
1 0 -1 -0.1 0.02
1 0 1 -0.05 0.02
1 0 -2 122.04 2.42
1 0 -2 121.31 2.37
-1 0 -2 120.3 2.35
-1 0 -3 0.03 0.04
1 0 -3 0.02 0.05
1 0 -4 0.95 0.12
-1 0 -4 0.69 0.09
-1 0 -5 -0.17 0.06
1 0 -5 -0.16 0.06
1 0 -6 52.16 1.22
-1 0 -6 50.85 1.19
-1 0 -7 0.26 0.1
1 0 -7 0 0.09
1 0 -8 11.53 0.49
1 0 9 0.03 0.12
1 0 -9 0.08 0.14
1 0 9 0.19 0.13
1 0 10 0.84 0.19
1 0 -10 1.09 0.23
1 0 10 1.15 0.19
-1 0 11 0.25 0.18
-1 0 11 0.12 0.16
2 0 0 357.58 7.1
2 0 0 352.72 6.85
2 0 -1 -0.13 0.03
2 0 1 -0.03 0.03
2 0 1 -0.01 0.02
2 0 -1 -0.04 0.03
2 0 -2 45.15 0.95
2 0 -2 43.86 0.94
2 0 2 45.03 0.9
-2 0 2 44.37 0.87
2 0 2 45.49 0.82
2 0 -3 0.05 0.05
2 0 -3 -0.01 0.04
2 0 3 -0.04 0.03
-2 0 3 -0.02 0.03
2 0 3 -0.1 0.03
2 0 -4 26.78 0.68
2 0 4 26.72 0.57
-2 0 4 27.52 0.59
2 0 4 27.13 0.62
-2 0 5 0 0.05
2 0 -5 0.01 0.07
2 0 -6 25.94 0.73
2 0 6 25.67 0.66
2 0 6 25.87 0.61
-2 0 6 25.92 0.61
2 0 -7 0.11 0.11
2 0 7 -0.01 0.08
2 0 7 0.08 0.08
2 0 -8 73.89 1.76
2 0 8 75.59 1.54
2 0 8 74.25 1.67
2 0 9 0.12 0.11
2 0 9 0.11 0.12
2 0 -9 0.14 0.14
2 0 -10 105.37 2.45
3 0 0 -0.03 0.03
3 0 0 0 0.03
3 0 1 0.02 0.03
3 0 1 0.01 0.02
3 0 -1 0.07 0.04
3 0 -1 0.01 0.03
-3 0 2 26.96 0.54
3 0 -2 26.72 0.62
3 0 2 26.48 0.62
3 0 2 26.96 0.56
3 0 -2 27.58 0.63
3 0 -3 0.08 0.05
-3 0 3 0.07 0.03
3 0 3 0.03 0.04
3 0 -3 0.01 0.04
3 0 3 0.05 0.05
3 0 -4 41.34 0.98
-3 0 4 42.35 0.86
3 0 4 41.89 0.83
3 0 4 42.88 0.91
3 0 -4 43.49 0.99
-3 0 5 0.04 0.04
3 0 5 -0.03 0.05
3 0 -5 0.04 0.08
3 0 5 -0.05 0.05
3 0 -6 83.36 1.86
3 0 6 83.65 1.61
3 0 6 83.99 1.76
3 0 -7 -0.01 0.1
3 0 7 -0.03 0.07
3 0 7 0.09 0.09
3 0 8 4.05 0.24
3 0 8 4.42 0.27
3 0 -8 4.18 0.32
3 0 9 0.22 0.15
3 0 -9 -0.24 0.12
3 0 -10 4.38 0.4
3 0 10 3.21 0.33
3 0 -11 -0.2 0.15
4 0 0 256.01 4.86
4 0 0 253.39 5.02
4 0 1 0 0.03
4 0 1 -0.01 0.04
4 0 -1 -0.02 0.04
4 0 -1 0.03 0.04
4 0 2 65.69 1.33
4 0 -2 67.82 1.42
4 0 -2 68.01 1.41
4 0 2 68.3 1.43
4 0 3 0 0.05
4 0 -3 0.11 0.06
4 0 -3 0.06 0.06
-4 0 3 0.05 0.03
4 0 3 -0.02 0.03
4 0 -4 1.56 0.17
4 0 -4 1.13 0.13
4 0 4 1.52 0.15
-4 0 4 1.35 0.08
4 0 4 1.27 0.1
4 0 -5 0.47 0.1
4 0 5 0.54 0.09
4 0 5 0.43 0.11
-4 0 5 0.54 0.07
4 0 -5 0.48 0.12
4 0 6 27.18 0.67
4 0 6 25.76 0.74
4 0 -6 27.49 0.79
4 0 7 0.15 0.09
4 0 -7 0.16 0.13
4 0 7 0.22 0.12
4 0 -8 3.58 0.33
4 0 8 4.15 0.3
4 0 9 0 0.12
4 0 -9 -0.17 0.13
4 0 -10 31.92 1.05
4 0 10 31.26 0.98
4 0 11 -0.1 0.17
5 0 0 0 0.05
5 0 0 -0.17 0.03
5 0 -1 0.12 0.05
5 0 -1 0.5 0.08
5 0 1 -0.02 0.03
5 0 1 -0.01 0.05
5 0 -2 19.8 0.52
5 0 -2 20.48 0.52
5 0 2 19.58 0.44
5 0 2 19.76 0.52
5 0 -3 -0.02 0.05
5 0 -3 -0.02 0.06
5 0 3 0.03 0.06
5 0 3 0.02 0.04
5 0 -4 276.3 5.47
-5 0 4 281.06 5.25
5 0 -4 276.07 5.58
5 0 4 278.11 5.58
5 0 4 278.96 5.34
5 0 -5 0.06 0.09
5 0 -5 0.01 0.07
5 0 5 0.04 0.06
5 0 5 -0.08 0.08
5 0 6 174.99 3.5
5 0 6 176.07 3.69
5 0 -6 181.15 3.68
5 0 -7 0.2 0.13
5 0 7 0.08 0.11
5 0 -8 3.92 0.36
5 0 8 3.64 0.29
5 0 -9 0.07 0.15
5 0 9 -0.12 0.14
5 0 10 -0.09 0.16
5 0 -10 0.43 0.2
6 0 0 26.57 0.6
6 0 0 26.13 0.65
6 0 -1 0 0.05
6 0 1 0 0.06
6 0 1 0.04 0.04
6 0 -1 0.07 0.06
6 0 2 0.18 0.07
6 0 2 0.04 0.04
6 0 -2 0.06 0.06
6 0 -2 0 0.05
6 0 -3 0.05 0.06
6 0 -3 0.02 0.07
6 0 3 0.06 0.04
6 0 3 0.07 0.07
6 0 4 39.69 0.97
6 0 -4 39.42 0.97
6 0 4 38.33 0.85
6 0 -4 38.89 0.97
6 0 -5 0.29 0.12
6 0 5 0.31 0.12
6 0 -5 0.39 0.11
6 0 -6 0.15 0.12
6 0 -6 -0.11 0.08
6 0 6 0.08 0.1
6 0 7 -0.02 0.11
6 0 -7 0.06 0.12
6 0 -8 13.7 0.59
6 0 8 13.14 0.55
6 0 9 -0.03 0.15
6 0 -9 0.03 0.16
6 0 10 1.65 0.27
6 0 -10 1.54 0.3
7 0 0 -0.13 0.05
7 0 0 -0.05 0.06
7 0 -1 0.09 0.07
7 0 -1 -0.09 0.05
7 0 1 0.03 0.05
7 0 1 0 0.06
7 0 2 29.9 0.76
7 0 -2 29.64 0.76
7 0 -2 29.4 0.74
7 0 2 30.17 0.65
7 0 3 0.06 0.08
7 0 -3 0 0.07
7 0 -3 0.05 0.07
7 0 3 -0.03 0.04
7 0 -4 148.88 3.07
7 0 -4 144.48 3.12
7 0 4 152.48 3.13
7 0 -5 -0.01 0.09
7 0 -5 -0.04 0.1
7 0 5 0.02 0.09
7 0 -6 37.27 1.01
7 0 6 39.02 1.03
7 0 -6 36.42 1.04
7 0 -7 -0.06 0.12
7 0 7 0.08 0.13
7 0 8 8.9 0.46
7 0 -8 9.11 0.49
7 0 9 0.17 0.16
7 0 -9 -0.02 0.18
7 0 10 3.96 0.39
8 0 0 120.62 2.43
8 0 0 122.87 2.56
8 0 -1 -0.04 0.06
8 0 1 0.1 0.08
8 0 -1 0.03 0.07
8 0 1 0 0.04
8 0 2 44.91 0.94
8 0 -2 44.24 1.07
8 0 2 43.79 1.07
8 0 -2 44.58 1.04
8 0 -3 0 0.07
8 0 -3 0.09 0.09
8 0 3 0.14 0.09
8 0 4 21.75 0.67
8 0 -4 22.66 0.68
8 0 -4 22.12 0.67
8 0 5 0.32 0.13
8 0 -5 0.23 0.11
8 0 -5 0.29 0.14
8 0 -6 4.09 0.32
8 0 6 4.1 0.31
8 0 -6 4.08 0.29
8 0 -7 0.15 0.15
8 0 7 0.11 0.14
8 0 -8 23.98 0.85
8 0 8 23 0.81
8 0 -9 -0.13 0.16
8 0 9 0.03 0.15
9 0 0 0.01 0.06
9 0 0 0.01 0.07
9 0 1 0.15 0.06
9 0 1 0.33 0.11
9 0 -1 0.1 0.08
9 0 -1 0.28 0.1
9 0 -2 13.83 0.46
9 0 2 14.16 0.49
9 0 -2 14.39 0.48
9 0 -3 -0.04 0.09
9 0 3 -0.02 0.09
9 0 -3 0.17 0.09
9 0 -4 29.37 0.83
9 0 4 30.2 0.85
9 0 -4 28.68 0.84
9 0 -5 0.03 0.11
9 0 -5 0.01 0.12
9 0 5 -0.01 0.11
9 0 -6 25.66 0.84
9 0 6 25.63 0.82
9 0 -7 -0.12 0.14
9 0 7 0.07 0.14
9 0 8 0.61 0.2
9 0 -8 0.62 0.21
9 0 9 -0.08 0.17
9 0 -9 0.13 0.21
10 0 0 104.8 2.18
10 0 0 107.66 2.33
10 0 -1 -0.1 0.07
10 0 -1 -0.06 0.08
10 0 1 -0.02 0.09
10 0 2 46.73 1.17
10 0 -2 46.09 1.11
10 0 -2 45.92 1.16
10 0 -3 0.01 0.1
10 0 -3 -0.03 0.09
10 0 3 -0.12 0.09
10 0 -4 0.46 0.14
10 0 -4 0.46 0.15
10 0 4 0.26 0.14
10 0 -5 -0.04 0.13
10 0 5 0.15 0.13
10 0 -5 0.15 0.12
10 0 6 4.97 0.35
10 0 -6 5.44 0.38
10 0 -7 0.02 0.15
10 0 7 0.11 0.16
10 0 8 28.76 0.96
10 0 -8 27.53 0.98
11 0 0 0.19 0.11
11 0 -1 -0.04 0.09
11 0 1 -0.08 0.1
11 0 -1 -0.01 0.08
11 0 -2 0.12 0.1
11 0 2 0.01 0.11
11 0 -2 0.05 0.1
11 0 -3 -0.04 0.09
11 0 -3 0.03 0.11
11 0 3 0.06 0.12
11 0 4 7.43 0.4
11 0 -4 8.26 0.42
11 0 -4 7.48 0.41
11 0 -5 0.07 0.14
11 0 5 0.08 0.14
11 0 -6 0.34 0.18
11 0 6 0.01 0.15
11 0 7 0.18 0.17
11 0 -7 0.16 0.17
11 0 8 3.54 0.38
11 0 -8 3.79 0.41
12 0 0 159.6 3.43
12 0 -1 0.03 0.11
12 0 1 0.1 0.12
12 0 -2 20.11 0.65
12 0 -2 21.54 0.71
12 0 2 21.05 0.71
12 0 3 0.15 0.13
12 0 -3 0.19 0.13
12 0 -3 0.19 0.13
12 0 -4 22.92 0.78
12 0 -4 22.6 0.76
12 0 4 22.02 0.76
12 0 -5 0.04 0.14
12 0 5 0.13 0.16
12 0 6 4.36 0.39
12 0 -6 3.83 0.38
12 0 -7 0.09 0.18
12 0 7 0.21 0.19
13 0 0 0.15 0.14
13 0 -1 0.37 0.15
13 0 1 0.18 0.14
13 0 -2 43.27 1.19
13 0 2 43.39 1.2
13 0 -3 -0.06 0.11
13 0 -3 -0.01 0.12
13 0 3 -0.05 0.13
13 0 4 103.81 2.39
13 0 -4 98.61 2.3
13 0 -5 0.03 0.15
13 0 5 0.06 0.16
13 0 6 34.65 1.1
13 0 -6 34.71 1.1
13 0 -7 -0.23 0.18
14 0 0 94.6 2.23
14 0 -1 0.09 0.15
14 0 1 0.03 0.14
14 0 2 19.22 0.72
14 0 -2 19.27 0.72
14 0 3 0.18 0.17
14 0 -3 0.09 0.14
14 0 -4 0.1 0.17
14 0 4 0.04 0.17
14 0 5 0.3 0.2
14 0 -5 0.29 0.18
14 0 -6 8.62 0.52
15 0 0 0.27 0.18
15 0 -1 0.32 0.17
15 0 1 0.18 0.16
15 0 -2 24.07 0.87
15 0 2 25.95 0.89
15 0 3 0.05 0.16
15 0 4 27.26 0.95
16 0 0 0.22 0.17
16 0 -1 -0.05 0.17
16 0 1 0.21 0.18
16 0 2 1.34 0.27
16 0 -2 0.9 0.24
17 0 0 -0.02 0.18
17 0 -1 0.14 0.18
0 1 0 -1.08 0
0 -1 0 -1.08 0
0 1 -1 -0.03 0.02
0 -1 -1 -0.07 0.02
0 1 -2 39.4 0.82
0 -1 -2 39.6 0.83
0 -1 -3 -0.03 0.04
0 1 -3 -0.02 0.04
0 1 -4 48.46 1.06
0 -1 -4 48.64 1.07
0 1 -5 -0.09 0.06
0 -1 -5 -0.07 0.06
0 -1 -6 62.98 1.43
0 1 -6 63.01 1.42
0 1 -7 -0.02 0.08
0 -1 -7 0.15 0.11
0 1 -8 1.21 0.19
0 -1 -8 1.37 0.2
0 1 9 -0.09 0.11
0 1 -9 -0.13 0.12
0 1 9 -0.05 0.11
0 1 10 0.46 0.16
0 -1 10 0.35 0.15
0 -1 10 0.6 0.17
0 1 10 0.57 0.18
0 1 11 -0.13 0.14
0 1 11 -0.03 0.14
1 1 0 21.77 0.45
1 -1 1 546.54 10.28
1 1 -1 518.43 10.06
1 1 -1 516.67 10.23
1 -1 -1 520.54 10.07
-1 -1 1 517.36 9.87
-1 1 -1 555.47 9.95
1 -1 -1 473.81 10.32
1 1 1 525.29 9.99
1 1 -2 24.12 0.55
-1 -1 2 24.92 0.51
1 1 2 24.48 0.48
1 1 2 24.5 0.52
-1 1 -2 24.69 0.52
-1 -1 -3 12.72 0.34
1 1 -3 12.54 0.36
-1 1 -3 13.27 0.34
1 -1 -3 12.85 0.36
1 1 -4 2.64 0.16
-1 -1 -4 3.07 0.16
1 -1 -4 3.17 0.18
-1 1 -4 2.74 0.15
-1 -1 -5 0.65 0.11
1 1 -5 0.6 0.11
1 -1 -5 0.76 0.12
-1 1 -5 0.62 0.1
-1 -1 -6 3.41 0.21
1 1 -6 3.42 0.23
-1 1 -6 2.89 0.2
1 -1 -6 3.4 0.23
1 1 -7 58.57 1.39
1 -1 -7 58.2 1.39
-1 1 -7 58.1 1.36
-1 -1 7 59.5 1.28
1 1 -8 1.37 0.21
1 -1 -8 0.68 0.16
-1 1 -8 1.06 0.18
1 1 8 0.67 0.15
1 1 8 0.78 0.14
1 1 -9 101.92 2.27
1 -1 9 97.38 2
1 -1 9 96.69 2.18
1 1 9 98.97 2.02
1 -1 -9 100.13 2.27
1 1 9 99.32 2.2
1 -1 10 0.3 0.16
1 1 -10 0.22 0.18
1 -1 10 0.42 0.18
1 1 10 0.31 0.16
1 1 10 0.12 0.14
-1 1 11 32.59 0.94
-1 1 11 34.53 1.04
-1 -1 11 32.5 1.02
-1 -1 11 34.94 0.96
2 -1 0 0.03 0.03
2 1 0 -0.03 0.02
2 -1 0 -0.07 0.02
2 1 0 -0.05 0.02
2 1 -1 149.45 2.99
2 -1 1 152.82 3.01
2 -1 1 150.71 2.91
2 1 1 153.39 3.01
-2 -1 1 153.12 2.91
2 -1 -1 156.76 2.94
2 1 1 152.48 2.91
-2 1 2 30.97 0.59
2 -1 2 29.2 0.67
2 1 -2 30.72 0.67
2 1 -2 31.05 0.68
2 -1 2 30.44 0.62
2 -1 2 30.51 0.57
-2 -1 2 30.32 0.61
2 -1 -2 30.45 0.69
2 1 2 30.93 0.64
2 -1 -2 31.03 0.68
-2 1 3 0.54 0.05
2 1 -3 0.49 0.07
2 1 -3 0.49 0.08
-2 -1 3 0.62 0.06
2 1 3 0.49 0.06
2 -1 -3 0.54 0.08
2 1 3 0.49 0.06
2 -1 -3 0.49 0.09
-2 1 -3 0.47 0.06
2 1 -4 49.68 1.14
2 1 4 51.52 1.09
-2 1 -4 50.98 1.09
2 1 4 51.25 1
-2 -1 4 52.46 1.05
2 1 -5 70.93 1.57
2 -1 -5 71.99 1.58
2 1 5 72.16 1.51
-2 1 -5 71.06 1.51
-2 -1 5 72.26 1.45
2 1 5 70.86 1.38
-2 1 6 9.56 0.29
2 1 -6 9.95 0.4
2 1 6 10.11 0.32
-2 -1 6 9.64 0.3
2 1 6 9.88 0.35
-2 1 -6 8.74 0.34
2 -1 -6 9.79 0.4
2 -1 7 10.1 0.34
2 1 -7 9.7 0.42
2 -1 7 9.35 0.36
2 -1 -7 9.72 0.42
2 1 7 9.7 0.35
2 1 7 9.57 0.37
2 -1 8 12.1 0.41
2 -1 8 11.61 0.44
2 1 -8 11.51 0.5
2 1 8 11.47 0.41
2 1 8 11.86 0.45
2 -1 -8 11.59 0.5
2 -1 9 4.88 0.28
2 -1 9 3.89 0.28
2 1 -9 4.37 0.37
2 -1 -9 4.93 0.37
2 1 9 4.1 0.29
2 1 9 3.89 0.26
2 -1 10 0.98 0.21
2 1 -10 0.72 0.21
2 -1 -10 1.37 0.26
-2 1 11 0.07 0.16
2 1 -11 0.92 0.23
-2 1 11 0.3 0.17
3 1 0 11.06 0.28
3 -1 0 11.31 0.26
3 1 0 11.13 0.27
3 -1 0 11.5 0.29
3 -1 1 42.52 0.93
3 1 -1 44.43 0.91
3 1 -1 45.14 0.91
3 -1 1 43.9 0.85
3 1 1 43.04 0.87
3 1 1 41.55 0.92
3 -1 -1 43.22 0.9
3 -1 -1 45.13 0.93
3 -1 2 58.53 1.14
3 1 -2 56.98 1.21
3 -1 2 57.13 1.22
3 1 -2 57.36 1.21
3 1 2 59.13 1.23
-3 -1 2 59.39 1.13
3 -1 -2 58.38 1.24
3 -1 -2 57.35 1.21
3 1 2 57.24 1.16
3 -1 3 1.3 0.11
3 -1 3 1.58 0.09
-3 1 3 1.53 0.06
3 1 -3 1.66 0.13
3 1 -3 1.34 0.11
3 -1 -3 1.73 0.14
-3 -1 3 1.66 0.08
3 1 3 1.64 0.09
3 -1 -3 1.42 0.12
3 -1 4 0.37 0.06
3 -1 4 0.33 0.06
3 1 -4 0.39 0.08
3 -1 4 0.3 0.08
-3 1 4 0.37 0.05
3 1 -4 0.33 0.09
-3 -1 4 0.38 0.06
3 -1 -4 0.3 0.08
3 -1 -4 0.46 0.09
3 1 4 0.2 0.06
3 -1 5 1.05 0.11
-3 1 5 1.06 0.09
3 -1 5 0.91 0.1
3 1 -5 1 0.14
3 1 5 1.02 0.11
-3 -1 5 1.03 0.09
3 1 5 1.43 0.12
3 -1 -5 0.87 0.13
3 -1 6 3.56 0.2
3 1 -6 3.34 0.25
3 -1 6 3.17 0.17
3 1 6 3.58 0.18
3 1 6 3.77 0.21
-3 -1 6 3.44 0.17
3 -1 -6 3.41 0.25
3 1 -7 3.78 0.31
3 -1 7 4.09 0.23
3 -1 7 3.4 0.2
3 1 7 3.67 0.23
3 -1 -7 3.34 0.29
3 1 7 3.66 0.21
3 -1 8 5 0.28
3 -1 8 4.77 0.31
3 -1 8 4.7 0.25
3 1 -8 5.36 0.35
3 -1 -8 3.91 0.33
3 1 8 5.16 0.29
3 1 8 5.09 0.26
3 -1 9 16.62 0.62
3 1 -9 16.95 0.67
3 -1 -9 17.04 0.68
3 1 -10 1.43 0.27
3 -1 10 2.38 0.29
3 -1 -10 2.05 0.3
3 1 10 2.42 0.29
3 1 -11 13.31 0.66
3 1 11 14.41 0.66
3 -1 -11 16.07 0.73
4 1 0 -0.16 0.03
4 -1 0 -0.19 0.04
4 -1 0 -0.16 0.03
4 1 0 -0.11 0.04
4 1 -1 45.73 0.97
4 1 -1 46.09 0.98
4 -1 1 46.08 0.91
4 -1 1 45.56 1
4 -1 -1 46.22 1
4 1 1 45.83 0.93
4 1 1 46.07 1
4 -1 -1 46.1 0.96
4 1 -2 51.99 1.1
4 1 -2 51.64 1.09
4 -1 2 49.56 1.1
4 -1 2 50.7 1.01
4 1 2 50.79 1.11
4 -1 -2 49.22 1.11
4 1 2 51.48 1.04
4 -1 -2 50.82 1.09
4 -1 3 57.8 1.28
4 1 -3 58.83 1.28
4 1 -3 59 1.28
4 -1 3 59.13 1.18
4 -1 -3 55.78 1.29
4 -1 -3 56.74 1.27
4 1 3 60.03 1.2
-4 -1 3 60.3 1.16
4 1 3 61.1 1.29
4 1 -4 2.44 0.18
4 1 -4 2.11 0.16
4 -1 4 2.52 0.12
-4 1 4 2.39 0.09
4 -1 4 2.2 0.16
4 1 4 2.48 0.17
4 1 4 2.13 0.12
-4 -1 4 2.34 0.11
4 -1 -4 2.25 0.18
4 -1 -4 2.28 0.17
4 1 -5 273.07 5.43
4 -1 5 271.01 5.29
4 1 -5 273.07 5.5
4 -1 5 269.97 5.51
4 1 5 277.91 5.52
4 -1 -5 280.72 5.44
4 -1 -5 272.76 5.53
4 1 5 277.45 5.3
-4 -1 5 272.63 5.21
4 -1 6 6.25 0.26
4 -1 6 6.53 0.32
4 -1 6 6.74 0.24
4 1 -6 6.93 0.35
4 1 6 6.84 0.33
4 -1 -6 6.6 0.34
4 1 6 6.55 0.27
4 1 -7 64.07 1.53
4 -1 7 63.94 1.3
4 -1 7 61.99 1.49
4 -1 7 63.52 1.4
4 1 7 63.28 1.4
4 1 7 63.69 1.51
4 -1 -7 61.86 1.53
4 -1 8 1.18 0.19
4 1 -8 1.07 0.21
4 -1 -8 1.51 0.23
4 1 8 0.97 0.19
4 -1 9 4.16 0.35
4 1 -9 4.2 0.39
4 -1 -9 4.15 0.39
4 1 9 4.09 0.36
4 1 -10 1.18 0.26
4 -1 10 1.56 0.25
4 1 10 1.97 0.28
4 -1 -10 1.55 0.27
4 1 11 14.04 0.65
5 1 0 76.6 1.54
5 1 0 77.08 1.61
5 -1 0 76.38 1.53
5 -1 0 77.86 1.62
5 1 -1 0.11 0.06
5 -1 1 0.09 0.04
5 1 -1 0.13 0.06
5 -1 1 0.11 0.06
5 -1 -1 0.12 0.06
5 1 1 0.01 0.04
5 1 1 0.29 0.07
5 -1 -1 0.11 0.06
5 -1 2 9.18 0.31
5 1 -2 9.37 0.3
5 -1 2 9.36 0.23
5 1 -2 9.59 0.31
5 -1 -2 8.62 0.3
5 1 2 9.46 0.31
5 -1 -2 8.96 0.3
5 1 2 9.35 0.25
5 -1 3 41.42 0.85
5 -1 3 41 0.96
5 1 -3 40.42 0.95
5 1 3 40.8 0.96
5 -1 -3 41.13 0.96
5 1 3 40.67 0.87
5 -1 -3 41.31 0.97
5 1 -4 8.91 0.35
5 -1 4 8.23 0.33
5 1 -4 9.15 0.33
5 -1 4 8.6 0.25
-5 -1 4 8.61 0.23
5 1 4 8.69 0.27
5 -1 -4 8.51 0.34
5 1 4 8.81 0.34
5 1 -5 15.61 0.52
5 -1 5 15.43 0.4
5 1 -5 14.85 0.48
5 -1 5 15.24 0.49
5 1 5 15.03 0.5
5 -1 -5 15.58 0.52
5 -1 -5 14.58 0.5
5 1 5 15.35 0.42
5 1 -6 0.62 0.15
5 -1 6 0.65 0.14
5 1 6 0.34 0.12
5 -1 -6 0.41 0.14
5 1 6 0.63 0.1
5 -1 -6 0.66 0.14
5 -1 7 16.19 0.58
5 1 -7 17.75 0.64
5 1 7 18.3 0.61
5 -1 -7 18.08 0.64
5 -1 8 1.33 0.21
5 1 -8 1.55 0.25
5 1 8 1.76 0.24
5 -1 -8 2.36 0.29
5 1 -9 3.29 0.36
5 -1 9 3.27 0.32
5 -1 -9 2.9 0.33
5 1 9 3.18 0.33
5 1 -10 11.9 0.62
5 -1 10 12.81 0.58
5 -1 -10 12.65 0.63
5 1 10 12.44 0.58
6 -1 0 -0.13 0.04
6 1 0 -0.02 0.05
6 -1 0 -0.08 0.05
6 1 0 -0.04 0.04
6 -1 1 177.96 3.39
6 1 -1 180.07 3.46
6 -1 1 170.29 3.56
6 1 -1 175.1 3.55
6 -1 -1 177.01 3.56
6 1 1 175.95 3.4
6 1 1 175.43 3.56
6 -1 -1 176.4 3.44
6 -1 2 0.11 0.07
6 1 -2 0.15 0.06
6 1 -2 0.16 0.07
6 -1 2 0.17 0.04
6 -1 -2 0.02 0.06
6 -1 -2 0.18 0.07
6 1 2 0.13 0.05
6 1 2 0.17 0.08
6 -1 3 111.34 2.19
6 1 -3 112.71 2.33
6 1 -3 111.1 2.35
6 -1 3 113.75 2.37
6 -1 -3 112.22 2.32
6 1 3 112.43 2.22
6 -1 -3 112.72 2.38
6 1 3 111.39 2.37
6 -1 4 4.36 0.17
6 -1 4 4.47 0.24
6 1 -4 4.15 0.23
6 1 4 4.21 0.24
6 -1 -4 4.11 0.24
6 -1 -4 4.42 0.25
6 1 4 3.98 0.18
6 1 -5 286.77 5.84
6 -1 5 292.18 5.85
6 1 -5 283.74 5.75
6 1 5 290.93 5.6
6 -1 -5 286.94 5.86
6 -1 -5 288.07 5.75
6 1 5 298.07 5.86
6 1 -6 1.8 0.22
6 1 -6 1.81 0.2
6 -1 6 1.68 0.2
6 1 6 1.56 0.2
6 -1 -6 2.05 0.22
6 -1 -6 2.33 0.25
6 -1 7 1.22 0.19
6 1 -7 0.55 0.17
6 -1 -7 0.94 0.19
6 1 7 0.97 0.18
6 -1 8 1.65 0.23
6 1 -8 1.31 0.24
6 1 8 1.33 0.22
6 -1 -8 1.07 0.23
6 -1 9 5.39 0.38
6 1 -9 4.88 0.43
6 -1 -9 5.23 0.4
6 1 9 4.95 0.41
6 -1 10 0.14 0.17
6 1 -10 -0.05 0.17
6 1 10 -0.11 0.16
6 -1 -10 -0.2 0.16
7 -1 0 62.26 1.4
7 -1 0 64.05 1.31
7 1 0 62.13 1.39
7 1 0 63.55 1.32
7 1 -1 70.44 1.53
7 -1 1 69.99 1.54
7 1 -1 69.02 1.48
7 -1 1 70.13 1.41
7 1 1 70.92 1.43
7 -1 -1 70.08 1.54
7 1 1 71.64 1.54
7 -1 -1 70.17 1.47
7 1 -2 29.12 0.72
7 1 -2 27.82 0.72
7 -1 2 28.67 0.62
7 -1 -2 27.97 0.74
7 -1 -2 28.48 0.72
7 1 2 30.21 0.65
7 1 2 28.06 0.74
7 -1 3 32.91 0.71
7 -1 3 33.23 0.85
7 1 -3 33.09 0.84
7 1 -3 33.74 0.85
7 -1 -3 33.76 0.86
7 1 3 33.43 0.74
7 -1 -3 34.07 0.85
7 1 3 33.46 0.86
7 -1 4 4.28 0.26
7 1 -4 4.05 0.24
7 1 4 4.33 0.19
7 1 4 4.27 0.26
7 -1 -4 4.28 0.26
7 -1 -4 4.37 0.25
7 1 -5 0.22 0.1
7 -1 5 0.1 0.11
7 1 -5 0.42 0.14
7 -1 -5 0.23 0.1
7 1 5 0.27 0.12
7 -1 -5 0.36 0.13
7 1 -6 11.42 0.45
7 -1 6 11 0.46
7 1 -6 10.78 0.48
7 -1 -6 11.58 0.49
7 -1 -6 12.08 0.48
7 1 6 11.85 0.47
7 1 -7 20.44 0.73
7 -1 7 21 0.7
7 -1 -7 21.51 0.74
7 1 7 20.66 0.7
7 1 -8 1.05 0.23
7 -1 8 0.6 0.18
7 1 8 0.65 0.18
7 -1 -8 0.55 0.19
7 1 -9 9.97 0.56
7 -1 9 10.45 0.53
7 -1 -9 9.52 0.54
7 1 9 10.59 0.53
7 -1 10 1.56 0.28
7 1 10 1.8 0.3
8 -1 0 0.14 0.08
8 1 0 0.06 0.06
8 1 0 0.09 0.07
8 -1 0 0.05 0.06
8 -1 1 7.4 0.31
8 -1 1 7.28 0.24
8 1 -1 7.73 0.31
8 1 -1 7.72 0.29
8 -1 -1 7.92 0.32
8 1 1 7.13 0.3
8 1 1 7.49 0.25
8 -1 -1 7.38 0.28
8 -1 2 0.21 0.09
8 1 -2 0.37 0.1
8 -1 2 0.28 0.06
8 1 -2 0.3 0.09
8 1 2 0.28 0.06
8 1 2 0.26 0.09
8 -1 -2 0.35 0.1
8 -1 -2 0.29 0.09
8 -1 3 42.97 1.08
8 1 -3 44.7 1.08
8 1 -3 45.27 1.08
8 -1 -3 43.4 1.09
8 1 3 43.3 0.95
8 -1 -3 43.21 1.06
8 1 3 45.3 1.09
8 1 -4 13.69 0.5
8 1 -4 14.11 0.49
8 -1 4 13.48 0.49
8 -1 -4 13.94 0.5
8 -1 -4 13.43 0.5
8 1 4 14.42 0.5
8 -1 5 161.66 3.4
8 1 -5 159.72 3.39
8 1 -5 162.22 3.36
8 -1 -5 160.37 3.35
8 -1 -5 155.36 3.4
8 1 5 159.28 3.39
8 1 -6 4.81 0.34
8 -1 6 5.07 0.33
8 -1 -6 4.97 0.33
8 1 6 5.64 0.34
8 -1 -6 5.17 0.35
8 1 -7 2.1 0.27
8 -1 7 2.36 0.28
8 -1 -7 2.71 0.3
8 1 7 2.42 0.27
8 1 -8 1.93 0.28
8 -1 8 2.11 0.28
8 1 8 2.38 0.3
8 -1 -8 1.81 0.27
8 -1 9 -0.07 0.16
8 1 -9 -0.15 0.16
8 -1 -9 0.13 0.18
8 1 9 -0.16 0.16
9 -1 0 2.49 0.16
9 1 0 2.52 0.22
9 1 0 2.67 0.17
9 -1 0 2.69 0.21
9 1 -1 204.17 4.03
9 1 -1 202.16 4.16
9 -1 1 203.12 4.18
9 -1 1 204.22 3.96
9 1 1 203.18 3.97
9 -1 -1 203.24 4.18
9 1 1 207.64 4.18
9 -1 -1 199.38 4.01
9 1 -2 0.71 0.13
9 1 -2 0.69 0.13
9 -1 2 0.77 0.14
9 -1 -2 0.74 0.13
9 -1 -2 0.78 0.13
9 1 2 0.68 0.14
9 1 2 0.83 0.1
9 1 -3 51.51 1.23
9 1 -3 49.13 1.23
9 -1 3 51.35 1.25
9 1 3 50.95 1.25
9 -1 -3 50.37 1.25
9 -1 -3 52.52 1.23
9 1 -4 0.33 0.12
9 -1 4 0.46 0.14
9 1 -4 0.45 0.14
9 -1 -4 0.4 0.13
9 -1 -4 0.26 0.12
9 1 4 0.3 0.13
9 1 -5 3.38 0.3
9 -1 5 3.16 0.28
9 1 -5 3.39 0.27
9 -1 -5 4.16 0.3
9 -1 -5 3.69 0.32
9 1 5 3.55 0.28
9 1 -6 1.88 0.25
9 -1 6 2.74 0.29
9 -1 -6 2.36 0.27
9 1 6 2.04 0.25
9 -1 -6 2.46 0.28
9 1 -7 6.85 0.44
9 -1 7 7.15 0.43
9 1 7 6.48 0.41
9 -1 -7 6.56 0.43
9 -1 8 2.53 0.31
9 1 -8 2.44 0.33
9 -1 -8 2.53 0.33
9 1 8 2.12 0.29
9 1 -9 16.55 0.74
9 -1 9 15.79 0.69
9 1 9 16.05 0.7
9 -1 -9 14.26 0.72
10 -1 0 0.06 0.1
10 -1 0 0.07 0.08
10 1 0 0.07 0.1
10 1 0 0.08 0.08
10 1 -1 24.25 0.7
10 1 -1 24.58 0.66
10 -1 1 23.4 0.71
10 1 1 23.31 0.6
10 1 1 24.73 0.71
10 -1 -1 23.95 0.71
10 -1 -1 24.07 0.65
10 1 -2 3.02 0.23
10 1 -2 3.11 0.23
10 -1 2 3.1 0.27
10 -1 -2 2.93 0.22
10 1 2 2.54 0.23
10 -1 -2 2.81 0.25
10 -1 3 7.59 0.37
10 1 -3 8 0.37
10 1 -3 7.75 0.37
10 -1 -3 8.12 0.38
10 -1 -3 6.94 0.35
10 1 3 7.45 0.38
10 1 -4 3.76 0.29
10 1 -4 3.85 0.28
10 -1 4 3.46 0.28
10 -1 -4 4.07 0.29
10 1 4 3.52 0.28
10 -1 -4 3.58 0.27
10 -1 5 21.32 0.72
10 1 -5 22.68 0.75
10 -1 -5 19.63 0.72
10 -1 -5 22.88 0.75
10 1 5 21.68 0.73
10 1 -6 3.75 0.35
10 -1 6 3.67 0.33
10 -1 -6 2.93 0.31
10 1 6 3.77 0.34
10 1 -7 1.11 0.25
10 -1 7 1.54 0.25
10 -1 -7 1.03 0.24
10 1 7 1.61 0.25
10 -1 8 0.08 0.17
10 1 -8 0.37 0.2
10 1 8 -0.06 0.16
10 -1 -8 0.18 0.19
11 1 0 10.54 0.44
11 1 0 10.91 0.38
11 -1 0 9.94 0.43
11 -1 1 22.22 0.69
11 1 -1 20.94 0.62
11 1 -1 21.12 0.67
11 1 1 21.04 0.68
11 -1 -1 21.68 0.68
11 -1 -1 20.93 0.61
11 -1 2 2.93 0.27
11 1 -2 2.19 0.21
11 1 -2 2.99 0.27
11 -1 -2 2.49 0.25
11 1 2 2.87 0.26
11 -1 -2 2.69 0.23
11 1 -3 2.24 0.24
11 1 -3 2.06 0.24
11 -1 3 1.96 0.23
11 -1 -3 2.1 0.23
11 1 3 1.97 0.23
11 -1 -3 2.26 0.26
11 1 -4 8.92 0.44
11 -1 4 8.68 0.44
11 1 -4 9.2 0.44
11 -1 -4 8.45 0.42
11 -1 -4 8.85 0.45
11 1 4 8.82 0.44
11 -1 5 0.4 0.17
11 1 -5 0.13 0.14
11 1 5 0.16 0.15
11 -1 -5 0.05 0.12
11 -1 -5 0.13 0.14
11 1 -6 2.53 0.31
11 -1 6 3.15 0.33
11 -1 -6 2.63 0.31
11 1 6 2.16 0.28
11 1 -7 36.09 1.12
11 -1 7 34.72 1.08
11 1 7 34.47 1.08
11 -1 -7 35.51 1.11
11 -1 8 0.62 0.23
11 1 -8 1.02 0.26
11 1 8 0.4 0.21
11 -1 -8 0.56 0.23
12 1 0 0.09 0.12
12 -1 0 0.25 0.13
12 1 -1 1.33 0.21
12 -1 1 1.11 0.19
12 1 -1 1.36 0.18
12 1 1 1.23 0.2
12 -1 -1 1.55 0.21
12 -1 2 7.38 0.4
12 1 -2 7.7 0.37
12 1 -2 7.81 0.39
12 1 2 7.47 0.39
12 -1 -2 7.04 0.39
12 -1 -2 7 0.36
12 -1 3 41.71 1.16
12 1 -3 43.46 1.17
12 1 -3 43.66 1.14
12 -1 -3 42.27 1.17
12 -1 -3 43.8 1.13
12 1 3 42.5 1.17
12 1 -4 5.75 0.37
12 -1 4 6.05 0.39
12 -1 -4 4.9 0.36
12 1 4 6.91 0.4
12 -1 -4 6.2 0.37
12 1 -5 7.44 0.44
12 -1 5 7.94 0.46
12 1 5 7.49 0.45
12 -1 -5 7.01 0.42
12 -1 6 2.29 0.3
12 1 -6 1.39 0.25
12 -1 -6 1.69 0.27
12 1 6 2.25 0.3
12 1 -7 4 0.41
12 -1 7 3.77 0.39
12 -1 -7 4.55 0.43
12 1 7 4.18 0.41
13 -1 0 4.42 0.33
13 1 0 4.74 0.34
13 -1 1 68.65 1.7
13 1 -1 70.22 1.7
13 1 1 67.62 1.69
13 -1 -1 69.08 1.7
13 -1 2 0.71 0.18
13 1 -2 0.49 0.16
13 1 2 0.4 0.16
13 -1 -2 0.29 0.15
13 1 -3 0.08 0.13
13 1 -3 0.42 0.15
13 -1 3 0.22 0.16
13 -1 -3 0.14 0.13
13 1 3 0.03 0.14
13 -1 -3 -0.09 0.12
13 -1 4 4.65 0.41
13 1 -4 4.93 0.37
13 1 4 4.32 0.38
13 -1 -4 4.77 0.38
13 -1 -4 4.66 0.36
13 1 -5 0.35 0.19
13 -1 5 0.41 0.19
13 1 5 0.32 0.18
13 -1 -5 0.28 0.18
13 1 -6 0.69 0.23
13 -1 6 0.19 0.19
13 1 6 0.42 0.21
13 -1 -6 0.15 0.19
13 -1 -7 6.09 0.51
14 -1 0 0.3 0.16
14 1 0 0.21 0.15
14 1 -1 3.83 0.34
14 -1 1 3.83 0.36
14 -1 -1 4.2 0.38
14 1 1 3.98 0.37
14 1 -2 0.36 0.17
14 -1 2 0.41 0.19
14 -1 -2 0.19 0.15
14 1 2 0.2 0.17
14 -1 3 18.05 0.71
14 1 3 18.53 0.72
14 -1 -3 19.05 0.72
14 1 -4 0.15 0.15
14 -1 4 0.1 0.16
14 1 4 -0.04 0.15
14 -1 5 69.08 1.78
14 1 -5 67.73 1.74
14 -1 -5 67.01 1.73
14 1 5 66.9 1.77
14 1 -6 2.61 0.35
14 -1 -6 2.41 0.33
15 -1 0 11.52 0.57
15 1 0 10.7 0.54
15 -1 1 14.6 0.64
15 1 -1 15.16 0.63
15 -1 -1 14.37 0.63
15 1 1 13.83 0.62
15 -1 2 -0.05 0.17
15 1 -2 0.04 0.14
15 1 2 0.17 0.17
15 -1 -2 0.04 0.14
15 -1 3 1.1 0.24
15 1 3 0.91 0.24
15 -1 -3 1.81 0.3
15 -1 4 0.15 0.19
15 1 4 0.36 0.2
15 1 -5 7.34 0.49
16 1 0 0.09 0.17
16 -1 0 0.11 0.18
16 -1 1 5.09 0.45
16 1 -1 5.12 0.45
16 -1 -1 5.11 0.45
16 1 1 5.33 0.42
16 -1 2 0.53 0.21
16 -1 -2 1.27 0.25
16 1 2 0.85 0.24
16 1 3 23.12 0.98
17 1 0 3.45 0.39
17 -1 -1 10.91 0.6
0 -2 0 638.85 15.48
0 2 0 801.28 15.57
0 -2 1 -0.57 0.03
0 2 -1 -0.6 0.03
0 -2 -2 57.13 1.17
0 2 -2 57.18 1.15
0 2 -3 -0.03 0.04
0 -2 -3 0 0.04
0 -2 -4 206.51 4.03
0 2 -4 203.79 4.01
0 -2 -5 -0.06 0.06
0 2 -5 -0.02 0.06
0 2 -6 30.46 0.8
0 -2 -6 31.44 0.81
0 2 -7 0.01 0.09
0 -2 -7 0.01 0.09
0 2 -8 17.7 0.61
0 2 9 0.07 0.12
0 2 -9 -0.13 0.12
0 2 9 -0.2 0.11
0 2 10 54.52 1.26
0 2 10 52.98 1.37
0 2 -10 51.13 1.38
0 2 11 -0.09 0.15
0 2 11 -0.02 0.16
1 -2 0 -0.08 0.02
1 2 0 -0.1 0.01
-1 2 0 -0.01 0.01
-1 2 0 -0.04 0.01
1 2 0 -0.04 0.02
1 -2 1 43.46 0.94
1 2 -1 45.17 0.92
1 2 -1 47.06 0.92
1 -2 -1 47.13 0.93
-1 2 -1 46.97 0.89
1 2 1 47.52 0.92
1 -2 -1 47.61 0.96
-1 -2 1 46.11 0.9
1 2 -2 5.26 0.18
1 2 2 5.2 0.16
1 -2 -2 5.44 0.18
-1 -2 2 5.26 0.15
1 2 2 5.23 0.15
1 -2 -2 5.44 0.19
-1 2 -2 5.41 0.16
1 2 -3 14.44 0.39
-1 -2 3 14.67 0.35
1 -2 -3 14.5 0.39
1 2 3 14.07 0.33
-1 2 -3 14.21 0.36
1 2 3 13.58 0.36
1 2 -4 0.12 0.07
1 -2 -4 0.01 0.06
-1 2 -4 0.14 0.06
-1 -2 4 0.16 0.05
1 2 -5 75.13 1.64
-1 2 -5 74.68 1.6
1 -2 -5 77.16 1.64
1 2 -6 3.5 0.23
1 -2 -6 2.69 0.21
-1 2 -6 2.92 0.2
-1 -2 6 3.48 0.18
1 2 -7 9.69 0.41
1 2 7 9.62 0.38
-1 2 -7 9.48 0.39
1 2 7 9.88 0.36
1 -2 -7 9.93 0.42
-1 -2 7 10.44 0.35
1 2 -8 0.06 0.11
-1 2 -8 0.08 0.12
1 2 8 -0.08 0.09
1 2 8 0.04 0.11
1 -2 -8 0.12 0.13
1 2 -9 0.73 0.19
1 2 9 0.87 0.17
1 2 9 0.82 0.18
1 -2 -9 1.26 0.22
1 2 -10 4.14 0.38
-1 2 10 3.86 0.35
-1 2 10 3.87 0.32
1 2 10 3.63 0.3
1 2 10 3.4 0.32
-1 2 11 1.92 0.27
-1 2 11 1.75 0.28
2 -2 0 654.67 12.38
2 2 0 642.04 12.79
2 2 0 656.03 12.54
2 -2 1 1.96 0.09
2 2 -1 2.26 0.08
2 2 -1 2.15 0.1
-2 -2 1 2.16 0.08
2 2 1 2.17 0.09
2 -2 -1 2.15 0.1
2 -2 -1 2.16 0.1
2 2 -2 49.56 1.04
2 2 -2 50.8 1.03
2 -2 2 48.14 1.05
-2 2 -2 51.6 0.99
2 -2 -2 50.02 1.07
2 -2 -2 48.26 1.04
2 2 2 50.2 1.01
-2 -2 2 50.27 0.99
2 2 -3 0.15 0.06
2 -2 3 0.12 0.05
2 2 -3 0.13 0.05
2 -2 -3 0.67 0.09
-2 -2 3 0.17 0.04
2 2 3 0.3 0.05
-2 2 -3 0.17 0.04
2 2 3 0.29 0.05
2 -2 -3 0.2 0.06
2 2 4 22.09 0.54
2 2 4 22.55 0.49
-2 -2 4 21.51 0.5
-2 2 -4 22.55 0.54
2 -2 -4 21.65 0.59
2 2 -5 32.45 0.81
2 -2 -5 31.23 0.81
2 2 5 32.7 0.7
-2 -2 5 31.37 0.71
-2 2 -5 31.47 0.75
2 2 5 31.35 0.75
2 2 -6 66.86 1.51
-2 -2 6 65.42 1.38
2 -2 -6 64.29 1.51
2 2 6 65.28 1.44
-2 2 -6 67.18 1.45
2 2 6 67.44 1.33
2 2 -7 0.33 0.13
2 2 7 0.39 0.11
2 -2 -7 0.48 0.14
2 2 7 0.67 0.12
-2 2 -7 0.42 0.12
2 -2 8 36.33 0.94
2 -2 8 35.95 0.86
2 2 -8 38 1.04
2 2 8 37.47 0.96
2 -2 -8 37.75 1.04
2 2 8 36 0.87
2 2 -9 1.25 0.23
2 2 9 1.52 0.2
2 -2 -9 2.1 0.28
2 2 9 1.5 0.21
2 2 -10 35.45 1.09
2 2 -11 1.42 0.29
-2 2 11 1.04 0.23
-2 2 11 0.99 0.24
3 -2 0 0.01 0.03
3 2 0 0.01 0.03
3 2 0 0.02 0.03
3 -2 0 -0.04 0.02
3 -2 1 63.91 1.32
3 -2 1 63.47 1.22
3 2 -1 67.22 1.3
3 2 -1 63.48 1.29
3 2 1 62.96 1.31
3 -2 -1 62.94 1.28
3 -2 -1 62.52 1.32
3 2 1 63.5 1.27
3 2 -2 76.51 1.57
3 2 -2 77.17 1.57
3 -2 2 78 1.48
3 -2 2 74.6 1.59
3 2 2 78.1 1.6
3 -2 -2 77.82 1.57
-3 -2 2 76.51 1.49
3 2 2 76.37 1.52
3 -2 -2 76.47 1.61
3 -2 3 1.9 0.09
-3 2 3 1.86 0.06
3 2 -3 1.59 0.11
3 2 -3 1.88 0.14
3 -2 3 1.81 0.12
3 -2 3 1.86 0.08
3 -2 -3 1.76 0.15
3 2 3 1.79 0.1
-3 -2 3 1.91 0.09
3 -2 -3 1.72 0.13
3 -2 4 95.65 1.73
3 2 -4 95.69 1.98
3 -2 4 92.66 1.99
3 2 -4 95.97 1.99
-3 2 4 95.32 1.82
3 -2 4 94.5 1.88
3 2 4 93.89 1.91
3 -2 -4 93.43 2.02
-3 -2 4 94.08 1.86
3 -2 -4 96.45 1.99
3 -2 5 16.89 0.44
3 2 -5 16.42 0.52
-3 2 5 16.66 0.39
3 -2 5 16.95 0.5
3 -2 5 16.77 0.41
3 2 5 16.82 0.42
3 2 5 16.81 0.46
3 -2 -5 17.72 0.54
-3 -2 5 16.91 0.42
3 2 -6 64.21 1.5
3 -2 6 64.39 1.39
3 -2 6 63.48 1.28
3 -2 6 67.15 1.49
3 2 6 65.69 1.3
3 2 6 65.29 1.41
-3 -2 6 64.07 1.35
3 -2 -6 65.96 1.51
3 -2 7 13.14 0.43
3 -2 7 13.39 0.4
3 -2 7 13.72 0.49
3 2 -7 14.2 0.53
3 -2 -7 13.59 0.53
3 2 7 13.35 0.45
3 2 7 12.75 0.4
3 2 -8 9.2 0.46
3 -2 8 10.29 0.43
3 -2 -8 9.45 0.46
3 2 8 9.03 0.39
3 2 8 9.27 0.36
3 2 -9 3.36 0.34
3 -2 9 3.69 0.31
3 -2 -9 3.88 0.37
3 -2 10 0.45 0.18
3 2 -10 0.32 0.18
3 -2 -10 0.15 0.18
3 2 -11 0.9 0.24
3 2 11 1.63 0.28
4 2 0 68.92 1.36
4 -2 0 66.75 1.41
4 -2 0 67.78 1.34
4 2 0 67.47 1.4
4 -2 1 120.24 2.44
4 2 -1 122.47 2.42
4 2 -1 120.53 2.38
4 -2 1 119.37 2.3
4 -2 -1 118.8 2.37
4 2 1 121.65 2.35
4 -2 -1 122.5 2.45
4 2 1 119.68 2.44
4 -2 2 9.87 0.23
4 2 -2 9.85 0.31
4 -2 2 10.03 0.3
4 2 -2 9.85 0.28
4 -2 -2 9.98 0.31
4 2 2 10.03 0.27
4 -2 -2 9.76 0.3
4 2 -3 7.68 0.29
4 2 -3 7.67 0.26
4 -2 3 7.95 0.21
4 -2 3 7.38 0.27
4 -2 -3 7.86 0.29
4 2 3 8.32 0.24
4 -2 -3 8.02 0.29
4 2 3 7.65 0.28
-4 -2 3 7.91 0.22
-4 2 4 2.23 0.08
4 2 -4 2.19 0.14
4 -2 4 2.26 0.16
4 -2 4 2.16 0.11
4 2 4 2.16 0.18
4 -2 -4 1.98 0.18
4 2 4 2.08 0.13
4 -2 -4 1.7 0.16
-4 -2 4 1.98 0.11
4 2 -5 0.45 0.12
4 -2 5 0.57 0.08
4 -2 5 0.74 0.09
4 -2 5 0.65 0.12
-4 -2 5 0.62 0.08
4 -2 -5 0.69 0.12
4 -2 -5 0.61 0.12
4 2 5 0.7 0.1
4 2 -6 37.19 0.97
4 -2 6 35.61 0.93
4 -2 6 35.89 0.77
4 -2 6 35.91 0.84
4 2 6 36.52 0.86
4 -2 -6 36.46 0.97
4 -2 7 29.53 0.82
4 2 -7 28.71 0.86
4 2 7 28.52 0.75
4 -2 -7 28.5 0.86
4 2 -8 4.9 0.36
4 -2 8 4.2 0.31
4 -2 -8 4.89 0.35
4 2 -9 8.02 0.47
4 -2 9 7.8 0.42
4 2 9 8.25 0.45
4 -2 -9 8.08 0.48
4 2 -10 25.5 0.91
4 -2 10 26.7 0.87
4 -2 -10 27.48 0.94
4 2 10 25.85 0.89
4 2 11 7.95 0.51
5 -2 0 -0.05 0.04
5 2 0 0.05 0.04
5 -2 0 -0.01 0.04
5 2 0 0.01 0.05
5 -2 1 42.93 0.97
5 -2 1 43.49 0.86
5 2 -1 44.39 0.94
5 2 -1 43.01 0.95
5 -2 -1 43.4 0.93
5 -2 -1 43.05 0.97
5 2 1 43.89 0.91
5 2 1 42.05 0.96
5 -2 2 11.23 0.26
5 2 -2 11.73 0.34
5 2 -2 12.13 0.36
5 -2 2 11.23 0.35
5 2 2 11.16 0.3
5 -2 -2 11.21 0.34
5 -2 -2 11.43 0.36
5 2 2 11.59 0.36
5 -2 3 14.61 0.34
5 -2 3 13.97 0.43
5 2 -3 14.46 0.42
5 2 -3 14.73 0.45
5 2 3 15.18 0.45
5 -2 -3 14.99 0.45
5 -2 -3 15.07 0.45
5 2 3 15.47 0.39
5 -2 4 179.52 3.51
5 2 -4 181.06 3.69
5 -2 4 181.33 3.71
5 2 -4 182.41 3.66
-5 -2 4 181.69 3.48
5 2 4 188.34 3.73
5 2 4 179.09 3.55
5 -2 -4 185.63 3.67
5 -2 -4 177.37 3.74
5 -2 5 6.3 0.3
5 2 -5 6.74 0.33
5 2 -5 6.68 0.28
5 -2 5 6.39 0.22
5 2 5 6.98 0.31
5 -2 -5 6.42 0.31
5 2 5 6.01 0.24
5 -2 6 149.89 3.17
5 2 -6 148.17 3.16
5 -2 -6 154.78 3.21
5 2 6 148.28 3.18
5 -2 -6 148.14 3.16
5 2 6 152.97 3.02
5 -2 7 0.72 0.16
5 2 -7 0.83 0.18
5 2 7 0.65 0.16
5 -2 -7 0.61 0.17
5 -2 8 25.61 0.79
5 2 -8 25.27 0.84
5 2 8 26.11 0.82
5 -2 -8 25.51 0.84
5 2 -9 3.58 0.37
5 -2 9 4.05 0.36
5 -2 -9 4.01 0.39
5 2 9 4.39 0.35
5 2 -10 0.35 0.2
5 -2 10 0.34 0.18
5 -2 -10 0.62 0.22
5 2 10 0.62 0.22
6 2 0 23.36 0.55
6 -2 0 22.39 0.59
6 2 0 23.17 0.58
6 -2 0 22.91 0.53
6 -2 1 55.13 1.07
6 2 -1 53.4 1.17
6 2 -1 52.8 1.14
6 -2 1 52.41 1.19
6 2 1 53.81 1.18
6 -2 -1 51.51 1.13
6 -2 -1 53.88 1.19
6 2 1 53.79 1.11
6 2 -2 0.58 0.09
6 2 -2 0.58 0.1
6 -2 2 0.42 0.09
6 -2 2 0.55 0.05
6 2 2 0.58 0.07
6 -2 -2 0.43 0.08
6 -2 -2 0.63 0.1
6 2 2 0.46 0.09
6 2 -3 10.39 0.35
6 2 -3 10.3 0.37
6 -2 3 11.01 0.27
6 2 3 11 0.38
6 -2 -3 10.59 0.37
6 2 3 11.24 0.31
6 -2 -3 10.61 0.38
6 -2 4 20.92 0.6
6 -2 4 20.56 0.49
6 2 -4 19.79 0.61
6 2 -4 21.7 0.59
6 -2 -4 20.69 0.62
6 -2 -4 20.83 0.61
6 2 4 21.07 0.53
6 2 4 21.25 0.61
6 2 -5 13.81 0.51
6 -2 5 14.52 0.49
6 2 -5 14.09 0.47
6 2 5 14.34 0.42
6 -2 -5 14.73 0.51
6 2 -6 1.52 0.18
6 2 -6 1.21 0.19
6 -2 6 1.43 0.19
6 -2 -6 1.65 0.21
6 2 6 1.3 0.19
6 -2 -6 1.35 0.19
6 2 -7 26.8 0.85
6 -2 7 26.55 0.8
6 2 7 27.08 0.82
6 -2 -7 26.73 0.85
6 -2 8 4.99 0.34
6 2 -8 5.74 0.39
6 -2 -8 5.02 0.37
6 2 8 4.71 0.34
6 -2 9 19.37 0.7
6 2 -9 18.92 0.75
6 2 9 17.87 0.7
6 -2 -9 16.8 0.72
6 2 -10 0.09 0.19
6 -2 10 0.35 0.18
6 2 10 -0.07 0.19
6 -2 -10 -0.12 0.19
7 -2 0 -0.02 0.04
7 -2 0 -0.02 0.06
7 2 0 0.01 0.05
7 2 0 0.05 0.05
7 -2 1 24.76 0.65
7 -2 1 23.76 0.53
7 2 -1 23.43 0.6
7 2 -1 24.85 0.63
7 2 1 24.03 0.63
7 -2 -1 23.96 0.59
7 -2 -1 23.16 0.64
7 2 1 23.97 0.57
7 -2 2 12.82 0.3
7 2 -2 12.6 0.39
7 -2 2 11.94 0.41
7 2 -2 12.84 0.41
7 2 2 12.75 0.34
7 -2 -2 12.43 0.41
7 2 2 12.57 0.41
7 -2 -2 11.97 0.39
7 2 -3 0.05 0.06
7 2 -3 0.06 0.08
7 -2 3 0.08 0.08
7 2 3 0.18 0.06
7 -2 -3 0.05 0.07
7 -2 -3 0.01 0.07
7 2 3 0.02 0.07
7 2 -4 109.63 2.29
7 -2 4 108.39 2.32
7 2 -4 105.78 2.29
7 -2 -4 106.48 2.34
7 -2 -4 107.14 2.29
7 2 4 104.78 2.15
7 2 4 106.5 2.32
7 -2 5 18.16 0.6
7 2 -5 19.09 0.62
7 2 -5 18.67 0.58
7 2 5 19.08 0.61
7 -2 -5 18.69 0.62
7 -2 -5 18.35 0.62
7 2 -6 39.21 1.08
7 -2 6 37.5 1.04
7 -2 -6 39.78 1.07
7 -2 -6 38.98 1.07
7 2 6 39.39 1.05
7 2 -7 1.62 0.24
7 -2 7 1.34 0.21
7 -2 -7 1.22 0.21
7 -2 -7 1.54 0.23
7 2 7 1.2 0.21
7 2 -8 3.73 0.36
7 -2 8 4.38 0.33
7 -2 -8 4.11 0.39
7 2 8 3.9 0.35
7 2 -9 4.32 0.41
7 -2 9 4.6 0.39
7 -2 -9 3.61 0.4
7 2 9 4.54 0.39
7 -2 10 -0.18 0.17
7 2 10 0.01 0.18
8 -2 0 145.68 2.89
8 -2 0 146.41 3.05
8 2 0 148.24 3.03
8 2 0 145.67 2.91
8 2 -1 59.55 1.32
8 -2 1 60.64 1.24
8 -2 1 60.68 1.39
8 2 -1 62.12 1.37
8 -2 -1 60.71 1.31
8 -2 -1 60.71 1.39
8 2 1 59.95 1.37
8 2 1 60.33 1.27
8 2 -2 101.75 2.14
8 2 -2 100.01 2.1
8 -2 2 98.2 2.16
8 2 2 100.81 2.01
8 2 2 99.03 2.15
8 -2 -2 100.34 2.09
8 -2 -2 99.09 2.16
8 2 -3 4.44 0.25
8 2 -3 4.26 0.24
8 -2 3 4.73 0.26
8 2 3 4.01 0.18
8 -2 -3 3.91 0.24
8 -2 -3 4.39 0.25
8 2 3 4.3 0.26
8 2 -4 4.28 0.26
8 2 -4 5.08 0.3
8 -2 4 4.46 0.28
8 -2 -4 5.26 0.3
8 -2 -4 4.91 0.29
8 2 4 5.02 0.29
8 2 -5 1.21 0.17
8 2 -5 1.24 0.19
8 -2 5 1.43 0.2
8 -2 -5 1.12 0.19
8 2 5 1.44 0.2
8 -2 -5 0.96 0.17
8 2 -6 12.17 0.54
8 -2 6 13.07 0.52
8 2 6 13.05 0.52
8 -2 -6 12.61 0.53
8 -2 -6 12.72 0.53
8 2 -7 3.49 0.34
8 -2 7 4.23 0.32
8 -2 -7 4.53 0.38
8 2 7 4.11 0.35
8 2 -8 33.91 1.07
8 -2 8 32.79 1.01
8 -2 -8 35.18 1.08
8 2 8 33.78 1.03
8 -2 9 6.24 0.42
8 2 -9 6.27 0.46
8 2 9 5.86 0.44
8 -2 -9 5.65 0.44
9 2 0 0.02 0.06
9 2 0 -0.05 0.07
9 -2 0 0.1 0.06
9 -2 0 -0.01 0.08
9 -2 1 2.64 0.15
9 2 -1 2.56 0.19
9 2 -1 2.14 0.19
9 -2 1 3.02 0.22
9 -2 -1 2.73 0.21
9 -2 -1 2.15 0.17
9 2 1 2 0.19
9 2 1 2.72 0.17
9 2 -2 3.51 0.23
9 2 -2 3.44 0.22
9 -2 2 3.33 0.24
9 -2 -2 3.59 0.24
9 -2 -2 2.91 0.21
9 2 2 3.33 0.17
9 2 2 3.64 0.24
9 2 -3 24.69 0.71
9 2 -3 24.47 0.7
9 -2 3 24.23 0.72
9 -2 -3 24.92 0.7
9 -2 -3 24.08 0.73
9 2 3 23.92 0.72
9 2 -4 40.21 1.06
9 2 -4 39.25 1.04
9 -2 4 41.81 1.07
9 -2 -4 40.22 1.08
9 2 4 39.97 1.06
9 -2 -4 40.39 1.05
9 2 -5 51.05 1.31
9 -2 5 51.34 1.3
9 -2 -5 51.16 1.33
9 -2 -5 52.41 1.31
9 2 5 49.62 1.3
9 -2 6 17.44 0.63
9 2 -6 17.36 0.66
9 2 6 16.01 0.62
9 -2 -6 17.36 0.64
9 -2 -6 16.09 0.64
9 -2 7 0.5 0.18
9 2 -7 0.67 0.21
9 2 7 0.47 0.19
9 -2 -7 0.65 0.2
9 -2 8 0.1 0.16
9 2 -8 0.06 0.18
9 -2 -8 -0.01 0.17
9 2 8 -0.01 0.16
9 2 -9 1.8 0.32
9 -2 9 1.33 0.27
9 2 9 1.7 0.3
9 -2 -9 2.47 0.35
10 2 0 89.79 1.89
10 -2 0 92.63 2.03
10 2 0 89.78 2
10 -2 0 88.41 1.86
10 2 -1 13.35 0.47
10 2 -1 13.19 0.44
10 -2 1 13.49 0.49
10 2 1 13.4 0.48
10 -2 -1 13.46 0.49
10 -2 -1 13.26 0.43
10 2 1 13.2 0.4
10 -2 2 68.63 1.62
10 2 -2 70.97 1.61
10 2 -2 68.29 1.56
10 -2 -2 67.21 1.62
10 2 2 70.27 1.62
10 -2 -2 69.92 1.55
10 2 -3 0.69 0.14
10 2 -3 0.63 0.15
10 -2 3 1.06 0.18
10 -2 -3 0.82 0.16
10 2 3 0.63 0.15
10 -2 -3 0.69 0.15
10 2 -4 9.19 0.42
10 2 -4 7.87 0.39
10 -2 4 8.42 0.41
10 2 4 9.45 0.43
10 -2 -4 9.12 0.42
10 -2 -4 9.01 0.43
10 -2 5 0.33 0.14
10 2 -5 -0.1 0.12
10 2 5 0.28 0.14
10 -2 -5 0.31 0.15
10 -2 -5 0.33 0.15
10 2 -6 1.17 0.22
10 -2 6 0.93 0.21
10 2 6 0.98 0.21
10 -2 -6 0.63 0.2
10 2 -7 4.1 0.4
10 -2 7 3.84 0.36
10 -2 -7 4.31 0.41
10 2 7 3.26 0.33
10 -2 8 27.02 0.92
10 2 -8 25.6 0.95
10 -2 -8 27.07 0.96
10 2 8 28.5 0.95
11 2 0 0.03 0.1
11 -2 0 -0.04 0.09
11 2 0 0.2 0.1
11 2 -1 0.23 0.1
11 -2 1 0.15 0.12
11 2 -1 0.17 0.11
11 -2 -1 0.11 0.09
11 2 1 0.17 0.11
11 -2 -1 0.15 0.11
11 -2 2 10.62 0.46
11 2 -2 11.71 0.44
11 2 -2 10.78 0.44
11 2 2 11.03 0.46
11 -2 -2 10.82 0.42
11 -2 -2 10.65 0.46
11 -2 3 0.44 0.15
11 2 -3 0.61 0.15
11 2 -3 0.41 0.15
11 2 3 0.74 0.17
11 -2 -3 0.45 0.14
11 -2 -3 0.53 0.15
11 -2 4 3.91 0.31
11 2 -4 4.49 0.32
11 2 4 4.84 0.33
11 -2 -4 4.48 0.33
11 -2 -4 4.81 0.32
11 2 -5 23.07 0.78
11 -2 5 23.44 0.78
11 -2 -5 23.8 0.79
11 2 5 23.43 0.79
11 -2 -5 22.43 0.79
11 2 -6 0.72 0.22
11 -2 6 0.5 0.19
11 2 6 0.95 0.22
11 -2 -6 0.35 0.19
11 2 -7 2.03 0.3
11 -2 7 2.09 0.29
11 2 7 2.4 0.31
11 -2 -7 2.83 0.34
11 -2 8 0.16 0.19
11 2 -8 0.12 0.2
11 2 8 0.1 0.19
11 -2 -8 0.23 0.19
12 -2 0 75.87 1.82
12 2 0 78.05 1.82
12 -2 1 4.33 0.31
12 2 -1 4.12 0.3
12 2 -1 4.47 0.27
12 -2 -1 3.98 0.3
12 2 1 4.18 0.31
12 -2 2 12.46 0.53
12 2 -2 12.53 0.51
12 2 -2 13.2 0.5
12 -2 -2 12.35 0.52
12 2 2 12.5 0.52
12 -2 -2 13.03 0.48
12 -2 3 8.66 0.45
12 2 -3 8.01 0.41
12 2 -3 8.1 0.41
12 -2 -3 8.22 0.4
12 -2 -3 7.8 0.42
12 2 3 8.86 0.45
12 2 -4 0.17 0.15
12 -2 4 0.15 0.15
12 2 4 0.21 0.15
12 -2 -4 0.23 0.16
12 -2 -4 0.4 0.16
12 -2 5 1.2 0.23
12 2 -5 1.4 0.25
12 -2 -5 1.45 0.26
12 -2 -5 1.56 0.24
12 2 5 1.23 0.24
12 -2 6 7.88 0.48
12 2 -6 6.27 0.44
12 2 6 7.21 0.47
12 -2 -6 7.82 0.47
12 2 -7 2.78 0.36
12 -2 7 4.19 0.4
12 -2 -7 3.7 0.39
12 2 7 3.59 0.38
13 2 0 0.03 0.13
13 -2 0 -0.05 0.12
13 -2 1 3.41 0.32
13 2 -1 4.01 0.34
13 -2 -1 3.34 0.32
13 2 1 4.11 0.32
13 2 -2 13.25 0.52
13 2 -2 12.76 0.54
13 -2 2 13.07 0.57
13 2 2 14 0.57
13 -2 -2 12.1 0.55
13 2 -3 0.2 0.14
13 -2 3 -0.07 0.13
13 2 3 0.27 0.16
13 -2 -3 0.37 0.16
13 2 -4 32 0.97
13 -2 4 30.66 0.98
13 -2 -4 31.23 0.95
13 2 4 31.52 0.99
13 -2 -4 30.89 1
13 -2 5 31.13 1.01
13 2 -5 31.97 1
13 2 5 29.95 0.99
13 -2 -5 31.18 0.98
13 -2 6 19.48 0.76
13 2 -6 18.59 0.76
13 2 6 17.58 0.74
13 -2 -6 19.67 0.77
13 -2 -7 0.15 0.18
14 2 0 49.2 1.32
14 -2 0 47.22 1.32
14 -2 1 22.52 0.8
14 2 -1 23.16 0.78
14 2 1 22.62 0.79
14 -2 -1 23.45 0.81
14 2 -2 18.45 0.69
14 -2 2 19.31 0.72
14 -2 -2 17.87 0.7
14 2 2 17.83 0.69
14 2 -3 1.42 0.24
14 -2 3 1.03 0.23
14 -2 -3 1.1 0.23
14 2 3 0.72 0.21
14 -2 4 5.24 0.44
14 2 -4 5.48 0.4
14 2 4 4.57 0.4
14 -2 5 0.22 0.2
14 2 -5 0.46 0.19
14 -2 -5 0.36 0.19
14 2 5 0.21 0.19
14 2 -6 0.13 0.19
14 -2 -6 0.23 0.19
15 -2 0 -0.01 0.16
15 2 0 0.3 0.16
15 -2 1 0.45 0.19
15 2 -1 0.84 0.22
15 2 1 0.39 0.18
15 -2 -1 0.71 0.21
15 -2 2 22.77 0.85
15 2 2 24.71 0.86
15 -2 -2 26.08 0.89
15 -2 3 1.2 0.25
15 -2 -3 2.24 0.32
15 2 3 1.75 0.28
15 -2 4 45 1.34
15 2 4 44.71 1.33
15 2 -5 2.95 0.36
16 -2 0 0.31 0.19
16 2 0 0.1 0.17
16 -2 1 6.44 0.45
16 2 -1 7.01 0.47
16 2 1 7.05 0.47
16 -2 -1 6.63 0.46
16 -2 2 1.59 0.29
16 2 2 1.63 0.3
16 -2 -2 0.98 0.24
16 2 3 -0.09 0.18
17 2 0 0.26 0.18
17 -2 -1 0.86 0.26
17 -2 -2 2.95 0.41
0 -3 0 0.09 0.02
0 3 0 0.08 0.02
0 -3 0 0.04 0.02
0 -3 1 0.01 0.02
0 3 1 0.01 0.02
0 3 -1 0 0.02
0 3 1 -0.02 0.02
0 -3 -1 0.02 0.03
0 -3 1 0 0.01
0 3 2 345.9 6.18
0 3 2 356.16 6.73
0 3 -2 358.59 6.83
0 3 -3 0.06 0.04
0 -3 -3 -0.09 0.04
0 -3 -4 229.51 4.55
0 3 -4 236.71 4.54
0 3 -5 0 0.06
0 -3 -5 0 0.06
0 -3 -6 120.85 2.56
0 3 -6 124.74 2.55
0 3 -7 0.11 0.1
0 3 -8 2.62 0.26
0 -3 8 2.2 0.2
0 3 8 2.06 0.21
0 3 8 2.49 0.24
0 3 9 0.03 0.12
0 3 -9 -0.06 0.12
0 3 9 -0.04 0.12
0 3 10 5.42 0.34
0 3 10 5.17 0.37
0 3 -10 5.02 0.45
0 3 11 0.11 0.15
0 3 11 0.12 0.17
-1 3 0 16.26 0.33
1 3 0 17.08 0.36
1 -3 0 16.21 0.34
1 -3 1 193.6 3.66
1 3 -1 184.38 3.55
1 3 -1 186.91 3.62
-1 3 -1 183.32 3.55
1 3 1 184.99 3.58
1 -3 -1 182.82 3.66
-1 -3 1 185.54 3.52
1 -3 -1 185.19 3.56
1 -3 2 84.86 1.65
1 3 -2 82.06 1.64
1 -3 -2 80.07 1.64
1 -3 -2 84.09 1.7
-1 3 -2 84.01 1.61
1 3 2 80.13 1.62
-1 -3 2 83.36 1.6
1 3 2 79.21 1.49
1 3 -3 53.32 1.13
1 3 3 51.81 1.02
1 -3 -3 54.24 1.14
1 3 3 53.24 1.11
-1 3 -3 54.3 1.1
-1 -3 3 53.24 1.08
1 3 -4 7.89 0.28
1 3 4 7.33 0.26
1 3 4 7.56 0.24
-1 -3 4 7.5 0.24
-1 3 -4 7.82 0.26
1 -3 -4 7.48 0.28
1 3 -5 2.48 0.18
-1 -3 5 2.43 0.15
1 -3 -5 2.69 0.19
1 3 5 2.7 0.17
-1 3 -5 2.41 0.17
1 3 5 2.58 0.16
1 3 -6 0 0.07
1 3 6 -0.05 0.07
1 3 6 0.01 0.07
-1 -3 6 0.09 0.07
-1 3 -6 0.05 0.07
1 -3 -6 0.06 0.09
1 3 -7 14.35 0.52
1 3 7 15.27 0.5
-1 -3 7 14.72 0.45
1 -3 -7 14.51 0.53
1 3 7 14.81 0.45
-1 3 -7 14.43 0.49
1 3 -8 2.74 0.27
1 3 8 2.71 0.25
-1 3 -8 2.43 0.24
1 -3 -8 2.8 0.28
1 3 8 2.28 0.21
-1 3 9 56.13 1.39
1 3 -9 53.63 1.41
-1 3 9 55.41 1.27
1 3 9 54.93 1.25
-1 3 -9 56.43 1.39
1 3 9 54.42 1.36
1 3 -10 11.35 0.56
-1 3 10 11.75 0.5
-1 3 10 11.63 0.54
1 3 10 12.06 0.48
1 3 10 11.58 0.52
-1 3 11 9.54 0.47
-1 3 11 10.84 0.55
2 3 0 0 0.02
2 -3 0 -0.01 0.03
2 3 0 -0.03 0.02
2 -3 0 0 0.02
2 -3 1 31.79 0.69
2 3 -1 33.34 0.66
2 -3 -1 32.34 0.68
-2 -3 1 31.8 0.66
2 -3 -1 33.01 0.62
2 -3 -1 32.61 0.71
2 3 1 32.17 0.68
2 -3 2 38.41 0.84
2 3 -2 39.85 0.82
2 -3 -2 39.52 0.85
-2 3 -2 39.31 0.79
2 3 2 40.2 0.82
2 -3 -2 39.62 0.88
-2 -3 2 39.62 0.8
2 -3 3 0.27 0.06
2 3 -3 0.31 0.07
-2 -3 3 0.28 0.05
2 -3 -3 0.16 0.06
-2 3 -3 0.27 0.05
2 -3 -3 0.38 0.08
2 3 3 0.22 0.05
2 3 -4 86 1.81
2 -3 4 82.63 1.8
2 -3 -4 85.11 1.81
2 3 4 87.99 1.76
-2 3 -4 88.64 1.75
-2 -3 4 86.94 1.72
2 3 4 86.88 1.62
2 3 -5 47.22 1.12
-2 3 -5 48.45 1.06
2 -3 -5 46.17 1.12
2 3 5 47.65 0.97
-2 -3 5 48.56 1.02
2 3 5 48.07 1.06
2 3 -6 66.68 1.51
2 -3 -6 63.14 1.5
-2 -3 6 66.8 1.39
-2 3 -6 67 1.45
2 3 6 67.12 1.45
2 3 6 65.98 1.33
2 3 -7 5.89 0.32
-2 -3 7 5.28 0.24
-2 3 -7 5.02 0.27
2 -3 -7 5.14 0.31
2 3 7 5.26 0.28
2 3 7 4.73 0.24
2 3 -8 0.77 0.17
2 -3 8 1.31 0.19
2 3 8 0.9 0.15
2 -3 -8 1.18 0.2
2 3 8 1.27 0.18
2 3 -9 4.11 0.36
2 -3 9 3.44 0.3
2 3 9 3.22 0.29
2 3 9 3.58 0.28
2 -3 -9 3.24 0.33
-2 3 10 1.06 0.21
2 3 -10 0.87 0.23
-2 3 10 1.48 0.25
2 3 10 0.99 0.19
2 3 10 0.88 0.2
-2 3 11 -0.06 0.14
-2 3 11 -0.23 0.15
2 3 -11 0.07 0.19
3 3 0 291.54 5.99
3 -3 0 303.04 5.79
3 3 0 288.75 5.79
3 -3 0 333.92 6.14
3 -3 1 0.38 0.06
3 3 -1 0.27 0.06
3 3 -1 0.4 0.05
3 -3 -1 0.29 0.05
3 3 1 0.39 0.06
3 3 1 0.47 0.06
3 -3 -1 0.32 0.06
3 -3 2 36.4 0.71
3 -3 2 35.95 0.8
3 3 -2 36.28 0.77
3 3 -2 36.8 0.8
3 3 2 35.34 0.76
3 -3 -2 35.35 0.82
3 -3 -2 35.67 0.8
-3 -3 2 36.37 0.74
3 -3 3 1.55 0.07
3 -3 3 1.73 0.12
3 3 -3 1.34 0.1
3 3 -3 1.53 0.13
3 -3 3 1.52 0.08
3 3 3 1.35 0.1
3 -3 -3 1.38 0.13
3 -3 -3 1.74 0.15
-3 -3 3 1.35 0.09
-3 3 4 1.5 0.07
3 -3 4 1.63 0.14
3 -3 -4 1.63 0.16
3 -3 -4 1.46 0.15
-3 -3 4 1.73 0.11
3 3 4 1.66 0.12
-3 3 5 3.07 0.12
3 3 -5 3.16 0.21
3 -3 5 3.15 0.19
3 -3 -5 3.15 0.22
-3 -3 5 3.42 0.16
3 3 5 3.17 0.18
3 3 -6 0.11 0.1
3 -3 6 0.24 0.09
3 -3 6 0.15 0.07
3 -3 6 0.25 0.08
3 3 6 0.23 0.09
-3 -3 6 0.36 0.08
3 -3 -6 0.18 0.11
3 -3 7 9.58 0.39
3 -3 7 9.68 0.33
3 3 -7 9.23 0.44
3 -3 7 9.61 0.35
3 -3 -7 10.19 0.44
3 3 7 10.52 0.39
3 -3 8 41.29 1.07
3 3 -8 41.04 1.13
3 3 8 40.67 1.03
3 -3 -8 40.65 1.13
3 3 -9 28.68 0.92
3 -3 9 29.01 0.86
3 3 9 28.29 0.82
3 -3 -9 28.63 0.92
3 3 -10 14.3 0.64
3 -3 -10 13.57 0.64
3 3 -11 7.8 0.52
3 3 11 8.32 0.51
4 3 0 -0.06 0.04
4 -3 0 -0.04 0.05
4 -3 0 -0.06 0.03
4 3 0 -0.1 0.03
4 3 -1 10.61 0.28
4 -3 1 10.46 0.31
4 -3 1 10.43 0.22
4 3 -1 10.49 0.3
4 -3 -1 9.94 0.31
4 3 1 10.65 0.3
4 -3 -1 10.13 0.28
4 3 1 10.11 0.27
4 -3 2 12.44 0.26
4 3 -2 12.33 0.33
4 3 -2 12.27 0.36
4 -3 2 12.38 0.35
4 3 2 12.81 0.36
4 -3 -2 12.49 0.37
4 -3 -2 11.85 0.35
4 3 2 11.66 0.32
-4 -3 2 11.92 0.3
4 -3 3 111.42 2.1
4 -3 3 106.46 2.25
4 3 -3 109.09 2.22
4 -3 -3 105.11 2.28
-4 -3 3 107.68 2.12
4 3 3 112.74 2.27
4 -3 -3 109.65 2.23
4 3 3 108.28 2.16
4 3 -4 57.36 1.25
4 -3 4 56.5 1.16
4 -3 4 57.4 1.28
4 3 -4 57.43 1.29
-4 -3 4 58.16 1.17
4 3 4 57.15 1.21
4 -3 -4 56.97 1.32
4 -3 5 218.62 4.23
4 -3 5 224.03 4.43
4 3 -5 219.66 4.38
4 -3 5 219.66 3.88
-4 -3 5 218.93 4.19
4 -3 -5 212.71 4.46
4 -3 -5 219.4 4.38
4 3 5 213.84 4.27
4 3 -6 1.75 0.21
4 -3 6 1.47 0.17
4 -3 6 1.83 0.15
4 -3 6 1.52 0.13
4 3 6 1.46 0.15
4 -3 -6 1.38 0.2
4 3 -7 5.69 0.35
4 -3 7 5.78 0.31
4 -3 -7 5.42 0.34
4 3 7 6.17 0.29
4 3 -8 5.56 0.37
4 -3 8 6.02 0.34
4 -3 -8 6.44 0.39
4 3 8 6.06 0.32
4 -3 9 0.05 0.13
4 3 -9 0.12 0.16
4 -3 -9 0.05 0.16
4 3 -10 0.05 0.16
4 -3 10 0.11 0.17
4 -3 -10 0.1 0.18
4 3 10 0.19 0.18
5 -3 0 206.1 4.08
5 -3 0 204.18 3.91
5 3 0 198.52 4.05
5 3 0 207.48 3.95
5 -3 1 54.46 1.07
5 3 -1 54.06 1.15
5 -3 1 54.12 1.19
5 3 -1 54.69 1.17
5 -3 -1 54.68 1.14
5 3 1 55.36 1.13
5 3 1 54.45 1.18
5 -3 -1 55.15 1.2
5 3 -2 28.05 0.68
5 3 -2 28.94 0.66
5 -3 2 27.62 0.68
5 -3 2 27.4 0.55
5 -3 -2 27.51 0.69
5 3 2 28.22 0.63
5 3 2 27.4 0.68
5 -3 -2 27.61 0.67
5 -3 3 70.63 1.54
5 3 -3 71.01 1.52
5 -3 3 71.17 1.39
5 3 -3 74.02 1.54
-5 -3 3 71.25 1.42
5 -3 -3 70.87 1.53
5 -3 -3 68.96 1.57
5 3 3 71.16 1.47
5 3 -4 11.96 0.42
5 3 -4 12.49 0.39
5 -3 4 12.66 0.41
5 -3 4 12.55 0.31
-5 -3 4 12.26 0.32
5 3 4 12.23 0.36
5 -3 -4 12.1 0.43
5 -3 -4 12.27 0.43
5 3 4 13.01 0.43
5 3 -5 13.09 0.42
5 -3 5 13.04 0.37
5 -3 5 13.21 0.45
5 3 -5 13.63 0.48
5 -3 -5 12.29 0.46
5 -3 -5 13.68 0.48
5 3 5 13.56 0.4
5 3 5 13.33 0.46
-5 -3 5 12.41 0.35
5 -3 6 0.82 0.15
5 3 -6 0.87 0.17
5 -3 -6 0.68 0.15
5 -3 -6 0.64 0.14
5 3 6 0.95 0.13
5 3 6 0.72 0.15
5 -3 7 0.74 0.15
5 3 -7 0.49 0.16
5 3 7 0.92 0.17
5 3 7 0.59 0.12
5 -3 -7 0.72 0.17
5 -3 8 16.43 0.58
5 3 -8 13.92 0.6
5 -3 -8 14.5 0.61
5 3 8 15.17 0.59
5 3 -9 0.14 0.16
5 -3 9 0.08 0.14
5 3 9 -0.07 0.14
5 -3 -9 0.2 0.17
5 3 -10 46.19 1.36
5 -3 10 46.64 1.29
5 3 10 46.62 1.32
5 -3 -10 46.6 1.37
6 3 0 0.02 0.05
6 3 0 0.04 0.05
6 -3 0 -0.01 0.05
6 -3 0 0.06 0.04
6 3 -1 6.24 0.23
6 -3 1 6.47 0.26
6 3 -1 5.77 0.23
6 -3 1 5.96 0.17
6 3 1 5.81 0.21
6 -3 -1 5.78 0.22
6 -3 -1 6.09 0.25
6 3 1 5.99 0.24
6 3 -2 12.29 0.36
6 3 -2 12.04 0.38
6 -3 2 12.28 0.27
6 -3 2 12.09 0.39
6 -3 -2 12.09 0.39
6 3 2 11.71 0.38
6 -3 -2 12.41 0.38
6 3 2 12.11 0.33
6 -3 3 37.22 0.74
6 3 -3 36.25 0.89
6 3 -3 35.32 0.86
6 -3 3 37.32 0.9
6 3 3 36.05 0.82
6 -3 -3 37.3 0.89
6 -3 -3 36.66 0.92
6 3 3 36.55 0.9
6 3 -4 3.58 0.23
6 -3 4 3.08 0.21
6 3 -4 3.17 0.19
6 3 4 2.99 0.22
6 -3 -4 3.7 0.23
6 -3 -4 3.4 0.23
6 3 4 2.8 0.17
6 3 -5 154.84 3.23
6 3 -5 157.43 3.24
6 -3 5 159.23 3.27
6 -3 -5 157.04 3.24
6 3 5 153.98 3.28
6 3 5 155.61 3.11
6 -3 -5 153.43 3.3
6 3 -6 1.64 0.21
6 -3 6 1.87 0.21
6 3 6 1.68 0.17
6 3 6 2.01 0.23
6 -3 -6 1.53 0.21
6 -3 -6 2.01 0.23
6 -3 7 25.77 0.78
6 3 -7 25.43 0.82
6 3 7 25.26 0.79
6 -3 -7 26.04 0.83
6 3 -8 0.79 0.2
6 -3 8 0.58 0.17
6 3 8 0.63 0.18
6 -3 -8 0.74 0.19
6 -3 9 1.92 0.26
6 3 -9 2.36 0.31
6 3 9 2 0.28
6 -3 -9 2.64 0.33
6 -3 10 0.84 0.23
6 3 -10 1.08 0.26
6 3 10 1.03 0.25
6 -3 -10 0.99 0.26
7 3 0 88.19 1.79
7 -3 0 87.65 1.88
7 -3 0 86.42 1.75
7 3 0 86.75 1.85
7 -3 1 81.61 1.6
7 3 -1 81.76 1.73
7 -3 1 79.29 1.75
7 3 -1 81.53 1.69
7 3 1 81.95 1.74
7 -3 -1 80.69 1.76
7 3 1 80.61 1.65
7 -3 -1 80.15 1.67
7 3 -2 33.41 0.82
7 -3 2 33.16 0.83
7 3 -2 33.92 0.81
7 -3 2 33.12 0.68
7 3 2 33.37 0.83
7 -3 -2 34.22 0.85
7 3 2 32.97 0.75
7 -3 -2 32.06 0.8
7 -3 3 9.65 0.37
7 3 -3 10.37 0.38
7 3 -3 9.68 0.35
7 -3 -3 9.44 0.38
7 -3 -3 9.16 0.36
7 3 3 10.04 0.37
7 3 3 9.83 0.31
7 -3 4 3.88 0.24
7 3 -4 3.67 0.25
7 3 -4 3.65 0.22
7 3 4 3.45 0.18
7 -3 -4 3.75 0.25
7 3 4 3.84 0.25
7 -3 -4 3.93 0.25
7 3 -5 6.61 0.35
7 3 -5 7.53 0.32
7 -3 5 6.74 0.34
7 3 5 7.42 0.35
7 -3 -5 6.78 0.36
7 -3 -5 7.17 0.37
7 -3 6 3.34 0.28
7 3 -6 2.8 0.27
7 -3 -6 3.18 0.29
7 -3 -6 3.16 0.28
7 3 6 3.05 0.27
7 -3 7 0.26 0.14
7 3 -7 0.1 0.14
7 -3 -7 0.2 0.15
7 -3 -7 0.15 0.13
7 3 7 0.29 0.16
7 -3 8 2.95 0.3
7 3 -8 3.39 0.36
7 -3 -8 2.79 0.32
7 3 8 2.64 0.3
7 -3 9 8.47 0.48
7 3 -9 9.46 0.54
7 3 9 9.46 0.52
7 -3 -9 8.72 0.52
7 -3 10 17.17 0.72
7 3 10 18.82 0.77
8 3 0 0.06 0.07
8 -3 0 0.11 0.08
8 3 0 0.02 0.06
8 -3 0 0.01 0.05
8 -3 1 21.88 0.5
8 -3 1 22.01 0.62
8 3 -1 20.77 0.59
8 3 -1 21.18 0.58
8 3 1 22.01 0.55
8 3 1 21.41 0.61
8 -3 -1 22.21 0.56
8 -3 -1 20.97 0.61
8 3 -2 5.15 0.25
8 3 -2 5.45 0.27
8 -3 2 5.95 0.28
8 3 2 5.21 0.21
8 -3 -2 5.28 0.27
8 3 2 5.62 0.27
8 -3 -2 5.15 0.25
8 3 -3 12.61 0.45
8 -3 3 12.85 0.45
8 3 -3 11.75 0.42
8 -3 -3 12.81 0.44
8 3 3 12.72 0.37
8 3 3 12.53 0.45
8 -3 -3 11.71 0.45
8 3 -4 52.09 1.26
8 -3 4 50.83 1.25
8 3 -4 49.05 1.22
8 -3 -4 51.74 1.28
8 3 4 53.23 1.27
8 -3 -4 51.07 1.24
8 -3 5 41.94 1.07
8 3 -5 39.07 1.07
8 3 5 41.29 1.08
8 -3 -5 39.87 1.1
8 -3 -5 40.75 1.08
8 -3 6 8.43 0.42
8 3 -6 8.7 0.44
8 -3 -6 7.77 0.42
8 3 6 8.2 0.42
8 -3 -6 7.88 0.42
8 -3 7 3.11 0.3
8 3 -7 3.65 0.36
8 -3 -7 3.51 0.33
8 -3 -7 3.34 0.33
8 3 7 2.98 0.3
8 -3 8 4.24 0.38
8 3 -8 4.94 0.44
8 3 8 4.12 0.37
8 -3 -8 4.4 0.41
8 -3 9 0.52 0.19
8 3 -9 0.59 0.22
8 -3 -9 0.54 0.21
8 3 9 0.85 0.23
9 -3 0 19.78 0.51
9 3 0 19.41 0.53
9 3 0 19.18 0.58
9 -3 0 19.92 0.6
9 3 -1 190.28 3.8
9 -3 1 192.05 3.94
9 3 -1 186.16 3.9
9 -3 -1 191.73 3.77
9 3 1 191.48 3.92
9 -3 -1 190.18 3.93
9 3 1 190.44 3.75
9 3 -2 9.43 0.36
9 3 -2 9.11 0.36
9 -3 2 10.02 0.39
9 -3 -2 8.96 0.35
9 -3 -2 9.02 0.38
9 3 2 8.68 0.3
9 3 2 8.52 0.37
9 -3 3 26.58 0.76
9 3 -3 25.86 0.74
9 3 -3 27.76 0.76
9 -3 -3 26.26 0.78
9 3 3 27.12 0.77
9 -3 -3 26.76 0.75
9 3 -4 3.16 0.27
9 3 -4 2.88 0.23
9 -3 4 3.48 0.27
9 -3 -4 2.92 0.27
9 3 4 3.49 0.26
9 -3 -4 3.62 0.26
9 3 -5 0.24 0.14
9 -3 5 0.14 0.14
9 -3 -5 0.34 0.14
9 3 5 0.3 0.14
9 -3 -5 0.48 0.15
9 3 -6 0.57 0.17
9 -3 6 0.81 0.19
9 -3 -6 0.54 0.17
9 3 6 0.59 0.18
9 -3 -6 0.49 0.17
9 3 -7 21.32 0.78
9 -3 7 21.78 0.75
9 -3 -7 20.23 0.76
9 3 7 20.47 0.75
9 -3 8 6.08 0.42
9 3 -8 6.97 0.47
9 -3 -8 6.83 0.46
9 3 8 6.83 0.46
9 3 -9 19.87 0.84
9 -3 9 20.54 0.78
9 3 9 20.02 0.79
9 -3 -9 18.95 0.82
10 3 0 0.05 0.09
10 -3 0 0.16 0.1
10 3 0 0.1 0.08
10 -3 1 7.44 0.36
10 3 -1 7.17 0.33
10 3 -1 7.33 0.32
10 3 1 7.19 0.28
10 -3 -1 7.77 0.36
10 3 1 6.56 0.33
10 -3 -1 7.04 0.3
10 3 -2 2.65 0.23
10 3 -2 2.21 0.21
10 -3 2 1.84 0.21
10 -3 -2 2.1 0.2
10 3 2 2.36 0.23
10 -3 -2 2.71 0.26
10 -3 3 2.71 0.25
10 3 -3 2.33 0.23
10 3 -3 2.75 0.24
10 3 3 2.84 0.26
10 -3 -3 2.36 0.23
10 -3 -3 2.7 0.26
10 3 -4 72.62 1.69
10 -3 4 72.4 1.71
10 -3 -4 71.72 1.73
10 -3 -4 70.84 1.67
10 3 4 69.67 1.7
10 -3 5 11.42 0.5
10 3 -5 10.89 0.5
10 -3 -5 10.78 0.51
10 -3 -5 11.91 0.51
10 3 5 11.95 0.51
10 -3 6 39.3 1.08
10 3 -6 37.18 1.09
10 -3 -6 35.47 1.06
10 3 6 36.33 1.07
10 -3 -6 34.47 1.08
10 3 -7 0.21 0.17
10 -3 7 0.04 0.15
10 -3 -7 0.02 0.17
10 3 7 0.12 0.15
10 -3 8 4.06 0.38
10 3 -8 4.66 0.45
10 3 8 3.14 0.36
10 -3 -8 3.53 0.39
11 -3 0 0.37 0.14
11 3 0 0.44 0.13
11 3 0 0.39 0.1
11 -3 1 5.36 0.32
11 3 -1 5.33 0.29
11 3 -1 5.49 0.31
11 -3 -1 4.88 0.32
11 3 1 5.53 0.31
11 3 -2 10.61 0.44
11 3 -2 9.96 0.42
11 -3 2 10.84 0.46
11 3 2 10.04 0.44
11 -3 -2 10.74 0.46
11 -3 -2 10.21 0.41
11 -3 3 2.42 0.26
11 3 -3 2.97 0.27
11 3 -3 3.3 0.26
11 -3 -3 3.04 0.27
11 3 3 2.25 0.24
11 -3 -3 2.93 0.28
11 3 -4 0.02 0.11
11 -3 4 0.09 0.13
11 -3 -4 0.07 0.12
11 -3 -4 -0.04 0.11
11 3 4 -0.15 0.11
11 3 -5 0.07 0.15
11 -3 5 0.15 0.14
11 -3 -5 0.32 0.15
11 -3 -5 0.16 0.13
11 3 5 0.12 0.14
11 -3 6 0.08 0.15
11 3 -6 0.01 0.15
11 3 6 0.06 0.16
11 -3 -6 -0.13 0.14
11 3 -7 11.81 0.61
11 -3 7 11.74 0.57
11 -3 -7 11.89 0.59
11 3 7 11.98 0.58
11 -3 8 0.95 0.25
11 3 -8 1.14 0.28
11 3 8 0.78 0.25
11 -3 -8 0.89 0.25
12 3 0 0.14 0.12
12 -3 0 0.07 0.12
12 3 -1 0.02 0.09
12 -3 1 0 0.12
12 3 -1 0.11 0.11
12 3 1 -0.02 0.11
12 -3 -1 -0.03 0.11
12 -3 2 5.34 0.35
12 3 -2 5.13 0.32
12 3 -2 6.26 0.35
12 -3 -2 5.89 0.36
12 3 2 5.87 0.36
12 -3 3 14.82 0.59
12 3 -3 14.77 0.56
12 3 -3 14.68 0.62
12 -3 -3 15.38 0.56
12 -3 -3 16.08 0.61
12 3 3 14.96 0.59
12 -3 4 24.38 0.81
12 3 -4 24.13 0.8
12 -3 -4 24.25 0.83
12 -3 -4 24.86 0.79
12 3 4 23.61 0.8
12 -3 5 11.34 0.53
12 3 -5 10.11 0.52
12 3 5 10.39 0.52
12 -3 -5 11.18 0.55
12 -3 -5 11.77 0.54
12 -3 6 11.66 0.57
12 3 -6 12.43 0.61
12 -3 -6 12.03 0.57
12 3 6 12.54 0.59
12 -3 7 5.5 0.42
12 3 -7 5.47 0.47
12 3 7 4.5 0.42
12 -3 -7 4.87 0.44
13 3 0 35.13 1
13 -3 0 33.94 1.01
13 3 -1 18.29 0.65
13 -3 1 17.63 0.67
13 -3 -1 17.81 0.67
13 3 1 17.85 0.65
13 3 -2 6.92 0.39
13 3 -2 7.2 0.38
13 -3 2 6.69 0.4
13 3 2 5.95 0.39
13 -3 -2 7 0.41
13 3 -3 14.41 0.58
13 -3 3 14.79 0.61
13 -3 -3 15.39 0.62
13 3 3 14.94 0.61
13 3 -4 0.29 0.17
13 -3 4 0.3 0.17
13 -3 -4 0.25 0.16
13 -3 -4 0.15 0.15
13 3 4 0.62 0.19
13 -3 5 0.46 0.19
13 3 -5 0.21 0.18
13 -3 -5 0.14 0.16
13 3 5 0.4 0.19
13 -3 6 31.61 1.03
13 3 -6 31.66 1.05
13 3 6 30.31 1.02
13 -3 -6 31.22 1.02
13 -3 -7 9.75 0.58
14 -3 0 0.12 0.15
14 3 0 0.17 0.15
14 -3 1 3.26 0.34
14 3 -1 3.87 0.34
14 3 1 3.29 0.33
14 -3 -1 4.08 0.38
14 -3 2 6.52 0.43
14 3 2 7.29 0.43
14 -3 -2 7.27 0.44
14 3 -3 37.96 1.1
14 -3 3 40.01 1.17
14 -3 -3 40.28 1.18
14 3 3 39.03 1.16
14 -3 4 15.4 0.67
14 3 -4 15.84 0.66
14 3 4 16.9 0.69
14 -3 -4 15.34 0.69
14 -3 5 14.51 0.68
14 3 -5 15.16 0.67
14 -3 -5 14.45 0.64
14 3 5 15.55 0.68
14 3 -6 15.96 0.72
14 -3 -6 17.22 0.73
15 -3 0 71.52 1.83
15 3 0 70.99 1.8
15 3 -1 9.13 0.49
15 -3 1 8.22 0.5
15 3 1 7.58 0.46
15 -3 -1 8.16 0.48
15 -3 2 7.86 0.48
15 -3 -2 7.33 0.47
15 3 2 7.92 0.47
15 -3 3 3.9 0.4
15 3 3 3.87 0.39
15 -3 -3 4.06 0.41
15 -3 4 0.49 0.21
15 3 4 0.43 0.21
15 3 -5 0.27 0.2
16 3 0 0.18 0.18
16 -3 0 0.04 0.17
16 -3 1 0.31 0.2
16 3 1 0.21 0.18
16 -3 -1 0.06 0.16
16 -3 2 2.07 0.32
16 3 2 2.03 0.31
16 -3 -2 2.79 0.36
16 3 3 7.95 0.5
16 -3 -3 7.29 0.5
17 3 0 29.24 1.01
17 3 1 9.22 0.6
0 -4 0 418.65 7.86
0 -4 0 374.61 7.66
0 4 0 399.91 7.75
0 -4 1 -0.2 0.02
0 -4 -1 -0.25 0.03
0 4 1 -0.25 0.03
0 4 -1 -0.2 0.03
0 -4 1 -0.21 0.03
0 4 -2 574.86 11.2
0 4 2 556.01 11.24
0 4 2 603.29 10.41
0 -4 2 604.1 11.12
0 -4 3 0.05 0.04
0 4 3 0.05 0.05
0 4 3 -0.01 0.04
0 4 -3 0.02 0.04
0 4 -4 155.95 3.09
0 4 -5 0.12 0.07
0 4 6 15.94 0.46
0 4 -6 15.16 0.5
0 4 6 16.63 0.5
0 -4 7 0 0.08
0 4 -7 0.12 0.1
0 4 7 0.01 0.1
0 4 7 -0.05 0.08
0 4 8 11.53 0.47
0 4 8 12.64 0.44
0 -4 8 11.62 0.43
0 4 -8 11.54 0.48
0 4 9 0 0.11
0 4 -9 0.07 0.13
0 4 9 -0.15 0.12
0 4 10 16.84 0.59
0 4 10 16.99 0.65
0 4 11 0.11 0.15
0 4 11 -0.19 0.15
1 4 0 -0.11 0.03
-1 4 0 -0.14 0.02
1 -4 0 -0.08 0.03
1 -4 0 -0.17 0.02
-1 -4 0 -0.15 0.02
1 4 -1 0.16 0.04
-1 4 1 0.01 0.03
1 -4 1 0.01 0.03
-1 4 1 0.13 0.04
1 4 1 0.06 0.04
-1 -4 1 0.17 0.04
-1 4 -1 0.11 0.03
1 -4 -1 0.11 0.02
1 -4 -1 0.08 0.04
1 4 -2 3.39 0.14
1 -4 2 3.71 0.13
-1 -4 2 3.66 0.13
-1 4 -2 3.91 0.13
1 -4 -2 3.81 0.16
1 4 2 3.69 0.14
1 -4 -2 3.72 0.15
1 -4 3 184.27 3.65
1 4 -3 182.15 3.59
1 4 3 185.29 3.29
1 4 3 179.53 3.58
-1 -4 3 184.26 3.53
1 -4 -3 186.73 3.61
-1 4 -3 187.48 3.56
1 4 -4 1.42 0.13
1 -4 -4 1.62 0.15
-1 -4 4 1.38 0.11
1 4 4 1.77 0.12
-1 4 -4 1.46 0.13
1 4 4 1.69 0.13
1 4 -5 188.57 3.74
-1 4 -5 188.71 3.7
1 4 5 187.68 3.4
-1 -4 5 184.18 3.64
1 -4 -5 185.55 3.75
1 4 5 189.63 3.71
1 4 -6 0.33 0.1
1 4 6 0.57 0.1
1 -4 -6 0.56 0.12
-1 4 -6 0.39 0.1
-1 -4 6 0.46 0.09
1 4 6 0.51 0.11
1 4 -7 55.18 1.33
-1 -4 7 56.41 1.23
1 4 7 54.41 1.28
1 4 7 53.09 1.17
1 -4 -7 56.17 1.34
-1 4 -7 55.11 1.29
1 4 -8 3.64 0.31
1 4 8 3.96 0.28
-1 4 -8 3.91 0.28
1 4 8 3.79 0.25
-1 4 9 0.34 0.15
1 -4 9 0.14 0.12
-1 4 9 0.17 0.13
1 4 -9 0.23 0.16
1 4 9 0.03 0.11
1 4 9 0.2 0.14
-1 4 10 3.05 0.3
1 4 -10 3.69 0.36
-1 4 10 3.36 0.33
1 4 10 3.53 0.31
1 4 10 2.99 0.31
-1 4 11 0.35 0.18
-1 4 11 0.44 0.2
1 4 11 0.33 0.18
1 4 11 0.21 0.16
2 4 0 93.65 1.82
2 -4 0 89.01 1.85
2 4 0 88.54 1.8
-2 4 0 94.57 1.76
-2 4 0 94.47 1.62
2 -4 1 509.7 10.92
2 4 -1 533.28 10.74
2 4 -1 550.42 10.79
2 -4 -1 578.72 10.42
2 -4 -1 539.78 11.1
-2 -4 1 586.2 10.66
2 4 1 534.66 10.55
2 -4 -1 587.09 10.77
2 -4 2 5.31 0.18
2 4 -2 5.46 0.15
2 4 -2 5.44 0.19
2 -4 -2 5.45 0.21
-2 -4 2 5.48 0.17
-2 4 -2 5.82 0.15
2 4 2 5.32 0.18
2 4 -3 2.06 0.13
2 -4 3 1.85 0.11
2 -4 -3 1.98 0.14
-2 -4 3 1.89 0.1
-2 4 -3 1.92 0.1
2 -4 -3 2.14 0.14
2 4 3 2.12 0.12
2 -4 4 1.51 0.12
2 4 -4 1.85 0.16
-2 -4 4 1.65 0.11
-2 4 -4 1.63 0.12
2 -4 -4 1.72 0.16
2 -4 -4 1.48 0.16
2 4 4 1.61 0.13
2 -4 5 6.79 0.26
2 4 -5 6.25 0.29
2 -4 -5 5.89 0.29
2 4 5 6.73 0.24
2 4 5 6.51 0.26
-2 -4 5 6.6 0.24
-2 4 -5 6.83 0.25
2 4 -6 44.15 1.09
2 -4 6 43.52 1.05
2 -4 -6 42.65 1.09
2 4 6 45.65 0.95
-2 4 -6 43.92 1.02
-2 -4 6 43.84 0.98
2 4 6 45.04 1.04
2 -4 7 0.47 0.12
2 4 -7 0.49 0.14
-2 -4 7 0.29 0.09
2 4 7 0.27 0.11
2 -4 -7 0.47 0.14
2 4 7 0.44 0.11
-2 4 -7 0.14 0.1
2 -4 8 2.53 0.24
2 4 -8 2.42 0.27
2 4 8 2.32 0.23
2 4 8 2.04 0.2
2 -4 -8 2.14 0.26
2 4 -9 10.69 0.51
2 -4 9 10.95 0.51
2 4 9 10.15 0.42
2 4 9 11.22 0.47
-2 4 10 33.16 0.93
-2 4 10 32.22 1
2 4 -10 32.79 1.03
2 4 10 33.83 0.97
2 4 -11 0.37 0.19
-2 4 11 0.5 0.21
-2 4 11 0.22 0.17
3 -4 0 -0.04 0.02
3 4 0 0.11 0.04
3 -4 0 0.01 0.04
3 4 0 0.03 0.03
3 4 -1 27.25 0.61
3 -4 1 27.43 0.62
3 4 -1 28.43 0.59
3 4 1 27.24 0.62
-3 -4 1 27.97 0.59
3 -4 -1 28.45 0.64
3 -4 -1 27.25 0.6
3 4 1 26.18 0.6
3 -4 2 1.14 0.05
3 4 -2 1.27 0.08
3 -4 2 1.24 0.1
3 4 -2 1.49 0.11
3 -4 2 1.2 0.04
-3 -4 2 1.56 0.09
3 -4 -2 1.2 0.11
3 4 2 1.24 0.09
3 4 -3 70.53 1.46
3 -4 3 69.59 1.45
3 4 -3 67.78 1.41
3 -4 -3 68.81 1.46
3 4 3 67.84 1.4
-3 -4 3 67.5 1.37
-3 4 -3 69.15 1.35
3 -4 -3 67.37 1.5
3 -4 4 64.63 1.43
-3 4 4 66.18 1.28
3 4 -4 67.39 1.45
3 -4 -4 66.74 1.49
-3 4 -4 65.37 1.35
-3 -4 4 66.14 1.35
3 4 4 66.59 1.39
3 -4 -4 68.05 1.46
3 -4 5 9.67 0.34
3 4 -5 9.53 0.37
3 4 5 9.19 0.32
3 -4 -5 9.42 0.38
3 -4 -5 9.54 0.37
-3 -4 5 9.2 0.29
-3 4 -5 9.64 0.3
3 4 -6 17.64 0.58
3 -4 6 17.83 0.53
-3 -4 6 18.2 0.47
3 4 6 17.73 0.51
-3 4 -6 16.83 0.49
3 -4 -6 16.49 0.56
3 -4 7 7.34 0.33
3 4 -7 6.48 0.36
3 4 7 6.57 0.31
3 -4 -7 6.78 0.37
3 -4 8 5.54 0.32
3 4 -8 5.97 0.37
3 4 8 5.68 0.31
3 -4 -8 5.37 0.36
3 -4 9 -0.05 0.12
3 4 -9 0.16 0.15
3 -4 -9 -0.07 0.14
3 4 9 0.38 0.15
3 4 -10 5.06 0.43
3 4 -11 0.74 0.24
4 -4 0 0.09 0.03
4 -4 0 0.1 0.05
4 4 0 0.14 0.04
4 4 0 0.08 0.04
4 4 -1 147.26 2.89
4 4 -1 146.41 2.86
4 -4 1 143.01 2.93
4 -4 -1 146.47 2.94
4 -4 -1 147.79 2.84
4 4 1 143.18 2.92
4 4 1 145.46 2.84
4 -4 2 16.14 0.44
4 4 -2 17.18 0.45
4 4 -2 16.52 0.4
4 4 2 15.83 0.42
4 -4 -2 16.83 0.46
4 -4 -2 16.33 0.44
4 4 2 16.93 0.45
-4 -4 2 16.29 0.39
4 4 -3 0.65 0.08
4 4 -3 0.5 0.1
4 -4 3 0.56 0.05
4 -4 3 0.67 0.1
4 -4 -3 0.4 0.08
-4 -4 3 0.95 0.09
4 4 3 0.37 0.07
4 -4 -3 0.41 0.09
4 -4 4 9.1 0.32
4 -4 4 8.95 0.25
4 4 -4 8.91 0.29
4 -4 4 8.98 0.22
4 4 4 8.98 0.29
-4 -4 4 9.41 0.27
4 -4 -4 9.3 0.36
4 -4 -4 9.58 0.35
4 -4 5 4.71 0.24
4 4 -5 4.43 0.26
4 -4 5 4.98 0.17
4 -4 5 4.9 0.19
4 -4 -5 4.8 0.27
4 -4 -5 4.97 0.28
-4 -4 5 4.81 0.19
4 4 5 4.49 0.22
4 -4 6 4.07 0.24
4 4 -6 3.76 0.27
4 4 6 3.88 0.22
4 -4 -6 3.78 0.27
4 -4 7 21.58 0.66
4 4 -7 21.82 0.72
4 4 7 21.24 0.62
4 -4 -7 22.44 0.72
4 4 -8 7.29 0.42
4 -4 8 8.23 0.39
4 4 8 7.34 0.35
4 -4 -8 8.05 0.44
4 4 -9 111.58 2.59
4 -4 9 114.06 2.54
4 -4 -9 114.8 2.61
4 4 -10 1.55 0.28
4 -4 -10 0.95 0.25
4 4 10 1.37 0.26
5 4 0 0.08 0.05
5 -4 0 0.03 0.05
5 4 0 0.12 0.05
5 -4 0 -0.03 0.03
5 4 -1 18.37 0.45
5 -4 1 17.93 0.48
5 -4 1 18.28 0.38
5 -4 -1 18.34 0.49
5 -4 -1 17.88 0.45
5 4 1 17.97 0.45
5 4 1 18.51 0.48
5 -4 2 71.25 1.5
5 4 -2 69.78 1.47
5 4 -2 69.98 1.46
5 -4 -2 70.26 1.52
5 4 2 69.15 1.43
5 -4 -2 68.98 1.46
5 4 2 67.62 1.49
5 -4 3 4 0.21
5 4 -3 3.85 0.21
5 4 -3 4.2 0.18
5 -4 3 4.42 0.12
5 -4 -3 3.79 0.22
5 -4 -3 4.18 0.22
-5 -4 3 4.04 0.16
5 4 3 4.12 0.18
5 4 3 4 0.21
5 -4 4 39.2 0.95
5 4 -4 38.66 0.96
5 4 -4 38.45 0.9
5 -4 4 39.29 0.81
5 -4 -4 40.26 1
-5 -4 4 39.3 0.84
5 4 4 40.14 0.89
5 -4 -4 38.72 0.96
5 4 4 38.87 0.96
5 4 -5 0.21 0.1
5 -4 5 0.13 0.08
5 4 -5 0.09 0.06
5 -4 -5 0.15 0.1
5 4 5 0.09 0.09
-5 -4 5 0.15 0.06
5 -4 -5 0.02 0.08
5 4 5 0.04 0.06
5 4 -6 22.81 0.71
5 -4 6 22.88 0.67
5 4 6 22.2 0.69
5 4 6 21.98 0.6
5 -4 -6 22.3 0.7
5 -4 -6 22.11 0.7
5 -4 7 6.98 0.36
5 4 -7 7.59 0.4
5 4 7 7.14 0.32
5 -4 -7 7.45 0.4
5 4 7 7.4 0.39
5 4 -8 18.36 0.7
5 -4 8 19.07 0.65
5 4 8 17.9 0.67
5 -4 -8 19.08 0.7
5 -4 9 7.23 0.41
5 4 -9 7.81 0.47
5 4 9 8.16 0.47
5 -4 -9 7.74 0.47
5 4 -10 0.31 0.19
5 -4 10 0.66 0.22
5 -4 -10 0.29 0.19
5 4 10 0.39 0.19
6 -4 0 22.48 0.59
6 4 0 22.71 0.55
6 4 0 22.89 0.57
6 -4 0 22.14 0.51
6 4 -1 290.91 5.62
6 4 -1 291.05 5.74
6 -4 1 293 5.78
6 -4 1 290.57 5.51
6 -4 -1 287.28 5.59
6 -4 -1 289.08 5.79
6 4 1 292.2 5.76
6 4 1 287.49 5.58
6 4 -2 5.08 0.23
6 -4 2 5.15 0.23
6 4 -2 4.93 0.2
6 4 2 5.07 0.2
6 4 2 4.89 0.23
6 -4 -2 4.92 0.24
6 -4 -2 5.25 0.22
6 4 -3 0.29 0.08
6 -4 3 0.17 0.08
6 4 -3 0.25 0.09
6 4 3 0.2 0.08
6 -4 -3 0.15 0.08
6 -4 -3 0.23 0.09
6 4 3 0.2 0.07
6 -4 4 3.39 0.22
6 4 -4 4.03 0.2
6 4 -4 3.49 0.23
6 -4 -4 3.88 0.25
6 4 4 4.38 0.21
6 4 4 4 0.24
-6 -4 4 3.93 0.17
6 -4 5 22.43 0.66
6 4 -5 22.4 0.61
6 4 -5 22.03 0.68
6 -4 -5 22.7 0.7
6 -4 -5 21.76 0.68
6 4 5 22.62 0.59
6 -4 6 14.05 0.51
6 4 -6 13.66 0.54
6 -4 -6 14.76 0.55
6 -4 -6 13.93 0.54
6 4 6 14.41 0.53
6 4 6 14.03 0.45
6 4 -7 15.97 0.63
6 -4 7 16.4 0.59
6 -4 -7 16.9 0.64
6 -4 -7 17.18 0.64
6 4 7 16.82 0.62
6 4 -8 7.71 0.45
6 -4 8 6.87 0.39
6 -4 -8 8.07 0.45
6 4 8 7.86 0.43
6 4 -9 42.37 1.25
6 -4 9 42.78 1.19
6 4 9 42.37 1.22
6 -4 -9 41.9 1.25
6 -4 10 0.16 0.18
6 4 -10 0.25 0.2
6 -4 -10 0.14 0.19
6 4 10 -0.08 0.17
7 -4 0 -0.04 0.04
7 -4 0 0.1 0.07
7 4 0 0.1 0.06
7 4 0 0.16 0.07
7 4 -1 9.02 0.31
7 -4 1 8.54 0.23
7 4 -1 8.84 0.3
7 -4 1 8.95 0.33
7 4 1 8.89 0.32
7 -4 -1 8.63 0.29
7 -4 -1 8.74 0.34
7 4 1 9.24 0.29
7 4 -2 39.11 0.93
7 -4 2 38.58 0.95
7 4 -2 37.88 0.91
7 -4 -2 38.49 0.96
7 4 2 38.55 0.86
7 4 2 39.07 0.94
7 -4 -2 39.2 0.91
7 4 -3 16.19 0.48
7 -4 3 16.73 0.51
7 4 -3 16.76 0.52
7 4 3 15.68 0.51
7 4 3 16.19 0.44
7 -4 -3 15.54 0.49
7 -4 -3 16.25 0.53
7 -4 4 39.92 0.98
7 4 -4 39.67 0.99
7 4 -4 37.96 0.94
7 -4 -4 36.79 1
7 4 4 38.36 0.98
7 4 4 38.07 0.89
7 -4 -4 39.18 0.98
7 -4 5 86.76 1.93
7 4 -5 85.8 1.94
7 4 5 85.12 1.94
7 -4 -5 86.6 1.93
7 -4 -5 83.89 1.98
7 4 5 86.52 1.81
7 -4 6 30.45 0.86
7 4 -6 30.16 0.9
7 -4 -6 30.3 0.89
7 -4 -6 29.81 0.9
7 4 6 29.94 0.87
7 -4 7 0.9 0.19
7 4 -7 1.11 0.21
7 4 7 0.95 0.2
7 -4 -7 1.09 0.21
7 -4 -7 0.91 0.19
7 -4 8 0.42 0.16
7 4 -8 0.09 0.16
7 4 8 0.47 0.18
7 -4 -8 0.28 0.17
7 -4 9 0.23 0.17
7 4 -9 0.38 0.2
7 4 9 0.18 0.19
7 -4 -9 0.23 0.18
7 -4 10 4.81 0.42
8 4 0 34.85 0.83
8 -4 0 35.82 0.9
8 -4 0 35.08 0.79
8 4 0 35.42 0.87
8 4 -1 85.17 1.82
8 4 -1 86.77 1.86
8 -4 1 87.74 1.9
8 -4 1 86.4 1.71
8 4 1 86.55 1.87
8 4 1 86.71 1.78
8 -4 -1 84.71 1.89
8 -4 -1 86.04 1.79
8 4 -2 40.89 0.98
8 -4 2 40.94 1.02
8 4 -2 40.55 0.99
8 4 2 40.34 1
8 -4 -2 40.7 1.03
8 4 2 42.18 0.92
8 -4 -2 40.86 0.97
8 4 -3 5.05 0.25
8 4 -3 5.19 0.28
8 -4 3 5.42 0.28
8 -4 -3 5.27 0.27
8 -4 -3 5.46 0.29
8 4 3 5 0.28
8 4 3 5.5 0.23
8 4 -4 2.4 0.23
8 4 -4 2.49 0.2
8 -4 4 2.69 0.24
8 4 4 2.78 0.18
8 4 4 2.72 0.25
8 -4 -4 2.75 0.26
8 -4 -4 2.28 0.23
8 4 -5 7.89 0.39
8 -4 5 6.91 0.36
8 4 5 7.16 0.37
8 -4 -5 7.38 0.38
8 -4 -5 7.12 0.38
8 4 -6 4.07 0.35
8 -4 6 4.04 0.3
8 4 6 4.25 0.31
8 -4 -6 3.44 0.33
8 -4 -6 4.31 0.32
8 -4 7 21.11 0.72
8 4 -7 22.03 0.78
8 -4 -7 22.63 0.77
8 -4 -7 19.52 0.74
8 4 7 20.95 0.73
8 -4 8 7.33 0.43
8 4 -8 7.15 0.47
8 -4 -8 7.05 0.45
8 4 8 7.53 0.45
8 -4 9 24.87 0.85
8 4 -9 24.42 0.91
8 4 9 24.83 0.87
8 -4 -9 22.32 0.87
8 -4 10 4.9 0.46
9 4 0 0.01 0.07
9 -4 0 0.17 0.1
9 -4 0 0.05 0.06
9 4 0 0.1 0.07
9 -4 1 0.76 0.14
9 4 -1 0.73 0.12
9 4 -1 0.57 0.11
9 -4 -1 0.62 0.13
9 4 1 0.7 0.11
9 -4 -1 0.66 0.11
9 4 1 0.74 0.13
9 4 -2 5.37 0.29
9 4 -2 5.43 0.27
9 -4 2 6.1 0.3
9 4 2 5.56 0.23
9 -4 -2 4.57 0.25
9 -4 -2 5.21 0.29
9 4 2 5.72 0.29
9 -4 3 35.62 0.97
9 4 -3 34.29 0.93
9 4 -3 37.52 0.96
9 -4 -3 37.54 0.99
9 4 3 38.44 0.98
9 4 3 36.87 0.86
9 -4 -3 36.82 0.94
9 -4 4 6.42 0.34
9 4 -4 5.74 0.34
9 4 4 5.75 0.33
9 -4 -4 5.38 0.33
9 -4 -4 6.32 0.33
9 4 -5 71.12 1.7
9 -4 5 69.8 1.68
9 4 5 71.19 1.7
9 -4 -5 69.57 1.74
9 -4 -5 71.77 1.68
9 4 -6 2.26 0.28
9 -4 6 2.42 0.28
9 -4 -6 3.2 0.32
9 -4 -6 2.32 0.27
9 4 6 2.12 0.26
9 4 -7 9.27 0.51
9 -4 7 9.66 0.48
9 4 7 9.45 0.49
9 -4 -7 9.9 0.51
9 -4 -7 9.23 0.49
9 -4 8 3.13 0.33
9 4 -8 3.77 0.4
9 4 8 3.48 0.35
9 -4 -8 3.4 0.37
9 -4 9 5.04 0.43
9 4 9 4.82 0.43
9 -4 -9 5.15 0.51
10 4 0 38.56 0.99
10 4 0 38.58 0.93
10 -4 0 39.09 1.02
10 4 -1 63.22 1.41
10 -4 1 62.57 1.49
10 4 -1 62.04 1.45
10 -4 -1 60.36 1.48
10 4 1 63.26 1.46
10 4 1 61.63 1.36
10 -4 -1 61.81 1.37
10 4 -2 8.85 0.37
10 -4 2 9.44 0.41
10 4 -2 9.67 0.4
10 4 2 8.88 0.39
10 -4 -2 9.22 0.37
10 4 2 9.93 0.34
10 -4 -2 9.23 0.41
10 -4 3 1.04 0.19
10 4 -3 1.24 0.19
10 4 -3 1.44 0.18
10 4 3 1.14 0.19
10 -4 -3 1.37 0.18
10 -4 -3 1.49 0.21
10 4 -4 4.41 0.31
10 -4 4 3.93 0.29
10 -4 -4 4.1 0.31
10 4 4 4.18 0.31
10 -4 -4 3.27 0.29
10 -4 5 0.75 0.18
10 4 -5 0.91 0.2
10 -4 -5 1.2 0.22
10 -4 -5 1.31 0.22
10 4 5 0.58 0.17
10 4 -6 8.46 0.47
10 -4 6 8.47 0.45
10 -4 -6 7.67 0.45
10 -4 -6 8.24 0.47
10 4 6 8.72 0.46
10 4 -7 1.51 0.26
10 -4 7 1.33 0.24
10 4 7 1.44 0.26
10 -4 -7 1.06 0.23
10 4 -8 17.81 0.78
10 -4 8 19.97 0.76
10 4 8 20.31 0.78
10 -4 -8 20.15 0.8
11 -4 0 0.08 0.11
11 4 0 0.09 0.1
11 4 0 0.08 0.08
11 -4 1 1.45 0.2
11 4 -1 1.52 0.19
11 4 -1 1.41 0.18
11 4 1 1.44 0.19
11 -4 -1 1.67 0.21
11 4 1 1.63 0.17
11 4 -2 3.27 0.25
11 -4 2 2.89 0.27
11 4 -2 3.55 0.26
11 -4 -2 3.12 0.25
11 -4 -2 3.61 0.28
11 4 2 3.87 0.29
11 -4 3 18.03 0.65
11 4 -3 19.07 0.63
11 4 -3 17.88 0.62
11 -4 -3 19.15 0.66
11 4 3 17.96 0.63
11 -4 -3 18.29 0.61
11 4 -4 0.88 0.19
11 -4 4 0.76 0.18
11 4 4 1.01 0.19
11 -4 -4 0.95 0.19
11 -4 -4 0.66 0.17
11 -4 5 60.16 1.55
11 4 -5 61.99 1.57
11 4 5 63.53 1.58
11 -4 -5 61.01 1.54
11 -4 -5 60.45 1.6
11 4 -6 -0.03 0.15
11 -4 6 0.05 0.15
11 -4 -6 0.02 0.14
11 -4 -6 0.1 0.15
11 4 6 0.07 0.15
11 4 -7 17.77 0.75
11 -4 7 16.8 0.69
11 -4 -7 17.36 0.72
11 4 7 16.87 0.71
11 -4 8 0.47 0.2
11 -4 -8 0.66 0.23
12 4 0 17.64 0.57
12 4 0 17.75 0.62
12 -4 0 18.33 0.65
12 4 -1 22.33 0.71
12 4 -1 22.79 0.68
12 -4 1 23.29 0.75
12 4 1 22.25 0.72
12 -4 -1 23.29 0.76
12 -4 2 16.98 0.63
12 4 -2 16.36 0.59
12 4 -2 16.15 0.58
12 -4 -2 16.55 0.62
12 4 2 17.69 0.62
12 -4 3 4.44 0.34
12 4 -3 4.51 0.32
12 4 3 5.08 0.34
12 -4 -3 4.47 0.33
12 -4 -3 4.62 0.31
12 4 -4 0.13 0.14
12 -4 4 0.26 0.16
12 -4 -4 0.39 0.15
12 -4 -4 0.5 0.17
12 4 4 0.36 0.17
12 4 -5 1.88 0.27
12 -4 5 1.84 0.27
12 4 5 1.89 0.28
12 -4 -5 2.45 0.31
12 -4 -5 1.96 0.26
12 -4 6 1.12 0.24
12 4 -6 0.62 0.21
12 4 6 0.53 0.21
12 -4 -6 0.96 0.23
12 4 -7 0.91 0.25
12 -4 7 0.49 0.21
12 -4 -7 0.81 0.23
12 4 7 0.68 0.22
13 4 0 0.2 0.14
13 -4 0 0.06 0.14
13 4 -1 12.45 0.52
13 -4 1 11.97 0.55
13 4 1 12.94 0.53
13 -4 -1 13.91 0.58
13 -4 2 5.32 0.37
13 4 -2 5.38 0.35
13 4 -2 6.15 0.36
13 4 2 5.16 0.36
13 -4 -2 6.25 0.38
13 -4 3 10.4 0.52
13 4 -3 10.97 0.5
13 -4 -3 10.53 0.52
13 4 3 9.86 0.5
13 -4 4 12.22 0.57
13 4 -4 12.48 0.56
13 4 4 11.25 0.56
13 -4 -4 12.73 0.6
13 -4 -4 13.11 0.55
13 -4 5 27.25 0.91
13 4 -5 25.85 0.9
13 4 5 26.08 0.9
13 -4 -5 27.14 0.88
13 -4 -5 25.77 0.93
13 -4 6 16.77 0.71
13 4 -6 17.65 0.75
13 4 6 16.74 0.72
13 -4 -6 17.53 0.72
13 -4 -7 6.57 0.49
14 4 0 11.09 0.52
14 -4 0 11.09 0.54
14 4 -1 44.36 1.22
14 -4 1 41.82 1.23
14 -4 -1 44.66 1.25
14 4 1 44.44 1.23
14 -4 2 11.74 0.56
14 4 2 11.75 0.55
14 -4 -2 12.18 0.57
14 -4 3 25.31 0.87
14 4 -3 23.41 0.81
14 -4 -3 26.2 0.9
14 4 3 25.79 0.87
14 4 -4 3.69 0.36
14 -4 4 3.7 0.37
14 4 4 4.42 0.41
14 -4 -4 3.61 0.39
14 4 -5 1.7 0.28
14 -4 5 1.54 0.28
14 4 5 1.69 0.29
14 4 -6 1.93 0.32
14 -4 -6 1.82 0.3
15 4 0 0.12 0.15
15 -4 0 0.28 0.18
15 -4 1 1 0.24
15 4 1 0.77 0.22
15 -4 -1 0.75 0.22
15 -4 2 2.69 0.33
15 4 2 2.6 0.31
15 -4 -2 3.65 0.38
15 -4 3 0.89 0.24
15 -4 -3 0.78 0.22
15 4 3 0.76 0.22
15 -4 4 13.19 0.64
15 4 -4 13.06 0.62
15 -4 -4 13.38 0.66
15 4 4 13.83 0.65
15 4 -5 1.84 0.31
16 -4 0 1.89 0.31
16 4 0 2.33 0.32
16 -4 1 24.71 0.91
16 -4 -1 25.83 0.93
16 4 1 24.38 0.89
16 -4 2 2.91 0.36
16 -4 -2 3.71 0.4
16 4 2 2.92 0.35
16 -4 -3 3.2 0.39
16 4 3 2.45 0.34
17 4 1 0.07 0.17
0 -5 0 -0.05 0.03
0 -5 0 -0.08 0.03
0 5 0 -0.12 0.03
0 -5 1 -0.18 0.03
0 -5 1 -0.16 0.02
0 5 -1 -0.24 0.03
0 5 1 -0.11 0.04
0 -5 -1 -0.16 0.04
0 -5 2 871.6 18.29
0 -5 2 942.7 17.98
0 5 -2 1000 18.06
0 5 3 -0.06 0.05
0 -5 3 -0.05 0.04
0 5 -3 -0.07 0.04
0 5 3 -0.04 0.05
0 5 4 667.27 11.86
0 -5 4 716.7 12.85
0 5 4 651.25 12.83
0 5 -4 662.44 12.83
0 5 5 -0.07 0.07
0 5 5 0.07 0.07
0 5 -5 -0.02 0.06
0 -5 5 -0.01 0.06
0 5 -6 106.87 2.26
0 5 6 109.28 2.08
0 -5 6 105.59 2.2
0 5 6 108.04 2.26
0 5 7 -0.02 0.09
0 5 7 0.05 0.09
0 5 -7 0.03 0.09
0 -5 7 0.06 0.08
0 -5 8 3.06 0.23
0 5 8 3.18 0.26
0 5 8 3.13 0.28
0 5 -8 3.01 0.28
0 5 9 -0.06 0.12
0 5 -9 -0.1 0.11
0 5 9 -0.05 0.12
0 5 10 2.51 0.28
0 5 10 2.27 0.28
0 5 11 -0.11 0.15
0 5 11 0.15 0.17
-1 5 0 110.43 2.14
1 5 0 110.21 2.17
-1 -5 0 109.82 2.15
1 -5 0 110.78 2.21
1 -5 0 114.75 2.13
1 -5 1 130.03 2.45
1 5 -1 126.45 2.47
1 -5 1 125.51 2.51
-1 5 1 130.13 2.27
-1 5 1 126.38 2.47
-1 -5 1 128.26 2.45
1 -5 -1 126.62 2.56
1 5 1 119.84 2.47
1 -5 -1 128.63 2.42
-1 5 -1 132.61 2.44
-1 5 2 1.44 0.1
-1 5 2 1.56 0.09
1 -5 2 1.59 0.08
1 5 2 1.46 0.1
-1 -5 2 1.5 0.09
-1 5 -2 1.5 0.08
1 5 -3 93.43 1.88
1 -5 3 93.84 1.89
1 -5 -3 90.81 1.9
1 5 3 93.75 1.87
-1 -5 3 90.85 1.84
1 5 3 94.13 1.72
-1 5 -3 95.38 1.85
1 -5 -3 93.13 1.97
1 5 -4 23.91 0.61
1 -5 4 23.58 0.57
1 5 4 24.15 0.59
-1 5 -4 24.01 0.58
-1 -5 4 23.49 0.57
1 5 4 24.02 0.55
1 -5 -4 23.7 0.62
1 5 -5 11.57 0.39
1 5 5 11.48 0.38
-1 5 -5 11.82 0.38
-1 -5 5 11.62 0.35
1 5 5 12.43 0.35
1 5 -6 2.38 0.22
1 5 6 2.73 0.19
1 -5 -6 2.43 0.23
-1 5 -6 2.5 0.19
1 5 6 2.74 0.2
-1 -5 6 2.62 0.17
1 5 -7 9.09 0.39
1 5 7 8.36 0.33
1 5 7 7.75 0.35
-1 5 -7 8.08 0.35
-1 -5 7 7.84 0.32
-1 5 8 7.83 0.36
-1 5 8 8.22 0.4
1 -5 8 8.34 0.37
1 -5 8 8.72 0.37
1 5 -8 8.17 0.41
-1 5 -8 8.57 0.39
-1 -5 8 8.54 0.35
1 5 8 9.17 0.37
1 5 8 9.17 0.4
1 5 -9 4.57 0.33
1 -5 9 3.71 0.28
-1 5 9 4.22 0.29
-1 5 9 3.57 0.33
1 5 9 3.83 0.32
1 5 9 3.88 0.3
-1 5 10 6.53 0.42
1 5 -10 6.49 0.42
-1 5 10 6.75 0.39
1 5 10 6.03 0.4
1 5 10 6.22 0.37
-1 5 11 6.86 0.42
-1 5 11 6.27 0.44
1 5 11 6.71 0.45
-2 5 0 -0.01 0.03
2 -5 0 0.05 0.04
2 5 0 -0.04 0.03
2 -5 0 -0.02 0.03
2 5 -1 0.58 0.06
2 -5 1 0.81 0.07
2 5 -1 0.87 0.04
2 -5 -1 0.71 0.08
-2 5 -1 0.82 0.04
2 -5 -1 0.9 0.05
-2 -5 1 1.07 0.07
2 5 -2 12.45 0.28
2 -5 2 12.86 0.32
-2 5 -2 12.52 0.28
2 -5 -2 12.9 0.37
-2 -5 2 12.19 0.32
2 5 2 12.56 0.33
2 5 -3 22.4 0.56
2 -5 3 22.07 0.53
2 5 3 21.76 0.53
2 -5 -3 21.88 0.56
2 -5 -3 21.5 0.58
-2 5 -3 22.06 0.49
-2 -5 3 22.39 0.51
2 -5 4 194.75 3.79
2 5 -4 193.55 3.76
-2 -5 4 189.93 3.66
2 -5 -4 190.23 3.77
2 5 4 186.7 3.71
-2 5 -4 186.18 3.68
2 -5 -4 184.63 3.87
2 -5 5 3.92 0.19
2 5 -5 3.39 0.22
2 5 5 3.33 0.17
2 5 5 3.48 0.19
-2 -5 5 3.48 0.17
2 -5 -5 3.18 0.22
-2 5 -5 3.27 0.18
2 -5 6 121.52 2.53
2 5 -6 121.91 2.55
2 5 6 120.24 2.48
2 -5 -6 121.7 2.56
2 5 6 119.33 2.28
-2 5 -6 116.72 2.46
-2 -5 6 122.01 2.42
2 -5 7 0.65 0.13
2 5 -7 0.81 0.17
2 5 7 0.44 0.12
2 -5 -7 0.73 0.17
-2 -5 7 0.63 0.11
2 5 7 0.87 0.15
-2 5 -7 0.68 0.13
2 -5 8 6.93 0.34
2 5 -8 6.87 0.38
2 -5 -8 7.61 0.41
2 5 8 6.8 0.32
2 5 8 6.88 0.35
2 5 -9 2.2 0.28
2 -5 9 2 0.23
-2 5 9 1.89 0.25
-2 5 9 2.37 0.26
2 5 9 1.87 0.24
-2 5 10 6.43 0.39
-2 5 10 6.78 0.43
2 5 -10 6.89 0.45
2 5 10 7 0.41
2 5 -11 4.17 0.42
3 5 0 13.98 0.33
3 -5 0 13.02 0.35
3 5 0 13.48 0.34
3 5 -1 0.12 0.05
3 -5 1 -0.01 0.04
3 5 -1 0.12 0.03
3 -5 -1 0.07 0.03
3 -5 -1 0.02 0.04
3 5 1 0.2 0.05
-3 -5 1 0.12 0.04
3 -5 -1 0.03 0.04
3 -5 2 25.18 0.58
3 5 -2 23.62 0.58
3 5 -2 23.95 0.52
-3 -5 2 24.45 0.54
3 5 2 23.8 0.56
3 -5 -2 24.36 0.58
3 5 -3 0.95 0.07
3 5 -3 0.98 0.12
3 -5 3 1.25 0.11
3 5 3 1.3 0.11
-3 5 -3 1.09 0.07
3 -5 -3 1 0.12
-3 -5 3 1.11 0.09
3 -5 -3 1.01 0.12
3 5 -4 1.88 0.17
3 -5 4 1.99 0.14
-3 5 -4 1.87 0.11
3 -5 -4 1.85 0.17
3 5 4 1.8 0.13
3 -5 -4 2.25 0.19
-3 -5 4 2.1 0.12
3 5 -5 3.9 0.24
3 -5 5 3.89 0.21
-3 5 -5 3.58 0.18
3 -5 -5 3.85 0.24
-3 -5 5 4.25 0.19
3 -5 -5 4.36 0.25
3 5 5 4.02 0.21
3 5 -6 0.22 0.11
3 -5 6 0.39 0.1
-3 -5 6 0.3 0.08
3 -5 -6 0.24 0.12
3 5 6 0.26 0.09
-3 5 -6 0.41 0.09
3 5 -7 7.27 0.38
3 -5 7 7.22 0.33
3 -5 -7 6.69 0.37
3 5 7 7.24 0.33
3 5 -8 24.5 0.79
3 -5 8 24.38 0.72
3 5 8 23.57 0.71
3 -5 -8 23.9 0.79
3 5 -9 3.75 0.36
3 -5 -9 4.25 0.39
3 5 9 3.89 0.3
3 -5 10 38.94 1.08
-3 5 10 38.25 1.04
3 5 -10 38.65 1.16
-3 5 10 38.7 1.14
3 5 -11 0.06 0.17
4 -5 0 0.03 0.05
4 -5 0 0 0.03
4 5 0 -0.03 0.03
4 5 0 0 0.04
4 5 -1 106.05 2.14
4 5 -1 108 2.14
4 -5 1 110.86 2.19
4 5 1 107 2.18
4 5 1 105.11 2.13
4 -5 -1 105.02 2.2
4 -5 -1 106.62 2.11
4 -5 2 5.53 0.21
4 5 -2 4.99 0.17
4 5 -2 5.47 0.22
-4 -5 2 5.12 0.18
4 -5 -2 5.19 0.23
4 -5 -2 4.97 0.2
4 5 2 4.96 0.21
4 5 2 5.45 0.21
4 -5 3 0.71 0.1
4 -5 3 0.58 0.05
4 5 -3 0.5 0.09
4 5 -3 0.65 0.07
4 5 3 0.73 0.09
4 -5 -3 0.64 0.11
-4 -5 3 0.62 0.08
4 -5 -3 0.32 0.08
4 -5 4 6.11 0.19
4 5 -4 6.83 0.29
4 -5 4 6.76 0.27
4 -5 4 6.38 0.17
4 5 -4 6.6 0.23
-4 -5 4 6.6 0.23
4 -5 -4 6 0.28
4 5 4 6.47 0.25
4 -5 -4 6.16 0.3
4 5 -5 24.9 0.71
4 -5 5 25.62 0.59
4 -5 5 24.72 0.68
4 -5 5 25.71 0.54
-4 -5 5 25.91 0.61
4 5 5 25.77 0.65
4 -5 -5 25.85 0.72
4 -5 -5 25.82 0.74
4 5 -6 2.21 0.23
4 -5 6 2.86 0.21
4 5 6 3.23 0.2
4 -5 -6 2.84 0.26
-4 -5 6 2.68 0.17
4 -5 7 4.56 0.28
4 5 -7 4.06 0.3
4 -5 -7 4.55 0.32
4 5 7 4.47 0.26
4 -5 8 1.13 0.18
4 5 -8 0.73 0.19
4 -5 -8 1.11 0.21
4 5 8 0.82 0.16
4 -5 9 20.39 0.69
4 5 -9 19.77 0.76
4 -5 -9 20.91 0.78
4 5 -10 3.44 0.38
5 5 0 361.63 7.16
5 -5 0 369.77 6.94
5 5 0 369.1 7
5 -5 0 360.79 7.2
5 -5 1 18.44 0.49
5 5 -1 18.26 0.45
5 -5 1 18.58 0.38
5 -5 -1 17.84 0.45
5 5 1 18.53 0.48
5 5 1 18.27 0.46
5 -5 -1 18.28 0.5
5 -5 2 289.47 5.59
5 5 -2 279.36 5.45
5 5 -2 284.83 5.53
5 5 2 282.24 5.58
5 -5 -2 279.77 5.44
5 5 2 274.21 5.42
5 -5 -2 276.56 5.61
5 -5 3 15.83 0.47
5 5 -3 15.79 0.42
5 5 -3 15.69 0.47
5 -5 -3 16.45 0.47
5 5 3 16.73 0.48
-5 -5 3 15.7 0.4
5 5 3 15.7 0.44
5 -5 -3 15.47 0.49
5 5 -4 8.96 0.29
5 5 -4 8.92 0.35
5 -5 4 8.24 0.32
5 -5 4 8.27 0.22
-5 -5 4 8.55 0.27
5 5 4 8.07 0.33
5 -5 -4 8.7 0.35
5 5 4 8.42 0.29
5 -5 -4 8.02 0.35
5 5 -5 2.09 0.21
5 -5 5 1.72 0.18
5 5 -5 1.75 0.15
5 5 5 1.94 0.17
5 -5 -5 1.83 0.2
5 -5 -5 1.66 0.2
-5 -5 5 1.72 0.14
5 -5 6 7.62 0.34
5 5 -6 6.84 0.36
5 -5 -6 7.11 0.36
5 5 6 6.64 0.29
5 -5 -6 6.49 0.36
5 5 -7 0.34 0.14
5 -5 7 0.31 0.13
5 5 7 0.12 0.09
5 -5 -7 0.12 0.12
5 5 -8 84.43 2.02
5 -5 8 84.45 1.96
5 -5 -8 85.18 2.02
5 5 -9 0.29 0.18
5 -5 9 -0.07 0.14
5 -5 -9 0.38 0.2
5 5 9 0.15 0.17
5 5 -10 34.74 1.13
5 -5 -10 34.43 1.12
5 5 10 35.7 1.11
6 -5 0 0.08 0.07
6 5 0 0.04 0.05
6 5 0 0.02 0.05
6 -5 0 0.04 0.04
6 5 -1 46.83 1.04
6 5 -1 45.68 1.03
6 -5 1 46.04 1.07
6 -5 1 47.62 0.93
6 -5 -1 46.95 1.08
6 5 1 47.27 1.02
6 -5 -1 47.91 1.01
6 5 1 45.68 1.05
6 -5 2 20.4 0.57
6 5 -2 20.74 0.56
6 5 -2 20.88 0.52
6 5 2 20.38 0.52
6 5 2 21.03 0.57
6 -5 -2 20.53 0.54
6 5 -3 2.97 0.2
6 5 -3 2.98 0.16
6 -5 3 2.87 0.19
6 5 3 3.11 0.2
6 -5 -3 2.93 0.21
6 -5 -3 3.08 0.19
6 5 3 3.01 0.17
6 5 -4 1.13 0.12
6 5 -4 1.08 0.16
6 -5 4 0.97 0.14
-6 -5 4 1.35 0.12
6 5 4 1.18 0.15
6 -5 -4 1.28 0.18
6 -5 -4 0.97 0.15
6 5 4 1.02 0.12
6 -5 5 1.13 0.16
6 5 -5 0.87 0.16
6 5 5 0.93 0.15
6 -5 -5 0.92 0.16
6 5 5 1.12 0.14
6 -5 -5 0.93 0.17
6 5 -6 0.25 0.13
6 -5 6 0.37 0.13
6 5 6 0.18 0.12
6 -5 -6 0.29 0.13
6 5 6 0.45 0.11
6 -5 -6 0.16 0.12
6 5 -7 5.64 0.37
6 -5 7 6.7 0.36
6 5 7 5.55 0.36
6 -5 -7 6.08 0.38
6 -5 -7 6.3 0.39
6 -5 8 6.73 0.38
6 5 -8 7.24 0.44
6 -5 -8 7.99 0.46
6 5 8 7.15 0.42
6 5 -9 1.17 0.26
6 -5 9 0.78 0.2
6 5 9 1.19 0.24
6 -5 -9 0.64 0.22
6 5 -10 0.41 0.21
6 -5 -10 0.12 0.2
6 5 10 0.01 0.19
7 -5 0 246.19 4.74
7 -5 0 246.44 4.97
7 5 0 248.06 4.8
7 5 0 244.83 4.92
7 -5 1 0.05 0.04
7 5 -1 0.18 0.07
7 5 -1 -0.08 0.05
7 -5 1 0.06 0.07
7 5 1 0.07 0.07
7 -5 -1 0 0.05
7 5 1 0.04 0.06
7 -5 -1 0.09 0.07
7 -5 2 114.17 2.46
7 5 -2 118.72 2.42
7 5 -2 114.65 2.4
7 5 2 119.13 2.35
7 5 2 115.76 2.45
7 -5 -2 115.96 2.38
7 -5 -2 117.51 2.48
7 5 -3 0.51 0.1
7 5 -3 0.49 0.12
7 -5 3 0.36 0.11
7 -5 -3 0.54 0.12
7 5 3 0.6 0.1
7 -5 -3 0.44 0.11
7 5 3 0.41 0.11
7 5 -4 0.07 0.07
7 5 -4 -0.02 0.09
7 -5 4 0.04 0.09
7 -5 -4 0.13 0.09
7 -5 -4 0.05 0.09
7 5 4 0.05 0.09
7 5 4 -0.03 0.06
7 -5 5 3.16 0.24
7 5 -5 3.1 0.28
7 -5 -5 3.39 0.26
7 -5 -5 3.72 0.29
7 5 5 3.31 0.21
7 5 5 3.32 0.26
7 5 -6 3.29 0.3
7 -5 6 2.77 0.25
7 -5 -6 2.9 0.29
7 -5 -6 3.36 0.3
7 5 6 2.46 0.25
7 5 -7 3.89 0.36
7 -5 7 4.28 0.31
7 5 7 4.31 0.33
7 -5 -7 4.32 0.33
7 -5 -7 4.53 0.35
7 -5 8 16.27 0.63
7 5 -8 17.72 0.71
7 5 8 17.01 0.67
7 -5 -8 17.62 0.69
7 5 -9 -0.11 0.16
7 -5 9 -0.05 0.14
7 -5 -9 0.27 0.19
7 5 9 -0.1 0.17
7 -5 10 29.18 0.96
8 -5 0 0.1 0.08
8 -5 0 0.03 0.05
8 5 0 0 0.06
8 5 0 0.2 0.08
8 5 -1 46.65 1.08
8 -5 1 47.23 1.13
8 5 -1 47.43 1.08
8 5 1 46.62 1.1
8 -5 -1 46.52 1.04
8 -5 -1 46.38 1.13
8 5 1 45.91 1.04
8 5 -2 25.46 0.66
8 5 -2 25.47 0.69
8 -5 2 25.38 0.71
8 5 2 24.81 0.69
8 -5 -2 24.43 0.66
8 -5 -2 25.38 0.72
8 5 2 26.1 0.64
8 5 -3 2.12 0.17
8 5 -3 2.54 0.23
8 -5 3 2.45 0.22
8 -5 -3 1.94 0.19
8 -5 -3 2.48 0.24
8 5 3 2.09 0.2
8 5 3 2.13 0.16
8 -5 4 103.91 2.27
8 5 -4 102.49 2.25
8 -5 -4 103.42 2.23
8 5 4 105.24 2.29
8 5 4 102.94 2.13
8 -5 -4 102.24 2.32
8 5 -5 4.9 0.33
8 -5 5 5.89 0.33
8 -5 -5 5.51 0.35
8 -5 -5 6.01 0.35
8 5 5 5.4 0.33
8 5 -6 45.43 1.21
8 -5 6 44.65 1.17
8 5 6 43.79 1.18
8 -5 -6 43.48 1.22
8 -5 -6 44.21 1.19
8 -5 7 2.17 0.26
8 5 -7 1.75 0.27
8 -5 -7 1.78 0.25
8 5 7 1.81 0.25
8 -5 -7 2.13 0.29
8 5 -8 8.65 0.51
8 -5 8 9.56 0.48
8 5 8 9.81 0.51
8 -5 -8 10.2 0.53
8 -5 9 6.74 0.44
8 5 -9 7.75 0.53
8 5 9 6.07 0.46
8 -5 -9 8.66 0.52
8 -5 10 8.02 0.51
9 5 0 48.19 1.11
9 -5 0 48.69 1.06
9 -5 0 49.54 1.2
9 5 0 48.91 1.16
9 5 -1 17.25 0.53
9 -5 1 18.83 0.59
9 5 -1 18.43 0.55
9 -5 -1 18.81 0.59
9 5 1 18.62 0.52
9 -5 -1 17.67 0.5
9 5 1 18.36 0.56
9 -5 2 17.01 0.56
9 5 -2 16.69 0.53
9 5 -2 16.58 0.51
9 5 2 16.36 0.47
9 -5 -2 16.61 0.56
9 5 2 16.95 0.55
9 -5 -2 16.41 0.5
9 5 -3 20.64 0.65
9 -5 3 20.47 0.66
9 5 -3 21.3 0.62
9 -5 -3 22.44 0.69
9 5 3 21.51 0.57
9 5 3 21.08 0.65
9 -5 -3 20.88 0.63
9 5 -4 5.02 0.31
9 -5 4 5.06 0.31
9 5 4 5.2 0.31
9 -5 -4 4.83 0.32
9 -5 -4 4.5 0.29
9 -5 5 17.98 0.62
9 5 -5 17.41 0.64
9 5 5 18 0.63
9 -5 -5 17.23 0.63
9 -5 -5 17.57 0.66
9 5 -6 2.52 0.29
9 -5 6 2.88 0.29
9 -5 -6 3.53 0.35
9 5 6 2.95 0.29
9 -5 -6 3.07 0.31
9 5 -7 1.15 0.24
9 -5 7 1.24 0.23
9 -5 -7 1.18 0.23
9 5 7 1.24 0.23
9 -5 -7 1.25 0.24
9 -5 8 32.72 1.01
9 5 -8 33.64 1.08
9 -5 -8 32.06 1.05
9 5 8 31.41 1.03
9 -5 9 2.12 0.3
9 5 9 2.72 0.39
10 -5 0 -0.05 0.09
10 5 0 0.04 0.09
10 5 0 0.02 0.08
10 -5 1 0.05 0.11
10 5 -1 0.11 0.09
10 5 -1 0.05 0.08
10 -5 -1 0.1 0.1
10 5 1 0.12 0.1
10 -5 -1 0.02 0.08
10 5 1 0.08 0.08
10 -5 2 10.31 0.44
10 5 -2 10.94 0.42
10 5 -2 10.26 0.4
10 -5 -2 10.42 0.39
10 5 2 10.38 0.43
10 5 2 10.32 0.36
10 -5 -2 10.25 0.44
10 5 -3 1.34 0.18
10 5 -3 1.78 0.22
10 -5 3 1.37 0.19
10 5 3 1.42 0.2
10 -5 -3 1.31 0.2
10 -5 -3 1.41 0.18
10 5 -4 70.53 1.67
10 -5 4 68.79 1.68
10 5 4 69.7 1.68
10 -5 -4 70.92 1.65
10 -5 -4 71.96 1.74
10 -5 5 3.22 0.3
10 5 -5 2.97 0.31
10 5 5 3.05 0.3
10 -5 -5 2.93 0.29
10 -5 -5 3.08 0.32
10 -5 6 36.94 1.06
10 5 -6 37.53 1.09
10 5 6 36.7 1.07
10 -5 -6 34.42 1.1
10 -5 -6 34.87 1.06
10 -5 7 0.14 0.17
10 5 -7 0.23 0.17
10 5 7 0.21 0.18
10 -5 -7 0.18 0.17
10 -5 -7 0.07 0.14
10 -5 8 22.33 0.81
10 5 -8 21.65 0.87
10 -5 -8 21.42 0.85
10 5 8 22.71 0.84
11 -5 0 6.2 0.35
11 5 0 6.39 0.3
11 5 0 6.82 0.33
11 -5 1 13.9 0.52
11 5 -1 12.92 0.47
11 5 -1 12.5 0.48
11 5 1 13.17 0.5
11 5 1 12.5 0.43
11 -5 -1 13.31 0.52
11 5 -2 7.85 0.36
11 5 -2 7.77 0.37
11 -5 2 7.47 0.39
11 -5 -2 7.02 0.38
11 5 2 7.6 0.38
11 -5 -2 7.52 0.34
11 5 -3 1.68 0.23
11 -5 3 1.64 0.21
11 -5 -3 1.23 0.21
11 5 3 1.74 0.23
11 -5 -3 1.32 0.19
11 5 -4 1.66 0.24
11 -5 4 1.7 0.23
11 -5 -4 2.26 0.28
11 -5 -4 1.92 0.24
11 5 4 1.23 0.22
11 -5 5 10.86 0.51
11 5 -5 11.65 0.53
11 -5 -5 11.61 0.55
11 5 5 10.3 0.5
11 -5 -5 11.1 0.51
11 -5 6 7.61 0.44
11 5 -6 6.89 0.46
11 -5 -6 7.76 0.46
11 5 6 7.69 0.45
11 -5 -6 6.7 0.45
11 5 -7 11.49 0.59
11 -5 7 10.27 0.54
11 -5 -7 11.69 0.58
11 5 7 11.43 0.57
11 -5 8 0.56 0.22
11 -5 -8 0.91 0.26
12 5 0 -0.02 0.08
12 -5 0 0.01 0.12
12 5 0 -0.08 0.1
12 -5 1 1.84 0.24
12 5 -1 1.47 0.2
12 5 -1 1.35 0.19
12 5 1 1.33 0.2
12 -5 -1 1.61 0.24
12 5 -2 7.65 0.38
12 -5 2 7.64 0.42
12 5 -2 7.39 0.38
12 -5 -2 7.58 0.41
12 5 2 7.4 0.4
12 -5 3 0.57 0.18
12 5 -3 0.38 0.16
12 -5 -3 0.51 0.17
12 5 3 0.39 0.16
12 -5 -3 0.7 0.17
12 5 -4 71.18 1.75
12 -5 4 72.21 1.78
12 -5 -4 72.8 1.72
12 -5 -4 72.95 1.83
12 5 4 71.44 1.77
12 -5 5 2.32 0.29
12 5 -5 2.86 0.32
12 5 5 2.81 0.31
12 -5 -5 2.78 0.3
12 -5 -5 3.22 0.36
12 -5 6 26.68 0.9
12 5 -6 25.84 0.91
12 5 6 26.63 0.91
12 -5 -6 25.94 0.9
12 -5 -6 26.29 0.96
12 5 -7 4.21 0.42
12 -5 7 4.33 0.42
12 5 7 4.13 0.41
12 -5 -7 4.96 0.44
13 -5 0 62.17 1.6
13 5 0 65.06 1.58
13 5 -1 6.85 0.36
13 -5 1 6.09 0.39
13 5 -1 6.08 0.36
13 -5 -1 7.59 0.42
13 5 1 6.4 0.38
13 -5 2 26.16 0.86
13 5 -2 25.29 0.8
13 5 2 26.3 0.84
13 -5 -2 26.75 0.87
13 5 -3 7.68 0.43
13 -5 3 7.52 0.44
13 5 3 8.4 0.45
13 -5 -3 6.82 0.44
13 5 -4 0.05 0.15
13 -5 4 -0.07 0.15
13 -5 -4 0.04 0.15
13 5 4 0.3 0.17
13 5 -5 0.25 0.18
13 -5 5 -0.08 0.15
13 -5 -5 0.05 0.15
13 -5 -5 0.23 0.17
13 5 5 0.01 0.16
13 5 -6 20.03 0.81
13 -5 6 20.38 0.79
13 -5 -6 20.66 0.78
13 5 6 18.5 0.77
13 -5 -7 3 0.38
14 5 0 0.18 0.14
14 -5 0 0.08 0.15
14 5 -1 0.4 0.17
14 -5 1 0.21 0.16
14 5 1 0.16 0.14
14 -5 -1 0.22 0.16
14 -5 2 5.63 0.4
14 5 2 6.67 0.41
14 -5 -2 6.14 0.42
14 5 -3 7.9 0.45
14 -5 3 7.74 0.47
14 5 3 7.98 0.47
14 -5 -3 8.79 0.5
14 -5 4 40.33 1.21
14 5 -4 41.76 1.19
14 -5 -4 40.07 1.24
14 5 4 40.79 1.21
14 5 -5 1.34 0.27
14 -5 5 1.61 0.29
14 -5 -5 1.39 0.28
14 5 5 1.18 0.27
14 5 -6 10.65 0.66
14 -5 -6 11.07 0.59
15 5 0 63.59 1.65
15 -5 0 63.54 1.68
15 -5 1 3.07 0.35
15 -5 -1 2.51 0.32
15 5 1 2.35 0.31
15 -5 2 22.57 0.85
15 -5 -2 23.89 0.87
15 5 2 22.92 0.83
15 -5 3 1.4 0.27
15 -5 -3 1.41 0.27
15 5 3 1.14 0.23
15 -5 4 0.13 0.19
15 5 -4 -0.02 0.17
15 -5 -4 0.15 0.18
15 5 4 0.02 0.17
15 5 -5 0.6 0.23
16 -5 0 0.05 0.17
16 -5 1 0.75 0.24
16 5 1 0.8 0.23
16 -5 -1 0.61 0.21
16 -5 2 1.34 0.28
16 -5 -2 1.7 0.29
16 5 2 0.88 0.24
16 5 3 2.42 0.33
16 -5 -3 2.59 0.36
17 5 1 6.7 0.48
0 6 0 5.61 0.18
0 -6 0 5.49 0.17
0 -6 1 -0.33 0.03
0 6 1 -0.19 0.05
0 6 -1 -0.34 0.03
0 -6 -1 -0.39 0.04
0 -6 1 -0.32 0.04
0 -6 2 4.25 0.12
0 -6 2 4.35 0.16
0 6 -2 4.36 0.15
0 6 2 4.7 0.17
0 6 3 0.08 0.05
0 6 3 -0.01 0.05
0 -6 3 0.02 0.05
0 -6 3 0.01 0.03
0 6 -3 -0.05 0.04
0 -6 4 39.53 0.89
0 6 4 41.2 0.85
0 6 -4 39.53 0.91
0 6 4 41.07 0.92
0 6 5 -0.1 0.06
0 6 5 -0.08 0.07
0 6 -5 -0.08 0.06
0 -6 5 -0.13 0.05
0 6 6 1.71 0.18
0 6 -6 1.69 0.18
0 6 6 2 0.17
0 -6 6 2.09 0.18
0 -6 7 0 0.09
0 6 7 0.04 0.1
0 6 7 0.01 0.09
0 6 -7 0.04 0.09
0 -6 8 12.51 0.45
0 6 -8 11.76 0.48
0 6 8 12.2 0.49
0 6 8 12.06 0.44
0 6 -9 0.16 0.14
0 6 9 -0.01 0.12
0 6 9 -0.05 0.12
0 6 10 1.97 0.25
0 6 10 2.61 0.3
0 6 11 0.04 0.17
0 6 11 -0.14 0.14
1 6 0 0.07 0.05
-1 6 0 -0.17 0.03
-1 -6 0 -0.11 0.04
1 -6 0 -0.14 0.03
1 -6 0 -0.18 0.03
-1 6 1 42.49 0.86
1 -6 1 42.49 0.86
1 6 -1 41.39 0.86
1 6 1 40.04 0.87
1 -6 -1 42.09 0.83
-1 6 -1 40.84 0.83
-1 -6 1 41.02 0.86
1 6 -2 34.21 0.74
-1 6 2 34.24 0.69
-1 6 2 33.84 0.75
1 -6 2 34.2 0.74
1 -6 2 34.03 0.72
1 -6 -2 33.96 0.79
-1 6 -2 34.3 0.71
-1 -6 2 34.7 0.68
-1 -6 2 34.11 0.73
1 -6 3 413.31 8.49
-1 6 3 443.99 8.33
-1 6 3 440.96 7.65
1 6 -3 448.03 8.32
1 -6 -3 428.85 8.58
1 6 3 442.53 8.32
-1 -6 3 433.76 8.24
-1 6 -3 432.66 8.29
-1 6 4 23.87 0.61
-1 6 4 24.32 0.57
1 6 -4 24.03 0.62
1 -6 4 24.53 0.58
-1 6 -4 24.21 0.59
-1 -6 4 24.33 0.58
1 6 4 23.68 0.55
1 6 4 23.98 0.6
1 6 -5 170.22 3.37
-1 6 5 165.65 3.36
1 -6 5 168.93 3.39
-1 6 5 167.95 3.09
1 6 5 167.25 3.35
-1 -6 5 163.99 3.29
1 6 5 168.87 3.08
-1 6 -5 169.85 3.34
1 -6 6 0.1 0.07
1 6 -6 0.04 0.08
-1 6 6 0.07 0.09
-1 6 6 0.05 0.08
-1 -6 6 0.03 0.07
1 6 6 0.03 0.08
-1 6 -6 -0.03 0.07
1 6 6 0.03 0.08
-1 6 7 57.48 1.37
1 -6 7 57.44 1.33
-1 6 7 57.21 1.26
1 -6 7 58.32 1.32
1 6 -7 57.05 1.38
1 6 7 58.86 1.24
-1 6 -7 56.62 1.34
1 6 7 58.42 1.35
-1 -6 7 59.19 1.3
1 6 -8 1.27 0.2
-1 6 8 1.57 0.22
1 -6 8 1.67 0.2
-1 6 8 1.43 0.19
-1 6 -8 1.26 0.18
-1 -6 8 1.02 0.15
1 6 8 1.08 0.17
1 6 8 1.21 0.19
1 -6 9 1.78 0.22
1 6 -9 1.52 0.23
-1 6 9 1.8 0.22
-1 6 9 1.66 0.23
1 6 9 1.86 0.22
1 6 9 1.85 0.24
-1 6 10 0.33 0.16
1 6 -10 0.33 0.18
-1 6 10 -0.07 0.15
1 6 10 0.24 0.15
1 6 10 0.15 0.16
-1 6 11 7.64 0.44
-1 6 11 7.92 0.48
1 6 11 7.63 0.45
2 -6 0 0.21 0.05
-2 6 0 0.19 0.04
2 6 0 0.29 0.06
2 -6 0 0.16 0.04
2 6 -1 2.96 0.08
2 6 -1 2.72 0.13
2 -6 1 2.93 0.12
-2 6 1 2.69 0.11
2 -6 -1 2.78 0.14
-2 -6 1 2.86 0.13
-2 6 -1 3.12 0.09
2 6 1 2.98 0.14
2 -6 -1 3.33 0.1
2 -6 2 152.29 3.06
2 6 -2 155.08 3.01
-2 6 -2 154.49 2.94
2 -6 -2 154.04 3.12
2 6 2 155.79 3.01
-2 -6 2 151.61 2.97
2 -6 3 27.72 0.63
2 6 -3 27.49 0.66
2 6 3 26.67 0.64
-2 6 -3 27.57 0.59
2 -6 -3 27.89 0.67
2 -6 -3 27.03 0.7
-2 -6 3 26.93 0.62
2 -6 4 18.2 0.47
2 6 -4 17.61 0.5
-2 -6 4 17.57 0.46
2 -6 -4 17.71 0.54
2 -6 -4 18.82 0.52
-2 6 -4 17.84 0.45
2 6 4 18.67 0.49
2 6 -5 4.86 0.25
2 -6 5 4.5 0.21
2 6 5 4.77 0.23
-2 -6 5 4.59 0.2
-2 6 -5 4.59 0.21
2 -6 6 10.47 0.37
2 6 -6 11.27 0.43
-2 6 -6 11.42 0.38
2 -6 -6 10.92 0.44
2 6 6 11.75 0.4
-2 -6 6 11.49 0.37
2 6 -7 0.71 0.16
2 -6 7 0.65 0.13
-2 -6 7 0.56 0.11
2 6 7 0.48 0.13
2 -6 -7 0.62 0.16
-2 6 -7 0.44 0.11
2 -6 8 4.91 0.29
-2 6 8 4.59 0.31
-2 6 8 4.61 0.29
2 6 -8 4.28 0.32
2 6 8 4.34 0.29
2 6 -9 6.82 0.41
-2 6 9 6.82 0.41
-2 6 9 7.15 0.38
2 -6 9 6.49 0.37
2 6 9 6.63 0.38
2 6 -10 10.52 0.54
-2 6 10 9.73 0.51
-2 6 10 10.54 0.48
2 6 10 10.11 0.49
-3 6 0 -0.04 0.02
3 6 0 0.02 0.03
-3 6 0 0.02 0.03
3 6 0 0 0.04
3 -6 0 0.06 0.04
3 6 -1 7.88 0.24
3 -6 1 7.18 0.23
3 6 -1 7.76 0.19
-3 -6 1 7.79 0.23
-3 6 -1 7 0.17
3 -6 -1 7.32 0.25
3 -6 -1 7.41 0.23
3 -6 -1 7.86 0.19
3 6 -2 0.3 0.07
3 6 -2 0.42 0.04
3 -6 2 0.2 0.06
3 -6 -2 0.21 0.06
3 6 2 0.2 0.06
3 -6 -2 0.16 0.06
-3 -6 2 0.28 0.06
-3 6 -2 0.33 0.03
3 6 -3 68.07 1.37
3 -6 3 67.15 1.43
3 6 -3 67.28 1.44
-3 -6 3 67.96 1.38
3 -6 -3 65.24 1.49
-3 6 -3 68.15 1.33
3 6 3 67.74 1.4
3 6 -4 19.53 0.56
3 -6 4 20.54 0.54
3 -6 -4 19.66 0.6
-3 -6 4 20.15 0.5
-3 6 -4 20.45 0.48
3 -6 -4 21.19 0.58
3 6 4 21.37 0.54
3 6 -5 41.17 1.02
3 -6 5 41.17 0.98
-3 -6 5 42.49 0.93
-3 6 -5 42.06 0.92
3 -6 -5 41.37 1.06
3 -6 -5 40.69 1.02
3 6 5 41.97 0.97
3 6 -6 2.34 0.23
3 -6 6 1.77 0.17
3 -6 -6 1.75 0.21
-3 -6 6 2.01 0.16
3 6 6 2.05 0.18
-3 6 -6 2.05 0.16
3 6 -7 42.51 1.11
3 -6 7 41.8 1.05
3 -6 -7 41.75 1.12
3 6 7 41.74 1.04
-3 -6 7 42.85 0.99
3 -6 8 0.24 0.12
3 6 -8 0.26 0.14
3 6 8 0.11 0.12
3 -6 -8 0.35 0.15
-3 6 9 3.1 0.31
3 6 -9 3.41 0.34
-3 6 9 3.24 0.29
3 6 9 3.64 0.31
3 6 -10 0.16 0.17
-3 6 10 0.07 0.16
-3 6 10 0.15 0.17
3 -6 10 0.25 0.16
3 6 -11 2.31 0.33
4 -6 0 16.08 0.36
4 -6 0 16.64 0.44
4 6 0 15.69 0.41
4 6 0 15.9 0.39
4 6 -1 244.01 4.67
4 -6 1 248.3 4.79
4 6 -1 222.65 4.72
4 6 1 240.78 4.77
4 -6 -1 246.33 4.81
4 6 1 242.07 4.66
4 -6 -1 243.14 4.64
4 6 -2 6.19 0.19
4 -6 2 6.64 0.24
4 6 2 6.34 0.23
4 -6 -2 5.96 0.25
-4 -6 2 6.62 0.22
4 -6 -2 6.21 0.23
4 -6 3 119.86 2.09
4 6 -3 118.37 2.43
4 -6 3 120.09 2.27
4 -6 3 119.31 2.46
4 6 -3 121.99 2.39
4 -6 -3 117.87 2.43
-4 -6 3 118.98 2.35
4 6 3 116.58 2.39
4 -6 -3 119.61 2.52
4 -6 4 2.55 0.11
4 -6 4 2.58 0.1
4 -6 4 2.61 0.17
4 6 -4 2.47 0.13
4 6 4 2.59 0.17
-4 -6 4 2.56 0.15
4 -6 -4 2.6 0.2
4 -6 -4 2.77 0.2
4 -6 5 0.41 0.1
4 6 -5 0.4 0.11
4 6 5 0.39 0.09
4 -6 -5 0.54 0.13
-4 -6 5 0.5 0.09
4 -6 -5 0.43 0.12
4 6 -6 1.11 0.17
4 -6 6 1.46 0.17
4 6 6 0.93 0.14
4 -6 -6 1.08 0.18
-4 -6 6 1.36 0.14
4 6 -7 41.2 1.1
4 -6 7 40.32 1.03
4 -6 -7 39.8 1.09
4 6 7 39.97 1
4 6 -8 0.21 0.15
4 -6 8 0.14 0.13
4 6 8 0.15 0.12
4 -6 -8 0.25 0.15
4 6 -9 91.59 2.18
4 -6 -9 91.54 2.19
4 6 9 91.98 2.07
4 6 -10 0.01 0.16
-4 6 10 0.03 0.18
-4 6 10 0.22 0.17
5 -6 0 -0.01 0.04
5 6 0 -0.02 0.05
5 6 0 -0.03 0.05
5 -6 0 0.05 0.06
5 6 -1 52.12 1.13
5 -6 1 54.09 1.19
5 6 -1 53.49 1.16
-5 6 -1 54.76 1.04
5 -6 -1 54.96 1.21
5 6 1 53.76 1.15
5 6 1 52.92 1.17
5 -6 -1 53.85 1.13
5 -6 2 93.03 1.96
5 6 -2 93.04 1.89
5 6 -2 93.6 1.93
5 -6 -2 94.63 1.91
5 -6 -2 94.85 1.77
5 6 2 91.41 1.95
5 6 2 90.48 1.9
5 -6 3 1.76 0.16
5 6 -3 1.58 0.11
5 6 -3 1.39 0.15
5 6 3 1.34 0.14
-5 -6 3 1.58 0.11
5 6 3 1.45 0.14
5 -6 -3 1.34 0.15
5 -6 -3 1.43 0.14
5 -6 4 9.38 0.34
5 6 -4 9.61 0.3
-5 -6 4 9.42 0.29
5 6 4 9.47 0.33
5 -6 -4 9.07 0.36
5 -6 -4 8.93 0.38
5 -6 5 0.22 0.09
5 6 -5 0.07 0.09
-5 -6 5 0.07 0.06
5 -6 -5 0.06 0.09
5 6 5 0.11 0.08
5 -6 -5 0.1 0.1
5 -6 6 0.4 0.12
5 6 -6 0.4 0.13
5 6 6 0.56 0.11
5 -6 -6 0.5 0.14
5 -6 -6 0.42 0.14
5 6 -7 20.36 0.7
5 -6 7 19.68 0.64
5 -6 -7 20.86 0.71
5 6 7 20.4 0.61
5 -6 8 4.39 0.31
5 6 -8 3.91 0.36
5 -6 -8 4.12 0.37
5 6 8 4.04 0.28
5 -6 9 1.47 0.23
5 6 -9 1.65 0.28
5 6 9 1.43 0.26
5 -6 -9 1.86 0.29
5 6 -10 1.95 0.31
5 6 10 2.14 0.31
6 -6 0 51.09 1.05
6 6 0 51.94 1.12
6 6 0 51.4 1.12
6 -6 0 50 1.16
6 -6 1 281.12 5.55
6 -6 1 282.09 5.27
6 6 -1 270.46 5.49
6 6 -1 278.86 5.4
6 6 1 275.52 5.38
6 -6 -1 276.16 5.35
6 6 1 279.71 5.52
6 -6 -1 278.22 5.56
6 6 -2 21.61 0.55
6 6 -2 22.57 0.6
6 -6 2 23.56 0.61
6 6 2 22.56 0.6
6 6 2 22.49 0.57
6 -6 -2 22.33 0.58
6 -6 -2 22.87 0.63
6 -6 3 5.61 0.26
6 6 -3 4.87 0.2
6 6 -3 5.15 0.26
6 -6 -3 5.96 0.27
6 6 3 5.53 0.24
6 -6 -3 4.92 0.27
6 6 3 5.06 0.25
6 6 -4 2.06 0.14
6 6 -4 1.86 0.2
6 -6 4 2.25 0.2
6 -6 -4 2.57 0.24
6 6 4 2.2 0.18
6 -6 -4 2.04 0.2
-6 -6 4 2.16 0.14
6 6 4 1.43 0.16
6 6 -5 20.84 0.66
6 -6 5 20.84 0.62
6 6 5 21.51 0.59
6 6 5 20.17 0.64
6 -6 -5 20.89 0.69
-6 -6 5 20.93 0.53
6 -6 -5 20.91 0.65
6 6 -6 1.45 0.21
6 -6 6 1.69 0.2
6 -6 -6 1.56 0.22
6 6 6 1.75 0.18
6 6 6 1.53 0.2
6 -6 -6 1.23 0.19
6 -6 7 71.84 1.68
6 6 -7 72.89 1.74
6 6 7 70.62 1.73
6 6 7 69.45 1.61
6 -6 -7 73.41 1.78
6 -6 -7 69.92 1.72
6 6 -8 0.03 0.14
6 -6 8 -0.03 0.13
6 6 8 -0.19 0.12
6 -6 -8 -0.03 0.14
6 -6 9 81.4 1.95
6 6 -9 81.75 2.04
6 -6 -9 82.07 2.03
6 6 9 81.54 2.02
6 6 -10 6.3 0.47
6 6 10 5.86 0.49
7 -6 0 0.03 0.05
7 -6 0 0.2 0.08
7 6 0 -0.04 0.05
7 6 0 0.08 0.06
7 -6 1 0.8 0.06
7 -6 1 0.7 0.12
7 6 -1 0.61 0.09
7 6 -1 0.56 0.11
7 6 1 0.6 0.11
7 6 1 0.86 0.11
7 -6 -1 0.73 0.1
7 -6 -1 0.72 0.12
7 6 -2 1.3 0.13
7 6 -2 1.22 0.14
7 -6 2 0.99 0.13
7 -6 -2 0.92 0.14
7 6 2 1.14 0.12
7 6 2 1.45 0.16
7 -6 -2 1.18 0.13
7 6 -3 18.77 0.58
7 6 -3 18.34 0.52
7 -6 3 19.19 0.57
7 -6 -3 19.62 0.56
7 6 3 19.18 0.57
7 -6 -3 19.55 0.61
7 6 3 19.28 0.52
7 6 -4 40.37 1.03
7 -6 4 41.17 1.02
7 6 4 39.86 1.03
7 6 4 39.99 0.95
7 -6 -4 40.63 1.02
7 -6 -4 41.26 1.08
7 6 -5 53.52 1.34
7 -6 5 52.56 1.31
7 6 5 55.81 1.34
7 -6 -5 56.14 1.34
7 -6 -5 55.02 1.39
7 6 5 53.88 1.24
7 -6 6 2 0.23
7 6 -6 2.13 0.25
7 -6 -6 2.38 0.26
7 6 6 2.24 0.23
7 -6 -6 2.35 0.28
7 6 6 1.59 0.21
7 -6 7 19.89 0.66
7 6 -7 19.27 0.71
7 6 7 18.13 0.67
7 -6 -7 18 0.7
7 -6 -7 19.24 0.7
7 -6 8 4.9 0.35
7 6 -8 5.38 0.4
7 6 8 4.97 0.37
7 -6 -8 4.1 0.38
7 -6 9 0.11 0.16
7 6 -9 -0.09 0.17
7 -6 -9 0.2 0.19
7 6 9 0.22 0.18
8 6 0 70.57 1.51
8 -6 0 71.07 1.43
8 6 0 69.37 1.54
8 -6 0 68.12 1.58
8 6 -1 141.8 2.83
8 6 -1 138.68 2.86
8 -6 1 134.64 2.91
8 6 1 137.53 2.88
8 -6 -1 141.57 2.77
8 -6 -1 138.66 2.93
8 6 1 137.12 2.79
8 6 -2 10.58 0.36
8 -6 2 10.38 0.4
8 6 -2 9.63 0.37
8 -6 -2 10.47 0.41
8 6 2 10.55 0.39
8 6 2 10.7 0.35
8 -6 -2 10.21 0.36
8 6 -3 36.85 0.97
8 6 -3 37.9 0.93
8 -6 3 36.73 0.97
8 -6 -3 38.75 0.95
8 -6 -3 39.11 1.02
8 6 3 38.26 0.98
8 6 3 39.71 0.9
8 6 -4 1.46 0.19
8 -6 4 1.21 0.18
8 6 4 1.79 0.17
8 6 4 1.53 0.19
8 -6 -4 1.51 0.21
8 -6 -4 1.56 0.19
8 -6 5 0.23 0.13
8 6 -5 0.11 0.12
8 -6 -5 0.37 0.14
8 6 5 0.33 0.13
8 -6 -5 0.15 0.12
8 6 -6 0.1 0.13
8 -6 6 0.05 0.12
8 6 6 0.12 0.14
8 -6 -6 0.12 0.14
8 -6 -6 0.32 0.15
8 -6 7 24.63 0.78
8 6 -7 23.26 0.83
8 -6 -7 23.75 0.84
8 6 7 25.23 0.82
8 -6 -7 24.14 0.82
8 -6 8 0.42 0.17
8 6 -8 0.51 0.2
8 6 8 0.59 0.21
8 -6 -8 0.65 0.2
8 -6 -8 0.67 0.21
8 -6 9 32.2 1.01
8 6 -9 32.58 1.09
8 -6 -9 31.22 1.07
8 6 9 32.96 1.07
8 -6 10 1.89 0.3
9 -6 0 0.05 0.09
9 6 0 -0.02 0.07
9 6 0 0 0.07
9 6 -1 32.65 0.83
9 6 -1 32.5 0.83
9 -6 1 32.42 0.88
9 6 1 33.33 0.85
9 -6 -1 32.24 0.78
9 6 1 32.52 0.8
9 -6 -1 32.97 0.89
9 -6 2 16.99 0.57
9 6 -2 17.49 0.56
9 6 -2 17.99 0.53
9 -6 -2 17.76 0.59
9 6 2 17.42 0.51
9 -6 -2 17.69 0.53
9 6 2 18.28 0.57
9 -6 3 83.52 1.94
9 6 -3 83.46 1.89
9 6 -3 87.48 1.92
9 6 3 85.22 1.94
9 -6 -3 86.68 1.88
9 -6 -3 87.86 1.98
9 6 3 88.31 1.82
9 -6 4 0.14 0.12
9 6 -4 0.19 0.12
9 6 4 0.05 0.12
9 -6 -4 0.32 0.13
9 -6 -4 0.09 0.11
9 -6 5 97.21 2.22
9 6 -5 99.94 2.23
9 -6 -5 98.61 2.2
9 -6 -5 97.57 2.3
9 6 5 98.19 2.24
9 -6 6 -0.08 0.13
9 6 -6 0.1 0.14
9 -6 -6 -0.03 0.13
9 6 6 -0.01 0.14
9 -6 -6 -0.06 0.12
9 6 -7 32.41 1.03
9 -6 7 34.02 0.99
9 -6 -7 33.25 1.02
9 6 7 32.12 1.01
9 -6 -7 32.19 1.05
9 -6 8 0.42 0.19
9 6 -8 0.23 0.18
9 6 8 0.55 0.21
9 -6 -8 0.41 0.2
9 -6 9 6.2 0.45
10 6 0 28.4 0.75
10 -6 0 27.85 0.82
10 6 0 28.67 0.78
10 -6 1 15.46 0.55
10 6 -1 14.71 0.5
10 6 -1 15.86 0.51
10 6 1 15.54 0.53
10 -6 -1 16.24 0.57
10 6 1 15.48 0.48
10 6 -2 4.82 0.29
10 -6 2 5.49 0.32
10 6 -2 5.6 0.29
10 6 2 5.36 0.26
10 6 2 5.09 0.3
10 -6 -2 4.9 0.27
10 -6 -2 5.22 0.32
10 6 -3 0.01 0.11
10 -6 3 0 0.1
10 -6 -3 0.17 0.11
10 6 3 0.05 0.11
10 -6 -3 -0.02 0.1
10 6 -4 5.42 0.35
10 -6 4 5.31 0.34
10 6 4 6.13 0.35
10 -6 -4 5.6 0.34
10 -6 -4 5.4 0.37
10 6 -5 1.74 0.25
10 -6 5 2.27 0.26
10 6 5 2.11 0.26
10 -6 -5 2.35 0.26
10 -6 -5 1.84 0.26
10 6 -6 11.87 0.55
10 -6 6 11.36 0.52
10 6 6 10.99 0.53
10 -6 -6 10.65 0.56
10 -6 -6 11.08 0.53
10 -6 7 0.71 0.2
10 6 -7 1.03 0.24
10 6 7 0.76 0.22
10 -6 -7 0.89 0.23
10 -6 -7 1 0.22
10 6 -8 0.25 0.2
10 -6 8 0.09 0.16
10 -6 -8 0.37 0.2
10 6 8 -0.09 0.17
11 6 0 0.08 0.09
11 6 0 0.03 0.1
11 -6 0 -0.01 0.11
11 6 -1 0.27 0.11
11 -6 1 0.15 0.13
11 6 -1 0.07 0.09
11 -6 -1 0.27 0.13
11 6 1 0.22 0.11
11 6 1 0.25 0.11
11 6 -2 7.94 0.38
11 -6 2 8.13 0.41
11 6 -2 8.39 0.38
11 -6 -2 8.96 0.43
11 6 2 8.15 0.4
11 6 -3 15.52 0.57
11 -6 3 15.96 0.59
11 6 3 15.38 0.58
11 -6 -3 15.28 0.54
11 -6 -3 15.41 0.6
11 -6 4 0.87 0.19
11 6 -4 1.07 0.2
11 6 4 1.12 0.21
11 -6 -4 1.17 0.2
11 -6 -4 0.82 0.19
11 -6 5 72.69 1.75
11 6 -5 70.36 1.74
11 -6 -5 67.65 1.69
11 -6 -5 70.79 1.8
11 6 5 69.05 1.74
11 -6 6 1.21 0.23
11 6 -6 1.1 0.24
11 6 6 1.3 0.25
11 -6 -6 1.26 0.23
11 -6 -6 1.08 0.24
11 6 -7 27.44 0.96
11 -6 7 26.13 0.9
11 -6 -7 27.86 0.95
11 6 7 27.45 0.94
11 -6 8 0.12 0.19
11 -6 -8 -0.04 0.18
12 6 0 3.72 0.27
12 -6 0 4.02 0.31
12 6 0 4.16 0.27
12 -6 1 41.83 1.17
12 6 -1 42.44 1.12
12 6 -1 42.76 1.09
12 -6 -1 43.89 1.18
12 6 1 43.51 1.14
12 6 -2 0.45 0.15
12 -6 2 0.18 0.15
12 6 2 0.46 0.16
12 -6 -2 0.47 0.17
12 6 -3 1.69 0.23
12 -6 3 1.54 0.24
12 6 3 1.59 0.23
12 -6 -3 1.69 0.25
12 6 -4 3.28 0.33
12 -6 4 3.03 0.31
12 -6 -4 3.17 0.3
12 6 4 2.75 0.3
12 -6 -4 3.23 0.34
12 -6 5 2.38 0.29
12 6 -5 2.42 0.31
12 -6 -5 2.43 0.31
12 -6 -5 2.13 0.27
12 6 5 2.22 0.29
12 6 -6 7.17 0.47
12 -6 6 7.18 0.47
12 6 6 7.21 0.46
12 -6 -6 6.72 0.44
12 -6 -6 6.9 0.49
12 -6 7 3.02 0.35
12 6 -7 3.35 0.39
12 -6 -7 3.41 0.37
12 6 7 2.99 0.36
13 -6 0 0.15 0.14
13 6 0 0.2 0.14
13 6 -1 3.3 0.3
13 6 -1 3.36 0.29
13 -6 1 3.01 0.31
13 6 1 3.89 0.34
13 -6 -1 3.91 0.36
13 6 -2 0.23 0.14
13 -6 2 0.36 0.17
13 -6 -2 0.41 0.16
13 6 2 0.24 0.16
13 -6 3 39.46 1.16
13 6 -3 41.77 1.14
13 -6 -3 41.48 1.2
13 6 3 39.8 1.15
13 -6 4 0.74 0.21
13 6 -4 0.47 0.18
13 -6 -4 0.41 0.17
13 6 4 0.62 0.19
13 -6 5 28.84 0.96
13 6 -5 28.23 0.95
13 6 5 27.24 0.93
13 -6 -5 28.28 0.92
13 -6 -5 28.99 1
13 6 -6 0.67 0.23
13 -6 6 0.52 0.21
13 6 6 0.68 0.23
13 -6 -6 0.63 0.22
13 -6 -7 2.88 0.37
14 -6 0 0.28 0.17
14 6 0 0.62 0.18
14 -6 1 45.71 1.31
14 -6 -1 47.58 1.33
14 6 1 48.43 1.29
14 6 -2 0.65 0.18
14 -6 2 0.63 0.2
14 -6 -2 0.57 0.2
14 6 2 0.45 0.17
14 -6 3 24.16 0.86
14 6 -3 23.49 0.81
14 -6 -3 23.85 0.87
14 6 3 23.99 0.84
14 -6 4 12.12 0.59
14 6 -4 11.51 0.57
14 -6 -4 11.37 0.6
14 6 4 10.76 0.55
14 6 -5 0.42 0.2
14 -6 5 -0.23 0.16
14 6 5 -0.07 0.17
14 -6 -5 -0.11 0.15
14 -6 -6 2.02 0.32
15 -6 0 0.66 0.2
15 6 0 0.27 0.17
15 -6 1 0.23 0.18
15 -6 -1 -0.08 0.15
15 6 1 -0.06 0.15
15 -6 2 -0.06 0.16
15 -6 -2 0.07 0.17
15 6 2 0.29 0.17
15 -6 3 0.66 0.23
15 6 3 0.67 0.22
15 -6 -3 0.97 0.25
15 6 -4 0.51 0.21
15 6 4 0.21 0.18
15 -6 -4 0.42 0.2
15 6 -5 19.59 0.82
16 -6 0 3.97 0.41
16 -6 1 36.27 1.17
16 -6 -1 36.92 1.18
16 6 1 37.13 1.15
16 6 2 3.27 0.38
16 -6 -2 3.06 0.37
16 -6 -3 10.07 0.59
16 6 3 9.91 0.56
0 -7 0 -0.01 0.04
0 -7 0 0.05 0.04
0 7 0 -0.06 0.04
0 7 -1 -0.12 0.03
0 -7 1 -0.06 0.02
0 -7 -1 -0.05 0.04
0 -7 1 -0.04 0.04
0 7 1 -0.06 0.04
0 -7 -1 -0.05 0.03
0 7 2 18.49 0.45
0 -7 2 18.56 0.45
0 7 -2 18.39 0.44
0 -7 2 19.05 0.4
0 7 3 -0.04 0.05
0 -7 3 0 0.05
0 7 3 -0.03 0.04
0 7 -3 -0.03 0.04
0 -7 3 -0.02 0.03
0 7 -4 387.12 7.55
0 -7 4 395.78 7.68
0 7 4 393 7.56
0 7 4 393.19 6.95
0 -7 4 395.56 7.49
0 -7 5 0.05 0.06
0 7 -5 -0.1 0.06
0 7 5 -0.17 0.06
0 -7 5 0.02 0.06
0 7 5 0 0.07
0 7 6 149.39 2.8
0 -7 6 150.44 2.99
0 7 6 148.62 3.05
0 7 -6 146.49 3.04
0 7 -7 -0.06 0.08
0 7 7 0.02 0.09
0 -7 7 0.12 0.09
0 7 7 0.03 0.09
0 -7 8 11.54 0.44
0 7 8 12.2 0.48
0 7 8 12.26 0.44
0 7 -8 11.57 0.48
0 7 9 -0.06 0.12
0 -7 9 -0.05 0.12
0 7 9 0.04 0.13
0 7 10 0.75 0.2
0 7 10 0.52 0.18
0 7 11 -0.07 0.17
1 7 0 104.43 2.19
-1 7 0 117.44 2.18
1 -7 0 112.09 2.16
1 -7 0 112.85 2.24
1 7 -1 42.24 0.91
1 -7 1 44.76 0.91
1 -7 1 43.52 0.9
-1 7 1 43.55 0.9
-1 -7 1 43.44 0.91
-1 7 -1 43.88 0.88
1 -7 -1 42.21 0.95
1 -7 -1 43.75 0.88
1 -7 2 26.4 0.56
1 7 -2 24.73 0.58
1 -7 2 25.22 0.59
-1 -7 2 26.75 0.58
-1 7 -2 25.36 0.55
-1 7 3 25.2 0.62
1 -7 3 26.38 0.61
1 -7 3 26.32 0.58
1 7 -3 24.92 0.61
-1 7 3 25.39 0.57
1 7 3 25.64 0.61
-1 -7 3 25.22 0.6
-1 7 -3 25.22 0.58
-1 -7 3 25.89 0.54
1 -7 -3 26 0.67
1 -7 4 0.61 0.08
-1 7 4 0.5 0.1
-1 7 4 0.53 0.09
1 -7 4 0.54 0.09
1 7 -4 0.6 0.1
-1 7 -4 0.51 0.08
1 7 4 0.78 0.11
-1 -7 4 0.54 0.09
1 -7 5 12.33 0.36
-1 7 5 12.22 0.38
1 7 -5 12.45 0.41
1 -7 5 11.98 0.39
-1 7 5 11.76 0.41
1 7 5 11.9 0.36
-1 -7 5 12.52 0.38
-1 7 -5 11.94 0.38
1 7 5 12.35 0.4
1 -7 6 1.58 0.15
1 -7 6 1.61 0.17
-1 7 6 1.74 0.19
-1 7 6 1.17 0.15
1 7 -6 1.14 0.16
1 7 6 1.53 0.17
-1 7 -6 1.54 0.16
1 7 6 1.61 0.16
-1 -7 6 1.47 0.15
1 -7 7 0.36 0.12
1 7 -7 0.25 0.12
-1 7 7 0.42 0.13
1 -7 7 0.64 0.12
-1 7 7 0.21 0.11
-1 7 -7 0.4 0.12
1 7 7 0.47 0.13
1 7 7 0.24 0.11
-1 -7 7 0.47 0.11
1 -7 8 5.98 0.32
-1 7 8 6.5 0.36
-1 7 8 5.84 0.31
1 7 -8 5.96 0.36
-1 7 -8 5.7 0.33
-1 -7 8 6.53 0.31
1 7 8 5.78 0.33
1 7 8 6.14 0.31
1 7 -9 26.29 0.84
-1 7 9 27.41 0.84
1 -7 9 25.77 0.77
-1 7 9 26.07 0.76
1 7 9 26.36 0.81
1 7 9 26.46 0.75
-1 7 10 2.92 0.3
-1 7 10 2.39 0.3
1 7 10 2.87 0.31
1 7 11 0.19 0.18
2 -7 0 0.21 0.04
2 7 0 -0.03 0.04
-2 -7 0 0.03 0.04
2 -7 0 -0.03 0.03
-2 7 0 0.06 0.03
-2 7 1 45.52 0.93
2 7 -1 45.43 0.89
2 -7 1 44.48 0.96
2 -7 1 45.25 0.94
2 7 -1 46.45 0.96
-2 7 1 45.07 0.86
2 7 1 43.72 0.96
-2 7 -1 44.98 0.9
-2 -7 1 44.1 0.94
2 -7 -1 45.43 0.9
-2 7 2 3.56 0.15
-2 7 2 4.22 0.17
2 -7 2 3.96 0.15
2 7 -2 4.08 0.17
2 -7 -2 3.79 0.19
-2 -7 2 4.04 0.16
2 7 2 3.77 0.17
-2 7 -2 4.07 0.12
-2 7 3 6.25 0.24
-2 7 3 6.19 0.22
2 -7 3 6.07 0.21
-2 7 -3 6.21 0.19
2 7 3 6.28 0.23
2 -7 -3 6 0.27
-2 -7 3 6.34 0.22
2 7 -4 194.56 3.99
2 -7 4 209.74 4.04
2 7 4 204.18 3.97
2 -7 -4 196.94 4.14
-2 7 -4 203.62 3.93
-2 -7 4 204.24 3.92
2 7 -5 0.03 0.07
2 -7 5 0.05 0.06
-2 -7 5 0.01 0.06
2 7 5 0.08 0.07
-2 7 -5 0 0.05
2 7 -6 89.53 1.96
2 -7 6 89.38 1.92
-2 -7 6 91.28 1.87
-2 7 -6 90.56 1.89
2 7 6 88.28 1.92
-2 7 7 6.98 0.32
2 -7 7 6.59 0.3
2 7 -7 6.38 0.34
-2 7 7 6.46 0.34
2 7 7 6.53 0.32
-2 -7 7 6.74 0.29
2 -7 8 2.26 0.23
-2 7 8 2.2 0.25
-2 7 8 1.96 0.22
2 7 -8 2.31 0.26
2 7 8 2.11 0.23
2 7 -9 0.03 0.14
-2 7 9 0.1 0.14
2 -7 9 0.09 0.13
-2 7 9 -0.01 0.13
2 7 9 0.29 0.14
2 7 -10 1.99 0.28
-2 7 10 1.72 0.25
2 -7 10 1.32 0.22
-2 7 10 1.5 0.26
2 7 10 1.32 0.23
3 7 0 306.62 5.94
3 -7 0 305.79 6.09
-3 7 0 315.31 5.94
3 7 0 304.6 6.04
3 -7 0 315.74 5.85
3 7 -1 16.7 0.43
-3 7 1 17.07 0.37
3 -7 1 16.76 0.43
3 7 -1 17.14 0.37
-3 7 1 16.81 0.4
-3 7 -1 17.3 0.36
3 -7 -1 17.15 0.37
-3 -7 1 17.42 0.42
3 7 1 16.09 0.43
3 -7 -1 16.52 0.45
3 7 -2 98.62 2.04
3 -7 2 102.41 2.07
3 7 -2 102.42 1.98
-3 -7 2 98.56 2
3 -7 -2 102.81 1.92
3 -7 -2 100.51 2.04
-3 7 -2 102.46 1.93
3 7 2 99.78 2.04
3 -7 3 15.46 0.41
3 7 -3 15.56 0.44
3 7 3 14.65 0.41
-3 7 -3 14.85 0.34
-3 -7 3 15.04 0.4
3 -7 -3 14.84 0.47
3 -7 -3 14.81 0.44
3 -7 4 3.32 0.17
3 7 -4 3.36 0.2
3 7 4 3.2 0.18
3 -7 -4 3.31 0.22
-3 7 -4 2.94 0.14
-3 -7 4 2.89 0.16
3 -7 5 24.71 0.66
3 7 -5 25.44 0.71
-3 7 -5 25.64 0.62
-3 -7 5 27.23 0.64
3 -7 -5 25.04 0.75
3 -7 -5 26.58 0.73
3 7 5 26.83 0.68
3 -7 6 29.51 0.78
3 7 -6 30.47 0.84
3 7 6 31.08 0.79
3 -7 -6 30.51 0.85
-3 -7 6 30.68 0.74
3 -7 7 31.87 0.85
3 7 -7 32.48 0.92
3 7 7 31.98 0.85
3 -7 -7 32.01 0.92
-3 -7 7 33.26 0.81
3 7 -8 32.92 0.97
3 -7 8 33.52 0.89
3 7 8 32.05 0.89
3 7 -9 0.06 0.15
3 -7 9 -0.09 0.13
-3 7 9 0.03 0.13
-3 7 9 0.12 0.15
3 7 9 -0.02 0.12
-3 7 10 55.4 1.36
3 7 -10 56.58 1.52
-3 7 10 54.06 1.47
3 -7 10 55.03 1.41
3 7 10 57.55 1.43
3 7 -11 0.35 0.21
-4 7 0 -0.02 0.03
-4 7 0 0.02 0.03
4 7 0 -0.08 0.03
4 -7 0 0.01 0.05
4 7 0 -0.1 0.04
4 7 -1 74.18 1.54
4 -7 1 74.1 1.57
4 7 -1 73.32 1.5
4 7 1 73.36 1.55
4 -7 -1 74.38 1.44
-4 7 -1 75.06 1.42
4 7 1 73.27 1.53
4 -7 -1 72.91 1.5
4 -7 -1 75.58 1.59
4 7 -2 52.15 1.15
4 7 -2 55.02 1.09
4 -7 2 50.81 1.16
4 7 2 53.02 1.15
4 -7 -2 54.82 1.21
4 -7 -2 52.82 1.02
-4 -7 2 51.68 1.11
4 -7 -2 52.61 1.14
4 7 -3 39.7 0.82
4 -7 3 38.56 0.9
4 7 3 38.91 0.89
4 -7 -3 38.5 0.96
-4 -7 3 38.77 0.86
4 -7 -3 38.7 0.91
4 7 -4 14.02 0.46
4 -7 4 14.13 0.43
-4 7 -4 14.73 0.35
4 -7 -4 13.9 0.46
4 -7 -4 13.89 0.49
-4 -7 4 14.88 0.41
4 7 4 14.64 0.43
4 7 -5 0.07 0.09
4 -7 5 -0.03 0.06
4 -7 -5 0.16 0.1
4 7 5 0.28 0.09
-4 -7 5 0.17 0.07
4 -7 -5 0.13 0.1
4 -7 6 29.72 0.8
4 7 -6 32.77 0.88
-4 -7 6 30.86 0.75
4 -7 -6 30.77 0.91
4 7 6 29.95 0.79
4 -7 -6 30.8 0.87
4 7 -7 11.25 0.48
4 -7 7 10.61 0.42
4 7 7 10.5 0.41
4 -7 -7 9.72 0.46
4 -7 8 0.46 0.14
4 7 -8 0.34 0.16
4 7 8 0.53 0.15
4 -7 -8 0.43 0.17
4 7 -9 2.67 0.32
4 7 9 2.18 0.25
4 7 -10 0.19 0.19
-4 7 10 0.17 0.19
4 -7 10 0.18 0.16
-4 7 10 -0.09 0.15
5 7 0 206.46 4.04
5 -7 0 197.22 4.09
5 -7 0 204.81 3.9
5 7 0 204.4 3.98
5 7 -1 145.58 2.9
5 -7 1 148.58 2.98
5 7 -1 147.47 2.91
5 -7 -1 147.21 2.86
5 -7 -1 143.1 2.99
5 7 1 142.22 2.94
5 7 1 143.51 2.89
5 -7 2 191.23 3.88
5 7 -2 192.94 3.8
5 7 -2 191.29 3.8
5 -7 -2 193.71 3.77
5 7 2 186.92 3.77
5 -7 -2 191.33 3.91
5 7 2 192.85 3.87
5 -7 -2 195.73 3.62
5 -7 3 12.91 0.41
5 7 -3 13.62 0.35
5 -7 -3 13.74 0.43
-5 -7 3 13.81 0.38
5 7 3 13.1 0.41
5 -7 -3 13.6 0.46
5 7 -4 39.93 0.99
5 7 -4 39.48 0.88
5 -7 4 39.98 0.96
5 -7 -4 40.43 1.04
5 -7 -4 39.88 0.98
5 7 4 39.26 0.93
-5 -7 4 39.8 0.89
5 -7 5 0.34 0.1
5 7 -5 0.54 0.13
5 -7 -5 0.76 0.16
-5 -7 5 0.48 0.09
5 -7 -5 0.29 0.11
5 7 5 0.38 0.1
5 -7 6 0.44 0.12
5 7 -6 0.48 0.14
5 -7 -6 0.49 0.14
5 7 6 0.54 0.12
5 -7 -6 0.72 0.16
5 7 -7 4.31 0.36
5 -7 7 3.9 0.28
5 7 7 3.23 0.24
5 -7 -7 3.34 0.31
5 -7 8 82.32 1.89
5 7 -8 80.81 1.96
5 -7 -8 79.79 1.95
5 7 8 82.22 1.83
5 7 -9 1.69 0.29
5 -7 -9 1.76 0.28
5 7 -10 59.52 1.64
-5 7 10 62.32 1.62
-5 7 10 61.2 1.48
5 7 10 59.69 1.63
6 -7 0 -0.04 0.06
6 7 0 0.12 0.06
6 7 0 -0.05 0.04
6 -7 0 0.09 0.04
6 7 -1 12.86 0.4
6 -7 1 12.57 0.41
6 7 -1 12.84 0.36
6 7 1 12.7 0.38
6 -7 -1 12.05 0.35
-6 7 -1 12.56 0.25
6 -7 -1 12.31 0.41
6 7 1 12.72 0.38
-6 7 -1 12.95 0.28
6 7 -2 2.26 0.13
6 -7 2 2.21 0.17
6 7 -2 2.34 0.17
6 -7 -2 2.44 0.09
6 -7 -2 2.57 0.18
6 7 2 2.19 0.16
6 -7 -2 1.76 0.15
6 7 2 2.49 0.16
6 7 -3 69.06 1.49
6 7 -3 72.48 1.56
6 -7 3 70.98 1.56
6 -7 -3 70.68 1.54
6 -7 -3 71.74 1.62
6 7 3 69.73 1.51
6 7 3 69.36 1.57
6 -7 4 27.65 0.74
6 7 -4 28.43 0.78
6 7 4 27.63 0.77
6 -7 -4 27.89 0.76
6 -7 -4 27.93 0.8
6 7 4 27.3 0.71
-6 -7 4 27.63 0.66
6 7 -5 1.86 0.22
6 -7 5 1.56 0.18
-6 -7 5 1.94 0.16
6 7 5 2.15 0.19
6 -7 -5 1.97 0.23
6 -7 -5 2.11 0.23
6 7 5 1.73 0.2
6 -7 6 1.08 0.17
6 7 -6 1.04 0.19
6 7 6 0.78 0.17
6 7 6 0.86 0.14
6 -7 -6 0.82 0.18
6 -7 -6 0.84 0.17
6 7 -7 3.28 0.32
6 -7 7 3.01 0.27
6 7 7 2.9 0.29
6 -7 -7 2.81 0.3
6 -7 -7 3.62 0.35
6 7 7 3.61 0.26
6 -7 8 0.04 0.13
6 7 -8 0.16 0.15
6 7 8 0.15 0.15
6 -7 -8 -0.06 0.14
6 -7 9 15.44 0.62
6 7 -9 14.8 0.68
6 7 9 17.07 0.7
6 -7 -9 16.32 0.7
6 7 -10 0.22 0.19
6 7 10 -0.17 0.19
7 -7 0 268.13 5.11
7 7 0 267.65 5.3
7 -7 0 261.53 5.36
7 7 0 267.57 5.19
7 7 -1 0.89 0.12
7 7 -1 0.88 0.11
7 -7 1 1.06 0.14
7 -7 1 0.9 0.06
7 -7 -1 0.91 0.13
7 7 1 1.01 0.12
7 7 1 1.03 0.12
7 -7 -1 1 0.11
7 -7 2 134.29 2.84
7 7 -2 137.49 2.78
7 7 -2 136.68 2.77
7 -7 -2 134.6 2.87
7 -7 -2 135.28 2.74
7 7 2 133.8 2.73
7 7 2 137.62 2.83
7 7 -3 2.1 0.21
7 -7 3 1.51 0.17
7 7 -3 1.89 0.14
7 -7 -3 1.43 0.18
7 7 3 1.47 0.17
7 -7 -3 1.59 0.17
7 7 3 1.59 0.15
7 -7 4 0.95 0.15
7 7 -4 0.9 0.16
7 -7 -4 0.72 0.14
7 7 4 0.61 0.12
7 7 4 0.83 0.15
7 -7 -4 0.75 0.16
7 -7 5 0.52 0.13
7 7 -5 0.8 0.17
7 -7 -5 0.48 0.14
7 -7 -5 0.46 0.15
7 7 5 0.56 0.15
7 7 5 0.48 0.12
7 7 -6 3.46 0.32
7 -7 6 4.32 0.3
7 -7 -6 4.36 0.31
7 -7 -6 3.9 0.35
7 7 6 3.22 0.29
7 7 6 4.28 0.26
7 7 -7 0 0.13
7 -7 7 0.16 0.14
7 -7 -7 0.15 0.15
7 7 7 -0.04 0.13
7 -7 -7 0.08 0.14
7 -7 8 41.54 1.14
7 7 -8 41.56 1.22
7 -7 -8 43.12 1.23
7 7 8 40.9 1.19
7 -7 9 4.51 0.38
7 7 -9 4.26 0.42
7 7 9 3.48 0.37
7 -7 -9 3.86 0.4
8 -7 0 0.02 0.05
8 -7 0 0 0.08
8 7 0 0.01 0.06
8 7 0 0.02 0.07
8 7 -1 11.69 0.37
8 7 -1 11.09 0.39
8 -7 1 10.8 0.41
8 7 1 11.41 0.38
8 -7 -1 11.28 0.42
8 -7 -1 11.36 0.35
8 7 1 11.27 0.39
8 -7 2 22.76 0.66
8 7 -2 22.88 0.6
8 7 -2 22.64 0.64
8 -7 -2 21.47 0.67
8 -7 -2 22.7 0.61
8 7 2 22.3 0.64
8 7 2 22.06 0.6
8 -7 3 49.69 1.2
8 7 -3 48.06 1.19
8 -7 -3 49.92 1.25
8 -7 -3 49.58 1.17
8 7 3 49.61 1.12
8 7 3 48.75 1.2
8 7 -4 81.85 1.82
8 -7 4 79.03 1.81
8 -7 -4 78.62 1.78
8 7 4 77.57 1.71
8 -7 -4 80.19 1.88
8 7 4 80.79 1.83
8 -7 5 1.76 0.21
8 7 -5 1.92 0.24
8 -7 -5 2.31 0.27
8 -7 -5 1.97 0.23
8 7 5 1.85 0.22
8 7 5 1.66 0.18
8 7 -6 68.01 1.68
8 -7 6 69.68 1.65
8 7 6 68.72 1.68
8 -7 -6 68.71 1.67
8 -7 -6 67.81 1.74
8 -7 7 5.13 0.35
8 7 -7 5.69 0.4
8 -7 -7 6.03 0.41
8 -7 -7 6.18 0.4
8 7 7 5.4 0.38
8 -7 8 9.29 0.48
8 7 -8 9.11 0.52
8 7 8 9.33 0.52
8 -7 -8 9.65 0.53
8 -7 -8 9.27 0.52
8 7 -9 2.6 0.36
8 -7 9 3.48 0.35
8 -7 -9 3.64 0.4
8 7 9 2.65 0.34
9 7 0 6.57 0.29
9 7 0 6.38 0.29
9 -7 0 6.58 0.33
9 7 -1 0.31 0.1
9 -7 1 0.92 0.16
9 7 -1 0.25 0.1
9 -7 -1 0.42 0.1
9 7 1 0.3 0.09
9 -7 -1 0.2 0.11
9 7 1 0.19 0.1
9 7 -2 5.56 0.26
9 -7 2 5.99 0.31
9 7 -2 4.94 0.28
9 -7 -2 5.16 0.3
9 7 2 5.72 0.26
9 -7 -2 5.15 0.26
9 7 2 5.06 0.28
9 7 -3 0.81 0.16
9 -7 3 0.86 0.15
9 7 3 0.78 0.12
9 -7 -3 0.79 0.15
9 -7 -3 0.62 0.15
9 7 3 0.89 0.16
9 7 -4 2.23 0.25
9 -7 4 2.8 0.27
9 7 4 2.45 0.21
9 -7 -4 2.47 0.27
9 7 4 2.33 0.24
9 -7 -4 2.61 0.24
9 -7 5 0.32 0.14
9 7 -5 0.2 0.14
9 -7 -5 0.3 0.15
9 7 5 0.74 0.18
9 -7 -5 0.34 0.15
9 -7 6 14.24 0.56
9 7 -6 12.79 0.57
9 7 6 12.64 0.56
9 -7 -6 14.19 0.58
9 -7 -6 13.49 0.61
9 7 -7 1.41 0.26
9 -7 7 1.83 0.26
9 -7 -7 0.95 0.22
9 -7 -7 1.38 0.25
9 7 7 1.35 0.24
9 7 -8 17.53 0.74
9 -7 8 17.24 0.68
9 7 8 16.51 0.69
9 -7 -8 16.79 0.73
9 -7 -8 15.74 0.7
9 -7 9 1.6 0.28
10 7 0 0.12 0.09
10 7 0 0.03 0.09
10 -7 0 -0.06 0.09
10 7 -1 0.1 0.09
10 7 -1 0.02 0.09
10 -7 1 0.03 0.1
10 7 1 0.25 0.11
10 -7 -1 0.11 0.11
10 7 1 -0.01 0.08
10 -7 2 40.92 1.09
10 7 -2 42.96 1.03
10 7 -2 41.17 1.05
10 -7 -2 40.98 1
10 7 2 41.22 0.99
10 -7 -2 42.18 1.12
10 7 2 39.95 1.06
10 -7 3 11.35 0.47
10 7 -3 11.48 0.47
10 -7 -3 11.51 0.5
10 7 3 12.06 0.48
10 -7 -3 11.79 0.45
10 7 3 11.85 0.41
10 -7 4 88.63 2.05
10 7 -4 86.54 2.02
10 -7 -4 89.85 2.12
10 -7 -4 89.54 2
10 7 4 88.94 2.05
10 -7 5 0.17 0.16
10 7 -5 0.58 0.18
10 -7 -5 0.27 0.15
10 -7 -5 0.67 0.17
10 7 5 0.48 0.17
10 -7 6 56.95 1.48
10 7 -6 58.99 1.53
10 7 6 59.14 1.52
10 -7 -6 56.51 1.57
10 -7 -6 57.79 1.49
10 -7 7 0.08 0.15
10 7 -7 -0.04 0.15
10 7 7 0.08 0.17
10 -7 -7 0.12 0.15
10 -7 -7 -0.05 0.15
10 7 -8 16.78 0.75
10 -7 8 16.91 0.7
10 7 8 17.93 0.74
10 -7 -8 17.73 0.74
11 -7 0 33.19 0.96
11 7 0 34.84 0.93
11 7 0 34.85 0.9
11 7 -1 0.73 0.15
11 7 -1 1.1 0.17
11 -7 1 1.08 0.19
11 7 1 0.81 0.16
11 -7 -1 0.99 0.18
11 7 1 0.98 0.15
11 -7 2 1.38 0.21
11 7 -2 1.69 0.21
11 -7 -2 1.64 0.23
11 7 2 1.57 0.21
11 7 2 1.59 0.18
11 -7 3 0.42 0.15
11 7 -3 0.41 0.15
11 -7 -3 0.34 0.13
11 -7 -3 0.51 0.16
11 7 3 0.58 0.16
11 7 -4 1.23 0.22
11 -7 4 1.25 0.21
11 7 4 1.55 0.23
11 -7 -4 1.72 0.22
11 -7 -4 1.37 0.23
11 -7 5 3.8 0.34
11 7 -5 4.41 0.39
11 -7 -5 4.74 0.43
11 -7 -5 4.73 0.35
11 7 5 3.82 0.35
11 -7 6 0.13 0.16
11 7 -6 0.27 0.16
11 -7 -6 0.15 0.16
11 -7 -6 0.17 0.16
11 7 6 0.07 0.15
11 -7 7 5.21 0.4
11 7 -7 6.93 0.49
11 -7 -7 6.02 0.52
11 7 7 6.06 0.44
11 -7 -7 6.16 0.44
11 -7 8 -0.12 0.16
11 -7 -8 0.15 0.21
12 7 0 -0.09 0.09
12 -7 0 0.09 0.13
12 7 0 -0.03 0.1
12 -7 1 0.26 0.15
12 7 -1 0.54 0.15
12 7 -1 0.07 0.12
12 7 1 0.61 0.16
12 -7 -1 0.32 0.14
12 7 -2 18.58 0.64
12 -7 2 19.36 0.69
12 7 2 18.2 0.65
12 -7 -2 18.67 0.69
12 -7 3 2.76 0.31
12 7 -3 3.14 0.3
12 -7 -3 2.89 0.32
12 7 3 3.23 0.31
12 -7 4 51.85 1.37
12 7 -4 48.21 1.34
12 7 4 52.44 1.37
12 -7 -4 50.99 1.41
12 -7 -4 50.71 1.3
12 7 -5 1.12 0.23
12 -7 5 1.14 0.23
12 -7 -5 0.8 0.21
12 -7 -5 1.17 0.25
12 7 5 1.22 0.24
12 7 -6 27.54 0.96
12 -7 6 27.35 0.92
12 -7 -6 27.04 0.99
12 7 6 26.75 0.93
12 -7 -6 27.71 0.91
12 7 -7 0.36 0.21
12 -7 7 0.03 0.2
12 7 7 -0.18 0.16
12 -7 -7 0.09 0.18
13 -7 0 44.22 1.23
13 7 0 44.24 1.19
13 7 -1 0.29 0.15
13 -7 1 0.52 0.17
13 -7 -1 0.33 0.16
13 7 1 0.23 0.14
13 7 -2 16.77 0.62
13 -7 2 15.84 0.65
13 -7 -2 17.3 0.68
13 7 2 16.87 0.64
13 -7 3 0.5 0.18
13 7 -3 0.85 0.2
13 -7 -3 1.03 0.22
13 7 3 0.73 0.19
13 -7 4 0.18 0.16
13 7 -4 0.47 0.18
13 -7 -4 0.22 0.16
13 7 4 0.26 0.17
13 -7 5 0.76 0.22
13 7 -5 0.77 0.22
13 7 5 0.5 0.21
13 -7 -5 0.94 0.22
13 -7 -5 0.61 0.22
13 -7 6 4.35 0.42
13 7 -6 5.18 0.46
13 7 6 4.47 0.42
13 -7 -6 4.3 0.46
13 -7 -6 4.43 0.41
13 -7 -7 0.01 0.22
14 7 0 0 0.13
14 -7 0 0.14 0.16
14 -7 1 0.43 0.19
14 -7 -1 0.59 0.2
14 7 1 0.54 0.17
14 7 -2 5.21 0.37
14 -7 2 6.59 0.43
14 -7 -2 5.15 0.41
14 7 2 5.87 0.4
14 -7 3 2.75 0.33
14 7 -3 2.42 0.29
14 7 3 3.56 0.35
14 -7 -3 2.74 0.35
14 -7 4 28.94 0.96
14 7 -4 26.99 0.92
14 7 4 27.28 0.93
14 -7 -4 26.55 0.97
14 7 -5 0.27 0.2
14 -7 5 -0.12 0.17
14 -7 -5 0.26 0.2
14 7 5 0.47 0.21
15 -7 0 40.79 1.24
15 -7 1 2.41 0.32
15 7 1 2.59 0.31
15 -7 -1 2.79 0.35
15 -7 2 27.85 0.95
15 7 2 26.2 0.9
15 -7 -2 25.91 0.94
15 7 -3 0.47 0.19
15 -7 3 0.48 0.21
15 -7 -3 0.31 0.19
15 7 3 0.32 0.2
15 7 -4 1.21 0.27
15 -7 -4 1.55 0.3
15 7 4 1.64 0.3
15 -7 -5 0.16 0.19
16 -7 0 0.05 0.18
16 -7 1 5.39 0.47
16 -7 -1 5.26 0.47
16 7 1 4.95 0.49
16 7 2 0.04 0.16
16 -7 -2 0.21 0.2
16 7 3 2.22 0.32
16 -7 -3 2.38 0.35
0 -8 0 613.28 11.43
0 8 0 566.33 11.47
0 -8 0 596.38 11.67
0 8 1 0.01 0.04
0 8 -1 0.05 0.04
0 -8 -1 -0.05 0.04
0 -8 -1 0.05 0.04
0 -8 1 -0.02 0.04
0 -8 1 -0.02 0.03
0 -8 2 200.08 3.94
0 8 2 202.6 3.98
0 8 -2 207.44 3.96
0 -8 2 210.96 4.01
0 8 3 0.04 0.06
0 -8 3 0.01 0.03
0 -8 3 0 0.05
0 8 -3 -0.07 0.04
0 8 4 105.17 1.97
0 -8 4 105.12 2.11
0 8 -4 105.62 2.13
0 8 4 105.61 2.15
0 -8 4 101.89 2.11
0 8 -5 -0.09 0.06
0 -8 5 0.03 0.05
0 -8 5 -0.08 0.06
0 8 5 0 0.07
0 8 5 0.02 0.08
0 8 -6 4.62 0.26
0 -8 6 4.57 0.21
0 8 6 4.62 0.27
0 8 6 4.11 0.23
0 -8 6 4.56 0.25
0 8 7 -0.11 0.08
0 8 -7 -0.03 0.08
0 -8 7 0.1 0.09
0 8 7 0.05 0.11
0 8 8 37.91 1.03
0 -8 8 39.55 0.99
0 8 8 40.17 0.96
0 8 -8 36.98 1.02
0 8 9 -0.03 0.13
0 8 9 0.1 0.13
0 -8 9 -0.01 0.11
0 8 10 2.11 0.26
0 8 10 1.89 0.26
1 -8 0 -0.04 0.03
-1 -8 0 0.05 0.04
1 8 0 -0.01 0.04
-1 8 0 -0.03 0.03
1 -8 0 0 0.03
1 -8 1 21.06 0.49
1 8 -1 21.34 0.5
1 -8 1 20.16 0.47
-1 8 1 20.91 0.48
-1 -8 1 20.59 0.49
1 8 1 20.95 0.5
1 -8 -1 21.06 0.47
-1 -8 1 21.2 0.44
1 -8 -1 19.86 0.52
-1 8 -1 20.92 0.47
1 8 -2 2.83 0.13
-1 8 2 2.58 0.14
1 -8 2 2.68 0.14
1 -8 2 2.63 0.11
-1 8 -2 2.6 0.11
-1 -8 2 2.6 0.13
1 -8 3 274.01 5.32
-1 8 3 279.13 5.37
1 8 -3 275.38 5.36
1 -8 3 281.84 5.44
-1 8 3 282.87 4.93
1 8 3 276.34 5.37
-1 -8 3 274.89 5.31
-1 -8 3 285.54 5.4
-1 8 -3 277.74 5.32
1 -8 -3 267.35 5.55
-1 8 4 7.51 0.29
1 -8 4 7.72 0.24
-1 8 4 6.87 0.26
1 8 -4 7.64 0.28
-1 8 -4 7.59 0.26
-1 -8 4 7.34 0.27
-1 -8 4 7.63 0.21
1 8 -5 115.79 2.41
1 -8 5 116.42 2.38
-1 8 5 116.79 2.22
-1 8 5 122.51 2.42
1 -8 5 115.42 2.38
-1 -8 5 116.36 2.35
1 8 5 115.01 2.4
-1 8 -5 113.77 2.37
-1 8 6 1.76 0.17
1 8 -6 1.52 0.17
1 -8 6 1.52 0.14
-1 8 6 1.58 0.18
1 -8 6 1.31 0.16
1 8 6 1.57 0.16
-1 8 -6 1.24 0.15
-1 -8 6 1.74 0.17
1 8 6 1.43 0.17
-1 8 7 61.9 1.31
1 8 -7 59.66 1.42
1 -8 7 59.97 1.37
-1 8 7 61.15 1.43
1 8 7 59.54 1.29
1 8 7 59.11 1.4
-1 8 -7 59.88 1.39
-1 -8 7 59.62 1.35
-1 8 8 3.53 0.3
-1 8 8 3.78 0.27
1 -8 8 3.92 0.27
1 8 -8 4.13 0.3
-1 -8 8 3.77 0.25
1 8 8 4.34 0.3
-1 8 9 2.36 0.26
1 8 -9 2.24 0.28
-1 8 9 1.89 0.26
1 -8 9 2.76 0.27
1 8 9 2.52 0.28
-1 8 10 0.8 0.2
-1 8 10 0.65 0.19
1 8 10 0.72 0.2
1 8 11 13.07 0.61
2 8 0 134.32 2.62
2 -8 0 126.09 2.66
2 -8 0 132.59 2.56
-2 8 0 133.93 2.57
-2 -8 0 136.42 2.59
-2 8 1 139.79 2.71
2 -8 1 136.32 2.7
2 8 -1 139.94 2.71
2 8 -1 136.8 2.74
2 -8 1 137.18 2.78
2 -8 -1 140.26 2.67
2 -8 -1 143.86 2.83
-2 -8 1 140.02 2.72
2 8 1 140.22 2.75
-2 8 -1 139 2.68
-2 8 2 66.94 1.28
2 8 -2 67.81 1.41
2 -8 2 68.67 1.41
2 -8 2 69.61 1.4
-2 8 2 67.69 1.4
-2 8 -2 67.06 1.34
-2 -8 2 69.87 1.4
2 8 2 66.68 1.41
2 8 -3 168.53 3.31
-2 8 3 164.47 3.3
-2 8 3 168.8 3.03
2 -8 3 167.45 3.28
2 -8 3 166.22 3.33
-2 8 -3 166.15 3.23
2 -8 -3 167.84 3.44
-2 -8 3 167.48 3.26
2 8 3 168.16 3.3
2 -8 4 26.64 0.64
-2 8 4 27 0.69
-2 8 4 27.15 0.63
2 8 -4 26.51 0.69
-2 8 -4 27.48 0.63
2 -8 -4 27.32 0.75
2 8 4 27.57 0.68
-2 -8 4 26.89 0.65
-2 8 5 0.33 0.1
2 -8 5 0.57 0.09
2 8 -5 0.42 0.1
-2 8 5 0.31 0.1
-2 8 -5 0.44 0.09
2 8 5 0.27 0.09
-2 -8 5 0.34 0.09
-2 8 6 14.66 0.49
2 -8 6 14.17 0.43
-2 8 6 13.62 0.44
2 8 -6 14.22 0.49
-2 8 -6 13.49 0.43
2 8 6 13.44 0.46
-2 -8 6 13.66 0.43
-2 8 7 5.92 0.33
2 8 -7 5.22 0.32
2 -8 7 5.62 0.27
-2 8 7 5.43 0.29
2 -8 7 5.2 0.29
2 8 7 5.9 0.31
-2 -8 7 5.2 0.27
-2 8 8 16.24 0.54
2 -8 8 15.27 0.55
-2 8 8 15.48 0.59
2 8 -8 16.16 0.61
2 8 8 16.96 0.58
2 -8 9 3.75 0.31
2 8 -9 4.41 0.37
-2 8 9 3.28 0.32
-2 8 9 4.09 0.32
2 8 9 3.34 0.31
2 8 -10 10.56 0.54
-2 8 10 10.86 0.54
-2 8 10 10.79 0.49
2 -8 10 10.38 0.49
2 8 10 10.37 0.5
2 8 11 12.9 0.59
3 -8 0 -0.01 0.04
-3 8 0 0.01 0.03
3 -8 0 0.04 0.04
3 8 0 0 0.04
3 8 -1 32.11 0.65
-3 8 1 31.21 0.68
3 8 -1 30.78 0.72
3 -8 1 30.88 0.69
-3 8 1 31.41 0.62
3 -8 1 31.04 0.72
3 -8 -1 31.78 0.75
-3 8 -1 30.36 0.64
3 -8 -1 31.71 0.65
-3 8 2 56.92 1.11
3 -8 2 58.78 1.23
3 8 -2 56.86 1.23
-3 8 2 57.12 1.21
-3 8 -2 58.66 1.13
-3 -8 2 57.41 1.2
3 -8 -2 57.85 1.13
3 8 2 58.1 1.24
3 -8 -2 57.01 1.29
3 -8 3 14.5 0.41
3 8 -3 15.13 0.44
3 8 3 15.28 0.43
3 -8 -3 14.97 0.48
-3 -8 3 15.86 0.42
-3 8 -3 15.47 0.35
3 8 -4 20.62 0.59
3 -8 4 21.56 0.56
-3 -8 4 21.63 0.55
3 -8 -4 20.88 0.6
3 -8 -4 20.85 0.64
3 8 4 22.47 0.57
-3 8 -4 22.51 0.51
3 -8 5 28.52 0.72
3 8 -5 28.84 0.78
-3 -8 5 29.04 0.7
3 8 5 29.29 0.74
3 -8 -5 29.59 0.79
3 -8 -5 28.89 0.83
-3 8 -5 28.3 0.67
3 -8 6 8.59 0.34
3 8 -6 9.11 0.4
-3 -8 6 8.26 0.32
3 8 6 9.57 0.37
3 -8 7 16.94 0.54
-3 8 7 16.74 0.53
3 8 -7 16 0.59
-3 8 7 16.77 0.58
3 8 7 18.27 0.57
-3 -8 7 16.3 0.5
3 8 -8 4.22 0.37
-3 8 8 3.32 0.28
-3 8 8 3.3 0.3
3 8 8 4.38 0.29
-3 8 9 0.41 0.18
-3 8 9 0.27 0.16
3 -8 9 0.39 0.16
3 8 -9 0.66 0.19
3 8 9 0.51 0.17
-3 8 10 0.9 0.23
3 -8 10 1.05 0.21
3 8 -10 1.08 0.24
-3 8 10 1.11 0.22
3 8 10 0.85 0.2
3 8 -11 2.95 0.38
4 -8 0 7.48 0.22
-4 8 0 7.4 0.2
4 8 0 6.71 0.25
4 8 0 7.91 0.23
4 -8 0 7.65 0.27
4 8 -1 179.23 3.51
4 -8 1 179.67 3.58
4 8 -1 169.71 3.5
-4 8 1 183.03 3.17
-4 8 1 179.05 3.45
4 8 1 174.03 3.5
4 -8 -1 180.7 3.39
4 -8 -1 178.05 3.61
-4 8 -1 180.26 3.39
4 -8 2 1.35 0.12
4 8 -2 1.48 0.07
4 8 -2 1.28 0.13
4 -8 -2 1.1 0.11
4 8 2 1.32 0.13
-4 -8 2 1.55 0.12
4 -8 -2 1.36 0.07
4 8 -3 79.91 1.57
4 -8 3 80.77 1.67
4 8 -3 75.78 1.66
4 8 3 77.76 1.64
-4 -8 3 78.21 1.61
4 -8 -3 77.06 1.66
4 -8 -3 77.65 1.74
4 -8 4 2.79 0.18
4 8 -4 3.07 0.21
-4 -8 4 3.07 0.17
4 8 4 3.34 0.19
4 -8 -4 3.06 0.23
4 -8 -4 2.85 0.2
4 8 -5 26.3 0.73
4 -8 5 26.2 0.69
4 -8 -5 25.56 0.77
-4 -8 5 25.41 0.65
4 8 5 25.69 0.68
4 -8 6 1.01 0.15
4 8 -6 1.21 0.18
-4 -8 6 0.85 0.12
4 -8 -6 0.76 0.16
4 -8 -6 0.88 0.18
4 8 6 0.99 0.15
4 8 -7 83.78 1.95
4 -8 7 83.58 1.88
4 -8 -7 85.73 1.96
4 8 7 84.54 1.86
4 -8 8 3.2 0.28
4 8 -8 3.53 0.33
4 8 8 2.86 0.27
-4 8 9 59.8 1.4
-4 8 9 60.21 1.53
4 8 -9 57.04 1.55
4 8 9 58.94 1.45
4 8 -10 0.03 0.17
-4 8 10 0.14 0.16
-4 8 10 0.13 0.17
4 -8 10 -0.01 0.15
5 8 0 0.05 0.05
5 -8 0 0.08 0.06
-5 8 0 0.07 0.03
-5 8 0 -0.02 0.04
5 8 0 0.03 0.05
5 8 -1 0.27 0.06
5 8 -1 0.28 0.08
5 -8 1 0.22 0.08
5 -8 -1 0.17 0.09
5 -8 -1 0.03 0.06
5 8 1 0.08 0.07
5 8 1 0.04 0.06
-5 8 -1 0.19 0.03
5 -8 -1 0.21 0.05
5 -8 2 6.77 0.26
5 8 -2 6.52 0.27
5 8 -2 6.09 0.2
5 -8 -2 6.38 0.16
5 8 2 6.21 0.25
5 -8 -2 6.09 0.25
-5 -8 2 6.38 0.24
5 8 2 6.03 0.25
5 -8 -2 6.42 0.28
5 8 -3 48.42 1
5 -8 3 46.2 1.08
5 8 -3 47.98 1.1
-5 -8 3 47.79 1.03
5 -8 -3 46.52 1.08
5 8 3 46.31 1.07
5 -8 -3 47.43 1.15
5 8 -4 51.86 1.23
5 -8 4 52.73 1.21
5 -8 -4 51.3 1.29
5 8 4 52.39 1.18
-5 -8 4 52.35 1.14
5 -8 -4 53.48 1.23
5 8 -5 0.28 0.11
5 -8 5 0.46 0.11
5 8 5 0.14 0.09
5 -8 -5 0.31 0.13
-5 -8 5 0.42 0.09
5 -8 -5 0.18 0.1
5 8 -6 7.98 0.39
5 -8 6 7.79 0.34
-5 -8 6 7.48 0.3
5 8 6 7.81 0.35
5 -8 -6 6.67 0.37
5 -8 -6 7.03 0.4
5 8 -7 11.15 0.5
5 -8 7 10.77 0.44
5 8 7 10.31 0.42
5 -8 -7 10.94 0.49
5 8 -8 3.12 0.33
5 -8 8 2.88 0.27
5 8 8 3.32 0.29
5 -8 -8 3.49 0.34
5 8 -9 7.94 0.48
5 -8 10 0.11 0.16
-5 8 10 0.02 0.17
-5 8 10 0.21 0.19
5 8 -10 0.28 0.18
5 8 10 0.03 0.19
6 8 0 8.86 0.31
6 8 0 8.89 0.28
6 -8 0 8.43 0.32
6 -8 1 80.99 1.8
6 8 -1 84.04 1.73
6 8 -1 81.83 1.75
6 8 1 83.89 1.77
-6 8 -1 82.99 1.6
6 8 1 83.54 1.74
6 -8 -1 85.71 1.82
6 -8 -1 83.58 1.7
6 -8 2 12.26 0.41
6 8 -2 12.72 0.42
6 8 -2 13.18 0.35
6 -8 -2 13.39 0.4
6 -8 -2 12.56 0.43
6 -8 -2 12.82 0.29
6 8 2 12.47 0.39
6 8 2 12.26 0.4
6 -8 3 28.6 0.75
6 8 -3 29.07 0.67
6 -8 -3 27.97 0.79
6 -8 -3 28.21 0.73
6 8 3 28.7 0.76
6 8 3 28.83 0.73
6 8 -4 2.15 0.21
6 -8 4 2.53 0.2
6 -8 -4 2.69 0.23
6 8 4 2.37 0.2
-6 -8 4 2.29 0.16
6 -8 -4 2.18 0.23
6 8 4 2.44 0.22
6 -8 5 6.76 0.32
6 8 -5 7.2 0.36
-6 -8 5 7.15 0.28
6 8 5 8.05 0.37
6 -8 -5 6.82 0.35
6 8 5 7.27 0.31
6 -8 -5 7.17 0.38
6 8 -6 2.11 0.25
6 -8 6 2.38 0.23
6 -8 -6 1.77 0.24
6 8 6 2.17 0.21
6 8 6 2.12 0.24
6 -8 -6 2.11 0.24
6 8 -7 35.61 1.05
6 -8 7 37.45 0.99
6 8 7 37.21 0.95
6 -8 -7 36 1.05
6 8 7 35.17 1.04
6 -8 -7 35.49 1.09
6 8 -8 -0.08 0.13
6 -8 8 -0.12 0.11
6 -8 -8 -0.25 0.13
6 8 8 -0.1 0.14
6 8 -9 26.91 0.95
6 8 9 26.5 0.93
6 -8 -9 27.69 0.95
6 8 -10 0.73 0.24
7 8 0 0.1 0.07
7 -8 0 -0.04 0.04
7 -8 0 -0.01 0.07
7 8 0 0.02 0.06
7 8 -1 12.09 0.4
7 8 -1 11.8 0.35
7 -8 1 10.57 0.4
7 -8 -1 11.61 0.35
7 -8 -1 12.36 0.42
7 8 1 11.51 0.38
7 8 1 11.31 0.38
7 -8 2 1.71 0.17
7 8 -2 1.79 0.13
7 8 -2 1.89 0.19
7 8 2 1.47 0.16
7 -8 -2 1.76 0.16
7 -8 -2 1.63 0.18
7 8 2 1.33 0.14
7 8 -3 23.04 0.65
7 -8 3 20.93 0.63
7 8 3 20.84 0.63
7 8 3 22.14 0.6
7 -8 -3 22.22 0.62
7 -8 -3 22.46 0.68
7 -8 4 13.52 0.47
7 8 -4 13.71 0.5
7 8 4 12.88 0.44
7 -8 -4 13.75 0.53
7 8 4 13.55 0.49
7 -8 -4 13.43 0.48
7 -8 5 17.82 0.59
7 8 -5 18.74 0.63
7 -8 -5 17.63 0.66
7 8 5 18.14 0.62
7 -8 -5 18.75 0.61
7 8 5 18.64 0.57
7 -8 6 6.41 0.35
7 8 -6 6.09 0.37
7 -8 -6 6.39 0.37
7 8 6 6.62 0.38
7 -8 -6 6.19 0.39
7 8 6 6.5 0.33
7 -8 7 14.53 0.57
7 8 -7 14.97 0.63
7 -8 -7 17.61 0.68
7 8 7 15.47 0.62
7 -8 -7 15.58 0.63
7 -8 8 4 0.34
7 8 -8 3.49 0.36
7 8 8 2.97 0.32
7 -8 -8 3.99 0.39
7 8 -9 3.02 0.36
7 -8 9 2.45 0.3
7 -8 -9 2.89 0.35
7 8 9 2.53 0.33
8 -8 0 0.35 0.11
8 -8 0 0.43 0.07
8 8 0 0.4 0.09
8 8 0 0.11 0.08
8 -8 1 33.55 0.89
8 8 -1 34.5 0.86
8 8 -1 34.22 0.83
8 8 1 33.18 0.85
8 8 1 35.02 0.84
8 -8 -1 35.14 0.8
8 -8 -1 33.12 0.9
8 8 -2 1.63 0.18
8 8 -2 2.25 0.16
8 -8 2 2.12 0.21
8 8 2 1.71 0.16
8 -8 -2 1.95 0.17
8 8 2 1.67 0.18
8 -8 -2 1.84 0.2
8 8 -3 2.51 0.23
8 -8 3 2.86 0.22
8 -8 -3 2.97 0.27
8 -8 -3 2.25 0.2
8 8 3 2.91 0.22
8 8 3 2.51 0.19
8 -8 4 27.98 0.79
8 8 -4 27.57 0.81
8 -8 -4 27.4 0.84
8 8 4 28.54 0.8
8 8 4 27.67 0.74
8 -8 -4 26.91 0.78
8 -8 5 1.13 0.18
8 8 -5 1 0.19
8 8 5 1.26 0.17
8 8 5 1.29 0.19
8 -8 -5 1.33 0.2
8 -8 -5 1.18 0.21
8 -8 6 0.07 0.12
8 8 -6 0.18 0.14
8 -8 -6 -0.05 0.13
8 -8 -6 0.01 0.13
8 8 6 0.11 0.14
8 8 -7 10.11 0.52
8 -8 7 10.86 0.48
8 8 7 10.08 0.5
8 -8 -7 10.35 0.55
8 -8 -7 9.15 0.5
8 -8 8 21.47 0.76
8 8 -8 22.38 0.84
8 -8 -8 21.54 0.82
8 8 8 22.44 0.82
8 -8 -8 23.96 0.88
8 8 -9 16.76 0.75
8 -8 9 16.96 0.69
8 8 9 18.83 0.76
8 -8 -9 16.29 0.74
9 8 0 -0.02 0.07
9 8 0 0.04 0.08
9 -8 0 0.02 0.09
9 -8 1 82.65 1.84
9 8 -1 80.31 1.76
9 8 -1 78.87 1.75
9 8 1 79.97 1.73
9 8 1 78.45 1.77
9 -8 -1 80.26 1.68
9 -8 -1 80.92 1.84
9 8 -2 10.28 0.37
9 -8 2 10.03 0.42
9 8 -2 10.48 0.41
9 -8 -2 9.67 0.37
9 8 2 10.31 0.37
9 8 2 10.1 0.4
9 -8 -2 9.75 0.43
9 -8 3 54.51 1.37
9 8 -3 56.95 1.36
9 8 3 56.54 1.37
9 -8 -3 56.83 1.32
9 8 3 56.57 1.28
9 -8 -3 57.4 1.42
9 8 -4 8.38 0.41
9 -8 4 7.83 0.39
9 8 4 8.09 0.34
9 -8 -4 6.83 0.4
9 -8 -4 7.85 0.38
9 8 4 8.74 0.41
9 8 -5 101.83 2.26
9 -8 5 96.01 2.24
9 -8 -5 98.64 2.22
9 -8 -5 99.06 2.33
9 8 5 100.44 2.28
9 8 -6 0.1 0.14
9 -8 6 0.27 0.15
9 8 6 0.25 0.15
9 -8 -6 0.3 0.16
9 -8 -6 0.13 0.15
9 8 -7 17.79 0.72
9 -8 7 17.5 0.65
9 -8 -7 16.01 0.71
9 -8 -7 17.45 0.69
9 8 7 18.4 0.7
9 8 -8 0.48 0.22
9 -8 8 0.55 0.2
9 8 8 0.48 0.21
9 -8 -8 0.4 0.21
9 -8 -8 0.67 0.23
9 -8 9 0.28 0.19
10 8 0 1.97 0.2
10 8 0 1.58 0.18
10 -8 0 1.63 0.2
10 -8 1 23.46 0.72
10 8 -1 22.81 0.68
10 8 -1 23.57 0.66
10 8 1 23.27 0.69
10 -8 -1 22.67 0.72
10 8 1 22.9 0.65
10 -8 2 18.76 0.65
10 8 -2 20.79 0.64
10 8 2 19.63 0.58
10 -8 -2 19.6 0.58
10 -8 -2 19.87 0.67
10 8 2 20.12 0.63
10 8 -3 4.25 0.31
10 -8 3 4.2 0.3
10 8 3 3.96 0.24
10 8 3 4.57 0.3
10 -8 -3 4.51 0.28
10 -8 -3 4.43 0.32
10 -8 4 0.82 0.18
10 8 -4 0.46 0.16
10 8 4 0.66 0.17
10 -8 -4 0.9 0.19
10 -8 -4 0.63 0.16
10 -8 5 0.31 0.15
10 8 -5 0.71 0.18
10 8 5 0.28 0.16
10 -8 -5 0.42 0.15
10 -8 -5 0.67 0.19
10 8 -6 9.43 0.52
10 -8 6 9.32 0.47
10 8 6 9.42 0.5
10 -8 -6 10.85 0.55
10 -8 -6 9.62 0.49
10 8 -7 1.72 0.28
10 -8 7 1.13 0.22
10 -8 -7 1.47 0.25
10 8 7 1.18 0.25
10 -8 -7 1.68 0.3
10 -8 8 15.03 0.65
10 8 -8 13.67 0.69
10 -8 -8 14.84 0.71
10 8 8 15.62 0.69
10 -8 -8 14.98 0.68
11 -8 0 0.01 0.11
11 8 0 -0.13 0.08
11 8 0 0.06 0.09
11 8 -1 19.36 0.64
11 -8 1 20.32 0.69
11 8 -1 20.38 0.63
11 8 1 20.63 0.62
11 8 1 20.88 0.66
11 -8 -1 21.6 0.71
11 -8 2 3.22 0.3
11 8 -2 3.39 0.29
11 8 2 3.81 0.24
11 -8 -2 4.25 0.36
11 8 2 3.41 0.27
11 -8 3 17.78 0.64
11 8 -3 18.04 0.64
11 8 3 18.39 0.64
11 -8 -3 17.07 0.66
11 -8 -3 18.5 0.6
11 -8 4 1.36 0.22
11 8 -4 0.98 0.2
11 8 4 1.63 0.24
11 -8 -4 1.61 0.22
11 -8 -4 1.97 0.28
11 8 -5 68.75 1.72
11 -8 5 69.66 1.72
11 8 5 68.39 1.72
11 -8 -5 69.09 1.67
11 -8 -5 67.02 1.78
11 -8 6 -0.08 0.15
11 8 -6 0.01 0.15
11 -8 -6 -0.07 0.15
11 -8 -6 0.03 0.15
11 8 6 0.02 0.15
11 -8 7 20 0.76
11 8 -7 21.24 0.83
11 8 7 20.5 0.8
11 -8 -7 20.46 0.85
11 -8 -7 20.41 0.79
11 -8 8 1.58 0.28
12 8 0 21.98 0.71
12 -8 0 23.46 0.78
12 8 0 23.36 0.7
12 -8 1 20.62 0.7
12 8 -1 19.72 0.64
12 -8 -1 18.55 0.69
12 8 1 18.68 0.6
12 8 1 19.17 0.65
12 -8 2 49.3 1.33
12 8 -2 50.35 1.28
12 8 2 50.82 1.3
12 -8 -2 49.66 1.34
12 8 -3 2.59 0.29
12 -8 3 3.69 0.35
12 8 3 3.16 0.31
12 -8 -3 2.9 0.32
12 8 -4 1.08 0.22
12 -8 4 1.17 0.23
12 8 4 1.19 0.22
12 -8 -4 1.19 0.23
12 -8 -4 1.16 0.21
12 -8 5 0.24 0.17
12 8 -5 0.06 0.16
12 -8 -5 0.15 0.17
12 8 5 -0.12 0.14
12 -8 -5 0.11 0.15
12 -8 6 11.3 0.56
12 8 -6 12.81 0.62
12 8 6 12.21 0.59
12 -8 -6 12.1 0.63
12 -8 -6 12.14 0.58
12 -8 7 6.69 0.46
12 8 -7 7.93 0.54
12 -8 -7 7.92 0.5
12 -8 -7 8.25 0.54
12 8 7 7.1 0.55
13 8 0 -0.09 0.11
13 8 0 0.18 0.12
13 -8 0 0.25 0.16
13 -8 1 1.91 0.26
13 8 -1 2 0.24
13 8 1 2.59 0.28
13 -8 -1 1.92 0.26
13 -8 2 3.58 0.34
13 8 -2 4.03 0.31
13 8 2 3.24 0.32
13 -8 -2 4.23 0.38
13 8 -3 22.75 0.79
13 -8 3 22.7 0.82
13 -8 -3 24.43 0.85
13 8 3 24.43 0.81
13 8 -4 16.94 0.68
13 -8 4 17.74 0.71
13 -8 -4 17.71 0.73
13 8 4 16.94 0.68
13 -8 5 40.87 1.23
13 8 -5 41.44 1.24
13 -8 -5 41.34 1.29
13 8 5 43.46 1.24
13 -8 6 7.22 0.47
13 8 -6 7.24 0.51
13 -8 -6 6.83 0.51
13 8 6 6.91 0.47
13 -8 -6 6.24 0.44
14 -8 0 1.9 0.27
14 -8 1 62.75 1.67
14 -8 -1 65.48 1.69
14 8 1 64.01 1.62
14 -8 2 4.69 0.41
14 8 -2 4.54 0.38
14 -8 -2 4.6 0.42
14 8 2 4.4 0.38
14 -8 3 15.65 0.68
14 8 -3 16.36 0.66
14 -8 -3 16.43 0.71
14 8 3 16.48 0.68
14 -8 4 9.02 0.54
14 8 -4 9.23 0.53
14 -8 -4 9.21 0.56
14 8 4 9.73 0.53
14 8 -5 -0.08 0.18
14 -8 5 0.27 0.2
14 8 5 0.1 0.17
14 -8 -5 0.05 0.18
14 -8 -6 1.17 0.29
15 -8 0 0.19 0.17
15 -8 1 4.49 0.43
15 -8 -1 4.1 0.41
15 8 1 4.61 0.39
15 -8 2 7.26 0.48
15 -8 -2 7.4 0.5
15 8 2 7.2 0.45
15 8 -3 0.9 0.23
15 -8 3 1.33 0.27
15 -8 -3 1.13 0.26
15 8 3 0.65 0.2
15 8 -4 13.52 0.65
15 8 4 12.98 0.63
15 -8 -4 13.62 0.69
15 -8 -5 11.67 0.71
16 -8 0 6.5 0.47
16 -8 -1 19.13 0.81
16 8 2 4.95 0.45
16 -8 -2 4.48 0.46
16 8 3 11.8 0.62
0 -9 0 0.07 0.04
0 9 0 0.09 0.05
0 -9 0 0.05 0.04
0 -9 1 0.05 0.03
0 -9 1 0.01 0.04
0 9 1 0.09 0.04
0 -9 -1 0.05 0.04
0 -9 -1 0.23 0.05
0 9 -1 -0.01 0.03
0 -9 2 116.44 2.24
0 9 2 115.43 2.27
0 -9 -2 110.81 2.35
0 9 -2 115.39 2.24
0 -9 2 109.81 2.24
0 -9 3 0.14 0.04
0 -9 3 -0.02 0.05
0 9 -3 -0.06 0.04
0 9 3 0.11 0.06
0 -9 4 108.6 2.19
0 9 4 107.75 2.24
0 9 -4 110.21 2.22
0 -9 4 109.88 2.21
0 -9 5 0 0.05
0 9 5 0.18 0.09
0 9 5 -0.08 0.07
0 -9 5 0.01 0.07
0 9 -5 -0.01 0.06
0 9 6 127.73 2.65
0 -9 6 125.95 2.6
0 9 -6 127.1 2.64
0 9 6 128.3 2.44
0 9 7 0 0.1
0 -9 7 -0.09 0.08
0 9 7 -0.01 0.1
0 9 -7 0.14 0.1
0 9 8 21.11 0.64
0 -9 8 20.85 0.65
0 9 8 21.97 0.7
0 9 -8 21.41 0.69
0 9 9 0 0.13
0 -9 9 0.14 0.13
0 9 9 -0.21 0.12
0 9 10 0.13 0.18
1 -9 0 46.71 0.95
1 -9 0 46.11 0.98
-1 -9 0 45.35 0.96
1 9 0 44.04 0.97
-1 9 0 45.51 0.95
1 -9 1 10.1 0.26
-1 9 1 9.78 0.28
1 -9 1 10.05 0.28
1 9 -1 9.87 0.29
-1 9 -1 9.71 0.26
1 -9 -1 9.88 0.31
-1 -9 1 9.94 0.23
1 9 1 10.42 0.3
-1 -9 1 9.49 0.28
1 -9 -1 9.75 0.26
1 -9 2 33.79 0.75
1 9 -2 32.85 0.74
1 -9 2 34.49 0.72
-1 9 2 33.27 0.75
1 9 2 32.19 0.75
1 -9 -2 33.43 0.8
-1 -9 2 32.49 0.74
-1 9 -2 33.54 0.71
1 -9 3 8.77 0.29
-1 9 3 8.19 0.26
1 9 -3 7.58 0.27
1 -9 3 8.5 0.24
-1 9 3 8.4 0.29
1 9 3 8.46 0.29
-1 -9 3 8.66 0.2
1 -9 -3 7.77 0.32
-1 -9 3 8.43 0.28
-1 9 -3 8.2 0.25
1 -9 4 21.91 0.51
-1 9 4 21.28 0.52
1 9 -4 21.23 0.56
1 -9 4 21.57 0.56
-1 9 4 20.87 0.57
-1 -9 4 21.24 0.55
-1 9 -4 20.62 0.53
-1 -9 4 20.9 0.47
1 -9 5 11.19 0.35
1 9 -5 12.23 0.41
-1 9 5 12.05 0.42
-1 9 5 13.25 0.39
1 -9 5 11.84 0.4
1 9 5 12.41 0.41
-1 -9 5 11.98 0.39
-1 9 -5 12.58 0.39
-1 -9 5 12.07 0.33
1 9 -6 6.47 0.31
1 -9 6 6.5 0.26
1 -9 6 6.5 0.3
-1 9 6 6.5 0.32
-1 9 6 7.18 0.3
1 9 6 6.61 0.31
-1 -9 6 5.98 0.28
-1 9 -6 6.77 0.29
1 9 -7 8.11 0.38
-1 9 7 8.44 0.36
-1 9 7 8.79 0.39
1 -9 7 8.67 0.37
-1 9 -7 7.92 0.36
-1 -9 7 9.09 0.36
1 9 7 9.84 0.4
-1 9 8 1.5 0.19
1 9 -8 1.07 0.2
1 -9 8 1.16 0.18
-1 9 8 1.16 0.2
-1 -9 8 1.65 0.2
1 9 8 1.16 0.19
1 -9 9 46.06 1.16
1 9 -9 41.33 1.19
-1 9 9 45.87 1.11
-1 9 9 44 1.2
1 9 9 45.81 1.2
-1 9 10 1.15 0.24
-1 9 10 1.15 0.22
1 9 10 1.14 0.23
2 -9 0 -0.11 0.03
2 9 0 -0.01 0.05
-2 -9 0 -0.02 0.04
-2 9 0 -0.01 0.03
2 -9 0 -0.06 0.04
2 -9 1 1.46 0.1
2 9 -1 1.42 0.11
-2 9 1 1.23 0.09
2 -9 1 1.15 0.09
-2 9 -1 1.26 0.08
-2 -9 1 1.38 0.11
2 -9 -1 1.31 0.08
2 -9 2 171.98 3.27
2 -9 2 157.47 3.33
-2 9 2 169.49 3.28
2 9 -2 164.71 3.29
-2 9 2 166.83 3.01
-2 -9 2 166.96 3.26
-2 9 -2 168.77 3.22
2 -9 -2 173.18 3.42
2 9 2 169.28 3.3
2 -9 3 105.25 2.14
-2 9 3 101.24 1.97
2 -9 3 105.94 2.16
-2 9 3 107.86 2.16
2 9 -3 108.37 2.17
2 -9 -3 107.14 2.27
-2 -9 3 108.32 2.13
-2 9 -3 107.15 2.09
2 9 3 104.78 2.16
-2 9 4 29.54 0.69
2 -9 4 30.39 0.71
2 9 -4 31.05 0.76
-2 9 4 30.13 0.76
-2 -9 4 31.74 0.64
2 9 4 29.61 0.74
-2 9 -4 30.99 0.7
-2 -9 4 30.72 0.73
2 -9 -4 30.74 0.83
2 -9 5 7.96 0.28
-2 9 5 7.77 0.3
2 9 -5 8.77 0.34
-2 9 5 7.8 0.33
2 -9 5 7.83 0.32
-2 9 -5 8.6 0.29
2 9 5 7.81 0.32
-2 -9 5 8.41 0.3
2 9 -6 31.65 0.87
2 -9 6 33.29 0.82
2 -9 6 32.96 0.85
-2 9 6 33.36 0.81
-2 9 6 33.62 0.88
2 9 6 32.94 0.86
-2 -9 6 33.24 0.82
-2 9 -6 34.26 0.82
2 9 -7 5.26 0.32
2 -9 7 4.95 0.29
-2 9 7 5.46 0.29
-2 9 7 5.33 0.32
2 9 7 4.91 0.3
-2 -9 7 5.04 0.27
2 -9 8 21.78 0.68
-2 9 8 22.43 0.73
2 9 -8 21.29 0.73
-2 9 8 21.72 0.66
2 9 8 21.13 0.69
-2 -9 8 22.6 0.65
2 -9 9 0.14 0.13
2 9 -9 0.08 0.14
-2 9 9 0.29 0.15
-2 9 9 0.26 0.16
2 9 9 0.27 0.15
-2 9 10 1.94 0.26
-2 9 10 1.86 0.28
2 -9 10 1.87 0.26
2 9 -10 1.95 0.29
2 9 10 1.69 0.25
2 9 11 0.22 0.19
3 -9 0 71.32 1.56
-3 9 0 75.07 1.47
3 -9 0 75.2 1.48
3 9 0 74.3 1.54
3 -9 1 172.55 3.28
3 9 -1 173.47 3.31
3 9 -1 165.72 3.33
-3 9 1 170.38 3.29
3 -9 1 166.33 3.39
3 9 1 167.04 3.34
3 -9 -1 173.52 3.24
3 -9 -1 172.76 3.43
-3 9 -1 164.88 3.25
-3 -9 1 167.04 3.29
3 -9 2 70.75 1.48
-3 9 2 72.89 1.49
3 -9 2 72.38 1.51
-3 9 2 72.36 1.37
3 9 -2 71.25 1.51
-3 -9 2 73.95 1.49
-3 9 -2 71.69 1.4
3 -9 -2 71.46 1.4
3 9 2 70.04 1.51
3 -9 -2 72.05 1.58
-3 9 3 11.98 0.37
-3 9 3 12.27 0.34
3 9 -3 11.82 0.38
3 -9 3 11.75 0.35
3 9 3 12.08 0.37
-3 -9 3 12.28 0.36
-3 9 -3 12.13 0.3
-3 9 4 50.39 1.17
3 -9 4 50.05 1.14
-3 9 4 52.21 1.08
3 9 -4 51.48 1.18
3 9 4 51.82 1.16
-3 -9 4 52.85 1.13
3 -9 -4 52.64 1.26
-3 9 -4 51.49 1.07
3 -9 5 0.9 0.12
3 9 -5 0.9 0.14
-3 9 5 0.86 0.13
-3 9 5 0.86 0.13
3 9 5 0.8 0.13
3 -9 -5 0.71 0.15
-3 -9 5 0.84 0.12
-3 9 -5 0.75 0.1
-3 9 6 34.21 0.83
3 9 -6 33.62 0.92
-3 9 6 35.3 0.91
3 -9 6 33.57 0.85
-3 -9 6 34.3 0.83
3 9 6 34.31 0.88
-3 9 7 0.73 0.16
3 -9 7 0.81 0.15
3 -9 7 0.87 0.16
-3 9 7 0.85 0.18
3 9 -7 0.62 0.16
3 9 7 0.99 0.16
-3 -9 7 0.98 0.14
-3 9 8 19.52 0.69
3 -9 8 20.47 0.67
3 9 -8 20.57 0.72
-3 9 8 21.1 0.65
3 9 8 20.38 0.66
3 -9 9 3.62 0.32
-3 9 9 4.29 0.34
-3 9 9 3.73 0.35
3 9 -9 4.17 0.38
3 9 9 3.76 0.33
3 9 -10 28.79 0.97
-3 9 10 29.18 0.87
3 -9 10 29.58 0.91
-3 9 10 28.06 0.94
3 9 10 28.1 0.89
4 9 0 0.02 0.04
4 9 0 0.02 0.05
4 -9 0 -0.02 0.04
-4 9 0 0 0.03
4 -9 0 -0.05 0.05
-4 9 1 7.64 0.22
4 -9 1 7.48 0.27
4 9 -1 8.2 0.21
-4 9 1 7.96 0.24
4 9 -1 8.09 0.28
4 9 1 7.76 0.28
4 -9 -1 7.9 0.22
4 -9 -1 7.59 0.29
-4 -9 1 7.82 0.27
-4 9 -1 8.02 0.2
-4 9 2 7.07 0.25
4 9 -2 7.63 0.28
4 -9 2 7.46 0.27
-4 9 2 7.61 0.24
4 9 -2 7.34 0.19
4 -9 -2 7.18 0.3
4 9 2 7.52 0.28
-4 -9 2 8.08 0.27
4 -9 -2 7.73 0.2
4 9 -3 30.52 0.63
4 -9 3 31.07 0.74
4 9 -3 30.01 0.76
4 9 3 31.19 0.76
-4 -9 3 31.15 0.73
-4 9 -3 29.93 0.62
4 -9 -3 30 0.81
4 -9 4 2.7 0.17
4 9 -4 2.54 0.2
4 9 4 2.41 0.17
4 -9 -4 2.58 0.19
-4 -9 4 2.27 0.16
4 -9 -4 2.23 0.22
4 -9 5 31.83 0.81
4 9 -5 31.62 0.87
4 9 5 32.97 0.83
-4 -9 5 33.41 0.79
4 -9 -5 32.71 0.93
4 -9 -5 34.36 0.88
4 9 -6 10.53 0.44
4 -9 6 9.84 0.38
-4 -9 6 10.26 0.36
4 -9 -6 10.16 0.44
4 9 6 10.24 0.39
4 -9 -6 10.75 0.48
4 -9 7 37.68 0.98
4 9 -7 38.37 1.05
4 9 7 38.13 0.98
-4 9 8 -0.13 0.12
4 9 -8 -0.05 0.13
-4 9 8 0.11 0.12
4 9 8 0.04 0.12
4 -9 9 1.69 0.25
4 9 -9 1.63 0.27
-4 9 9 2.5 0.3
-4 9 9 2.14 0.27
4 9 9 1.78 0.24
-4 9 10 0.31 0.18
4 9 -10 0.23 0.19
-4 9 10 0.14 0.17
4 -9 10 0.24 0.17
-5 9 0 338.89 6.33
-5 9 0 339.01 5.82
5 9 0 334.86 6.54
5 -9 0 314.35 6.6
5 9 0 336.73 6.44
5 9 -1 0.01 0.06
5 9 -1 0.19 0.05
-5 9 1 0.2 0.05
5 -9 1 0.29 0.08
-5 9 1 0.16 0.06
5 9 1 0.19 0.06
5 9 1 0.15 0.07
-5 9 -1 0.24 0.04
5 -9 -1 0.24 0.08
5 -9 -1 0.19 0.05
5 9 -2 80.28 1.63
5 9 -2 78.41 1.7
5 -9 2 80.08 1.72
-5 -9 2 80.07 1.66
5 -9 -2 80.24 1.68
5 9 2 80.21 1.72
5 9 2 77.88 1.69
5 -9 -2 82.94 1.55
5 -9 -2 81.78 1.78
5 -9 3 3.32 0.19
5 9 -3 2.92 0.2
5 9 -3 3.18 0.13
5 -9 -3 3.21 0.22
5 -9 -3 3.14 0.2
-5 -9 3 3.04 0.17
5 9 3 2.62 0.19
5 9 -4 1.63 0.19
5 -9 4 1.4 0.15
5 9 4 1.37 0.16
5 -9 -4 1.46 0.17
-5 -9 4 1.89 0.16
5 -9 -4 1.57 0.2
5 -9 5 13.71 0.45
5 9 -5 13.05 0.49
5 -9 -5 12.53 0.51
5 9 5 13.25 0.45
-5 -9 5 12.89 0.41
5 -9 6 46.57 1.14
5 9 -6 47.69 1.21
5 -9 -6 45.85 1.2
-5 -9 6 47.88 1.08
5 -9 -6 45.09 1.25
5 9 6 46.66 1.13
5 -9 7 1.85 0.21
5 9 -7 1.48 0.22
5 -9 -7 1.7 0.23
5 9 7 1.73 0.21
5 -9 8 35.42 0.97
5 9 -8 36.04 1.07
5 9 8 35.11 0.96
-5 9 9 7.71 0.46
5 9 -9 6.82 0.47
-5 9 9 7.38 0.41
5 -9 10 26.69 0.89
5 9 -10 26.61 0.95
6 9 0 -0.01 0.05
-6 9 0 0.04 0.04
6 -9 0 -0.05 0.05
6 9 0 -0.01 0.06
-6 9 0 0.03 0.04
6 9 -1 1.18 0.11
6 9 -1 0.64 0.11
6 -9 1 0.96 0.13
6 9 1 0.89 0.11
6 -9 -1 1.07 0.09
-6 9 -1 0.89 0.05
6 9 1 0.99 0.12
6 -9 -1 0.82 0.1
6 -9 -1 0.92 0.14
6 -9 2 5.28 0.25
6 9 -2 5.29 0.2
6 9 -2 5.33 0.26
6 -9 -2 5.82 0.28
6 -9 -2 5.65 0.16
6 9 2 5.88 0.26
6 -9 -2 5.54 0.24
6 9 2 5.28 0.24
6 9 -3 150.53 3.03
6 -9 3 150.71 3.07
6 -9 -3 144.15 3.13
6 -9 -3 151.43 3.01
6 9 3 144.49 2.99
-6 -9 3 146.63 2.93
6 9 3 146.09 3.08
6 9 -4 3.59 0.25
6 -9 4 4.07 0.24
6 -9 -4 4.32 0.28
6 -9 -4 4.12 0.25
6 9 4 3.88 0.23
6 9 4 3.55 0.24
-6 -9 4 3.91 0.2
6 -9 5 27.32 0.76
6 9 -5 28.77 0.82
6 9 5 28.53 0.76
6 -9 -5 27.1 0.79
-6 -9 5 27.65 0.7
6 -9 -5 26.41 0.84
6 9 -6 1.25 0.21
6 -9 6 1.37 0.18
6 9 6 1.45 0.18
6 -9 -6 1.42 0.21
6 -9 -6 1.3 0.22
6 -9 7 25.5 0.76
6 9 -7 24.97 0.83
6 9 7 25.19 0.74
6 -9 -7 23.99 0.81
6 -9 -7 25.06 0.87
6 9 -8 1.61 0.25
6 -9 8 1.31 0.21
6 9 8 1.02 0.22
6 -9 -8 1 0.22
-6 9 9 5.87 0.41
6 9 -9 6.47 0.47
-6 9 9 6.17 0.39
6 9 9 5.53 0.43
6 9 -10 0.4 0.24
6 -9 10 0.17 0.18
7 9 0 59.66 1.31
7 -9 0 58.75 1.38
7 9 0 60.24 1.33
-7 9 0 60.92 1.22
7 -9 1 55.98 1.29
7 9 -1 53.84 1.2
7 9 -1 55.71 1.25
7 -9 -1 54.43 1.29
7 -9 -1 55.88 1.18
7 9 1 54.85 1.24
7 9 1 54.45 1.23
7 9 -2 27.94 0.67
7 -9 2 28.2 0.75
7 9 -2 28.77 0.75
7 9 2 28.09 0.72
7 9 2 27.41 0.73
7 -9 -2 27.21 0.7
7 -9 -2 27.77 0.78
7 9 -3 22.56 0.66
7 -9 3 22.25 0.64
7 -9 -3 23.58 0.7
7 -9 -3 22.01 0.63
7 9 3 21.5 0.64
7 9 3 21.87 0.61
7 -9 4 17.69 0.58
7 9 -4 20.14 0.63
7 -9 -4 18.55 0.59
7 -9 -4 19.46 0.66
7 9 4 18.79 0.56
7 9 4 18.61 0.6
7 9 -5 0.25 0.12
7 -9 5 0.18 0.11
7 -9 -5 0.25 0.14
7 9 5 0.26 0.13
7 9 5 0.5 0.13
-7 -9 5 0.3 0.09
7 -9 -5 0.43 0.14
7 9 -6 2.67 0.28
7 -9 6 2.34 0.24
7 -9 -6 2.66 0.28
7 9 6 2.27 0.25
7 9 6 2.77 0.25
7 -9 -6 2.98 0.33
7 9 -7 5.61 0.39
7 -9 7 5.9 0.36
7 -9 -7 6.36 0.42
7 -9 -7 5.77 0.38
7 9 7 6.81 0.41
7 -9 8 18.85 0.67
7 9 -8 18.72 0.74
7 -9 -8 16.93 0.71
7 9 8 17.97 0.71
7 9 -9 0.51 0.21
7 9 9 0.6 0.23
8 -9 0 0.01 0.08
8 9 0 -0.03 0.06
8 9 0 0.03 0.07
8 9 -1 0.27 0.08
8 9 -1 0.31 0.1
8 -9 1 0.37 0.11
8 9 1 0.08 0.08
8 -9 -1 0.21 0.07
8 -9 -1 0.31 0.11
8 9 1 0.25 0.09
8 9 -2 55.9 1.25
8 9 -2 56.82 1.32
8 -9 2 54.45 1.33
8 -9 -2 56.66 1.26
8 9 2 57.02 1.27
8 -9 -2 56.15 1.37
8 9 2 56.5 1.31
8 9 -3 39.65 1.03
8 -9 3 41.51 1.04
8 9 3 40.79 0.98
8 9 3 40.7 1.03
8 -9 -3 40.61 1.08
8 -9 -3 39.13 0.99
8 -9 4 31.47 0.88
8 9 -4 30.12 0.89
8 9 4 33.88 0.9
8 -9 -4 33 0.95
8 -9 -4 31.21 0.86
8 9 4 32.17 0.83
8 9 -5 26.36 0.82
8 -9 5 25.67 0.78
8 9 5 25.74 0.74
8 9 5 27.9 0.82
8 -9 -5 27.14 0.8
8 -9 -5 25.81 0.86
8 -9 6 27.06 0.81
8 9 -6 26.17 0.85
8 -9 -6 26.91 0.9
8 9 6 25.34 0.83
8 -9 -6 27.4 0.85
8 -9 7 4.73 0.34
8 9 -7 4.36 0.39
8 -9 -7 4.9 0.37
8 -9 -7 5.39 0.42
8 9 7 6.15 0.4
8 -9 8 2.41 0.28
8 9 -8 3.21 0.36
8 9 8 2.42 0.31
8 -9 -8 3 0.34
8 -9 -8 3.21 0.38
8 -9 9 7.75 0.46
8 9 -9 7.22 0.51
8 -9 -9 8.06 0.51
8 9 9 8.46 0.52
9 -9 0 67.26 1.62
9 9 0 71.57 1.56
9 9 0 70.8 1.56
9 9 -1 27.44 0.71
9 -9 1 26.99 0.78
9 9 -1 26.93 0.74
9 9 1 27.11 0.72
9 -9 -1 25.77 0.78
9 -9 -1 27.45 0.69
9 9 1 26.33 0.73
9 9 -2 9.62 0.4
9 -9 2 9.29 0.41
9 9 2 8.89 0.36
9 -9 -2 9.41 0.35
9 -9 -2 9.63 0.43
9 9 2 9.28 0.38
9 -9 3 0.79 0.16
9 9 -3 0.75 0.15
9 -9 -3 0.78 0.17
9 9 3 1.04 0.17
9 -9 -3 0.64 0.13
9 9 3 1.15 0.16
9 -9 4 0.88 0.17
9 9 -4 0.98 0.19
9 -9 -4 0.64 0.15
9 -9 -4 0.92 0.2
9 9 4 0.73 0.14
9 9 4 0.94 0.17
9 9 -5 0.23 0.15
9 -9 5 0.27 0.14
9 -9 -5 0.23 0.15
9 9 5 0.21 0.14
9 -9 -5 0.04 0.12
9 -9 6 10.86 0.48
9 9 -6 10.9 0.53
9 -9 -6 10.31 0.49
9 -9 -6 11.09 0.55
9 9 6 10.69 0.51
9 -9 7 11.49 0.53
9 9 -7 12.84 0.6
9 9 7 11.35 0.55
9 -9 -7 11.22 0.55
9 -9 -7 11.38 0.59
9 9 -8 5.29 0.46
9 -9 8 4.66 0.37
9 -9 -8 5.19 0.44
9 9 8 5.05 0.45
9 -9 -8 5.7 0.45
9 -9 9 19.37 0.74
10 -9 0 -0.04 0.1
10 9 0 0.39 0.12
10 9 0 0.19 0.1
10 9 -1 1.29 0.18
10 9 -1 1.26 0.16
10 -9 1 1.16 0.18
10 9 1 1.63 0.19
10 9 1 1.28 0.19
10 -9 -1 1.12 0.18
10 -9 2 38.04 1.02
10 9 -2 35.64 0.97
10 -9 -2 36.12 1.02
10 -9 -2 36.53 0.92
10 9 2 36.51 0.97
10 9 2 37.07 0.93
10 -9 3 12.92 0.52
10 9 -3 13.81 0.53
10 9 3 14.24 0.53
10 -9 -3 14.55 0.57
10 9 3 13.34 0.47
10 -9 -3 14.04 0.49
10 9 -4 37.88 1.07
10 -9 4 37.9 1.06
10 9 4 39.79 1.07
10 -9 -4 37.75 1.11
10 -9 -4 38 1.02
10 -9 5 6.22 0.38
10 9 -5 6.17 0.4
10 9 5 6.59 0.39
10 -9 -5 6.9 0.45
10 -9 -5 6.22 0.37
10 9 -6 46.27 1.3
10 -9 6 47.01 1.27
10 -9 -6 46.69 1.26
10 -9 -6 45.93 1.36
10 9 6 46.13 1.29
10 -9 7 0.24 0.16
10 9 -7 0.13 0.18
10 -9 -7 0.06 0.16
10 9 7 0.14 0.18
10 -9 -7 0.3 0.2
10 -9 8 11.62 0.57
10 9 -8 10.54 0.61
10 9 8 10.53 0.58
10 -9 -8 11.67 0.6
10 -9 -8 11.37 0.63
11 -9 0 11.36 0.5
11 9 0 11.17 0.44
11 9 0 11.44 0.44
11 -9 1 37.05 1.04
11 9 -1 37.69 0.99
11 9 1 38 0.96
11 -9 -1 37.28 1.05
11 9 1 36.69 0.99
11 -9 2 0.35 0.15
11 9 -2 0.32 0.14
11 9 2 0.57 0.15
11 9 2 0.61 0.14
11 -9 -2 0.58 0.16
11 9 -3 3.51 0.32
11 -9 3 3.94 0.33
11 9 3 3.12 0.3
11 -9 -3 3.35 0.29
11 -9 -3 3.24 0.32
11 9 -4 4.32 0.34
11 -9 4 4.63 0.34
11 9 4 4.4 0.33
11 -9 -4 4.13 0.31
11 -9 -4 4.72 0.36
11 -9 5 4.32 0.37
11 9 -5 3.89 0.37
11 -9 -5 4.06 0.4
11 -9 -5 3.28 0.32
11 9 5 4.55 0.35
11 9 -6 0.36 0.19
11 -9 6 0.73 0.2
11 -9 -6 0.66 0.22
11 -9 -6 0.78 0.21
11 9 6 0.35 0.2
11 9 -7 0.8 0.24
11 -9 7 1.39 0.26
11 9 7 1.6 0.29
11 -9 -7 1.07 0.27
11 -9 -7 1.25 0.27
11 -9 8 0.62 0.23
12 -9 0 0.16 0.14
12 9 0 0.25 0.12
12 9 0 -0.06 0.1
12 9 -1 6.93 0.37
12 -9 1 6.19 0.38
12 9 1 6.02 0.35
12 -9 -1 6.55 0.39
12 9 1 6.11 0.33
12 -9 2 26.52 0.86
12 9 -2 28.11 0.84
12 -9 -2 27.01 0.88
12 9 2 26.92 0.83
12 9 -3 4.15 0.35
12 -9 3 4.35 0.37
12 9 3 4.08 0.32
12 -9 -3 4.13 0.37
12 9 -4 23.85 0.82
12 -9 4 21.83 0.8
12 9 4 24.73 0.81
12 -9 -4 24.92 0.88
12 9 -5 2.67 0.32
12 -9 5 2.64 0.32
12 9 5 3.39 0.35
12 -9 -5 3.65 0.39
12 -9 -5 2.73 0.31
12 -9 6 17.34 0.7
12 9 -6 18.65 0.76
12 -9 -6 18.3 0.72
12 9 6 16.74 0.71
12 -9 -6 17.69 0.78
12 -9 7 2.47 0.32
12 -9 -7 2.3 0.33
12 -9 -7 2.32 0.36
13 9 0 15.66 0.57
13 -9 0 15.9 0.64
13 -9 1 8.82 0.48
13 9 -1 8.14 0.42
13 9 1 8.48 0.43
13 -9 -1 8.93 0.48
13 9 -2 5.7 0.37
13 -9 2 6 0.4
13 -9 -2 5.68 0.4
13 9 2 5.97 0.37
13 9 -3 -0.08 0.13
13 -9 3 0.21 0.17
13 9 3 0.15 0.15
13 -9 -3 0.1 0.15
13 9 -4 1.99 0.28
13 -9 4 1.89 0.28
13 -9 -4 1.74 0.29
13 9 4 1.41 0.25
13 -9 5 0.82 0.22
13 9 -5 0.48 0.21
13 9 5 0.53 0.2
13 -9 -5 0.76 0.23
13 -9 6 5.4 0.43
13 9 -6 5.68 0.49
13 -9 -6 4.61 0.48
13 -9 -6 5.13 0.43
13 9 6 5.21 0.46
14 -9 0 -0.07 0.15
14 9 -1 0.56 0.18
14 -9 1 0.76 0.21
14 -9 -1 0.52 0.19
14 9 1 0.76 0.2
14 9 -2 2.9 0.31
14 -9 2 3.54 0.36
14 9 2 2.75 0.31
14 -9 -2 3.21 0.37
14 -9 3 17.74 0.73
14 9 -3 18.5 0.72
14 -9 -3 19 0.76
14 9 3 18.83 0.72
14 -9 4 11.54 0.59
14 9 -4 11.21 0.57
14 -9 -4 12.03 0.63
14 9 4 10.92 0.56
14 9 -5 10.23 0.57
14 9 5 9.7 0.56
14 -9 -5 9.58 0.58
14 -9 -6 6.62 0.53
15 -9 0 39.11 1.2
15 -9 1 1.92 0.29
15 -9 -1 2.54 0.34
15 -9 2 13.42 0.64
15 -9 -2 13.63 0.65
15 9 2 13.73 0.62
15 9 -3 0.21 0.18
15 -9 3 0.15 0.19
15 -9 -3 0.05 0.16
15 9 3 0.03 0.16
15 9 -4 10.04 0.56
15 9 4 9.14 0.54
15 -9 -4 8.31 0.56
16 -9 -1 1.55 0.33
16 9 2 0.39 0.2
16 9 3 14.61 0.72
0 -10 0 131.1 2.72
0 -10 0 138.75 2.66
0 10 0 138.04 2.68
0 10 1 -0.01 0.05
0 -10 1 0.01 0.03
0 -10 -1 0.03 0.05
0 -10 1 -0.02 0.04
0 10 -1 0.04 0.04
0 -10 -1 0 0.04
0 -10 -2 187.11 3.65
0 10 -2 182.95 3.5
0 10 2 179.57 3.52
0 -10 2 173.01 3.52
0 -10 2 175.79 3.49
0 -10 3 -0.02 0.03
0 10 -3 -0.04 0.04
0 -10 3 0.04 0.06
0 10 3 0.01 0.06
0 10 -4 37.78 0.87
0 10 4 36.49 0.89
0 -10 4 37.71 0.87
0 -10 4 37.91 0.8
0 -10 5 0.08 0.05
0 10 5 -0.05 0.08
0 -10 5 -0.04 0.07
0 10 -5 -0.03 0.06
0 10 6 51.61 1.1
0 10 -6 49.21 1.17
0 -10 6 49.73 1.16
0 10 6 49.92 1.2
0 10 7 0.13 0.11
0 10 -7 -0.11 0.09
0 -10 7 0.04 0.1
0 10 7 0.09 0.1
0 10 8 71.97 1.67
0 -10 8 70.22 1.6
0 10 -8 69.11 1.65
0 10 9 -0.05 0.13
0 -10 9 0.11 0.13
0 10 10 29.93 0.95
1 -10 0 0.07 0.05
1 -10 0 0.01 0.04
-1 10 0 0.03 0.04
1 10 0 0.08 0.05
-1 -10 0 0.03 0.04
-1 10 1 54.8 1.13
1 10 -1 56.47 1.15
1 -10 1 55.41 1.13
1 -10 1 55.59 1.13
-1 10 -1 53.54 1.12
1 -10 -1 53.06 1.19
-1 -10 1 53.11 1.1
1 -10 -1 51.37 1.11
1 10 1 54.79 1.16
-1 10 2 91.97 1.97
1 -10 2 104.95 1.97
1 -10 2 96.5 1.96
1 10 -2 93.22 1.97
-1 -10 2 97.13 1.96
1 -10 -2 98.21 2.07
1 10 2 98.78 1.99
-1 10 -2 101.6 1.94
1 -10 3 95.71 1.91
-1 10 3 96.79 1.92
1 10 -3 95.01 1.91
1 -10 3 90.14 1.88
1 -10 -3 92.24 2.01
-1 -10 3 91.49 1.89
-1 -10 3 94.77 1.83
1 10 3 91.58 1.92
-1 10 -3 90.88 1.87
1 -10 4 2.68 0.17
-1 10 4 2.71 0.18
1 10 -4 2.51 0.17
-1 10 4 2.75 0.17
1 -10 4 2.4 0.13
-1 -10 4 2.38 0.16
-1 10 -4 2.66 0.15
-1 -10 4 2.53 0.1
1 10 4 2.34 0.17
1 10 -5 58.52 1.33
-1 10 5 59.99 1.23
1 -10 5 58.38 1.31
1 -10 5 59.76 1.27
-1 10 5 59.9 1.34
1 10 5 58.82 1.33
-1 10 -5 59.94 1.3
-1 -10 5 58.63 1.3
1 10 -6 1.04 0.16
1 -10 6 0.78 0.14
-1 10 6 0.93 0.14
-1 10 6 1.03 0.16
-1 -10 6 1.2 0.15
1 10 6 1.14 0.16
-1 10 -6 1.03 0.14
-1 10 7 27.69 0.79
1 -10 7 25.32 0.74
1 10 -7 26.16 0.78
-1 10 7 26.84 0.72
1 10 7 27.25 0.78
-1 -10 7 26.7 0.73
-1 10 -7 26.96 0.75
-1 10 8 0.79 0.16
1 -10 8 0.97 0.17
1 10 -8 0.97 0.19
-1 10 8 1.02 0.19
-1 -10 8 0.91 0.16
1 10 8 0.84 0.18
1 -10 9 0.75 0.18
1 10 -9 0.9 0.2
-1 10 9 0.62 0.17
-1 10 9 0.73 0.19
1 10 9 0.42 0.16
-1 10 10 0.1 0.17
-1 10 10 0.26 0.16
1 10 10 -0.06 0.15
2 10 0 228.65 4.57
-2 10 0 239.1 4.52
-2 -10 0 226.8 4.52
2 -10 0 241.7 4.67
2 -10 0 239.39 4.49
-2 10 1 29.99 0.68
2 -10 1 31.51 0.69
2 -10 1 29.84 0.69
2 10 -1 30.23 0.71
2 -10 -1 30.33 0.73
-2 -10 1 30.6 0.7
-2 10 -1 30.01 0.66
2 10 1 30.83 0.72
2 -10 -1 30.37 0.66
2 -10 2 120.77 2.5
2 10 -2 122.97 2.49
-2 10 2 124.84 2.48
2 -10 2 126.2 2.47
2 -10 -2 127.31 2.41
-2 10 -2 124.46 2.42
2 -10 -2 129.17 2.6
-2 -10 2 122.45 2.47
2 10 2 122.37 2.5
-2 10 3 4.55 0.21
2 10 -3 4.58 0.21
2 -10 3 4.33 0.17
-2 10 -3 4.5 0.17
-2 -10 3 4.45 0.21
2 10 3 4.7 0.22
2 10 -4 58 1.29
2 -10 4 57.61 1.27
-2 10 4 55.97 1.28
2 -10 4 59.06 1.25
-2 10 4 57.7 1.18
-2 -10 4 59.57 1.26
-2 10 -4 57.74 1.22
2 -10 -4 57.37 1.38
2 10 4 58.64 1.28
-2 10 5 -0.01 0.08
2 10 -5 -0.06 0.07
2 -10 5 0 0.06
2 -10 5 -0.02 0.08
-2 10 5 0.04 0.08
2 10 5 0 0.08
-2 10 -5 -0.05 0.05
-2 -10 5 0.03 0.07
2 -10 6 0.46 0.12
-2 10 6 0.59 0.12
-2 10 6 0.48 0.13
2 -10 6 0.92 0.12
2 10 -6 0.7 0.14
-2 -10 6 0.74 0.13
2 10 6 1 0.16
-2 10 7 4.27 0.27
2 -10 7 4.62 0.29
2 10 -7 3.77 0.29
-2 10 7 4.5 0.3
-2 -10 7 4.08 0.25
2 10 7 3.93 0.27
-2 10 8 15.57 0.6
2 -10 8 17.8 0.59
2 10 -8 16.54 0.62
-2 10 8 16.45 0.56
2 10 8 16.93 0.6
-2 -10 8 15.37 0.53
2 -10 9 2.05 0.25
-2 10 9 1.95 0.24
2 10 -9 2.5 0.3
-2 10 9 2.08 0.27
2 10 9 2.12 0.26
2 -10 10 19.78 0.7
-2 10 10 20.34 0.75
-2 10 10 19.68 0.69
2 10 10 19.11 0.72
3 10 0 0 0.05
3 -10 0 0.07 0.04
-3 10 0 -0.03 0.03
3 -10 0 0.01 0.05
3 -10 1 43.19 0.94
-3 10 1 42.76 0.93
3 10 -1 44.71 0.98
3 -10 1 43.76 0.97
3 10 -1 44.57 0.89
3 -10 -1 43.73 0.9
3 -10 -1 43.99 1.01
-3 10 -1 43.25 0.9
-3 -10 1 42.96 0.96
3 10 1 43.69 0.98
-3 10 2 9.29 0.28
3 10 -2 9.55 0.32
3 -10 2 10.08 0.3
3 -10 2 8.94 0.3
-3 10 2 9.94 0.3
-3 10 -2 9.82 0.24
-3 -10 2 10.1 0.31
3 10 2 9.75 0.33
3 -10 -2 9.75 0.25
3 -10 3 33.44 0.79
3 -10 3 34.68 0.82
-3 10 3 34.36 0.81
-3 10 3 34.44 0.75
3 10 -3 34.32 0.83
-3 10 -3 34.91 0.73
3 -10 -3 33.9 0.89
-3 -10 3 34.48 0.8
3 10 3 35.44 0.83
-3 10 4 110.49 2.28
-3 10 4 107.48 2.09
3 -10 4 110.98 2.27
3 10 -4 111.76 2.3
3 -10 4 110.37 2.28
-3 10 -4 111.61 2.18
-3 -10 4 110.74 2.23
3 -10 -4 108.47 2.4
3 10 4 108.51 2.27
-3 10 5 16.43 0.52
3 10 -5 16.47 0.53
3 -10 5 16.24 0.47
3 -10 5 16.3 0.51
-3 10 5 15.95 0.47
3 -10 -5 16.56 0.58
-3 -10 5 16.42 0.48
3 10 5 16.41 0.5
-3 10 6 14.55 0.51
3 -10 6 14.34 0.45
-3 10 6 14.05 0.46
3 -10 6 14.24 0.49
3 10 -6 14.19 0.52
-3 -10 6 14.24 0.45
3 10 6 14.35 0.49
3 -10 7 7.75 0.38
-3 10 7 7.88 0.39
3 10 -7 7.17 0.38
-3 10 7 8.36 0.37
-3 -10 7 7.61 0.33
3 10 7 8 0.37
3 10 -8 3.23 0.32
-3 10 8 3.46 0.32
3 -10 8 3.42 0.31
-3 10 8 2.98 0.28
3 10 8 3.52 0.3
3 -10 9 -0.02 0.13
-3 10 9 -0.05 0.13
3 10 -9 0.24 0.16
-3 10 9 -0.01 0.15
3 10 9 0.03 0.13
3 10 -10 0.91 0.24
-3 10 10 0.74 0.23
3 -10 10 0.8 0.21
-3 10 10 0.7 0.21
3 10 10 1.04 0.23
4 -10 0 38.38 0.91
-4 10 0 38.76 0.81
4 10 0 38 0.84
4 10 0 39.48 0.9
4 -10 0 39.89 0.84
-4 10 1 75.53 1.41
4 10 -1 76.6 1.6
4 -10 1 76.2 1.55
4 10 -1 76.65 1.53
4 -10 1 73.65 1.61
-4 10 1 75.11 1.53
4 -10 -1 76.48 1.5
4 10 1 71.58 1.59
4 -10 -1 77.24 1.65
-4 10 -1 77.38 1.49
-4 10 2 0.18 0.06
-4 10 2 0.18 0.06
4 10 -2 0.43 0.09
4 -10 2 0.2 0.07
4 -10 -2 0.26 0.05
-4 -10 2 0.3 0.08
-4 10 -2 0.27 0.03
4 10 2 0.18 0.08
4 -10 -2 0.33 0.09
-4 10 3 17.8 0.46
4 10 -3 18.09 0.52
-4 10 3 18.95 0.51
4 -10 3 17.35 0.49
4 10 3 17.72 0.52
-4 -10 3 17.99 0.49
-4 10 -3 18.01 0.39
-4 10 4 0.24 0.08
4 10 -4 0.23 0.09
-4 10 4 0.22 0.09
4 -10 4 0.3 0.08
4 10 4 0.18 0.09
-4 -10 4 0.37 0.09
4 -10 -4 0.12 0.1
4 -10 5 0.16 0.09
4 10 -5 0.22 0.11
-4 10 5 0.16 0.09
-4 10 5 0.03 0.09
4 -10 -5 0.48 0.14
4 10 5 0.19 0.1
-4 -10 5 0.04 0.08
-4 10 6 1.4 0.19
4 -10 6 1.72 0.18
4 10 -6 1.18 0.19
-4 10 6 1.16 0.17
-4 -10 6 1.18 0.15
4 -10 -6 1.43 0.22
4 10 6 1.58 0.18
4 -10 7 14.37 0.5
4 10 -7 14.7 0.57
-4 10 7 15.22 0.56
-4 10 7 13.53 0.49
4 10 7 13.15 0.5
-4 -10 7 14.96 0.48
-4 10 8 18.17 0.61
4 -10 8 18.4 0.64
-4 10 8 18.24 0.66
4 10 -8 17.72 0.68
4 10 8 17.49 0.62
4 -10 9 21.62 0.75
-4 10 9 22.21 0.72
-4 10 9 22.28 0.79
4 10 -9 22.6 0.83
4 10 9 23.99 0.76
-4 10 10 4.43 0.42
-4 10 10 3.92 0.37
4 -10 10 4.16 0.38
4 10 -10 4.61 0.44
-5 10 0 0.02 0.04
5 -10 0 0.06 0.05
5 10 0 -0.03 0.04
5 -10 0 0.07 0.06
5 10 0 0.04 0.06
-5 10 1 11.46 0.29
5 10 -1 10.61 0.36
5 -10 1 10.53 0.36
5 10 -1 12.06 0.3
-5 10 1 10.96 0.32
5 10 1 11.59 0.35
5 -10 -1 11.03 0.38
5 10 1 11.07 0.37
-5 10 -1 11.57 0.27
5 -10 -1 11.53 0.3
5 10 -2 9.24 0.24
5 -10 2 8.18 0.31
5 10 -2 9.07 0.34
-5 10 2 9.09 0.3
-5 10 2 9.22 0.28
5 -10 -2 9.13 0.23
5 -10 -2 8.75 0.35
5 10 2 9.41 0.34
-5 -10 2 9.35 0.31
5 -10 3 17.81 0.51
5 10 -3 18.21 0.54
5 10 3 17.77 0.52
5 -10 -3 17.3 0.57
-5 -10 3 17.1 0.49
5 -10 4 111.51 2.31
5 10 -4 106.78 2.32
5 -10 -4 107.8 2.42
-5 -10 4 108.03 2.23
5 10 4 110.55 2.29
5 -10 -4 110.38 2.31
5 10 -5 3.68 0.26
5 -10 5 3.85 0.23
5 -10 -5 3.4 0.31
-5 -10 5 3.83 0.22
5 -10 -5 3.64 0.26
5 10 5 3.45 0.23
5 -10 6 97.13 2.13
5 10 -6 102.75 2.21
5 10 6 95.63 2.1
5 -10 -6 96.36 2.28
-5 -10 6 97.56 2.04
-5 10 7 0.64 0.16
-5 10 7 0.47 0.15
5 10 -7 0.63 0.17
5 -10 7 0.51 0.15
5 10 7 0.75 0.16
-5 10 8 12.59 0.5
5 10 -8 13.01 0.58
-5 10 8 12.18 0.54
5 10 8 11.96 0.5
-5 10 9 0.54 0.19
-5 10 9 0.28 0.16
5 -10 9 0.31 0.18
5 10 -9 0.4 0.2
5 10 9 0.67 0.19
5 -10 10 0.42 0.2
5 10 -10 0.21 0.19
6 10 0 22.3 0.61
6 -10 0 22.44 0.63
6 10 0 22.62 0.57
-6 10 0 22.54 0.51
-6 10 0 23.17 0.47
6 10 -1 51.09 1.14
-6 10 1 48.95 1.05
-6 10 1 49.23 0.96
6 -10 1 48.11 1.15
6 10 -1 49.18 1.06
6 -10 -1 49.55 1.02
6 10 1 48.1 1.12
6 -10 -1 47.47 1.16
6 10 1 48.86 1.11
-6 10 -1 51.61 0.98
6 10 -2 27.83 0.66
6 -10 2 30.14 0.76
6 10 -2 28.95 0.76
6 -10 -2 29.47 0.72
6 10 2 29.42 0.75
6 10 2 29.73 0.75
6 10 -3 26.41 0.72
6 -10 3 26.24 0.7
-6 -10 3 25.81 0.66
6 10 3 25.91 0.72
6 -10 -3 26.21 0.7
6 -10 -3 26.04 0.76
6 10 3 26.07 0.7
6 -10 4 0 0.09
6 10 -4 0.07 0.1
6 -10 -4 -0.02 0.08
6 -10 -4 0.17 0.11
6 10 4 0.02 0.08
-6 -10 4 0 0.07
6 -10 5 0.26 0.11
6 10 -5 0.1 0.11
6 -10 -5 0.09 0.11
6 10 5 0.07 0.1
6 -10 -5 0.07 0.11
-6 -10 5 0.11 0.08
6 10 -6 0.18 0.13
6 -10 6 0.27 0.12
6 10 6 0.28 0.12
6 -10 -6 0.25 0.13
6 -10 -6 0.03 0.13
6 -10 7 29.6 0.84
6 10 -7 27.62 0.9
6 -10 -7 28.33 0.89
6 10 7 28.46 0.82
6 -10 -7 29.32 0.97
6 10 -8 0.47 0.18
6 -10 8 0.74 0.17
6 10 8 0.53 0.17
6 10 -9 13.09 0.64
-6 10 9 12.78 0.59
-6 10 9 12.54 0.54
6 10 9 12.41 0.61
-7 10 0 0.09 0.05
-7 10 0 0.02 0.04
7 10 0 0.03 0.06
7 -10 0 -0.01 0.07
7 10 0 -0.01 0.07
7 10 -1 5 0.26
7 10 -1 5.52 0.22
7 10 1 4.67 0.23
7 -10 -1 4.96 0.19
7 10 1 5.01 0.25
7 -10 -1 4.9 0.27
7 10 -2 52.9 1.13
7 10 -2 50.32 1.19
7 -10 2 50.57 1.2
7 10 2 49.68 1.17
7 -10 -2 48.67 1.22
7 10 2 49.73 1.16
7 -10 -2 48.98 1.13
7 10 -3 8.88 0.38
7 -10 3 8.91 0.36
7 -10 -3 8.5 0.4
7 10 3 9.64 0.38
7 10 3 9.05 0.35
7 -10 -3 8.94 0.35
7 10 -4 61.57 1.48
7 -10 4 62.68 1.46
7 -10 -4 62.03 1.45
7 10 4 64.78 1.49
7 -10 -4 64.46 1.56
7 10 4 61.13 1.42
7 10 -5 13.01 0.52
7 -10 5 13.58 0.48
7 10 5 12.14 0.46
7 -10 -5 12.52 0.5
7 10 5 12.36 0.5
-7 -10 5 12.45 0.41
7 -10 -5 12.89 0.55
7 -10 6 52.34 1.3
7 10 -6 53.21 1.37
7 -10 -6 51.2 1.33
7 10 6 52.79 1.36
7 -10 -6 52.96 1.43
7 10 6 53.26 1.28
7 10 -7 0.11 0.15
7 -10 7 0.14 0.14
7 10 7 0.25 0.16
7 -10 -7 0.26 0.17
7 -10 -7 0.42 0.18
7 10 7 0.4 0.14
7 10 -8 1.75 0.27
7 -10 8 1.99 0.25
7 -10 -8 1.98 0.29
7 10 8 2.31 0.32
-7 10 9 0.83 0.23
-7 10 9 0.63 0.2
7 10 -9 0.53 0.23
7 10 9 0.95 0.25
8 10 0 17.91 0.52
8 -10 0 17.88 0.58
8 10 0 18.83 0.55
8 10 -1 19.48 0.58
8 10 -1 18.07 0.51
8 -10 1 19.32 0.59
8 -10 -1 18.88 0.5
8 -10 -1 18.58 0.6
8 10 1 18.19 0.54
8 10 1 19.41 0.56
8 -10 2 18.66 0.6
8 10 -2 19.23 0.6
8 -10 -2 19.85 0.55
8 -10 -2 18.83 0.63
8 10 2 20.01 0.59
8 10 2 18.54 0.56
8 10 -3 17.85 0.58
8 -10 3 16.44 0.55
8 -10 -3 16.48 0.53
8 -10 -3 17.31 0.6
8 10 3 16.49 0.53
8 10 3 16.44 0.55
8 10 -4 11.13 0.47
8 -10 4 11.19 0.45
8 -10 -4 11.16 0.45
8 10 4 11.23 0.42
8 10 4 11.4 0.46
8 -10 -4 11.17 0.5
8 10 -5 0.46 0.15
8 -10 5 0.72 0.16
8 10 5 0.44 0.13
8 -10 -5 0.79 0.17
8 10 5 0.64 0.17
8 -10 -5 0.43 0.17
8 -10 6 3.4 0.29
8 10 -6 3.99 0.36
8 -10 -6 3.52 0.33
8 -10 -6 3.93 0.38
8 10 6 3.15 0.27
8 10 6 3.96 0.34
8 -10 7 1.85 0.24
8 10 -7 2.57 0.32
8 -10 -7 2.13 0.31
8 10 7 2.11 0.28
8 -10 -7 2.53 0.3
8 -10 8 69.34 1.72
8 10 -8 68.85 1.81
8 -10 -8 70.01 1.78
8 -10 -8 69.94 1.88
8 10 8 69.43 1.79
8 10 -9 0.24 0.21
9 -10 0 0.02 0.09
9 10 0 -0.01 0.08
9 10 0 0.03 0.07
9 -10 1 9.49 0.4
9 10 -1 8.76 0.37
9 10 -1 8.91 0.33
9 -10 -1 8.65 0.4
9 10 1 8.08 0.34
9 10 1 8.23 0.35
9 -10 2 5.56 0.31
9 10 -2 4.97 0.29
9 10 2 5.65 0.29
9 -10 -2 5.2 0.32
9 10 2 4.72 0.28
9 -10 -2 5.87 0.27
9 10 -3 5.54 0.32
9 -10 3 4.76 0.3
9 10 3 5.01 0.31
9 10 3 4.87 0.27
9 -10 -3 4.85 0.33
9 -10 -3 5.42 0.29
9 -10 4 19.39 0.64
9 10 -4 18.6 0.66
9 -10 -4 19.74 0.7
9 -10 -4 18.24 0.62
9 10 4 19.35 0.6
9 10 4 19.75 0.66
9 -10 5 56.51 1.4
9 10 -5 54.47 1.42
9 10 5 55.52 1.41
9 -10 -5 56.28 1.39
9 -10 -5 55.33 1.49
9 10 5 55.04 1.32
9 10 -6 8.2 0.46
9 -10 6 8.55 0.44
9 -10 -6 8.64 0.45
9 10 6 7.87 0.45
9 -10 -6 8.36 0.49
9 -10 7 22.52 0.78
9 10 -7 21.62 0.83
9 -10 -7 25.05 0.91
9 10 7 23.01 0.83
9 -10 -7 23.77 0.83
9 10 -8 1.41 0.28
9 -10 8 1.24 0.23
9 10 8 1.57 0.28
9 -10 -8 1.02 0.25
9 -10 -8 2.26 0.34
10 -10 0 96.18 2.21
10 10 0 98.54 2.12
10 10 0 97.67 2.12
10 10 -1 7.49 0.36
10 -10 1 8.24 0.39
10 -10 -1 7.49 0.39
10 10 1 7.8 0.35
10 10 1 7.55 0.34
10 -10 2 44.4 1.18
10 10 -2 45.01 1.15
10 -10 -2 44.91 1.2
10 10 2 46.6 1.11
10 10 2 45.2 1.15
10 10 -3 7.32 0.39
10 -10 3 7.71 0.4
10 -10 -3 7.65 0.42
10 10 3 7.59 0.39
10 -10 -3 7.65 0.35
10 10 3 7.21 0.34
10 -10 4 8.55 0.43
10 10 -4 8.13 0.43
10 -10 -4 9.04 0.47
10 -10 -4 7.8 0.39
10 10 4 7.68 0.41
10 10 4 8.16 0.37
10 10 -5 2.15 0.27
10 -10 5 2.17 0.26
10 10 5 1.99 0.26
10 -10 -5 1.86 0.24
10 -10 -5 2.4 0.31
10 -10 6 0.24 0.16
10 10 -6 0.3 0.18
10 -10 -6 0.31 0.18
10 -10 -6 0.33 0.17
10 10 6 0.23 0.16
10 10 -7 2.3 0.33
10 -10 7 2.35 0.3
10 -10 -7 1.87 0.28
10 -10 -7 2.1 0.34
10 10 7 2.07 0.31
10 10 -8 25.4 1.02
10 -10 8 25.66 0.88
10 -10 -8 25.66 0.99
10 10 8 26.78 0.97
10 -10 -8 25.2 0.93
11 -10 0 0.07 0.12
11 10 0 -0.08 0.1
11 10 0 0.06 0.1
11 -10 1 49.23 1.29
11 10 -1 47.78 1.22
11 -10 -1 47.52 1.29
11 10 1 50.12 1.2
11 10 1 49.33 1.22
11 10 -2 5.38 0.34
11 -10 2 5.46 0.35
11 -10 -2 5.2 0.35
11 10 2 5.26 0.33
11 10 2 5.11 0.3
11 10 -3 43.56 1.16
11 -10 3 40.65 1.16
11 10 3 43.6 1.15
11 -10 -3 42.72 1.21
11 10 -4 0.27 0.16
11 -10 4 0.52 0.17
11 -10 -4 0.3 0.14
11 10 4 0.01 0.13
11 -10 -4 0.27 0.16
11 -10 5 17.73 0.68
11 10 -5 17.76 0.7
11 -10 -5 17.39 0.65
11 10 5 18.03 0.69
11 -10 -5 17.74 0.73
11 -10 6 3.59 0.36
11 10 -6 3.76 0.39
11 -10 -6 3.38 0.35
11 10 6 3.42 0.36
11 -10 -6 3.6 0.4
11 10 -7 1.68 0.3
11 -10 7 1.45 0.26
11 -10 -7 0.97 0.26
11 10 7 1.43 0.27
11 -10 -7 1.85 0.29
11 -10 8 0.39 0.22
11 -10 -8 0.48 0.24
12 -10 0 9.66 0.49
12 10 0 10.87 0.45
12 10 0 10.51 0.47
12 10 -1 6.09 0.36
12 -10 1 6.4 0.39
12 10 1 5.66 0.34
12 -10 -1 5.52 0.37
12 10 1 5.7 0.32
12 10 -2 49.92 1.3
12 -10 2 48.98 1.34
12 -10 -2 52.72 1.38
12 10 2 49.91 1.3
12 10 -3 2.73 0.3
12 -10 3 3.05 0.32
12 -10 -3 3.08 0.33
12 10 3 3.62 0.33
12 -10 4 0.15 0.16
12 10 -4 0 0.15
12 -10 -4 0.19 0.16
12 10 4 -0.03 0.14
12 10 -5 0.13 0.17
12 -10 5 0.4 0.19
12 -10 -5 0.24 0.18
12 10 5 0.41 0.18
12 -10 -5 0.01 0.15
12 10 -6 2.72 0.35
12 -10 6 3.36 0.36
12 10 6 3.18 0.36
12 -10 -6 2.37 0.31
12 -10 -6 3.54 0.42
12 -10 7 5.49 0.44
12 -10 -7 5.69 0.54
12 -10 -7 5.43 0.47
13 10 0 -0.06 0.12
13 -10 0 0.01 0.14
13 10 -1 9.89 0.46
13 -10 1 10.75 0.52
13 10 1 9.95 0.47
13 -10 -1 11.14 0.54
13 10 -2 22.15 0.76
13 -10 2 21.96 0.79
13 10 2 21.44 0.75
13 -10 -2 21.94 0.8
13 -10 3 7.06 0.44
13 10 -3 6.2 0.41
13 -10 -3 5.85 0.43
13 10 3 7 0.42
13 10 -4 22.03 0.8
13 -10 4 20.84 0.79
13 -10 -4 21.89 0.85
13 10 4 21.89 0.79
13 -10 5 12.38 0.61
13 10 -5 12.92 0.62
13 10 5 11.55 0.58
13 -10 -5 13 0.66
13 10 -6 18.55 0.8
13 -10 6 18.53 0.77
13 10 6 17.05 0.75
13 -10 -6 17.17 0.81
14 -10 0 3.14 0.34
14 10 -1 14.86 0.6
14 -10 1 14.64 0.64
14 -10 -1 14.49 0.65
14 -10 2 19.43 0.76
14 10 -2 18.8 0.71
14 10 2 18.27 0.7
14 -10 -2 17.77 0.74
14 -10 3 4.55 0.41
14 10 -3 5.33 0.41
14 10 3 5.05 0.39
14 -10 -3 4.77 0.43
14 -10 4 1.27 0.27
14 10 -4 2.01 0.3
14 10 4 1.27 0.25
14 -10 -4 1.73 0.29
14 10 -5 0.18 0.19
14 10 5 0.33 0.2
14 -10 -5 0.25 0.19
15 -10 0 -0.02 0.16
15 -10 1 7.15 0.49
15 -10 -1 7.31 0.49
15 -10 2 9.92 0.56
15 10 -2 9.51 0.51
15 -10 -2 11.88 0.6
15 10 2 9.41 0.52
15 -10 3 0.8 0.26
15 10 -3 0.85 0.23
15 10 3 0.66 0.21
15 -10 -3 0.44 0.21
15 10 -4 26.04 0.93
15 10 4 25.87 0.93
15 -10 -4 24.87 0.99
0 11 0 -0.08 0.05
0 -11 0 -0.02 0.05
0 -11 0 -0.05 0.05
0 -11 1 0.02 0.05
0 11 1 0.12 0.05
0 11 -1 0.05 0.04
0 -11 -1 0.02 0.04
0 -11 -1 0.03 0.05
0 -11 1 0 0.03
0 -11 2 27.35 0.66
0 -11 2 28.46 0.6
0 -11 -2 27.4 0.71
0 11 -2 29.35 0.66
0 -11 3 0 0.03
0 11 -3 0.01 0.05
0 -11 3 0.05 0.06
0 11 3 0.21 0.08
0 11 4 0.49 0.1
0 -11 4 0.31 0.05
0 11 -4 0.34 0.08
0 -11 4 0.28 0.09
0 -11 5 0.01 0.07
0 11 -5 -0.07 0.06
0 11 5 0.04 0.07
0 -11 6 29.24 0.79
0 11 -6 30.51 0.8
0 11 6 30.93 0.82
0 11 -7 -0.06 0.09
0 -11 7 0.09 0.1
0 11 7 0.17 0.13
0 -11 8 17.2 0.58
0 11 8 16.67 0.61
0 11 9 -0.1 0.14
0 -11 9 0.09 0.13
0 11 10 3.62 0.37
-1 -11 0 24.08 0.59
1 -11 0 23.95 0.59
1 -11 0 25.45 0.58
1 11 0 26.14 0.61
-1 11 0 24.1 0.58
1 11 -1 190.08 3.78
1 -11 1 191.88 3.74
1 -11 1 195.18 3.83
-1 11 1 193.71 3.77
1 -11 -1 201.83 3.9
1 -11 -1 199.06 3.73
1 11 1 192.76 3.8
-1 -11 1 195.03 3.8
-1 -11 1 190.01 3.75
-1 11 -1 186.72 3.75
1 -11 2 11.28 0.34
1 11 -2 11.59 0.34
-1 11 2 10.29 0.33
1 -11 2 11.1 0.3
1 11 2 11.89 0.36
-1 11 -2 11.94 0.32
-1 -11 2 11.61 0.35
1 -11 3 38.99 0.88
1 -11 3 38.85 0.83
-1 11 3 37.57 0.88
1 11 -3 37.76 0.87
-1 11 -3 36.72 0.83
1 -11 -3 39.99 0.96
1 11 3 38.26 0.89
-1 -11 3 37.28 0.87
1 -11 4 6.1 0.26
1 11 -4 5.51 0.25
1 -11 4 5.77 0.2
-1 11 4 5.72 0.26
-1 -11 4 5.36 0.24
-1 -11 4 5.87 0.16
-1 11 -4 5.79 0.23
1 11 4 6.08 0.26
1 11 -5 27.62 0.73
1 -11 5 27.62 0.66
-1 11 5 27.09 0.68
-1 11 5 27.53 0.74
1 -11 5 28.3 0.73
1 11 5 27.99 0.74
-1 -11 5 28.06 0.71
-1 11 -5 28.24 0.7
1 -11 6 0.51 0.12
-1 11 6 0.8 0.15
-1 11 6 1.02 0.15
1 11 -6 0.72 0.14
-1 -11 6 0.68 0.13
1 11 6 0.72 0.14
-1 11 -6 0.77 0.13
1 11 -7 68.98 1.62
1 -11 7 70.85 1.59
-1 11 7 69.2 1.62
-1 11 7 72.06 1.5
-1 -11 7 70.29 1.56
1 11 7 67.72 1.61
-1 11 8 3.78 0.32
1 -11 8 3.83 0.31
-1 11 8 2.83 0.26
1 11 -8 3.35 0.31
1 11 8 3.2 0.29
-1 -11 8 3.2 0.27
-1 11 9 79.01 1.87
1 -11 9 76.24 1.79
-1 11 9 77.43 1.71
1 11 9 78.35 1.85
-1 11 10 0.78 0.22
1 -11 10 0.72 0.2
1 11 10 1 0.23
2 -11 0 -0.02 0.05
2 -11 0 0.01 0.04
2 11 0 0 0.05
-2 11 0 0.02 0.04
-2 -11 0 0.02 0.05
2 -11 1 52.49 1.13
-2 11 1 52.81 1.11
2 11 -1 53.65 1.15
2 -11 1 50.61 1.11
2 -11 -1 53.01 1.18
-2 -11 1 52.9 1.13
2 -11 -1 51.09 1.08
-2 11 -1 52.63 1.09
2 11 1 54.53 1.16
2 11 -2 11.97 0.37
2 -11 2 11.85 0.33
2 -11 2 12.21 0.36
2 -11 -2 12.25 0.31
-2 -11 2 11.76 0.36
2 -11 -2 12 0.4
-2 11 -2 12.09 0.31
-2 11 3 5.16 0.23
2 -11 3 5.18 0.19
2 11 -3 4.8 0.22
2 11 3 5.31 0.24
-2 11 -3 4.86 0.18
-2 -11 3 5 0.22
-2 11 4 7.15 0.27
2 11 -4 6.71 0.29
-2 11 4 7.39 0.3
2 -11 4 7.2 0.24
2 -11 -4 7.31 0.34
-2 -11 4 7.04 0.28
-2 11 -4 6.72 0.24
2 11 -5 17.65 0.55
-2 11 5 17.34 0.54
-2 11 5 16.62 0.49
2 -11 5 17.51 0.48
2 -11 5 18.03 0.54
2 11 5 18.17 0.54
-2 11 -5 17.24 0.48
-2 -11 5 17.78 0.51
-2 11 6 2.22 0.23
-2 11 6 2.96 0.23
2 11 -6 2.21 0.22
2 -11 6 2.48 0.22
2 11 6 2.77 0.23
-2 -11 6 2.6 0.22
-2 11 7 13.59 0.52
2 -11 7 13.29 0.49
-2 11 7 13.69 0.48
2 11 -7 13.8 0.52
2 11 7 12.8 0.49
-2 -11 7 14.18 0.48
-2 11 8 11.45 0.5
-2 11 8 11.36 0.46
2 -11 8 11.97 0.49
2 11 -8 11.54 0.51
-2 -11 8 11.05 0.44
2 11 8 12.55 0.51
2 -11 9 5.68 0.36
-2 11 9 5.77 0.36
-2 11 9 5.63 0.38
2 11 -9 5.22 0.38
2 11 9 6.25 0.39
-2 11 10 0.78 0.22
-2 11 10 0.88 0.21
2 -11 10 1 0.22
2 11 10 0.69 0.21
3 -11 0 5.79 0.21
-3 11 0 6.1 0.2
3 -11 0 6.49 0.24
-3 11 1 121.36 2.39
3 -11 1 121.9 2.39
3 11 -1 122.97 2.38
3 -11 1 108.31 2.45
3 11 -1 124.53 2.45
3 -11 -1 124.87 2.52
3 -11 -1 123.29 2.35
-3 -11 1 117.85 2.41
-3 11 -1 120.96 2.36
3 11 1 120.27 2.45
3 -11 2 27.82 0.65
3 -11 2 27.7 0.66
3 11 -2 27.22 0.68
-3 11 2 26.41 0.65
-3 11 -2 26.95 0.58
3 -11 -2 26.87 0.72
-3 -11 2 27.32 0.66
3 11 2 26.16 0.68
3 -11 -2 26.81 0.59
-3 11 3 58.02 1.14
3 -11 3 53.55 1.22
-3 11 3 55.99 1.24
3 -11 3 56.52 1.24
3 11 -3 55.55 1.25
-3 -11 3 55.7 1.22
-3 11 -3 57.11 1.15
3 -11 -3 59.42 1.34
3 11 3 56.26 1.25
3 -11 4 2.58 0.19
3 -11 4 3 0.17
-3 11 4 2.88 0.2
-3 11 4 2.84 0.18
3 11 -4 2.54 0.2
-3 -11 4 2.96 0.18
3 11 4 2.87 0.2
3 -11 -4 3 0.26
-3 11 -4 2.9 0.14
3 -11 5 14.35 0.48
-3 11 5 14.68 0.45
3 -11 5 15.24 0.45
3 11 -5 15.6 0.52
-3 11 5 14.98 0.5
-3 -11 5 16.02 0.47
3 -11 -5 15.06 0.56
3 11 5 14.44 0.48
3 11 -6 38.06 1.01
-3 11 6 39.12 0.92
3 -11 6 38.76 0.93
-3 11 6 38.24 1
3 -11 6 39.31 0.99
3 11 6 38.06 0.97
-3 -11 6 38.6 0.94
3 11 -7 0.22 0.13
-3 11 7 0.29 0.13
3 -11 7 0.18 0.12
-3 11 7 0.02 0.1
-3 -11 7 0.22 0.1
3 11 7 0.13 0.12
3 11 -8 30.72 0.94
3 -11 8 30.8 0.88
-3 11 8 31.08 0.92
-3 11 8 32.6 0.85
3 11 8 28.41 0.87
3 11 -9 6.45 0.43
-3 11 9 5.85 0.4
3 -11 9 6.04 0.39
-3 11 9 6.36 0.38
3 11 9 6.98 0.4
3 11 -10 0.21 0.18
3 -11 10 -0.07 0.16
-3 11 10 0.39 0.19
-3 11 10 0.12 0.17
3 11 10 0.53 0.21
4 -11 0 0.01 0.06
4 11 0 -0.07 0.04
-4 11 0 -0.06 0.03
4 11 0 -0.03 0.06
4 -11 0 0.02 0.05
4 -11 1 4.3 0.19
4 11 -1 4.61 0.15
4 -11 1 4.85 0.22
-4 11 1 4.5 0.18
4 11 -1 4.5 0.22
4 -11 -1 4.45 0.16
4 11 1 4.75 0.23
-4 11 -1 4.59 0.15
-4 -11 1 4.79 0.21
4 -11 -1 4.43 0.23
4 -11 2 0.04 0.06
-4 11 2 0.04 0.06
4 11 -2 0.08 0.07
-4 11 2 -0.01 0.05
4 -11 2 0 0.06
4 -11 -2 0.05 0.07
-4 -11 2 0.02 0.06
4 -11 -2 0.04 0.04
4 11 2 0.02 0.07
-4 11 -2 0.05 0.03
-4 11 3 104.65 2.13
4 -11 3 106.95 2.16
4 -11 3 100.8 2.12
-4 11 3 102.51 1.95
4 11 -3 100.75 2.16
4 11 3 105.18 2.16
-4 -11 3 103.39 2.11
4 -11 -3 100.57 2.26
-4 11 4 15.2 0.44
4 -11 4 15.21 0.46
-4 11 4 15.79 0.49
4 11 -4 16.2 0.51
4 11 4 16.05 0.49
4 -11 -4 15.91 0.56
-4 -11 4 15.61 0.46
4 11 -5 193.76 3.91
4 -11 5 190.91 3.9
-4 11 5 192.17 3.88
-4 11 5 195.2 3.57
4 11 5 192.48 3.86
4 -11 -5 190.48 4.06
-4 -11 5 189.21 3.79
4 -11 6 13.12 0.45
-4 11 6 13.13 0.49
-4 11 6 12.76 0.45
4 11 -6 13.73 0.52
4 -11 6 14.2 0.5
4 -11 -6 12.3 0.55
-4 -11 6 13.65 0.45
4 11 6 13.48 0.48
-4 11 7 26.52 0.81
4 11 -7 25.94 0.83
-4 11 7 27.09 0.74
4 -11 7 27.36 0.8
4 11 7 25.89 0.77
-4 -11 7 25.89 0.72
-4 11 8 5.11 0.33
-4 11 8 4.56 0.34
4 11 -8 5.85 0.38
4 -11 8 5.36 0.35
4 11 8 5.05 0.33
-4 11 9 0.81 0.21
-4 11 9 0.72 0.22
4 11 -9 0.43 0.2
4 -11 9 0.41 0.18
4 11 9 0.64 0.19
4 -11 10 -0.19 0.15
4 11 -10 -0.06 0.17
4 11 10 0.06 0.16
5 -11 0 43.66 0.93
5 -11 0 41.54 1.02
5 11 0 43.52 0.95
5 11 0 44.42 1.01
-5 11 0 42.86 0.9
5 11 -1 12.62 0.41
-5 11 1 12.61 0.35
5 -11 1 12.55 0.38
5 11 -1 12.96 0.33
-5 11 1 13.1 0.33
5 -11 1 12.83 0.41
5 -11 -1 13.1 0.33
5 11 1 13.14 0.42
5 -11 -1 12.89 0.43
-5 11 -1 13.51 0.31
5 11 1 12.78 0.38
-5 11 2 79.91 1.51
5 11 -2 78.29 1.59
5 11 -2 80.17 1.71
-5 11 2 78.56 1.65
5 -11 2 80.84 1.72
5 -11 -2 80.67 1.56
5 -11 -2 77.79 1.77
-5 -11 2 78.85 1.66
5 11 2 77.57 1.7
-5 11 3 0.05 0.07
5 11 -3 0.07 0.08
-5 11 3 0.03 0.07
5 -11 3 0.2 0.08
5 11 3 0.32 0.1
5 -11 -3 0.05 0.08
-5 -11 3 0.06 0.07
-5 11 4 0.8 0.13
5 -11 4 0.84 0.12
5 11 -4 0.95 0.15
-5 11 4 1.08 0.15
5 11 4 1.02 0.15
5 -11 -4 0.99 0.17
-5 -11 4 0.98 0.13
-5 11 5 3.76 0.23
5 -11 5 3.99 0.24
5 11 -5 3.65 0.3
-5 11 5 3.82 0.26
5 11 5 3.2 0.23
-5 -11 5 3.4 0.21
5 -11 -5 4.03 0.3
5 -11 6 37.05 0.94
5 11 -6 35.75 1
-5 11 6 36.33 0.97
-5 11 6 37.09 0.9
5 -11 -6 35.7 1.07
5 11 6 35.72 0.94
-5 -11 6 35.93 0.9
5 11 -7 3.15 0.31
-5 11 7 3.24 0.29
-5 11 7 2.71 0.25
5 -11 7 3.2 0.25
5 11 7 3.43 0.29
-5 11 8 11.18 0.51
5 -11 8 9.63 0.48
5 11 -8 11.5 0.55
-5 11 8 10.57 0.46
5 11 8 10.73 0.48
-5 11 9 3.06 0.33
-5 11 9 2.95 0.3
5 -11 9 3.12 0.33
5 11 -9 3.36 0.36
5 11 9 2.83 0.3
5 -11 10 3.37 0.37
5 11 -10 2.97 0.38
6 11 0 -0.06 0.06
6 11 0 0.02 0.05
-6 11 0 -0.04 0.04
6 -11 0 -0.07 0.05
6 -11 0 -0.08 0.07
-6 11 1 9.05 0.26
6 11 -1 9.21 0.27
6 -11 1 8.89 0.34
-6 11 1 8.9 0.28
6 11 -1 8.54 0.34
6 11 1 9 0.31
6 -11 -1 8.73 0.26
6 11 1 9.02 0.34
6 -11 -1 9.69 0.37
-6 11 2 2.2 0.16
-6 11 2 2.23 0.14
6 -11 2 2.51 0.19
6 11 -2 2.47 0.19
6 11 2 2.24 0.2
6 11 2 2.52 0.18
6 -11 -2 2.24 0.21
6 11 -3 136.95 2.84
6 -11 3 141.79 2.88
-6 -11 3 135.3 2.76
6 -11 -3 138.19 2.95
6 11 3 134.28 2.81
6 11 3 135.88 2.88
6 11 -4 3.67 0.26
6 -11 4 3.97 0.24
6 -11 -4 3.97 0.25
6 -11 -4 3.9 0.29
6 11 4 4.42 0.26
-6 -11 4 3.88 0.22
6 -11 5 70.45 1.59
6 11 -5 67.92 1.63
6 11 5 70.1 1.58
-6 -11 5 69.02 1.51
6 -11 -5 69.64 1.61
6 -11 -5 69.85 1.72
6 11 -6 2.29 0.26
6 -11 6 2.43 0.23
6 11 6 2.25 0.23
6 -11 -6 2.01 0.27
6 -11 7 42.1 1.1
-6 11 7 42.45 1.05
-6 11 7 42.83 1.15
6 11 -7 43.65 1.2
6 11 7 42.35 1.1
6 -11 -7 41.52 1.25
-6 11 8 3.35 0.33
6 11 -8 3.15 0.35
-6 11 8 3.08 0.3
6 11 8 3.24 0.3
6 11 -9 1.89 0.3
6 -11 9 1.51 0.27
-6 11 9 1.4 0.26
-6 11 9 1.69 0.25
7 -11 0 1.27 0.16
7 11 0 1.12 0.14
7 11 0 1.03 0.12
7 -11 1 35.94 0.94
7 11 -1 37.27 0.85
-7 11 1 37.1 0.83
-7 11 1 37.71 0.77
7 11 -1 37.38 0.93
7 -11 -1 37.32 0.96
7 11 1 36.34 0.9
7 -11 -1 37.76 0.81
7 11 1 37.62 0.92
7 -11 2 30.96 0.83
7 11 -2 31.22 0.83
7 -11 -2 32.94 0.88
7 11 2 31.8 0.82
7 11 2 31.05 0.81
7 11 -3 12.85 0.47
7 -11 3 12.14 0.45
7 11 3 12.79 0.45
7 11 3 12.55 0.44
7 -11 -3 12.6 0.44
7 -11 -3 13.1 0.5
7 -11 4 21.76 0.65
7 11 -4 21.3 0.69
-7 -11 4 22.19 0.61
7 11 4 21.43 0.67
7 -11 -4 21.75 0.66
7 11 4 21.53 0.64
7 -11 -4 22.82 0.74
7 -11 5 9.32 0.4
7 11 -5 9.3 0.44
7 -11 -5 9.15 0.47
7 11 5 8.91 0.42
7 11 5 9.64 0.41
7 -11 -5 9.87 0.43
-7 -11 5 9.42 0.36
7 11 -6 4.71 0.34
7 -11 6 5.5 0.32
7 -11 -6 5 0.34
7 11 6 5.34 0.36
7 -11 -6 5.45 0.39
7 11 6 5.11 0.32
7 11 -7 8 0.45
7 -11 7 7.52 0.39
7 11 7 7.03 0.43
7 11 7 7.27 0.39
7 -11 -7 7.16 0.46
-7 11 8 3.6 0.35
7 11 -8 3.31 0.35
7 -11 8 2.98 0.3
-7 11 8 3.59 0.32
7 11 8 3.22 0.35
-7 11 9 10.11 0.51
7 11 -9 10.11 0.59
-7 11 9 10.26 0.55
7 11 9 9.84 0.56
8 11 0 0.1 0.08
8 11 0 -0.09 0.05
8 -11 0 -0.01 0.08
-8 11 1 9.42 0.28
8 -11 1 9.08 0.39
8 11 -1 10.24 0.39
8 11 -1 9.75 0.33
-8 11 1 10.03 0.31
8 -11 -1 9.2 0.4
8 11 1 9.6 0.38
8 11 1 9.38 0.36
8 11 -2 30.17 0.82
8 -11 2 29.44 0.83
8 11 2 29.05 0.79
8 -11 -2 30.44 0.76
8 -11 -2 30.8 0.86
8 11 2 29.6 0.8
8 -11 3 27.89 0.8
8 11 -3 28.67 0.81
8 -11 -3 28.35 0.76
8 11 3 27.86 0.79
8 -11 -3 28.57 0.85
8 11 3 27.85 0.77
8 11 -4 17.21 0.6
8 -11 4 15.85 0.56
8 -11 -4 17.12 0.57
8 11 4 17 0.58
8 -11 -4 16.83 0.64
8 11 4 16.78 0.55
8 11 -5 54.79 1.41
8 -11 5 55.4 1.37
8 -11 -5 57.17 1.38
8 11 5 54.66 1.32
8 11 5 55.5 1.4
8 -11 -5 55.06 1.48
8 -11 6 7.08 0.38
8 11 -6 6.64 0.42
8 11 6 7.31 0.38
8 11 6 6.58 0.41
8 -11 -6 7.49 0.42
8 -11 -6 7.25 0.45
8 -11 7 23.09 0.76
8 11 -7 22.81 0.82
8 11 7 23.21 0.82
8 -11 -7 23.24 0.87
8 -11 -7 23.2 0.81
8 11 -8 8.75 0.52
8 -11 8 8.3 0.46
8 -11 -8 9.09 0.56
8 11 8 8.26 0.52
9 -11 0 0.71 0.16
9 11 0 0.53 0.11
9 11 0 0.54 0.13
9 -11 1 112.54 2.49
9 11 -1 115.43 2.42
9 11 1 111.51 2.42
9 -11 -1 114.48 2.51
9 11 1 113.3 2.4
9 11 -2 1.27 0.18
9 -11 2 0.89 0.16
9 -11 -2 0.92 0.14
9 11 2 1.09 0.16
9 11 2 1.12 0.16
9 -11 -2 0.9 0.17
9 11 -3 1.83 0.22
9 -11 3 2.03 0.23
9 -11 -3 2.1 0.21
9 11 3 1.95 0.22
9 -11 -3 2.16 0.25
9 11 3 2.12 0.21
9 11 -4 1.33 0.21
9 -11 4 1 0.18
9 -11 -4 0.66 0.16
9 11 4 1.05 0.17
9 11 4 0.94 0.19
9 -11 -4 0.78 0.19
9 -11 5 0.21 0.14
9 11 -5 0.35 0.15
9 -11 -5 0.33 0.14
9 11 5 0.25 0.16
9 11 5 0.23 0.12
9 -11 -5 0.08 0.14
9 11 -6 1.74 0.27
9 -11 6 2.14 0.26
9 -11 -6 2.05 0.3
9 -11 -6 1.84 0.25
9 11 6 1.75 0.26
9 11 -7 28.59 0.97
9 -11 7 29.71 0.91
9 -11 -7 28.59 0.94
9 -11 -7 27.57 1
9 11 7 29.02 0.96
9 11 -8 2.72 0.36
9 -11 8 1.99 0.28
9 11 8 3 0.37
9 -11 -8 2.76 0.38
10 11 0 0.14 0.1
10 -11 0 0.14 0.12
10 11 0 0.13 0.1
10 -11 1 0.75 0.16
10 11 -1 1.07 0.18
10 11 1 0.81 0.15
10 11 1 0.86 0.15
10 -11 -1 0.58 0.15
10 -11 2 25.55 0.77
10 11 -2 24.62 0.75
10 -11 -2 23.89 0.78
10 11 2 23.54 0.72
10 11 2 23.82 0.71
10 11 -3 11.41 0.48
10 -11 3 10.49 0.47
10 11 3 10.42 0.42
10 -11 -3 11.2 0.43
10 11 3 10.57 0.46
10 -11 -3 10.84 0.51
10 11 -4 26.81 0.86
10 -11 4 27.36 0.84
10 -11 -4 27.18 0.91
10 11 4 27.77 0.78
10 -11 -4 27.86 0.81
10 11 4 27.23 0.84
10 11 -5 1.19 0.23
10 -11 5 1.21 0.21
10 -11 -5 1.38 0.22
10 11 5 1.06 0.21
10 -11 -5 1.34 0.25
10 11 -6 5.89 0.42
10 -11 6 6.21 0.39
10 11 6 5.59 0.42
10 -11 -6 6.13 0.4
10 -11 -6 6.43 0.46
10 11 -7 0.84 0.24
10 -11 7 1.63 0.25
10 -11 -7 0.68 0.23
10 11 7 1.07 0.24
10 -11 -7 1.22 0.27
10 -11 8 0.74 0.23
10 -11 -8 0.83 0.26
10 -11 -8 0.5 0.21
11 11 0 9.78 0.42
11 -11 0 9.23 0.45
11 11 0 9.18 0.4
11 11 -1 32.8 0.92
11 -11 1 31.51 0.96
11 -11 -1 33.01 0.98
11 11 1 35.41 0.92
11 11 1 32.24 0.9
11 11 -2 0.17 0.13
11 -11 2 0.08 0.13
11 11 2 -0.01 0.11
11 11 2 0.27 0.12
11 -11 -2 0.12 0.13
11 11 -3 25.91 0.82
11 -11 3 24.57 0.81
11 11 3 25.65 0.79
11 11 3 24.17 0.73
11 -11 -3 24.97 0.85
11 11 -4 0.05 0.15
11 -11 4 -0.09 0.13
11 -11 -4 0.16 0.15
11 11 4 0.33 0.16
11 -11 -4 0.24 0.14
11 -11 5 6.49 0.42
11 11 -5 6.46 0.43
11 11 5 6.14 0.4
11 -11 -5 6.35 0.45
11 -11 -5 5.49 0.37
11 -11 6 1.59 0.25
11 11 -6 1.6 0.28
11 -11 -6 1.04 0.26
11 11 6 1.62 0.27
11 -11 -6 1.92 0.28
11 -11 7 19.54 0.77
11 11 -7 19.61 0.82
11 -11 -7 20.5 0.8
11 11 7 20.5 0.82
11 -11 -7 20.39 0.87
11 -11 -8 0.04 0.18
12 11 0 0.21 0.13
12 -11 0 0.15 0.14
12 -11 1 13.19 0.56
12 11 -1 13.09 0.52
12 11 1 13.03 0.52
12 -11 -1 12.93 0.57
12 11 1 12.98 0.51
12 11 -2 2.03 0.25
12 -11 2 2.25 0.27
12 11 2 2.28 0.26
12 11 2 2.66 0.25
12 -11 -2 2.4 0.29
12 -11 3 14 0.59
12 11 -3 13.65 0.58
12 11 3 14.04 0.57
12 -11 -3 13.58 0.61
12 11 -4 2.06 0.28
12 -11 4 2.09 0.29
12 11 4 1.86 0.26
12 -11 -4 2.28 0.32
12 11 -5 12.67 0.6
12 -11 5 12.09 0.57
12 -11 -5 13.34 0.58
12 -11 -5 11.63 0.62
12 11 5 12.5 0.58
12 11 -6 5.75 0.45
12 -11 6 6.07 0.44
12 -11 -6 5.58 0.51
12 -11 -6 5.34 0.4
12 11 6 5.87 0.45
12 -11 7 2.7 0.34
12 -11 -7 2.81 0.36
12 -11 -7 3.03 0.41
13 11 0 6.61 0.38
13 -11 0 6.48 0.42
13 -11 1 26.67 0.89
13 11 -1 26.5 0.83
13 11 1 25.54 0.86
13 -11 -1 26.19 0.89
13 11 1 26.19 0.86
13 11 -2 5.94 0.39
13 -11 2 5.76 0.41
13 -11 -2 6.41 0.43
13 11 2 6 0.37
13 11 -3 4.41 0.38
13 -11 3 4.22 0.38
13 -11 -3 4.61 0.43
13 11 3 4.13 0.37
13 -11 4 1.7 0.29
13 11 -4 1.9 0.28
13 11 4 1.94 0.29
13 -11 -4 1.88 0.31
13 11 -5 6.71 0.47
13 -11 5 6.25 0.46
13 -11 -5 7.84 0.52
13 11 5 6.73 0.45
13 -11 6 1.12 0.29
13 -11 -6 1.72 0.32
14 -11 0 0.1 0.16
14 11 -1 1.09 0.22
14 -11 1 0.99 0.23
14 -11 -1 0.7 0.22
14 -11 2 2.54 0.32
14 11 -2 2.45 0.3
14 11 2 3.03 0.32
14 -11 -2 2.67 0.34
14 11 -3 32.11 1.03
14 -11 3 32.51 1.06
14 -11 -3 33.22 1.1
14 11 3 32.84 1.02
14 11 -4 1.01 0.25
14 -11 4 0.92 0.24
14 -11 -4 1.02 0.26
14 11 4 0.82 0.22
14 11 -5 26.03 1.06
14 11 5 27.85 0.97
14 -11 -5 29.48 1.07
15 -11 0 0.55 0.21
15 -11 1 3.65 0.39
15 -11 -1 3.33 0.37
15 11 -2 0.66 0.21
15 -11 2 0.44 0.22
15 -11 -2 0.89 0.25
15 11 -3 8.36 0.52
15 11 3 9.08 0.53
15 -11 -3 10.11 0.58
15 11 -4 3.21 0.38
15 11 4 2.72 0.35
0 12 0 270.22 5.2
0 -12 0 257.78 5.14
0 -12 0 276.89 5.3
0 -12 1 -0.06 0.03
0 -12 -1 -0.09 0.05
0 -12 1 -0.1 0.05
0 -12 -1 -0.06 0.04
0 12 -1 -0.05 0.05
0 12 1 -0.02 0.05
0 12 -2 298.12 5.83
0 12 2 292.26 5.85
0 -12 2 318 5.82
0 -12 -2 297.13 6.04
0 -12 2 309.3 5.91
0 -12 3 -0.07 0.06
0 12 -3 0.02 0.05
0 -12 3 -0.01 0.03
0 12 3 0.01 0.07
0 -12 4 19.07 0.52
0 -12 4 18.16 0.43
0 12 -4 16.66 0.49
0 12 4 18.98 0.53
0 12 5 -0.01 0.08
0 -12 5 -0.03 0.07
0 12 -5 -0.01 0.07
0 12 -6 16.93 0.54
0 -12 6 17.9 0.55
0 12 6 17.57 0.57
0 -12 7 0.11 0.11
0 12 -7 0.17 0.11
0 12 7 -0.04 0.11
0 12 8 49.73 1.28
0 -12 8 49.14 1.22
0 12 9 -0.09 0.14
0 -12 9 0.13 0.14
0 12 10 54.76 1.46
-1 12 0 -0.02 0.05
1 12 0 0.01 0.05
1 -12 0 -0.09 0.04
-1 -12 0 -0.01 0.05
1 -12 0 -0.01 0.05
1 12 -1 7.57 0.26
-1 12 1 7.45 0.25
1 -12 1 6.81 0.22
1 -12 1 6.52 0.24
-1 -12 -1 7.13 0.25
1 -12 -1 7.26 0.27
1 -12 -1 7.25 0.24
-1 -12 1 7.49 0.26
-1 12 -1 6.53 0.23
-1 -12 1 7 0.2
1 12 1 7.08 0.26
1 -12 2 6.45 0.25
1 -12 2 6.51 0.21
-1 12 2 6.78 0.25
1 12 -2 6.39 0.24
-1 -12 2 6.19 0.25
1 12 2 6.18 0.25
1 -12 -2 6.92 0.28
-1 12 -2 6.8 0.23
1 12 -3 0.17 0.07
1 -12 3 0.11 0.05
1 -12 3 0.09 0.07
-1 12 3 0.07 0.07
1 12 3 -0.02 0.06
1 -12 -3 0.07 0.08
-1 -12 3 0.17 0.08
-1 12 -3 0.05 0.05
1 12 -4 24.67 0.65
1 -12 4 24.38 0.65
-1 12 4 24.2 0.66
1 -12 4 24.83 0.58
-1 12 -4 25.95 0.62
1 12 4 25.08 0.67
-1 -12 4 24.72 0.65
1 -12 5 1.42 0.16
1 12 -5 1.04 0.14
-1 12 5 1.03 0.15
-1 -12 5 1.12 0.15
-1 12 -5 1.1 0.13
1 12 5 1.12 0.16
-1 12 6 16.84 0.56
1 -12 6 18.23 0.56
1 12 -6 17.7 0.56
-1 12 -6 16.56 0.52
1 12 6 15.99 0.55
-1 -12 6 18.2 0.54
-1 12 7 12.94 0.51
1 12 -7 14.25 0.52
1 -12 7 13.02 0.49
1 12 7 13.79 0.52
-1 -12 7 13.47 0.48
-1 12 8 1.67 0.24
1 12 -8 1.3 0.21
1 -12 8 1.34 0.2
1 12 8 1.25 0.22
-1 -12 8 1.32 0.19
1 -12 9 0.6 0.17
-1 12 9 0.35 0.17
1 12 9 0.28 0.16
-1 -12 9 0.42 0.15
-1 12 10 0.5 0.2
1 -12 10 0.53 0.19
1 12 10 0.39 0.19
2 12 0 125.21 2.48
2 -12 0 122.18 2.41
-2 12 0 122.8 2.42
-2 -12 0 120.65 2.44
2 -12 0 120.67 2.5
2 12 -1 12.74 0.38
2 -12 1 12.95 0.36
-2 12 1 12.82 0.35
2 -12 1 12.43 0.36
2 -12 -1 12.63 0.4
2 -12 -1 12.39 0.34
2 12 1 12.29 0.39
-2 12 -1 12.44 0.34
2 -12 2 99.37 2.01
2 12 -2 100.84 2.02
-2 12 2 97.62 2
2 -12 2 94.17 1.99
2 -12 -2 99 1.94
2 12 2 96.55 2.03
-2 12 -2 98.73 1.95
-2 -12 2 98.88 2
2 -12 -2 98.33 2.11
-2 12 3 4.2 0.22
2 -12 3 4.76 0.19
2 -12 3 4.56 0.22
2 12 -3 4.34 0.22
-2 -12 3 4.75 0.22
2 -12 -3 4.65 0.26
2 12 3 4.56 0.23
-2 12 -3 4.84 0.18
2 -12 4 29.27 0.67
2 -12 4 28.37 0.73
2 12 -4 26.9 0.72
-2 12 4 28.49 0.73
-2 12 4 27.3 0.67
-2 12 -4 28.29 0.67
-2 -12 4 27.6 0.71
2 12 4 29.11 0.74
2 -12 -4 29.6 0.82
-2 12 5 0.41 0.12
-2 12 5 0.43 0.11
2 12 -5 0.53 0.12
2 -12 5 0.59 0.1
2 -12 5 0.23 0.1
-2 12 -5 0.53 0.1
-2 -12 5 0.62 0.12
2 12 5 0.44 0.12
2 12 -6 40.1 1.02
2 -12 6 41.33 1
-2 12 6 39.22 0.93
-2 12 6 38.36 1.01
-2 -12 6 38 0.96
2 12 6 40.21 1.01
2 -12 7 9.41 0.41
-2 12 7 9.37 0.39
-2 12 7 8.83 0.42
2 12 -7 8.06 0.41
-2 -12 7 9.11 0.38
2 12 7 8.26 0.39
-2 12 8 39.12 0.99
2 12 -8 39.23 1.09
-2 12 8 39.21 1.08
2 -12 8 40.02 1.05
-2 -12 8 38.18 1
2 12 8 38.51 1.05
-2 12 9 0.79 0.2
2 -12 9 1.05 0.21
2 12 -9 1.32 0.24
-2 12 9 0.76 0.19
2 12 9 1.37 0.23
2 -12 10 16.22 0.65
-2 12 10 17.22 0.7
2 12 10 17.02 0.68
3 -12 0 0.06 0.05
3 12 0 0.02 0.06
-3 12 0 0.06 0.04
3 -12 0 0 0.05
3 12 -1 0.49 0.09
3 -12 1 0.36 0.08
3 12 -1 0.33 0.05
3 -12 1 0.33 0.07
-3 12 1 0.42 0.07
3 -12 -1 0.36 0.06
3 12 1 0.59 0.11
-3 -12 1 0.58 0.1
3 -12 -1 0.33 0.08
-3 12 -1 0.5 0.07
3 12 -2 103.85 2.14
3 -12 2 102.2 2.13
-3 12 2 106.65 2.1
3 -12 2 103.06 2.1
3 -12 -2 103.74 2.03
-3 -12 2 102.64 2.11
-3 12 -2 104.48 2.03
3 12 2 100.57 2.14
3 -12 -2 102.19 2.21
-3 12 3 36.48 0.86
-3 12 3 36.01 0.78
3 12 -3 35.17 0.87
3 -12 3 36.75 0.84
-3 12 -3 36.36 0.77
3 -12 -3 35.47 0.94
3 12 3 35.47 0.87
-3 -12 3 35.51 0.85
-3 12 4 74.58 1.49
-3 12 4 76.09 1.63
3 12 -4 71.28 1.63
3 -12 4 74.86 1.61
3 -12 4 77.8 1.6
-3 12 -4 74.07 1.53
3 -12 -4 75.21 1.74
-3 -12 4 73.32 1.59
3 12 4 73.39 1.62
3 -12 5 0.57 0.13
-3 12 5 0.47 0.12
-3 12 5 0.88 0.15
3 -12 5 0.6 0.11
3 12 -5 0.64 0.13
3 12 5 0.61 0.13
-3 -12 5 0.58 0.12
3 -12 -5 0.79 0.16
-3 12 6 33.86 0.84
-3 12 6 33.93 0.92
3 -12 6 35.87 0.92
3 -12 6 34.44 0.86
3 12 -6 34.77 0.94
3 12 6 34.68 0.91
-3 -12 6 35.23 0.88
-3 12 7 2.6 0.24
-3 12 7 2.46 0.25
3 -12 7 2.48 0.25
3 12 -7 2.38 0.26
3 12 7 2.34 0.24
-3 -12 7 2.4 0.22
-3 12 8 22.62 0.76
3 -12 8 22.69 0.74
-3 12 8 23.24 0.71
3 12 -8 23.43 0.78
3 12 8 23.14 0.74
-3 12 9 1.21 0.24
3 12 -9 1.01 0.23
-3 12 9 0.79 0.2
3 -12 9 1.31 0.23
3 12 9 1.48 0.24
3 -12 10 0.24 0.18
3 12 -10 0.9 0.24
-3 12 10 0.65 0.21
-3 12 10 0.27 0.19
3 12 10 0.5 0.21
-4 12 0 36.34 0.8
4 -12 0 39.01 0.91
4 -12 0 37.49 0.83
4 -12 1 14.14 0.42
4 12 -1 14.35 0.34
-4 12 1 13.71 0.38
4 -12 1 14.26 0.4
4 12 -1 14.61 0.44
-4 12 -1 14.39 0.35
-4 -12 1 13.43 0.42
4 -12 -1 13.36 0.44
4 12 1 14.39 0.44
4 -12 -1 13.98 0.36
4 12 -2 0.69 0.12
4 -12 2 0.67 0.1
-4 12 2 0.62 0.09
4 -12 2 0.43 0.09
-4 12 2 0.65 0.09
4 12 2 0.51 0.11
4 -12 -2 0.55 0.07
4 -12 -2 0.45 0.1
-4 12 -2 0.75 0.06
-4 -12 2 0.51 0.1
4 12 -3 11.41 0.41
4 -12 3 11.77 0.38
-4 12 3 11.79 0.36
4 -12 3 12.22 0.4
-4 12 3 12.61 0.4
-4 -12 3 12.25 0.39
4 12 3 11.71 0.41
4 -12 4 0.06 0.07
4 -12 4 -0.08 0.08
-4 12 4 -0.01 0.07
4 12 -4 0.09 0.08
-4 12 4 -0.05 0.08
4 12 4 -0.02 0.07
4 -12 -4 0.08 0.1
-4 -12 4 0.13 0.08
4 12 -5 6.51 0.34
4 -12 5 6.92 0.33
4 -12 5 6.71 0.29
-4 12 5 6.99 0.34
-4 12 5 6.93 0.31
4 -12 -5 6.8 0.38
-4 -12 5 7.47 0.31
4 12 5 6.76 0.32
4 -12 6 0.22 0.1
4 12 -6 0.03 0.1
-4 12 6 -0.12 0.1
-4 12 6 0.08 0.11
4 -12 6 -0.02 0.11
4 -12 -6 -0.06 0.12
4 12 6 0.11 0.11
-4 -12 6 -0.1 0.08
-4 12 7 16.53 0.61
4 12 -7 16.92 0.63
-4 12 7 16.57 0.56
4 -12 7 17.1 0.61
-4 -12 7 17.44 0.55
4 12 7 17.11 0.59
-4 12 8 1.87 0.24
-4 12 8 2.27 0.28
4 -12 8 2.06 0.25
4 12 -8 1.88 0.26
4 12 8 1.95 0.25
4 -12 9 0.61 0.19
4 12 -9 1.02 0.23
-4 12 9 0.39 0.19
-4 12 9 0.44 0.17
4 12 9 0.65 0.2
4 -12 10 5.72 0.42
4 12 -10 6.11 0.51
4 12 10 5.97 0.42
-5 12 0 -0.03 0.04
5 12 0 -0.07 0.05
5 12 0 -0.13 0.06
5 -12 0 -0.08 0.05
5 -12 0 -0.09 0.06
5 -12 1 7.63 0.28
5 12 -1 7.63 0.23
-5 12 1 7.81 0.26
5 12 -1 8.2 0.32
5 -12 1 7.74 0.3
5 -12 -1 8.17 0.24
-5 12 -1 7.82 0.22
5 12 1 7.83 0.32
5 12 1 8.07 0.28
5 -12 -1 8.13 0.33
5 12 -2 84.67 1.82
-5 12 2 82.7 1.61
5 -12 2 86.51 1.83
-5 12 2 84.87 1.76
5 -12 2 85.04 1.77
5 -12 -2 84.94 1.9
5 -12 -2 85.45 1.67
5 12 2 85.47 1.82
-5 -12 2 84.5 1.78
-5 12 3 27.63 0.7
5 -12 3 26.18 0.7
-5 12 3 26.46 0.63
5 12 -3 28.39 0.74
5 12 3 27.04 0.73
-5 -12 3 27.16 0.69
5 -12 -3 26.21 0.78
-5 12 4 132.88 2.53
5 -12 4 134.4 2.79
5 12 -4 130.83 2.79
-5 12 4 133.54 2.75
5 12 4 135.34 2.78
-5 -12 4 129.02 2.7
5 -12 -4 138.74 2.93
5 -12 5 15.37 0.49
-5 12 5 15.39 0.52
-5 12 5 15.36 0.48
5 12 -5 15 0.54
-5 -12 5 14.96 0.47
5 12 5 14.71 0.51
5 -12 -5 15.16 0.59
5 12 -6 120.38 2.62
-5 12 6 120.06 2.58
5 -12 6 120.96 2.57
-5 12 6 116.92 2.36
5 -12 -6 118.91 2.74
-5 -12 6 121.92 2.49
5 12 6 120.66 2.56
-5 12 7 6.44 0.34
5 12 -7 6.46 0.4
-5 12 7 6.81 0.39
5 -12 7 6.36 0.38
5 12 7 7.02 0.36
-5 12 8 23.72 0.79
5 -12 8 22.79 0.77
5 12 -8 22.52 0.81
-5 12 8 24.33 0.73
5 12 8 24.28 0.77
5 12 -9 0.2 0.19
-5 12 9 0.08 0.17
-5 12 9 0.45 0.18
5 -12 9 0.29 0.18
5 12 9 0.1 0.16
5 12 -10 5.58 0.5
6 -12 0 8.91 0.29
-6 12 0 8.93 0.26
6 -12 0 8.57 0.35
6 12 0 8.83 0.29
6 12 0 9.48 0.35
6 12 -1 12.32 0.34
6 -12 1 12.31 0.38
6 -12 1 12.62 0.42
-6 12 1 12.63 0.32
-6 12 1 11.9 0.35
6 12 -1 12.27 0.42
6 12 1 11.74 0.38
6 -12 -1 12.05 0.33
6 -12 -1 12.55 0.44
6 12 1 11.86 0.42
-6 12 2 27.9 0.63
-6 12 2 27.92 0.69
6 -12 2 27.79 0.74
6 12 -2 28.29 0.75
6 12 2 27.15 0.74
6 12 2 28.07 0.73
6 -12 -2 28.36 0.79
-6 12 3 60.96 1.24
6 -12 3 63.41 1.41
-6 12 3 62.32 1.36
6 12 -3 60.06 1.41
6 -12 -3 59.64 1.47
6 12 3 59.98 1.39
-6 -12 3 59.87 1.34
6 12 -4 0.11 0.1
-6 12 4 -0.08 0.08
-6 12 4 -0.02 0.09
6 -12 4 0.04 0.09
6 12 4 0.16 0.11
-6 -12 4 0.02 0.08
6 -12 -4 0.03 0.11
6 12 -5 3.71 0.28
6 -12 5 3.7 0.25
-6 12 5 3.75 0.26
-6 12 5 4.02 0.25
6 -12 -5 3.79 0.34
6 12 5 3.8 0.27
-6 -12 5 3.15 0.23
6 12 -6 0.12 0.12
6 -12 6 0.18 0.11
-6 12 6 0.01 0.11
-6 12 6 -0.17 0.11
6 12 6 0.12 0.13
6 -12 -6 -0.06 0.13
-6 -12 6 0.23 0.11
-6 12 7 1.04 0.19
-6 12 7 1.4 0.22
6 -12 7 1.55 0.21
6 12 -7 1.65 0.25
6 12 7 1.59 0.22
6 -12 -7 1.44 0.26
6 -12 8 0.67 0.2
-6 12 8 0.99 0.21
6 12 -8 0.72 0.22
-6 12 8 0.95 0.22
6 12 8 0.86 0.2
-6 12 9 0.57 0.19
6 -12 9 0.72 0.22
-6 12 9 0.6 0.21
6 12 -9 0.77 0.23
7 -12 0 0.01 0.07
7 -12 0 0 0.06
7 12 0 -0.03 0.07
7 12 0 0.06 0.06
7 -12 1 1.9 0.2
-7 12 1 2.01 0.14
-7 12 1 1.96 0.13
7 12 -1 1.59 0.18
7 12 -1 2.14 0.14
7 12 1 2.16 0.18
7 -12 -1 1.88 0.21
7 12 1 1.81 0.18
7 -12 -1 1.84 0.13
7 12 -2 78.45 1.74
-7 12 2 77.69 1.64
7 -12 2 73.67 1.74
-7 12 2 79.6 1.51
7 -12 -2 78.02 1.8
7 12 2 78.32 1.71
7 12 2 79.13 1.73
7 -12 3 0 0.09
-7 12 3 0.04 0.08
7 12 -3 -0.02 0.09
-7 12 3 0.01 0.07
7 12 3 0.12 0.09
7 -12 -3 -0.02 0.1
7 12 3 0.03 0.09
7 -12 4 53.83 1.35
7 12 -4 58.34 1.4
7 12 4 56.54 1.39
7 12 4 56.91 1.34
7 -12 -4 59.24 1.47
-7 -12 4 57.9 1.29
7 12 -5 -0.02 0.11
7 -12 5 0.03 0.1
7 -12 -5 -0.03 0.12
7 12 5 0.2 0.11
-7 -12 5 0.17 0.1
7 12 5 -0.01 0.12
-7 12 6 28.99 0.78
7 -12 6 29.88 0.84
7 12 -6 27.1 0.89
-7 12 6 29.11 0.85
7 -12 -6 28.13 0.95
7 12 6 29.4 0.84
7 12 6 30.06 0.91
-7 12 7 0.1 0.15
7 12 -7 0.24 0.16
7 -12 7 0.21 0.14
-7 12 7 0.31 0.15
7 -12 -7 0.37 0.19
7 12 7 0.56 0.19
7 12 7 0.22 0.15
7 12 -8 5.36 0.41
-7 12 8 5.47 0.36
-7 12 8 6.07 0.4
7 12 8 5.21 0.41
-7 12 9 0.9 0.24
7 12 -9 1.15 0.27
-7 12 9 1.4 0.25
7 -12 9 1.19 0.26
7 12 9 1.23 0.27
8 -12 0 5.58 0.3
8 -12 0 5.52 0.24
8 12 0 5.36 0.29
8 12 0 5.51 0.25
8 12 -1 6.97 0.33
8 -12 1 6.75 0.33
8 12 1 7.56 0.33
8 -12 -1 7.72 0.36
8 12 1 6.85 0.3
-8 12 2 44.45 0.94
-8 12 2 44.8 1.02
8 -12 2 45.51 1.13
8 12 -2 44.59 1.12
8 12 2 44.53 1.09
8 12 2 44.53 1.1
8 -12 -2 43.83 1.16
8 -12 3 9.24 0.41
8 12 -3 8.92 0.41
8 -12 -3 9.17 0.44
8 12 3 9.73 0.4
8 12 3 8.92 0.39
8 12 -4 0.28 0.13
8 -12 4 0.01 0.11
8 12 4 0.21 0.13
8 -12 -4 0.22 0.11
8 -12 -4 0.05 0.12
8 12 4 0.05 0.1
8 -12 5 0.02 0.11
8 12 -5 0.21 0.13
8 12 5 -0.05 0.1
8 12 5 0.05 0.13
8 -12 -5 0.19 0.13
8 -12 -5 0.05 0.14
8 -12 6 14.84 0.55
8 12 -6 14.69 0.61
8 12 6 14.37 0.55
8 12 6 14.64 0.6
8 -12 -6 14.07 0.64
8 -12 7 1.24 0.22
8 12 -7 1.24 0.23
8 -12 -7 0.9 0.25
8 12 7 1.18 0.23
-8 12 8 71.21 1.64
-8 12 8 74.77 1.81
8 12 -8 69.73 1.85
8 -12 -8 68.55 1.92
8 12 8 72.88 1.86
9 12 0 0.06 0.08
9 12 0 0.14 0.1
9 -12 0 -0.02 0.1
9 12 -1 0.21 0.11
9 -12 1 0.28 0.12
9 12 1 -0.01 0.09
9 12 1 0.14 0.09
9 -12 -1 0.27 0.12
9 -12 2 5.14 0.31
9 12 -2 4.78 0.3
9 12 2 4.77 0.28
9 -12 -2 5.01 0.33
9 12 2 5.06 0.29
9 12 -3 30.47 0.89
9 -12 3 29.39 0.88
9 -12 -3 32.59 0.84
9 -12 -3 31.57 0.94
9 12 3 30.64 0.87
9 12 3 31.49 0.85
9 12 -4 34.24 0.98
9 -12 4 32.18 0.94
9 12 4 32.94 0.95
9 12 4 33.34 0.91
9 -12 -4 33.87 1.02
9 -12 -4 34.84 0.93
9 -12 5 3.27 0.3
9 12 -5 3.16 0.31
9 12 5 3.98 0.28
9 -12 -5 2.92 0.28
9 -12 -5 3.77 0.37
9 12 5 3.15 0.31
9 -12 6 15.94 0.61
9 12 -6 16.89 0.67
9 -12 -6 15.61 0.62
9 12 6 15.85 0.64
9 -12 -6 15.58 0.69
9 12 -7 2.38 0.32
9 -12 7 3.17 0.32
9 -12 -7 3.06 0.38
9 12 7 2.84 0.34
9 -12 8 0.26 0.18
-9 12 8 0.19 0.17
9 12 -8 0.12 0.19
-9 12 8 0.42 0.2
9 12 8 0.47 0.21
9 -12 -8 0.22 0.21
10 -12 0 75.79 1.81
10 12 0 76.27 1.72
10 12 0 76.72 1.74
10 12 -1 10.38 0.43
10 -12 1 10.05 0.45
10 12 1 9.96 0.41
10 12 1 9.79 0.4
10 -12 -1 9.16 0.45
10 12 -2 59.92 1.43
10 -12 2 55.3 1.43
10 12 2 58.56 1.38
10 12 2 58.6 1.41
10 -12 -2 57.12 1.48
10 12 -3 0.04 0.13
10 -12 3 0.13 0.13
10 12 3 0.15 0.13
10 -12 -3 -0.03 0.1
10 -12 -3 0.05 0.12
10 12 3 -0.05 0.1
10 -12 4 2.09 0.25
10 12 -4 2.14 0.27
10 -12 -4 2.1 0.29
10 12 4 1.96 0.25
10 12 4 2.15 0.24
10 -12 -4 1.57 0.21
10 12 -5 1.09 0.22
10 -12 5 1 0.21
10 12 5 0.85 0.2
10 -12 -5 0.34 0.16
10 -12 -5 0.52 0.19
10 12 -6 2.49 0.32
10 -12 6 2.32 0.29
10 12 6 1.98 0.29
10 -12 -6 2.12 0.28
10 -12 -6 2.9 0.37
10 12 -7 0.81 0.23
10 -12 7 0.54 0.2
10 -12 -7 0.8 0.26
10 -12 -7 0.66 0.21
10 12 7 0.74 0.22
10 -12 8 31.09 1.03
-10 12 8 32.66 0.96
-10 12 8 34.18 1.06
10 -12 -8 34.09 1.19
11 12 0 0.09 0.11
11 -12 0 0.15 0.13
11 -12 1 1.05 0.2
11 12 -1 0.7 0.16
11 12 1 0.82 0.16
11 12 1 0.47 0.14
11 -12 -1 0.21 0.14
11 12 -2 2.95 0.28
11 -12 2 2.98 0.31
11 -12 -2 2.4 0.28
11 12 2 2.55 0.26
11 12 2 2.45 0.24
11 12 -3 16.93 0.64
11 -12 3 16.81 0.64
11 12 3 16.99 0.62
11 12 3 16.52 0.57
11 -12 -3 16.82 0.67
11 -12 4 -0.05 0.13
11 12 -4 0.27 0.16
11 -12 -4 0.18 0.15
11 -12 -4 0.08 0.15
11 12 4 0.06 0.13
11 12 -5 0.47 0.19
11 -12 5 0.36 0.18
11 -12 -5 0.98 0.26
11 12 5 0.42 0.18
11 -12 -5 0.66 0.19
11 -12 6 0.42 0.2
11 12 -6 0.02 0.18
11 -12 -6 0.54 0.2
11 12 6 0.51 0.22
11 -12 -6 0.48 0.22
11 12 -7 0.81 0.25
11 -12 7 0.96 0.23
11 -12 -7 0.8 0.25
11 -12 -7 0.86 0.23
11 12 7 0.48 0.22
12 -12 0 84.58 2.06
12 12 0 87.66 1.97
12 -12 1 1.46 0.23
12 12 -1 1.32 0.22
12 12 1 1.03 0.18
12 12 1 1.69 0.22
12 -12 -1 1.37 0.24
12 12 -2 119.57 2.6
12 -12 2 115.53 2.66
12 12 2 114.33 2.52
12 12 2 118.48 2.61
12 -12 -2 115.43 2.69
12 12 -3 1.21 0.23
12 -12 3 0.91 0.21
12 -12 -3 1.07 0.23
12 12 3 1.13 0.22
12 -12 4 2.72 0.32
12 12 -4 3.29 0.34
12 -12 -4 2.85 0.35
12 12 4 3.02 0.32
12 12 -5 0.49 0.19
12 -12 5 0.39 0.19
12 -12 -5 0.21 0.19
12 12 5 0.38 0.18
12 12 -6 0.11 0.18
12 -12 6 -0.03 0.17
12 -12 -6 0.4 0.19
12 12 6 0.34 0.2
12 -12 -6 -0.01 0.2
12 -12 -7 -0.01 0.19
12 -12 -7 0.12 0.19
13 12 0 -0.09 0.12
13 -12 0 0.05 0.15
13 12 -1 2.54 0.29
13 -12 1 2.05 0.28
13 12 1 2.98 0.29
13 -12 -1 2.76 0.33
13 -12 2 10.1 0.52
13 12 -2 10.03 0.5
13 12 2 10.51 0.49
13 -12 -2 9.94 0.53
13 -12 3 0.68 0.21
13 12 -3 0.44 0.19
13 -12 -3 0.41 0.19
13 12 3 0.34 0.17
13 -12 4 15.59 0.67
13 12 -4 14.77 0.67
13 -12 -4 15.53 0.7
13 12 4 15.22 0.65
13 12 -5 0.24 0.2
13 -12 5 0.21 0.19
13 -12 -5 0.05 0.19
13 12 5 0.36 0.19
13 -12 -6 29.32 1.09
14 -12 0 0.38 0.19
14 12 0 0.47 0.17
14 12 -1 0.95 0.2
14 -12 1 0.17 0.17
14 -12 -1 0.54 0.2
14 -12 2 5.33 0.42
14 12 -2 5.42 0.4
14 -12 -2 6.48 0.47
14 -12 3 0.27 0.19
14 12 -3 0.73 0.22
14 -12 -3 0.61 0.22
14 12 3 0.52 0.19
14 -12 4 2.62 0.33
14 12 -4 2.16 0.31
14 -12 -4 2.51 0.35
14 12 4 2.14 0.31
14 12 5 2.2 0.35
15 -12 0 -0.06 0.16
15 -12 1 0.06 0.18
15 -12 -1 -0.05 0.17
15 -12 2 13.03 0.65
15 12 -2 12.52 0.61
15 -12 -2 13.27 0.66
15 12 -3 0.29 0.2
15 12 3 0.58 0.22
15 12 4 35.3 1.19
0 13 -1 -0.11 0.05
0 13 1 -0.02 0.06
0 -13 1 0.01 0.06
0 -13 -1 -0.06 0.05
0 -13 1 -0.09 0.04
0 -13 -1 -0.16 0.05
0 13 2 56.49 1.25
0 13 -2 58.5 1.24
0 -13 2 60.5 1.19
0 -13 2 57.26 1.24
0 -13 -2 54.82 1.3
0 -13 3 0 0.03
0 13 -3 0.12 0.06
0 13 3 0.13 0.07
0 -13 3 -0.09 0.06
0 -13 4 66.12 1.43
0 13 4 65.19 1.44
0 13 -4 64.62 1.41
0 -13 5 0.04 0.09
0 13 -5 0.02 0.06
0 13 5 0.08 0.09
0 13 -6 0.63 0.13
0 -13 6 0.68 0.14
0 13 6 0.53 0.13
0 13 7 -0.01 0.11
0 13 -7 0.09 0.1
0 -13 7 0.04 0.11
0 13 8 19.54 0.69
0 -13 8 19.15 0.63
0 13 9 -0.04 0.14
0 -13 9 0.13 0.14
0 13 10 0.28 0.19
1 -13 0 88.53 1.78
-1 -13 0 85.71 1.79
1 13 0 87.52 1.82
1 -13 0 86.29 1.83
-1 13 0 88.93 1.79
1 -13 1 162.98 3.31
1 13 -1 166.61 3.29
-1 -13 -1 167.45 3.25
-1 13 1 166.35 3.27
1 -13 1 167.33 3.25
1 13 1 169.87 3.3
1 -13 -1 165.44 3.37
-1 -13 1 166.87 3.28
-1 -13 1 161.59 3.25
1 -13 -1 168.41 3.23
-1 13 -1 160.01 3.26
1 -13 2 0.33 0.08
1 13 -2 0.24 0.07
1 -13 2 0.25 0.05
-1 13 2 0.2 0.07
-1 13 -2 0.26 0.06
1 -13 -2 0.26 0.09
-1 -13 2 0.25 0.04
-1 -13 2 0.2 0.07
1 13 2 0.31 0.08
1 13 -3 47.93 1.09
-1 13 3 48.4 1.1
1 -13 3 50.49 1.04
1 -13 3 47.9 1.09
-1 -13 3 48.59 1.09
-1 13 -3 49.84 1.06
1 13 3 47.7 1.11
1 -13 -3 49.14 1.18
1 -13 4 0.02 0.07
1 13 -4 0.03 0.06
-1 13 4 0.05 0.07
1 -13 4 -0.01 0.04
-1 -13 4 -0.07 0.07
1 13 4 -0.02 0.07
-1 13 -4 0.08 0.06
-1 13 5 15.1 0.5
1 -13 5 15.04 0.49
1 13 -5 15.16 0.49
-1 13 -5 14.99 0.46
1 13 5 15.11 0.5
-1 -13 5 15.59 0.48
1 13 -6 8.69 0.38
1 -13 6 9.45 0.39
-1 13 6 9.87 0.41
-1 13 -6 9.51 0.37
1 13 6 9.86 0.41
-1 -13 6 9.59 0.38
-1 13 7 56.18 1.38
1 -13 7 55.99 1.35
1 13 -7 56.7 1.38
-1 -13 7 56.58 1.34
1 13 7 58.35 1.39
-1 13 8 0.22 0.15
1 13 -8 0.55 0.16
1 -13 8 0.37 0.15
-1 -13 8 0.45 0.15
1 13 8 0.38 0.16
-1 13 9 77.87 1.86
1 -13 9 77.87 1.8
-1 -13 9 77.3 1.77
1 13 9 73.66 1.83
-1 13 10 4.47 0.41
1 -13 10 4.87 0.39
1 13 10 3.91 0.37
2 13 0 -0.08 0.05
2 -13 0 -0.05 0.05
-2 13 0 0.05 0.05
2 -13 0 -0.01 0.05
-2 -13 0 0.01 0.06
-2 13 1 18.64 0.48
2 -13 1 18.77 0.48
2 -13 1 17.34 0.47
2 13 -1 18.78 0.51
2 13 1 18.21 0.51
2 -13 -1 18.1 0.46
-2 13 -1 17.9 0.46
2 -13 -1 18.11 0.52
-2 -13 1 18.26 0.5
2 -13 2 1.43 0.14
-2 13 2 1.08 0.12
2 -13 2 1.32 0.11
2 13 -2 1.04 0.12
-2 13 -2 1.25 0.11
-2 -13 2 1.32 0.14
2 -13 -2 1.43 0.1
2 -13 -2 1.25 0.15
2 13 2 1.24 0.15
2 -13 3 94.74 1.98
-2 13 3 94.69 1.99
2 -13 3 97.97 1.97
2 13 -3 95.41 2
2 13 3 96.09 2.01
2 -13 -3 97.76 2.11
-2 13 -3 97.6 1.93
-2 -13 3 92.31 1.98
2 -13 4 0.74 0.09
2 13 -4 0.54 0.11
-2 13 4 0.77 0.12
2 -13 4 0.5 0.11
-2 13 -4 0.59 0.09
2 13 4 0.5 0.11
2 -13 -4 0.69 0.14
-2 -13 4 0.6 0.11
2 -13 5 35.6 0.88
2 -13 5 34.85 0.81
-2 13 5 32.94 0.88
2 13 -5 34.22 0.88
-2 -13 5 33.55 0.85
-2 13 -5 34.24 0.86
2 13 5 33.96 0.88
2 13 -6 0.14 0.11
-2 13 6 0.04 0.1
-2 13 6 0.15 0.12
2 -13 6 0.21 0.11
2 13 6 0.23 0.12
-2 -13 6 0.2 0.11
-2 13 7 30.89 0.82
2 -13 7 31.15 0.86
-2 13 7 31.01 0.89
2 13 -7 30.78 0.89
-2 -13 7 30.96 0.83
2 13 7 30.71 0.87
-2 13 8 0.11 0.15
2 -13 8 0.08 0.13
-2 13 8 0.01 0.13
2 13 -8 0.21 0.13
-2 -13 8 0.17 0.13
2 13 8 -0.25 0.11
2 -13 9 0.49 0.18
2 13 -9 0.45 0.18
-2 13 9 0.49 0.2
2 13 9 0.54 0.18
2 -13 10 0.1 0.17
-2 13 10 -0.01 0.17
2 13 10 0.26 0.18
-3 13 0 44.42 0.97
3 -13 0 45.49 1.04
3 -13 0 45.74 0.97
3 13 0 43.78 1.03
-3 -13 0 45.85 1.02
3 -13 1 117.98 2.39
3 -13 1 120.83 2.46
-3 13 1 118.89 2.39
3 -13 -1 119.33 2.36
3 13 1 120.41 2.46
3 -13 -1 123.91 2.52
-3 13 -1 114.36 2.36
-3 -13 1 122.3 2.42
3 -13 2 16.66 0.46
3 13 -2 17.42 0.5
-3 13 2 17.93 0.48
3 -13 2 17.26 0.48
3 13 2 16.94 0.51
3 -13 -2 17.56 0.43
-3 13 -2 17.6 0.42
3 13 -3 70.52 1.56
3 -13 3 73.36 1.53
3 -13 3 70.57 1.54
-3 13 3 70.82 1.54
-3 -13 3 72.13 1.53
3 13 3 73.25 1.57
3 -13 -3 71.8 1.65
-3 13 -3 70.28 1.44
3 -13 4 4.17 0.24
-3 13 4 4.34 0.23
3 13 -4 4.22 0.24
3 -13 4 4.3 0.21
-3 13 4 3.8 0.23
3 -13 -4 4.35 0.29
3 13 4 4.72 0.25
-3 -13 4 4.39 0.24
-3 13 5 1.06 0.15
3 -13 5 1.15 0.17
3 -13 5 1.11 0.13
-3 13 5 1.56 0.19
3 13 -5 1.08 0.16
3 13 5 0.9 0.15
3 -13 -5 1.22 0.2
-3 -13 5 0.81 0.14
-3 13 6 3.93 0.26
3 -13 6 4.12 0.28
3 13 -6 3.39 0.26
-3 13 6 3.63 0.29
-3 -13 6 4.06 0.25
3 13 6 3.85 0.26
3 13 -7 0.83 0.18
-3 13 7 1.06 0.19
-3 13 7 1.39 0.2
3 -13 7 1.08 0.19
3 13 7 0.82 0.18
-3 -13 7 0.89 0.16
3 -13 8 3.24 0.3
-3 13 8 2.52 0.29
-3 13 8 2.89 0.28
3 13 -8 2.38 0.29
-3 -13 8 2.93 0.26
3 13 8 2.72 0.28
-3 13 9 8.99 0.44
3 -13 9 8 0.44
3 13 -9 8.52 0.49
-3 13 9 8.6 0.48
3 13 9 9.31 0.48
3 -13 10 2.25 0.3
3 13 10 2.54 0.32
4 -13 0 -0.05 0.06
4 -13 0 -0.07 0.05
4 13 0 -0.09 0.06
-4 13 0 -0.03 0.04
4 -13 1 23.24 0.62
4 13 -1 23.49 0.64
-4 13 1 23.08 0.57
4 13 -1 24.52 0.53
4 -13 1 24.11 0.6
4 -13 -1 23.41 0.56
-4 13 -1 24.55 0.55
-4 -13 1 24 0.63
4 -13 -1 24.11 0.66
-4 13 2 0.08 0.06
4 -13 2 0.03 0.06
4 -13 2 0.04 0.06
4 13 -2 0.26 0.09
4 -13 -2 0.05 0.08
4 -13 -2 0.08 0.05
-4 -13 2 -0.04 0.07
4 13 2 0.01 0.07
-4 13 -2 0.04 0.03
4 -13 3 214.83 4.36
-4 13 3 228.3 4.39
4 -13 3 221.06 4.47
-4 13 3 219.21 4.03
4 13 -3 228.89 4.44
-4 -13 3 219.42 4.36
4 13 3 222.55 4.43
4 -13 -3 225.84 4.6
-4 13 4 -0.04 0.08
4 -13 4 0.18 0.08
4 13 -4 0.16 0.09
-4 13 4 0.14 0.08
4 -13 4 0 0.09
4 13 4 0.2 0.09
-4 -13 4 0.09 0.08
4 -13 -4 0.1 0.1
-4 13 5 95.59 2.11
4 -13 5 95.81 2.09
-4 13 5 99.43 1.94
4 -13 5 100.82 2.11
4 13 -5 98.85 2.15
4 13 5 99.04 2.12
4 -13 -5 96.91 2.26
-4 -13 5 97.37 2.06
4 -13 6 9.6 0.42
4 -13 6 9.29 0.37
-4 13 6 10.42 0.4
4 13 -6 9.92 0.44
-4 13 6 10.08 0.43
4 -13 -6 10.09 0.49
-4 -13 6 9.67 0.39
4 13 6 9.64 0.42
-4 13 7 75.45 1.78
4 13 -7 78.29 1.83
4 -13 7 76.2 1.76
-4 13 7 77.19 1.64
4 13 7 76.1 1.76
-4 -13 7 75.26 1.7
4 -13 8 1.62 0.24
4 13 -8 1.97 0.27
-4 13 8 1.43 0.23
-4 13 8 1.65 0.23
4 13 8 1.9 0.25
-4 13 9 0.61 0.19
4 -13 9 0.16 0.17
4 13 -9 0.37 0.19
-4 13 9 0.13 0.17
4 13 9 0.29 0.17
4 -13 10 -0.02 0.17
4 13 -10 0.25 0.21
4 13 10 0.02 0.17
5 13 0 59.57 1.26
5 -13 0 57.17 1.34
-5 13 0 58.4 1.21
5 13 0 60.54 1.33
5 -13 0 58.26 1.24
5 13 -1 8.07 0.33
-5 13 1 7.93 0.27
5 -13 1 7.98 0.32
5 -13 1 8.27 0.29
5 13 -1 8.03 0.24
5 -13 -1 8.22 0.25
5 -13 -1 7.85 0.33
5 13 1 7.71 0.32
-5 13 -1 7.86 0.23
5 13 -2 0.37 0.09
-5 13 2 0.23 0.07
5 -13 2 0.19 0.08
5 -13 2 0.23 0.08
-5 13 2 0.2 0.08
5 13 2 0.22 0.1
-5 -13 2 0.31 0.09
5 -13 -2 0.26 0.1
5 -13 -2 0.27 0.06
-5 13 3 0.53 0.11
5 -13 3 0.69 0.12
-5 13 3 0.69 0.11
5 -13 3 0.53 0.12
5 13 -3 0.58 0.12
-5 -13 3 0.88 0.13
5 -13 -3 0.88 0.16
5 13 3 0.57 0.12
5 -13 4 3.05 0.23
5 -13 4 2.85 0.2
-5 13 4 2.85 0.2
5 13 -4 2.6 0.23
-5 13 4 3.21 0.23
5 13 4 2.4 0.22
-5 -13 4 3.02 0.2
5 -13 -4 2.81 0.28
-5 13 5 23.37 0.63
-5 13 5 23.31 0.69
5 -13 5 24.13 0.66
5 13 -5 23.46 0.72
5 -13 5 22.8 0.69
-5 -13 5 22.84 0.65
5 13 5 23.47 0.7
5 -13 -5 23.35 0.78
5 -13 6 3.31 0.24
5 -13 6 2.77 0.27
-5 13 6 2.84 0.26
-5 13 6 3.1 0.25
5 13 -6 3.17 0.3
-5 -13 6 3.35 0.24
5 13 6 3.38 0.28
5 -13 -6 3.81 0.36
-5 13 7 9.36 0.45
-5 13 7 9.49 0.42
5 -13 7 9.55 0.45
5 13 -7 9.17 0.48
5 13 7 9.21 0.43
-5 13 8 3.02 0.32
5 13 -8 2.94 0.33
5 -13 8 3.46 0.33
-5 13 8 3.53 0.31
5 13 8 3.6 0.32
5 -13 9 3.29 0.34
5 13 -9 4.05 0.4
-5 13 9 2.96 0.34
-5 13 9 3.34 0.32
5 13 9 4.46 0.37
5 13 -10 -0.09 0.19
6 -13 0 0.05 0.06
6 13 0 0 0.06
6 13 0 0.06 0.06
6 -13 0 0.03 0.07
-6 13 0 -0.03 0.04
6 -13 1 7.34 0.28
6 13 -1 7.39 0.24
-6 13 1 7.02 0.25
6 -13 1 7.59 0.32
6 -13 -1 7.34 0.33
6 13 1 7.27 0.28
6 -13 -1 7.33 0.24
6 13 1 7.44 0.32
6 -13 2 0.47 0.11
-6 13 2 0.56 0.09
-6 13 2 0.44 0.09
6 -13 2 0.39 0.1
6 13 -2 0.46 0.11
6 -13 -2 0.36 0.12
6 13 2 0.5 0.11
6 13 2 0.37 0.1
-6 13 3 90.15 1.9
-6 13 3 88.26 1.74
6 13 -3 89.8 1.97
6 -13 3 89.63 1.96
6 -13 -3 88.94 2.05
6 13 3 89.13 1.95
-6 -13 3 90.58 1.9
-6 13 4 2.48 0.2
-6 13 4 2.59 0.22
6 -13 4 2.23 0.21
6 13 -4 2.91 0.27
-6 -13 4 2.69 0.2
6 -13 -4 2.51 0.27
6 13 4 2.79 0.24
6 -13 5 24.27 0.69
-6 13 5 22.48 0.69
-6 13 5 23.27 0.64
6 13 -5 22.82 0.74
6 -13 -5 22.96 0.8
-6 -13 5 23.82 0.66
6 13 5 24.23 0.71
6 13 -6 0.14 0.13
-6 13 6 0.18 0.13
6 -13 6 0.25 0.12
-6 13 6 0.21 0.12
6 13 6 0.21 0.13
6 -13 -6 0.28 0.16
-6 -13 6 0.32 0.12
-6 13 7 51.09 1.21
6 13 -7 51.69 1.38
-6 13 7 52.56 1.33
6 -13 7 50.61 1.31
6 -13 -7 48.59 1.44
6 13 7 51.5 1.3
-6 13 8 -0.17 0.13
6 13 -8 0.12 0.16
6 -13 8 -0.01 0.15
-6 13 8 -0.01 0.15
6 13 8 -0.16 0.12
-6 13 9 1.68 0.28
6 13 -9 1.65 0.29
-6 13 9 1.59 0.26
6 -13 9 1.93 0.3
7 -13 0 34.07 0.89
7 13 0 32.18 0.79
7 -13 0 33.35 0.77
7 13 0 32.44 0.86
-7 13 1 28.85 0.68
7 -13 1 28.58 0.79
7 -13 1 28.68 0.72
7 13 -1 29.12 0.79
-7 13 1 30.07 0.63
7 -13 -1 29.52 0.67
7 13 1 28.43 0.74
7 -13 -1 28.53 0.81
7 13 1 28.93 0.78
7 -13 2 0.13 0.1
-7 13 2 0.16 0.08
-7 13 2 0.06 0.08
7 13 -2 0.32 0.11
7 13 2 0.43 0.12
7 13 2 0.28 0.1
7 -13 -2 0.33 0.11
-7 13 3 7.62 0.32
-7 13 3 7.26 0.28
7 13 -3 7.01 0.35
7 -13 3 6.97 0.34
7 13 3 7.57 0.34
7 13 3 7.78 0.35
7 -13 -3 7.45 0.38
7 13 -4 0.07 0.11
7 -13 4 0.04 0.1
-7 13 4 0.1 0.1
-7 13 4 0.05 0.1
7 13 4 0.08 0.1
-7 -13 4 0.08 0.09
7 13 4 -0.07 0.1
7 -13 -4 0.07 0.11
7 -13 5 0.04 0.11
7 13 -5 0.14 0.12
-7 13 5 -0.04 0.1
-7 13 5 -0.03 0.11
7 13 5 -0.13 0.11
7 13 5 0.02 0.11
7 -13 -5 0.05 0.13
-7 -13 5 0.09 0.09
-7 13 6 0.8 0.17
-7 13 6 0.48 0.16
7 -13 6 0.77 0.17
7 13 -6 0.9 0.2
7 -13 -6 0.68 0.21
7 13 6 0.55 0.16
7 13 6 0.77 0.2
-7 13 7 7.44 0.39
-7 13 7 7.79 0.43
7 13 -7 7.51 0.46
7 -13 7 8.05 0.41
7 13 7 8.34 0.47
7 13 7 8.57 0.44
7 -13 -7 7.32 0.48
-7 13 8 5.5 0.4
7 -13 8 5.56 0.41
7 13 -8 5.65 0.48
-7 13 8 5.01 0.39
7 13 8 5.08 0.44
-7 13 9 4.59 0.47
-7 13 9 4.73 0.44
7 -13 9 4.72 0.43
7 13 -9 5.83 0.5
8 -13 0 0 0.09
8 13 0 -0.05 0.06
8 13 0 0.01 0.09
8 -13 0 -0.05 0.06
8 -13 1 0.74 0.15
8 13 -1 0.94 0.15
8 13 1 0.86 0.15
8 -13 -1 0.75 0.16
8 13 1 0.9 0.14
8 -13 2 2.07 0.22
-8 13 2 2.51 0.18
8 13 -2 2.57 0.25
-8 13 2 2.24 0.17
8 -13 -2 2.11 0.23
8 13 2 2.32 0.22
8 13 2 2.53 0.22
8 -13 3 26.99 0.79
-8 13 3 26.47 0.72
8 13 -3 28.45 0.81
-8 13 3 28.12 0.67
8 -13 -3 27.03 0.85
8 13 3 26.79 0.77
8 13 3 26.95 0.78
-8 13 4 3.08 0.22
-8 13 4 3.81 0.25
8 13 -4 3.07 0.29
8 -13 4 3.96 0.28
8 13 4 3.76 0.26
8 13 4 3.19 0.28
8 -13 -4 3.9 0.35
-8 13 5 7.72 0.38
-8 13 5 7.66 0.35
8 -13 5 8.9 0.41
8 13 -5 7.97 0.44
8 -13 -5 7.83 0.46
8 13 5 7.81 0.41
8 13 5 8.16 0.4
8 13 -6 0.9 0.21
8 -13 6 1.37 0.21
-8 13 6 0.8 0.18
-8 13 6 1.04 0.18
8 13 6 0.97 0.19
8 13 6 0.9 0.2
8 -13 -6 0.89 0.22
-8 13 7 35.54 0.95
8 -13 7 36.68 1.01
8 13 -7 34.26 1.08
-8 13 7 34.49 1.02
8 -13 -7 33.56 1.13
8 13 7 33.53 1.06
-8 13 8 0.44 0.19
-8 13 8 0.61 0.22
8 13 -8 1.08 0.24
8 -13 -8 0.64 0.23
8 13 8 0.87 0.24
9 13 0 14.53 0.47
9 13 0 15.06 0.52
9 -13 0 14.81 0.55
9 13 -1 105.8 2.31
9 -13 1 106.59 2.37
9 13 1 107.36 2.3
9 13 1 104.71 2.29
9 -13 -1 106.84 2.39
9 13 -2 12.53 0.49
9 -13 2 11.26 0.48
9 13 2 13.41 0.48
9 -13 -2 13.11 0.53
9 13 2 12.73 0.48
-9 13 3 26.67 0.74
-9 13 3 27.95 0.69
9 13 -3 26.85 0.82
9 -13 3 27.11 0.82
9 -13 -3 27.45 0.87
9 13 3 27.71 0.79
9 13 3 28.71 0.82
9 13 -4 1.9 0.25
9 -13 4 2.14 0.24
9 -13 -4 2.5 0.29
9 13 4 1.86 0.23
9 13 4 2.01 0.22
9 -13 5 3.94 0.33
9 13 -5 3.88 0.35
9 13 5 3.65 0.33
9 13 5 3.24 0.28
9 -13 -5 3.79 0.38
-9 13 6 -0.19 0.12
-9 13 6 -0.19 0.13
9 -13 6 0.01 0.13
9 13 -6 0.16 0.16
9 -13 -6 -0.03 0.15
9 13 6 0.1 0.16
-9 13 7 40.23 1.14
-9 13 7 39.25 1.04
9 -13 7 40.57 1.14
9 13 -7 39.59 1.21
9 -13 -7 40.48 1.28
9 13 7 39.31 1.19
9 13 -8 0.17 0.19
-9 13 8 0.52 0.22
-9 13 8 0.17 0.17
9 13 8 0.28 0.21
9 -13 -8 0.56 0.24
10 -13 0 0.06 0.12
10 13 0 0.19 0.12
10 13 -1 4.38 0.3
10 -13 1 4.55 0.32
10 13 1 4.19 0.27
10 -13 -1 4.29 0.31
10 13 1 4.57 0.3
10 13 -2 1.65 0.22
10 -13 2 1.62 0.22
10 -13 -2 1.55 0.23
10 13 2 1.54 0.21
10 13 2 1.61 0.21
10 -13 3 15.01 0.57
10 13 -3 13.76 0.56
10 13 3 14.16 0.52
10 13 3 14.16 0.55
10 -13 -3 13.8 0.59
10 13 -4 0.57 0.17
10 -13 4 0.41 0.16
10 13 4 0.21 0.13
10 -13 -4 0.24 0.17
10 13 4 0.24 0.15
10 13 -5 0.34 0.18
10 -13 5 0.41 0.17
10 -13 -5 0.38 0.18
10 13 5 0.38 0.17
10 -13 6 3.22 0.32
10 13 -6 2.84 0.33
10 -13 -6 2.12 0.33
10 13 6 2.53 0.31
-10 13 7 2.82 0.3
-10 13 7 3.5 0.35
10 -13 7 3.92 0.37
10 13 -7 2.94 0.35
10 -13 -7 3.29 0.41
10 13 7 4.05 0.4
-10 13 8 0.96 0.28
-10 13 8 1.27 0.28
10 -13 8 0.79 0.24
10 -13 -8 1.2 0.29
11 -13 0 6 0.38
11 13 0 6.63 0.37
11 -13 1 85.14 2.01
11 13 -1 84.48 1.94
11 13 1 84 1.92
11 -13 -1 82.96 2.02
11 13 1 84.92 1.91
11 -13 2 3.36 0.32
11 13 -2 3.39 0.31
11 13 2 3.13 0.28
11 -13 -2 3.62 0.35
11 13 2 3.23 0.28
11 13 -3 37.96 1.07
11 -13 3 36.12 1.06
11 13 3 35.33 0.99
11 -13 -3 38.12 1.13
11 13 3 37.26 1.04
11 13 -4 0.16 0.16
11 -13 4 0.31 0.16
11 13 4 0.17 0.15
11 -13 -4 0.48 0.19
11 -13 5 0.2 0.17
11 13 -5 0.28 0.18
11 13 5 0.22 0.18
11 -13 -5 0.33 0.19
11 13 -6 3.23 0.37
11 -13 6 3.1 0.33
11 13 6 3.08 0.35
11 -13 -6 3.82 0.42
11 -13 7 21.28 0.81
-11 13 7 22.01 0.8
-11 13 7 23.71 0.76
11 13 7 22.02 0.86
11 -13 -7 23.45 0.95
12 13 0 0.12 0.13
12 -13 0 0.04 0.13
12 13 -1 1.22 0.21
12 -13 1 1.09 0.22
12 -13 -1 0.85 0.2
12 13 1 1.13 0.2
12 13 -2 1.33 0.22
12 -13 2 1.7 0.26
12 13 2 1.62 0.23
12 13 2 1.71 0.22
12 -13 -2 1.26 0.24
12 13 -3 17.45 0.67
12 -13 3 15.75 0.65
12 -13 -3 17.6 0.71
12 13 3 16.75 0.64
12 13 -4 0.44 0.19
12 -13 4 0.31 0.17
12 -13 -4 0.11 0.17
12 13 4 0.43 0.18
12 13 -5 13.85 0.66
12 -13 5 15.52 0.66
12 13 5 14.85 0.64
12 -13 -5 14.11 0.69
12 13 -6 0.23 0.21
12 -13 6 0.78 0.23
12 13 6 0.36 0.2
12 -13 -6 0.78 0.25
-12 13 7 3.2 0.33
-12 13 7 4.13 0.39
13 13 0 8.2 0.44
13 -13 0 8.28 0.48
13 13 -1 25.3 0.84
13 -13 1 27.62 0.92
13 13 1 26.71 0.83
13 -13 -1 27.56 0.92
13 13 -2 1.54 0.25
13 -13 2 1.27 0.25
13 13 2 1.5 0.24
13 -13 -2 1.62 0.27
13 -13 3 8.43 0.5
13 13 -3 8.4 0.48
13 13 3 8.38 0.47
13 -13 -3 8.74 0.52
13 -13 4 0.26 0.19
13 13 -4 0.14 0.18
13 -13 -4 0.37 0.2
13 13 4 -0.07 0.15
13 13 -5 1.22 0.28
13 -13 5 1.44 0.28
13 -13 -5 1.45 0.29
13 13 5 1.07 0.26
14 13 0 0.1 0.15
14 -13 0 0.12 0.16
14 -13 1 1.81 0.29
14 13 -1 2.45 0.3
14 -13 -1 1.69 0.28
14 13 -2 1.1 0.24
14 -13 2 1.03 0.25
14 -13 -2 1.51 0.27
14 13 -3 37.14 1.13
14 -13 3 38.07 1.16
14 13 3 36.41 1.11
14 -13 -3 33.87 1.16
14 -13 4 10.12 0.58
14 13 -4 9.05 0.54
14 -13 -4 9.97 0.6
14 13 4 9.17 0.53
15 -13 0 2.27 0.32
15 -13 1 3.83 0.4
15 13 -1 3.17 0.34
15 -13 -1 3.87 0.42
15 13 -2 3.85 0.38
15 -13 -2 4.76 0.52
15 13 -3 1.82 0.29
0 -14 0 46.49 1.1
0 -14 0 51.96 1.1
0 14 0 53.05 1.12
0 -14 -1 -0.07 0.05
0 14 -1 -0.09 0.04
0 14 1 -0.08 0.06
0 -14 1 -0.06 0.06
0 -14 1 0.12 0.05
0 -14 -1 0.05 0.05
0 14 -2 71.64 1.52
0 -14 2 72.99 1.48
0 -14 -2 74.21 1.62
0 14 2 71.61 1.54
0 -14 2 70.98 1.53
0 14 3 -0.06 0.06
0 14 -3 0.05 0.06
0 -14 3 0.13 0.08
0 -14 3 -0.01 0.03
0 -14 4 0.25 0.09
0 14 4 0.28 0.1
0 14 -4 0.21 0.08
0 14 5 0.09 0.1
0 -14 5 0.04 0.08
0 14 -5 -0.02 0.07
0 14 -6 19.01 0.59
0 -14 6 19.35 0.59
0 14 6 19.02 0.61
0 -14 7 -0.09 0.1
0 14 7 0.03 0.12
0 14 8 108.46 2.43
0 -14 8 109.48 2.37
0 14 9 -0.02 0.15
0 -14 9 0.17 0.14
0 14 10 43.62 1.25
1 -14 0 -0.17 0.04
-1 -14 0 -0.02 0.06
-1 14 0 0 0.06
1 14 0 -0.03 0.06
1 -14 0 -0.07 0.05
1 -14 1 20.18 0.51
-1 14 1 20.56 0.54
1 14 -1 19.72 0.54
1 -14 1 20.78 0.53
-1 -14 1 21.22 0.48
-1 14 -1 19.9 0.52
1 14 1 20.59 0.56
1 -14 -1 20.71 0.56
1 -14 -1 20.3 0.52
-1 -14 1 20.73 0.55
1 -14 2 14.03 0.36
1 14 -2 13.35 0.41
-1 14 2 13.79 0.41
-1 14 -2 13.82 0.39
-1 -14 2 13.12 0.41
1 14 2 14.44 0.43
1 -14 -2 13.52 0.45
-1 -14 2 13.63 0.32
1 -14 3 2.78 0.14
1 -14 3 3.29 0.2
-1 14 3 2.81 0.19
1 14 -3 2.93 0.18
-1 -14 3 2.96 0.19
1 -14 -3 3.04 0.22
-1 14 -3 2.62 0.16
1 14 3 3.52 0.21
1 -14 4 3.22 0.21
-1 14 4 3.29 0.21
1 14 -4 2.99 0.2
-1 14 -4 2.93 0.17
1 14 4 2.6 0.2
-1 -14 4 3.08 0.2
1 14 -5 13.54 0.46
-1 14 5 13.4 0.47
1 -14 5 13.75 0.46
-1 -14 5 12.6 0.44
-1 14 -5 13.33 0.42
1 14 5 13.37 0.47
1 14 -6 0.18 0.1
1 -14 6 0.04 0.1
-1 14 6 -0.05 0.09
1 14 6 0.2 0.12
-1 -14 6 0.11 0.1
1 -14 7 0.11 0.12
-1 14 7 0.1 0.12
1 14 -7 0.11 0.12
1 14 7 0.22 0.14
-1 -14 7 0.31 0.13
-1 14 8 0.02 0.14
1 -14 8 0.06 0.13
-1 -14 8 0.06 0.13
1 14 8 0.16 0.15
-1 14 9 0.19 0.17
1 -14 9 0.12 0.15
1 14 9 0.1 0.16
-1 -14 9 0.31 0.16
-1 14 10 0.66 0.21
1 -14 10 0.93 0.22
1 14 10 0.93 0.24
2 -14 0 34.04 0.77
2 14 0 31.95 0.81
-2 -14 0 33.12 0.8
2 -14 0 32.85 0.8
-2 14 0 34.73 0.77
2 -14 1 4.25 0.2
2 -14 1 4.62 0.2
-2 14 1 4.27 0.19
2 14 -1 4.19 0.22
2 -14 -1 4.49 0.19
-2 14 -1 4 0.18
2 14 1 4.56 0.23
-2 -14 1 4.57 0.22
2 -14 -1 4.88 0.23
2 -14 2 150.23 3.05
2 -14 2 158.74 3.11
-2 14 2 152.49 3.07
2 14 -2 153.97 3.1
2 14 2 150.77 3.11
2 -14 -2 156.22 3.01
-2 -14 2 151.95 3.07
-2 14 -2 155.57 3.03
2 -14 -2 156.45 3.21
-2 14 3 0.31 0.09
2 -14 3 0.06 0.08
2 14 -3 0.2 0.08
2 -14 3 0.23 0.07
2 14 3 0.35 0.1
2 -14 -3 0.33 0.11
-2 14 -3 0.21 0.06
-2 -14 3 0.18 0.09
2 -14 4 11.07 0.34
2 14 -4 11.24 0.4
2 -14 4 11.59 0.4
-2 14 -4 11.83 0.35
-2 -14 4 11.47 0.4
2 14 4 10.62 0.4
2 -14 -4 11.86 0.47
2 -14 5 1.11 0.16
-2 14 5 1.12 0.17
2 14 -5 1.31 0.17
-2 -14 5 1.22 0.16
2 14 5 1.31 0.17
-2 14 6 5.73 0.33
2 14 -6 6.09 0.33
2 -14 6 6.55 0.33
-2 -14 6 6.31 0.31
2 14 6 6.36 0.33
2 14 -7 0.37 0.15
2 -14 7 0.85 0.17
-2 14 7 0.54 0.16
-2 -14 7 0.39 0.13
2 14 7 0.66 0.17
-2 14 8 13.83 0.57
2 -14 8 14.27 0.56
2 14 -8 14.77 0.59
-2 -14 8 13.67 0.52
2 14 8 13.35 0.56
-2 14 9 0.27 0.18
2 -14 9 0.32 0.16
2 14 9 0.01 0.15
2 -14 10 13.44 0.59
2 14 10 12.61 0.6
-3 14 0 -0.02 0.05
3 -14 0 -0.02 0.05
3 -14 0 0.17 0.07
-3 -14 0 -0.09 0.05
3 14 0 0.13 0.07
-3 14 1 5.07 0.21
3 14 -1 5.06 0.25
3 -14 1 4.91 0.22
3 -14 1 5.37 0.22
3 14 1 5.08 0.25
-3 -14 1 5.43 0.25
3 -14 -1 5.5 0.26
3 -14 -1 5.25 0.2
-3 14 -1 4.93 0.19
3 14 -2 99.63 2.07
3 -14 2 97.93 2.02
-3 14 2 98.91 2.02
3 -14 2 95.44 2.05
-3 14 -2 100.59 1.97
3 -14 -2 97.28 1.96
-3 -14 2 99.04 2.04
3 -14 -2 98.96 2.15
3 14 2 99.03 2.08
3 14 -3 8.24 0.33
3 -14 3 7.73 0.31
3 -14 3 7.41 0.28
-3 14 3 8.51 0.32
3 -14 -3 8.49 0.37
-3 14 -3 7.82 0.25
3 14 3 7.98 0.33
-3 -14 3 7.95 0.31
3 -14 4 102.74 2.13
3 -14 4 101.8 2.15
-3 14 4 100.91 2.15
3 14 -4 103.41 2.18
3 -14 -4 102.73 2.3
-3 -14 4 102.49 2.13
3 14 4 100.44 2.17
-3 14 5 22.71 0.67
3 -14 5 21.52 0.66
3 14 -5 20.95 0.67
3 -14 5 23.15 0.6
-3 14 5 22.74 0.61
3 -14 -5 23.66 0.76
3 14 5 22.35 0.66
-3 -14 5 22.51 0.64
-3 14 6 74.8 1.56
3 14 -6 73.59 1.72
-3 14 6 74.54 1.7
3 -14 6 73.71 1.68
3 14 6 74.37 1.69
-3 -14 6 73.38 1.64
-3 14 7 0.43 0.15
3 -14 7 0.69 0.17
-3 14 7 0.55 0.16
3 14 -7 0.52 0.16
-3 -14 7 0.52 0.14
3 14 7 0.47 0.15
-3 14 8 8.04 0.44
3 -14 8 8.3 0.43
-3 14 8 8.18 0.4
3 14 -8 8.25 0.44
3 14 8 7.57 0.41
-3 -14 8 7.76 0.39
-3 14 9 0.15 0.15
3 14 -9 -0.08 0.14
-3 14 9 0.11 0.17
3 -14 9 -0.05 0.15
3 14 9 0.19 0.16
3 -14 10 9.75 0.52
3 14 10 9.39 0.52
4 14 0 8.18 0.33
4 -14 0 7.97 0.32
4 -14 0 8.21 0.28
-4 14 0 8.35 0.26
4 -14 1 17.52 0.49
4 14 -1 18.64 0.55
4 14 -1 18.61 0.43
-4 14 1 18.69 0.48
4 -14 1 18.22 0.52
-4 -14 1 19.59 0.54
4 -14 -1 18.24 0.56
-4 14 -1 19.29 0.46
4 -14 -1 19.08 0.47
4 14 1 18.29 0.55
4 14 -2 50.84 1.16
4 -14 2 50.08 1.11
-4 14 2 47.39 1.09
4 -14 2 46.43 1.11
4 -14 -2 48.7 1.2
-4 -14 2 49.04 1.12
-4 14 -2 50.14 1.02
4 -14 -2 49.19 1.03
4 14 2 49.83 1.16
-4 14 3 9.39 0.35
4 14 -3 9.39 0.37
4 -14 3 9.38 0.36
4 -14 3 8.89 0.33
4 -14 -3 9.69 0.41
-4 -14 3 9.31 0.35
4 14 3 9.75 0.38
4 14 -4 0.2 0.1
4 -14 4 0.24 0.11
4 -14 4 0.1 0.08
-4 14 4 0.08 0.09
-4 14 4 0.14 0.09
-4 -14 4 0.08 0.09
4 14 4 0 0.09
4 -14 -4 0.25 0.13
4 14 -5 9.24 0.41
4 -14 5 8.75 0.38
-4 14 5 9.33 0.39
4 -14 5 9.4 0.35
-4 14 5 9.42 0.36
4 -14 -5 9.08 0.45
4 14 5 8.94 0.39
-4 -14 5 9.12 0.36
4 14 -6 18.41 0.64
4 -14 6 18.91 0.62
-4 14 6 18.59 0.63
-4 14 6 18.78 0.58
4 -14 -6 19.04 0.72
4 14 6 19.24 0.62
-4 -14 6 19.81 0.6
-4 14 7 0.48 0.16
4 -14 7 0.47 0.16
4 14 -7 0.31 0.15
-4 14 7 0.45 0.16
4 14 7 0.4 0.16
-4 -14 7 0.38 0.13
-4 14 8 8.28 0.41
4 14 -8 8.21 0.47
4 -14 8 8.44 0.44
-4 14 8 9.4 0.47
4 14 8 7.49 0.43
4 -14 9 7.95 0.45
-4 14 9 8.16 0.43
-4 14 9 7.66 0.46
4 14 -9 6.9 0.46
4 14 9 7.79 0.44
4 14 -10 6.47 0.48
4 14 10 5.72 0.43
5 14 0 -0.03 0.07
5 -14 0 0.11 0.08
5 -14 0 -0.02 0.06
-5 14 0 0 0.05
5 14 0 0 0.05
-5 14 1 3.35 0.17
5 14 -1 3.56 0.22
5 -14 1 3.27 0.19
5 14 -1 3.47 0.14
5 -14 1 2.99 0.2
-5 14 -1 3.29 0.14
5 -14 -1 3.38 0.23
5 -14 -1 3.61 0.16
5 14 1 3.88 0.23
-5 14 2 140.33 2.85
5 -14 2 139.55 2.85
5 14 -2 140.63 2.93
5 -14 2 144.15 2.95
5 14 2 145.87 2.93
-5 -14 2 140.56 2.87
5 -14 -2 144.2 2.76
5 -14 -2 140.77 3.02
5 -14 3 0.15 0.08
5 -14 3 0.02 0.08
5 14 -3 0.05 0.09
-5 14 3 0.15 0.09
-5 14 3 0.1 0.08
-5 -14 3 0.01 0.08
5 14 3 -0.06 0.09
5 -14 -3 0.13 0.11
-5 14 4 169.58 3.17
5 -14 4 174.37 3.5
5 14 -4 170.9 3.5
-5 14 4 166.83 3.44
5 -14 4 172.68 3.44
5 14 4 169.36 3.48
-5 -14 4 167.14 3.4
5 -14 -4 167.66 3.64
5 -14 5 2.99 0.22
-5 14 5 3.22 0.25
5 -14 5 3.13 0.26
5 14 -5 2.16 0.23
-5 14 5 3.24 0.27
5 14 5 2.96 0.27
5 -14 -5 3.25 0.32
-5 -14 5 3.06 0.23
-5 14 6 50.22 1.17
-5 14 6 51.35 1.28
5 14 -6 50.16 1.32
5 -14 6 51.43 1.28
5 -14 6 52.66 1.24
5 14 6 52.32 1.28
5 -14 -6 50.08 1.4
-5 -14 6 52.53 1.23
-5 14 7 17.97 0.65
5 14 -7 17.24 0.67
5 -14 7 18.1 0.64
-5 14 7 17.29 0.58
5 14 7 18.22 0.63
-5 -14 7 16.95 0.58
-5 14 8 21.03 0.69
-5 14 8 21.15 0.75
5 14 -8 21.95 0.8
5 -14 8 22.49 0.76
5 14 8 21.68 0.73
5 -14 9 -0.13 0.15
5 14 -9 -0.01 0.16
-5 14 9 -0.06 0.16
-5 14 9 -0.2 0.14
5 14 9 0.04 0.15
6 -14 0 6.53 0.25
-6 14 0 6.76 0.22
6 -14 0 6.07 0.3
6 14 0 6.08 0.24
6 14 0 6.7 0.31
6 -14 1 10.91 0.37
6 14 -1 11.62 0.42
-6 14 1 11.42 0.34
6 -14 1 11.9 0.41
6 -14 -1 11.07 0.32
6 14 1 11.43 0.42
6 -14 -1 10.92 0.42
6 14 1 10.43 0.36
6 -14 2 9.42 0.35
-6 14 2 9.46 0.3
6 14 -2 9.14 0.38
6 -14 2 9.91 0.37
-6 14 2 9.27 0.33
6 -14 -2 9.13 0.41
6 14 2 9.11 0.35
6 14 2 9.03 0.38
6 14 -3 2.72 0.25
-6 14 3 2.66 0.21
6 -14 3 2.36 0.21
-6 14 3 2.02 0.17
6 -14 3 2.65 0.21
6 -14 -3 2.36 0.25
6 14 3 2.48 0.23
-6 -14 3 2.16 0.2
-6 14 4 0.92 0.14
-6 14 4 0.81 0.14
6 14 -4 0.86 0.16
6 -14 4 0.99 0.16
6 -14 4 0.85 0.15
-6 -14 4 1.01 0.15
6 14 4 0.9 0.17
6 -14 -4 0.54 0.16
6 14 -5 0.63 0.16
-6 14 5 1 0.15
-6 14 5 1.14 0.18
6 -14 5 0.87 0.17
6 -14 5 0.72 0.14
6 -14 -5 0.77 0.19
-6 -14 5 0.98 0.16
6 14 5 0.95 0.18
-6 14 6 8.88 0.43
6 -14 6 9.54 0.4
6 -14 6 8.95 0.44
6 14 -6 9.26 0.47
-6 14 6 9.1 0.39
6 -14 -6 9.44 0.51
6 14 6 9.53 0.44
-6 -14 6 9.31 0.39
6 14 -7 23.31 0.8
-6 14 7 22.52 0.75
6 -14 7 21.74 0.74
-6 14 7 20.9 0.67
6 -14 -7 21.58 0.84
6 14 7 22.28 0.74
-6 14 8 1.38 0.22
6 14 -8 1.56 0.27
6 -14 8 1.76 0.26
-6 14 8 1.87 0.28
6 14 8 1.95 0.26
-6 14 9 7.51 0.45
6 -14 9 6.52 0.44
-6 14 9 7.61 0.49
6 14 -9 7.66 0.5
6 14 9 6.7 0.44
7 14 0 0.13 0.09
7 -14 0 0.02 0.06
7 -14 0 -0.03 0.08
7 14 0 0.11 0.07
7 14 -1 0.16 0.09
7 -14 1 0.11 0.08
-7 14 1 -0.01 0.06
7 -14 1 -0.01 0.09
7 14 1 0.17 0.08
7 14 1 0.13 0.09
7 -14 -1 0 0.09
7 -14 2 23.82 0.65
-7 14 2 22.8 0.56
7 -14 2 24.07 0.69
7 14 -2 22.86 0.69
-7 14 2 22.74 0.61
7 14 2 22.92 0.65
7 -14 -2 22.67 0.72
7 14 2 24.04 0.69
7 14 -3 2.62 0.25
7 -14 3 2.26 0.21
-7 14 3 2.82 0.19
7 -14 3 2.37 0.22
-7 14 3 2.45 0.21
7 14 3 2.7 0.24
7 14 3 2.59 0.23
7 -14 -3 2.37 0.25
-7 14 4 53.2 1.14
-7 14 4 51.16 1.23
7 14 -4 51.99 1.31
7 -14 4 51.98 1.27
-7 -14 4 51.92 1.22
7 14 4 52.37 1.27
7 14 4 51.83 1.3
7 -14 -4 51.58 1.37
-7 14 5 6.71 0.32
7 -14 5 7.13 0.35
7 14 -5 6.19 0.38
-7 14 5 6.93 0.35
7 14 5 6.94 0.37
-7 -14 5 6.54 0.33
7 -14 -5 7.14 0.43
7 14 -6 24.48 0.81
7 -14 6 23.18 0.75
-7 14 6 22.49 0.68
-7 14 6 23.22 0.75
7 -14 6 23.85 0.73
7 14 6 23.2 0.75
7 -14 -6 25.13 0.87
-7 14 7 0.48 0.17
7 -14 7 0.41 0.18
7 14 -7 0.31 0.17
-7 14 7 0.23 0.15
7 14 7 0.65 0.19
7 -14 -7 0.23 0.18
-7 14 8 27.39 0.91
-7 14 8 27.72 0.83
7 14 -8 27.37 0.97
7 -14 8 26.75 0.9
7 14 8 26.65 0.94
7 14 8 28.66 0.9
7 14 -9 -0.06 0.17
8 -14 0 35.61 0.85
8 -14 0 35.86 0.98
8 14 0 36.14 0.89
8 14 0 38.66 0.97
8 -14 1 16.29 0.49
8 14 -1 17.05 0.57
8 -14 1 16.3 0.56
8 14 1 16.13 0.55
8 14 1 15.62 0.5
8 -14 -1 16.52 0.58
-8 14 2 53.89 1.21
8 14 -2 52.19 1.31
-8 14 2 53.85 1.11
8 -14 2 54.56 1.33
8 14 2 55 1.3
8 14 2 54.49 1.29
8 -14 -2 54.37 1.38
8 14 -3 0.58 0.15
8 -14 3 0.65 0.15
-8 14 3 0.73 0.14
-8 14 3 0.67 0.12
8 14 3 0.84 0.17
8 14 3 0.72 0.15
8 -14 -3 0.67 0.17
8 -14 4 4.9 0.32
-8 14 4 4.9 0.3
8 14 -4 5 0.33
-8 14 4 4.83 0.27
8 -14 -4 6.19 0.39
8 14 4 5.23 0.32
8 14 4 5.43 0.32
-8 14 5 0.28 0.13
8 14 -5 0.12 0.13
8 -14 5 0.16 0.13
-8 14 5 -0.06 0.12
8 14 5 0.15 0.14
8 14 5 0.13 0.12
8 -14 -5 0.02 0.13
8 14 -6 16.39 0.66
-8 14 6 15.54 0.54
8 -14 6 15.56 0.58
-8 14 6 15.52 0.59
8 14 6 15.05 0.58
8 14 6 14.36 0.61
8 -14 -6 15.6 0.69
8 14 -7 6.94 0.46
8 -14 7 6.65 0.4
-8 14 7 6.55 0.42
-8 14 7 6.78 0.38
8 -14 -7 6.37 0.47
8 14 7 6.94 0.45
8 14 7 7.06 0.41
-8 14 8 42.59 1.24
8 14 -8 45.35 1.33
8 -14 8 44.76 1.26
-8 14 8 43.72 1.14
8 14 8 42.37 1.29
8 -14 -8 42.77 1.38
9 14 0 0.09 0.11
9 -14 0 0.02 0.1
9 -14 1 6.21 0.29
9 -14 1 6.47 0.35
9 14 -1 6.43 0.34
9 -14 -1 7.17 0.38
9 14 1 6.21 0.34
9 14 1 6.22 0.3
9 14 -2 28.75 0.83
9 -14 2 27.19 0.82
9 -14 -2 26.86 0.85
9 14 2 28.88 0.8
9 14 2 27.11 0.8
-9 14 3 0.21 0.11
-9 14 3 0.03 0.1
9 -14 3 0.18 0.13
9 14 -3 0.23 0.13
9 14 3 0.16 0.12
9 14 3 0.23 0.13
9 -14 -3 0.06 0.13
9 -14 4 13.52 0.53
-9 14 4 13.22 0.49
-9 14 4 13.17 0.45
9 14 -4 12.24 0.54
9 14 4 13.06 0.53
9 14 4 13.02 0.51
9 -14 -4 13.77 0.6
-9 14 5 22.03 0.71
-9 14 5 22.25 0.65
9 14 -5 21.79 0.78
9 -14 5 23.53 0.75
9 14 5 22.48 0.77
9 -14 -5 22.81 0.84
9 14 5 23.02 0.72
-9 14 6 4.73 0.34
-9 14 6 4.9 0.32
9 14 -6 4.84 0.41
9 -14 6 5.56 0.37
9 14 6 5.84 0.37
9 14 6 4.66 0.37
9 -14 -6 5.44 0.47
9 -14 7 1.72 0.26
-9 14 7 1.79 0.27
-9 14 7 2.14 0.27
9 14 -7 2.06 0.31
9 14 7 2.38 0.32
9 -14 -7 2.93 0.38
9 14 -8 8.68 0.58
-9 14 8 10.37 0.54
-9 14 8 9.59 0.48
9 -14 -8 9.93 0.61
9 14 8 10.41 0.62
10 -14 0 45.12 1.24
10 14 0 49.07 1.22
10 14 -1 0.62 0.16
10 -14 1 0.46 0.16
10 -14 -1 0.47 0.16
10 14 1 0.57 0.13
10 14 1 0.65 0.16
10 -14 2 190.62 4.01
10 14 -2 185.71 3.92
10 14 2 192.36 3.88
10 -14 -2 185.41 4.04
10 14 2 188.3 3.94
10 14 -3 6.25 0.39
10 -14 3 5.75 0.36
10 14 3 6.07 0.35
10 14 3 6.48 0.36
10 -14 -3 6.8 0.42
10 14 -4 -0.08 0.14
10 -14 4 0 0.14
-10 14 4 0.11 0.11
-10 14 4 -0.04 0.12
10 14 4 -0.01 0.13
10 -14 -4 -0.13 0.12
10 14 4 0.23 0.13
10 -14 5 0.19 0.15
-10 14 5 -0.1 0.12
10 14 -5 0.16 0.15
-10 14 5 0.01 0.12
10 14 5 0.09 0.13
10 14 5 -0.05 0.14
10 -14 -5 0.08 0.16
10 -14 6 4.21 0.36
-10 14 6 4.39 0.34
10 14 -6 4.92 0.43
-10 14 6 4.59 0.34
10 14 6 3.82 0.37
10 -14 -6 5.18 0.47
10 -14 7 0.2 0.17
-10 14 7 -0.16 0.15
-10 14 7 0.18 0.18
10 14 -7 0.23 0.19
10 14 7 -0.09 0.18
10 -14 -7 0.17 0.21
11 -14 0 0.06 0.12
11 14 0 0.01 0.11
11 -14 1 3.08 0.31
11 14 -1 3.67 0.32
11 14 1 3.21 0.29
11 -14 -1 3.52 0.34
11 14 -2 7.02 0.4
11 -14 2 7.01 0.41
11 -14 -2 6.85 0.42
11 14 2 6.92 0.37
11 14 2 6.83 0.38
11 -14 3 0.7 0.18
11 14 -3 0.18 0.15
11 14 3 0.17 0.13
11 -14 -3 0.29 0.17
11 14 3 0.49 0.17
11 -14 4 0.35 0.16
11 14 -4 0.53 0.19
11 14 4 0.26 0.14
11 14 4 0.23 0.16
11 -14 -4 0.22 0.17
11 14 -5 6.65 0.46
11 -14 5 7.26 0.44
11 -14 -5 7.92 0.51
11 14 5 6.71 0.43
-11 14 6 2.51 0.29
11 14 -6 2.47 0.34
11 -14 6 1.99 0.3
-11 14 6 2.29 0.26
11 14 6 2.67 0.33
11 -14 -6 2.32 0.36
11 -14 7 0.28 0.2
-11 14 7 0.27 0.19
-11 14 7 0.51 0.22
11 -14 -7 0.19 0.22
12 -14 0 7.46 0.43
12 14 0 5.87 0.37
12 14 -1 3.39 0.32
12 -14 1 4.11 0.37
12 -14 -1 3.9 0.38
12 14 1 2.93 0.29
12 -14 2 54.53 1.45
12 14 -2 55.56 1.43
12 14 2 56.79 1.38
12 -14 -2 53.61 1.48
12 14 2 52.48 1.38
12 14 -3 -0.08 0.13
12 -14 3 -0.03 0.15
12 -14 -3 0.16 0.16
12 14 3 0.11 0.15
12 -14 4 2.23 0.29
12 14 -4 2.14 0.3
12 -14 -4 2.45 0.33
12 14 4 2.57 0.31
12 14 -5 1.24 0.26
12 -14 5 1.39 0.26
12 14 5 0.61 0.21
12 -14 -5 1.44 0.29
12 14 -6 0.06 0.21
12 -14 6 0.12 0.19
12 14 6 0.09 0.19
12 -14 -6 -0.02 0.18
-12 14 7 0.17 0.18
-12 14 7 0.04 0.17
13 14 0 -0.06 0.13
13 -14 0 0.09 0.15
13 -14 1 -0.03 0.15
13 14 -1 0.25 0.16
13 14 1 -0.05 0.12
13 -14 -1 -0.04 0.15
13 14 -2 9.39 0.5
13 -14 2 8.51 0.49
13 -14 -2 9.35 0.53
13 -14 3 0.85 0.23
13 14 -3 0.52 0.2
13 -14 -3 0.62 0.21
13 14 3 0.84 0.21
13 14 -4 29.24 0.99
13 -14 4 28.53 0.97
13 14 4 28.45 0.95
13 -14 -4 28.36 1.02
13 -14 5 2.71 0.33
13 14 -5 3.78 0.41
13 -14 -5 3.31 0.41
13 14 5 3.02 0.35
14 14 0 0.31 0.17
14 -14 0 0.55 0.2
14 -14 1 6.7 0.46
14 14 -1 7.85 0.46
14 -14 -1 7 0.47
14 14 -2 20.69 0.78
14 -14 2 21.92 0.83
14 -14 -2 19.87 0.82
14 -14 3 0.6 0.22
14 14 -3 0.68 0.22
14 -14 -3 0.85 0.24
14 14 -4 0.9 0.24
14 -14 -4 1.24 0.31
14 14 4 1.11 0.25
15 -14 0 0.24 0.22
15 14 -1 2.31 0.31
15 14 -2 10.49 0.57
15 14 -3 0 0.2
0 -15 0 -0.1 0.07
0 -15 0 -0.14 0.06
0 15 0 -0.1 0.07
0 -15 1 -0.01 0.05
0 15 -1 0.03 0.06
0 -15 -1 0.01 0.06
0 -15 1 0.05 0.06
0 -15 -1 0.07 0.06
0 15 1 0.04 0.06
0 -15 2 2.47 0.12
0 15 -2 2.42 0.16
0 15 2 2.29 0.17
0 -15 2 2.36 0.17
0 -15 3 0 0.07
0 15 -3 -0.01 0.06
0 15 3 -0.05 0.07
0 -15 4 42.43 1.01
0 15 -4 41.89 0.99
0 -15 5 -0.14 0.09
0 15 5 -0.05 0.09
0 15 -5 0.03 0.08
0 15 6 38.44 1
0 -15 6 38.4 0.98
0 15 -6 36.6 0.96
0 15 7 0.07 0.13
0 -15 7 -0.04 0.11
0 15 8 2.81 0.3
0 -15 8 3.19 0.3
0 -15 9 0.03 0.15
0 15 9 0.1 0.17
1 -15 0 13.5 0.4
1 15 0 13.54 0.43
1 -15 0 14.47 0.42
-1 -15 0 14.58 0.42
-1 15 0 13.78 0.41
1 -15 1 63.74 1.38
1 -15 1 65.33 1.38
-1 -15 -1 65.08 1.39
1 15 -1 64.45 1.41
-1 15 1 65.37 1.39
-1 -15 1 63.43 1.34
1 -15 -1 64.11 1.36
-1 15 -1 62.77 1.38
-1 -15 1 64.37 1.39
1 15 1 65.69 1.42
1 -15 -1 66.09 1.44
-1 15 2 1.99 0.18
1 15 -2 1.63 0.16
1 -15 2 1.55 0.11
1 -15 2 1.85 0.16
1 -15 -2 1.41 0.16
1 15 2 1.66 0.16
-1 15 -2 1.74 0.13
-1 -15 2 1.55 0.15
-1 -15 2 1.65 0.08
1 -15 3 93.33 1.91
1 15 -3 87.56 1.9
-1 15 3 93.25 1.92
1 -15 3 90.66 1.85
-1 15 -3 93.74 1.87
-1 -15 3 86.7 1.9
1 15 3 93.6 1.94
1 -15 -3 87.26 2.01
-1 15 4 6.12 0.29
1 -15 4 6.1 0.29
1 15 -4 6.34 0.28
-1 -15 4 5.67 0.28
-1 15 -4 6.8 0.26
1 15 4 5.92 0.29
1 15 -5 5.21 0.28
1 -15 5 4.84 0.27
-1 15 5 5.41 0.29
-1 15 -5 5.02 0.25
1 15 5 4.65 0.28
-1 -15 5 5.31 0.28
1 -15 6 2.61 0.24
-1 15 6 2.71 0.26
1 15 -6 2.02 0.22
1 15 6 2.22 0.23
-1 -15 6 2.04 0.22
1 15 -7 45.95 1.2
1 -15 7 45.55 1.18
-1 15 7 50.24 1.24
-1 -15 7 46.04 1.17
1 15 7 48.91 1.22
1 -15 8 10.61 0.48
-1 15 8 10.99 0.5
1 15 8 11.75 0.51
-1 -15 8 10.44 0.47
1 -15 9 44.99 1.21
-1 15 9 46.8 1.27
1 15 9 45.07 1.25
-1 -15 9 45.67 1.2
1 -15 10 5.29 0.38
1 15 10 5.57 0.42
2 -15 0 -0.01 0.06
-2 15 0 0 0.05
2 15 0 -0.05 0.06
2 -15 0 0.04 0.05
-2 -15 0 0.04 0.06
-2 15 1 28.08 0.68
2 -15 1 28.87 0.68
2 -15 1 26.41 0.67
2 15 -1 27.31 0.71
2 -15 -1 27.69 0.73
2 -15 -1 28.27 0.66
-2 15 -1 27.47 0.67
-2 -15 1 28.25 0.7
2 -15 2 22.03 0.54
2 -15 2 21.42 0.58
-2 15 2 21.74 0.57
2 15 -2 21.79 0.59
2 -15 -2 20.96 0.63
2 -15 -2 21.55 0.54
-2 -15 2 20.95 0.58
2 15 2 21.46 0.6
-2 15 -2 21 0.53
2 -15 3 29.12 0.73
-2 15 3 27.78 0.72
2 -15 3 27.98 0.67
2 15 -3 27.38 0.73
-2 -15 3 28.07 0.73
2 -15 -3 27.13 0.79
2 15 3 28.43 0.75
-2 15 -3 29.06 0.67
2 -15 4 46.91 1.03
-2 15 4 46.63 1.11
2 -15 4 46.75 1.1
2 15 -4 46.17 1.11
-2 -15 4 45.03 1.09
2 15 4 48.26 1.12
2 -15 -4 45.88 1.2
-2 15 -4 46.06 1.03
-2 15 5 1.98 0.2
2 -15 5 1.86 0.2
2 15 -5 2.96 0.23
2 15 5 2.35 0.22
-2 -15 5 2.58 0.22
2 15 -6 24.12 0.73
-2 15 6 23.27 0.73
2 -15 6 24.88 0.72
2 15 6 23.86 0.72
-2 -15 6 23.59 0.69
2 15 -7 17.92 0.64
2 -15 7 18.89 0.63
-2 15 7 18.93 0.65
-2 -15 7 18.55 0.61
2 15 7 17.82 0.63
2 -15 8 0.81 0.2
2 15 -8 1.33 0.22
-2 15 8 1.22 0.23
2 15 8 0.94 0.2
-2 -15 8 1.05 0.19
-2 15 9 1.38 0.26
2 -15 9 1.62 0.24
2 15 9 1.48 0.25
2 -15 10 0.08 0.16
2 15 10 0.26 0.2
-3 15 0 40.62 0.9
-3 -15 0 39.71 0.94
3 -15 0 39.21 0.95
3 -15 0 39.54 0.89
-3 15 1 66.03 1.41
3 -15 1 66.31 1.46
3 15 -1 66.04 1.48
3 -15 1 68.82 1.42
3 -15 -1 66.39 1.39
3 15 1 67.19 1.48
-3 15 -1 67.73 1.39
-3 -15 1 66.37 1.45
3 -15 -1 66.77 1.51
-3 15 2 22.38 0.59
3 15 -2 23.59 0.64
3 -15 2 21.58 0.58
3 -15 2 21.85 0.6
-3 -15 2 23.19 0.62
3 -15 -2 22.39 0.55
3 15 2 22.41 0.63
-3 15 -2 22.52 0.54
3 -15 3 87.11 1.84
3 -15 3 89.91 1.83
-3 15 3 85.43 1.84
3 15 -3 85.52 1.87
3 15 3 84.78 1.88
3 -15 -3 86.66 1.96
-3 15 -3 87.01 1.75
-3 -15 3 85.21 1.84
3 -15 4 1.77 0.18
3 15 -4 1.9 0.2
3 -15 4 1.88 0.16
-3 15 4 1.65 0.18
-3 -15 4 1.53 0.17
3 -15 -4 1.75 0.21
3 15 4 1.61 0.19
3 -15 5 5.29 0.3
-3 15 5 5.37 0.3
3 15 -5 5.26 0.3
3 -15 -5 5.45 0.35
-3 -15 5 5.72 0.29
3 15 5 5.23 0.3
-3 15 6 4.25 0.29
3 -15 6 3.84 0.29
3 15 -6 3.71 0.28
-3 -15 6 3.93 0.26
3 15 6 3.85 0.29
3 15 -7 12.81 0.54
3 -15 7 12.9 0.53
-3 15 7 13.58 0.54
3 15 7 13.04 0.53
-3 -15 7 13.21 0.49
3 15 -8 6.93 0.41
-3 15 8 6.3 0.4
3 -15 8 5.87 0.38
3 15 8 7.12 0.41
-3 -15 8 6.68 0.37
3 -15 9 7.86 0.45
3 15 -9 6.58 0.44
-3 15 9 6.81 0.44
3 15 9 6.71 0.42
3 -15 10 6.64 0.44
3 15 10 6.64 0.45
4 -15 0 0.01 0.06
4 -15 0 -0.04 0.07
4 15 0 -0.06 0.07
-4 15 0 0.07 0.06
-4 15 1 7.11 0.26
4 -15 1 6.71 0.28
4 15 -1 6.88 0.31
4 -15 1 7.43 0.28
4 -15 -1 7.04 0.25
-4 -15 1 6.53 0.29
4 -15 -1 7.26 0.32
-4 15 -1 6.95 0.24
4 -15 2 0.29 0.09
4 15 -2 0.1 0.08
4 -15 2 0.22 0.08
-4 15 2 0.27 0.08
-4 -15 2 0.2 0.09
4 15 2 0.21 0.1
4 -15 -2 0.2 0.06
4 -15 -2 0.25 0.11
-4 15 3 171.88 3.42
4 -15 3 166.99 3.41
4 15 -3 167.95 3.47
4 -15 3 166.18 3.47
4 -15 -3 172.88 3.61
-4 -15 3 177.53 3.42
4 15 3 169.68 3.48
-4 15 4 0.45 0.12
4 15 -4 0.52 0.13
4 -15 4 0.66 0.14
4 -15 4 0.66 0.11
-4 -15 4 0.79 0.13
4 15 4 0.71 0.15
4 -15 -4 0.45 0.14
4 -15 5 7.75 0.32
-4 15 5 8.08 0.37
-4 15 5 8.22 0.34
4 -15 5 7.71 0.36
4 15 -5 7.87 0.38
-4 -15 5 7.8 0.35
4 -15 -5 7.88 0.42
4 15 5 7.79 0.37
-4 15 6 2.85 0.25
-4 15 6 3.02 0.28
4 -15 6 2.56 0.26
4 15 -6 3.01 0.3
4 15 6 3.04 0.27
4 -15 -6 2.81 0.33
-4 -15 6 3.16 0.26
4 -15 7 94.9 2.09
4 15 -7 91.7 2.13
-4 15 7 92.67 2.1
-4 15 7 90.02 1.92
4 15 7 90.07 2.08
-4 -15 7 92.86 2.02
-4 15 8 0.09 0.15
-4 15 8 -0.01 0.14
4 15 -8 0.03 0.14
4 -15 8 0.09 0.15
4 15 8 0.11 0.15
-4 15 9 0.17 0.18
4 -15 9 0.03 0.17
4 15 -9 0.22 0.18
-4 15 9 0.05 0.16
4 15 9 0.26 0.18
4 15 -10 0.21 0.2
4 15 10 0.06 0.2
5 -15 0 46.72 1.13
5 15 0 46.27 1.04
-5 15 0 48.83 1.02
5 15 0 47.14 1.13
5 -15 0 46.9 1.03
5 -15 1 8.54 0.31
5 -15 1 8.97 0.34
-5 15 1 8.9 0.3
5 15 -1 9.08 0.36
5 15 1 8.69 0.36
5 -15 -1 8.9 0.28
5 -15 -1 8.39 0.36
5 -15 2 50.11 1.16
5 15 -2 49.14 1.18
-5 15 2 49.7 1.1
5 -15 2 46.69 1.12
5 -15 -2 49.41 1.06
5 15 2 50.12 1.18
5 -15 -2 48.72 1.22
-5 -15 2 48.8 1.14
-5 15 3 4.28 0.24
5 -15 3 4.95 0.25
5 15 -3 5.01 0.28
5 -15 3 4.89 0.26
-5 -15 3 4.31 0.25
5 -15 -3 4.77 0.3
5 15 3 4.73 0.28
5 15 -4 10.12 0.43
-5 15 4 9.79 0.36
5 -15 4 10.41 0.39
-5 15 4 10.34 0.4
5 -15 4 10.31 0.41
5 15 4 10.87 0.43
-5 -15 4 10.63 0.4
5 -15 -4 10.52 0.47
-5 15 5 15.83 0.5
5 15 -5 15.5 0.57
5 -15 5 15.97 0.51
5 -15 5 15.32 0.54
-5 15 5 15.89 0.54
5 15 5 15.39 0.56
-5 -15 5 14.81 0.51
5 -15 -5 14.69 0.62
-5 15 6 -0.05 0.11
-5 15 6 0.11 0.13
5 15 -6 0 0.12
5 -15 6 0.18 0.14
5 -15 -6 0.05 0.15
5 15 6 0.21 0.14
-5 -15 6 0.01 0.1
5 -15 7 0.07 0.13
-5 15 7 -0.03 0.14
5 15 -7 0.16 0.14
-5 15 7 -0.03 0.13
5 15 7 0.1 0.13
-5 -15 7 0.13 0.13
5 15 -8 12.15 0.58
5 -15 8 12.52 0.55
-5 15 8 12.03 0.56
-5 15 8 12.05 0.51
5 15 8 12.61 0.55
5 -15 9 4.38 0.4
-5 15 9 4.26 0.4
-5 15 9 5.34 0.41
5 15 -9 4.61 0.43
5 15 9 5.06 0.41
6 -15 0 0.08 0.09
6 -15 0 -0.06 0.06
6 15 0 0.06 0.09
6 15 0 0.01 0.05
6 15 -1 0.19 0.09
-6 15 1 0.15 0.07
6 -15 1 0.01 0.08
6 -15 1 0.16 0.08
6 15 1 0.22 0.1
6 15 1 0.14 0.08
6 -15 -1 0.37 0.08
6 -15 -1 0.06 0.09
6 -15 2 0 0.08
6 15 -2 0.09 0.09
6 -15 2 0.06 0.09
-6 15 2 0.16 0.08
6 15 2 0.11 0.09
6 -15 -2 0.03 0.09
-6 15 3 79.77 1.74
-6 15 3 81.78 1.6
6 -15 3 79.28 1.79
6 -15 3 82.03 1.76
6 15 -3 82.24 1.82
-6 -15 3 80.29 1.75
6 15 3 82.8 1.81
6 -15 -3 77.13 1.89
6 15 -4 3.05 0.27
6 -15 4 2.96 0.23
-6 15 4 2.79 0.24
-6 15 4 2.83 0.22
6 -15 4 2.86 0.25
6 15 4 2.51 0.25
6 -15 -4 3.06 0.31
-6 -15 4 2.98 0.22
6 -15 5 46.27 1.18
6 -15 5 47.9 1.16
-6 15 5 46.86 1.07
6 15 -5 48.17 1.24
-6 15 5 46.13 1.17
6 -15 -5 45.92 1.3
-6 -15 5 46.91 1.14
6 15 5 47.74 1.2
6 -15 6 -0.04 0.1
-6 15 6 0.03 0.12
6 15 -6 0.08 0.13
6 -15 6 0.02 0.13
-6 15 6 0.05 0.12
6 -15 -6 0.11 0.15
-6 -15 6 0.13 0.11
6 15 6 0 0.12
6 15 -7 70.6 1.77
-6 15 7 73.93 1.72
6 -15 7 69.49 1.69
-6 15 7 70.73 1.56
6 -15 -7 65.33 1.84
6 15 7 71.7 1.7
6 15 -8 -0.08 0.15
-6 15 8 0.12 0.16
6 -15 8 0.25 0.17
-6 15 8 -0.06 0.16
6 15 8 0.23 0.16
-6 15 9 6.63 0.56
-6 15 9 6.72 0.47
6 15 -9 6.32 0.49
6 -15 9 6.61 0.45
6 15 9 6.39 0.44
7 -15 0 8.48 0.38
7 -15 0 8.03 0.3
7 15 0 8.64 0.37
7 15 0 8.55 0.32
7 15 -1 33.78 0.91
-7 15 1 35.69 0.84
7 -15 1 33.61 0.83
7 -15 1 34.77 0.92
7 15 1 33.52 0.9
7 -15 -1 34.36 0.94
7 15 1 33.76 0.85
7 -15 2 16.68 0.55
7 15 -2 15.89 0.55
7 -15 2 15.72 0.5
-7 15 2 16.58 0.48
7 15 2 15.92 0.55
7 -15 -2 16.11 0.58
7 15 2 16.35 0.52
7 -15 3 22.44 0.66
-7 15 3 22.5 0.63
7 15 -3 22.65 0.71
7 -15 3 22.33 0.68
-7 15 3 21.95 0.58
7 15 3 22.62 0.68
7 15 3 22.38 0.68
7 -15 -3 22.48 0.74
-7 15 4 0.28 0.12
7 15 -4 0.43 0.14
-7 15 4 0.41 0.13
7 -15 4 0.29 0.13
7 -15 4 0.53 0.14
7 15 4 0.73 0.17
7 -15 -4 0.44 0.17
7 15 4 0.26 0.13
-7 -15 4 0.51 0.13
-7 15 5 0.16 0.13
7 -15 5 0.11 0.13
7 15 -5 0.32 0.15
7 -15 5 0.08 0.12
-7 15 5 0.16 0.12
7 -15 -5 0.15 0.15
7 15 5 0.12 0.13
-7 -15 5 0.08 0.1
7 -15 6 2.51 0.25
7 15 -6 2.14 0.28
-7 15 6 2.2 0.24
7 -15 6 2.5 0.28
-7 15 6 2.32 0.26
7 15 6 2.47 0.28
7 -15 -6 2.22 0.3
-7 15 7 1.56 0.22
7 15 -7 1.41 0.26
7 -15 7 1.79 0.27
-7 15 7 1.29 0.23
7 15 7 1.46 0.24
7 -15 -7 1.6 0.29
-7 15 8 10.01 0.48
7 -15 8 9.07 0.51
-7 15 8 10.01 0.52
7 15 -8 10.15 0.56
7 15 8 9.36 0.49
8 -15 0 0.06 0.08
8 -15 0 0.02 0.1
8 15 0 -0.05 0.09
8 -15 1 1.92 0.18
8 15 -1 1.55 0.2
8 -15 1 2.12 0.22
8 15 1 1.84 0.18
8 15 1 1.58 0.2
8 -15 -1 1.94 0.22
8 -15 2 11.78 0.46
-8 15 2 10.95 0.4
8 -15 2 11.35 0.42
8 15 -2 11.13 0.46
-8 15 2 11.86 0.39
8 15 2 10.82 0.45
8 -15 -2 11.11 0.49
8 15 2 11.54 0.43
8 -15 3 56.78 1.34
-8 15 3 57 1.3
-8 15 3 56.84 1.2
8 -15 3 58.07 1.39
8 15 -3 57.64 1.41
8 15 3 55.63 1.37
8 -15 -3 57.03 1.47
8 15 3 56.48 1.38
8 -15 4 20.33 0.65
8 15 -4 21.34 0.71
-8 15 4 19.41 0.63
-8 15 4 20.7 0.59
8 -15 4 21.63 0.68
8 -15 -4 20.12 0.74
8 15 4 20.69 0.68
8 15 4 20.3 0.66
-8 15 5 0.9 0.17
8 -15 5 0.91 0.18
8 15 -5 0.81 0.2
-8 15 5 0.93 0.18
8 -15 5 0.58 0.17
8 -15 -5 0.96 0.22
8 15 5 1.07 0.2
8 15 5 0.85 0.19
-8 15 6 5.21 0.36
8 -15 6 5.44 0.37
8 15 -6 5.57 0.4
-8 15 6 5.63 0.33
8 -15 6 5.66 0.36
8 -15 -6 5.22 0.45
8 15 6 5.89 0.36
8 15 6 6.37 0.4
8 -15 7 12.58 0.57
-8 15 7 13.06 0.57
-8 15 7 13.15 0.52
8 15 -7 13.18 0.62
8 15 7 13.22 0.61
8 -15 -7 11.68 0.64
8 15 7 12.46 0.56
8 15 -8 0.07 0.18
8 -15 8 0.08 0.19
-8 15 8 0.24 0.19
-8 15 8 0.24 0.18
8 15 8 0.34 0.22
8 -15 -8 0.24 0.21
9 15 0 11.11 0.46
9 -15 0 11.02 0.47
9 -15 1 20.67 0.68
9 15 -1 21 0.67
9 -15 1 19.85 0.59
9 -15 -1 20.11 0.69
9 15 1 20.04 0.61
9 15 1 20.11 0.65
9 -15 2 8.97 0.42
9 -15 2 9.13 0.38
9 15 -2 9.92 0.44
9 15 2 9.36 0.4
9 15 2 9.74 0.43
9 -15 -2 8.78 0.45
9 -15 3 48.03 1.25
9 15 -3 49.4 1.27
9 -15 -3 47.97 1.31
9 15 3 48.69 1.23
9 15 3 46.93 1.21
9 15 -4 0.05 0.12
-9 15 4 0.05 0.11
-9 15 4 -0.06 0.1
9 -15 4 0.12 0.13
9 -15 -4 0.28 0.16
9 15 4 -0.02 0.11
9 15 4 -0.11 0.13
-9 15 5 4.79 0.33
-9 15 5 4.26 0.29
9 15 -5 4.64 0.36
9 -15 5 4.97 0.34
9 15 5 5.2 0.34
9 15 5 4.83 0.35
9 -15 -5 5.2 0.45
-9 15 6 6.05 0.38
9 15 -6 4.97 0.43
9 -15 6 4.47 0.35
-9 15 6 5.64 0.34
9 15 6 4.75 0.4
9 15 6 5.23 0.36
9 -15 -6 5.26 0.47
-9 15 7 34.88 0.95
9 -15 7 33.48 1.02
-9 15 7 34.56 1.03
9 -15 7 35.86 1.06
9 15 -7 34.76 1.12
9 15 7 33 1.08
9 -15 -7 33.11 1.16
-9 15 8 3.86 0.35
-9 15 8 3.29 0.36
9 -15 -8 2.91 0.4
10 -15 0 0.06 0.12
10 15 0 -0.08 0.11
10 -15 1 4.77 0.34
10 15 -1 5.37 0.34
10 -15 1 5.33 0.29
10 15 1 5.02 0.32
10 -15 -1 5.88 0.36
10 -15 2 1.42 0.22
10 15 -2 1.73 0.23
10 15 2 1.51 0.21
10 -15 -2 1.49 0.23
10 15 2 1.79 0.23
10 15 -3 2.56 0.29
10 -15 3 1.83 0.24
10 15 3 1.68 0.22
10 15 3 2.03 0.24
10 -15 -3 1.81 0.27
10 -15 4 16.55 0.63
10 15 -4 15.31 0.64
10 15 4 15.32 0.58
10 -15 -4 16.27 0.68
10 15 4 16.67 0.62
10 15 -5 1.33 0.25
-10 15 5 1.18 0.19
10 -15 5 1.11 0.22
-10 15 5 1.28 0.21
10 15 5 1.06 0.2
10 -15 -5 0.61 0.22
10 15 5 1.2 0.22
10 15 -6 15.1 0.67
-10 15 6 14.87 0.54
-10 15 6 15.14 0.61
10 -15 6 13.92 0.61
10 -15 -6 13.81 0.7
10 15 6 15.4 0.65
-10 15 7 13.67 0.6
10 -15 7 13.18 0.6
10 15 -7 13.93 0.68
-10 15 7 13.81 0.55
10 15 7 13.92 0.65
10 -15 -7 14.1 0.73
11 -15 0 14.9 0.6
11 15 0 14.19 0.56
11 -15 1 91.79 2.17
11 15 -1 94.84 2.12
11 -15 -1 89.88 2.18
11 15 1 92.15 2.09
11 -15 2 -0.09 0.13
11 15 -2 -0.18 0.12
11 -15 -2 0.06 0.14
11 15 2 0.12 0.12
11 15 2 0.16 0.14
11 15 -3 26.97 0.86
11 -15 3 23.27 0.81
11 15 3 26.53 0.8
11 -15 -3 23.91 0.87
11 15 3 26.06 0.81
11 15 -4 0.3 0.17
11 -15 4 0.18 0.16
11 -15 -4 0.33 0.19
11 15 4 0.2 0.15
11 15 4 0.24 0.14
11 -15 5 7 0.44
11 15 -5 8.25 0.5
11 15 5 7.86 0.47
11 -15 -5 7.4 0.51
-11 15 6 -0.19 0.14
-11 15 6 -0.15 0.13
11 -15 6 -0.18 0.16
11 15 -6 0.15 0.19
11 15 6 0.08 0.19
11 -15 -6 -0.2 0.16
-11 15 7 9.37 0.47
-11 15 7 8.9 0.5
11 -15 7 8.74 0.52
12 -15 0 0.15 0.15
12 15 0 0.07 0.14
12 15 -1 1.08 0.21
12 -15 1 0.79 0.2
12 15 1 0.88 0.19
12 -15 -1 1.2 0.23
12 -15 2 5.73 0.4
12 15 -2 6.55 0.41
12 -15 -2 6.24 0.43
12 15 2 6.01 0.38
12 -15 3 11.16 0.55
12 15 -3 10.49 0.54
12 15 3 10.33 0.49
12 15 3 10.29 0.5
12 -15 -3 9.6 0.54
12 -15 4 11.94 0.57
12 15 -4 11.56 0.58
12 15 4 11.25 0.54
12 -15 -4 11.73 0.61
12 15 -5 12.44 0.62
12 -15 5 11.34 0.57
12 -15 -5 11.82 0.64
12 15 5 12.39 0.59
12 -15 6 5.12 0.44
12 -15 -6 4.93 0.51
12 15 6 5.09 0.46
13 15 0 4.71 0.39
13 -15 0 3.55 0.38
13 -15 1 15.24 0.67
13 15 -1 15.46 0.63
13 -15 -1 14.77 0.66
13 15 1 15.33 0.61
13 -15 2 1.98 0.29
13 15 -2 1.49 0.26
13 15 2 1.72 0.25
13 -15 -2 1.36 0.27
13 -15 3 6.35 0.46
13 15 -3 6.56 0.46
13 15 3 6.5 0.42
13 -15 -3 6.89 0.48
13 15 -4 0.03 0.17
13 -15 4 0.14 0.18
13 -15 -4 0.04 0.19
13 15 4 0.25 0.19
13 -15 5 0.57 0.21
13 -15 -5 0.31 0.26
13 15 5 0.23 0.19
14 15 0 -0.03 0.15
14 -15 0 0.02 0.17
14 15 -1 4.21 0.38
14 -15 1 4.45 0.43
14 -15 -1 3.3 0.38
14 -15 2 0.97 0.24
14 15 -2 0.52 0.21
14 -15 -2 1.02 0.25
14 -15 3 23.28 0.89
14 15 -3 24.08 0.89
14 -15 -3 25.27 0.96
14 15 4 5.54 0.46
15 15 -1 1.64 0.28
15 15 -2 5.99 0.49
0 -16 0 6.42 0.26
0 16 0 6.54 0.27
0 -16 0 6.46 0.25
0 -16 -1 0.01 0.06
0 16 -1 -0.02 0.05
0 -16 -1 0.08 0.07
0 -16 1 -0.06 0.05
0 -16 1 -0.02 0.05
0 16 1 0 0.07
0 -16 2 28.73 0.73
0 -16 2 29.97 0.66
0 16 -2 28.11 0.72
0 16 2 29.02 0.74
0 -16 3 0.03 0.08
0 16 -3 0.34 0.09
0 16 3 0.01 0.08
0 16 4 28.86 0.77
0 16 -4 28.5 0.74
0 -16 5 0.08 0.1
0 16 5 -0.13 0.09
0 16 -5 0.07 0.08
0 16 -6 6.04 0.32
0 16 6 6.39 0.35
0 -16 6 6.05 0.33
0 16 7 0.14 0.13
0 -16 7 0.05 0.12
0 16 8 68.34 1.67
0 -16 8 69.02 1.63
0 -16 9 0.08 0.15
0 16 9 0.02 0.16
0 -16 10 21.62 0.77
-1 16 0 0.01 0.06
-1 -16 0 0.05 0.06
1 -16 0 0.09 0.06
1 -16 0 -0.08 0.05
1 16 0 -0.07 0.06
1 -16 1 21.8 0.58
1 16 -1 22.35 0.61
1 -16 1 22.92 0.56
-1 -16 -1 22.23 0.59
-1 16 1 21.4 0.59
1 -16 -1 21.91 0.61
1 -16 -1 22.05 0.57
1 16 1 21.55 0.6
-1 -16 1 22.06 0.53
-1 -16 1 23.12 0.6
-1 16 -1 22.04 0.58
1 -16 2 18.34 0.53
1 16 -2 19.44 0.54
1 -16 2 18.56 0.47
-1 16 2 18.77 0.53
-1 16 -2 18.82 0.51
-1 -16 2 19.49 0.54
1 16 2 18.2 0.55
1 -16 -2 18.43 0.57
1 -16 3 172.01 3.41
1 16 -3 172.14 3.43
-1 16 3 169.31 3.44
1 -16 3 171.33 3.42
1 -16 -3 174.13 3.59
1 16 3 166.96 3.45
-1 16 -3 174.74 3.4
-1 -16 3 166.59 3.41
1 -16 4 1.54 0.17
-1 16 4 2.07 0.2
1 16 -4 1.47 0.16
-1 -16 4 1.44 0.18
-1 16 -4 1.66 0.16
1 16 4 1.28 0.17
1 16 -5 34.56 0.9
-1 16 5 34.31 0.91
1 -16 5 35.42 0.91
-1 16 -5 34.35 0.86
-1 -16 5 34 0.89
1 16 5 35.8 0.92
-1 16 6 0.13 0.12
1 -16 6 0.27 0.13
1 16 -6 0.14 0.1
-1 -16 6 0.14 0.12
1 16 6 0.28 0.13
1 16 -7 50.32 1.28
1 -16 7 50.55 1.26
-1 16 7 50.86 1.3
1 16 7 51.5 1.3
-1 -16 7 50.71 1.25
1 -16 8 2.28 0.27
-1 16 8 2.08 0.27
-1 -16 8 2.36 0.26
1 16 8 2.09 0.27
1 -16 9 0.59 0.19
-1 16 9 0.33 0.19
-1 -16 9 0.69 0.18
1 16 9 0.54 0.2
1 -16 10 -0.11 0.15
-2 -16 0 17.3 0.5
2 16 0 16.02 0.5
2 -16 0 17.17 0.49
-2 16 0 16.88 0.47
2 -16 0 17.06 0.47
2 -16 1 16.7 0.46
-2 16 1 15.98 0.46
2 16 -1 15.45 0.49
2 -16 1 16.46 0.47
2 -16 -1 16.4 0.5
2 16 1 16.24 0.5
-2 16 -1 15.75 0.45
2 -16 -1 15.71 0.44
-2 -16 1 16.65 0.49
2 -16 2 115.8 2.36
-2 16 2 115.51 2.37
2 -16 2 115.23 2.37
2 16 -2 115.2 2.4
2 16 2 119.15 2.42
-2 16 -2 113.02 2.33
-2 -16 2 117.62 2.38
2 -16 -2 114.84 2.48
2 -16 -2 112.78 2.31
-2 16 3 21.95 0.62
2 -16 3 21.64 0.62
2 16 -3 22.63 0.64
2 -16 3 22.16 0.56
2 -16 -3 23.17 0.7
-2 -16 3 23.52 0.64
2 16 3 23.46 0.65
-2 16 -3 22.83 0.57
-2 16 4 1.05 0.15
2 16 -4 0.71 0.14
2 -16 4 0.69 0.13
-2 16 -4 1.14 0.13
2 16 4 1.11 0.16
2 -16 -4 0.95 0.18
-2 -16 4 0.95 0.15
-2 16 5 5.24 0.3
2 -16 5 5.64 0.3
2 16 -5 4.93 0.29
2 16 5 5.74 0.31
-2 -16 5 4.67 0.28
2 -16 6 0.31 0.13
2 16 -6 0.29 0.13
-2 16 6 0.27 0.13
2 16 6 0.34 0.14
-2 -16 6 0.44 0.14
2 16 -7 0.91 0.18
2 -16 7 1.12 0.19
-2 16 7 1.06 0.2
2 16 7 1.21 0.21
-2 -16 7 1.15 0.18
2 16 -8 12.51 0.56
-2 16 8 13.15 0.57
2 -16 8 13.44 0.55
2 16 8 13.42 0.57
-2 -16 8 13.74 0.53
-2 16 9 3.8 0.38
2 -16 9 2.74 0.31
-2 -16 9 3.55 0.34
2 16 9 3.68 0.35
2 -16 10 1.25 0.24
3 -16 0 0.05 0.06
3 -16 0 -0.06 0.06
3 16 0 0.01 0.07
-3 -16 0 0.09 0.08
-3 16 0 -0.02 0.05
-3 16 1 1.55 0.14
3 16 -1 1.26 0.15
3 -16 1 1.32 0.14
3 -16 1 1.45 0.15
3 16 1 1.65 0.18
3 -16 -1 1.33 0.13
3 -16 -1 1.24 0.15
-3 -16 1 1.3 0.15
-3 16 -1 1.34 0.13
3 -16 2 34.6 0.83
3 -16 2 35.04 0.85
3 16 -2 35.97 0.89
-3 16 2 35.12 0.84
3 -16 -2 35.73 0.93
3 -16 -2 33.78 0.79
3 16 2 36.38 0.9
-3 16 -2 35.14 0.79
-3 -16 2 33.64 0.86
3 -16 3 28.49 0.7
3 -16 3 27.11 0.73
-3 16 3 28.48 0.74
3 16 -3 28.43 0.76
3 16 3 27.58 0.77
-3 -16 3 29.33 0.75
3 -16 -3 27.91 0.82
3 16 -4 38.04 0.97
3 -16 4 38.52 0.89
-3 16 4 36.82 0.94
3 -16 4 36.81 0.94
3 -16 -4 37.01 1.04
3 16 4 37.46 0.97
-3 -16 4 39.07 0.95
-3 16 5 0.4 0.13
3 16 -5 0.51 0.13
3 -16 5 0.37 0.13
-3 -16 5 0.3 0.12
3 16 5 0.56 0.14
3 -16 -5 0.65 0.18
3 -16 6 49.55 1.25
-3 16 6 51.8 1.28
3 16 -6 49.43 1.27
-3 -16 6 50.16 1.23
3 16 6 52.45 1.28
3 16 -7 13.08 0.55
-3 16 7 12.36 0.54
3 -16 7 13.99 0.55
-3 -16 7 13.6 0.51
3 16 7 13.14 0.53
-3 16 8 3.12 0.33
3 -16 8 3.31 0.31
3 16 -8 3.33 0.34
3 16 8 3.39 0.33
-3 -16 8 3.42 0.31
3 -16 9 0.12 0.17
3 16 -9 0.32 0.19
-3 16 9 0.01 0.16
3 16 9 -0.07 0.16
4 16 0 27.54 0.74
-4 16 0 27.88 0.66
4 -16 0 28.69 0.74
4 -16 0 25.36 0.66
4 -16 1 56.81 1.27
-4 16 1 58.09 1.26
4 16 -1 57.69 1.34
4 -16 1 59.57 1.33
-4 -16 1 58.48 1.32
4 -16 -1 58.83 1.24
4 -16 -1 58.5 1.37
-4 16 -1 58.25 1.23
4 16 1 58.62 1.34
4 -16 2 23.52 0.63
-4 16 2 23.2 0.62
4 16 -2 23.52 0.67
4 -16 2 24.04 0.64
4 -16 -2 23.2 0.7
4 -16 -2 23.4 0.57
4 16 2 24.03 0.68
-4 -16 2 24.52 0.66
4 -16 3 42.06 1.02
4 -16 3 43.77 1.01
4 16 -3 43.43 1.06
-4 16 3 42.36 1.01
4 -16 -3 40.7 1.11
4 16 3 41.25 1.06
-4 -16 3 43.09 1.03
-4 16 4 24.15 0.68
4 16 -4 23.81 0.71
4 -16 4 23.6 0.68
4 -16 4 24.49 0.64
-4 -16 4 24.24 0.68
4 16 4 22.5 0.7
4 -16 -4 23.44 0.76
4 -16 5 2.3 0.23
-4 16 5 2.43 0.23
4 16 -5 2.68 0.26
-4 -16 5 1.96 0.21
4 -16 -5 2.18 0.27
4 16 5 2.16 0.23
-4 16 6 0.16 0.13
4 16 -6 -0.03 0.11
4 -16 6 0.07 0.12
4 16 6 -0.01 0.11
-4 -16 6 0.05 0.1
4 -16 -6 0.13 0.15
4 -16 7 30.88 0.9
-4 16 7 29.88 0.9
4 16 -7 29.45 0.92
4 16 7 28.83 0.88
-4 -16 7 30.63 0.85
4 16 -8 1.53 0.26
-4 16 8 1.53 0.25
4 -16 8 1.44 0.24
4 16 8 1.72 0.26
4 16 -9 18.78 0.75
4 -16 9 19.02 0.72
-4 16 9 18.71 0.73
4 16 9 17.05 0.69
5 16 0 0.06 0.08
5 -16 0 0.1 0.08
5 16 0 0.04 0.06
5 -16 0 -0.01 0.06
-5 16 0 0.04 0.05
-5 16 1 9.07 0.31
5 -16 1 8.84 0.33
5 16 -1 9.77 0.39
5 -16 1 9.59 0.36
5 16 1 9.79 0.39
5 -16 -1 9.4 0.39
5 -16 -1 9.08 0.3
5 16 -2 100.59 2.16
5 -16 2 98.68 2.14
5 -16 2 97.99 2.08
-5 16 2 100.89 2.06
5 -16 -2 100.4 2.22
-5 -16 2 97.07 2.1
5 16 2 100.03 2.15
5 -16 3 3.71 0.23
-5 16 3 3.49 0.22
5 -16 3 4.05 0.25
5 16 -3 4.07 0.26
5 -16 -3 4.19 0.29
5 16 3 4.12 0.27
-5 -16 3 4.05 0.25
5 -16 4 99.66 2.2
5 -16 4 104.08 2.22
5 16 -4 103.95 2.27
-5 16 4 103.92 2.21
5 -16 -4 102.01 2.37
5 16 4 108.22 2.27
-5 -16 4 101.54 2.19
5 -16 5 1.12 0.16
-5 16 5 0.86 0.16
5 -16 5 0.95 0.17
5 16 -5 0.97 0.18
-5 16 5 1.21 0.19
5 16 5 0.78 0.18
-5 -16 5 1.16 0.17
5 -16 -5 1.19 0.23
-5 16 6 22.42 0.66
5 16 -6 22.43 0.76
-5 16 6 22.55 0.72
5 -16 6 24.23 0.74
5 16 6 21.73 0.72
5 -16 -6 24.18 0.85
-5 -16 6 21.98 0.68
5 -16 7 0.54 0.18
-5 16 7 0.41 0.16
5 16 -7 0.72 0.2
-5 16 7 0.63 0.18
-5 -16 7 0.47 0.15
5 16 7 0.59 0.18
5 16 -8 8.55 0.5
-5 16 8 8.44 0.44
5 -16 8 9.53 0.49
-5 16 8 7.2 0.46
5 16 8 7.49 0.44
5 -16 9 -0.03 0.17
5 16 -9 0.05 0.18
-5 16 9 -0.05 0.16
-5 16 9 0.16 0.2
5 16 9 0.08 0.16
6 -16 0 1.52 0.18
6 16 0 1 0.15
6 -16 0 1.52 0.15
-6 16 1 33.65 0.8
6 -16 1 34.56 0.9
6 16 -1 33.51 0.91
6 -16 1 33.84 0.83
6 -16 -1 35.39 0.94
6 16 1 35.61 0.85
6 16 1 33.66 0.91
6 -16 -1 34.74 0.79
-6 16 2 1.9 0.17
6 -16 2 2.61 0.23
6 -16 2 2.32 0.2
6 16 -2 2.54 0.24
6 -16 -2 2.4 0.25
6 16 2 1.98 0.21
6 -16 3 16.97 0.56
6 16 -3 17.95 0.61
6 -16 3 17.86 0.57
-6 16 3 18.94 0.55
6 16 3 19.39 0.61
6 -16 -3 18.74 0.65
-6 -16 3 18.31 0.57
-6 16 4 12.16 0.44
-6 16 4 10.39 0.39
6 -16 4 11.86 0.45
6 -16 4 11.04 0.43
6 16 -4 11.35 0.48
-6 -16 4 10.88 0.43
6 -16 -4 11.6 0.52
6 16 4 11.03 0.46
6 -16 5 5.44 0.33
6 -16 5 5.17 0.3
6 16 -5 5.1 0.35
-6 16 5 5.32 0.33
-6 16 5 5.33 0.3
6 -16 -5 5.95 0.41
6 16 5 5.67 0.34
-6 -16 5 5.14 0.3
6 16 -6 14.06 0.59
-6 16 6 13.55 0.55
6 -16 6 14.86 0.56
-6 16 6 13.83 0.51
6 16 6 14.57 0.56
6 -16 -6 15.15 0.66
-6 -16 6 13.83 0.51
6 16 -7 12.73 0.58
6 -16 7 11.88 0.53
-6 16 7 10.75 0.47
-6 16 7 11.39 0.52
6 16 7 12.21 0.54
6 -16 -7 12.09 0.63
-6 16 8 0.52 0.19
-6 16 8 0.49 0.2
6 16 -8 1.02 0.23
6 -16 8 0.11 0.18
6 16 8 0.98 0.22
6 16 -9 19.04 0.8
6 16 9 17.86 0.71
7 16 0 0 0.09
7 -16 0 0.14 0.08
7 -16 0 0.01 0.1
7 16 -1 5.83 0.32
7 -16 1 6.13 0.32
7 -16 1 6.25 0.28
7 16 1 5.87 0.27
7 -16 -1 6.12 0.33
7 16 1 6.19 0.32
-7 16 2 2.62 0.19
7 -16 2 2.78 0.23
7 -16 2 2.89 0.25
7 16 -2 2.94 0.27
7 16 2 2.7 0.25
7 16 2 2.66 0.21
7 -16 -2 2.24 0.24
7 -16 3 2.03 0.21
7 16 -3 1.95 0.23
-7 16 3 1.95 0.2
7 -16 3 2.34 0.23
-7 16 3 1.9 0.17
7 16 3 1.62 0.21
7 -16 -3 2.11 0.25
7 16 3 2.74 0.25
-7 16 4 31.92 0.79
7 -16 4 32.34 0.88
7 -16 4 31.89 0.88
7 16 -4 32.57 0.94
-7 16 4 32.13 0.86
7 16 4 32.67 0.91
7 -16 -4 31.48 0.99
-7 -16 4 31.42 0.85
-7 16 5 12.61 0.5
7 -16 5 12.78 0.5
7 -16 5 12.73 0.51
7 16 -5 13.17 0.55
-7 16 5 13.06 0.46
7 16 5 13.41 0.53
-7 -16 5 12.76 0.48
7 -16 -5 12.64 0.59
7 -16 6 14.14 0.56
7 16 -6 13.45 0.59
-7 16 6 14.1 0.51
7 -16 6 13.81 0.53
-7 16 6 12.72 0.54
7 -16 -6 13.29 0.63
-7 -16 6 13.42 0.5
7 16 6 12.16 0.53
-7 16 7 10.53 0.51
-7 16 7 10.43 0.46
7 -16 7 9.8 0.51
7 16 -7 10.58 0.55
7 16 7 9.68 0.5
7 -16 -7 11.02 0.6
7 -16 8 13.56 0.62
-7 16 8 13.2 0.62
7 16 -8 13.75 0.65
-7 16 8 12.71 0.56
7 16 8 13.57 0.6
8 -16 0 31.84 0.9
8 16 0 30.51 0.87
8 -16 0 31.28 0.77
8 -16 1 7.69 0.32
8 16 -1 7.32 0.37
8 -16 1 7.45 0.37
8 16 1 7.65 0.32
8 -16 -1 7.02 0.37
8 16 1 7.19 0.36
8 16 -2 37.95 1.01
8 -16 2 35.94 0.99
8 -16 2 36.6 0.92
8 16 2 37.58 0.99
8 -16 -2 35.96 1.04
8 16 2 36.34 0.95
8 -16 3 6.75 0.35
-8 16 3 6.97 0.32
8 -16 3 6.19 0.34
-8 16 3 6.57 0.29
8 16 -3 6.19 0.37
8 16 3 6.76 0.37
8 -16 -3 6.84 0.4
8 16 3 6 0.34
8 -16 4 0.86 0.18
8 -16 4 0.66 0.16
8 16 -4 0.94 0.19
-8 16 4 0.83 0.17
-8 16 4 0.93 0.16
8 -16 -4 0.79 0.19
8 16 4 0.94 0.18
8 16 4 0.75 0.16
8 -16 5 0.29 0.16
-8 16 5 0.49 0.16
8 16 -5 0.23 0.16
-8 16 5 0.39 0.14
8 -16 5 0.33 0.15
8 -16 -5 0.44 0.18
8 16 5 0.34 0.16
8 16 5 0.04 0.13
8 16 -6 14.87 0.64
-8 16 6 15.47 0.6
8 -16 6 14.11 0.56
-8 16 6 14.45 0.53
8 -16 6 15.51 0.6
8 -16 -6 15.35 0.69
8 16 6 14.39 0.63
8 16 6 14.1 0.58
8 -16 7 6.7 0.43
-8 16 7 5.76 0.37
-8 16 7 5.25 0.4
8 16 -7 4.8 0.43
8 -16 -7 6.38 0.47
8 16 7 5.89 0.41
8 16 7 5.51 0.44
8 -16 8 12.57 0.61
-8 16 8 13.26 0.6
-8 16 8 12.61 0.54
8 16 -8 12.89 0.65
8 -16 -8 13.11 0.71
8 16 8 11.6 0.62
9 -16 0 -0.03 0.11
9 16 0 0 0.11
9 -16 1 10.98 0.4
9 16 -1 10.12 0.46
9 -16 1 10.59 0.47
9 -16 -1 10.45 0.48
9 16 1 11.14 0.47
9 16 -2 9.42 0.44
9 -16 2 9.73 0.44
9 -16 2 8.98 0.39
9 16 2 8.91 0.42
9 -16 -2 9.29 0.46
9 16 2 9.26 0.4
9 16 -3 37.22 1.07
9 -16 3 40.42 1.07
9 -16 3 37.89 1
9 -16 -3 35.35 1.1
9 16 3 39.67 1.04
9 16 3 38.26 1.04
9 -16 4 7.6 0.39
9 -16 4 6.72 0.38
-9 16 4 7.25 0.36
-9 16 4 6.86 0.32
9 16 -4 6.41 0.4
9 16 4 6.56 0.39
9 -16 -4 6.72 0.44
9 16 4 6.62 0.38
-9 16 5 21.02 0.63
9 -16 5 20.86 0.71
9 16 -5 19.68 0.76
9 -16 5 21.05 0.71
-9 16 5 20.56 0.69
9 16 5 21.79 0.75
9 -16 -5 22.08 0.83
9 16 5 20.09 0.7
-9 16 6 2.86 0.3
9 16 -6 3.16 0.36
9 -16 6 2.9 0.31
9 -16 6 2.42 0.3
-9 16 6 2.7 0.27
9 16 6 3.48 0.34
9 -16 -6 2.67 0.36
9 16 6 3.17 0.35
9 16 -7 3.64 0.39
-9 16 7 3.11 0.3
-9 16 7 3.63 0.35
9 -16 7 4.45 0.4
9 -16 -7 3.49 0.42
9 16 7 4.3 0.41
10 -16 0 2.06 0.26
10 16 0 2.02 0.24
10 -16 1 31.17 0.93
10 16 -1 30.45 0.91
10 -16 -1 30.09 0.94
10 16 1 31.37 0.9
10 16 -2 86.84 2.05
10 -16 2 89.59 2.09
10 -16 2 88.71 1.94
10 -16 -2 86.34 2.12
10 16 2 91.1 2.02
10 16 2 89.32 2.02
10 16 -3 3.28 0.33
10 -16 3 3.12 0.28
10 -16 3 2.96 0.3
10 -16 -3 2.8 0.33
10 16 3 3.17 0.3
10 16 3 3.07 0.29
10 -16 4 0.39 0.16
10 16 -4 0.65 0.19
10 -16 4 0.38 0.16
10 -16 -4 0.38 0.19
10 16 4 0.3 0.15
10 16 4 0.64 0.17
10 16 -5 1.79 0.29
10 -16 5 2.24 0.27
-10 16 5 2.1 0.26
10 -16 5 1.79 0.26
-10 16 5 1.86 0.23
10 -16 -5 2.14 0.33
10 16 5 1.84 0.25
10 16 5 1.9 0.27
-10 16 6 4.12 0.35
10 16 -6 4.16 0.41
-10 16 6 3.8 0.32
10 -16 6 3.83 0.36
10 -16 6 3.68 0.37
10 -16 -6 3.88 0.43
10 16 6 4.65 0.42
10 16 -7 0.99 0.25
-10 16 7 0.63 0.2
-10 16 7 0.71 0.21
10 -16 7 1.23 0.28
10 16 7 0.69 0.25
10 -16 -7 1.11 0.28
11 16 0 0.1 0.13
11 -16 0 0.14 0.14
11 -16 1 0.96 0.2
11 16 -1 0.73 0.19
11 16 1 0.55 0.17
11 -16 -1 0.75 0.2
11 16 -2 0.31 0.16
11 -16 2 0.12 0.12
11 -16 2 0.42 0.18
11 16 2 0.38 0.16
11 -16 -2 0.11 0.15
11 -16 3 11.86 0.49
11 16 -3 11.38 0.54
11 -16 3 11.72 0.54
11 -16 -3 11.25 0.58
11 16 3 11.57 0.51
11 16 3 11.42 0.51
11 -16 4 0.48 0.18
11 16 -4 0.52 0.19
11 16 4 0.21 0.15
11 -16 -4 0.24 0.16
11 16 4 0.36 0.17
11 -16 5 26.6 0.88
11 16 -5 25.37 0.92
11 -16 -5 27.98 1
11 16 5 26.12 0.9
11 16 -6 0 0.17
11 -16 6 0 0.18
11 -16 -6 -0.26 0.17
11 16 6 -0.04 0.18
11 -16 7 14.93 0.67
-11 16 7 14.97 0.6
-11 16 7 14.95 0.65
12 16 0 13.64 0.57
12 -16 0 13.29 0.6
12 16 -1 16.24 0.64
12 -16 1 15.13 0.64
12 -16 -1 15.27 0.65
12 16 1 15.93 0.62
12 16 -2 34.83 1.05
12 -16 2 35.38 1.07
12 -16 -2 33.6 1.09
12 16 2 35.02 1.01
12 -16 3 8.04 0.47
12 16 -3 7.4 0.48
12 -16 -3 9.07 0.53
12 16 3 8.26 0.45
12 16 3 7.46 0.42
12 16 -4 2.33 0.32
12 -16 4 1.78 0.28
12 -16 -4 1.62 0.29
12 16 4 2.06 0.28
12 16 -5 1.24 0.28
12 -16 5 1.33 0.26
12 16 5 1.62 0.28
12 -16 -5 1.71 0.32
12 -16 6 0.93 0.24
12 16 6 1.03 0.26
13 -16 0 0.04 0.15
13 16 0 0.26 0.17
13 16 -1 5.7 0.41
13 -16 1 5.43 0.41
13 16 1 6.09 0.39
13 -16 -1 5.07 0.45
13 -16 2 1.69 0.28
13 16 -2 1.39 0.25
13 16 2 1.37 0.23
13 -16 -2 1.4 0.27
13 16 -3 17.37 0.73
13 -16 3 16.85 0.71
13 -16 -3 16.68 0.74
13 16 -4 9.92 0.57
13 -16 4 9.86 0.55
13 16 4 9.8 0.53
13 -16 -4 10.15 0.59
13 -16 5 15.32 0.77
13 16 5 17.38 0.74
14 -16 0 0.24 0.19
14 16 0 0.6 0.2
14 16 -1 30.56 0.99
14 -16 1 29.58 1.02
14 -16 -1 29.28 1.04
14 16 1 31.96 0.97
14 16 -2 6.79 0.46
14 -16 2 7.5 0.5
14 -16 -2 6.87 0.49
14 -16 3 15.72 0.79
14 16 -3 15.25 0.7
15 16 -1 1.21 0.26
15 16 -2 5.56 0.52
0 -17 0 0 0.06
0 -17 0 0.05 0.06
0 17 0 -0.04 0.07
0 17 1 -0.02 0.07
0 -17 -1 0.01 0.06
0 17 -1 -0.05 0.05
0 -17 -1 -0.04 0.05
0 -17 1 0 0.06
0 -17 1 0.01 0.05
0 17 -2 186.99 3.84
0 -17 2 196.29 3.84
0 -17 2 198.73 3.84
0 17 2 191.44 3.86
0 17 3 0.08 0.09
0 17 -3 -0.03 0.06
0 -17 3 0.02 0.08
0 -17 4 91.27 1.93
0 17 4 88.92 1.95
0 17 -4 89.48 1.91
0 17 5 -0.03 0.09
0 -17 5 0.04 0.1
0 17 -5 0.05 0.08
0 17 6 66.88 1.58
0 17 -6 66.49 1.61
0 -17 6 67.91 1.55
0 -17 7 -0.12 0.12
0 17 7 -0.07 0.13
0 17 8 35.17 1
0 -17 8 31.06 0.94
0 17 9 0.23 0.17
0 -17 9 0.01 0.15
0 -17 10 0.12 0.18
-1 -17 0 3.27 0.2
1 17 0 3.67 0.21
1 -17 0 3.75 0.2
1 -17 0 3.57 0.2
-1 17 0 3.73 0.2
-1 17 1 38.97 0.94
-1 -17 -1 38.85 0.93
1 17 -1 38 0.95
1 -17 1 38.46 0.92
1 -17 1 40.71 0.91
1 -17 -1 41.15 0.97
1 -17 -1 39.88 0.91
-1 17 -1 39.23 0.92
1 17 1 40.14 0.96
-1 -17 1 38.9 0.93
1 -17 2 0.41 0.1
1 -17 2 0.4 0.08
-1 17 2 0.33 0.09
1 17 -2 0.44 0.1
-1 17 -2 0.35 0.08
1 17 2 0.18 0.09
1 -17 -2 0.43 0.11
-1 -17 2 0.31 0.09
1 -17 -2 0.25 0.08
1 17 -3 10.79 0.39
-1 17 3 11.09 0.4
1 -17 3 10.75 0.39
-1 17 -3 11.7 0.37
1 17 3 10.21 0.4
-1 -17 3 10.91 0.4
1 -17 -3 11.44 0.45
1 -17 4 0.27 0.11
1 17 -4 0.07 0.08
-1 17 4 0.15 0.1
-1 -17 4 0.26 0.11
-1 17 -4 0.19 0.08
1 17 4 0.34 0.12
-1 17 5 0.67 0.15
1 17 -5 0.52 0.13
1 -17 5 0.43 0.13
1 17 5 0.42 0.13
-1 -17 5 0.67 0.14
-1 17 6 6.03 0.34
1 -17 6 5.8 0.33
1 17 -6 5.97 0.32
-1 -17 6 6.11 0.33
1 17 6 6.29 0.35
1 -17 7 12.84 0.52
-1 17 7 13.35 0.54
1 17 -7 13.85 0.6
-1 -17 7 12.7 0.51
1 17 7 12.87 0.53
-1 17 8 9.18 0.47
1 -17 8 8.69 0.44
-1 -17 8 8.72 0.44
1 17 8 8.83 0.47
-1 17 9 16.39 0.68
1 -17 9 16.31 0.64
1 17 9 16.24 0.68
-1 -17 9 16.42 0.63
1 -17 10 1.55 0.27
-2 17 0 0.05 0.07
2 17 0 0.03 0.07
2 -17 0 0.07 0.07
-2 -17 0 0.01 0.07
2 -17 0 0 0.07
2 -17 1 4.48 0.22
-2 17 1 4.54 0.23
2 17 -1 4.75 0.25
2 -17 1 4.55 0.23
2 -17 -1 4.64 0.22
2 -17 -1 4.41 0.25
-2 -17 1 4.85 0.25
-2 17 -1 4.97 0.22
2 17 1 4.63 0.25
-2 17 2 17.96 0.52
2 -17 2 17.97 0.49
2 -17 2 17.32 0.52
2 17 -2 17.33 0.54
2 -17 -2 18.4 0.58
2 -17 -2 18.18 0.49
2 17 2 18.3 0.56
-2 17 -2 17.7 0.49
-2 -17 2 18.69 0.54
2 -17 3 14.27 0.41
-2 17 3 14.14 0.46
2 -17 3 14.27 0.47
2 17 -3 14.43 0.48
2 -17 -3 14.49 0.52
-2 17 -3 14.88 0.42
2 17 3 14.78 0.5
-2 -17 3 14.1 0.47
-2 17 4 24.67 0.7
2 -17 4 25.26 0.71
2 17 -4 25.13 0.71
-2 -17 4 25.41 0.71
2 17 4 25.34 0.72
2 -17 -4 25.16 0.79
2 17 -5 14.48 0.51
2 -17 5 14.41 0.5
-2 17 5 14.28 0.51
2 17 5 13.6 0.51
-2 -17 5 13.53 0.49
2 17 -6 40.37 1.08
-2 17 6 39.7 1.07
2 -17 6 41.31 1.07
2 17 6 41.2 1.08
-2 -17 6 41.22 1.05
2 17 -7 6.55 0.38
2 -17 7 6.75 0.38
-2 17 7 6.63 0.39
-2 -17 7 6.88 0.36
2 17 7 5.82 0.37
2 -17 8 10.78 0.5
-2 17 8 10.41 0.52
-2 -17 8 11.36 0.48
2 17 8 11.06 0.52
2 -17 9 0.29 0.17
-2 17 9 0.75 0.22
2 17 9 0.4 0.19
-2 -17 9 0.79 0.2
3 17 0 120.87 2.56
3 -17 0 120.83 2.59
-3 -17 0 125.39 2.54
-3 17 0 125.76 2.49
3 -17 0 122.81 2.48
-3 17 1 20.45 0.55
3 -17 1 20.31 0.56
3 17 -1 21.85 0.62
3 -17 1 21.11 0.57
3 -17 -1 20.22 0.54
-3 17 -1 21.49 0.54
-3 -17 1 21.58 0.6
3 -17 -1 20.18 0.62
3 17 1 20.29 0.61
3 -17 2 49.71 1.14
-3 17 2 50.87 1.14
3 -17 2 50.91 1.15
3 17 -2 50.09 1.19
-3 17 -2 50.77 1.1
3 17 2 49.83 1.2
-3 -17 2 49.63 1.16
3 -17 -2 49.86 1.1
3 -17 -2 51.64 1.24
-3 17 3 25.99 0.71
3 -17 3 27.58 0.68
3 -17 3 26.43 0.71
3 17 -3 25.49 0.73
3 -17 -3 26.62 0.79
-3 -17 3 26.45 0.72
3 17 3 26.92 0.75
-3 17 4 1.73 0.19
3 17 -4 1.59 0.19
3 -17 4 1.27 0.17
3 -17 -4 1.99 0.24
-3 -17 4 1.27 0.16
3 17 4 1.8 0.21
-3 17 5 1.16 0.18
3 -17 5 1.21 0.18
3 17 -5 1.21 0.18
3 17 5 1.15 0.18
-3 -17 5 1.34 0.18
3 -17 -5 1.1 0.21
-3 17 6 2.32 0.25
3 -17 6 2.16 0.24
3 17 -6 2.06 0.25
3 17 6 2.28 0.26
-3 -17 6 2.18 0.23
3 17 -7 1.33 0.22
3 -17 7 1.22 0.21
-3 17 7 0.75 0.18
-3 -17 7 1.09 0.19
3 17 7 1.48 0.23
3 -17 8 41.05 1.13
3 17 -8 41.15 1.18
-3 17 8 40.19 1.15
3 17 8 42.22 1.16
-3 -17 8 39.92 1.09
3 -17 9 1.2 0.23
-3 17 9 0.68 0.22
3 17 9 1.11 0.24
4 17 0 0.13 0.09
4 -17 0 0.03 0.08
4 -17 0 0.03 0.06
-4 17 0 0 0.06
4 -17 1 5.36 0.25
-4 17 1 5.11 0.24
4 17 -1 5.2 0.28
4 -17 1 5.48 0.26
4 17 1 5.81 0.3
-4 17 -1 5.82 0.23
-4 -17 1 5.85 0.28
4 -17 -1 5.41 0.23
4 -17 -1 5.68 0.29
4 17 -2 18.23 0.58
4 -17 2 17.4 0.52
4 -17 2 19.12 0.54
-4 17 2 17.9 0.52
4 -17 -2 17.99 0.6
4 17 2 18.34 0.58
-4 -17 2 18.23 0.56
4 -17 -2 17.81 0.48
4 -17 3 121.81 2.52
4 17 -3 120.16 2.54
4 -17 3 121.78 2.49
-4 17 3 118.05 2.49
-4 -17 3 118.16 2.49
4 -17 -3 118.72 2.65
4 17 3 120.98 2.55
4 -17 4 6.56 0.33
-4 17 4 7.18 0.33
4 17 -4 6.71 0.34
4 -17 4 7.76 0.31
-4 -17 4 6.78 0.33
4 -17 -4 6.8 0.39
4 17 4 6.91 0.35
4 17 -5 25.6 0.8
-4 17 5 26.81 0.78
4 -17 5 27.66 0.78
4 17 5 26.73 0.8
-4 -17 5 26.8 0.76
4 -17 -5 27.27 0.88
4 17 -6 0.16 0.13
-4 17 6 0.18 0.14
4 -17 6 0.22 0.14
4 -17 -6 0.37 0.18
-4 -17 6 0.26 0.13
4 17 6 0.33 0.15
4 17 -7 20.19 0.73
-4 17 7 19.46 0.7
4 -17 7 20.77 0.71
-4 -17 7 21.82 0.68
4 17 7 20.23 0.71
4 17 -8 2.27 0.3
4 -17 8 2.65 0.3
-4 17 8 2.24 0.29
-4 -17 8 2.04 0.26
4 17 8 2.78 0.31
-4 17 9 0.97 0.25
4 17 -9 1.55 0.28
4 -17 9 1.22 0.24
4 17 9 1.88 0.29
5 -17 0 82.99 1.84
5 -17 0 79.54 1.71
-5 17 0 83.21 1.71
5 17 0 84.13 1.83
5 -17 1 0.08 0.08
5 17 -1 0.05 0.08
5 -17 1 0.11 0.08
-5 17 1 0 0.06
5 -17 -1 0.03 0.06
5 17 1 0.11 0.09
5 -17 -1 0.04 0.09
-5 17 2 140.73 2.88
5 17 -2 140.69 2.97
5 -17 2 141.06 2.98
5 -17 2 141.65 2.89
5 17 2 144.11 2.97
5 -17 -2 146.77 3.07
-5 -17 2 141.02 2.92
-5 17 3 0.94 0.15
5 17 -3 0.84 0.15
5 -17 3 0.86 0.15
5 -17 3 0.85 0.14
5 -17 -3 0.79 0.17
-5 -17 3 0.9 0.15
5 17 3 0.82 0.16
-5 17 4 10.63 0.43
5 -17 4 11.23 0.41
5 -17 4 11.05 0.44
5 17 -4 11.18 0.46
5 -17 -4 11.07 0.5
5 17 4 11.16 0.46
-5 -17 4 11.58 0.43
-5 17 5 36.79 0.96
5 -17 5 35.68 0.96
5 17 -5 35.4 1
5 17 5 37.68 1
5 -17 -5 34.64 1.06
-5 -17 5 33.48 0.92
5 -17 6 3.81 0.32
-5 17 6 4.01 0.33
5 17 -6 4.65 0.35
5 -17 -6 3.93 0.38
-5 -17 6 3.91 0.28
5 17 6 4.01 0.34
5 17 -7 12.65 0.57
-5 17 7 12.36 0.55
5 -17 7 11.9 0.53
-5 -17 7 12.28 0.5
5 17 7 12.67 0.54
5 17 -8 34.88 1.09
-5 17 8 35.3 1.06
5 -17 8 34.79 1.03
5 17 8 33.83 1.04
5 -17 9 1.55 0.28
5 17 -9 1.03 0.25
5 17 9 1.16 0.24
6 -17 0 0.1 0.1
6 -17 0 0 0.07
6 17 0 0 0.09
6 -17 1 0.99 0.15
6 17 -1 0.98 0.16
-6 17 1 1.02 0.12
6 -17 1 1.16 0.15
6 17 1 1.04 0.14
6 -17 -1 1.05 0.17
6 17 1 0.94 0.16
6 -17 -1 1.2 0.13
6 -17 2 6.87 0.32
6 17 -2 7.17 0.36
6 -17 2 7.07 0.33
-6 17 2 6.98 0.29
6 17 2 7.24 0.36
6 -17 -2 7.5 0.38
6 17 -3 1.81 0.22
6 -17 3 1.87 0.22
-6 17 3 1.91 0.19
6 -17 3 1.63 0.19
-6 -17 3 2.43 0.23
6 17 3 1.89 0.23
6 -17 -3 2.01 0.24
6 -17 4 5.14 0.31
6 -17 4 5.68 0.3
-6 17 4 5.3 0.3
6 17 -4 5.58 0.34
6 17 4 5.01 0.32
-6 -17 4 5.78 0.31
6 -17 -4 5.63 0.37
6 17 -5 4.05 0.31
6 -17 5 4.1 0.28
-6 17 5 4.19 0.27
6 -17 5 4.57 0.31
-6 17 5 4.63 0.31
-6 -17 5 4.07 0.28
6 17 5 4.65 0.32
6 -17 -5 4.37 0.38
6 17 -6 0.11 0.14
6 -17 6 0.03 0.15
-6 17 6 0.11 0.13
-6 17 6 -0.02 0.12
6 -17 -6 0.1 0.15
-6 -17 6 0.02 0.12
6 17 6 -0.1 0.12
-6 17 7 13.15 0.51
6 -17 7 11.95 0.55
-6 17 7 12.48 0.55
6 17 -7 12.92 0.59
6 -17 -7 12.45 0.65
6 17 7 12.46 0.56
-6 17 8 0.53 0.2
6 17 -8 0.6 0.21
6 -17 8 0.57 0.22
-6 17 8 0.39 0.18
6 17 8 0.54 0.2
6 17 -9 0.2 0.2
6 17 9 0.7 0.24
7 -17 0 54.92 1.35
7 17 0 55.09 1.34
7 -17 0 54.94 1.22
7 -17 1 0.13 0.1
7 17 -1 0.23 0.12
7 -17 1 -0.05 0.09
7 -17 -1 0.07 0.11
7 17 1 0.06 0.08
7 17 1 0.01 0.09
7 -17 2 72.66 1.69
7 17 -2 73.91 1.69
-7 17 2 72.66 1.57
7 -17 2 70.89 1.6
7 -17 -2 74.86 1.76
7 17 2 69.36 1.63
7 17 2 73.72 1.68
7 17 -3 1.19 0.19
7 -17 3 1.28 0.18
7 -17 3 1.95 0.22
-7 17 3 1.94 0.19
7 17 3 1.96 0.23
7 -17 -3 1.55 0.23
7 17 3 1.96 0.22
7 -17 4 0.85 0.17
7 -17 4 0.99 0.17
-7 17 4 0.62 0.15
7 17 -4 1.52 0.22
-7 17 4 1.16 0.16
-7 -17 4 0.65 0.15
7 -17 -4 0.81 0.21
7 17 4 1.08 0.19
-7 17 5 1.39 0.19
7 -17 5 1.26 0.2
-7 17 5 1.21 0.2
7 17 -5 1.2 0.22
7 -17 5 0.71 0.17
-7 -17 5 1.26 0.19
7 17 5 1.22 0.21
7 -17 -5 1.52 0.27
7 17 -6 21.19 0.77
-7 17 6 20.45 0.7
-7 17 6 20.12 0.64
7 -17 6 21.16 0.72
7 17 6 20.48 0.72
7 -17 -6 20.39 0.81
-7 -17 6 20.42 0.66
-7 17 7 0.67 0.19
-7 17 7 0.78 0.2
7 -17 7 0.56 0.19
7 17 -7 0.35 0.19
7 -17 -7 0.44 0.22
7 17 7 0.94 0.21
-7 17 8 12.26 0.6
7 17 -8 12.85 0.64
-7 17 8 12.81 0.55
7 -17 8 12.8 0.6
7 17 8 13.4 0.6
8 -17 0 -0.03 0.1
8 17 0 -0.09 0.1
8 17 -1 0.36 0.13
8 -17 1 0.28 0.13
8 -17 1 0.23 0.11
8 17 1 0.33 0.13
8 -17 -1 0.37 0.13
8 -17 2 0.77 0.16
8 -17 2 0.88 0.15
8 17 -2 0.99 0.18
8 17 2 0.8 0.17
8 -17 -2 1.08 0.2
8 17 2 1.05 0.17
8 -17 3 6.89 0.36
-8 17 3 7.85 0.34
8 -17 3 7.34 0.38
8 17 -3 7.31 0.4
8 17 3 6.91 0.38
8 17 3 7.09 0.36
8 -17 -3 7.51 0.43
8 -17 4 40.42 1.06
8 -17 4 40.91 1.08
-8 17 4 38.57 1.03
-8 17 4 40.03 0.95
8 17 -4 41.41 1.14
8 17 4 40.09 1.09
8 -17 -4 40.54 1.19
8 17 4 40.54 1.1
-8 17 5 1.51 0.2
8 -17 5 1.29 0.21
8 -17 5 1.22 0.21
-8 17 5 1.35 0.21
8 17 -5 1.27 0.23
8 -17 -5 1.24 0.25
8 17 5 1.44 0.22
8 17 5 1.28 0.23
-8 17 6 19.3 0.63
8 -17 6 19.3 0.7
-8 17 6 19.26 0.68
8 17 -6 19.76 0.76
8 17 6 18.95 0.69
8 17 6 20.54 0.75
8 -17 -6 19.47 0.8
8 17 -7 11.18 0.58
-8 17 7 10.13 0.47
-8 17 7 11.67 0.54
8 -17 7 11.52 0.55
8 17 7 11.05 0.54
8 17 7 11.62 0.58
8 -17 -7 12.52 0.65
8 17 -8 13.48 0.68
-8 17 8 11.91 0.54
-8 17 8 12.92 0.6
8 -17 -8 13.71 0.75
9 -17 0 0.32 0.14
9 17 0 0.14 0.12
9 -17 1 22.38 0.73
9 -17 1 21.74 0.63
9 17 -1 21.99 0.72
9 -17 -1 22.31 0.75
9 17 1 21.15 0.7
9 -17 2 26.18 0.75
9 17 -2 27.31 0.84
9 -17 2 27.47 0.83
9 17 2 27.47 0.83
9 17 2 26.46 0.78
9 -17 -2 27.11 0.87
9 -17 3 11.56 0.49
9 -17 3 11.44 0.47
9 17 -3 11.4 0.52
9 17 3 11.46 0.49
9 -17 -3 10.07 0.52
9 17 3 12.01 0.49
9 -17 4 0.09 0.14
-9 17 4 0.06 0.12
-9 17 4 0.21 0.12
9 17 -4 0.33 0.16
9 -17 4 0.02 0.12
9 17 4 0.16 0.15
9 -17 -4 -0.02 0.14
9 17 4 0.19 0.14
9 17 -5 4.64 0.42
9 -17 5 4.75 0.34
-9 17 5 4.16 0.34
-9 17 5 4.58 0.3
9 -17 5 4.47 0.34
9 -17 -5 5.38 0.43
9 17 5 5.07 0.35
9 17 5 5.32 0.39
9 -17 6 1.87 0.26
-9 17 6 1.97 0.24
9 -17 6 2.04 0.28
9 17 -6 1.45 0.27
-9 17 6 1.86 0.26
9 17 6 2.04 0.29
9 17 6 1.7 0.26
9 -17 -6 1.9 0.32
-9 17 7 20.59 0.7
9 -17 7 20.6 0.78
9 17 -7 20.6 0.83
-9 17 7 22.09 0.78
9 17 7 19.63 0.8
9 -17 -7 21.79 0.91
10 -17 0 0.17 0.14
10 17 0 0.07 0.13
10 -17 1 0.05 0.14
10 17 -1 0.26 0.15
10 17 1 -0.01 0.11
10 -17 -1 -0.02 0.12
10 -17 2 32.54 0.98
10 17 -2 33.15 0.98
10 -17 2 31.85 0.88
10 17 2 34.11 0.96
10 -17 -2 32.67 1.02
10 -17 3 -0.01 0.14
10 17 -3 0.01 0.15
10 -17 3 0.08 0.13
10 -17 -3 0.12 0.16
10 17 3 0.05 0.12
10 17 3 -0.01 0.13
10 -17 4 57.47 1.46
10 -17 4 60.9 1.53
10 17 -4 59.79 1.56
10 -17 -4 59.19 1.62
10 17 4 59.09 1.52
10 17 4 60.55 1.49
10 17 -5 -0.12 0.15
10 -17 5 -0.15 0.13
10 -17 5 0.01 0.15
10 17 5 -0.01 0.14
10 -17 -5 -0.1 0.16
10 17 5 -0.07 0.15
10 17 -6 15.14 0.69
10 -17 6 14.5 0.62
-10 17 6 14.08 0.59
10 -17 6 14.3 0.62
-10 17 6 13.88 0.54
10 -17 -6 13.59 0.7
10 17 6 14.53 0.66
-10 17 7 5.65 0.39
-10 17 7 6.25 0.44
10 -17 -7 7.33 0.68
10 17 7 6.18 0.48
11 -17 0 0.86 0.2
11 17 0 0.83 0.19
11 -17 1 36.16 1.07
11 17 -1 35.79 1.05
11 -17 -1 35.1 1.08
11 17 1 36.67 1.03
11 -17 2 1.15 0.22
11 17 -2 1.16 0.22
11 -17 -2 1.15 0.24
11 17 2 0.98 0.2
11 -17 3 17.41 0.66
11 17 -3 17.5 0.69
11 -17 3 15.85 0.59
11 -17 -3 15.96 0.69
11 17 3 16.18 0.62
11 17 3 14.97 0.61
11 17 -4 0.11 0.17
11 -17 4 0.44 0.17
11 -17 4 -0.01 0.16
11 17 4 0.2 0.15
11 17 4 -0.02 0.16
11 -17 -4 0.17 0.19
11 17 -5 0.47 0.21
11 -17 5 0.41 0.19
11 -17 5 0.46 0.19
11 -17 -5 0.65 0.23
11 17 5 0.37 0.19
11 17 -6 0.27 0.21
11 -17 6 0.09 0.18
11 -17 6 -0.05 0.17
11 17 6 0.11 0.18
11 -17 -6 0.64 0.24
-11 17 7 3.61 0.35
-11 17 7 3.85 0.38
12 -17 0 0.11 0.15
12 17 0 0 0.14
12 -17 1 1.54 0.26
12 17 -1 1.01 0.22
12 -17 -1 0.76 0.22
12 17 1 1.05 0.21
12 17 -2 23.63 0.83
12 -17 2 23.61 0.84
12 17 2 23.15 0.79
12 -17 -2 23.01 0.86
12 -17 3 0.5 0.2
12 -17 3 0.22 0.17
12 17 -3 0.99 0.23
12 -17 -3 0.47 0.21
12 17 3 0.4 0.17
12 17 -4 28.21 0.97
12 -17 4 27.29 0.87
12 -17 4 28.4 0.94
12 -17 -4 25.57 0.97
12 17 4 26.53 0.9
12 -17 5 6.55 0.45
12 17 -5 6.14 0.47
12 -17 5 6.31 0.42
12 17 5 5.39 0.43
12 -17 -5 6.23 0.5
12 -17 6 13.62 0.65
13 17 0 16.97 0.67
13 -17 0 16.77 0.72
13 17 -1 4.3 0.39
13 -17 1 3.63 0.37
13 17 1 4.1 0.36
13 -17 -1 3.14 0.37
13 -17 2 11.31 0.57
13 17 -2 11.39 0.57
13 -17 -2 10.43 0.58
13 17 2 11.14 0.53
13 -17 3 7.72 0.5
13 17 -3 7.78 0.49
13 -17 -3 7.59 0.52
13 -17 4 3.95 0.39
13 -17 4 3.73 0.35
13 17 -4 3.97 0.41
13 17 4 3.54 0.38
13 -17 -4 3.04 0.38
13 -17 5 -0.04 0.19
13 17 5 0.25 0.19
14 17 0 0.01 0.17
14 -17 0 0.05 0.18
14 -17 1 6 0.46
14 17 -1 6.3 0.45
14 17 1 5.39 0.43
14 -17 -1 5.39 0.48
14 17 -2 10.34 0.56
14 -17 2 10.54 0.58
14 -17 -2 10.4 0.67
14 17 -3 7.42 0.57
15 17 0 8.87 0.51
15 17 -1 0.07 0.19
0 -18 0 22.18 0.59
0 -18 0 21.18 0.6
0 18 0 22.91 0.62
0 -18 1 -0.08 0.05
0 -18 1 -0.01 0.07
0 -18 -1 -0.07 0.06
0 -18 -1 0 0.07
0 18 1 -0.11 0.07
0 18 -1 -0.01 0.06
0 18 2 0.63 0.12
0 18 -2 0.89 0.13
0 -18 2 0.86 0.13
0 -18 3 -0.01 0.08
0 18 -3 0.08 0.07
0 18 3 0 0.09
0 18 4 0.17 0.11
0 18 -4 0.09 0.09
0 -18 4 0.34 0.12
0 18 -5 0.13 0.1
0 -18 5 -0.1 0.1
0 18 5 0.14 0.12
0 18 6 0.71 0.16
0 -18 6 0.37 0.14
0 18 7 0.04 0.14
0 -18 7 -0.05 0.13
0 18 8 13.3 0.58
0 -18 8 14.17 0.57
0 -18 9 0.17 0.17
0 18 9 -0.12 0.16
0 -18 10 15 0.65
1 18 0 0.08 0.08
1 -18 0 -0.1 0.06
-1 18 0 -0.05 0.06
-1 -18 0 0 0.07
1 -18 0 -0.04 0.06
-1 18 1 25.55 0.69
1 -18 1 26.55 0.69
-1 -18 -1 27.89 0.71
1 -18 1 26.55 0.66
1 18 -1 26.03 0.71
1 18 1 26.68 0.72
-1 18 -1 28.33 0.7
1 -18 -1 25.74 0.72
1 -18 -1 26.37 0.68
-1 -18 1 26.24 0.7
1 -18 2 25.38 0.68
1 -18 2 26.71 0.63
1 18 -2 26.09 0.7
-1 18 2 26.09 0.69
1 18 2 24.08 0.7
-1 18 -2 23.78 0.66
-1 -18 2 25.56 0.69
1 -18 -2 26.51 0.73
1 -18 -2 25.98 0.66
1 18 -3 100.26 2.17
-1 18 3 102.61 2.17
1 18 3 102.19 2.19
1 -18 -3 104.49 2.29
-1 18 -3 103.77 2.13
-1 -18 3 101.65 2.16
1 18 -4 8.17 0.35
1 -18 4 9.08 0.37
-1 18 4 7.96 0.36
-1 -18 4 7.83 0.36
1 18 4 8.17 0.37
-1 18 -4 7.78 0.31
1 -18 5 36.01 0.96
-1 18 5 38.13 0.99
1 18 -5 36.4 0.96
1 18 5 39.09 1
-1 -18 5 37 0.97
1 -18 6 0.1 0.12
-1 18 6 -0.17 0.11
1 18 -6 0.03 0.1
-1 -18 6 -0.04 0.11
1 18 6 0.14 0.13
1 -18 7 53.03 1.34
-1 18 7 55.17 1.38
1 18 7 53.21 1.37
-1 -18 7 54.61 1.34
-1 18 8 0.94 0.2
1 -18 8 0.83 0.2
1 18 8 1.01 0.22
-1 -18 8 0.8 0.19
-1 18 9 0.71 0.22
1 -18 9 0.36 0.2
1 18 9 0.95 0.23
-1 -18 9 0.78 0.2
2 -18 0 0.28 0.09
2 18 0 0.38 0.11
-2 -18 0 0.23 0.09
2 -18 0 0.24 0.08
-2 18 0 0.21 0.08
2 -18 1 32.06 0.79
2 18 -1 32.71 0.84
-2 18 1 33.34 0.81
2 -18 1 31.91 0.8
2 -18 -1 32.71 0.85
-2 -18 1 33.14 0.83
-2 18 -1 32.25 0.79
2 18 1 32.86 0.85
2 -18 -1 31.24 0.78
2 -18 2 14.18 0.43
-2 18 2 14.99 0.47
2 -18 2 15.43 0.48
2 18 -2 15.17 0.5
2 -18 -2 16.01 0.45
2 -18 -2 16.06 0.53
2 18 2 15.5 0.51
-2 -18 2 15.54 0.49
-2 18 -2 15.15 0.45
-2 18 3 1.33 0.16
2 -18 3 1.43 0.17
2 18 -3 1.41 0.17
-2 -18 3 1.17 0.16
-2 18 -3 1.89 0.16
2 18 3 1.55 0.19
2 -18 -3 1.19 0.18
2 18 -4 0.28 0.11
2 -18 4 -0.03 0.09
-2 18 4 0.15 0.11
2 18 4 0.28 0.12
2 -18 -4 0.19 0.13
-2 -18 4 0.03 0.1
-2 18 5 0.26 0.13
2 -18 5 0.06 0.12
2 18 -5 0.17 0.11
2 18 5 0.31 0.14
-2 -18 5 0.07 0.11
-2 18 6 0.1 0.13
2 18 -6 0.23 0.13
2 -18 6 0.34 0.14
-2 -18 6 0.41 0.14
2 18 6 0.31 0.15
2 18 -7 14.5 0.57
2 -18 7 13.99 0.55
-2 18 7 12.39 0.54
2 18 7 13.89 0.56
-2 -18 7 12.62 0.51
2 -18 8 0.36 0.17
-2 18 8 0.66 0.19
-2 -18 8 0.47 0.16
2 18 8 0.45 0.19
2 -18 9 12.88 0.58
-2 18 9 12.34 0.61
-2 -18 9 12.24 0.54
2 18 9 12.87 0.59
3 18 0 0.04 0.07
3 -18 0 -0.07 0.06
3 -18 0 0.08 0.08
-3 -18 0 0.03 0.08
-3 18 0 0.04 0.07
3 -18 1 0.49 0.11
3 18 -1 0.27 0.1
3 -18 1 0.47 0.11
-3 18 1 0.32 0.09
3 -18 -1 0.42 0.09
-3 18 -1 0.32 0.08
3 18 1 0.33 0.1
3 -18 -1 0.38 0.11
-3 -18 1 0.46 0.11
3 -18 2 38.09 0.94
3 -18 2 41.11 0.94
3 18 -2 38.6 0.98
-3 18 2 38.29 0.93
-3 -18 2 38.69 0.96
3 -18 -2 39.39 1.03
-3 18 -2 37.47 0.89
3 18 2 39.25 0.99
3 -18 -2 39.76 0.9
3 -18 3 104.33 2.14
-3 18 3 102.11 2.15
3 18 -3 98.09 2.18
3 -18 3 104.01 2.15
3 -18 -3 98.31 2.27
3 18 3 97.74 2.19
-3 -18 3 104.14 2.15
3 -18 4 13.29 0.48
-3 18 4 13.89 0.48
3 18 -4 13.13 0.49
3 -18 -4 13.05 0.53
-3 -18 4 13.09 0.47
3 18 4 12.69 0.49
-3 18 5 12.79 0.49
3 18 -5 12.38 0.49
3 -18 5 12.75 0.49
-3 -18 5 11.94 0.46
3 18 5 12.21 0.49
3 -18 -5 13.33 0.57
-3 18 6 7.16 0.38
3 -18 6 7.56 0.39
3 18 -6 6.77 0.39
3 18 6 7 0.39
-3 -18 6 6.76 0.36
3 18 -7 35.06 1.02
3 -18 7 34.11 0.99
-3 18 7 35.21 1.01
3 18 7 35 1.01
-3 -18 7 35.32 0.97
3 -18 8 1.91 0.26
3 18 -8 2.02 0.29
-3 18 8 2.55 0.3
-3 -18 8 2.09 0.26
3 18 8 1.68 0.26
-3 18 9 0.04 0.18
3 -18 9 0.23 0.18
3 18 9 0.14 0.19
-4 18 0 37.93 0.89
4 18 0 38.47 0.98
4 -18 0 39.86 0.98
4 -18 0 37 0.89
4 -18 1 190.27 3.86
4 -18 1 198.06 4
4 18 -1 194.94 3.97
-4 18 1 187.5 3.86
-4 18 -1 197.7 3.84
4 -18 -1 199.37 3.83
-4 -18 1 194.67 3.91
4 -18 -1 202.07 4.06
4 -18 2 11.85 0.42
4 -18 2 11.6 0.41
4 18 -2 12.3 0.46
-4 18 2 12.67 0.41
-4 -18 2 12.65 0.45
4 -18 -2 11.41 0.47
4 -18 -2 12.42 0.37
4 18 2 12.3 0.47
4 -18 3 72.97 1.59
-4 18 3 70.81 1.59
4 -18 3 71.2 1.6
4 18 -3 73.72 1.66
4 18 3 72.89 1.65
-4 -18 3 70.29 1.6
4 -18 -3 71.68 1.72
4 -18 4 2.55 0.24
4 18 -4 2.15 0.23
-4 18 4 1.85 0.21
-4 -18 4 2.32 0.22
4 -18 -4 2.83 0.3
4 18 4 1.87 0.22
4 -18 5 1.61 0.2
-4 18 5 1.05 0.18
4 18 -5 2.34 0.26
-4 -18 5 1.43 0.19
4 18 5 1.34 0.2
4 -18 -5 1.97 0.27
4 18 -6 -0.03 0.11
-4 18 6 -0.03 0.12
4 -18 6 0.1 0.13
4 18 6 -0.03 0.13
-4 -18 6 0.06 0.12
4 -18 7 25.56 0.82
4 18 -7 27.38 0.88
-4 18 7 27.02 0.85
-4 -18 7 25.74 0.79
4 18 7 26.72 0.84
4 18 -8 0.75 0.21
-4 18 8 0.62 0.21
4 -18 8 0.83 0.21
4 18 8 0.66 0.2
-4 -18 8 0.48 0.17
4 18 -9 27.36 0.97
4 -18 9 29.27 0.94
4 18 9 28.46 0.94
5 18 0 -0.03 0.09
-5 18 0 0.05 0.07
5 -18 0 0.03 0.09
5 -18 0 -0.03 0.07
5 -18 1 2.1 0.2
5 18 -1 1.58 0.19
-5 18 1 2.02 0.17
5 -18 1 1.59 0.17
5 -18 -1 1.7 0.2
5 18 1 1.75 0.2
5 -18 -1 1.87 0.16
5 -18 2 11.27 0.42
5 -18 2 11.16 0.42
-5 18 2 11.4 0.4
5 18 -2 11.26 0.45
5 -18 -2 13.51 0.5
5 18 2 11.47 0.45
-5 -18 2 10.94 0.43
5 -18 3 29.32 0.8
-5 18 3 30.81 0.79
5 -18 3 30.15 0.79
5 18 -3 30.13 0.85
-5 -18 3 29.78 0.81
5 18 3 29.32 0.84
5 -18 -3 28.39 0.88
-5 18 4 1.41 0.19
5 -18 4 1.16 0.16
5 -18 4 0.52 0.15
5 18 -4 1.01 0.18
5 -18 -4 0.76 0.19
-5 -18 4 1.1 0.17
5 18 4 1.07 0.19
5 18 -5 5.62 0.35
-5 18 5 5.88 0.34
5 -18 5 6.03 0.35
-5 -18 5 5.77 0.33
5 18 5 5.95 0.36
5 -18 -5 6 0.41
5 18 -6 5.37 0.38
-5 18 6 5.14 0.36
5 -18 6 5.79 0.36
-5 -18 6 5.92 0.34
5 -18 -6 6.12 0.43
5 18 6 5.66 0.37
-5 18 7 0.42 0.19
5 18 -7 0.04 0.14
5 -18 7 0.28 0.16
5 18 7 0.22 0.17
-5 -18 7 0.33 0.15
-5 18 8 3.69 0.36
5 -18 8 3.44 0.35
5 18 -8 2.96 0.35
5 18 8 3.14 0.34
5 18 -9 0.45 0.21
5 18 9 0.91 0.24
6 -18 0 1.4 0.18
6 -18 0 1.74 0.16
6 18 0 1.53 0.19
-6 18 1 34.88 0.83
6 18 -1 34.1 0.94
6 -18 1 35.32 0.86
6 -18 1 35.51 0.93
6 -18 -1 35.01 0.82
6 -18 -1 34.04 0.95
6 18 1 34.75 0.94
6 18 1 34.2 0.86
-6 18 2 4.03 0.23
6 -18 2 4.2 0.26
6 -18 2 4.05 0.26
6 18 -2 3.68 0.28
6 -18 -2 4.03 0.3
6 18 2 4.28 0.29
6 18 -3 30.6 0.89
6 -18 3 28.67 0.82
6 -18 3 31.39 0.84
-6 18 3 31.34 0.81
6 18 3 30.86 0.87
-6 -18 3 30.36 0.84
6 -18 -3 30.65 0.93
6 -18 4 3.65 0.25
6 -18 4 3.91 0.29
-6 18 4 3.41 0.27
6 18 -4 4.23 0.31
6 18 4 3.64 0.31
6 -18 -4 3.13 0.32
-6 -18 4 3.33 0.26
-6 18 5 9.7 0.43
6 -18 5 9.8 0.45
6 18 -5 9.6 0.47
6 18 5 8.71 0.44
-6 -18 5 10.02 0.43
6 -18 -5 10.25 0.53
-6 18 6 0.16 0.14
6 18 -6 0.18 0.16
6 -18 6 0.37 0.17
6 18 6 0.37 0.17
6 -18 -6 0.21 0.16
-6 -18 6 0.23 0.14
6 18 -7 24.25 0.86
-6 18 7 23.34 0.8
6 -18 7 26.58 0.84
6 -18 -7 24.47 0.94
6 18 7 23.8 0.82
6 -18 8 1.12 0.24
6 18 -8 1.4 0.27
-6 18 8 1.11 0.23
6 18 8 1.05 0.24
6 18 9 41.64 1.24
7 18 0 -0.06 0.09
7 -18 0 -0.01 0.11
7 -18 0 -0.02 0.07
7 18 -1 9.88 0.44
7 -18 1 9.95 0.37
7 -18 1 9.34 0.42
7 -18 -1 10.05 0.45
7 18 1 10.17 0.44
-7 18 2 3.55 0.23
7 18 -2 3.8 0.29
7 -18 2 3.69 0.25
7 -18 2 3.47 0.26
7 18 2 3.31 0.24
7 -18 -2 4.04 0.34
7 18 2 3.67 0.28
7 -18 3 3.72 0.27
7 18 -3 3.47 0.31
7 -18 3 3.42 0.26
-7 18 3 3.2 0.24
7 -18 -3 3.68 0.34
7 18 3 3.42 0.26
7 18 3 2.71 0.27
7 -18 4 0.19 0.13
7 -18 4 0.16 0.12
7 18 -4 0.27 0.14
-7 18 4 0.16 0.12
7 -18 -4 0.2 0.15
-7 -18 4 0.49 0.14
7 18 4 0.31 0.14
7 -18 5 31.81 0.91
-7 18 5 30.28 0.89
7 18 -5 33.28 0.99
7 -18 5 30.87 0.89
-7 -18 5 32.19 0.89
7 -18 -5 30.49 1.02
7 18 5 31.96 0.94
-7 18 6 0.99 0.19
7 -18 6 0.82 0.2
7 18 -6 0.97 0.22
-7 18 6 1 0.21
7 -18 -6 1.22 0.26
7 18 6 0.58 0.19
-7 -18 6 0.75 0.17
-7 18 7 0.58 0.2
7 -18 7 0.72 0.21
-7 18 7 0.48 0.18
7 18 -7 1.08 0.25
7 -18 -7 0.48 0.22
7 18 7 0.34 0.17
7 18 -8 0.25 0.19
7 -18 8 -0.09 0.16
-7 18 8 0.07 0.18
-7 18 8 0.41 0.19
7 18 8 -0.14 0.17
8 18 0 0.33 0.14
8 -18 0 0.11 0.12
8 -18 1 11.08 0.4
8 18 -1 10.47 0.47
8 -18 1 10.68 0.46
8 18 1 10.47 0.46
8 -18 -1 11.26 0.49
8 18 -2 1.81 0.24
8 -18 2 1.72 0.22
8 -18 2 1.87 0.21
8 -18 -2 1.84 0.25
8 18 2 2.22 0.22
8 18 2 2.07 0.24
8 -18 3 35.48 0.95
8 -18 3 35.24 0.98
-8 18 3 34.79 0.92
8 18 -3 36.48 1.03
8 18 3 36.31 1
8 18 3 34.28 0.96
8 -18 -3 34.7 1.06
8 18 -4 2.73 0.3
-8 18 4 2.75 0.26
8 -18 4 2.75 0.27
8 -18 4 2.38 0.27
8 18 4 2.74 0.28
8 -18 -4 2.33 0.3
8 18 4 2.28 0.26
8 -18 5 0.21 0.14
8 18 -5 0.56 0.19
-8 18 5 0.27 0.16
-8 18 5 0.36 0.15
8 -18 5 0.43 0.18
8 -18 -5 0.58 0.2
8 18 5 0.4 0.18
8 18 5 0.15 0.15
-8 18 6 3.63 0.33
8 -18 6 3.05 0.32
8 18 -6 2.86 0.34
-8 18 6 3.23 0.29
8 -18 -6 2.98 0.37
8 18 6 3.05 0.33
8 18 6 3.17 0.32
8 -18 7 4.77 0.41
-8 18 7 3.6 0.35
-8 18 7 3.94 0.33
8 18 -7 4.31 0.42
8 -18 -7 4.05 0.44
8 18 7 4 0.4
8 18 7 3.98 0.38
-8 18 8 2.26 0.36
-8 18 8 2.99 0.36
8 18 8 2.85 0.37
9 -18 0 0.01 0.12
9 18 0 -0.05 0.11
9 -18 1 11.6 0.5
9 -18 1 10.22 0.41
9 18 -1 11.33 0.5
9 -18 -1 11.22 0.5
9 18 1 12.12 0.5
9 -18 2 0.08 0.12
9 -18 2 0.05 0.13
9 18 -2 0.36 0.16
9 18 2 0.18 0.14
9 -18 -2 0.11 0.14
9 -18 3 66.13 1.62
9 -18 3 64.69 1.54
9 18 -3 65.69 1.65
9 18 3 67.68 1.61
9 18 3 65.68 1.59
9 -18 -3 67.17 1.71
9 -18 4 0.7 0.18
9 -18 4 0.67 0.17
9 18 -4 0.84 0.2
9 18 4 0.82 0.2
9 18 4 0.52 0.18
9 -18 -4 0.4 0.19
9 -18 5 66.13 1.65
9 -18 5 70.53 1.69
9 18 -5 68.67 1.76
-9 18 5 67.05 1.49
-9 18 5 69.65 1.64
9 18 5 68.43 1.68
9 18 5 69.12 1.72
9 -18 -5 69.04 1.83
9 18 -6 3.77 0.4
9 -18 6 3.5 0.34
-9 18 6 3.26 0.32
-9 18 6 3.53 0.31
9 18 6 3.34 0.36
9 18 6 3.35 0.34
9 -18 -6 3.62 0.42
-9 18 7 26.36 0.88
-9 18 7 26.28 0.8
9 18 -7 27.19 0.99
9 -18 7 27.16 0.91
9 -18 -7 25.89 1.02
9 18 7 28.15 0.92
9 18 7 25.39 0.94
10 -18 0 20.22 0.73
10 18 0 20.53 0.71
10 18 -1 2.83 0.29
10 -18 1 2.03 0.26
10 -18 -1 3.08 0.31
10 18 1 2.46 0.28
10 18 -2 10.05 0.49
10 -18 2 9.48 0.41
10 -18 2 9.58 0.48
10 -18 -2 9.23 0.5
10 18 2 9.73 0.47
10 -18 3 1.84 0.23
10 -18 3 1.38 0.23
10 18 -3 1.71 0.27
10 18 3 1.7 0.24
10 18 3 1.75 0.24
10 -18 -3 1.69 0.27
10 18 -4 0.18 0.17
10 -18 4 0.06 0.15
10 -18 4 0.14 0.15
10 18 4 0.27 0.15
10 -18 -4 0.18 0.17
10 18 4 0.43 0.17
10 18 -5 1.84 0.3
10 -18 5 2.22 0.28
10 -18 5 1.92 0.28
10 18 5 2 0.28
10 18 5 1.89 0.27
10 -18 -5 1.79 0.31
-10 18 6 3.25 0.32
10 18 -6 3.57 0.4
10 -18 6 3.42 0.34
10 -18 6 2.79 0.34
-10 18 6 4.07 0.34
10 -18 -6 2.86 0.39
10 18 6 3.72 0.36
10 18 6 3.15 0.36
-10 18 7 0.15 0.17
-10 18 7 -0.07 0.15
11 -18 0 0 0.14
11 18 0 0.01 0.13
11 -18 1 15.05 0.63
11 18 -1 14.27 0.61
11 18 1 15.69 0.62
11 -18 -1 15.43 0.65
11 -18 2 0.61 0.19
11 18 -2 0.55 0.19
11 -18 -2 0.35 0.17
11 18 2 0.44 0.18
11 18 -3 49.46 1.37
11 -18 3 50.14 1.36
11 -18 3 48.69 1.25
11 18 3 48.97 1.31
11 -18 -3 48.39 1.41
11 -18 4 1.76 0.27
11 18 -4 1.57 0.28
11 -18 4 1.51 0.25
11 18 4 1.69 0.26
11 -18 -4 1.69 0.3
11 18 4 2.01 0.27
11 18 -5 38.71 1.22
11 -18 5 38.68 1.16
11 -18 5 38.61 1.12
11 18 5 39.47 1.18
11 18 5 39.94 1.17
11 -18 -5 40.53 1.3
11 -18 6 0.16 0.17
11 -18 6 0.26 0.19
11 18 6 0.04 0.18
12 -18 0 6.5 0.43
12 18 0 5.48 0.39
12 -18 1 18.14 0.72
12 18 -1 17.98 0.71
12 -18 -1 16.65 0.72
12 18 1 18.25 0.69
12 18 -2 2.88 0.33
12 -18 2 2.77 0.32
12 -18 -2 2.06 0.31
12 18 2 2.99 0.32
12 18 -3 7.02 0.47
12 -18 3 7.96 0.47
12 -18 3 7.74 0.43
12 -18 -3 8.4 0.52
12 18 3 7.51 0.44
12 -18 4 0.21 0.17
12 -18 4 -0.11 0.17
12 18 -4 0.2 0.2
12 -18 -4 0.05 0.19
12 18 4 0.09 0.16
12 -18 5 0.96 0.24
12 -18 5 0.61 0.21
12 18 5 0.75 0.24
13 -18 0 0.12 0.17
13 18 0 0.28 0.17
13 18 -1 27.19 0.91
13 -18 1 25.16 0.91
13 -18 -1 25.68 0.94
13 18 1 25.49 0.87
13 -18 2 1.79 0.3
13 18 -2 1.41 0.27
13 18 2 1.5 0.25
13 -18 -2 1.07 0.25
13 -18 3 11.7 0.59
13 18 -3 11.63 0.6
13 -18 -3 11.01 0.63
13 -18 4 0.9 0.21
13 -18 4 0.63 0.22
13 18 5 15.09 0.7
14 18 0 0.01 0.18
14 -18 0 0.14 0.2
14 -18 1 19.6 0.82
14 18 -1 21.05 0.8
14 18 1 19.99 0.77
14 18 -2 0.33 0.2
15 18 0 0.26 0.21
0 19 0 0.06 0.08
0 -19 0 0.32 0.09
0 -19 0 0.21 0.07
0 -19 1 0.03 0.08
0 19 1 0.03 0.08
0 -19 1 -0.03 0.06
0 19 -1 0.09 0.07
0 -19 -1 0.05 0.08
0 -19 -1 -0.06 0.07
0 19 -2 66.67 1.48
0 19 2 66.61 1.5
0 -19 2 65.7 1.48
0 19 -3 0.01 0.07
0 19 3 0.02 0.08
0 -19 3 0.01 0.09
0 19 -4 21.29 0.63
0 -19 4 22 0.66
0 19 4 23.17 0.68
0 -19 5 -0.02 0.1
0 19 5 -0.01 0.11
0 19 -5 0.07 0.09
0 19 6 93.36 2.12
0 -19 6 95.82 2.1
0 -19 7 0.22 0.14
0 19 7 -0.06 0.13
0 -19 8 44.57 1.19
0 19 8 43.67 1.23
0 19 9 -0.07 0.17
0 -19 9 -0.03 0.16
-1 19 0 10.75 0.39
1 -19 0 10.77 0.38
1 -19 0 11.84 0.39
1 19 0 10.88 0.4
-1 -19 0 11.19 0.4
1 19 -1 2.34 0.21
1 -19 1 2.37 0.2
1 -19 1 2.34 0.17
-1 -19 -1 2.53 0.19
-1 19 1 2.94 0.2
1 -19 -1 2.54 0.18
1 19 1 1.7 0.18
1 -19 -1 2.22 0.2
-1 -19 1 2.54 0.2
-1 19 -1 2.35 0.18
1 19 -2 0.31 0.1
1 -19 2 0.24 0.1
-1 19 2 0.33 0.11
-1 -19 2 0.39 0.11
-1 19 -2 0.44 0.1
1 -19 -2 0.39 0.11
1 -19 -2 0.36 0.1
1 19 2 0.25 0.11
-1 19 3 0.17 0.1
1 -19 3 0.13 0.1
1 19 -3 0.01 0.08
-1 19 -3 0 0.07
-1 -19 3 0.13 0.1
1 -19 -3 0.1 0.12
1 19 3 0.27 0.11
1 19 -4 0.75 0.14
-1 19 4 0.55 0.14
1 -19 4 0.59 0.15
1 19 4 0.54 0.14
-1 -19 4 0.69 0.15
-1 19 -4 0.51 0.11
-1 19 5 0.2 0.12
1 -19 5 0.23 0.12
1 19 -5 0.13 0.1
1 19 5 0.25 0.13
-1 -19 5 0.25 0.12
-1 19 6 17.85 0.62
1 -19 6 16.98 0.59
1 19 -6 15.77 0.58
1 19 6 16.97 0.61
-1 -19 6 16.55 0.59
1 -19 7 0.38 0.16
-1 19 7 0.58 0.18
-1 -19 7 0.37 0.15
1 19 7 0.4 0.17
1 -19 8 3.11 0.32
-1 19 8 3.92 0.37
-1 -19 8 3.96 0.34
1 19 8 3.42 0.33
-1 19 9 0.13 0.19
1 -19 9 0.1 0.17
1 19 9 -0.1 0.16
-1 -19 9 0.12 0.15
-2 -19 0 0.02 0.07
2 19 0 0.02 0.08
2 -19 0 0.09 0.08
2 -19 0 0.01 0.07
-2 19 0 0.06 0.07
-2 19 1 3.24 0.21
2 -19 1 3.39 0.21
2 19 -1 3.65 0.24
2 -19 1 3.67 0.2
-2 -19 1 3.67 0.23
2 -19 -1 3.69 0.21
-2 19 -1 3.4 0.2
2 -19 -1 3.17 0.22
2 19 1 3.76 0.24
2 19 -2 39.4 0.99
-2 19 2 37.91 0.95
2 -19 2 39.34 0.92
2 -19 2 38.92 0.95
2 -19 -2 38.41 1.02
2 -19 -2 37.97 0.91
-2 -19 2 40.75 0.98
2 19 2 40.6 1
-2 19 -2 38.56 0.93
-2 19 3 1.97 0.2
2 19 -3 2.29 0.22
2 -19 3 2.05 0.21
2 -19 -3 1.94 0.22
-2 19 -3 2.17 0.16
2 19 3 2.14 0.22
-2 -19 3 1.93 0.2
2 -19 4 15.73 0.54
2 19 -4 16.17 0.55
-2 19 4 16.74 0.55
2 -19 -4 15.81 0.6
-2 -19 4 16.85 0.55
2 19 4 15.8 0.56
-2 19 5 1.09 0.19
2 -19 5 0.8 0.17
2 19 -5 0.83 0.16
2 19 5 0.76 0.18
-2 -19 5 0.68 0.15
2 -19 6 47.1 1.2
2 19 -6 49.09 1.23
-2 19 6 45.69 1.21
-2 -19 6 47.52 1.19
2 19 6 45.94 1.22
2 19 -7 0.4 0.16
-2 19 7 0.74 0.19
2 -19 7 0.55 0.18
2 19 7 0.36 0.17
-2 -19 7 0.6 0.18
2 -19 8 11.9 0.54
-2 19 8 11.36 0.55
-2 -19 8 11.98 0.52
2 19 8 12.21 0.57
-2 19 9 0.05 0.17
2 -19 9 -0.1 0.16
2 19 9 -0.02 0.17
-2 -19 9 -0.03 0.15
-3 19 0 89.98 1.88
3 19 0 86.84 1.95
-3 -19 0 88.71 1.93
3 -19 0 90.52 1.96
3 -19 0 91.04 1.88
-3 19 1 0.07 0.08
3 19 -1 -0.01 0.08
3 -19 1 0.03 0.08
3 -19 1 0.04 0.08
-3 19 -1 0 0.06
3 -19 -1 -0.02 0.06
-3 -19 1 0.1 0.09
3 -19 -1 0.04 0.08
3 19 1 -0.02 0.08
-3 19 2 76 1.66
3 -19 2 77.23 1.67
3 -19 2 78.58 1.67
3 19 -2 73.34 1.71
3 -19 -2 78.24 1.61
3 19 2 79.05 1.73
3 -19 -2 75.07 1.76
-3 -19 2 75.58 1.68
-3 19 -2 73.46 1.62
-3 19 3 1.05 0.16
3 19 -3 1.15 0.17
3 -19 3 1.24 0.16
3 -19 3 1.16 0.17
3 19 3 1.14 0.17
3 -19 -3 1.36 0.2
-3 -19 3 1.44 0.18
3 19 -4 4.59 0.29
3 -19 4 4.96 0.29
-3 19 4 5.32 0.3
-3 -19 4 5.01 0.3
3 -19 -4 5.43 0.34
3 19 4 4.87 0.32
-3 19 5 1.89 0.22
3 19 -5 2.33 0.25
3 -19 5 2.13 0.23
-3 -19 5 2.31 0.23
3 19 5 2.05 0.24
3 -19 -5 1.87 0.27
3 19 -6 29.55 0.89
-3 19 6 29.8 0.88
3 -19 6 31.42 0.89
3 19 6 29.14 0.89
-3 -19 6 30.34 0.86
3 -19 7 0.27 0.17
3 19 -7 0.15 0.14
-3 19 7 0.17 0.16
-3 -19 7 0.07 0.14
3 19 7 0.11 0.14
-3 19 8 48.54 1.31
3 -19 8 45.11 1.26
3 19 -8 46.62 1.3
3 19 8 47.93 1.3
-3 -19 8 47.48 1.24
3 -19 9 0.3 0.19
3 19 9 0.21 0.19
-4 19 0 0.05 0.07
4 -19 0 0.09 0.09
4 19 0 0.01 0.09
4 -19 0 0.06 0.07
4 19 -1 0.19 0.1
4 -19 1 0.21 0.1
-4 19 1 0.05 0.08
4 -19 1 0.18 0.1
4 19 1 0.34 0.12
-4 -19 1 0.35 0.12
4 -19 -1 0.24 0.08
4 -19 -1 0.18 0.11
-4 19 2 5.46 0.27
4 -19 2 5.48 0.28
4 -19 2 5.96 0.28
4 19 -2 5.26 0.3
4 -19 -2 5.6 0.24
4 -19 -2 5.96 0.33
4 19 2 5.56 0.32
-4 -19 2 4.99 0.29
4 -19 3 2.78 0.2
4 19 -3 2.99 0.26
-4 19 3 2.5 0.22
4 -19 3 2.71 0.23
4 -19 -3 2.65 0.26
4 19 3 3.3 0.29
-4 -19 3 3.31 0.25
4 -19 4 19.36 0.62
-4 19 4 18.57 0.6
4 19 -4 18.59 0.64
-4 -19 4 19.4 0.61
4 -19 -4 19.51 0.7
4 19 4 19.86 0.65
4 19 -5 0.01 0.11
-4 19 5 -0.08 0.12
4 -19 5 0.16 0.13
4 -19 -5 0.01 0.14
-4 -19 5 0.11 0.12
4 19 5 0.15 0.13
-4 19 6 13.47 0.55
4 19 -6 13.22 0.56
4 -19 6 12.95 0.53
-4 -19 6 14.57 0.54
4 19 6 14.24 0.57
4 19 -7 0.99 0.22
-4 19 7 0.68 0.2
4 -19 7 0.66 0.19
-4 -19 7 1.37 0.21
4 19 7 0.9 0.21
4 -19 8 4.29 0.37
-4 19 8 4.29 0.39
4 19 -8 4.38 0.41
-4 -19 8 4.74 0.37
4 19 8 4.58 0.4
4 19 9 1.09 0.25
5 19 0 177.46 3.61
5 -19 0 173.74 3.66
5 -19 0 174.02 3.47
-5 19 1 5.14 0.25
5 -19 1 5.42 0.27
5 19 -1 4.98 0.3
5 -19 1 5.11 0.28
5 -19 -1 5.27 0.31
5 19 1 4.98 0.3
5 -19 -1 5.16 0.24
5 -19 2 189.3 3.85
-5 19 2 186.11 3.73
5 -19 2 187.34 3.73
5 19 -2 184.88 3.84
-5 -19 2 188.36 3.78
5 -19 -2 181.5 3.94
5 19 2 188.05 3.83
5 -19 3 5.42 0.28
5 -19 3 5.68 0.31
5 19 -3 5.55 0.33
-5 19 3 5.66 0.29
5 -19 -3 5.28 0.35
5 19 3 5.66 0.33
-5 -19 3 5.44 0.31
5 -19 4 20.55 0.65
-5 19 4 20.8 0.64
5 19 -4 20.22 0.69
5 -19 -4 19.37 0.72
-5 -19 4 20.79 0.65
5 19 4 20.73 0.68
5 -19 5 1.24 0.19
-5 19 5 1.29 0.2
5 19 -5 1.33 0.22
5 19 5 1.56 0.22
5 -19 -5 1.23 0.23
-5 -19 5 1.48 0.2
5 19 -6 53.93 1.41
-5 19 6 52.9 1.35
5 -19 6 52.86 1.35
-5 -19 6 53.74 1.32
5 19 6 52.18 1.38
5 -19 -6 53.66 1.5
5 -19 7 3.86 0.34
-5 19 7 3.81 0.35
5 19 -7 3.55 0.36
-5 -19 7 4.54 0.32
5 19 7 3.8 0.36
5 -19 8 43.3 1.23
5 19 -8 44.8 1.31
-5 19 8 44.49 1.26
5 19 8 44.76 1.26
5 19 -9 -0.05 0.18
5 19 9 0.07 0.2
6 -19 0 -0.06 0.07
6 -19 0 -0.08 0.1
6 19 0 0.17 0.11
6 -19 1 0.02 0.1
6 -19 1 0.3 0.11
6 19 -1 0 0.1
6 19 1 0.17 0.12
6 -19 -1 0.06 0.11
6 -19 2 0.17 0.11
-6 19 2 0.05 0.08
6 -19 2 0.03 0.1
6 19 -2 0.7 0.16
6 19 2 0.01 0.1
6 -19 -2 0.27 0.13
6 -19 3 3.29 0.25
6 -19 3 3.6 0.28
6 19 -3 2.9 0.27
-6 19 3 3.29 0.23
6 19 3 3.78 0.32
-6 -19 3 3.51 0.26
6 -19 -3 2.85 0.3
6 19 -4 4.94 0.34
6 -19 4 5.52 0.33
6 -19 4 5.26 0.3
-6 19 4 4.78 0.3
-6 -19 4 4.96 0.31
6 -19 -4 4.49 0.36
6 19 4 4.94 0.33
6 -19 5 -0.1 0.12
6 19 -5 -0.01 0.12
-6 19 5 0.1 0.13
-6 -19 5 0 0.12
6 -19 -5 0.14 0.16
6 19 5 -0.11 0.13
6 19 -6 0.92 0.22
6 -19 6 0.79 0.2
-6 19 6 0.72 0.19
6 19 6 0.73 0.19
-6 -19 6 0.63 0.17
6 -19 -6 0.39 0.19
-6 19 7 8.36 0.47
6 19 -7 8.06 0.49
6 -19 7 8.81 0.48
6 19 7 8.79 0.48
-6 -19 7 8.85 0.43
6 -19 -7 8.56 0.56
6 -19 8 10.75 0.57
-6 19 8 10.12 0.54
6 19 -8 10.91 0.59
6 19 8 10.85 0.55
7 -19 0 8.94 0.42
7 -19 0 9.38 0.35
7 19 0 9.32 0.43
7 19 -1 1.86 0.23
7 -19 1 2.3 0.2
7 -19 1 2.22 0.23
7 19 1 1.99 0.23
7 -19 -1 1.88 0.23
7 19 -2 26.56 0.81
7 -19 2 25.94 0.73
7 -19 2 26.38 0.77
7 -19 -2 26.02 0.83
7 19 2 24.81 0.73
7 19 2 26.6 0.8
7 -19 3 0.15 0.12
7 -19 3 -0.09 0.11
7 19 -3 -0.11 0.11
-7 19 3 -0.02 0.1
7 -19 -3 0.16 0.14
7 19 3 0.04 0.12
7 19 3 0.38 0.15
-7 19 4 15.33 0.54
7 19 -4 16.21 0.62
7 -19 4 15.19 0.56
7 -19 4 14.52 0.54
-7 -19 4 14.73 0.55
7 -19 -4 15.43 0.65
7 19 4 15.78 0.59
-7 19 5 0.25 0.16
7 -19 5 0.1 0.15
7 19 -5 0.08 0.14
7 -19 -5 0.19 0.18
7 19 5 0.23 0.15
-7 -19 5 0.24 0.14
-7 19 6 7.97 0.43
7 19 -6 8.27 0.48
7 -19 6 8.37 0.46
7 19 6 8.49 0.46
7 -19 -6 7.95 0.52
-7 -19 6 7.97 0.41
-7 19 7 0.58 0.2
7 -19 7 0.58 0.21
7 19 -7 0.46 0.19
7 19 7 0.53 0.2
7 -19 -7 0.64 0.23
-7 19 8 10.5 0.56
7 19 -8 12.37 0.64
7 19 8 11.23 0.58
8 -19 0 -0.12 0.11
8 19 0 0.04 0.11
8 19 -1 0.06 0.12
8 -19 1 -0.05 0.12
8 -19 1 -0.08 0.09
8 -19 -1 0.11 0.13
8 19 1 -0.01 0.11
8 -19 2 57.59 1.44
8 19 -2 56.63 1.45
8 -19 2 57.45 1.35
8 19 2 58.68 1.44
8 -19 -2 58.54 1.5
8 -19 3 0.11 0.13
8 19 -3 0.31 0.15
8 -19 3 0.37 0.14
8 19 3 0.15 0.13
8 19 3 0.21 0.14
8 -19 -3 0.23 0.16
8 -19 4 78.86 1.81
8 19 -4 78.01 1.9
-8 19 4 79.56 1.79
8 -19 4 76.85 1.84
8 19 4 77.5 1.84
8 -19 -4 78.27 1.98
8 19 4 79.16 1.87
8 -19 5 0.9 0.2
-8 19 5 0.93 0.19
8 -19 5 0.92 0.19
8 19 -5 0.83 0.21
8 -19 -5 0.6 0.21
8 19 5 0.82 0.21
8 19 5 0.84 0.2
8 -19 6 27.7 0.88
8 19 -6 27.17 0.93
-8 19 6 25.93 0.84
8 -19 -6 25.49 0.97
8 19 6 27.61 0.92
8 19 6 25.56 0.87
-8 19 7 0.17 0.18
8 -19 7 0.63 0.22
8 19 -7 0.38 0.21
8 19 7 0.48 0.2
8 19 7 0.4 0.22
8 -19 -7 0.67 0.24
8 19 8 8.13 0.51
9 -19 0 11.21 0.51
9 19 0 11.49 0.51
9 -19 1 0.16 0.14
9 -19 1 0.15 0.14
9 19 -1 0.28 0.15
9 19 1 0.31 0.15
9 -19 -1 0.1 0.14
9 -19 2 23.18 0.69
9 19 -2 21.65 0.76
9 -19 2 22.63 0.75
9 -19 -2 23.17 0.81
9 19 2 21.91 0.74
9 -19 3 5.4 0.33
9 19 -3 5.7 0.4
9 -19 3 5.6 0.36
9 19 3 4.67 0.33
9 -19 -3 5.4 0.39
9 19 3 4.71 0.35
9 -19 4 0.06 0.14
9 19 -4 0.18 0.16
9 -19 4 0.28 0.16
9 19 4 0.12 0.15
9 19 4 0.25 0.16
9 -19 -4 0.14 0.17
9 19 -5 1.03 0.23
9 -19 5 0.7 0.21
-9 19 5 0.95 0.2
9 -19 5 0.65 0.19
9 -19 -5 0.86 0.23
9 19 5 1 0.22
9 19 5 1.19 0.23
9 -19 6 3.41 0.35
-9 19 6 3.97 0.33
9 19 -6 3.79 0.4
-9 19 6 3.84 0.35
9 19 6 4.5 0.4
9 -19 -6 5 0.5
9 19 6 4.3 0.4
-9 19 7 4.95 0.38
9 19 -7 4.44 0.51
-9 19 7 5.06 0.41
9 -19 -7 4.24 0.53
9 19 7 4.76 0.41
9 19 7 4.64 0.45
10 -19 0 0.19 0.14
10 19 0 -0.13 0.12
10 19 -1 0.03 0.13
10 -19 1 0.01 0.13
10 -19 -1 0.14 0.14
10 19 1 0.19 0.14
10 19 -2 45.97 1.26
10 -19 2 44.51 1.13
10 -19 2 47.03 1.26
10 19 2 44.77 1.22
10 -19 -2 43.92 1.29
10 -19 3 2.8 0.28
10 19 -3 3.05 0.33
10 -19 3 2.61 0.29
10 19 3 2.42 0.28
10 -19 -3 3.02 0.36
10 -19 4 65.08 1.66
10 -19 4 65.24 1.59
10 19 -4 66.77 1.71
10 19 4 65.91 1.65
10 -19 -4 68.05 1.78
10 19 4 64.15 1.63
10 19 -5 0.62 0.22
10 -19 5 0.46 0.19
10 -19 5 0.53 0.19
10 19 5 0.78 0.22
10 19 5 0.44 0.19
10 -19 -5 1.05 0.26
10 -19 6 32.21 1
-10 19 6 32.4 1.06
10 19 -6 30.86 1.08
10 19 6 30.78 0.98
10 -19 -6 32.07 1.14
10 19 6 31.53 1.04
-10 19 7 -0.2 0.16
-10 19 7 0.07 0.17
11 -19 0 7.12 0.45
11 19 0 7.87 0.45
11 -19 1 6.17 0.42
11 19 -1 6.21 0.4
11 -19 -1 5.7 0.41
11 19 1 6.28 0.41
11 -19 2 0.88 0.21
11 19 -2 1.13 0.23
11 19 2 0.68 0.21
11 -19 -2 1.14 0.24
11 19 -3 1.75 0.28
11 -19 3 1.74 0.24
11 -19 3 1.78 0.27
11 19 3 2.24 0.28
11 -19 -3 1.26 0.26
11 19 -4 1.7 0.29
11 -19 4 1.03 0.22
11 -19 4 1.08 0.22
11 -19 -4 1.41 0.29
11 19 4 1.05 0.22
11 19 4 0.88 0.22
11 -19 5 2.8 0.33
11 19 -5 3.01 0.38
11 -19 5 2.35 0.3
11 19 5 2.74 0.33
11 19 5 2.74 0.3
11 -19 -5 2.47 0.37
11 -19 6 0.55 0.22
11 19 6 0.55 0.24
12 -19 0 0.1 0.16
12 19 0 0.08 0.15
12 19 -1 3.52 0.35
12 -19 1 4.3 0.4
12 -19 -1 3.82 0.38
12 19 1 4.15 0.38
12 19 -2 10.09 0.54
12 -19 2 9.58 0.52
12 19 2 9.12 0.5
12 -19 -2 9.07 0.53
12 -19 3 0.25 0.19
12 19 -3 0.37 0.2
12 -19 -3 -0.06 0.17
12 19 3 0.17 0.17
12 -19 4 23.05 0.79
12 19 -4 23.64 0.9
12 -19 4 23.13 0.85
12 19 4 24.22 0.83
12 -19 -4 24.25 0.95
12 -19 5 0.85 0.23
12 -19 5 0.64 0.22
12 19 5 0.71 0.23
13 -19 0 33.8 1.11
13 19 0 35.32 1.08
13 -19 1 -0.18 0.15
13 19 -1 0.29 0.19
13 19 1 -0.2 0.14
13 -19 -1 0.02 0.18
13 -19 2 10.95 0.58
13 19 -2 10.72 0.58
13 19 2 10.56 0.54
13 -19 -2 11.16 0.61
13 -19 3 0.09 0.19
13 19 -3 -0.01 0.17
13 19 3 -0.11 0.16
14 19 0 0.09 0.18
14 19 -1 -0.17 0.18
14 19 1 0.3 0.19
0 -20 0 85.07 1.85
0 -20 0 84.16 1.83
0 20 0 88.13 1.86
0 -20 -1 0.11 0.08
0 -20 1 0.17 0.09
0 -20 -1 0.02 0.07
0 20 -1 0 0.07
0 -20 1 0.01 0.06
0 20 1 0.08 0.09
0 -20 2 1.45 0.17
0 20 2 1.63 0.19
0 20 -2 1.71 0.18
0 -20 3 0.02 0.1
0 20 -3 0 0.08
0 20 3 0 0.09
0 20 4 86.78 1.95
0 20 -4 87.39 1.91
0 -20 4 89.54 1.94
0 -20 5 -0.05 0.11
0 20 -5 0.02 0.09
0 20 5 0.13 0.13
0 -20 6 0.26 0.15
0 20 6 0.37 0.16
0 -20 7 0.1 0.14
0 20 7 0.13 0.16
0 20 8 3.83 0.36
0 -20 8 4.33 0.37
0 -20 9 -0.02 0.16
1 -20 0 -0.06 0.07
-1 20 0 0.04 0.08
1 -20 0 0.05 0.08
-1 -20 0 0 0.08
1 20 0 0.08 0.08
-1 -20 -1 20.36 0.6
1 20 -1 20.7 0.61
1 -20 1 19.69 0.58
1 -20 1 20.05 0.56
-1 20 1 20.62 0.6
1 -20 -1 19.8 0.61
-1 20 -1 20.86 0.59
1 20 1 20.65 0.62
-1 -20 1 21.22 0.61
1 -20 -1 20.46 0.58
1 20 -2 10.53 0.41
1 -20 2 9.74 0.39
-1 20 2 9.67 0.39
1 -20 -2 10.62 0.43
-1 -20 2 10.44 0.4
1 20 2 10.03 0.41
-1 20 -2 10.54 0.38
1 20 -3 72.69 1.62
1 -20 3 71.67 1.6
-1 20 3 71.62 1.62
-1 20 -3 71.53 1.58
-1 -20 3 71.35 1.61
1 20 3 71.05 1.64
1 20 -4 0.08 0.1
1 -20 4 0.14 0.11
-1 20 4 0.08 0.11
1 20 4 0.13 0.1
-1 20 -4 0.15 0.1
-1 -20 4 0.16 0.12
1 -20 5 96.91 2.16
-1 20 5 101.08 2.19
1 20 -5 97.07 2.16
-1 -20 5 98.12 2.16
1 20 5 101.04 2.2
1 20 -6 1.31 0.2
-1 20 6 1.01 0.19
1 -20 6 0.98 0.19
-1 -20 6 1.13 0.2
1 20 6 0.93 0.2
-1 20 7 50.81 1.35
1 -20 7 51.34 1.33
1 20 7 53.34 1.37
-1 -20 7 51.88 1.32
1 -20 8 3.15 0.32
-1 20 8 3.3 0.34
-1 -20 8 3.05 0.31
1 20 8 2.65 0.32
1 -20 9 1.51 0.27
-1 -20 9 1.24 0.24
-2 -20 0 0.87 0.14
-2 20 0 1.03 0.14
2 20 0 0.87 0.15
2 -20 0 1.05 0.15
2 -20 0 0.93 0.13
-2 20 1 40.24 0.98
2 -20 1 41.63 0.99
2 -20 1 39.93 0.98
2 20 -1 38.93 1.02
-2 20 -1 41.5 0.98
2 20 1 42.21 1.04
2 -20 -1 41.22 1.04
-2 -20 1 41.3 1.01
2 -20 -1 40.05 0.96
2 -20 2 3.57 0.23
-2 20 2 3.09 0.23
2 20 -2 3.11 0.26
2 -20 2 3.1 0.19
-2 20 -2 3.09 0.2
2 -20 -2 3.12 0.24
2 -20 -2 3.54 0.21
2 20 2 3.34 0.25
-2 -20 2 3.46 0.24
2 -20 3 7.27 0.34
-2 20 3 7.34 0.34
2 20 -3 6.76 0.33
2 20 3 6.94 0.35
2 -20 -3 7.07 0.37
2 20 -4 0.4 0.12
2 -20 4 0.24 0.12
-2 20 4 0.31 0.12
2 20 4 0.09 0.11
2 -20 -4 0.22 0.14
-2 -20 4 0.27 0.12
-2 20 5 1.54 0.21
2 -20 5 1.95 0.23
2 20 -5 1.72 0.22
2 20 5 1.68 0.23
-2 -20 5 1.73 0.21
2 -20 6 6.5 0.38
2 20 -6 7.24 0.39
-2 20 6 6.08 0.37
2 20 6 6.66 0.4
-2 -20 6 6.2 0.37
-2 20 7 18.61 0.68
2 -20 7 17.41 0.66
2 20 -7 18.89 0.74
-2 -20 7 17.85 0.64
2 20 7 18.43 0.68
-2 20 8 0.21 0.16
2 -20 8 0.15 0.17
2 20 8 0.36 0.19
-2 -20 8 0.26 0.16
2 -20 9 7.67 0.47
-2 -20 9 8.03 0.46
-3 20 0 0.06 0.08
-3 -20 0 0.11 0.09
3 -20 0 0.04 0.09
3 20 0 0.12 0.09
3 -20 0 -0.04 0.07
3 20 -1 7.67 0.36
3 -20 1 7.44 0.32
-3 20 1 6.94 0.31
3 -20 1 7.81 0.33
3 20 1 7.31 0.35
3 -20 -1 7.18 0.34
3 -20 -1 7.87 0.3
-3 20 -1 7.52 0.3
-3 -20 1 7.56 0.34
3 -20 2 21.4 0.61
3 -20 2 21.87 0.64
-3 20 2 21.17 0.62
3 20 -2 20.94 0.67
3 -20 -2 22.38 0.59
3 20 2 23.07 0.69
-3 -20 2 21.78 0.65
3 -20 -2 22.72 0.7
3 20 -3 54.25 1.28
3 -20 3 51.66 1.23
-3 20 3 51.29 1.23
3 20 3 50.46 1.28
3 -20 -3 53.25 1.34
-3 -20 3 50.54 1.24
-3 20 4 0.7 0.15
3 20 -4 0.56 0.15
3 -20 4 0.52 0.14
3 -20 -4 1.09 0.2
-3 -20 4 0.82 0.16
3 20 4 0.62 0.16
-3 20 5 19.41 0.65
3 -20 5 20.11 0.65
3 20 -5 19.8 0.66
3 20 5 18.36 0.66
3 -20 -5 20.73 0.76
-3 -20 5 20.21 0.64
3 -20 6 5.87 0.36
3 20 -6 5.83 0.36
-3 20 6 5.5 0.36
-3 -20 6 5.83 0.36
3 20 6 5.28 0.37
-3 20 7 8.55 0.46
3 -20 7 8.72 0.45
3 20 -7 8.72 0.47
-3 -20 7 8.32 0.43
3 20 7 8.19 0.46
-3 20 8 0.32 0.18
3 -20 8 -0.12 0.15
-3 -20 8 -0.02 0.14
3 20 8 0.04 0.16
4 -20 0 0.49 0.11
-4 20 0 0.59 0.11
4 -20 0 0.46 0.13
4 20 0 0.62 0.14
-4 20 1 127.24 2.63
4 -20 1 129.43 2.63
4 -20 1 127.06 2.73
4 20 -1 131.28 2.74
-4 -20 1 128.52 2.69
4 -20 -1 129.65 2.78
4 20 1 130.97 2.73
4 -20 -1 124.07 2.59
-4 20 2 1.53 0.17
4 -20 2 1.56 0.17
4 20 -2 1.5 0.2
4 -20 2 1.45 0.17
4 -20 -2 1.57 0.22
4 20 2 1.77 0.21
-4 -20 2 1.71 0.2
4 20 -3 43.27 1.12
4 -20 3 43.36 1.07
-4 20 3 42.81 1.06
4 -20 3 42.86 1.05
-4 -20 3 42.9 1.08
4 -20 -3 43.72 1.18
4 20 3 42.96 1.12
4 -20 4 0.06 0.11
4 20 -4 0.33 0.14
-4 20 4 0.13 0.11
4 20 4 0.27 0.14
-4 -20 4 0.3 0.13
4 -20 -4 0.18 0.14
4 20 -5 0.44 0.15
-4 20 5 0.56 0.16
4 -20 5 0.24 0.14
4 20 5 0.23 0.15
-4 -20 5 0.25 0.13
4 -20 -5 0.12 0.15
4 -20 6 17.8 0.65
4 20 -6 18.13 0.68
-4 20 6 19.04 0.66
-4 -20 6 18.37 0.64
4 20 6 18.03 0.67
-4 20 7 39.94 1.14
4 -20 7 41.87 1.14
4 20 -7 40.29 1.17
-4 -20 7 39.97 1.09
4 20 7 38.86 1.14
-4 20 8 -0.05 0.15
4 20 -8 0.02 0.15
4 -20 8 0.22 0.18
4 20 8 0.26 0.19
-4 -20 8 0.21 0.15
5 20 0 0.01 0.1
5 -20 0 0.08 0.1
5 -20 0 0.02 0.08
-5 20 1 3.29 0.21
5 -20 1 3.73 0.25
5 20 -1 3.6 0.27
5 -20 1 3.92 0.24
5 20 1 3.68 0.27
5 -20 -1 3.53 0.26
5 -20 -1 3.98 0.22
5 -20 2 2.73 0.24
-5 20 2 2.62 0.22
5 -20 2 2.53 0.22
5 20 -2 2.98 0.29
5 -20 -2 2.52 0.26
-5 -20 2 2.77 0.24
5 20 2 3.34 0.29
5 -20 3 15.65 0.53
5 20 -3 15.57 0.57
5 -20 3 15.22 0.5
-5 20 3 14.34 0.5
5 -20 -3 13.73 0.57
-5 -20 3 14.13 0.52
5 20 3 15.22 0.56
5 -20 4 0.03 0.12
5 20 -4 0.16 0.13
-5 20 4 0.03 0.12
5 -20 -4 0.18 0.14
-5 -20 4 0.05 0.11
5 20 4 0.13 0.13
-5 20 5 2.36 0.25
5 -20 5 2.28 0.25
5 20 -5 2.15 0.26
-5 -20 5 2.47 0.25
5 20 5 2.31 0.28
5 -20 -5 2.18 0.29
5 -20 6 0.23 0.16
5 20 -6 0.3 0.16
-5 20 6 0.32 0.17
-5 -20 6 0.54 0.16
5 20 6 0.73 0.19
5 -20 -6 0.3 0.18
5 -20 7 0.35 0.19
-5 20 7 0.34 0.17
5 20 -7 0.51 0.18
5 20 7 0.37 0.19
-5 -20 7 0.18 0.14
5 20 -8 7.93 0.51
5 -20 8 8.41 0.48
-5 20 8 7.72 0.48
5 20 8 8.47 0.51
5 20 -9 0.08 0.19
6 -20 0 2.52 0.21
6 -20 0 2.73 0.26
6 20 0 2.79 0.27
6 20 -1 34.07 0.96
6 -20 1 34.48 0.86
6 -20 1 32.86 0.92
6 -20 -1 34.78 0.97
6 20 1 33.74 0.95
6 20 -2 0.65 0.16
6 -20 2 0.8 0.16
6 -20 2 0.77 0.15
-6 20 2 0.71 0.13
6 20 2 0.93 0.18
6 -20 -2 0.66 0.18
6 -20 3 57.42 1.37
-6 20 3 56.45 1.33
6 20 -3 55.88 1.42
6 -20 3 55.53 1.34
-6 -20 3 57.24 1.37
6 -20 -3 58.39 1.49
6 20 3 57.3 1.41
6 20 -4 2.97 0.3
6 -20 4 2.36 0.25
-6 20 4 2.99 0.26
6 20 4 3.11 0.31
-6 -20 4 3.22 0.29
6 -20 -4 2.97 0.33
6 20 -5 4.02 0.36
6 -20 5 3.44 0.31
-6 20 5 3.92 0.33
-6 -20 5 4.13 0.31
6 20 5 3.74 0.34
6 -20 -5 3.42 0.36
6 -20 6 3.78 0.33
-6 20 6 3.27 0.31
6 20 -6 3.41 0.36
6 20 6 2.97 0.32
-6 -20 6 2.82 0.28
6 -20 -6 3.96 0.39
-6 20 7 23.95 0.82
6 -20 7 23.48 0.82
6 20 -7 24.4 0.88
6 20 7 24.35 0.84
-6 -20 7 23.52 0.77
6 -20 -7 23.87 0.94
6 20 -8 6.85 0.49
-6 20 8 7.02 0.47
6 20 8 6.15 0.44
7 -20 0 -0.1 0.1
7 20 0 0.03 0.11
7 -20 0 0.04 0.09
7 20 -1 11.22 0.49
7 -20 1 12.22 0.48
7 -20 1 11.03 0.42
7 -20 -1 11.84 0.51
7 20 1 11.68 0.49
7 20 -2 0.89 0.18
7 -20 2 1.08 0.18
7 -20 2 1.39 0.19
7 20 2 1.49 0.22
7 -20 -2 1.43 0.22
7 20 -3 6.39 0.38
7 -20 3 5.86 0.34
7 -20 3 5.69 0.33
-7 20 3 6.69 0.33
7 20 3 6.24 0.37
7 -20 -3 5.72 0.38
-7 20 4 11.63 0.47
7 20 -4 11.34 0.52
7 -20 4 11.57 0.49
7 -20 4 11.13 0.46
7 20 4 10.9 0.5
-7 -20 4 11.6 0.48
7 -20 -4 11.5 0.57
7 -20 5 28.27 0.86
-7 20 5 27.61 0.84
7 20 -5 29.3 0.93
7 20 5 28.26 0.89
7 -20 -5 27.53 0.97
-7 -20 5 27.85 0.84
-7 20 6 -0.01 0.14
7 20 -6 0.23 0.16
7 -20 6 -0.02 0.15
-7 -20 6 0.27 0.15
7 20 6 -0.04 0.16
7 -20 -6 0.16 0.19
-7 20 7 2 0.29
7 20 -7 2.14 0.32
7 -20 7 1.91 0.29
7 -20 -7 2.43 0.37
7 20 7 1.82 0.28
7 20 -8 0.15 0.21
7 20 8 0.14 0.18
8 20 0 0 0.12
8 -20 0 0.25 0.14
8 20 -1 10.2 0.47
8 -20 1 10.6 0.47
8 -20 1 9.96 0.39
8 -20 -1 9.75 0.47
8 20 1 9.29 0.46
8 20 -2 0.76 0.18
8 -20 2 1.01 0.19
8 -20 2 0.71 0.16
8 20 2 0.67 0.17
8 -20 -2 0.55 0.18
8 20 -3 9.18 0.46
8 -20 3 7.7 0.41
8 -20 3 8.1 0.4
8 20 3 7.78 0.39
8 -20 -3 7.74 0.46
8 20 3 8.45 0.43
8 -20 4 0.8 0.18
-8 20 4 0.72 0.17
8 -20 4 0.7 0.18
8 20 -4 1.11 0.21
8 -20 -4 0.97 0.23
8 20 4 0.67 0.19
8 20 4 0.82 0.19
8 -20 5 1.57 0.25
-8 20 5 1.88 0.25
8 20 -5 2.22 0.3
8 20 5 1.7 0.26
8 -20 -5 1.89 0.3
8 20 5 2.02 0.28
8 -20 6 1.29 0.24
-8 20 6 1.63 0.25
8 20 -6 1.49 0.27
8 -20 -6 1.63 0.3
8 20 6 1.3 0.25
8 20 6 1.46 0.26
8 -20 7 12.05 0.59
8 20 -7 12.69 0.65
-8 20 7 13.29 0.59
8 20 7 11.75 0.59
8 20 7 14.08 0.67
8 -20 -7 13.79 0.71
8 20 8 1.69 0.3
9 20 0 0.19 0.15
9 -20 0 0.09 0.14
9 20 -1 15.74 0.62
9 -20 1 14.29 0.59
9 20 1 14.72 0.59
9 -20 -1 15.42 0.62
9 -20 2 1.12 0.18
9 -20 2 1.13 0.21
9 20 -2 1.11 0.21
9 20 2 1.19 0.21
9 -20 -2 1.25 0.23
9 -20 3 27.48 0.86
9 20 -3 26.28 0.88
9 -20 3 27.61 0.81
9 20 3 26.45 0.86
9 -20 -3 26.63 0.92
9 20 -4 0.56 0.19
9 -20 4 0.47 0.18
9 -20 4 0.23 0.16
9 20 4 0.3 0.17
9 20 4 0.08 0.14
9 -20 -4 0.84 0.23
9 -20 5 72.81 1.78
9 20 -5 75.93 1.9
-9 20 5 74.38 1.8
9 -20 5 75.85 1.83
9 20 5 74.81 1.83
9 20 5 72.83 1.85
9 -20 -5 75.31 1.97
9 -20 6 0.09 0.17
-9 20 6 -0.12 0.15
9 20 -6 0.12 0.19
9 20 6 0.2 0.18
9 20 6 -0.07 0.16
9 -20 -6 0.2 0.2
-9 20 7 20.07 0.75
9 20 7 19.37 0.76
9 20 7 18.59 0.8
10 20 0 1.35 0.23
10 -20 0 1.66 0.26
10 -20 1 0.19 0.15
10 20 -1 -0.16 0.14
10 20 1 0 0.13
10 -20 -1 0.06 0.14
10 -20 2 7.61 0.39
10 20 -2 7.89 0.46
10 -20 2 8.26 0.46
10 20 2 8.07 0.45
10 -20 -2 7.44 0.47
10 20 -3 16.92 0.69
10 -20 3 15.98 0.6
10 -20 3 16.05 0.65
10 -20 -3 16.54 0.7
10 20 3 16.01 0.63
10 -20 4 0.33 0.18
10 -20 4 0.35 0.17
10 20 -4 0.25 0.18
10 20 4 0.32 0.17
10 -20 -4 0.45 0.2
10 20 4 0.11 0.16
10 -20 5 10.31 0.52
10 20 -5 12.17 0.61
10 -20 5 10.15 0.51
10 20 5 10.43 0.52
10 20 5 10.63 0.55
10 -20 -5 10.89 0.62
10 -20 6 1.72 0.29
10 20 6 1.95 0.3
10 -20 -6 1.42 0.33
10 20 6 1.87 0.31
-10 20 7 0.64 0.25
11 20 0 -0.08 0.14
11 -20 0 -0.24 0.13
11 20 -1 34.42 1.04
11 -20 1 33.66 1.05
11 -20 -1 33.05 1.07
11 20 1 33.78 1.03
11 20 -2 0.23 0.17
11 -20 2 0.44 0.19
11 -20 -2 0.72 0.22
11 20 2 0.3 0.17
11 -20 3 36.62 1.12
11 -20 3 38.79 1.06
11 20 -3 38.4 1.16
11 20 3 37.02 1.11
11 -20 -3 38.59 1.21
11 20 -4 0.6 0.22
11 -20 4 0.97 0.22
11 -20 4 0.22 0.18
11 20 4 0.42 0.18
11 -20 -4 0.41 0.21
11 -20 5 39.79 1.2
11 -20 5 42 1.19
11 20 -5 41.6 1.31
11 20 5 42.39 1.24
11 -20 -5 41.31 1.35
11 20 5 42.08 1.21
11 20 6 1.99 0.32
12 -20 0 17.34 0.73
12 20 0 17.47 0.7
12 20 -1 9.74 0.52
12 -20 1 8.36 0.5
12 -20 -1 9.41 0.53
12 20 1 9.14 0.5
12 -20 2 0.45 0.21
12 20 -2 0.57 0.22
12 20 2 0.47 0.2
12 -20 -2 0.44 0.21
12 20 -3 8.6 0.52
12 -20 3 8.88 0.51
12 20 3 7.63 0.47
12 -20 -3 8.18 0.55
12 20 -4 2.64 0.35
12 -20 4 2.68 0.32
12 -20 4 3.08 0.36
12 -20 -4 3.02 0.44
12 20 4 2.65 0.33
12 -20 5 1.51 0.27
12 -20 5 1.89 0.28
12 20 5 1.67 0.3
13 -20 0 0.02 0.16
13 20 0 0.05 0.17
13 20 -1 16.39 0.7
13 -20 1 16.46 0.72
13 -20 -1 16.5 0.74
13 20 1 15.01 0.67
13 -20 2 1.08 0.25
13 20 -2 0.83 0.24
13 -20 -2 1.07 0.27
13 20 2 0.75 0.21
13 -20 3 8.29 0.53
13 20 3 9.47 0.52
14 20 0 0.51 0.22
14 20 1 36.33 1.13
14 20 2 0.04 0.18
0 -21 1 -0.07 0.07
0 21 1 -0.07 0.09
0 -21 -1 0.15 0.1
0 21 -1 -0.04 0.07
0 -21 -1 -0.07 0.07
0 -21 2 17.9 0.57
0 21 -2 17.62 0.56
0 21 2 18.39 0.58
0 21 3 0.02 0.1
0 21 -3 0.05 0.09
0 -21 3 0.15 0.11
0 -21 4 79.09 1.8
0 21 -4 82.6 1.8
0 21 4 79.78 1.83
0 21 5 0.15 0.14
0 -21 5 0.51 0.15
0 21 6 112.37 2.47
0 -21 6 110.05 2.43
0 21 7 0.3 0.16
0 -21 7 -0.06 0.14
0 21 8 12.65 0.59
0 -21 8 11.87 0.54
0 -21 9 -0.13 0.15
1 -21 0 6.7 0.3
1 21 0 6.67 0.32
-1 21 0 7 0.31
1 -21 0 6.06 0.29
-1 -21 0 5.85 0.3
1 -21 1 45.86 1.08
1 -21 1 45.77 1.06
1 21 -1 45.19 1.11
-1 -21 -1 44.8 1.09
-1 21 1 45.09 1.09
1 21 1 46.49 1.12
1 -21 -1 46.47 1.07
1 -21 -1 45.41 1.12
-1 21 -1 43.1 1.07
-1 -21 1 43.48 1.08
1 -21 2 0.27 0.11
1 21 -2 0.35 0.11
-1 21 2 0.3 0.11
1 21 2 0.37 0.12
-1 21 -2 0.16 0.09
1 -21 -2 0.13 0.11
-1 -21 2 0.36 0.12
-1 21 3 1.64 0.19
1 -21 3 2.01 0.21
1 21 -3 1.34 0.19
-1 21 -3 1.63 0.18
-1 -21 3 1.57 0.19
1 21 3 1.02 0.17
1 21 -4 6.83 0.33
-1 21 4 5.46 0.33
1 -21 4 6.31 0.33
1 21 4 5.53 0.34
-1 -21 4 5.92 0.33
1 21 -5 0.24 0.13
-1 21 5 0.31 0.14
1 -21 5 0.19 0.13
-1 -21 5 0.29 0.14
1 21 5 0.19 0.14
-1 21 6 3.23 0.31
1 -21 6 3.5 0.31
-1 -21 6 2.99 0.29
1 21 6 4.33 0.37
-1 21 7 11.59 0.53
1 -21 7 10.71 0.51
-1 -21 7 11.18 0.5
1 21 7 10.83 0.54
1 -21 8 0.11 0.17
-1 21 8 -0.07 0.16
1 21 8 -0.04 0.16
-1 -21 8 0.18 0.16
1 -21 9 6.89 0.45
-1 -21 9 6.35 0.42
-2 21 0 -0.03 0.08
2 -21 0 0.27 0.1
2 21 0 0.01 0.1
2 -21 0 -0.03 0.08
-2 -21 0 0.04 0.09
-2 21 1 19.9 0.6
2 21 -1 20.72 0.64
2 -21 1 20.8 0.59
2 -21 1 19.74 0.59
-2 21 -1 20.83 0.59
2 -21 -1 20.67 0.58
2 21 1 20.48 0.63
2 -21 -1 20.39 0.63
-2 -21 1 20.24 0.62
2 -21 2 51.66 1.21
-2 21 2 50.87 1.21
2 21 -2 51.2 1.25
2 -21 -2 53.4 1.29
-2 21 -2 49.13 1.18
2 -21 -2 49.79 1.16
-2 -21 2 50.49 1.22
2 21 2 51.71 1.25
2 21 -3 0.25 0.11
2 -21 3 0.33 0.13
-2 21 3 0.37 0.13
2 -21 -3 0.39 0.14
2 21 3 0.29 0.13
-2 -21 3 0.43 0.14
2 21 -4 32.45 0.89
2 -21 4 31.22 0.86
-2 21 4 31.97 0.87
2 -21 -4 30.93 0.95
-2 -21 4 31.96 0.87
2 21 4 29.24 0.88
-2 21 5 13.61 0.52
2 21 -5 12.96 0.51
2 -21 5 12.42 0.5
-2 -21 5 13.48 0.51
2 21 5 12.25 0.52
-2 21 6 21.79 0.73
2 -21 6 21.84 0.72
2 21 -6 22.53 0.74
-2 -21 6 20.39 0.7
2 21 6 22.01 0.74
-2 21 7 3.68 0.35
2 -21 7 2.76 0.3
2 21 7 3.14 0.33
-2 -21 7 3.25 0.31
-2 21 8 7.81 0.47
2 -21 8 7.53 0.45
2 21 8 7.35 0.48
-2 -21 8 8.2 0.46
-2 -21 9 3.24 0.34
3 -21 0 109.89 2.35
-3 21 0 115.9 2.37
-3 -21 0 117.61 2.43
3 21 0 115.31 2.45
3 -21 0 112.8 2.47
3 -21 1 1.15 0.15
3 21 -1 0.63 0.14
3 -21 1 0.85 0.14
-3 21 1 1.1 0.15
3 -21 -1 0.53 0.14
-3 21 -1 1.05 0.14
3 -21 -1 0.89 0.13
-3 -21 1 0.98 0.16
3 21 1 0.88 0.16
-3 21 2 82.72 1.8
3 21 -2 81.09 1.87
3 -21 2 84.23 1.81
3 -21 2 82.51 1.8
3 -21 -2 82.57 1.75
3 21 2 82.06 1.86
-3 -21 2 81.88 1.83
3 -21 -2 83.89 1.92
3 -21 3 2.08 0.22
-3 21 3 2.2 0.22
3 21 -3 2.49 0.25
-3 -21 3 2.07 0.22
3 21 3 1.74 0.22
3 -21 -3 2.27 0.25
-3 21 4 18.38 0.6
3 21 -4 17.94 0.62
3 -21 4 18.16 0.61
3 21 4 17.22 0.62
3 -21 -4 18.34 0.68
-3 -21 4 18.86 0.61
-3 21 5 0.66 0.16
3 -21 5 1.06 0.19
3 21 -5 0.66 0.17
-3 -21 5 0.76 0.17
3 21 5 1.29 0.22
3 -21 6 20.05 0.69
3 21 -6 20.15 0.71
-3 21 6 18.51 0.68
-3 -21 6 19.67 0.67
3 21 6 20.04 0.71
-3 21 7 3.6 0.35
3 -21 7 4.22 0.36
3 21 -7 3.87 0.36
3 21 7 3.98 0.35
-3 -21 7 3.66 0.33
3 -21 8 27.78 0.91
-3 21 8 31.04 0.97
-3 -21 8 28.81 0.91
3 21 8 29.06 0.96
4 -21 0 0.1 0.1
-4 21 0 -0.12 0.07
4 21 0 0.04 0.1
4 -21 0 0 0.08
4 -21 1 12.77 0.46
-4 21 1 14.19 0.46
4 -21 1 13.87 0.48
4 21 -1 13.31 0.51
4 -21 -1 13.56 0.44
4 21 1 14.38 0.52
-4 -21 1 13.97 0.5
4 -21 -1 13.31 0.51
4 -21 2 0.54 0.12
4 21 -2 0.64 0.15
4 -21 2 0.59 0.13
-4 21 2 0.45 0.12
4 21 2 0.47 0.15
4 -21 -2 0.68 0.16
-4 -21 2 0.68 0.15
4 21 -3 5.81 0.34
4 -21 3 6.32 0.33
-4 21 3 6.01 0.32
4 -21 -3 5.16 0.36
-4 -21 3 5.91 0.33
4 21 3 6.59 0.36
-4 21 4 0.42 0.14
4 21 -4 0.4 0.14
4 -21 4 0.27 0.13
4 -21 -4 0.28 0.15
4 21 4 0.3 0.14
-4 -21 4 0.31 0.14
-4 21 5 10.46 0.47
4 -21 5 10.67 0.47
4 21 -5 10.73 0.49
4 21 5 9.82 0.48
-4 -21 5 10.17 0.45
4 -21 -5 11 0.54
-4 21 6 12.89 0.53
4 -21 6 12.21 0.52
4 21 -6 11.59 0.55
-4 -21 6 12.09 0.51
4 21 6 11.15 0.53
4 -21 7 1.62 0.25
4 21 -7 1.85 0.27
-4 21 7 1.38 0.25
4 21 7 2.31 0.3
-4 -21 7 1.83 0.25
4 -21 8 0.34 0.19
4 21 -8 -0.12 0.15
-4 21 8 0.09 0.18
4 21 8 0.08 0.18
-4 -21 8 0.09 0.16
5 -21 0 137.38 2.83
5 21 0 141.35 2.97
5 -21 0 139.22 3
-5 21 1 13.47 0.44
5 -21 1 13.28 0.46
5 -21 1 14.12 0.5
5 21 -1 13.13 0.52
5 -21 -1 13.09 0.43
5 -21 -1 13.72 0.52
5 -21 2 49.68 1.21
-5 21 2 48.72 1.16
5 21 -2 50.53 1.27
5 -21 2 49 1.18
5 -21 -2 50.48 1.31
-5 -21 2 48.47 1.22
5 21 2 49.58 1.25
-5 21 3 19.2 0.58
5 -21 3 18.04 0.6
5 -21 3 18.38 0.57
5 21 -3 16.77 0.62
5 21 3 18.28 0.64
-5 -21 3 16.91 0.6
5 -21 -3 17.78 0.66
5 21 -4 3.59 0.33
5 -21 4 2.99 0.28
-5 21 4 3.58 0.29
5 21 4 2.28 0.26
5 -21 -4 3.7 0.36
-5 -21 4 3.77 0.31
-5 21 5 2.97 0.28
5 -21 5 2.55 0.27
5 21 -5 2.74 0.3
5 21 5 2.32 0.27
-5 -21 5 3.22 0.3
5 -21 -5 2.31 0.3
5 -21 6 16.12 0.61
-5 21 6 14.11 0.59
5 21 -6 16.18 0.65
-5 -21 6 14.56 0.57
5 -21 -6 15.78 0.71
5 21 6 14.97 0.62
5 -21 7 0.62 0.2
-5 21 7 0.33 0.18
5 21 -7 0.6 0.2
-5 -21 7 0.39 0.17
5 21 7 0.39 0.18
5 21 -8 20.69 0.83
-5 21 8 20.24 0.78
5 -21 8 20.99 0.8
5 21 8 20.95 0.8
6 -21 0 0.11 0.09
6 21 0 -0.13 0.1
6 -21 0 -0.02 0.11
6 -21 1 24.68 0.74
6 -21 1 25.31 0.69
6 21 -1 20.97 0.74
6 21 1 25.7 0.78
6 -21 -1 24.63 0.78
6 -21 2 3.21 0.26
6 -21 2 2.98 0.26
-6 21 2 3.05 0.22
6 21 -2 3.44 0.3
6 21 2 2.77 0.27
6 -21 -2 3.27 0.31
-6 21 3 -0.06 0.1
6 -21 3 0.02 0.12
6 -21 3 0.19 0.12
6 21 -3 0.03 0.12
-6 -21 3 0.15 0.13
6 -21 -3 -0.04 0.13
6 21 3 0.2 0.13
6 21 -4 2.9 0.3
-6 21 4 2.89 0.27
6 -21 4 3.01 0.28
-6 -21 4 2.81 0.28
6 -21 -4 2.58 0.31
6 21 4 2.92 0.3
-6 21 5 24.11 0.77
6 -21 5 25.07 0.79
6 21 -5 24.9 0.84
6 21 5 25.72 0.84
6 -21 -5 25.31 0.9
-6 -21 5 24.97 0.78
6 21 -6 3.38 0.37
6 -21 6 2.76 0.3
-6 21 6 3.27 0.32
6 -21 -6 2.89 0.36
6 21 6 2.73 0.31
-6 -21 6 3.03 0.3
-6 21 7 0.34 0.18
6 -21 7 -0.06 0.16
6 21 -7 0.29 0.18
-6 -21 7 0.27 0.16
6 21 7 0.44 0.2
6 21 -8 0.25 0.19
6 21 8 0.45 0.22
7 21 0 21.78 0.72
7 -21 0 20.71 0.7
7 -21 1 10.98 0.48
7 21 -1 11.3 0.5
7 -21 1 11.11 0.42
7 -21 -1 11.6 0.51
7 21 1 11.51 0.5
7 -21 2 12.36 0.5
7 21 -2 12.35 0.54
7 -21 2 12.19 0.47
7 21 2 13.07 0.53
7 -21 -2 12.49 0.55
7 -21 3 2.55 0.26
-7 21 3 2.42 0.24
7 -21 3 2.41 0.24
7 21 -3 1.93 0.26
7 -21 -3 2.27 0.29
7 21 3 2 0.25
7 21 -4 4.1 0.37
-7 21 4 3.71 0.28
7 -21 4 4.35 0.32
7 21 4 4.62 0.38
7 -21 -4 3.42 0.36
-7 -21 4 3.95 0.32
-7 21 5 2.73 0.28
7 21 -5 2.39 0.3
7 -21 5 2.52 0.29
7 -21 -5 1.95 0.3
7 21 5 2.18 0.29
-7 -21 5 2.56 0.27
7 -21 6 19.07 0.71
7 21 -6 19.18 0.77
-7 21 6 18.67 0.68
-7 -21 6 18.28 0.66
7 -21 -6 19.4 0.81
7 21 6 19.65 0.73
-7 21 7 0.24 0.18
7 21 -7 0.36 0.19
7 -21 7 0.43 0.21
7 21 7 -0.12 0.18
7 -21 -7 0.17 0.22
7 21 8 27.9 1.06
8 21 0 -0.07 0.12
8 -21 0 0.03 0.12
8 21 -1 4.76 0.35
8 -21 1 5.29 0.3
8 -21 1 4.95 0.34
8 -21 -1 5.01 0.35
8 21 1 5 0.35
8 -21 2 20.71 0.71
8 -21 2 21.37 0.66
8 21 -2 21.75 0.75
8 21 2 20.7 0.73
8 -21 -2 21.71 0.77
8 -21 3 0.16 0.13
8 -21 3 -0.2 0.11
8 21 -3 0.12 0.14
8 21 3 0.06 0.13
8 -21 -3 -0.01 0.14
8 21 3 0.1 0.15
8 -21 4 22.51 0.74
8 -21 4 22.78 0.74
8 21 -4 23.15 0.82
8 21 4 23.39 0.8
8 -21 -4 23.87 0.87
8 21 4 22.47 0.77
8 -21 5 1.39 0.24
-8 21 5 1.7 0.24
8 21 -5 1.89 0.28
8 -21 -5 1.24 0.26
8 21 5 1.64 0.26
8 21 5 1.66 0.26
8 21 -6 15.45 0.7
-8 21 6 16.74 0.65
8 -21 6 14.36 0.63
8 -21 -6 17.28 0.77
8 21 6 17.14 0.7
-8 -21 6 15.07 0.61
8 21 6 16.05 0.66
8 21 -7 2.76 0.37
-8 21 7 3 0.35
8 21 7 3.54 0.37
8 21 7 2.82 0.36
9 21 0 22.38 0.78
9 -21 0 23.12 0.78
9 21 -1 20.8 0.75
9 -21 1 21.74 0.75
9 -21 -1 21.34 0.77
9 21 1 21.37 0.75
9 -21 2 14.63 0.53
9 21 -2 14.91 0.62
9 -21 2 13.68 0.58
9 -21 -2 14.23 0.63
9 21 2 15.23 0.6
9 21 -3 10.41 0.53
9 -21 3 11.24 0.51
9 -21 3 10.13 0.47
9 21 3 11.24 0.53
9 -21 -3 11.31 0.57
9 -21 4 5.75 0.38
9 21 -4 6.2 0.44
9 -21 4 5.64 0.39
9 -21 -4 5.68 0.49
9 21 4 6.02 0.4
9 21 4 6.13 0.39
9 -21 5 0.19 0.18
9 21 -5 0.57 0.2
9 -21 -5 0.44 0.2
9 21 5 0.14 0.18
9 21 5 0.52 0.19
-9 21 6 0.33 0.18
9 21 -6 0.77 0.23
9 -21 6 0.32 0.19
9 -21 -6 0.15 0.21
9 21 6 0.22 0.19
9 21 6 0.17 0.17
-9 21 7 3.52 0.37
9 21 7 3.9 0.39
10 -21 0 -0.02 0.14
10 21 0 0.06 0.15
10 21 -1 14.8 0.63
10 -21 1 15.85 0.64
10 21 1 16.02 0.64
10 -21 -1 15.19 0.66
10 21 -2 33.04 1.03
10 -21 2 34.85 1.02
10 -21 -2 32.89 1.06
10 21 2 31.07 0.99
10 21 -3 0.25 0.17
10 -21 3 -0.13 0.13
10 -21 3 0.01 0.14
10 -21 -3 0.26 0.18
10 21 3 0.09 0.16
10 -21 4 42.69 1.24
10 -21 4 45.22 1.2
10 21 -4 43.45 1.31
10 21 4 46.38 1.27
10 -21 -4 46.34 1.38
10 -21 5 0.26 0.19
10 21 -5 0.15 0.18
10 21 5 0.12 0.18
10 21 5 0.28 0.17
10 -21 -5 -0.02 0.18
10 21 6 39.06 1.21
10 21 6 39.1 1.17
11 21 0 1.72 0.27
11 -21 0 1.61 0.27
11 21 -1 1.94 0.28
11 -21 1 1.55 0.27
11 21 1 1.92 0.27
11 -21 -1 1.86 0.29
11 -21 2 0.39 0.18
11 21 -2 0.33 0.2
11 21 2 0.15 0.17
11 -21 -2 0.6 0.22
11 21 -3 1.4 0.27
11 -21 3 1.05 0.22
11 -21 3 1.7 0.26
11 21 3 1.03 0.22
11 -21 -3 1.43 0.27
11 -21 4 0.26 0.18
11 -21 4 0.23 0.18
11 21 -4 0.47 0.22
11 21 4 0.44 0.19
11 -21 -4 0.21 0.19
11 -21 5 1.7 0.28
11 -21 5 1.98 0.28
11 21 5 1.72 0.28
11 21 5 1.86 0.3
12 -21 0 0.11 0.18
12 21 0 0.02 0.16
12 21 -1 2.48 0.31
12 -21 1 1.81 0.29
12 21 1 1.44 0.26
12 -21 -1 1.56 0.28
12 21 -2 17.41 0.73
12 -21 2 16.72 0.7
12 -21 -2 17.07 0.75
12 21 2 16.45 0.69
12 -21 3 7.7 0.49
12 21 -3 7.08 0.49
12 -21 -3 7.14 0.51
12 21 3 7.21 0.46
12 -21 4 15.29 0.68
12 -21 4 15.68 0.64
12 21 4 15.58 0.67
12 -21 5 1.87 0.31
13 -21 0 28.12 1
13 21 0 28.34 0.97
13 21 -1 3.91 0.41
13 -21 1 3.9 0.41
13 21 1 4.15 0.41
13 -21 -1 3.8 0.41
13 -21 2 10.56 0.58
13 21 -2 11.28 0.61
13 21 2 9.68 0.55
13 21 3 2.8 0.34
0 -22 0 135.21 2.84
0 -22 0 135.86 2.79
0 22 0 135.79 2.82
0 22 1 0 0.09
0 -22 -1 0.05 0.09
0 22 -1 0.02 0.09
0 -22 1 0.14 0.1
0 22 -2 0.31 0.11
0 -22 2 0.24 0.11
0 22 2 0.1 0.11
0 22 -3 -0.04 0.09
0 -22 3 -0.04 0.1
0 22 3 0.07 0.11
0 22 4 59.97 1.46
0 -22 4 61.22 1.45
0 22 -4 61.74 1.44
0 -22 5 0.06 0.12
0 22 5 -0.12 0.13
0 22 6 13.28 0.56
0 -22 6 12.35 0.53
0 -22 7 0.12 0.15
0 22 7 -0.23 0.15
0 22 8 0.72 0.23
0 -22 8 0.21 0.17
1 -22 0 0.06 0.09
1 22 0 0.03 0.09
1 -22 0 0.05 0.08
-1 22 0 0 0.09
-1 -22 0 0.02 0.09
-1 22 1 12.29 0.47
-1 -22 -1 12.84 0.47
1 22 -1 13.14 0.48
1 -22 1 13.01 0.46
-1 22 -1 13.52 0.46
-1 -22 1 14.53 0.49
1 22 1 13.81 0.49
1 -22 -1 13.78 0.46
1 -22 -1 13.72 0.48
1 22 -2 5.32 0.3
1 -22 2 4.68 0.28
-1 22 2 5.3 0.3
1 22 2 5.36 0.31
-1 -22 2 5.14 0.29
-1 22 -2 5.1 0.28
1 -22 -2 5 0.31
1 22 -3 76.08 1.74
1 -22 3 76.87 1.72
-1 22 3 77.47 1.74
1 22 3 76.7 1.76
-1 22 -3 73.97 1.69
-1 -22 3 77.05 1.72
1 22 -4 2.01 0.23
-1 22 4 2.07 0.24
1 -22 4 2.3 0.25
-1 -22 4 1.44 0.21
1 22 4 1.86 0.23
1 22 -5 27.9 0.82
1 -22 5 28.17 0.83
-1 22 5 27.78 0.84
-1 -22 5 28.13 0.83
1 22 5 27.05 0.84
1 -22 6 0.33 0.15
-1 22 6 0.06 0.15
-1 -22 6 -0.02 0.13
1 22 6 0.22 0.16
1 -22 7 21.5 0.76
-1 22 7 21.76 0.77
1 22 7 22.52 0.8
-1 -22 7 22.81 0.76
1 -22 8 3.61 0.36
-1 22 8 2.44 0.31
-1 -22 8 2.55 0.31
1 22 8 2.64 0.33
2 22 0 39.57 1.01
-2 -22 0 39.32 0.99
2 -22 0 38.41 0.95
-2 22 0 39.78 0.96
2 -22 0 36.45 0.97
-2 22 1 0.91 0.15
2 -22 1 1.35 0.17
2 -22 1 1.21 0.16
2 22 -1 1.09 0.17
2 -22 -1 1.17 0.15
-2 -22 1 1.06 0.16
2 22 1 0.89 0.16
-2 22 -1 1.23 0.16
2 -22 -1 1.3 0.18
-2 22 2 2.25 0.22
2 -22 2 2.51 0.23
2 22 -2 1.98 0.22
2 22 2 2.51 0.26
2 -22 -2 1.94 0.22
2 -22 -2 2.18 0.2
-2 -22 2 1.67 0.19
-2 22 -2 2.41 0.21
2 -22 3 11.7 0.45
-2 22 3 9.24 0.41
2 22 -3 11.46 0.46
2 22 3 10.33 0.45
2 -22 -3 10.23 0.47
-2 -22 3 9.88 0.42
2 22 -4 30.36 0.87
-2 22 4 29.97 0.85
2 -22 4 27.87 0.83
-2 -22 4 29.49 0.84
2 22 4 30.61 0.89
2 -22 5 3.54 0.3
2 22 -5 3.57 0.32
-2 22 5 4.13 0.34
2 22 5 4.29 0.33
-2 -22 5 4.09 0.34
2 -22 6 14.66 0.59
-2 22 6 14.77 0.59
2 22 -6 13.63 0.57
2 22 6 14.95 0.6
-2 -22 6 15.66 0.59
2 -22 7 10.57 0.51
-2 22 7 9.75 0.5
2 22 7 10.89 0.53
-2 -22 7 10.38 0.5
-2 22 8 2.35 0.32
2 -22 8 2.13 0.29
2 22 8 2.82 0.34
-2 -22 8 2.57 0.3
-2 -22 9 6.56 0.45
3 22 0 0.06 0.1
3 -22 0 0.03 0.1
-3 -22 0 0.19 0.11
3 -22 0 -0.06 0.07
-3 22 0 -0.07 0.08
3 -22 1 3.32 0.23
3 -22 1 3.98 0.25
3 22 -1 3.83 0.27
-3 22 1 3.12 0.23
3 -22 -1 3.61 0.22
-3 22 -1 3.53 0.22
3 22 1 3.67 0.27
3 -22 -1 3.24 0.27
-3 -22 1 3.87 0.26
3 22 -2 25.62 0.78
-3 22 2 24.54 0.72
3 -22 2 26.29 0.74
-3 -22 2 26.3 0.76
3 -22 -2 26.48 0.7
3 -22 -2 27.94 0.82
3 22 2 26.17 0.78
3 -22 3 2.53 0.25
-3 22 3 2.4 0.23
3 22 -3 2.09 0.23
-3 -22 3 2.22 0.24
3 -22 -3 2.34 0.26
3 22 3 1.67 0.22
3 -22 4 3.38 0.29
-3 22 4 3.88 0.28
3 22 -4 3.02 0.29
3 22 4 3.83 0.33
3 -22 -4 2.86 0.3
-3 -22 4 3.25 0.28
3 22 -5 9.7 0.46
-3 22 5 9.02 0.44
3 -22 5 9.17 0.44
-3 -22 5 9.51 0.44
3 22 5 7.85 0.44
3 22 -6 16.93 0.65
-3 22 6 16.23 0.63
3 -22 6 16.28 0.62
3 22 6 17.32 0.66
-3 -22 6 15.99 0.61
-3 22 7 13.66 0.59
3 -22 7 12.4 0.56
3 22 -7 13.6 0.6
-3 -22 7 12.99 0.56
3 22 7 14.3 0.61
-3 22 8 5.03 0.44
3 -22 8 4.3 0.4
3 22 8 4.65 0.41
-3 -22 8 5.11 0.38
-3 -22 9 0.88 0.23
4 -22 0 7.66 0.33
4 -22 0 7.99 0.38
-4 22 0 8.34 0.33
4 22 0 8.33 0.4
-4 22 1 135.69 2.8
4 -22 1 132.67 2.78
4 -22 1 135.41 2.89
4 22 -1 134.06 2.89
4 -22 -1 136.1 2.75
4 -22 -1 136.22 2.94
4 22 1 137.96 2.89
-4 -22 1 136.12 2.84
4 22 -2 3.01 0.28
-4 22 2 3.31 0.23
4 -22 2 3.52 0.25
4 -22 2 3.24 0.23
4 -22 -2 3.21 0.3
4 22 2 3.5 0.3
-4 -22 2 2.92 0.26
-4 22 3 42.05 1.08
4 22 -3 43.83 1.16
4 -22 3 42.66 1.1
-4 -22 3 44.21 1.12
4 -22 -3 41.77 1.19
4 22 3 45.91 1.16
4 -22 4 2.58 0.26
-4 22 4 2.77 0.26
4 22 -4 1.88 0.24
-4 -22 4 2.68 0.26
4 22 4 2.66 0.29
4 -22 -4 2.46 0.3
-4 22 5 6.34 0.37
4 -22 5 5.45 0.36
4 22 -5 6.21 0.38
-4 -22 5 5.87 0.35
4 22 5 5.74 0.38
4 -22 -5 6.2 0.42
-4 22 6 14.93 0.6
4 -22 6 15.29 0.61
4 22 -6 15.08 0.63
-4 -22 6 15.94 0.6
4 22 6 15.99 0.64
4 22 -7 17.95 0.72
-4 22 7 18.44 0.71
4 -22 7 18.98 0.7
4 22 7 18.62 0.73
-4 -22 7 18.43 0.67
-4 22 8 0.38 0.19
4 -22 8 0.3 0.2
4 22 -8 -0.02 0.15
4 22 8 0.08 0.18
-4 -22 8 0.07 0.15
5 -22 0 -0.04 0.09
5 22 0 -0.05 0.1
5 -22 0 -0.07 0.11
5 -22 1 3.32 0.26
-5 22 1 2.97 0.22
5 22 -1 3.33 0.31
5 -22 1 3.22 0.24
5 -22 -1 3.2 0.21
5 -22 -1 3.39 0.3
5 22 1 3.69 0.28
5 22 -2 49.89 1.31
-5 22 2 48.9 1.2
5 -22 2 52.91 1.24
5 -22 2 52.52 1.26
5 -22 -2 53.17 1.35
-5 -22 2 49.29 1.26
5 22 2 52.43 1.31
5 22 -3 20.49 0.69
-5 22 3 18.76 0.61
5 -22 3 19.05 0.63
5 -22 -3 19.6 0.71
-5 -22 3 19.22 0.64
5 22 3 18.39 0.66
5 -22 4 40.84 1.09
5 22 -4 41.77 1.15
-5 22 4 42.77 1.08
5 -22 -4 41.21 1.2
5 22 4 39.08 1.12
-5 -22 4 40.81 1.09
5 22 -5 0.08 0.14
5 -22 5 0.2 0.15
-5 22 5 0.2 0.14
5 -22 -5 0.21 0.16
-5 -22 5 -0.02 0.12
5 22 5 0.27 0.16
5 22 -6 30.93 0.98
5 -22 6 30.12 0.92
-5 22 6 29.56 0.91
5 22 6 29.13 0.95
-5 -22 6 28.93 0.89
5 -22 -6 32.14 1.06
-5 22 7 0.05 0.16
5 22 -7 0.18 0.17
5 -22 7 -0.08 0.15
5 22 7 0.07 0.17
-5 -22 7 -0.12 0.13
5 22 -8 2.06 0.33
5 22 8 2.03 0.32
6 -22 0 0.57 0.13
6 -22 0 0.53 0.15
6 22 0 0.23 0.13
6 -22 1 28.05 0.77
6 22 -1 27.8 0.86
6 -22 1 29.54 0.84
6 22 1 27.69 0.85
6 -22 -1 27.56 0.86
6 22 -2 0.55 0.16
6 -22 2 0.46 0.14
6 -22 2 0.56 0.15
6 22 2 0.18 0.15
6 -22 -2 0.31 0.15
6 22 -3 9.18 0.46
6 -22 3 9.12 0.41
-6 22 3 9.27 0.4
6 -22 3 9.51 0.42
6 -22 -3 10.06 0.5
-6 -22 3 9.39 0.44
6 22 3 8.81 0.45
-6 22 4 5.8 0.34
6 22 -4 6.13 0.39
6 -22 4 6.11 0.36
6 22 4 5.4 0.37
6 -22 -4 6.02 0.42
-6 -22 4 4.8 0.33
6 22 -5 1.24 0.23
6 -22 5 1.15 0.21
-6 22 5 1.05 0.2
6 -22 -5 1.09 0.26
-6 -22 5 1.33 0.22
6 22 5 1.25 0.24
-6 22 6 0.18 0.16
6 -22 6 0.25 0.17
6 22 -6 -0.12 0.14
6 -22 -6 0.01 0.18
6 22 6 -0.15 0.15
-6 -22 6 0.06 0.15
6 22 -7 15.97 0.71
6 -22 7 16.43 0.68
-6 22 7 16.76 0.67
-6 -22 7 16.74 0.64
6 22 7 16.69 0.7
6 22 -8 2.89 0.38
7 22 0 0.06 0.13
7 -22 0 0.08 0.13
7 -22 1 6.26 0.36
7 -22 1 6.19 0.32
7 22 -1 6.09 0.38
7 -22 -1 6.32 0.39
7 22 1 5.84 0.37
7 -22 2 27.45 0.82
7 -22 2 26.14 0.77
7 22 -2 26.86 0.87
7 22 2 27.59 0.85
7 -22 -2 27.94 0.9
7 -22 3 7.58 0.38
7 22 -3 7.2 0.42
7 -22 3 6.5 0.36
7 -22 -3 7.27 0.45
7 22 3 6.67 0.4
7 22 -4 16.78 0.68
-7 22 4 17.58 0.61
7 -22 4 17.33 0.63
-7 -22 4 17.69 0.64
7 -22 -4 17.57 0.73
7 22 4 18.43 0.67
-7 22 5 0.55 0.18
7 22 -5 0.65 0.2
7 -22 5 0.13 0.16
-7 -22 5 0.47 0.17
7 -22 -5 0.48 0.22
7 22 5 0.28 0.19
-7 22 6 11.26 0.53
7 22 -6 11.66 0.6
7 -22 6 10.76 0.53
-7 -22 6 11.23 0.52
7 22 6 10.8 0.55
7 -22 -6 10.71 0.6
-7 22 7 2.51 0.31
7 22 -7 2.47 0.34
7 -22 7 2.89 0.35
7 -22 -7 2.77 0.4
7 22 7 2.26 0.33
8 -22 0 18.02 0.67
8 22 0 17.51 0.67
8 -22 1 14.55 0.58
8 -22 1 13.81 0.5
8 22 -1 13.88 0.59
8 -22 -1 13.67 0.59
8 22 1 14.49 0.59
8 -22 2 11.61 0.5
8 -22 2 10.83 0.46
8 22 -2 11.53 0.53
8 -22 -2 11.76 0.55
8 22 2 12.02 0.53
8 22 -3 0.02 0.13
8 -22 3 0.08 0.13
8 -22 3 0.39 0.15
8 22 3 -0.09 0.12
8 -22 -3 0.25 0.17
8 -22 4 5.29 0.36
8 22 -4 5.53 0.45
8 -22 -4 5.81 0.43
8 22 4 6.09 0.4
8 22 4 5.84 0.38
-8 22 5 0.76 0.19
8 22 -5 0.76 0.22
8 -22 5 0.55 0.2
8 22 5 0.57 0.2
8 -22 -5 0.76 0.24
8 22 5 0.6 0.2
8 22 -6 8.2 0.52
8 -22 6 10.53 0.52
-8 22 6 9 0.48
-8 -22 6 9.4 0.48
8 22 6 8.37 0.51
8 -22 -6 9.43 0.59
8 22 6 8.71 0.5
-8 22 7 0.22 0.18
8 22 7 0.08 0.19
8 22 7 0.49 0.24
9 22 0 -0.16 0.13
9 -22 0 -0.23 0.12
9 22 -1 17.67 0.68
9 -22 1 17.2 0.66
9 22 1 16.57 0.66
9 -22 -1 16.55 0.68
9 -22 2 7.39 0.43
9 22 -2 8.41 0.47
9 -22 2 8.32 0.41
9 22 2 8.15 0.47
9 -22 -2 8.66 0.5
9 -22 3 20.01 0.68
9 -22 3 21.91 0.74
9 22 -3 20.09 0.78
9 -22 -3 20.37 0.81
9 22 3 21.41 0.76
9 -22 4 4.03 0.35
9 -22 4 4.34 0.35
9 22 -4 3.93 0.39
9 22 4 4.34 0.37
9 -22 -4 4.51 0.43
9 -22 5 44.09 1.23
9 22 -5 44.83 1.34
9 22 5 46.1 1.28
9 -22 -5 45.21 1.39
9 22 5 45.53 1.29
9 22 -6 6.04 0.51
-9 22 6 4.9 0.4
9 -22 6 5.6 0.42
9 22 6 5.54 0.47
9 22 6 4.94 0.42
10 -22 0 24.92 0.86
10 22 0 24.64 0.85
10 22 -1 3.34 0.35
10 -22 1 3.07 0.33
10 22 1 3.47 0.34
10 -22 -1 3.53 0.37
10 22 -2 22.83 0.84
10 -22 2 23.91 0.83
10 -22 -2 23.04 0.86
10 22 2 24.28 0.83
10 -22 3 1.22 0.22
10 -22 3 0.95 0.22
10 22 -3 0.9 0.23
10 22 3 0.9 0.22
10 -22 -3 0.91 0.24
10 22 -4 3.23 0.37
10 -22 4 3.75 0.34
10 -22 4 2.96 0.33
10 -22 -4 2.67 0.37
10 22 4 3.01 0.34
10 22 -5 0.09 0.19
10 -22 5 -0.25 0.17
10 -22 -5 -0.04 0.18
10 22 5 -0.2 0.16
10 22 5 0.38 0.18
10 22 6 3.11 0.37
10 22 6 3.51 0.4
11 22 0 0 0.16
11 -22 0 0.12 0.16
11 -22 1 15.1 0.65
11 22 -1 13.49 0.63
11 -22 -1 14.81 0.66
11 22 1 13.6 0.63
11 -22 2 0.53 0.2
11 22 -2 0.12 0.18
11 -22 -2 0.43 0.2
11 22 2 0.23 0.18
11 22 -3 23.1 0.88
11 -22 3 25.3 0.87
11 22 3 24.24 0.85
11 -22 -3 23.47 0.92
11 -22 4 1.91 0.29
11 22 -4 1.7 0.29
11 -22 4 1.81 0.26
11 22 4 1.45 0.26
11 -22 -4 1.82 0.32
11 -22 5 20.46 0.77
11 22 5 21.12 0.8
12 -22 0 21.5 0.84
12 22 0 21.71 0.82
12 -22 1 5.36 0.42
12 22 -1 4.77 0.44
12 -22 -1 4.66 0.44
12 22 1 4.7 0.43
12 22 -2 1.84 0.3
12 -22 2 1.97 0.31
12 22 2 1.43 0.26
12 -22 -2 1.69 0.31
12 -22 3 9.58 0.55
12 22 3 8.89 0.51
12 -22 4 4.41 0.41
12 -22 4 4.97 0.38
12 22 4 4.86 0.43
13 22 0 0.24 0.19
13 22 -1 0.48 0.25
13 22 1 0.45 0.21
13 22 2 0.68 0.22
13 22 3 7.16 0.48
0 23 1 0.03 0.1
0 -23 1 0.05 0.09
0 -23 -1 -0.02 0.08
0 23 -1 -0.07 0.08
0 23 -2 0.1 0.1
0 23 2 0.22 0.13
0 -23 2 0.29 0.12
0 23 3 0.09 0.12
0 23 -3 0.15 0.11
0 -23 3 0.09 0.12
0 -23 4 34.99 0.96
0 23 -4 34.04 0.93
0 23 4 35.09 0.98
0 -23 5 0.05 0.12
0 23 5 -0.21 0.11
0 -23 6 23.43 0.78
0 23 6 25.59 0.82
0 23 7 -0.01 0.15
0 -23 7 0.02 0.16
0 -23 8 11.17 0.55
0 23 8 12.23 0.61
1 -23 0 15.52 0.52
1 -23 0 16.01 0.52
-1 23 0 16.74 0.53
1 23 0 15.79 0.54
-1 -23 0 16.2 0.54
1 23 -1 35.55 0.93
1 -23 1 34.27 0.9
-1 -23 -1 35.18 0.92
-1 23 1 34.01 0.91
-1 -23 1 35.42 0.92
-1 23 -1 33.56 0.89
1 -23 -1 34.85 0.89
1 -23 -1 34.43 0.92
1 23 1 34.27 0.93
1 -23 2 17.95 0.6
-1 23 2 19.84 0.63
1 23 -2 18.68 0.63
1 -23 -2 20.16 0.65
1 23 2 19.34 0.64
-1 23 -2 18.83 0.6
-1 -23 2 20.06 0.62
-1 23 3 45.45 1.15
1 23 -3 45.37 1.16
1 -23 3 45.89 1.14
-1 23 -3 43.35 1.12
1 23 3 44.08 1.16
-1 -23 3 46.47 1.14
1 23 -4 10.46 0.45
1 -23 4 10.73 0.45
-1 23 4 10.19 0.45
1 23 4 10.34 0.47
-1 -23 4 9.78 0.44
-1 23 5 1.83 0.25
1 23 -5 1.68 0.22
1 -23 5 1.94 0.25
-1 -23 5 1.82 0.24
1 23 5 1.24 0.23
-1 23 6 1.61 0.25
1 -23 6 1.68 0.24
1 23 6 1.37 0.25
-1 -23 6 1.67 0.24
-1 23 7 33.48 1.02
1 -23 7 33.17 0.99
1 23 7 33.01 1.02
-1 -23 7 31.45 0.97
1 -23 8 -0.21 0.14
-1 23 8 0.14 0.18
1 23 8 0.02 0.17
-1 -23 8 0.05 0.16
2 -23 0 0.07 0.1
2 23 0 0.07 0.1
-2 -23 0 0.29 0.12
-2 23 0 0.07 0.09
2 -23 0 0.07 0.08
-2 23 1 21.74 0.64
2 -23 1 21.52 0.64
2 23 -1 21.38 0.67
-2 -23 1 21.16 0.65
2 23 1 20.6 0.66
2 -23 -1 20.65 0.61
-2 23 -1 21.45 0.62
2 -23 -1 20.82 0.66
2 -23 2 8.86 0.39
-2 23 2 9.19 0.41
2 23 -2 9.76 0.43
2 -23 -2 10.1 0.38
-2 -23 2 8.99 0.4
2 23 2 9.48 0.43
2 -23 -2 9.44 0.43
-2 23 3 8.4 0.39
2 -23 3 7.95 0.38
2 23 -3 7.75 0.39
2 23 3 7.29 0.39
-2 -23 3 7.73 0.37
2 -23 -3 7.71 0.41
2 23 -4 21.86 0.72
-2 23 4 21.39 0.7
2 -23 4 22.81 0.71
-2 -23 4 22.53 0.71
2 23 4 21.5 0.73
-2 23 5 15.42 0.59
2 23 -5 14.84 0.58
2 -23 5 16.09 0.59
2 23 5 15.38 0.61
-2 -23 5 14.73 0.57
-2 23 6 1.76 0.25
2 -23 6 1.85 0.25
2 23 -6 2.26 0.27
-2 -23 6 2.1 0.27
2 23 6 2.31 0.29
2 -23 7 3.14 0.32
-2 23 7 2.66 0.32
-2 -23 7 3.39 0.34
2 23 7 2.99 0.33
-2 23 8 0.11 0.18
2 -23 8 0.1 0.19
2 23 8 0.36 0.21
-2 -23 8 -0.07 0.16
-3 -23 0 12.6 0.5
3 -23 0 14 0.47
-3 23 0 13.5 0.46
3 -23 0 13.64 0.5
3 23 0 14.04 0.52
-3 23 1 26.37 0.73
3 -23 1 25.47 0.73
3 23 -1 26.19 0.79
3 -23 1 25.7 0.73
3 23 1 26.97 0.79
-3 -23 1 25.32 0.76
3 -23 -1 26.38 0.78
3 -23 -1 26.41 0.71
3 23 -2 16.17 0.59
3 -23 2 16.32 0.55
-3 23 2 15.83 0.55
-3 -23 2 15.91 0.56
3 -23 -2 16.84 0.6
3 -23 -2 17.05 0.52
3 23 2 15.67 0.58
-3 23 3 13.68 0.5
3 -23 3 13.35 0.5
3 23 -3 12.72 0.52
3 23 3 12.95 0.53
3 -23 -3 12.36 0.54
-3 -23 3 12.6 0.5
-3 23 4 1.9 0.23
3 23 -4 1.9 0.25
3 -23 4 2.39 0.25
3 -23 -4 1.37 0.24
3 23 4 2.01 0.25
-3 -23 4 1.66 0.22
3 -23 5 2.55 0.28
-3 23 5 2.91 0.29
3 23 -5 2.41 0.28
3 23 5 2.16 0.27
-3 -23 5 3.16 0.3
3 -23 6 1.95 0.26
3 23 -6 1.43 0.23
-3 23 6 1.46 0.24
-3 -23 6 1.34 0.22
3 23 6 1.31 0.24
-3 23 7 17.35 0.69
3 -23 7 18.35 0.69
3 23 7 17.76 0.7
-3 -23 7 16.28 0.64
3 -23 8 5.45 0.42
-3 23 8 5.05 0.49
-3 -23 8 4.97 0.41
3 23 8 5.42 0.46
4 -23 0 -0.04 0.1
4 23 0 0.22 0.13
4 -23 0 -0.01 0.09
4 -23 1 35.32 0.92
-4 23 1 35.1 0.91
4 23 -1 36.42 1
4 -23 1 35.68 0.95
4 -23 -1 36.2 1
-4 -23 1 34.67 0.96
4 23 1 37.9 1.01
4 -23 -1 34.77 0.88
4 23 -2 11.23 0.49
-4 23 2 11.01 0.43
4 -23 2 11.2 0.44
4 -23 -2 11.49 0.5
-4 -23 2 10.71 0.46
4 23 2 10.97 0.48
-4 23 3 22.66 0.69
4 -23 3 22.1 0.69
4 23 -3 20.84 0.72
4 -23 -3 22.59 0.77
4 23 3 22.07 0.73
-4 -23 3 23.26 0.72
4 -23 4 4.73 0.33
-4 23 4 5.52 0.34
4 23 -4 5.32 0.36
4 -23 -4 5.01 0.38
4 23 4 5.63 0.37
-4 -23 4 5.37 0.34
-4 23 5 48.33 1.26
4 -23 5 49.57 1.28
4 23 -5 49.53 1.32
4 23 5 48.17 1.31
4 -23 -5 49.34 1.4
-4 -23 5 49.01 1.26
-4 23 6 10.19 0.5
4 -23 6 9.99 0.49
4 23 -6 10.96 0.53
4 23 6 10.5 0.53
-4 -23 6 11.15 0.5
4 -23 7 19.78 0.74
4 23 -7 19.94 0.77
-4 23 7 19.28 0.74
4 23 7 20.46 0.78
-4 -23 7 19.68 0.71
-4 -23 8 0.63 0.2
5 23 0 83.25 1.9
5 -23 0 83.76 1.79
5 -23 0 78.74 1.89
5 23 -1 15.13 0.58
5 -23 1 14.31 0.5
5 -23 1 14.63 0.53
5 -23 -1 14.59 0.56
5 23 1 13.98 0.56
5 -23 2 35.61 0.95
5 23 -2 36.47 1.03
5 -23 2 36.05 0.95
-5 23 2 35.64 0.92
-5 -23 2 35.13 0.98
5 -23 -2 35.52 1.04
5 23 2 36.29 1.02
5 -23 3 5.72 0.34
-5 23 3 5.23 0.31
5 23 -3 4.43 0.34
-5 -23 3 5.19 0.33
5 23 3 5.46 0.36
5 -23 -3 5.46 0.38
5 23 -4 0 0.14
-5 23 4 0.15 0.14
5 -23 4 0.13 0.14
5 23 4 0.17 0.14
5 -23 -4 0.12 0.15
-5 -23 4 0.22 0.14
-5 23 5 0.08 0.15
5 23 -5 0.09 0.14
5 -23 5 -0.01 0.14
5 -23 -5 0.13 0.16
-5 -23 5 0.18 0.15
5 23 5 -0.03 0.15
5 -23 6 0.91 0.22
-5 23 6 0.74 0.2
5 23 -6 0.48 0.18
-5 -23 6 0.92 0.21
5 -23 -6 1.1 0.26
5 23 6 0.92 0.22
-5 23 7 0.49 0.2
5 23 -7 0.82 0.23
5 -23 7 0.42 0.19
5 23 7 0.28 0.2
-5 -23 7 0.63 0.19
5 23 -8 16.4 0.73
-5 -23 8 15.86 0.65
6 23 0 0.06 0.12
6 -23 0 0 0.12
6 -23 0 0.1 0.1
6 -23 1 34.51 0.91
6 -23 1 35.16 0.98
6 23 -1 34.95 1.01
6 -23 -1 34.01 1.01
6 23 1 35.42 1.01
6 23 -2 2.75 0.3
6 -23 2 2.93 0.27
6 -23 2 2.78 0.26
6 23 2 3.04 0.32
6 -23 -2 2.54 0.29
6 -23 3 5.29 0.34
6 23 -3 4.86 0.36
-6 23 3 5.53 0.32
-6 -23 3 4.88 0.33
6 -23 -3 5.74 0.4
6 23 3 5.1 0.36
6 -23 4 0.82 0.19
6 23 -4 0.53 0.18
-6 23 4 0.99 0.19
6 -23 -4 0.46 0.19
6 23 4 0.53 0.19
-6 -23 4 0.81 0.19
-6 23 5 44.6 1.19
6 23 -5 44.54 1.27
6 -23 5 43.7 1.19
-6 -23 5 45.52 1.19
6 23 5 44.78 1.24
6 -23 -5 43.4 1.32
-6 23 6 0.03 0.15
6 23 -6 0.16 0.17
6 -23 6 0.01 0.16
6 -23 -6 -0.12 0.16
6 23 6 0.02 0.17
-6 -23 6 0.14 0.16
-6 23 7 11.82 0.57
6 -23 7 11.99 0.58
6 23 -7 11.94 0.62
6 23 7 11.33 0.59
-6 -23 7 11.53 0.54
7 23 0 3.74 0.33
7 -23 0 4.05 0.32
7 -23 1 8.52 0.37
7 23 -1 8.02 0.44
7 -23 1 7.96 0.41
7 -23 -1 8.06 0.45
7 23 1 8.44 0.44
7 23 -2 2.85 0.3
7 -23 2 2.94 0.28
7 -23 2 2.68 0.26
7 23 2 2.58 0.28
7 -23 -2 2.4 0.3
7 -23 3 11.64 0.49
7 -23 3 12.29 0.51
7 23 -3 11.54 0.54
7 23 3 12.38 0.55
7 -23 -3 10.85 0.55
-7 23 4 0.69 0.18
7 23 -4 0.72 0.2
7 -23 4 0.53 0.17
7 23 4 0.82 0.2
-7 -23 4 0.63 0.19
7 -23 -4 0.4 0.19
7 -23 5 0.71 0.19
-7 23 5 0.74 0.18
7 23 -5 0.18 0.17
-7 -23 5 0.88 0.2
7 23 5 0.85 0.22
7 -23 -5 0.32 0.2
-7 23 6 0.35 0.18
7 -23 6 0.34 0.18
7 23 -6 0.23 0.18
-7 -23 6 0.33 0.17
7 23 6 0.77 0.22
7 -23 -6 0.5 0.22
7 23 -7 4.61 0.45
-7 23 7 4.26 0.39
7 23 7 4.49 0.43
8 23 0 0.02 0.14
8 -23 0 0.11 0.14
8 23 -1 6.78 0.43
8 -23 1 7.66 0.42
8 -23 -1 7.58 0.44
8 23 1 7.2 0.42
8 -23 2 13.4 0.56
8 -23 2 13.98 0.53
8 23 -2 13.94 0.6
8 -23 -2 13.41 0.62
8 23 2 14.33 0.59
8 -23 3 0.59 0.17
8 23 -3 0.12 0.16
8 -23 3 0.22 0.14
8 23 3 0.28 0.15
8 -23 -3 0.29 0.18
8 23 -4 19.81 0.77
8 -23 4 19.62 0.7
8 23 4 20.89 0.75
8 -23 -4 19.65 0.81
8 23 -5 20.62 0.81
-8 23 5 20.05 0.71
8 -23 5 20.04 0.73
8 23 5 20.3 0.75
8 -23 -5 18.59 0.81
8 23 5 20.13 0.76
8 -23 6 21.9 0.8
-8 23 6 22.35 0.78
8 23 -6 22.45 0.88
-8 -23 6 22.04 0.77
8 23 6 21.9 0.84
8 -23 -6 22.12 0.92
8 23 6 22.88 0.83
-8 23 7 3.27 0.38
9 -23 0 10.16 0.52
9 23 0 9.95 0.52
9 -23 1 43.89 1.23
9 23 -1 42.06 1.24
9 -23 -1 45.36 1.29
9 23 1 44.9 1.24
9 -23 2 2.18 0.27
9 23 -2 2.13 0.29
9 -23 2 2.04 0.24
9 -23 -2 1.66 0.27
9 23 2 2.01 0.29
9 -23 3 22.81 0.74
9 23 -3 22.52 0.83
9 -23 3 22.35 0.77
9 -23 -3 21.71 0.84
9 23 3 22.69 0.81
9 -23 4 1.9 0.26
9 23 -4 1.21 0.25
9 -23 -4 1.51 0.3
9 23 4 1.26 0.23
9 23 -5 1.43 0.28
9 -23 5 1.35 0.26
9 23 5 1.27 0.25
9 23 5 1.5 0.27
9 -23 -5 1.82 0.32
9 23 6 -0.05 0.17
9 23 6 0.18 0.19
10 -23 0 0.14 0.16
10 23 0 0.14 0.16
10 23 -1 0.25 0.17
10 -23 1 0.01 0.16
10 23 1 0.37 0.18
10 -23 -1 0.42 0.2
10 -23 2 14.43 0.63
10 23 -2 13.74 0.63
10 23 2 14.22 0.62
10 -23 -2 14.35 0.67
10 23 -3 3.98 0.4
10 -23 3 3.66 0.35
10 -23 3 4.34 0.35
10 -23 -3 3.62 0.4
10 23 3 3.5 0.36
10 23 -4 15.06 0.7
10 -23 4 14.7 0.64
10 -23 4 15.3 0.62
10 -23 -4 16.49 0.76
10 23 4 15.56 0.67
10 -23 5 2.92 0.33
10 23 5 2.69 0.33
11 23 0 3.72 0.38
11 -23 0 3.31 0.37
11 -23 1 24.97 0.89
11 23 -1 24.94 0.89
11 23 1 25.42 0.89
11 -23 -1 24.12 0.9
11 23 -2 3.3 0.36
11 -23 2 3.02 0.34
11 23 2 2.45 0.32
11 -23 -2 2.75 0.36
11 -23 3 4.45 0.41
11 23 -3 4.17 0.42
11 -23 -3 4.23 0.43
11 23 3 4.58 0.41
11 -23 4 -0.13 0.17
11 -23 4 -0.04 0.17
11 23 4 0.27 0.18
11 23 5 4.13 0.44
12 23 0 0.15 0.17
12 -23 0 -0.1 0.17
12 -23 1 1.15 0.26
12 23 -1 1.01 0.26
12 23 1 0.89 0.24
12 -23 -1 1.39 0.28
12 23 -2 6.56 0.49
12 -23 2 7.76 0.51
12 23 2 8.35 0.5
12 -23 -2 7.87 0.53
12 -23 3 5.9 0.44
12 23 3 5.9 0.44
12 -23 4 13.37 0.66
0 24 0 146.37 3.02
0 -24 0 143.12 2.99
0 24 1 -0.05 0.1
0 24 -1 -0.09 0.08
0 -24 1 -0.07 0.09
0 -24 -1 0.03 0.09
0 -24 2 62.87 1.48
0 24 -2 61.6 1.48
0 24 2 64.54 1.5
0 24 -3 0.02 0.1
0 24 3 -0.2 0.11
0 -24 3 0.04 0.12
0 24 4 61.01 1.49
0 -24 4 59.32 1.46
0 24 5 0.1 0.14
0 -24 5 -0.14 0.12
0 -24 6 7.08 0.41
0 24 6 7.6 0.44
0 -24 7 -0.1 0.15
0 24 7 -0.06 0.16
0 -24 8 3.73 0.38
1 -24 0 0.16 0.1
1 -24 0 0.09 0.1
-1 -24 0 -0.1 0.08
-1 24 0 -0.02 0.08
1 24 0 0.09 0.11
-1 -24 -1 8.38 0.39
-1 24 1 9.31 0.4
1 -24 1 8.44 0.38
1 24 -1 9.52 0.41
-1 -24 1 8.84 0.39
1 24 1 8.9 0.41
1 -24 -1 9.26 0.38
1 -24 -1 8.96 0.4
-1 24 -1 9.28 0.39
1 -24 2 0.27 0.12
1 24 -2 -0.04 0.09
-1 24 2 0.01 0.11
-1 -24 2 0.03 0.11
1 -24 -2 0.09 0.12
-1 24 -2 0.04 0.09
1 24 2 0.03 0.12
1 24 -3 10.77 0.47
-1 24 3 11.42 0.48
1 -24 3 11.17 0.47
1 24 3 11.76 0.5
-1 -24 3 12.01 0.48
-1 24 4 9.83 0.45
1 -24 4 9.61 0.44
1 24 -4 9.47 0.44
1 24 4 9.26 0.46
-1 -24 4 9.7 0.44
-1 24 5 12.45 0.53
1 -24 5 11.41 0.5
1 24 5 11.96 0.53
-1 -24 5 11.54 0.51
-1 24 6 7.56 0.45
1 -24 6 8.49 0.46
-1 -24 6 8.58 0.45
1 24 6 8.49 0.46
-1 24 7 4.77 0.41
1 -24 7 4.79 0.4
-1 -24 7 3.99 0.36
1 24 7 5.63 0.42
1 -24 8 2.17 0.3
-1 -24 8 2.58 0.32
2 24 0 24.32 0.74
-2 -24 0 25.75 0.74
-2 24 0 24.6 0.71
2 -24 0 24.39 0.7
2 -24 0 24.67 0.72
2 -24 1 0.22 0.11
2 24 -1 0.12 0.12
-2 24 1 0.06 0.11
2 24 1 0.12 0.11
2 -24 -1 0.33 0.11
2 -24 -1 0.12 0.11
-2 24 -1 0.14 0.1
-2 -24 1 0.02 0.11
2 -24 2 1.29 0.19
-2 24 2 1 0.17
2 24 -2 1.01 0.19
2 -24 -2 1.28 0.17
2 -24 -2 1.24 0.2
-2 -24 2 1.49 0.21
2 24 2 1.09 0.19
-2 24 3 2.64 0.27
2 -24 3 1.97 0.23
2 24 -3 2.47 0.27
-2 -24 3 2.25 0.25
2 24 3 2.22 0.26
2 -24 -3 2.44 0.28
2 -24 4 19.19 0.66
2 24 -4 19.4 0.67
-2 24 4 19.03 0.66
2 24 4 19.53 0.69
-2 -24 4 20.24 0.67
2 24 -5 11.25 0.5
-2 24 5 11.12 0.51
2 -24 5 11.83 0.51
2 24 5 11.15 0.53
-2 -24 5 11.33 0.5
2 -24 6 24.1 0.79
-2 24 6 24.01 0.81
2 24 6 21.98 0.8
-2 -24 6 23.23 0.77
-2 24 7 2.05 0.29
2 -24 7 2.25 0.3
2 24 7 2.73 0.33
-2 -24 7 2.62 0.31
-2 -24 8 5.54 0.42
3 -24 0 0.08 0.11
-3 24 0 0.12 0.1
3 24 0 0.05 0.1
3 -24 0 -0.04 0.09
3 -24 1 0.23 0.12
-3 24 1 0.46 0.13
3 24 -1 0.11 0.12
3 24 1 0.23 0.13
-3 -24 1 0.18 0.12
3 -24 -1 0.19 0.12
3 -24 -1 0.27 0.1
3 24 -2 47.08 1.23
3 -24 2 45.74 1.16
-3 24 2 46.55 1.17
3 -24 -2 47.19 1.24
3 24 2 47.12 1.22
-3 -24 2 47.77 1.19
-3 24 3 0.2 0.13
3 24 -3 0.22 0.13
3 -24 3 0.8 0.17
3 -24 -3 0.59 0.17
3 24 3 0.43 0.16
-3 -24 3 0.48 0.16
3 24 -4 94.23 2.13
-3 24 4 92.94 2.08
3 -24 4 90.04 2.06
3 24 4 91.4 2.13
-3 -24 4 91.9 2.07
3 -24 -4 92.1 2.22
-3 24 5 5.92 0.38
3 24 -5 5.46 0.37
3 -24 5 5.01 0.36
-3 -24 5 4.65 0.34
3 24 5 5.02 0.38
-3 24 6 23.83 0.82
3 -24 6 25.32 0.82
3 24 -6 24.57 0.84
-3 -24 6 23.57 0.79
3 24 6 24.42 0.85
-3 24 7 0.8 0.22
3 -24 7 0.9 0.23
-3 -24 7 0.43 0.19
3 24 7 0.74 0.22
-3 -24 8 0.22 0.18
4 -24 0 21.41 0.69
4 -24 0 22.12 0.64
4 24 0 20.85 0.7
4 24 -1 33.34 0.97
4 -24 1 34.77 0.91
4 -24 1 34.32 0.93
-4 24 1 34.38 0.9
4 -24 -1 34.25 0.87
4 -24 -1 33.52 0.97
-4 -24 1 34.18 0.95
4 24 1 35.09 0.98
4 24 -2 0.13 0.14
4 -24 2 0.11 0.12
-4 24 2 0.27 0.13
4 24 2 0.12 0.13
4 -24 -2 0.12 0.13
-4 -24 2 0.49 0.15
4 -24 3 8.24 0.4
4 24 -3 8.65 0.44
-4 24 3 8.79 0.4
4 24 3 9.41 0.46
-4 -24 3 8.34 0.42
4 -24 -3 9.17 0.48
4 24 -4 7.46 0.43
-4 24 4 7.51 0.4
4 -24 4 8.02 0.41
-4 -24 4 8.6 0.43
4 -24 -4 8.23 0.46
4 24 4 7.65 0.44
-4 24 5 0.2 0.16
4 24 -5 0.18 0.15
4 -24 5 0.3 0.17
4 -24 -5 0.11 0.16
4 24 5 0.33 0.17
-4 -24 5 0.34 0.16
4 -24 6 7.03 0.42
4 24 -6 7.18 0.44
-4 24 6 6.29 0.42
4 24 6 7.1 0.45
-4 -24 6 6.83 0.41
-4 24 7 0.19 0.19
4 -24 7 0.03 0.18
4 24 -7 0.26 0.18
4 24 7 0.17 0.19
-4 -24 7 0.03 0.15
-4 -24 8 2.36 0.29
5 -24 0 -0.18 0.1
5 24 0 0.03 0.12
5 -24 0 -0.12 0.09
5 24 -1 0.17 0.14
5 -24 1 -0.14 0.1
5 -24 1 0.07 0.11
5 24 1 -0.1 0.12
5 -24 -1 0.14 0.13
5 24 -2 35.75 1.04
-5 24 2 35.23 0.94
5 -24 2 36.25 0.96
5 -24 -2 35.38 1.04
5 24 2 35.14 1.02
-5 -24 2 36.89 1
-5 24 3 2.56 0.25
5 -24 3 2.8 0.26
5 24 -3 2.69 0.29
-5 -24 3 2.47 0.26
5 -24 -3 2.99 0.33
5 24 3 3.02 0.3
-5 24 4 73.3 1.73
5 -24 4 72.88 1.73
5 24 -4 74.45 1.82
5 -24 -4 75.12 1.89
-5 -24 4 74.27 1.74
5 24 4 72.9 1.79
5 -24 5 0.03 0.15
5 24 -5 -0.07 0.13
-5 24 5 0.02 0.14
5 24 5 0.06 0.17
5 -24 -5 0.3 0.19
-5 -24 5 0.04 0.13
5 24 -6 51.74 1.43
5 -24 6 51.77 1.36
-5 24 6 51.27 1.36
5 -24 -6 49.07 1.5
-5 -24 6 51.63 1.34
5 24 6 50.98 1.41
5 -24 7 2.22 0.31
-5 24 7 2.49 0.33
5 24 -7 2.38 0.34
-5 -24 7 2.36 0.3
5 24 7 1.97 0.31
5 24 -8 4.18 0.44
-5 -24 8 5 0.42
6 -24 0 3.67 0.33
6 24 0 3.05 0.31
6 -24 0 3.14 0.24
6 -24 1 20.91 0.64
6 -24 1 21.41 0.7
6 24 -1 21.27 0.74
6 -24 -1 21.09 0.74
6 24 1 20.19 0.72
6 -24 2 0.06 0.12
6 -24 2 0.05 0.12
6 24 -2 -0.05 0.12
6 -24 -2 0.16 0.15
6 24 2 0.28 0.15
6 -24 3 1.81 0.23
-6 24 3 1.29 0.2
6 24 -3 2.02 0.28
6 24 3 1.73 0.26
-6 -24 3 1.62 0.24
6 -24 -3 1.49 0.25
-6 24 4 1.64 0.22
6 24 -4 1.35 0.25
6 -24 4 1.68 0.24
6 -24 -4 1.74 0.28
6 24 4 1.69 0.25
-6 -24 4 1.4 0.22
6 -24 5 0.7 0.2
-6 24 5 0.83 0.2
6 24 -5 0.65 0.21
-6 -24 5 0.79 0.2
6 24 5 0.84 0.22
6 -24 -5 0.95 0.25
6 24 -6 4.36 0.42
-6 24 6 4.56 0.39
6 -24 6 4.19 0.37
6 -24 -6 4.24 0.45
-6 -24 6 4.07 0.36
6 24 6 3.78 0.39
-6 24 7 1.12 0.25
6 24 -7 2.2 0.33
6 24 7 1.54 0.29
-6 -24 7 1.61 0.26
7 24 0 0.04 0.13
7 -24 0 0.09 0.14
7 -24 1 0.46 0.14
7 -24 1 0.42 0.15
7 24 -1 0.26 0.15
7 -24 -1 0.53 0.18
7 24 1 0.37 0.17
7 24 -2 16.97 0.68
7 -24 2 17.38 0.6
7 -24 2 17.87 0.64
7 24 2 17.55 0.67
7 -24 -2 18.43 0.71
7 -24 3 11.41 0.49
7 24 -3 10.98 0.54
7 24 3 11.12 0.53
7 -24 -3 11.87 0.58
7 -24 4 9.98 0.49
-7 24 4 10.7 0.5
7 24 -4 9.72 0.53
7 24 4 10.38 0.52
-7 -24 4 11.01 0.51
7 -24 -4 9.94 0.55
-7 24 5 1.42 0.23
7 -24 5 1.52 0.24
7 24 -5 1.86 0.29
7 24 5 1.05 0.24
7 -24 -5 1.62 0.3
-7 -24 5 1.43 0.25
7 24 -6 23.49 0.9
7 -24 6 23.76 0.84
-7 24 6 24.62 0.82
7 -24 -6 23.58 0.94
7 24 6 23.93 0.87
-7 -24 6 24.72 0.82
-7 24 7 1.38 0.27
8 24 0 48.1 1.34
8 -24 0 50.59 1.35
8 24 -1 3.81 0.36
8 -24 1 4.15 0.36
8 -24 -1 4.27 0.38
8 24 1 3.94 0.37
8 24 -2 35.68 1.08
8 -24 2 36.14 1.04
8 -24 2 35.6 0.97
8 -24 -2 34.11 1.1
8 24 2 36.45 1.07
8 -24 3 -0.13 0.13
8 -24 3 -0.01 0.15
8 24 -3 0.12 0.16
8 -24 -3 0.02 0.17
8 24 3 0.01 0.14
8 -24 4 1.24 0.23
8 24 -4 1.7 0.28
8 24 4 1.22 0.25
8 -24 -4 1.34 0.27
8 -24 5 0.42 0.19
8 24 -5 0.62 0.22
8 -24 -5 0.49 0.23
8 24 5 0.64 0.21
8 24 5 0.68 0.21
-8 24 6 3.05 0.33
8 -24 6 2.59 0.32
8 24 -6 2.78 0.37
-8 -24 6 2.54 0.31
8 24 6 2.73 0.35
8 24 6 2.92 0.35
9 -24 0 0.13 0.15
9 24 0 0.07 0.16
9 24 -1 0.81 0.22
9 -24 1 1.26 0.22
9 24 1 1.07 0.23
9 -24 -1 1.39 0.26
9 -24 2 3.26 0.33
9 24 -2 4.06 0.39
9 -24 2 3.58 0.33
9 -24 -2 4.72 0.42
9 24 2 4.12 0.39
9 24 -3 8.14 0.5
9 -24 3 9.29 0.46
9 -24 3 9.18 0.49
9 24 3 8.99 0.5
9 -24 -3 9.21 0.54
9 24 -4 4.76 0.45
9 -24 4 4.12 0.36
9 24 4 4.55 0.41
9 -24 -4 4.52 0.44
9 24 -5 9.45 0.56
9 -24 5 8.97 0.5
9 24 5 9.18 0.54
9 -24 -5 9.74 0.61
9 24 6 5.81 0.46
10 -24 0 67.18 1.76
10 24 0 67.92 1.74
10 24 -1 0.3 0.19
10 -24 1 0.72 0.21
10 24 1 0.53 0.21
10 -24 -1 0.16 0.18
10 -24 2 25.29 0.88
10 24 -2 24.54 0.9
10 -24 -2 26.45 0.95
10 24 2 25.92 0.9
10 24 -3 0.06 0.17
10 -24 3 0.51 0.18
10 -24 3 0.29 0.19
10 -24 -3 0.22 0.2
10 24 3 0.18 0.18
10 -24 4 0.26 0.18
10 24 -4 0.39 0.21
10 24 4 0.06 0.16
10 -24 -4 -0.06 0.18
10 -24 5 1.81 0.29
10 24 5 1.81 0.29
11 24 0 -0.2 0.16
11 -24 0 0.15 0.18
11 -24 1 0.13 0.18
11 24 -1 0.22 0.19
11 24 1 0.32 0.2
11 -24 -1 0.1 0.18
11 24 -2 5.03 0.45
11 -24 2 5.88 0.44
11 -24 -2 5.97 0.51
11 24 2 5.26 0.46
11 24 -3 3.63 0.43
11 -24 3 4.38 0.41
11 -24 -3 4.21 0.46
11 24 3 5.32 0.45
11 -24 4 3.38 0.35
11 24 4 3.02 0.36
12 -24 0 8.94 0.56
12 24 0 9.01 0.55
12 -24 1 3.3 0.37
12 24 -1 3.12 0.38
12 -24 -1 3.92 0.43
12 24 1 3.7 0.39
12 -24 2 26.01 0.94
12 24 2 26 0.93
12 -24 3 0.31 0.21
0 -25 1 -0.03 0.1
0 25 1 -0.06 0.1
0 25 -1 0 0.1
0 -25 -1 -0.03 0.09
0 25 -2 9.26 0.42
0 -25 2 10.25 0.44
0 25 2 9.99 0.44
0 -25 3 0.04 0.12
0 25 -3 0.12 0.12
0 25 3 -0.03 0.12
0 -25 4 23.44 0.75
0 25 4 23.13 0.77
0 25 5 0.14 0.15
0 -25 5 0.11 0.14
0 -25 6 0.3 0.17
0 25 6 0.21 0.17
0 -25 7 0.15 0.16
0 25 7 0.01 0.17
1 -25 0 38.37 0.98
-1 25 0 38.62 0.99
-1 -25 0 36.4 0.99
1 25 0 38.99 1.02
1 -25 1 78.11 1.73
-1 25 1 77.86 1.75
1 25 -1 76.52 1.76
-1 -25 1 76.3 1.74
1 -25 -1 77.39 1.72
1 -25 -1 75 1.77
1 25 1 76.64 1.76
-1 25 -1 75.2 1.72
-1 25 2 1.44 0.21
1 25 -2 1.56 0.21
1 -25 2 1.73 0.21
-1 -25 2 1.83 0.23
1 25 2 1.43 0.21
-1 25 -2 1.78 0.21
-1 25 3 58.49 1.43
1 -25 3 57.94 1.4
1 25 -3 57.1 1.43
1 25 3 58.11 1.44
-1 -25 3 56.61 1.4
1 -25 4 0.36 0.15
1 25 -4 0.28 0.14
-1 25 4 0.19 0.14
-1 -25 4 0.33 0.15
1 25 4 0.38 0.16
-1 25 5 2.09 0.27
1 -25 5 1.21 0.21
-1 -25 5 1.95 0.26
1 25 5 1.28 0.24
1 -25 6 1.32 0.24
-1 25 6 1.25 0.24
-1 -25 6 1.84 0.26
1 25 6 1.07 0.23
1 -25 7 13.9 0.62
-1 25 7 13.84 0.63
-1 -25 7 14.21 0.61
1 25 7 14.55 0.64
2 25 0 0.12 0.11
-2 25 0 0.07 0.09
2 -25 0 0.18 0.1
-2 -25 0 0.18 0.12
2 -25 0 0.2 0.11
2 25 -1 2.62 0.27
-2 25 1 1.97 0.22
2 -25 1 1.99 0.22
2 -25 -1 2.51 0.25
2 -25 -1 2.29 0.22
2 25 1 2.26 0.24
-2 25 -1 2.54 0.23
-2 -25 1 2.21 0.24
-2 25 2 1.64 0.22
2 -25 2 1.49 0.21
2 25 -2 1.27 0.22
2 -25 -2 1.34 0.21
2 25 2 1.36 0.22
-2 -25 2 1.33 0.2
2 -25 -2 1.44 0.19
-2 25 3 40.02 1.07
2 -25 3 40.28 1.05
2 25 -3 36.22 1.07
2 -25 -3 39.23 1.12
2 25 3 39.52 1.09
-2 -25 3 39.92 1.06
2 -25 4 7.66 0.41
2 25 -4 6.91 0.4
-2 25 4 7.19 0.39
-2 -25 4 7.55 0.4
2 25 4 6.81 0.41
2 -25 5 29.27 0.88
-2 25 5 28.52 0.89
2 25 -5 27.75 0.89
2 25 5 29.15 0.92
-2 -25 5 28.56 0.87
2 -25 6 2.6 0.3
-2 25 6 3.02 0.33
2 25 6 2.44 0.3
-2 -25 6 2.54 0.29
2 -25 7 3.5 0.36
-2 25 7 4.29 0.4
-2 -25 7 4.5 0.39
2 25 7 3.8 0.38
-3 25 0 6.98 0.33
3 -25 0 5.81 0.34
3 -25 0 6.79 0.34
3 25 0 7.1 0.38
3 -25 1 21.46 0.65
-3 25 1 20.56 0.64
3 25 -1 20.72 0.69
-3 -25 1 19.74 0.67
3 -25 -1 20.79 0.69
3 25 1 21.2 0.7
3 -25 -1 20.27 0.62
3 -25 2 7.94 0.39
3 25 -2 8.43 0.43
-3 25 2 7.81 0.38
3 25 2 8.26 0.42
3 -25 -2 8.44 0.43
-3 -25 2 8.22 0.41
-3 25 3 6.13 0.36
3 25 -3 5.74 0.36
3 -25 3 6.02 0.35
3 -25 -3 5.64 0.38
-3 -25 3 5.87 0.35
3 25 3 6.26 0.38
-3 25 4 1.38 0.22
3 25 -4 0.85 0.2
3 -25 4 1.18 0.21
-3 -25 4 1.14 0.21
3 25 4 1.23 0.22
3 -25 -4 1.36 0.25
3 25 -5 3.04 0.32
3 -25 5 3.37 0.33
-3 25 5 2.82 0.3
-3 -25 5 3.26 0.31
3 25 5 2.92 0.33
3 25 -6 0.5 0.18
3 -25 6 0.8 0.21
-3 25 6 0.25 0.19
3 25 6 0.63 0.22
-3 -25 6 0.06 0.15
3 -25 7 10.49 0.54
-3 25 7 10.92 0.55
3 25 7 10.51 0.57
-3 -25 7 10.12 0.53
4 25 0 -0.01 0.12
4 -25 0 -0.06 0.11
4 -25 0 0.02 0.1
4 -25 1 30.4 0.83
-4 25 1 27.64 0.8
4 25 -1 29.67 0.89
4 25 1 30.29 0.89
4 -25 -1 28.76 0.88
4 -25 -1 28.66 0.78
-4 -25 1 28.55 0.85
4 -25 2 0.33 0.14
-4 25 2 0.41 0.14
4 25 -2 0.67 0.18
-4 -25 2 0.31 0.14
4 -25 -2 0.5 0.17
4 25 2 0.35 0.15
4 -25 3 55.08 1.37
-4 25 3 58.41 1.38
4 25 -3 55.36 1.45
4 25 3 56.44 1.44
4 -25 -3 53.74 1.47
-4 -25 3 57.61 1.41
-4 25 4 0.26 0.14
4 -25 4 0.38 0.17
4 25 -4 0.3 0.17
-4 -25 4 0.43 0.16
4 25 4 0.39 0.17
4 -25 -4 0.42 0.18
-4 25 5 81.73 1.91
4 -25 5 82.35 1.91
4 25 -5 81.52 1.98
-4 -25 5 79.69 1.89
4 25 5 80.17 1.96
4 -25 -5 82.06 2.07
4 25 -6 0.05 0.15
4 -25 6 0.04 0.16
-4 25 6 0.08 0.17
4 25 6 -0.05 0.16
-4 -25 6 0.05 0.14
4 25 -7 12.04 0.61
-4 25 7 11.71 0.57
4 -25 7 10.34 0.55
-4 -25 7 10.42 0.52
4 25 7 11.06 0.58
5 -25 0 0.63 0.17
5 -25 0 0.83 0.16
5 25 0 0.65 0.18
5 25 -1 11.64 0.52
5 -25 1 11.24 0.48
5 -25 1 11.27 0.45
5 25 1 11.53 0.51
5 -25 -1 11.64 0.51
5 -25 2 1.3 0.2
5 25 -2 1.6 0.24
-5 25 2 1.82 0.22
-5 -25 2 1.75 0.23
5 25 2 1.61 0.25
5 -25 -2 1.71 0.25
5 -25 3 0.03 0.13
-5 25 3 0.33 0.14
5 25 -3 0.23 0.15
5 25 3 0.11 0.15
5 -25 -3 0.21 0.17
-5 -25 3 0.2 0.15
-5 25 4 0.14 0.16
5 25 -4 0.44 0.18
5 -25 4 0.17 0.16
-5 -25 4 0.42 0.17
5 -25 -4 0.19 0.18
5 25 4 0.42 0.19
5 25 -5 0.91 0.21
-5 25 5 0.77 0.2
5 -25 5 0.85 0.21
-5 -25 5 0.76 0.2
5 25 5 0.76 0.21
5 -25 -5 1.01 0.24
5 -25 6 0.34 0.18
-5 25 6 0.25 0.18
5 25 -6 0.15 0.16
-5 -25 6 0.15 0.16
5 25 6 0.39 0.2
5 25 -7 2.84 0.36
-5 25 7 2.69 0.33
5 25 7 2.33 0.38
-5 -25 7 1.95 0.28
6 25 0 0.09 0.13
6 -25 0 0.1 0.13
6 -25 1 6.3 0.37
6 25 -1 6.2 0.4
6 -25 1 6.59 0.35
6 25 1 6.46 0.4
6 -25 -1 6.21 0.4
6 -25 2 2.36 0.25
6 25 -2 2.08 0.27
6 -25 -2 1.87 0.27
6 25 2 2.56 0.29
6 -25 3 10.82 0.49
6 25 -3 10.9 0.53
6 -25 -3 11.61 0.56
6 25 3 11.66 0.55
-6 -25 3 10.99 0.51
6 -25 4 1 0.22
6 25 -4 0.73 0.21
-6 25 4 0.79 0.19
-6 -25 4 0.72 0.2
6 -25 -4 1.09 0.25
6 25 4 0.66 0.21
6 -25 5 29.96 0.92
-6 25 5 29.68 0.91
6 25 -5 27.8 0.96
6 -25 -5 30.02 1.03
6 25 5 29.91 0.97
-6 -25 5 27.49 0.9
6 -25 6 0.26 0.18
6 25 -6 0.2 0.18
-6 25 6 0.1 0.17
6 25 6 0.12 0.19
6 -25 -6 -0.22 0.18
-6 -25 6 0.26 0.18
-6 25 7 34.23 1.16
6 25 -7 31.73 1.12
-6 -25 7 32.75 1.02
7 -25 0 0.9 0.21
7 25 0 1.21 0.23
7 25 -1 9.42 0.49
7 -25 1 9.24 0.42
7 -25 1 9.66 0.47
7 -25 -1 9.68 0.51
7 25 1 10.74 0.51
7 25 -2 1.95 0.28
7 -25 2 1.56 0.22
7 -25 2 1.51 0.22
7 25 2 1.52 0.25
7 -25 -2 1.87 0.28
7 25 -3 1.8 0.27
7 -25 3 1.66 0.23
7 -25 -3 1.6 0.27
7 25 3 2.1 0.29
7 -25 4 6.86 0.42
7 25 -4 8.65 0.49
7 25 4 7.42 0.45
7 -25 -4 6.77 0.48
-7 -25 4 6.97 0.42
7 -25 5 0.07 0.17
-7 25 5 0.24 0.17
7 25 -5 0.12 0.16
7 25 5 0.17 0.18
7 -25 -5 0.13 0.2
-7 -25 5 0.07 0.17
-7 25 6 0.42 0.19
7 -25 6 0.61 0.22
7 25 -6 0.74 0.23
7 -25 -6 0.3 0.23
-7 -25 6 0.77 0.22
7 25 6 0.81 0.24
-7 -25 7 3.94 0.38
8 -25 0 0.11 0.15
8 25 0 0.25 0.17
8 25 -1 17.89 0.71
8 -25 1 16.65 0.66
8 25 1 17.28 0.68
8 -25 -1 17.19 0.7
8 25 -2 0.48 0.19
8 -25 2 0.25 0.15
8 -25 2 0.54 0.18
8 25 2 0.46 0.18
8 -25 -2 1.1 0.25
8 -25 3 5.38 0.37
8 25 -3 6.51 0.44
8 -25 -3 6.64 0.47
8 25 3 5.35 0.41
8 -25 4 0.81 0.2
8 25 -4 0.56 0.21
8 -25 -4 0.47 0.21
8 25 4 0.63 0.22
8 -25 5 18.65 0.71
8 25 -5 17.29 0.76
8 25 5 19.77 0.75
8 -25 -5 17.67 0.8
-8 25 6 1.5 0.26
8 25 6 1.36 0.28
-8 -25 6 1.53 0.26
9 -25 0 5.98 0.42
9 25 0 5.7 0.42
9 -25 1 64.37 1.66
9 25 -1 61.05 1.66
9 25 1 64.91 1.66
9 -25 -1 65.84 1.71
9 -25 2 1.59 0.25
9 25 -2 1.27 0.25
9 25 2 1.76 0.28
9 -25 -2 2.06 0.31
9 25 -3 20.33 0.81
9 -25 3 21.36 0.72
9 -25 -3 20.12 0.84
9 25 3 20.21 0.77
9 25 -4 4.63 0.45
9 -25 4 4.79 0.39
9 -25 -4 5.4 0.5
9 25 4 4.92 0.43
9 -25 5 1.51 0.26
9 25 5 1 0.25
9 25 6 5.77 0.52
10 25 0 0.02 0.18
10 -25 0 0.01 0.17
10 25 -1 0.13 0.17
10 -25 1 0.08 0.17
10 25 1 -0.05 0.16
10 -25 -1 0.06 0.17
10 -25 2 0.72 0.22
10 25 -2 0.1 0.18
10 25 2 0.66 0.22
10 -25 -2 0.82 0.24
10 -25 3 0.07 0.17
10 -25 3 0.03 0.16
10 25 -3 0.25 0.21
10 25 3 -0.11 0.17
10 -25 -3 0.18 0.2
10 -25 4 2.24 0.29
10 25 4 2.38 0.33
11 25 0 -0.14 0.17
11 -25 0 -0.12 0.16
11 25 -1 38.92 1.22
11 -25 1 38.04 1.2
11 -25 -1 41.04 1.26
11 25 1 39.16 1.21
11 25 -2 -0.04 0.18
11 -25 2 -0.11 0.16
11 25 2 0.16 0.2
11 -25 -2 0.06 0.18
11 -25 3 6.5 0.46
11 25 3 5.81 0.44
11 -25 4 2.12 0.29
12 -25 1 0.4 0.23
12 -25 2 6.65 0.59
0 26 0 28.63 0.83
0 -26 0 29.01 0.82
0 26 -1 -0.04 0.1
0 -26 -1 -0.08 0.09
0 26 1 0.08 0.11
0 -26 1 -0.13 0.09
0 26 2 62.51 1.53
0 -26 2 63.69 1.51
0 26 -2 64.98 1.53
0 26 3 0.04 0.13
0 26 -3 0.09 0.11
0 -26 3 0.25 0.14
0 26 4 24.34 0.8
0 -26 4 23.71 0.77
0 26 5 0.1 0.15
0 -26 5 -0.03 0.13
0 -26 6 10.87 0.53
0 26 6 9.23 0.51
0 26 7 0.29 0.2
0 -26 7 -0.03 0.18
-1 26 0 0.15 0.11
-1 -26 0 0.13 0.12
1 -26 0 0.41 0.13
1 26 0 0.19 0.12
1 26 -1 1.08 0.18
-1 26 1 1.06 0.18
1 -26 1 1.09 0.17
-1 -26 1 1.39 0.2
1 26 1 1.29 0.19
1 -26 -1 0.97 0.16
-1 26 -1 1.17 0.18
1 -26 2 19.05 0.63
-1 26 2 18.76 0.64
1 26 -2 17.97 0.64
-1 26 -2 18.7 0.62
1 26 2 18.66 0.65
-1 -26 2 18.73 0.64
1 -26 3 2.78 0.28
-1 26 3 3.1 0.29
1 26 -3 3.43 0.32
1 26 3 2.96 0.3
-1 -26 3 2.54 0.27
1 -26 4 9.14 0.45
-1 26 4 8.27 0.44
1 26 -4 8.39 0.43
1 26 4 8.25 0.45
-1 -26 4 9.75 0.46
-1 26 5 3.82 0.36
1 -26 5 3.79 0.34
-1 -26 5 4.12 0.35
1 26 5 4.23 0.37
-1 26 6 0.9 0.23
1 -26 6 0.59 0.2
-1 -26 6 0.85 0.22
1 26 6 0.97 0.23
1 -26 7 0.33 0.19
-1 26 7 0.21 0.2
1 26 7 0.06 0.2
-1 -26 7 0.22 0.18
-2 -26 0 122.38 2.62
-2 26 0 121.1 2.59
2 -26 0 123.74 2.58
2 26 0 121.14 2.65
2 26 -1 1.23 0.2
2 -26 1 1.48 0.2
-2 26 1 1.35 0.19
-2 26 -1 1.08 0.18
-2 -26 1 1.21 0.2
2 26 1 1.1 0.19
2 -26 -1 1.56 0.21
2 -26 -1 1.41 0.19
-2 26 2 19.92 0.65
2 -26 2 17.57 0.62
2 26 -2 19.42 0.67
2 26 2 20.1 0.68
-2 -26 2 17.81 0.63
2 -26 -2 18.29 0.6
2 -26 -2 18.17 0.66
-2 26 3 8.03 0.41
2 26 -3 6.84 0.41
2 -26 3 7.51 0.4
2 26 3 8.3 0.43
-2 -26 3 7.39 0.4
2 -26 -3 7.53 0.44
2 -26 4 4.5 0.34
-2 26 4 4.11 0.35
2 26 -4 4 0.35
-2 -26 4 3.82 0.33
2 26 4 4.03 0.37
2 26 -5 0.13 0.15
-2 26 5 0.12 0.16
2 -26 5 0.28 0.17
-2 -26 5 0.15 0.15
2 26 5 0.4 0.18
-2 26 6 22.55 0.81
2 -26 6 23.43 0.8
2 26 6 21.36 0.81
-2 -26 6 23.49 0.79
-2 26 7 0.16 0.2
2 -26 7 0.04 0.17
2 26 7 0.46 0.22
-2 -26 7 0.35 0.19
3 26 0 0.09 0.13
3 -26 0 -0.04 0.11
3 -26 0 -0.01 0.09
-3 26 1 1.55 0.2
3 26 -1 1.34 0.22
3 -26 1 1.02 0.18
3 -26 -1 1.73 0.23
3 26 1 1.3 0.22
3 -26 -1 1.71 0.2
-3 -26 1 1.08 0.19
3 26 -2 11.91 0.53
3 -26 2 13.63 0.52
-3 26 2 13.02 0.51
3 26 2 12.71 0.53
3 -26 -2 13.36 0.56
-3 -26 2 12.04 0.51
3 -26 3 5.52 0.34
-3 26 3 5.68 0.35
3 26 -3 5.73 0.38
-3 -26 3 4.99 0.35
3 26 3 5.56 0.37
3 -26 -3 5.65 0.38
-3 26 4 48.1 1.24
3 26 -4 48.63 1.29
3 -26 4 45.91 1.23
3 -26 -4 46.26 1.34
-3 -26 4 50.14 1.26
3 26 4 43.46 1.26
3 -26 5 -0.04 0.15
3 26 -5 0.15 0.16
-3 26 5 0.28 0.18
3 26 5 0.05 0.16
-3 -26 5 0.16 0.16
3 -26 6 27.73 0.89
-3 26 6 26.35 0.88
-3 -26 6 26.01 0.86
3 26 6 26.57 0.91
-3 26 7 7.11 0.47
3 -26 7 6.79 0.51
3 26 7 7.65 0.53
-3 -26 7 7.01 0.45
4 26 0 20.15 0.69
4 -26 0 18.16 0.65
4 -26 0 19.2 0.61
4 -26 1 0.66 0.16
4 26 -1 0.48 0.17
4 -26 -1 0.51 0.17
4 26 1 0.62 0.17
-4 -26 1 0.69 0.18
4 26 -2 0.31 0.16
-4 26 2 0 0.11
4 -26 2 0.05 0.12
-4 -26 2 -0.19 0.11
4 26 2 0.07 0.13
4 -26 -2 -0.08 0.13
-4 26 3 1.02 0.19
4 -26 3 0.71 0.18
4 26 -3 1.09 0.21
4 -26 -3 1.25 0.24
4 26 3 0.82 0.2
-4 -26 3 0.81 0.19
4 -26 4 1.72 0.24
-4 26 4 2.07 0.26
4 26 -4 1.88 0.26
4 -26 -4 1.85 0.29
4 26 4 1.88 0.28
-4 -26 4 1.9 0.25
4 26 -5 2.4 0.31
4 -26 5 2.07 0.28
-4 26 5 2.49 0.3
4 26 5 2.12 0.3
-4 -26 5 2.1 0.27
-4 26 6 1.5 0.27
4 -26 6 1.51 0.26
4 26 -6 1.53 0.27
4 26 6 1.63 0.28
-4 -26 6 1.68 0.27
-4 26 7 1.63 0.28
-4 -26 7 1.34 0.25
5 26 0 0.16 0.14
5 -26 0 0.3 0.15
5 -26 0 0.06 0.1
5 -26 1 2.21 0.24
5 26 -1 2.47 0.3
5 -26 -1 2.11 0.27
5 26 1 2.32 0.28
5 26 -2 65.08 1.65
5 -26 2 65.85 1.55
5 26 2 66.49 1.64
-5 -26 2 63.76 1.59
5 -26 -2 66.31 1.67
5 -26 3 9.46 0.46
5 26 -3 8.85 0.48
-5 26 3 9.07 0.43
5 26 3 10.45 0.5
5 -26 -3 10.74 0.53
-5 -26 3 8.95 0.46
5 26 -4 57.76 1.56
-5 26 4 60.41 1.48
5 -26 4 60.27 1.49
-5 -26 4 59.46 1.5
5 -26 -4 59.66 1.62
5 26 4 59.8 1.55
5 -26 5 0.14 0.16
5 26 -5 0.07 0.16
-5 26 5 0.15 0.17
-5 -26 5 0.12 0.16
5 -26 -5 0.22 0.19
5 26 5 0 0.18
-5 26 6 28.97 0.94
5 -26 6 31.17 0.97
5 26 -6 30.45 1.03
-5 -26 6 28.5 0.93
5 26 6 30.24 1.01
5 26 -7 0.28 0.19
-5 -26 7 0.07 0.18
6 -26 0 11.06 0.51
6 26 0 11.57 0.53
6 26 -1 2.55 0.31
6 -26 1 2.25 0.24
6 -26 1 2.34 0.26
6 26 1 2.18 0.27
6 -26 -1 2.1 0.27
6 -26 2 2.61 0.27
6 26 -2 2.24 0.28
6 26 2 2.49 0.29
6 -26 -2 2.01 0.28
6 26 -3 0.9 0.21
6 -26 3 0.72 0.18
-6 -26 3 1.1 0.21
6 -26 -3 0.76 0.21
6 26 3 0.82 0.22
6 26 -4 0.56 0.2
6 -26 4 0.78 0.2
-6 26 4 0.58 0.18
6 26 4 0.32 0.19
6 -26 -4 0.68 0.22
-6 -26 4 0.6 0.19
6 -26 5 0.19 0.18
6 26 -5 -0.04 0.14
-6 26 5 0.09 0.17
6 26 5 0.18 0.18
6 -26 -5 0.3 0.2
-6 -26 5 0.24 0.17
-6 26 6 1.02 0.23
6 -26 6 0.99 0.25
6 26 -6 1.32 0.27
6 26 6 1.06 0.26
6 -26 -6 0.62 0.26
-6 -26 6 0.86 0.23
7 -26 0 0.06 0.15
7 26 0 0 0.14
7 -26 1 1.99 0.26
7 -26 1 1.94 0.25
7 26 -1 2.23 0.3
7 -26 -1 2.14 0.29
7 26 1 1.65 0.25
7 26 -2 10.74 0.56
7 -26 2 12.66 0.52
7 26 2 12.81 0.58
7 -26 -2 13.84 0.63
7 -26 3 0.02 0.13
7 26 -3 -0.07 0.14
7 -26 -3 -0.08 0.16
7 26 3 0.07 0.16
7 26 -4 19.03 0.77
7 -26 4 19.72 0.71
-7 -26 4 19.54 0.72
7 -26 -4 20.15 0.81
7 26 4 18.84 0.75
7 -26 5 0.33 0.18
-7 26 5 0.14 0.16
7 26 -5 0.08 0.17
7 26 5 -0.11 0.17
-7 -26 5 -0.12 0.16
7 -26 -5 0.18 0.21
-7 26 6 32.03 1
7 26 -6 31.14 1.1
-7 -26 6 31.7 1
8 26 0 34.47 1.08
8 -26 0 36.3 1.09
8 -26 1 0.25 0.17
8 26 -1 -0.05 0.15
8 -26 -1 0.01 0.16
8 26 1 -0.03 0.15
8 -26 2 44.02 1.17
8 26 -2 44.29 1.31
8 -26 2 46.31 1.26
8 26 2 46.3 1.28
8 -26 -2 46.46 1.33
8 -26 3 2.09 0.27
8 26 -3 2.13 0.31
8 -26 -3 1.72 0.29
8 26 3 2.39 0.31
8 -26 4 0.26 0.18
8 26 -4 -0.02 0.17
8 26 4 0.27 0.19
8 -26 -4 0.07 0.18
8 26 -5 5.07 0.46
8 -26 5 6.35 0.43
8 26 5 5.64 0.46
8 -26 -5 5.7 0.53
8 26 6 1.12 0.27
9 26 0 -0.07 0.16
9 -26 0 0.02 0.18
9 26 -1 3.55 0.39
9 -26 1 4.07 0.38
9 -26 -1 4.19 0.39
9 26 1 4.27 0.4
9 -26 2 6.44 0.43
9 26 -2 5.73 0.44
9 -26 -2 5.7 0.46
9 26 2 5.5 0.46
9 26 -3 0.75 0.24
9 -26 3 0.96 0.22
9 -26 -3 0.61 0.23
9 26 3 0.79 0.22
9 26 -4 15.12 0.71
9 -26 4 15.45 0.63
9 -26 -4 15.49 0.74
9 26 4 14.98 0.67
10 26 0 69.06 1.79
10 -26 0 67.1 1.8
10 -26 1 1.22 0.25
10 26 -1 0.96 0.25
10 26 1 0.72 0.22
10 -26 -1 1.07 0.26
10 26 -2 27.7 0.98
10 -26 2 26.07 0.91
10 26 2 27.29 0.94
10 -26 -2 25.68 0.97
10 -26 -3 0.31 0.21
10 26 3 0.11 0.2
10 -26 4 5.16 0.42
11 26 0 -0.15 0.17
11 -26 0 0.02 0.18
11 -26 1 3.81 0.39
11 26 1 3.51 0.38
11 -26 -1 3.73 0.42
11 -26 2 3.73 0.38
0 27 0 0.36 0.14
0 -27 0 0.58 0.15
0 -27 1 -0.11 0.11
0 -27 -1 0.12 0.11
0 27 -1 0.13 0.11
0 27 1 0.02 0.12
0 27 -2 0.57 0.16
0 27 2 0.43 0.16
0 -27 2 0.67 0.17
0 27 3 -0.09 0.13
0 -27 3 -0.15 0.12
0 -27 4 2 0.25
0 27 4 1.8 0.26
0 -27 5 0.21 0.16
0 27 5 -0.01 0.16
0 27 6 2.51 0.33
0 -27 6 2.29 0.3
0 -27 7 -0.07 0.16
-1 27 0 1.07 0.18
1 27 0 1.05 0.19
1 -27 0 1.3 0.19
-1 -27 0 1.41 0.21
1 -27 1 90.5 2.01
1 27 -1 90.9 2.05
-1 27 1 89.19 2.03
-1 27 -1 91.44 2.02
1 -27 -1 89.71 1.99
1 27 1 92.08 2.06
-1 -27 1 88.42 2.02
1 -27 2 4.52 0.32
1 27 -2 4.06 0.31
-1 27 2 4.96 0.34
-1 -27 2 4.88 0.32
1 27 2 4.4 0.33
1 27 -3 14.73 0.59
1 -27 3 14.76 0.57
-1 27 3 14.81 0.58
1 27 3 14.92 0.6
-1 -27 3 14.25 0.57
-1 27 4 1.09 0.22
1 -27 4 0.78 0.2
-1 -27 4 0.89 0.2
1 27 4 1.06 0.22
-1 27 5 0.52 0.18
1 -27 5 0.67 0.19
-1 -27 5 0.82 0.2
1 27 5 0.56 0.2
1 -27 6 0.67 0.22
-1 27 6 1 0.23
-1 -27 6 1.27 0.24
1 27 6 1.14 0.26
-1 -27 7 3.74 0.38
2 -27 0 0.32 0.13
-2 -27 0 0.41 0.14
-2 27 1 0.29 0.14
2 -27 1 0.39 0.15
2 27 -1 0.49 0.16
2 27 1 0.57 0.17
-2 -27 1 0.49 0.16
2 -27 -1 0.67 0.16
2 -27 -1 0.37 0.14
2 27 -2 1.25 0.22
-2 27 2 1.23 0.2
2 -27 2 1.38 0.21
2 -27 -2 1.56 0.23
2 27 2 1.33 0.21
-2 -27 2 1.46 0.22
2 27 -3 5.62 0.38
-2 27 3 5.48 0.37
2 -27 3 5.62 0.37
2 27 3 5.87 0.39
-2 -27 3 5.42 0.35
2 27 -4 0.63 0.18
-2 27 4 0.27 0.16
2 -27 4 0.4 0.17
2 27 4 0.25 0.17
-2 -27 4 0.5 0.17
-2 27 5 14.83 0.61
2 -27 5 13.45 0.58
2 27 5 14.28 0.62
-2 -27 5 12.63 0.57
-2 27 6 2.65 0.33
2 -27 6 2.6 0.31
2 27 6 1.99 0.3
-2 -27 6 2.24 0.29
-2 -27 7 4.18 0.39
3 -27 0 -0.09 0.1
3 27 0 -0.05 0.12
-3 27 1 2.94 0.27
3 27 -1 3.03 0.31
3 -27 1 2.81 0.27
3 -27 -1 2.98 0.3
3 -27 -1 2.91 0.26
3 27 1 2.81 0.29
-3 -27 1 2.97 0.29
3 -27 2 12.08 0.5
3 27 -2 11.96 0.53
-3 27 2 11.65 0.49
-3 -27 2 12.48 0.52
3 -27 -2 11.94 0.53
3 27 2 11.36 0.51
3 -27 3 0.8 0.2
3 27 -3 0.72 0.19
-3 27 3 0.9 0.2
3 -27 -3 1.22 0.23
-3 -27 3 0.94 0.19
3 27 3 1.04 0.22
3 27 -4 -0.01 0.15
-3 27 4 0.2 0.17
3 -27 4 0 0.15
-3 -27 4 -0.01 0.14
3 27 4 0.18 0.17
-3 27 5 0.15 0.16
3 -27 5 -0.08 0.15
3 27 -5 0.1 0.16
-3 -27 5 0.03 0.15
3 27 5 -0.12 0.16
-3 27 6 13.15 0.6
3 -27 6 12.33 0.58
-3 -27 6 13.42 0.59
3 27 6 13.08 0.63
-3 -27 7 2.53 0.36
4 -27 0 0.11 0.13
4 27 0 0.25 0.14
4 -27 0 0.06 0.11
4 -27 1 20.51 0.67
4 27 -1 20.09 0.73
4 27 1 23.79 0.76
-4 -27 1 21.02 0.72
4 -27 -1 19.84 0.71
4 27 -2 1.78 0.26
4 -27 2 1.4 0.21
-4 27 2 1.44 0.21
4 -27 -2 1.69 0.25
-4 -27 2 1.99 0.26
4 27 2 2.17 0.28
4 27 -3 44.79 1.28
4 -27 3 47.21 1.23
-4 27 3 47.67 1.23
-4 -27 3 48.15 1.25
4 27 3 46.17 1.27
4 -27 -3 47.9 1.33
4 -27 4 0.06 0.16
-4 27 4 0.18 0.15
4 27 -4 0.1 0.14
4 27 4 -0.25 0.14
-4 -27 4 -0.02 0.15
4 -27 -4 0.08 0.17
4 27 -5 74.53 1.91
-4 27 5 78.2 1.86
4 -27 5 77.1 1.85
4 27 5 76.97 1.91
-4 -27 5 77.59 1.85
-4 27 6 2.84 0.34
4 -27 6 3.31 0.34
4 27 -6 3.49 0.39
4 27 6 2.41 0.32
-4 -27 6 2.86 0.32
5 27 0 1.68 0.25
5 -27 0 1.83 0.24
5 -27 0 1.76 0.22
5 27 -1 20.55 0.75
5 -27 1 21.01 0.67
5 27 1 20.4 0.73
5 -27 -1 19.46 0.72
5 -27 2 17.09 0.61
5 27 -2 15.96 0.66
5 -27 -2 16.03 0.65
-5 -27 2 15.66 0.62
5 27 2 16.76 0.66
5 27 -3 0.32 0.18
-5 27 3 0.6 0.18
5 -27 3 0.88 0.2
5 27 3 0.27 0.17
-5 -27 3 0.61 0.19
5 -27 -3 0.76 0.22
-5 27 4 0.5 0.18
5 27 -4 0.5 0.2
5 -27 4 0.32 0.18
5 27 4 0.36 0.19
5 -27 -4 0.46 0.2
-5 -27 4 0.29 0.17
5 27 -5 0 0.16
5 -27 5 0.13 0.17
-5 27 5 0.48 0.2
5 27 5 0.53 0.22
-5 -27 5 0.04 0.16
5 -27 -5 0.2 0.2
5 -27 6 4.05 0.39
5 27 -6 3.9 0.41
-5 27 6 3.33 0.35
-5 -27 6 3.46 0.35
5 27 6 3.52 0.38
5 27 -7 0.69 0.24
6 27 0 0.07 0.14
6 -27 0 -0.09 0.13
6 27 -1 6.27 0.43
6 -27 1 7.05 0.38
6 27 1 7.15 0.43
6 -27 -1 7.37 0.44
6 27 -2 0.25 0.16
6 -27 2 0.37 0.15
6 27 2 0.2 0.18
6 -27 -2 0.18 0.17
6 27 -3 34.76 1.1
6 -27 3 35.59 1.01
6 -27 -3 36.5 1.14
-6 -27 3 35.59 1.05
6 27 3 35.62 1.08
6 -27 4 1.04 0.22
6 27 -4 1.29 0.26
-6 27 4 1.07 0.23
6 27 4 1.28 0.25
-6 -27 4 1.25 0.24
6 -27 -4 1.19 0.27
6 27 -5 64.02 1.71
-6 27 5 60.77 1.58
6 -27 5 61.79 1.59
6 -27 -5 62.74 1.76
6 27 5 64.24 1.67
-6 -27 5 65.9 1.62
6 27 -6 -0.25 0.17
-6 27 6 0.01 0.17
-6 -27 6 0.47 0.19
7 27 0 6.05 0.41
7 -27 0 6.12 0.41
7 -27 1 27.24 0.89
7 27 -1 29.06 0.94
7 -27 -1 27.57 0.92
7 27 1 26.86 0.91
7 -27 2 16.73 0.61
7 27 -2 15.9 0.69
7 -27 -2 17.35 0.72
7 27 2 16.72 0.68
7 27 -3 0.72 0.22
7 -27 3 1.08 0.21
7 27 3 1.02 0.23
7 -27 -3 1.4 0.26
7 27 -4 3.19 0.37
7 -27 4 3.04 0.32
7 27 4 3.15 0.36
7 -27 -4 2.71 0.37
7 -27 5 -0.14 0.16
7 27 -5 0.13 0.18
7 27 5 -0.05 0.17
-7 -27 5 -0.09 0.15
7 -27 -5 0.07 0.21
-7 27 6 0.06 0.18
-7 -27 6 0.44 0.23
8 27 0 0.16 0.17
8 -27 0 -0.05 0.15
8 27 -1 11.71 0.59
8 -27 1 12.64 0.58
8 27 1 12.35 0.59
8 -27 -1 13.75 0.63
8 -27 2 3.95 0.34
8 27 -2 4.13 0.41
8 -27 -2 3.6 0.39
8 27 2 4.1 0.38
8 27 -3 3.04 0.36
8 -27 3 3.46 0.33
8 -27 -3 4.65 0.45
8 27 3 3.87 0.39
8 27 -4 -0.05 0.16
8 -27 4 0.11 0.17
8 -27 -4 -0.07 0.19
8 27 4 0.28 0.19
8 -27 5 11.54 0.61
9 27 0 -0.04 0.17
9 -27 0 0 0.17
9 27 -1 43.37 1.32
9 -27 1 47.42 1.32
9 27 1 45.91 1.32
9 -27 -1 44.92 1.34
9 27 -2 -0.07 0.17
9 27 2 0.04 0.17
9 -27 -2 0.02 0.17
9 27 -3 11.32 0.61
9 -27 3 10.56 0.52
9 -27 -3 11.7 0.63
9 27 3 10.86 0.57
9 -27 4 0.2 0.2
10 -27 0 0.27 0.2
10 27 0 0.5 0.21
10 27 -1 1.1 0.26
10 -27 1 0.79 0.23
10 27 1 1.1 0.26
10 -27 -1 1 0.26
10 -27 2 9.89 0.54
10 -27 -2 10.32 0.6
10 27 2 9.3 0.54
10 -27 4 5.13 0.39
11 -27 0 0.5 0.23
11 -27 1 35.44 1.16
11 -27 2 0.31 0.21
0 -28 0 99.66 2.19
0 28 0 98.82 2.21
0 -28 1 -0.11 0.11
0 -28 -1 0.23 0.14
0 28 -1 0 0.12
0 28 1 0.06 0.12
0 28 -2 21.8 0.73
0 28 2 22.45 0.74
0 -28 2 22.02 0.73
0 28 3 0.04 0.14
0 -28 3 0.2 0.14
0 28 4 12.16 0.56
0 -28 4 11.91 0.53
0 28 5 -0.07 0.17
0 -28 5 -0.01 0.14
0 -28 6 15.13 0.64
0 28 6 13.83 0.65
-1 -28 0 0.05 0.12
1 28 0 0.07 0.12
-1 28 0 -0.25 0.11
1 -28 0 0.3 0.14
1 28 -1 4.99 0.33
-1 28 1 4.43 0.32
1 -28 1 4.03 0.3
1 28 1 5.58 0.36
-1 -28 1 5.78 0.35
1 -28 -1 5.52 0.33
-1 28 -1 5.3 0.32
1 -28 2 3.7 0.31
-1 28 2 4.04 0.31
1 28 -2 3.68 0.33
1 28 2 4.59 0.35
-1 -28 2 4.56 0.33
1 -28 3 32.29 0.94
-1 28 3 32.48 0.97
1 28 -3 32.41 0.97
-1 -28 3 31.36 0.94
1 28 3 34.03 0.99
1 -28 4 1.5 0.24
-1 28 4 1.66 0.26
1 28 4 1.57 0.25
-1 -28 4 1.12 0.21
-1 28 5 10.48 0.54
1 -28 5 11.04 0.54
-1 -28 5 11.36 0.53
1 28 5 12 0.57
1 -28 6 0.21 0.17
-1 28 6 0.14 0.18
1 28 6 0.27 0.19
-1 -28 6 0.18 0.17
-2 -28 0 74.53 1.73
2 28 0 73.71 1.74
-2 28 0 71.03 1.68
2 -28 0 72.64 1.68
2 28 -1 29.13 0.89
2 -28 1 27.43 0.84
-2 28 1 29.05 0.85
2 -28 -1 29.82 0.84
-2 -28 1 30.48 0.89
2 28 1 29.41 0.89
2 28 -2 1.27 0.22
-2 28 2 1.36 0.22
2 -28 2 1.52 0.23
2 -28 -2 1.25 0.23
2 28 2 1.49 0.23
-2 -28 2 1.64 0.23
2 28 -3 18.89 0.71
2 -28 3 19.22 0.68
-2 28 3 19.21 0.69
2 28 3 20.36 0.72
-2 -28 3 19.54 0.69
2 28 -4 1.01 0.22
2 -28 4 1.19 0.23
-2 28 4 0.96 0.22
2 28 4 1.18 0.24
-2 -28 4 1.44 0.24
2 -28 5 -0.15 0.15
-2 28 5 0.17 0.18
2 28 5 0.24 0.19
-2 -28 5 0.16 0.16
2 -28 6 8.99 0.5
-2 28 6 9.82 0.53
2 28 6 9.9 0.54
-2 -28 6 9.2 0.52
3 -28 0 0.13 0.12
3 28 0 0.16 0.14
-3 28 1 2.01 0.23
3 -28 1 1.8 0.23
3 28 -1 1.55 0.24
3 28 1 1.88 0.25
3 -28 -1 1.32 0.21
-3 -28 1 2.13 0.25
3 -28 -1 1.73 0.21
-3 28 2 4.1 0.33
3 -28 2 3.96 0.34
3 28 -2 3.91 0.35
3 -28 -2 3.23 0.32
3 28 2 4.13 0.35
-3 -28 2 4.22 0.33
-3 28 3 13.96 0.57
3 28 -3 13.42 0.59
3 -28 3 14.38 0.58
3 28 3 14.19 0.6
3 -28 -3 14.38 0.62
-3 -28 3 12.78 0.56
3 28 -4 28.82 0.96
3 -28 4 29.27 0.91
-3 28 4 30 0.92
-3 -28 4 29.03 0.92
3 28 4 32.17 0.98
-3 28 5 4.22 0.37
3 28 -5 3.94 0.39
3 -28 5 3.52 0.35
-3 -28 5 4.37 0.38
3 28 5 3.41 0.36
3 -28 6 29.15 0.96
-3 28 6 30.58 0.99
-3 -28 6 31.09 0.97
3 28 6 27.75 0.98
4 -28 0 23.5 0.72
4 28 0 24.6 0.81
4 -28 1 4.78 0.31
4 28 -1 4.56 0.36
4 28 1 4.69 0.35
4 -28 -1 4.87 0.35
4 -28 2 5.86 0.37
-4 28 2 5.22 0.35
4 28 -2 5.77 0.4
4 28 2 6.08 0.4
-4 -28 2 5.92 0.38
4 -28 -2 5.87 0.4
4 -28 3 2.74 0.29
4 28 -3 2.9 0.33
-4 28 3 2.67 0.29
4 -28 -3 2.65 0.31
-4 -28 3 2.77 0.3
4 28 3 3.02 0.33
-4 28 4 6.71 0.42
4 28 -4 5.91 0.42
4 -28 4 5.45 0.38
-4 -28 4 5.25 0.38
4 28 4 5.41 0.42
4 -28 -4 6.19 0.45
4 -28 5 5.78 0.41
4 28 -5 5.86 0.44
-4 28 5 5.77 0.42
-4 -28 5 6.11 0.42
4 28 5 5.95 0.45
4 28 -6 3.42 0.39
-4 28 6 4.21 0.4
-4 -28 6 3.23 0.34
5 28 0 -0.03 0.14
5 -28 0 0.21 0.17
5 -28 1 -0.07 0.12
5 28 -1 0.06 0.16
5 28 1 -0.04 0.14
5 -28 -1 0.04 0.15
5 28 -2 16.79 0.69
5 -28 2 17.51 0.63
5 28 2 17.58 0.69
-5 -28 2 17.12 0.67
5 -28 -2 18.62 0.72
5 -28 3 6.18 0.39
5 28 -3 5.89 0.42
-5 -28 3 6.1 0.4
5 -28 -3 6.59 0.45
5 28 3 6.4 0.42
-5 28 4 39.42 1.1
5 28 -4 36.14 1.16
5 -28 4 39.36 1.11
5 28 4 39.29 1.16
5 -28 -4 39.32 1.21
-5 -28 4 38.05 1.11
5 -28 5 1.19 0.25
-5 28 5 1.85 0.28
5 28 -5 1.81 0.3
5 28 5 1.43 0.28
5 -28 -5 1.14 0.29
-5 -28 5 2.06 0.29
-5 28 6 26.72 0.91
5 28 -6 27.6 1
-5 -28 6 27.48 0.93
6 28 0 0.23 0.16
6 -28 0 0.42 0.18
6 28 -1 9.51 0.51
6 -28 1 8.92 0.42
6 28 1 8.09 0.47
6 -28 -1 8.56 0.49
6 28 -2 0.03 0.16
6 -28 2 0.42 0.16
6 28 2 0.19 0.16
6 -28 -2 0.04 0.16
6 28 -3 7.54 0.49
6 -28 3 8.35 0.44
6 -28 -3 7.15 0.48
-6 -28 3 8.26 0.46
6 28 3 8.32 0.49
6 -28 4 0.26 0.17
6 28 -4 0.08 0.16
6 28 4 -0.08 0.16
-6 -28 4 -0.16 0.16
6 -28 -4 0.03 0.18
6 28 -5 3 0.37
-6 28 5 2.13 0.3
6 -28 5 2.88 0.32
6 -28 -5 2.1 0.33
6 28 5 2.61 0.34
-6 -28 5 2.26 0.31
-6 28 6 0.27 0.2
7 -28 0 -0.24 0.14
7 28 0 -0.1 0.14
7 28 -1 -0.06 0.15
7 -28 -1 0.12 0.17
7 28 1 0.31 0.17
7 28 -2 2.23 0.32
7 -28 2 2.36 0.27
7 28 2 2.15 0.3
7 -28 -2 1.68 0.3
7 -28 3 2 0.27
7 28 -3 2.52 0.33
7 28 3 2.4 0.31
7 -28 -3 2.39 0.34
7 28 -4 18.96 0.8
7 -28 4 20.09 0.73
7 28 4 19.68 0.79
7 -28 -4 20.4 0.83
7 -28 5 4.56 0.43
7 28 -5 3.69 0.42
-7 -28 5 3.96 0.37
8 -28 0 48.45 1.38
8 28 0 49.35 1.39
8 -28 1 2.34 0.3
8 28 -1 1.78 0.29
8 28 1 1.55 0.28
8 -28 -1 2.96 0.35
8 28 -2 24.86 0.92
8 -28 -2 26.27 0.94
8 28 2 25.22 0.89
8 28 -3 3.99 0.41
8 -28 3 3.62 0.34
8 28 3 3.17 0.37
8 -28 -3 3.38 0.39
8 28 -4 4.37 0.45
8 -28 4 4.41 0.39
8 -28 -4 6.21 0.49
8 28 4 3.8 0.45
9 -28 0 -0.07 0.17
9 28 0 0 0.17
9 28 -1 3.27 0.39
9 -28 1 3.38 0.37
9 -28 -1 4.34 0.43
9 28 1 3.21 0.36
9 28 -2 0.1 0.18
9 -28 -2 0.2 0.2
9 28 2 0.14 0.18
9 -28 3 0.93 0.22
9 -28 -3 0.94 0.27
9 -28 4 2.54 0.32
10 -28 0 48.05 1.42
10 -28 1 2.49 0.34
10 -28 -1 2.51 0.34
0 -29 -1 0.17 0.13
0 29 1 -0.07 0.12
0 29 -1 -0.17 0.11
0 -29 1 0.01 0.13
0 29 2 10.72 0.52
0 -29 2 12.52 0.52
0 29 -2 12.83 0.53
0 -29 3 -0.11 0.14
0 29 3 -0.17 0.14
0 29 4 19.02 0.72
0 -29 4 18.46 0.69
0 -29 5 0.01 0.15
0 29 5 0.02 0.17
0 29 6 18.49 0.75
0 -29 6 17.43 0.71
1 -29 0 0.53 0.16
1 29 0 0.56 0.16
-1 29 0 0.7 0.17
-1 -29 0 0.46 0.16
-1 29 1 30.07 0.89
1 -29 1 30.95 0.88
1 29 -1 31.09 0.91
-1 -29 1 29.38 0.89
-1 29 -1 29.6 0.88
1 -29 -1 29.44 0.86
1 29 1 30.56 0.91
1 29 -2 19.05 0.68
-1 29 2 19.39 0.68
1 -29 2 18.59 0.66
-1 -29 2 20.33 0.69
1 29 2 18.42 0.69
1 29 -3 10.18 0.5
-1 29 3 10.76 0.52
1 -29 3 10.32 0.49
-1 -29 3 11.88 0.52
1 29 3 10.1 0.51
1 -29 4 0.41 0.17
-1 29 4 0.62 0.2
-1 -29 4 0.7 0.19
1 29 4 0.85 0.22
1 -29 5 4.61 0.39
-1 29 5 4.79 0.43
-1 -29 5 3.95 0.38
1 29 5 3.88 0.38
1 -29 6 -0.01 0.17
-1 29 6 0.2 0.19
1 29 6 0 0.18
-1 -29 6 0.06 0.18
2 -29 0 0.4 0.14
-2 -29 0 0.19 0.16
2 29 0 0.52 0.16
-2 29 1 9.8 0.45
2 29 -1 9.98 0.48
2 -29 1 9.54 0.45
2 29 1 10.3 0.5
-2 -29 1 9.53 0.47
2 -29 -1 10.14 0.44
-2 29 2 8.52 0.44
2 -29 2 7.34 0.42
2 29 -2 8.68 0.46
2 29 2 8.62 0.45
-2 -29 2 7.1 0.41
2 -29 -2 8.29 0.45
2 29 -3 2.31 0.29
2 -29 3 2.78 0.3
-2 29 3 2.77 0.31
2 29 3 2.61 0.31
-2 -29 3 3.11 0.32
2 -29 4 17.13 0.66
2 29 -4 16.82 0.69
-2 29 4 17.24 0.67
2 29 4 16.25 0.68
-2 -29 4 17.1 0.66
2 -29 5 10.36 0.53
-2 29 5 9.89 0.54
2 29 5 10.74 0.56
-2 -29 5 10.09 0.53
-2 29 6 13.34 0.64
-2 -29 6 11.68 0.58
3 -29 0 25.6 0.76
3 29 0 24.68 0.81
3 29 -1 4.07 0.36
3 -29 1 4.09 0.33
-3 -29 1 4.12 0.35
3 29 1 3.41 0.33
3 -29 -1 3.31 0.3
3 -29 2 23.07 0.75
-3 29 2 22.92 0.75
3 29 -2 23.31 0.8
-3 -29 2 23.39 0.78
3 -29 -2 24.08 0.81
3 29 2 23.48 0.81
3 -29 3 0.46 0.18
3 29 -3 0.39 0.17
-3 29 3 0.29 0.16
3 29 3 0.46 0.19
3 -29 -3 0.32 0.18
-3 -29 3 0.43 0.18
3 -29 4 0.59 0.19
3 29 -4 0.31 0.18
-3 29 4 0.47 0.19
-3 -29 4 0.48 0.19
3 29 4 0.57 0.21
3 -29 5 -0.01 0.16
-3 29 5 0.26 0.2
3 29 5 0.48 0.21
-3 -29 5 0.13 0.17
-3 29 6 12.11 0.6
4 -29 0 0.23 0.13
4 29 0 -0.03 0.14
4 -29 1 14.84 0.56
4 29 -1 15.32 0.62
4 29 1 13 0.58
4 -29 -1 13.16 0.58
4 -29 2 2.74 0.29
4 29 -2 2.63 0.31
-4 -29 2 2.23 0.28
4 -29 -2 2.39 0.3
4 29 2 2.24 0.29
4 29 -3 11.77 0.57
-4 29 3 11.49 0.53
4 -29 3 11.4 0.53
4 29 3 12.12 0.56
-4 -29 3 11.2 0.53
4 -29 -3 11.37 0.57
-4 29 4 0.32 0.18
4 29 -4 -0.12 0.14
4 -29 4 -0.07 0.15
-4 -29 4 0.19 0.16
4 -29 -4 0.24 0.19
4 29 4 0.1 0.19
4 29 -5 46.54 1.37
4 -29 5 47.36 1.31
-4 29 5 49.05 1.32
-4 -29 5 47.06 1.31
4 29 5 48.26 1.37
-4 29 6 3.33 0.37
5 29 0 24.91 0.85
5 29 -1 0.87 0.23
5 -29 1 0.91 0.19
5 29 1 0.47 0.19
5 -29 -1 0.85 0.2
5 29 -2 30.11 0.97
5 -29 2 28.88 0.88
5 -29 -2 30.43 0.98
5 29 2 27.51 0.93
5 -29 3 0.85 0.2
5 29 -3 0.44 0.2
5 -29 -3 0.71 0.23
5 29 3 0.65 0.2
-5 -29 3 0.85 0.21
5 -29 4 0.14 0.16
-5 29 4 0.64 0.21
5 29 -4 0.09 0.17
5 29 4 0.32 0.2
-5 -29 4 0.37 0.18
5 -29 -4 0.58 0.22
-5 29 5 0.43 0.2
5 -29 5 0.07 0.18
5 29 -5 0.36 0.2
-5 -29 5 0.11 0.17
5 -29 -5 -0.04 0.19
5 29 5 0.41 0.22
5 29 -6 12.37 0.65
6 29 0 0.09 0.15
6 -29 1 4.18 0.32
6 29 -1 3.86 0.38
6 29 1 4.47 0.4
6 -29 -1 4.51 0.4
6 29 -2 1.43 0.27
6 -29 2 1.64 0.24
6 29 2 1.25 0.24
6 -29 -2 2.27 0.31
6 -29 3 3.01 0.31
6 29 -3 2.22 0.32
6 -29 -3 2.69 0.35
6 29 3 2.7 0.33
6 -29 4 1.11 0.23
6 29 -4 0.44 0.19
6 29 4 0.6 0.21
6 -29 -4 0.84 0.25
-6 -29 4 0.78 0.22
6 29 -5 42.87 1.34
-6 29 5 43.88 1.27
-6 -29 5 43.61 1.32
7 -29 0 14.51 0.64
7 29 0 15.36 0.68
7 29 -1 2.21 0.31
7 -29 -1 1.86 0.3
7 29 1 2.14 0.3
7 29 -2 17.17 0.74
7 -29 2 17.37 0.65
7 29 2 16.93 0.7
7 -29 -2 16.83 0.73
7 29 -3 0.13 0.19
7 -29 3 0.24 0.16
7 -29 -3 0.11 0.19
7 29 3 0.08 0.17
7 -29 4 3.55 0.35
7 29 -4 2.3 0.33
7 -29 -4 2.98 0.39
7 29 4 3.35 0.44
8 29 0 -0.16 0.16
8 -29 0 -0.05 0.16
8 29 -1 2.28 0.32
8 -29 -1 2.01 0.31
8 29 1 2.51 0.33
8 29 -2 10.69 0.6
8 -29 -2 10.57 0.6
8 29 2 11.43 0.58
8 -29 3 5.53 0.39
8 29 -3 4.46 0.45
8 -29 -3 5.16 0.46
8 29 3 5.87 0.45
8 -29 4 13.8 0.62
9 -29 0 3.49 0.38
9 29 0 3.3 0.39
9 29 -1 19.45 0.89
9 29 1 19.02 0.8
9 -29 -1 20.57 0.83
9 -29 -2 0.38 0.24
10 -29 0 0.07 0.19
10 -29 1 0.38 0.21
10 -29 -1 -0.1 0.2
0 30 0 170.66 3.59
0 -30 0 170.56 3.56
0 -30 1 -0.11 0.11
0 30 -1 0.2 0.14
0 30 1 0.09 0.13
0 30 2 0.46 0.17
0 -30 2 0.52 0.17
0 30 3 -0.05 0.14
0 -30 3 -0.13 0.14
0 30 4 1.68 0.28
0 -30 4 1.76 0.27
0 -30 5 -0.14 0.15
0 30 5 0.03 0.18
-1 30 0 0.27 0.13
1 30 0 -0.02 0.13
-1 -30 0 0.06 0.14
1 -30 0 0.12 0.13
-1 30 1 4.13 0.34
1 30 -1 4.16 0.36
1 -30 1 3.24 0.31
1 -30 -1 2.9 0.28
1 30 1 3.48 0.34
-1 -30 1 3.9 0.34
1 -30 2 2.11 0.26
1 30 -2 1.78 0.26
-1 30 2 2.31 0.28
-1 -30 2 1.93 0.26
1 30 2 2.48 0.29
1 -30 3 30.68 0.94
-1 30 3 30.7 0.96
1 30 3 30.6 0.97
-1 -30 3 31.64 0.95
1 -30 4 0.32 0.17
-1 30 4 0.09 0.17
-1 -30 4 0.2 0.17
1 30 4 0.2 0.19
-1 30 5 17.27 0.71
1 -30 5 16.28 0.68
1 30 5 16.16 0.7
-1 -30 5 15.89 0.67
2 -30 0 32.27 0.92
2 30 0 32.4 0.97
2 30 -1 18.47 0.68
2 -30 1 18.02 0.64
-2 30 1 17.25 0.63
2 30 1 16.33 0.66
-2 -30 1 18.55 0.67
2 -30 -1 18.14 0.63
-2 30 2 0.59 0.19
2 -30 2 0.54 0.18
2 30 -2 1.06 0.22
-2 -30 2 0.77 0.2
2 30 2 0.95 0.21
2 -30 3 8.18 0.45
2 30 -3 7.25 0.44
-2 30 3 7.68 0.44
-2 -30 3 7.88 0.44
2 30 3 7.82 0.46
-2 30 4 -0.02 0.16
2 -30 4 0.24 0.18
2 30 4 0.35 0.19
-2 -30 4 0.37 0.18
-2 30 5 0.27 0.2
2 -30 5 0.42 0.21
-2 -30 5 0.27 0.18
2 30 5 0.54 0.21
3 30 0 0.16 0.14
3 -30 0 0.25 0.13
3 -30 1 3.25 0.3
3 30 -1 3.85 0.37
-3 -30 1 3.46 0.34
3 30 1 2.72 0.3
3 30 -2 1.72 0.26
3 -30 2 2.08 0.26
-3 30 2 1.9 0.26
3 30 2 1.66 0.26
-3 -30 2 2.15 0.28
3 -30 -2 1.84 0.26
-3 30 3 12.41 0.56
3 -30 3 11.57 0.53
3 30 -3 12.25 0.58
3 30 3 11.88 0.57
3 -30 -3 11.43 0.58
-3 -30 3 12.34 0.55
-3 30 4 3.33 0.35
3 30 -4 4.4 0.41
3 -30 4 3.55 0.35
3 30 4 2.75 0.33
-3 -30 4 3.47 0.35
-3 30 5 13.81 0.62
3 -30 5 14.18 0.62
3 30 5 12.63 0.63
-3 -30 5 12.46 0.6
4 -30 0 2.55 0.27
4 30 0 2.17 0.29
4 30 -1 52.53 1.4
4 -30 1 50.88 1.3
4 30 1 49.01 1.36
4 -30 2 0.21 0.15
4 30 -2 0.15 0.16
4 30 2 -0.03 0.16
4 -30 -2 0.18 0.16
-4 -30 2 0.09 0.16
4 -30 3 11.53 0.54
4 30 -3 11.61 0.57
-4 30 3 12.08 0.55
-4 -30 3 12.31 0.57
4 -30 -3 12 0.6
4 30 3 13.06 0.59
-4 30 4 2.19 0.3
4 30 -4 1.45 0.27
4 -30 4 1.69 0.27
4 30 4 1.11 0.26
4 -30 -4 2.28 0.33
-4 -30 4 1.61 0.28
4 -30 5 5.42 0.45
-4 30 5 4.53 0.41
4 30 -5 3.37 0.39
-4 -30 5 4.8 0.42
5 30 0 0.29 0.17
5 -30 1 0.26 0.15
5 30 -1 0.06 0.16
5 -30 -1 0.12 0.16
5 30 1 0.06 0.16
5 30 -2 0.51 0.2
5 -30 2 0.02 0.15
5 -30 -2 0.27 0.18
5 30 2 0.32 0.19
5 30 -3 13.46 0.63
5 -30 3 12.92 0.57
5 -30 -3 12.12 0.61
-5 -30 3 13.38 0.6
5 30 3 12.3 0.61
5 30 -4 17.48 0.76
5 -30 4 18.8 0.72
5 -30 -4 17.67 0.78
-5 -30 4 17.79 0.71
5 30 4 17.77 0.74
-5 30 5 0.16 0.19
5 30 -5 0.22 0.18
6 30 0 0.52 0.2
6 30 -1 25.38 0.9
6 -30 -1 26.71 0.9
6 30 1 23.39 0.86
6 -30 2 1.51 0.24
6 30 -2 1.3 0.27
6 -30 -2 1.52 0.27
6 30 2 1.28 0.25
6 30 -3 5.31 0.47
6 -30 3 5.47 0.4
6 -30 -3 5.2 0.46
6 30 3 4.89 0.44
6 30 -4 -0.15 0.16
6 -30 4 0.19 0.19
-6 -30 4 -0.03 0.17
6 -30 -4 0.08 0.19
7 30 0 0.36 0.19
7 30 -1 3.85 0.4
7 30 1 2.7 0.34
7 -30 -1 2.72 0.35
7 30 -2 0.51 0.22
7 -30 2 1.01 0.22
7 30 2 0.85 0.24
7 -30 -2 0.86 0.24
7 30 -3 2.82 0.36
7 -30 3 3.66 0.35
7 -30 -3 3.68 0.41
7 30 3 3.45 0.38
7 -30 4 3.51 0.36
8 30 0 39 1.19
8 -30 0 36.72 1.17
8 30 -1 22.59 0.87
8 30 1 21.66 0.84
8 -30 -1 21.35 0.84
8 30 -2 4.83 0.48
8 -30 -2 5.36 0.47
8 -30 3 5.02 0.38
8 -30 -3 4.59 0.47
9 -30 0 -0.01 0.2
9 -30 -1 15.52 0.72
0 31 1 0.21 0.15
0 -31 1 0.08 0.14
0 31 -1 -0.2 0.12
0 31 2 10.61 0.52
0 -31 2 10.85 0.52
0 -31 3 0.2 0.16
0 31 3 -0.1 0.15
0 31 4 40.32 1.18
0 -31 4 38.69 1.14
0 31 5 -0.07 0.18
0 -31 5 -0.11 0.17
1 31 0 26.64 0.87
-1 -31 0 27.46 0.87
1 -31 0 29.38 0.87
-1 31 0 28.7 0.86
-1 31 1 16.23 0.62
1 31 -1 17.14 0.65
1 -31 1 16.11 0.62
1 31 1 18.22 0.67
-1 -31 1 15.58 0.62
1 -31 -1 16.58 0.62
1 31 -2 5.6 0.37
-1 31 2 4.93 0.38
1 -31 2 5.49 0.38
1 31 2 4.66 0.39
-1 -31 2 5.77 0.38
-1 31 3 0.01 0.15
1 -31 3 0.2 0.17
-1 -31 3 0.25 0.17
1 31 3 0.16 0.18
1 -31 4 -0.14 0.16
-1 31 4 0.15 0.18
1 31 4 0.21 0.19
-1 -31 4 0.14 0.16
-1 31 5 3.57 0.38
1 -31 5 3.6 0.39
1 31 5 3.9 0.4
-1 -31 5 3.65 0.38
2 31 0 0.11 0.14
2 -31 0 -0.03 0.13
2 -31 1 3.16 0.3
-2 31 1 2.5 0.28
2 31 -1 3.26 0.32
2 31 1 3.26 0.32
2 -31 -1 3.31 0.3
-2 -31 1 3.06 0.31
2 31 -2 14.05 0.61
-2 31 2 13.41 0.57
2 -31 2 15.14 0.59
-2 -31 2 14.14 0.6
2 31 2 14.28 0.61
-2 31 3 2.05 0.28
2 31 -3 2.52 0.31
2 -31 3 2.29 0.3
2 31 3 2.1 0.3
-2 -31 3 2.64 0.31
-2 31 4 23.58 0.84
2 -31 4 23.38 0.82
2 31 4 24.09 0.86
-2 -31 4 24.63 0.84
-2 31 5 1.86 0.3
3 31 0 46.84 1.3
3 -31 0 49.02 1.24
3 31 -1 1.03 0.23
3 -31 1 1.22 0.21
-3 -31 1 1.15 0.23
3 31 1 0.99 0.21
3 31 -2 5.13 0.39
3 -31 2 5.89 0.38
-3 31 2 6.43 0.43
-3 -31 2 5.94 0.41
3 31 2 5.76 0.41
-3 31 3 5.1 0.42
3 31 -3 5.38 0.41
3 -31 3 5.83 0.39
3 31 3 5.51 0.42
-3 -31 3 5.48 0.39
3 -31 4 0.68 0.22
3 31 -4 0.84 0.23
-3 31 4 0.54 0.21
3 31 4 1.07 0.26
-3 -31 4 0.68 0.2
-3 31 5 1.07 0.25
4 31 0 -0.09 0.14
4 31 -1 0.03 0.16
4 -31 1 0.35 0.16
4 31 1 0.53 0.18
4 -31 2 10.41 0.5
4 31 -2 9.94 0.53
-4 -31 2 10.93 0.53
4 31 2 10.69 0.55
4 -31 -2 10.34 0.54
4 31 -3 0.52 0.2
4 -31 3 0.12 0.16
4 -31 -3 0.13 0.19
4 31 3 0.33 0.19
-4 -31 3 -0.14 0.16
-4 31 4 14.29 0.63
4 -31 4 13.91 0.61
4 31 -4 14.98 0.68
4 31 4 14.47 0.67
-4 -31 4 12.14 0.59
-4 31 5 6.26 0.46
4 31 -5 5.43 0.49
5 31 0 72.56 1.83
5 -31 1 1.3 0.23
5 31 -1 1.53 0.27
5 31 1 1.69 0.26
5 31 -2 17.09 0.71
5 -31 2 15.15 0.62
5 -31 -2 15.13 0.68
5 31 2 16.31 0.68
5 -31 3 2.63 0.31
5 31 -3 2.57 0.34
5 -31 -3 2.65 0.34
-5 -31 3 2.06 0.28
5 31 3 2.74 0.34
5 31 -4 1.86 0.32
5 -31 4 1.53 0.27
5 -31 -4 1.97 0.32
5 31 -5 1.13 0.28
-5 31 5 1.6 0.29
6 31 0 -0.04 0.16
6 31 -1 7.01 0.47
6 31 1 6.73 0.46
6 -31 2 0.27 0.18
6 31 -2 0.23 0.19
6 31 2 0.09 0.19
6 -31 -2 -0.05 0.17
6 -31 3 2.82 0.31
6 31 -3 3.52 0.39
6 31 3 2.63 0.33
6 -31 -3 3.08 0.37
6 -31 4 4 0.41
6 31 -4 4.37 0.45
6 -31 -4 3.81 0.43
7 31 0 50.91 1.45
7 31 -1 0.88 0.24
7 31 1 0.77 0.23
7 -31 -1 1.09 0.25
7 31 -2 22.99 0.9
7 -31 -2 23.87 0.91
7 31 2 24.1 0.96
7 -31 3 0.49 0.21
7 -31 -3 0.54 0.24
8 -31 -1 0.1 0.2
8 -31 -2 4.77 0.47
8 -31 3 1.79 0.28
9 -31 -1 2.9 0.38
0 -32 0 14.04 0.57
0 32 0 13.91 0.58
0 32 1 0 0.14
0 -32 1 0.04 0.15
0 -32 2 2.29 0.29
0 32 2 2.31 0.29
0 32 3 -0.26 0.15
0 -32 3 -0.01 0.16
0 32 4 3.96 0.4
0 -32 4 3.65 0.37
-1 -32 0 0.41 0.17
1 -32 0 0.45 0.17
1 32 0 0.16 0.15
1 32 -1 8.43 0.46
1 -32 1 7.89 0.43
-1 32 1 8.12 0.44
1 -32 -1 8.56 0.44
1 32 1 8.72 0.47
-1 -32 1 7.98 0.45
1 -32 2 1.78 0.26
-1 32 2 1.72 0.26
1 32 2 1.88 0.26
-1 -32 2 0.96 0.21
1 -32 3 27.98 0.91
-1 32 3 28.01 0.94
1 32 3 28.82 0.95
-1 -32 3 29.93 0.93
-1 32 4 2.71 0.33
1 -32 4 2.27 0.31
1 32 4 2.42 0.32
-1 -32 4 2.43 0.32
2 -32 0 0.49 0.17
2 32 0 0.29 0.16
2 -32 1 14.13 0.59
2 32 -1 15.17 0.62
-2 -32 1 14.84 0.61
2 -32 -1 15.51 0.62
2 32 1 13.63 0.6
2 32 -2 0.27 0.17
2 -32 2 0.4 0.18
-2 32 2 0.51 0.19
-2 -32 2 0.44 0.19
2 32 2 0.46 0.18
-2 32 3 3.22 0.34
2 -32 3 3.28 0.35
-2 -32 3 3.66 0.35
2 32 3 3.28 0.36
2 -32 4 0.11 0.17
-2 32 4 0.19 0.18
2 32 4 0.03 0.19
-2 -32 4 0.04 0.17
3 -32 0 0.37 0.16
3 32 0 0.26 0.17
3 32 -1 1.43 0.25
3 -32 1 1.32 0.22
-3 -32 1 1.28 0.24
3 32 1 1.4 0.25
3 32 -2 1.18 0.24
3 -32 2 1.4 0.24
3 32 2 0.94 0.23
-3 -32 2 1.15 0.23
3 -32 3 2.52 0.3
-3 32 3 2.53 0.31
3 32 -3 2.4 0.32
3 32 3 2.14 0.31
-3 -32 3 1.99 0.28
3 -32 4 2.24 0.31
-3 32 4 1.77 0.29
3 32 4 1.85 0.3
4 32 0 6.55 0.43
4 -32 1 52.62 1.33
4 32 -1 48.69 1.4
4 32 1 51.44 1.41
4 -32 2 0.37 0.19
4 32 -2 0.68 0.22
-4 -32 2 0.67 0.22
4 32 2 0.34 0.19
4 -32 3 1.93 0.27
4 32 -3 1.99 0.31
4 -32 -3 2.13 0.32
-4 -32 3 2.04 0.29
4 32 3 1.95 0.3
4 -32 4 1.38 0.27
-4 32 4 0.94 0.24
4 32 -4 1.01 0.25
5 32 0 0.06 0.17
5 -32 1 -0.08 0.15
5 32 -1 -0.04 0.16
5 32 1 0.28 0.18
5 -32 2 1.4 0.24
5 32 -2 2.16 0.31
5 32 2 1.48 0.26
5 -32 -2 1.78 0.33
5 32 -3 3.28 0.38
5 -32 3 3.38 0.35
5 -32 -3 3.95 0.41
5 32 3 4.31 0.47
5 32 -4 -0.14 0.18
5 -32 -4 0.45 0.23
6 32 0 1.69 0.29
6 32 -1 57.27 1.55
6 32 1 54.9 1.53
6 -32 2 0.2 0.18
6 32 -2 0.07 0.18
6 32 2 -0.05 0.2
6 -32 -2 0.07 0.18
6 32 -3 23.94 0.94
6 -32 3 26.62 0.88
6 -32 -3 26.71 0.98
7 -32 -2 1.07 0.27
7 -32 3 7.19 0.45
8 -32 -1 19.88 0.83
0 -33 0 0.37 0.17
0 33 0 0.21 0.16
0 -33 1 -0.14 0.14
0 33 1 -0.06 0.15
0 -33 2 17.49 0.68
0 33 2 17.61 0.69
0 33 3 0.04 0.17
0 -33 3 -0.17 0.15
0 33 4 48.47 1.38
1 33 0 18.39 0.7
1 -33 0 19.2 0.69
-1 -33 0 18.8 0.7
-1 33 1 0.08 0.15
1 33 -1 0.41 0.17
1 -33 1 0.14 0.16
1 33 1 0.15 0.15
-1 -33 1 0.22 0.16
-1 33 2 0.34 0.17
1 -33 2 0.57 0.19
1 33 2 0.54 0.2
-1 -33 2 0.23 0.18
-1 33 3 2.66 0.33
1 -33 3 1.81 0.27
-1 -33 3 2.53 0.31
1 33 3 2.47 0.32
-1 33 4 1.17 0.27
1 33 4 1.29 0.27
2 33 0 0.05 0.15
2 -33 0 0.06 0.15
2 33 -1 1.88 0.28
2 -33 1 1.82 0.25
2 33 1 1.68 0.27
-2 -33 1 1.76 0.27
2 33 -2 23.96 0.84
2 -33 2 23.89 0.81
-2 33 2 23.19 0.81
-2 -33 2 24.92 0.85
2 33 2 23.02 0.83
-2 33 3 5.81 0.41
2 -33 3 7.02 0.44
-2 -33 3 6.04 0.43
2 33 3 5.51 0.43
-2 33 4 33.34 1.06
3 -33 0 23.82 0.79
3 33 0 25.62 0.87
3 33 -1 5.58 0.43
3 -33 1 5.34 0.38
3 33 1 5.48 0.46
3 -33 2 21.11 0.75
3 33 -2 21.49 0.8
-3 -33 2 20.24 0.77
3 33 2 21.87 0.81
3 -33 3 1.57 0.28
-3 33 3 1.37 0.26
3 33 -3 1.53 0.28
-3 -33 3 1.52 0.29
3 33 3 1.66 0.28
-3 33 4 9.3 0.54
4 33 0 0.08 0.16
4 33 -1 2.82 0.34
4 -33 1 2.82 0.3
4 33 1 2.21 0.31
4 -33 2 2.81 0.33
4 33 -2 3.32 0.37
4 33 2 3.18 0.36
-4 -33 2 2.74 0.34
4 -33 3 0.81 0.22
4 33 -3 0.56 0.22
4 -33 -3 0.66 0.24
4 33 -4 7.67 0.52
5 33 0 41.86 1.25
5 33 -1 0.92 0.24
5 33 1 1.27 0.26
5 -33 2 15.76 0.65
5 33 -2 16.17 0.72
5 -33 3 0 0.17
5 33 -3 -0.21 0.16
5 -33 -3 -0.22 0.18
6 -33 2 -0.09 0.16
6 -33 -3 0.58 0.25
7 -33 -2 11.06 0.62
0 34 0 11.54 0.54
0 -34 0 11.61 0.55
0 -34 1 -0.17 0.14
0 34 1 0.1 0.16
0 34 2 0.24 0.17
0 -34 2 0.47 0.19
0 34 3 0.37 0.18
1 34 0 0.1 0.15
1 -34 0 0.09 0.15
1 34 -1 0.27 0.18
-1 34 1 0.15 0.16
1 -34 1 0.23 0.16
1 34 1 0.48 0.19
-1 -34 1 0.36 0.19
-1 34 2 0.24 0.17
1 -34 2 0.29 0.18
1 34 2 0.35 0.19
-1 -34 2 0.35 0.19
1 -34 3 17.73 0.75
-1 34 3 16.44 0.71
1 34 3 16.18 0.7
2 34 0 12.71 0.59
2 -34 0 12.84 0.56
2 34 -1 19.18 0.74
2 -34 1 18.31 0.69
2 34 1 18.65 0.73
-2 -34 1 17.41 0.7
2 34 -2 4.59 0.41
2 -34 2 4.13 0.37
-2 -34 2 4.27 0.39
2 34 2 4.02 0.39
2 -34 3 0.23 0.2
-2 34 3 0.18 0.19
2 34 3 0.15 0.21
3 34 0 0.44 0.18
3 -34 1 1.39 0.24
3 34 -1 1.63 0.28
3 34 1 1.96 0.29
3 -34 2 8.99 0.5
3 34 -2 8.8 0.52
3 34 2 8.63 0.52
3 34 -3 13.09 0.63
-3 34 4 3.57 0.43
4 34 0 4.87 0.43
4 34 -1 36.09 1.13
4 -34 1 34.22 1.02
4 34 1 34.25 1.09
4 -34 2 0.24 0.18
4 34 -2 0.21 0.19
4 34 -3 1.21 0.27
5 34 -1 0.08 0.21
5 -34 2 3.61 0.35
0 -35 0 0.15 0.17
0 -35 1 -0.04 0.16
0 35 1 0.26 0.17
0 -35 2 27.1 0.97
0 35 2 28.59 0.95
1 -35 0 2.26 0.3
1 35 0 3.06 0.34
1 -35 1 16.97 0.67
-1 -35 1 15.98 0.67
1 35 1 16.23 0.67
-1 35 2 1.39 0.24
1 -35 2 1.6 0.28
1 35 2 1.54 0.28
-1 35 3 0.29 0.19
2 35 0 0.47 0.19
2 -35 0 0.04 0.16
2 -35 1 1.08 0.23
2 35 -1 0.52 0.21
2 35 1 0.48 0.2
-2 -35 1 0.78 0.23
2 -35 2 1.97 0.28
2 35 2 2.66 0.34
-2 35 3 1.55 0.29
3 35 0 10.16 0.55
3 35 -1 5.69 0.44
3 -35 1 7.23 0.44
3 35 1 6.24 0.45
3 35 -2 9.27 0.54
3 -35 2 8.26 0.48
4 35 -1 0.43 0.23
4 -35 2 1.54 0.3
0 -36 0 37.56 1.13
0 36 1 0.08 0.16
0 36 2 15.19 0.68
1 -36 0 0.08 0.16
1 36 0 0.09 0.16
1 -36 1 2.48 0.34
1 36 1 1.76 0.29
-1 36 2 5.54 0.41
2 -36 0 16.26 0.66
2 36 0 16.24 0.69
2 36 -1 0.11 0.18
2 -36 1 0.06 0.17
3 -36 1 0.13 0.17
