#------------------------------------------------------------------------------
#$Date: 2017-06-05 03:16:50 +0300 (Mon, 05 Jun 2017) $
#$Revision: 197407 $
#$URL: file:///home/coder/svn-repositories/cod/cif/4/12/59/4125934.cif $
#------------------------------------------------------------------------------
#
# This file is available in the Crystallography Open Database (COD),
# http://www.crystallography.net/
#
# All data on this site have been placed in the public domain by the
# contributors.
#
data_4125934
loop_
_publ_author_name
'Marshall, Ross J.'
'Kalinovskyy, Yaroslav'
'Griffin, Sarah L.'
'Wilson, Claire'
'Blight, Barry A.'
'Forgan, Ross S.'
_publ_section_title
;
 Functional Versatility of a Series of Zr Metal-Organic Frameworks Probed
 by Solid-State Photoluminescence Spectroscopy.
;
_journal_issue                   17
_journal_name_full               'Journal of the American Chemical Society'
_journal_page_first              6253
_journal_page_last               6260
_journal_paper_doi               10.1021/jacs.7b02184
_journal_volume                  139
_journal_year                    2017
_chemical_formula_moiety         'C144 H64 Hf6 N12 O32 S6'
_chemical_formula_sum            'C144 H64 Hf6 N12 O32 S6'
_chemical_formula_weight         3737.37
_space_group_crystal_system      cubic
_space_group_IT_number           227
_space_group_name_Hall           '-F 4vw 2vw 3'
_space_group_name_H-M_alt        'F d -3 m'
_symmetry_space_group_name_Hall  '-F 4vw 2vw 3'
_symmetry_space_group_name_H-M   'F d -3 m :2'
_atom_sites_solution_hydrogens   geom
_audit_creation_date             2016-09-05
_audit_creation_method
;
Olex2 1.2
(compiled 2016.08.25 svn.r3337 for OlexSys, GUI svn.r5221)
;
_cell_angle_alpha                90
_cell_angle_beta                 90
_cell_angle_gamma                90
_cell_formula_units_Z            8
_cell_length_a                   39.867(2)
_cell_length_b                   39.867(2)
_cell_length_c                   39.867(2)
_cell_measurement_reflns_used    4015
_cell_measurement_temperature    100(2)
_cell_measurement_theta_max      26.9740
_cell_measurement_theta_min      2.2520
_cell_volume                     63364(6)
_computing_cell_refinement       'CrysAlisPro 1.171.38.43 (Rigaku OD, 2015)'
_computing_data_collection
;
CrystalClear-SM Expert 3.1 b27 (Rigaku, 2013)
;
_computing_data_reduction        'CrysAlisPro 1.171.38.43 (Rigaku OD, 2015)'
_computing_molecular_graphics    'Olex2 (Dolomanov et al., 2009)'
_computing_publication_material  'Olex2 (Dolomanov et al., 2009)'
_computing_structure_refinement  'ShelXL (Sheldrick, 2015)'
_computing_structure_solution    'SHELXT 2014/5 (Sheldrick, 2014)'
_diffrn_ambient_temperature      100(2)
_diffrn_detector                 'CCD area detector'
_diffrn_detector_area_resol_mean 28.5714
_diffrn_detector_type            'Rigaku HG Saturn724+ (2x2 bin mode)'
_diffrn_measured_fraction_theta_full 0.998
_diffrn_measured_fraction_theta_max 0.998
_diffrn_measurement_details
;
List of Runs (angles in degrees, time in seconds):

  # Type    Start    End  Width  t~exp~   \w     \q     \k     \f   Frames
--------------------------------------------------------------------------
  1  \w   -107.00 -40.00   1.00  100.00    --  -17.00   0.00-180.00   67
;
_diffrn_measurement_device       'four-circle \k goniometer'
_diffrn_measurement_device_type
;
Rigaku FRE+ equipped with VHF Varimax confocal mirrors and an AFC10 goniometer and HG Saturn 724+ detector
;
_diffrn_measurement_method       'profile data from \w-scans'
_diffrn_measurement_specimen_support 'MiTeGen MicroLoop'
_diffrn_orient_matrix_type
'CrysAlisPro convention (1999,Acta A55,543-557)'
_diffrn_orient_matrix_UB_11      0.0033213387
_diffrn_orient_matrix_UB_12      -0.0233210226
_diffrn_orient_matrix_UB_13      -0.0004818387
_diffrn_orient_matrix_UB_21      0.0077637232
_diffrn_orient_matrix_UB_22      0.0058317463
_diffrn_orient_matrix_UB_23      -0.0098631232
_diffrn_orient_matrix_UB_31      0.0277966846
_diffrn_orient_matrix_UB_32      0.0163617692
_diffrn_orient_matrix_UB_33      0.0028244154
_diffrn_radiation_collimation    0.2
_diffrn_radiation_monochromator  'Confocal mirrors, VHF Varimax'
_diffrn_radiation_probe          x-ray
_diffrn_radiation_type           MoK\a
_diffrn_radiation_wavelength     0.71073
_diffrn_reflns_av_R_equivalents  0.1025
_diffrn_reflns_av_unetI/netI     0.0596
_diffrn_reflns_Laue_measured_fraction_full 0.998
_diffrn_reflns_Laue_measured_fraction_max 0.998
_diffrn_reflns_limit_h_max       30
_diffrn_reflns_limit_h_min       -35
_diffrn_reflns_limit_k_max       47
_diffrn_reflns_limit_k_min       -32
_diffrn_reflns_limit_l_max       24
_diffrn_reflns_limit_l_min       -47
_diffrn_reflns_number            20748
_diffrn_reflns_point_group_measured_fraction_full 0.998
_diffrn_reflns_point_group_measured_fraction_max 0.998
_diffrn_reflns_theta_full        25.025
_diffrn_reflns_theta_max         25.025
_diffrn_reflns_theta_min         2.227
_diffrn_source                   'Rotating Anode'
_diffrn_source_current           55.0
_diffrn_source_power             2.475
_diffrn_source_target            Mo
_diffrn_source_type              'Rigaku FRE+'
_diffrn_source_voltage           45.0
_exptl_absorpt_coefficient_mu    2.032
_exptl_absorpt_correction_T_max  1.00000
_exptl_absorpt_correction_T_min  0.90096
_exptl_absorpt_correction_type   multi-scan
_exptl_absorpt_process_details
;
CrysAlisPro 1.171.38.43 (Rigaku Oxford Diffraction, 2015)
Empirical absorption correction using spherical harmonics,
 implemented in SCALE3 ABSPACK scaling algorithm.
;
_exptl_crystal_colour            yellow
_exptl_crystal_colour_primary    yellow
_exptl_crystal_density_diffrn    0.784
_exptl_crystal_description       block
_exptl_crystal_F_000             14368
_exptl_crystal_size_max          0.03
_exptl_crystal_size_mid          0.03
_exptl_crystal_size_min          0.03
_refine_diff_density_max         1.516
_refine_diff_density_min         -0.674
_refine_diff_density_rms         0.110
_refine_ls_extinction_method     none
_refine_ls_goodness_of_fit_ref   1.020
_refine_ls_hydrogen_treatment    constr
_refine_ls_matrix_type           full
_refine_ls_number_parameters     98
_refine_ls_number_reflns         2658
_refine_ls_number_restraints     0
_refine_ls_restrained_S_all      1.020
_refine_ls_R_factor_all          0.0793
_refine_ls_R_factor_gt           0.0427
_refine_ls_shift/su_max          0.001
_refine_ls_shift/su_mean         0.000
_refine_ls_structure_factor_coef Fsqd
_refine_ls_weighting_details
'w=1/[\s^2^(Fo^2^)+(0.0649P)^2^+102.9702P] where P=(Fo^2^+2Fc^2^)/3'
_refine_ls_weighting_scheme      calc
_refine_ls_wR_factor_gt          0.1058
_refine_ls_wR_factor_ref         0.1192
_reflns_Friedel_coverage         0.000
_reflns_number_gt                1667
_reflns_number_total             2658
_reflns_threshold_expression     'I > 2\s(I)'
_cod_data_source_file            ja7b02184_si_011.cif
_cod_data_source_block           Hf-L7
_cod_depositor_comments
'Adding full bibliography for 4125932--4125938.cif.'
_cod_original_cell_volume        63362(10)
_cod_database_code               4125934
_chemical_oxdiff_formula         'Hf6 O4 (O H)4 (C24 H10 N2 O4 S2)6'
_shelx_space_group_comment
;
The symmetry employed for this shelxl refinement is uniquely defined
by the following loop, which should always be used as a source of
symmetry information in preference to the above space-group names.
They are only intended as comments.
;
_reflns_odcompleteness_completeness 84.01
_reflns_odcompleteness_iscentric 1
_reflns_odcompleteness_theta     24.97
_olex2_refinement_description
;
1. Fixed Uiso
 At 1.2 times of:
  All C(H) groups
2. Others
 Fixed Sof: S1(0.25) N1(0.5) H9(0.5)
3.a Aromatic/amide H refined with riding coordinates:
 C3(H3), C4(H4), C9(H9)
;
_shelx_res_file
;
    2016ncs0460_sq.res created by SHELXL-2014/7

TITL 2016ncs0460_a.res in Fd-3m
REM Old TITL 2016ncs0460 in Fd-3m #227
REM SHELXT solution in Fd-3m
REM R1 0.152, Rweak 0.004, Alpha 0.062, Orientation as input
REM Formula found by SHELXT: C84 N34 S16 Hf3
CELL 0.71073 39.8666 39.8666 39.8666 90 90 90
ZERR 8 0.002 0.002 0.002 0 0 0
LATT 4
SYMM 0.75-X,0.25-Y,0.5+Z
SYMM 0.25-X,0.5+Y,0.75-Z
SYMM 0.5+X,0.75-Y,0.25-Z
SYMM +Z,+X,+Y
SYMM 0.5+Z,0.75-X,0.25-Y
SYMM 0.75-Z,0.25-X,0.5+Y
SYMM 0.25-Z,0.5+X,0.75-Y
SYMM +Y,+Z,+X
SYMM 0.25-Y,0.5+Z,0.75-X
SYMM 0.5+Y,0.75-Z,0.25-X
SYMM 0.75-Y,0.25-Z,0.5+X
SYMM 0.75+Y,0.25+X,0.5-Z
SYMM -Y,-X,-Z
SYMM 0.25+Y,0.5-X,0.75+Z
SYMM 0.5-Y,0.75+X,0.25+Z
SYMM 0.75+X,0.25+Z,0.5-Y
SYMM 0.5-X,0.75+Z,0.25+Y
SYMM -X,-Z,-Y
SYMM 0.25+X,0.5-Z,0.75+Y
SYMM 0.75+Z,0.25+Y,0.5-X
SYMM 0.25+Z,0.5-Y,0.75+X
SYMM 0.5-Z,0.75+Y,0.25+X
SYMM -Z,-Y,-X
SFAC C H Hf N O S
UNIT 1152 512 48 96 256 48

L.S. 20 0 54
PLAN  20
BOND $H
MORE -1
CONF
ABIN
fmap 2
acta 52
OMIT 0 0 4
OMIT 1 1 3
OMIT 2 2 2
REM <olex2.extras>
REM <HklSrc "%.\\2016ncs0460.hkl">
REM </olex2.extras>

WGHT    0.064900  102.970200
FVAR       0.03542
HF1   3    0.436689    0.875000    0.375000    10.25000    0.00977    0.01285 =
         0.01285    0.00005    0.00000    0.00000
PART 1
S1    6    0.686957    0.686957    0.348681    10.25000    0.08092    0.08092 =
         0.25785    0.01774    0.01774    0.00865
PART 0
O1    5    0.464122    0.826993    0.374830    11.00000    0.02865    0.02607 =
         0.03892    0.01315    0.00995    0.01519
O2    5    0.404555    0.845445    0.345445    10.16667    0.04318    0.04318 =
         0.04318    0.03341   -0.03341   -0.03341
O3    5    0.407606    0.907606    0.342394    10.16667    0.05449    0.05449 =
         0.05449   -0.04677   -0.04677    0.04677
PART 1
N1    4    0.646723    0.692533    0.347211    10.50000    0.07608    0.12285 =
         0.17928   -0.00553   -0.00191    0.05008
PART 0
C1    1    0.453497    0.796503    0.372219    10.50000    0.02808    0.02808 =
         0.04255    0.00689   -0.00689    0.00467
C2    1    0.480064    0.769936    0.367496    10.50000    0.02695    0.02695 =
         0.06794   -0.00102    0.00102    0.00440
C3    1    0.470080    0.736527    0.365006    11.00000    0.04713    0.02397 =
         0.14359   -0.01463    0.02135    0.00635
AFIX  43
H3    2    0.447634    0.730569    0.367209    11.00000   -1.20000
AFIX   0
C4    1    0.494342    0.712472    0.359184    11.00000    0.03461    0.03122 =
         0.19296   -0.01459    0.01195    0.01834
AFIX  43
H4    2    0.488392    0.690008    0.357142    11.00000   -1.20000
AFIX   0
C5    1    0.527821    0.722179    0.356397    10.50000    0.03896    0.03896 =
         0.16291   -0.01123    0.01123    0.02727
C6    1    0.553003    0.696997    0.348858    10.50000    0.04937    0.04937 =
         0.27828    0.00733   -0.00733    0.02999
C7    1    0.574170    0.675830    0.345242    10.50000    0.05616    0.05616 =
         0.19268    0.01299   -0.01299    0.02546
C8    1    0.599911    0.650089    0.340664    10.50000    0.03557    0.03557 =
         0.23817   -0.02139    0.02139    0.00371
C9    1    0.632219    0.657221    0.340982    11.00000    0.07514    0.06284 =
         0.18676    0.02153    0.03090    0.05385
PART 2
AFIX  43
H9    2    0.638757    0.679613    0.341215    10.50000   -1.20000
AFIX   0
HKLF 4

REM  2016ncs0460_a.res in Fd-3m
REM R1 =  0.0427 for    1667 Fo > 4sig(Fo)  and  0.0793 for all    2658 data
REM     98 parameters refined using      0 restraints

END

WGHT      0.0649    102.1267

REM Highest difference peak  1.516,  deepest hole -0.674,  1-sigma level  0.110
Q1    1   0.6250  0.6250  0.2892  10.25000  0.05    1.52
Q2    1   0.4511  0.7989  0.2989  10.16667  0.05    0.62
Q3    1   0.6059  0.6441  0.3038  10.50000  0.05    0.57
Q4    1   0.4534  0.9534  0.2966  10.16667  0.05    0.56
Q5    1   0.4414  0.8803  0.3697  10.50000  0.05    0.56
Q6    1   0.4304  0.9304  0.3196  10.16667  0.05    0.54
Q7    1   0.6422  0.6422  0.3062  10.50000  0.05    0.43
Q8    1   0.4545  0.7338  0.3901  11.00000  0.05    0.43
Q9    1   0.6480  0.6480  0.3024  10.50000  0.05    0.42
Q10   1   0.4538  0.7416  0.3895  11.00000  0.05    0.40
Q11   1   0.6997  0.6997  0.3128  10.50000  0.05    0.39
Q12   1   0.4941  0.8206  0.3820  11.00000  0.05    0.39
Q13   1   0.7203  0.6995  0.3630  11.00000  0.05    0.37
Q14   1   0.4607  0.8210  0.3982  11.00000  0.05    0.36
Q15   1   0.7091  0.7091  0.3599  10.50000  0.05    0.36
Q16   1   0.4484  0.7303  0.3796  11.00000  0.05    0.36
Q17   1   0.7206  0.6894  0.3502  11.00000  0.05    0.36
Q18   1   0.4674  0.7597  0.3892  11.00000  0.05    0.35
Q19   1   0.4699  0.7513  0.3889  11.00000  0.05    0.35
Q20   1   0.4760  0.8167  0.3688  11.00000  0.05    0.35
;
_shelx_res_checksum              98901
_shelx_hkl_file
;
  -1   1  -3   -6.38    4.84
   1  -3   1   -6.49    5.53
   0   4  -2   -8.45   11.75
   0  -4   2   -4.19    9.10
   1   5  -1 1725.73   36.72
   0  -4   0  -15.52    8.49
  -3   1  -1  -13.83    6.76
   2  -2   2   -8.45    5.38
   1  -3   3  -20.24   10.72
  -1   3  -3  810.58   26.24
  -2   2  -4 3401.83   50.55
   2  -2   4  522.24   22.70
   3  -3  -1   90.35   11.99
   3  -1   3  -18.75    7.80
   4   0   2  -12.02    7.76
  -2   4   0  -19.44   11.99
   2  -4   0  -13.02   11.75
  -1   5  -1 1651.20   41.06
   1  -5   1 1694.15   40.30
   0   6  -2  603.30   29.12
   0  -6   2  627.92   29.39
   1   7  -3   62.54   22.47
   2   6   0  665.91   25.16
   1   5   1 1672.41   32.34
  -1  -5  -1 1631.54   31.23
  -2   0  -4   20.94   10.26
   4  -2   0  -10.95    8.84
  -3   3  -1  471.88   22.01
   3  -3   1   -7.41   11.60
   2  -4   2 2603.19   50.13
  -2   4  -2 3460.10   57.74
   1  -5   3  711.28   33.04
  -1   5  -3  816.11   34.69
   0   6  -4   38.18   25.85
   2   8  -2  149.97   25.58
   1   7  -1  278.97   25.32
  -1  -7   1  331.25   23.59
   0  -6   0   25.66   15.21
   0   6   0   50.02   18.52
  -1   5   1 1763.72   36.61
   1  -5  -1 1728.30   37.76
  -4   2  -2 3537.47   53.70
   2  -4  -2 3616.26   48.90
  -3   3  -3 1541.11   40.80
   3  -3   3 1300.98   37.84
   2  -4   4    2.92   17.94
  -2   4  -4   -2.27   20.82
  -1   5  -5   39.91   21.90
  -2   4  -6   99.57   25.51
  -3   3  -5  460.86   30.00
   3  -3   5  500.81   29.08
  -4   2  -4   -0.88   19.28
   4  -2   4   13.52   17.32
   5  -1   3  771.21   28.54
   3  -5  -1  776.20   31.85
  -3   5   1  767.48   31.19
  -5   1  -3  817.19   30.12
   2  -6   0  648.63   31.92
  -2   6   0  676.48   33.57
   6   0   2  683.24   26.08
   1  -7   1  287.99   28.16
  -1   7  -1  288.07   29.50
   0   8  -2   10.06   21.17
   0  -8   2   20.47   26.01
   1   9  -3   65.00   30.16
   2  10  -4   19.17   24.05
   3   7   1   22.55   12.83
   2   6   2   17.79   12.10
  -2   2  -6   23.66   16.10
  -2  -6  -2   15.44   11.37
  -3   1  -5  858.98   29.69
   3  -1   5  870.78   28.96
   4   0   4 3108.22   45.67
  -4   0  -4 3178.45   46.10
  -4   4   0 3159.01   55.85
   5   1   3  885.76   25.43
  -5  -1  -3  811.20   21.74
  -3   5  -1  836.44   35.99
   3  -5   1  816.04   34.80
  -2   6  -2   61.73   25.62
   2  -6   2  -29.96   24.01
   1  -7   3   67.69   24.12
  -1   7  -3   48.44   25.85
   0   8  -4  981.26   43.22
   1   9  -5 1017.83   48.82
   3   9  -1   75.60   22.28
   2   8   0   -4.11   18.90
   1   7   1  306.20   23.05
  -1  -7  -1  305.74   22.93
   0  -6  -2  657.16   25.51
   0   6   2  629.77   24.74
   5  -3   1  851.84   33.11
   1  -5  -3  754.34   24.89
  -3  -1  -5  790.34   22.36
  -5   3  -1  820.92   31.31
  -4   4  -2   41.79   18.82
   4  -4   2   56.89   21.67
   3  -5   3  529.54   31.58
  -3   5  -3  490.36   33.42
  -2   6  -4   95.69   23.01
   2  -6   4  137.79   26.77
  -1   7  -5  367.89   31.88
   1  -7   5  315.04   27.04
   0   8  -6  -26.74   28.89
   3  11  -3  -31.50   26.43
   2  10  -2  766.29   41.83
  -1  -9   1 3499.97   66.99
   1   9  -1 3608.76   72.26
   0   8   0 4639.88   76.10
   0  -8   0 4767.50   75.25
   1  -7  -1  287.15   26.89
  -1   7   1  291.72   24.39
  -2   6   2    5.80   16.75
   2  -6  -2   24.55   18.82
   6  -2   2  -23.09   17.56
  -6   2  -2   29.19   19.36
  -5   3  -3  579.63   32.69
   3  -5  -3  546.02   25.55
   5  -3   3  560.85   33.31
  -4   4  -4 3731.42   71.60
   4  -4   4 3705.38   70.41
  -3   5  -5  178.09   32.00
   3  -5   5  185.12   28.81
   2  -6   6   93.12   26.01
  -2   6  -6   96.34   31.04
  -1   7  -7  119.93   32.08
  -1   7  -9  592.04   40.14
  -2   6  -8 2268.26   69.34
  -3   5  -7 1290.34   50.86
   3  -5   7 1364.86   48.67
  -4   4  -6   94.92   31.46
   4  -4   6   20.67   24.39
  -5   3  -5  170.64   27.54
   5  -3   5  138.75   23.86
  -6   2  -4  119.01   22.89
  -4   6   2  126.04   21.70
   6  -2   4   78.60   22.78
   4  -6  -2   77.14   23.86
   7  -1   3   45.64   19.59
  -3   7   1   30.19   20.63
   3  -7  -1   65.00   23.74
  -7   1  -3   68.45   20.82
   2  -8   0   31.08   26.01
  -2   8   0   17.75   25.58
   1  -9   1 3571.93   74.33
  -1   9  -1 3535.70   75.91
   0 -10   2 4041.85   82.78
   0  10  -2 3866.18   83.55
   1  11  -3  300.48   35.07
   2  12  -4   69.45   37.72
   3  13  -5  102.99   36.19
  -2   4  -8   21.55   26.24
   4   8   2  -13.56   14.44
  -3   3  -7  756.53   35.84
   3   7   3  814.58   23.70
   4  -2   6   93.77   20.21
  -4   2  -6  148.32   24.70
  -5   1  -5   61.39   20.32
  -5   5   1   23.93   17.32
   5  -5  -1   21.59   22.55
   5  -1   5   40.22   18.86
  -6   0  -4    3.65   16.10
   4  -6   0   -1.88   19.98
  -4   6   0    6.99   25.28
   6   0   4    8.14   16.48
   7   1   3   33.27   16.86
   3  -7   1   86.28   29.39
  -3   7  -1   31.46   26.35
   2  -8   2  156.69   28.47
  -2   8  -2  126.42   26.54
   1  -9   3   52.63   24.01
  -1   9  -3   34.73   30.62
   0  10  -4   53.93   33.80
   1  11  -5   13.79   35.96
   2  12  -6   32.50   34.04
   4  10   0   -5.34   20.13
   3   9   1   72.30   19.67
   2   8   2  173.02   20.47
  -2  -8  -2  134.37   18.52
  -3   1  -7   66.23   20.94
   1   7   3   51.55   15.87
  -1  -7  -3   58.20   16.06
   6  -4   0   -0.65   22.93
   4   0   6   -0.42   14.52
  -4   0  -6   -1.08   16.60
  -6   4   0   -9.30   20.17
   0  -6  -4    9.76   14.37
   5  -5   1   29.31   19.28
  -5  -1  -5   14.25   14.48
   5   1   5   57.54   16.02
   6   2   4  111.29   14.14
   4  -6   2   87.51   21.28
  -4   6  -2  138.83   30.39
  -3   7  -3  746.93   43.49
   3  -7   3  826.75   43.25
  -2   8  -4   -4.11   24.51
   2  -8   4    7.03   28.62
  -1   9  -5  967.77   52.44
   1  -9   5  974.84   46.83
   0  10  -6   92.73   30.58
   1  11  -7   10.68   31.46
   2  12  -8  -23.51   33.00
   4  12  -2    3.42   25.55
   3  11  -1  344.42   33.57
   2  10   0 3996.37   75.56
  -1  -9  -1 3348.39   60.04
   1   9   1 3532.17   67.15
   0   8   2   13.60   19.44
   0  -8  -2  -27.66   19.82
  -1   7   3   56.28   18.59
   7  -3   1   67.72   25.51
   1  -7  -3   41.99   18.98
  -7   3  -1   48.13   20.63
   2  -6  -4  122.73   19.40
   6  -4   2   94.54   25.12
  -4  -2  -6  128.27   14.48
  -6   4  -2   80.21   26.58
   5  -5   3  135.07   22.93
  -5   5  -3  173.44   26.20
   4  -6   4   16.98   30.35
  -4   6  -4   -3.57   22.28
  -3   7  -5 1332.17   55.24
   3  -7   5 1233.06   48.56
  -2   8  -6 1898.36   65.80
   2  -8   6 2163.61   65.30
  -1   9  -7  613.36   48.02
   0  10  -8    5.30   33.31
   1  11  -9  114.09   35.88
   5  15  -5   60.39   32.11
   4  14  -4  -20.36   27.54
   3  13  -3 1594.97   64.77
   2  12  -2 2220.24   66.19
   1  11  -1  734.48   43.33
  -1 -11   1  766.06   41.99
   0  10   0    8.99   26.39
   0 -10   0   -4.69   24.47
   1  -9  -1 3505.78   70.45
  -1   9   1 3660.24   70.99
   2  -8  -2  111.79   22.13
  -2   8   2  137.56   23.32
   8  -2   2  117.24   26.20
   7  -3   3  737.33   36.53
  -7   3  -3  766.37   37.53
   3  -7  -3  780.66   36.03
  -3   7   3  783.69   32.04
   6  -4   4   23.70   26.81
  -6   4  -4   69.11   28.43
   5  -5   5  257.11   33.38
  -5   5  -5  210.78   34.88
   4  -6   6 2151.28   63.84
  -4   6  -6 2251.89   69.76
   3  -7   7 1692.12   59.93
  -3   7  -7 1679.17   64.46
  -2   8  -8  124.54   36.69
  -1   9  -9 1533.12   67.15
   0  10 -10  294.83   44.71
  -1   9 -11  156.08   37.11
  -2   8 -10 2448.53   82.09
  -3   7  -9 1593.35   63.04
   4  -6   8   25.74   28.00
  -4   6  -8    0.00   31.08
   5  -5   7 1286.23   51.86
  -5   5  -7 1309.43   56.47
  -6   4  -6 2277.55   64.88
   6  -4   6 2324.46   65.88
  -7   3  -5 1437.12   51.09
   7  -3   5 1424.10   51.86
   5  -7  -3 1317.08   45.83
   4  -8  -2  -27.89   25.20
  -4   8   2   17.94   23.28
   8  -2   4  -33.15   23.86
  -8   2  -4  -37.84   22.01
   3  -9  -1  114.67   30.31
  -3   9   1  129.15   30.50
   9  -1   3   76.25   25.28
  -2  10   0 3948.19   83.86
   2 -10   0 3821.50   82.40
   1 -11   1  790.38   46.87
  -1  11  -1  746.35   49.17
   0  12  -2    0.54   33.42
   0 -12   2   24.55   26.20
   1  13  -3 1542.45   64.81
   2  14  -4 2314.89   76.91
   3  15  -5  464.31   47.98
   4  16  -6   77.21   30.54
   5  17  -7    1.54   31.27
   6  18  -8  162.80   41.53
  -2   6 -10  178.47   36.99
  -3   5  -9    5.30   31.46
   5   9   3   74.72   15.44
   4  -4   8  689.85   39.34
  -4   4  -8  599.69   38.88
   5  -3   7 1364.79   47.90
  -5   3  -7 1356.80   50.78
   6  -2   6   79.67   22.17
  -6   2  -6  114.40   27.27
   6  -6  -2  100.76   22.28
  -7   1  -5  336.59   27.81
   7  -1   5  312.08   27.77
   5  -7  -1  299.98   32.69
  -5   7   1  347.84   31.58
   8   0   4 1050.10   38.49
   4  -8   0  955.71   43.02
  -4   8   0  994.86   46.33
  -8   0  -4 1017.52   35.38
   3  -9   1   80.94   23.59
   9   1   3   64.27   18.59
  -3   9  -1   27.16   30.58
   2 -10   2  736.21   43.98
  -2  10  -2  760.26   49.71
   1 -11   3  308.54   37.76
  -1  11  -3  352.57   42.37
   0 -12   4   48.94   30.23
   0  12  -4   11.26   35.42
   1  13  -5   34.61   32.42
   2  14  -6   -1.81   35.61
   3  15  -7   43.75   33.38
   4  16  -8   65.34   39.45
   5  11   1   21.24   19.59
   4  10   2    4.96   18.59
  -3   3  -9  315.80   31.62
  -3  -9  -3  383.53   21.32
   3   9   3  343.31   22.97
  -4   2  -8  -10.06   23.43
   2   8   4  -10.56   14.17
  -2  -8  -4   -8.60   14.17
  -1  -7  -5  350.26   19.02
   7  -5  -1  332.05   32.54
  -5   1  -7  393.21   30.73
   5  -1   7  352.84   27.50
  -6   6   0   53.70   29.12
   6  -6   0   66.15   28.85
  -6   0  -6   64.96   20.44
   6   0   6   70.14   20.59
  -7  -1  -5  370.97   24.28
   5  -7   1  353.49   35.92
  -5   7  -1  372.97   36.15
   7   1   5  386.37   24.78
  -4   8  -2   64.77   26.54
   4  -8   2   62.00   32.34
   8   2   4    1.73   16.17
  -3   9  -3  362.29   39.80
   3  -9   3  357.98   37.57
   2 -10   4   38.45   31.31
  -2  10  -4   43.87   34.53
  -1  11  -5    5.07   28.23
   1 -11   5   38.34   27.31
   0  12  -6   37.49   37.03
   1  13  -7  -14.48   36.34
   2  14  -8  117.97   36.80
   3  15  -9  146.63   41.49
   5  13  -1   93.31   28.08
   4  12   0   17.36   24.78
   3  11   1  283.00   29.16
   2  10   2  751.58   35.73
  -2 -10  -2  774.51   34.23
   1   9   3   76.91   21.90
  -1  -9  -3   52.40   20.17
  -4   0  -8 1041.68   36.61
   0  -8  -4  962.13   34.15
   8  -4   0  993.13   43.60
   0   8   4 1078.75   33.54
   1  -7  -5  415.37   23.62
  -7   5  -1  333.44   30.81
   7  -5   1  331.82   33.46
   5   1   7  384.41   23.16
  -5  -1  -7  350.69   25.28
   6  -6   2   66.11   26.47
  -6  -2  -6   95.69   15.90
  -6   6  -2  130.84   28.12
   6   2   6   95.34   15.83
   7   3   5 1408.04   32.23
  -5   7  -3 1321.92   53.78
   5  -7   3 1332.60   56.09
   4  -8   4  498.00   36.42
  -4   8  -4  614.17   41.83
   3  -9   5   62.23   34.30
  -3   9  -5   10.22   35.92
  -2  10  -6  181.58   41.22
   2 -10   6  124.50   34.15
  -1  11  -7   -2.88   31.46
   0  12  -8    7.18   33.38
   1  13  -9   -7.03   35.19
   2  14 -10  101.15   34.38
   3  15 -11 1037.77   62.73
   6  16  -4   62.38   32.34
   5  15  -3  402.54   39.49
   4  14  -2 2221.58   71.41
   3  13  -1 1366.40   55.36
   2  12   0   -2.77   26.20
  -2 -12   0   -6.45   20.86
  -1 -11  -1  737.40   38.03
   1  11   1  778.05   41.45
   0  10   2 3862.99   72.56
   0 -10  -2 4033.32   74.41
   9  -3   1   53.09   26.43
   1  -9  -3   79.75   22.89
  -1   9   3   40.83   21.70
  -8   4  -2    0.04   24.93
  -4  -2  -8   36.11   16.86
  -2   8   4    5.26   17.67
   2  -8  -4    0.73   21.93
   8  -4   2  -31.12   27.31
  -5  -3  -7 1362.25   28.81
  -7   5  -3 1348.31   53.43
   7  -5   3 1430.32   54.05
   3  -7  -5 1439.23   40.30
   6  -6   4 2136.53   66.38
  -6   6  -4 2201.53   65.65
   5  -7   5 1346.23   55.78
  -5   7  -5 1275.90   56.39
  -4   8  -6   -7.84   36.76
   4  -8   6   32.92   33.38
   3  -9   7 1605.18   64.34
  -3   9  -7 1636.42   70.26
  -2  10  -8 2335.94   80.94
  -1  11  -9  156.12   41.95
   0  12 -10   -6.49   38.84
   1  13 -11  193.53   43.18
   2  14 -12 3374.63  107.56
   7  19  -7  504.38   51.94
   6  18  -6  -15.56   29.96
   5  17  -5   77.37   34.19
   4  16  -4  743.28   52.36
   3  15  -3 1091.89   57.12
   2  14  -2  155.12   36.19
  -1 -13   1 9999.00  133.53
   1  13  -1 9618.70  139.21
   0 -12   0 8398.81  120.97
   0  12   0 8840.35  126.81
  -1  11   1  819.57   44.60
   1 -11  -1  665.53   41.30
   2 -10  -2  675.71   39.14
  -2  10   2  733.02   40.03
  10  -2   2  717.04   40.22
  -9   3  -3  299.33   32.31
   3  -9  -3  309.93   33.42
   9  -3   3  332.02   33.96
  -3   9   3  306.39   30.23
   4  -8  -4  592.70   36.88
   8  -4   4  589.12   38.91
  -8   4  -4  636.30   41.91
  -7   5  -5 1445.03   58.12
   7  -5   5 1455.52   57.89
  -6   6  -6   17.48   35.88
   6  -6   6   71.30   33.00
  -5   7  -7 2183.01   74.41
   5  -7   7 2166.19   70.34
  -4   8  -8 4625.67  104.56
   4  -8   8 4588.72  100.45
  -3   9  -9 2200.19   79.59
  -2  10 -10  -16.29   40.60
  -1  11 -11   59.62   41.87
   0  12 -12 1151.36   66.07
   1  13 -13 2752.70   96.27
   0  12 -14    9.76   38.84
  -1  11 -13  246.81   46.79
  -2  10 -12    8.68   37.99
  -3   9 -11  816.11   59.24
  -4   8 -10  -15.06   37.19
  -5   7  -9 2260.30   76.64
   5  -7   9 2368.17   76.29
   6  -6   8 5476.59  106.79
  -6   6  -8 5104.70  107.41
   7  -5   7 2331.64   73.03
  -7   5  -7 2243.09   70.68
   8  -4   6   17.79   29.31
   6  -8  -4   -0.77   24.43
  -8   4  -6  -20.09   31.00
   9  -3   5   40.83   28.47
  -9   3  -5   13.64   30.12
   5  -9  -3   42.49   28.77
  -5   9   3   21.59   25.28
 -10   2  -4   11.22   25.05
   4 -10  -2  -11.75   25.97
  10  -2   4   10.76   25.78
  -4  10   2    7.45   26.31
  11  -1   3  296.90   32.27
  -3  11   1  322.22   37.45
   3 -11  -1  329.52   38.34
   2 -12   0   46.37   30.62
  -2  12   0   -8.11   28.16
  -1  13  -1 9631.53  144.17
   1 -13   1 9471.19  139.60
   0 -14   2 8758.68  137.45
   0  14  -2 8694.18  143.71
   1  15  -3 1764.76   73.83
   2  16  -4   64.96   35.84
   3  17  -5  238.36   39.61
   4  18  -6    9.33   36.46
   5  19  -7  281.35   46.60
   6  20  -8   18.09   35.88
   7  21  -9 1831.60   88.31
   8  22 -10 4448.39  135.64
   9  23 -11 2451.53  106.79
  10  24 -12   51.24   40.60
  18  32 -20  -48.13   63.54
  19  33 -21  242.13   79.21
  20  34 -22  142.33   63.46
  21  35 -23  -73.33   76.56
  -1   9 -13   36.38   37.19
  -2   8 -12    1.61   36.84
  -3   7 -11  252.31   36.19
  -4   6 -10 1123.62   57.66
   6  10   4 1106.07   31.35
   5  -5   9  335.47   37.49
  -5   5  -9  248.66   40.14
  -6   4  -8   16.98   30.69
   6  -4   8   14.06   28.47
   7  -7  -3 1688.97   55.70
  -7   3  -7 1768.60   58.62
   7  -3   7 1707.79   58.35
  -8   2  -6 2161.69   58.93
   6  -8  -2 2047.80   65.19
   8  -2   6 2067.27   60.35
  -6   8   2 2127.47   62.38
   5  -9  -1 1000.58   50.44
  -5   9   1  922.10   47.44
  -9   1  -5  945.38   41.56
   9  -1   5  964.55   43.18
  -4  10   0   13.75   34.11
   4 -10   0   37.22   32.08
  10   0   4  -22.51   22.86
   3 -11   1  361.40   38.84
  -3  11  -1  266.02   36.76
  -2  12  -2 2477.81   79.90
   2 -12   2 2516.99   76.68
  -1  13  -3 1515.41   66.69
   1 -13   3 1432.86   63.50
   0  14  -4  -38.64   38.76
   0 -14   4   66.92   31.04
   1  15  -5  566.65   50.67
   2  16  -6  499.04   48.33
   3  17  -7  134.26   36.61
   4  18  -8   40.45   35.88
   5  19  -9  232.45   44.56
   6  20 -10 1153.51   72.41
   7  21 -11 1142.37   73.72
   8  22 -12   66.19   41.83
  18  32 -22  526.55   84.36
  19  33 -23   73.72   67.99
  20  34 -24   -6.11   54.66
  -2   6 -12   70.03   32.88
   6  12   2   75.52   19.78
   5  11   3  217.73   23.16
  -3   5 -11  211.51   33.54
  -4   4 -10  -19.51   30.50
   4  10   4   11.83   16.21
   5  -3   9   60.16   23.43
   3   9   5   96.30   15.90
  -5   3  -9   37.03   29.85
  -3  -9  -5   40.30   14.41
  -6   2  -8 2053.25   59.50
   8  -6  -2 2091.63   62.00
  -2  -8  -6 2069.84   36.26
   6  -2   8 2000.62   56.32
   7  -1   7  195.41   26.77
  -7   1  -7  217.73   28.62
   7  -7  -1  199.56   35.03
  -7   7   1  172.86   31.46
  -8   0  -6  -30.89   22.20
   8   0   6   -6.84   21.01
  -6   8   0   -6.07   24.09
   5  -9   1  916.84   49.63
   9   1   5  929.44   37.65
  -5   9  -1 1014.29   52.78
  -4  10  -2  -18.63   33.00
   4 -10   2   59.08   36.22
  10   2   4    1.61   18.48
   3 -11   3  -10.64   30.42
  -3  11  -3  -12.33   34.92
   2 -12   4  -38.41   31.04
  -2  12  -4   43.33   39.14
  -1  13  -5   51.44   37.92
   1 -13   5   44.45   30.92
   0  14  -6   34.88   35.88
   1  15  -7   20.21   32.50
   2  16  -8  -26.35   36.72
   3  17  -9  153.08   39.41
   4  18 -10   37.92   40.57
   5  19 -11   53.36   36.99
   6  20 -12  -65.46   41.14
   7  21 -13  189.34   42.91
  18  32 -24   59.58   57.16
  19  33 -25    5.38   65.77
  20  34 -26  -83.86   70.53
   6  14   0   12.60   23.01
   5  13   1   81.90   24.16
   4  12   2   27.04   23.47
  -3   3 -11  -23.82   26.93
  -3 -11  -3   -6.07   18.48
   3  11   3   26.77   20.05
   2  10   4   21.44   18.71
  -4   2 -10   11.29   27.31
  -2 -10  -4   -2.19   16.98
   1   9   5 1031.54   31.50
  -5   1  -9  921.37   42.37
  -1  -9  -5  980.84   32.88
   9  -5  -1  918.64   44.56
   6   0   8    6.11   20.40
   0  -8  -6    5.88   18.09
  -6   0  -8  -19.63   21.90
   8  -6   0  -25.62   24.89
  -8   6   0   -0.96   25.20
   7  -7   1  194.34   36.07
  -7   7  -1  144.63   35.30
  -7  -1  -7  211.78   22.86
   7   1   7  199.49   22.78
  -6   8  -2 2008.31   67.53
  -8  -2  -6 2076.30   43.22
   6  -8   2 2050.71   66.69
   8   2   6 2089.36   46.17
   5  -9   3   15.48   31.62
  -5   9  -3   99.53   35.34
   9   3   5   42.29   18.29
  -4  10  -4   66.11   40.22
   4 -10   4  -16.52   35.73
  -3  11  -5  197.26   37.03
   3 -11   5  216.54   33.07
   2 -12   6   90.62   36.22
  -2  12  -6   47.02   36.03
  -1  13  -7  -49.21   41.03
   0  14  -8   21.47   31.65
   1  15  -9  241.24   45.06
   2  16 -10 2035.66   88.16
   3  17 -11  807.13   64.15
   4  18 -12   -1.92   34.65
   5  19 -13   58.77   36.72
  18  32 -26  188.77   72.22
  19  33 -27  212.35   74.56
   7  17  -3  117.78   32.84
   6  16  -2  517.52   42.29
   5  15  -1  591.27   43.45
   4  14   0  -45.94   28.23
   3  13   1 1501.08   54.74
  -2 -12  -2 2368.79   60.08
   2  12   2 2464.02   62.58
   1  11   3  336.51   28.50
  -1 -11  -3  349.69   29.27
   0 -10  -4   11.29   21.78
   0  10   4  -10.10   19.67
  -4   0 -10   -9.30   21.36
  10  -4   0  -22.13   25.39
  -9   5  -1  924.56   44.29
   1  -9  -5  989.90   37.57
   9  -5   1  954.71   47.60
  -5  -1  -9  975.80   36.11
   2  -8  -6 2157.39   48.71
  -8   6  -2 2063.47   66.88
   6   2   8 2164.34   44.48
  -6  -2  -8 1980.19   43.25
   8  -6   2 1983.49   65.73
  -7  -3  -7 1684.43   36.07
  -7   7  -3 1555.40   60.96
   7  -7   3 1693.46   65.04
   7   3   7 1758.07   37.34
   6  -8   4   50.67   35.07
   8   4   6   -6.99   14.17
  -6   8  -4    2.69   35.92
  -5   9  -5  226.88   38.30
   5  -9   5  305.78   41.60
  -4  10  -6 1027.82   62.69
   4 -10   6  761.37   45.98
  -3  11  -7  344.39   47.10
   3 -11   7  324.22   44.18
  -2  12  -8   -5.49   31.12
  -1  13  -9   35.26   40.99
   0  14 -10  452.68   52.40
   1  15 -11 1690.04   83.82
   2  16 -12  -25.89   42.68
   3  17 -13 1746.63   84.55
   4  18 -14 1646.79   86.93
  18  32 -28    4.26   72.53
  23  35 -21   64.38   65.30
   8  20  -6   37.72   30.81
   7  19  -5  269.25   40.87
   6  18  -4  -14.06   32.04
   5  17  -3  275.39   41.14
   4  16  -2   -3.00   27.04
   3  15  -1 1762.22   66.07
   2  14   0 8415.41  132.11
  -2 -14   0 8759.64  120.85
  -1 -13  -1 9894.44  126.31
   1  13   1 9588.20  132.30
   0 -12  -2    2.19   24.05
   0  12   2    9.53   26.31
  11  -3   1  347.61   37.42
   1 -11  -3  342.23   33.84
  -1  11   3  348.11   33.69
  10  -4   2   16.63   24.12
   2 -10  -4   47.48   25.08
 -10   4  -2    0.85   22.86
  -2  10   4   12.75   23.16
  -9   5  -3   83.13   35.57
  -5  -3  -9   40.76   16.25
   9  -5   3   93.77   25.97
   3  -9  -5   38.88   24.20
   8  -6   4   14.60   27.43
  -8   6  -4    1.04   31.88
  -6  -4  -8   17.63   11.26
   7  -7   5 2162.39   72.53
  -7   7  -5 2293.88   74.75
  -6   8  -6 5056.03  109.94
   6  -8   6 5172.88  108.71
  -5   9  -7 2218.51   80.94
   5  -9   7 2164.88   74.41
   4 -10   8   22.89   37.57
  -4  10  -8   56.47   36.38
  -3  11  -9  763.22   58.39
  -2  12 -10  -33.04   33.00
  -1  13 -11  204.17   41.72
   0  14 -12   20.59   41.91
   1  15 -13 2994.86  106.79
   2  16 -14 5194.59  140.56
   3  17 -15 1855.03   89.58
   4  18 -16   -0.65   35.88
  17  31 -29  689.23   97.23
  18  32 -30 1529.82  137.98
  21  35 -21   31.35   65.00
  20  34 -20   20.74   68.49
  19  33 -19  780.27   90.35
  18  32 -18 2768.03  149.47
  17  31 -17 1954.18  126.23
  16  30 -16  162.03   52.97
  12  26 -12   30.62   49.44
  11  25 -11 1263.80   86.28
  10  24 -10 4896.84  147.86
   9  23  -9 2740.94  109.06
   8  22  -8    4.26   33.27
   7  21  -7 2123.20   91.77
   6  20  -6 2300.60   96.54
   5  19  -5  120.43   35.38
   4  18  -4  -22.63   33.69
   3  17  -3 1182.13   65.19
   2  16  -2 2949.69   88.58
   1  15  -1 2721.51   84.93
  -1 -15   1 2783.35   76.68
   0 -14   0    9.10   26.66
   0  14   0   18.25   29.50
   1 -13  -1 9856.10  137.18
  -1  13   1 9939.19  136.41
   2 -12  -2 2455.14   71.60
  12  -2   2 2438.51   69.57
  -2  12   2 2442.96   69.22
  -3  11   3  -27.01   27.66
  11  -3   3    1.61   30.73
   3 -11  -3  -20.17   25.20
  10  -4   4   21.13   27.24
  -4  10   4  -11.75   23.78
 -10   4  -4   46.02   29.16
   4 -10  -4   -1.08   27.93
   5  -9  -5  238.40   30.62
  -9   5  -5  284.15   40.26
   9  -5   5  244.93   31.69
  -8   6  -6 5122.33  105.75
   8  -6   6 5194.70  106.56
   7  -7   7 4117.45  100.18
  -7   7  -7 3991.03   98.07
   6  -8   8   -2.88   33.23
  -6   8  -8   24.20   35.53
  -5   9  -9 2630.43   89.31
   5  -9   9 2601.19   83.44
   4 -10  10 2812.28   86.09
  -4  10 -10 2637.03   92.16
  -3  11 -11   71.37   35.15
  -2  12 -12  -19.94   38.68
  -1  13 -13 2839.36  103.30
   0  14 -14 8033.18  168.68
   1  15 -15 3658.01  119.28
   2  16 -16  -17.75   41.45
   3  17 -17 2399.59  105.14
  16  30 -30 1455.91  124.04
  17  31 -31  834.98  112.94
  16  30 -32 -112.40   79.83
   2  16 -18 4966.10  146.32
   1  15 -17 2305.94  100.84
   0  14 -16   15.21   37.88
  -1  13 -15 3116.83  111.44
  -2  12 -14 3384.89  109.83
  -3  11 -13   30.92   41.56
  -4  10 -12   -2.11   36.46
  -5   9 -11 1721.54   75.98
   5  -9  11 1718.51   68.30
   6  -8  10 5725.01  121.27
  -6   8 -10 5539.51  124.23
   7  -7   9 3775.18   97.07
  -7   7  -9 3649.94   98.00
   8  -6   8   28.31   34.27
  -8   6  -8   16.29   30.65
  -9   5  -7 2204.68   73.79
   9  -5   7 2341.13   75.33
   7  -9  -5 2246.97   69.99
  10  -4   6 1041.03   52.70
   6 -10  -4  983.02   49.52
 -10   4  -6 1000.20   52.36
  11  -3   5  218.35   35.88
   5 -11  -3  172.29   30.92
  -5  11   3  220.61   32.08
 -11   3  -5  298.40   37.22
   4 -12  -2    1.11   30.81
  -4  12   2   42.45   30.77
  12  -2   4   -8.49   22.82
   3 -13  -1 1353.61   60.73
  -3  13   1 1490.40   62.27
  13  -1   3 1528.93   57.24
   2 -14   0 8555.20  138.02
  -2  14   0 8538.72  138.68
   1 -15   1 2616.56   78.13
  -1  15  -1 2576.88   83.67
   0  16  -2   62.54   39.18
   0 -16   2   16.02   28.00
   1  17  -3 1439.66   70.34
   2  18  -4 1089.05   65.84
   3  19  -5  -18.02   36.57
   4  20  -6  -21.09   36.65
   5  21  -7 1466.01   79.33
   6  22  -8 5022.38  144.28
   7  23  -9 3298.99  124.89
   8  24 -10    1.27   41.76
   9  25 -11 2103.42  106.56
  10  26 -12 1362.33   91.00
  11  27 -13   87.89   51.71
  12  28 -14  -13.21   50.98
  13  29 -15  689.08   78.06
  14  30 -16 2582.95  134.64
  15  31 -17 1785.66  117.59
  16  32 -18   45.18   59.73
  17  33 -19  970.42  102.53
  18  34 -20  870.93   96.42
  19  35 -21  154.35   74.14
  20  36 -22  -64.15   77.87
   0  12 -16 4888.89  130.76
  -1  11 -15 1514.33   76.79
  -2  10 -14   -7.07   38.53
  -3   9 -13   53.28   39.45
  -4   8 -12 1118.44   60.89
   7  11   5  985.25   28.27
  -5   7 -11  919.99   57.81
   6  -6  10  222.19   37.15
  -6   6 -10  202.25   41.72
  -7   5  -9 2129.04   72.14
   7  -5   9 2275.05   72.95
   8  -8  -4 4577.84   94.12
  -8   4  -8 4576.08   95.61
   8  -4   8 4720.52   98.46
  -9   3  -7 1680.40   60.50
   7  -9  -3 1524.25   58.81
   9  -3   7 1479.03   58.27
  -6  10   2   79.21   34.23
  10  -2   6   95.81   27.43
   6 -10  -2  146.78   35.23
 -10   2  -6  148.59   32.50
   5 -11  -1  -20.55   33.38
  -5  11   1   48.06   27.85
 -11   1  -5   61.46   24.70
  11  -1   5   35.92   23.59
  12   0   4   32.19   26.66
  -4  12   0    7.34   30.92
   4 -12   0   59.00   34.15
  -3  13  -1 1437.35   63.00
   3 -13   1 1440.04   66.07
   2 -14   2  162.95   36.11
  -2  14  -2  116.51   36.95
  -1  15  -3 1716.78   74.14
   1 -15   3 1796.18   71.80
   0 -16   4 2011.53   73.68
   0  16  -4 1887.45   78.94
   1  17  -5  311.20   44.48
   2  18  -6   48.82   35.34
   3  19  -7    1.46   38.03
   4  20  -8  851.88   65.42
   5  21  -9 1320.00   80.48
   6  22 -10  -54.16   41.56
   7  23 -11 2105.61  102.76
   8  24 -12 3553.49  133.84
   9  25 -13  798.48   72.91
  10  26 -14  -16.40   45.48
  11  27 -15   -9.83   41.33
  12  28 -16  353.84   62.38
  13  29 -17  819.80   86.85
  14  30 -18  -25.78   54.63
  15  31 -19 1071.49   98.99
  16  32 -20 1696.42  124.04
  17  33 -21  559.20   90.81
  18  34 -22   31.08   68.03
  19  35 -23   69.49   60.27
  -2   8 -14  108.71   36.69
  -3   7 -13   60.54   36.49
   7  13   3   15.87   19.59
  -4   6 -12  -34.38   36.38
   6  12   4    2.92   17.17
   5  11   5  770.29   28.31
  -5   5 -11  679.67   49.36
  -6   4 -10 1146.59   55.55
  -4 -10  -6 1032.43   26.24
   6  -4  10 1078.18   50.98
   4  10   6 1032.04   26.51
  -3  -9  -7 1591.05   30.77
   7  -3   9 1635.80   57.31
  -7   3  -9 1607.30   60.31
   9  -7  -3 1657.85   58.31
   8  -2   8  150.55   31.19
  -2  -8  -8  148.51   13.75
   8  -8  -2  151.89   29.73
  -8   2  -8  140.52   30.54
  -9   1  -7  598.84   38.15
   7  -9  -1  546.56   45.48
  -7   9   1  722.81   49.71
   9  -1   7  536.69   36.65
  -6  10   0   82.51   32.38
   6 -10   0  130.95   38.72
 -10   0  -6   91.81   23.51
  10   0   6   78.90   24.70
  11   1   5   75.91   25.97
  -5  11  -1   17.71   32.11
   5 -11   1   33.11   31.38
  -4  12  -2   28.27   29.43
   4 -12   2    4.11   29.81
  12   2   4   -4.07   19.51
   3 -13   3 1420.14   64.46
  -3  13  -3 1562.70   71.83
  -2  14  -4 2332.06   85.59
   2 -14   4 2504.27   82.51
   1 -15   5  667.80   48.82
  -1  15  -5  662.23   57.35
   0  16  -6   28.23   36.46
   1  17  -7  188.04   44.98
   2  18  -8  378.27   49.09
   3  19  -9  -13.06   33.15
   4  20 -10   42.26   43.68
   5  21 -11  344.96   50.25
   6  22 -12 1517.22   88.12
   7  23 -13  813.16   70.11
   8  24 -14   89.54   51.59
   9  25 -15  268.09   49.52
  10  26 -16  103.68   55.74
  11  27 -17  -24.35   50.09
  12  28 -18  110.29   58.12
  13  29 -19  298.29   69.61
  14  30 -20  630.23   84.32
  15  31 -21  260.49   69.68
  16  32 -22  -39.87   54.63
  17  33 -23   58.39   63.50
  18  34 -24   65.65   66.57
  19  35 -25  139.41   72.87
   8  16   0  114.32   26.43
   7  15   1   23.59   23.47
   6  14   2   15.06   21.24
   5  13   3  147.70   25.39
  -3   5 -13  122.54   30.50
  -4   4 -12   13.10   29.35
   4  12   4   32.23   19.78
   3  11   5  239.24   21.59
  -5   3 -11  283.96   37.65
  -3 -11  -5  230.76   21.40
   2  10   6  115.05   16.40
  10  -6  -2  156.58   31.19
   6  -2  10  155.27   28.66
  -2 -10  -6  124.62   19.98
  -6   2 -10  105.60   28.85
   7  -1   9  575.72   34.30
   9  -7  -1  542.07   45.71
  -7   1  -9  629.50   38.99
  -1  -9  -7  608.60   26.39
  -8   0  -8  981.76   41.30
   8   0   8  889.02   40.76
   8  -8   0  857.64   50.25
  -8   8   0  951.37   50.75
  -7   9  -1  668.64   51.13
  -9  -1  -7  592.27   34.30
   7  -9   1  608.68   49.21
   9   1   7  595.50   33.73
  -6  10  -2  178.78   42.26
  10   2   6  122.23   21.93
   6 -10   2  134.72   35.73
  11   3   5  221.80   24.12
   5 -11   3  212.05   38.84
  -5  11  -3  256.11   43.95
  -4  12  -4   29.54   31.92
   4 -12   4  -52.40   31.31
   3 -13   5   85.86   35.69
  -3  13  -5  251.35   49.13
  -2  14  -6   12.91   37.26
   2 -14   6   17.90   34.46
  -1  15  -7   16.25   30.69
   0  16  -8  168.64   43.68
   1  17  -9  297.29   45.10
   2  18 -10   38.26   35.57
   3  19 -11  201.14   44.25
   4  20 -12   30.16   38.80
   5  21 -13   57.43   42.22
   6  22 -14  -16.17   39.80
   7  23 -15  323.83   55.70
   8  24 -16  710.13   72.83
   9  25 -17  238.44   56.97
  10  26 -18  -40.10   44.45
  11  27 -19   73.06   46.71
  12  28 -20   69.07   45.98
  13  29 -21  -57.70   55.78
  14  30 -22  -19.48   59.47
  15  31 -23    9.72   62.42
  16  32 -24  243.05   68.99
  17  33 -25  197.03   68.57
  18  34 -26  100.18   81.52
   8  18  -2  346.88   39.11
   7  17  -1  121.04   29.81
   6  16   0    3.00   25.74
   5  15   1  688.27   43.41
   4  14   2 2473.93   66.03
   3  13   3 1441.08   48.98
  -3 -13  -3 1488.10   46.10
  -4   2 -12   17.59   25.55
  -2 -12  -4   20.36   21.24
   2  12   4   -8.41   19.86
  -5   1 -11    3.34   24.82
  -1 -11  -5   10.33   22.32
   1  11   5    5.72   20.67
  11  -5  -1   24.70   28.66
  10  -6   0  156.81   35.57
  -6   0 -10  119.47   24.62
   0 -10  -6  118.59   23.78
   1  -9  -7  606.29   30.92
  -7  -1  -9  587.28   32.69
   7   1   9  567.15   30.35
   9  -7   1  585.78   46.87
  -9   7  -1  504.00   41.60
  -8  -2  -8  124.08   22.24
   8  -8   2  181.09   38.49
  -8   8  -2  136.49   33.92
   8   2   8  140.75   20.94
   7  -9   3 1529.93   62.54
   9   3   7 1570.04   42.22
  -7   9  -3 1585.48   65.53
  10   4   6 1044.26   35.69
   6 -10   4  975.57   57.93
  -6  10  -4 1022.67   60.04
   5 -11   5  666.91   48.86
  -5  11  -5  728.22   57.20
  -4  12  -6   12.37   36.34
   4 -12   6    2.34   35.38
   3 -13   7   81.55   37.30
  -3  13  -7   10.68   39.72
  -2  14  -8  164.57   45.33
  -1  15  -9  220.84   38.76
   0  16 -10   -4.88   39.84
   1  17 -11 1404.12   79.75
   2  18 -12 2710.02  110.75
   3  19 -13  671.33   64.81
   4  20 -14   27.97   40.76
   5  21 -15   47.63   41.72
   6  22 -16  199.99   48.25
   7  23 -17  218.16   55.55
   8  24 -18   26.12   47.60
   9  25 -19  549.17   69.84
  10  26 -20  958.67   87.28
  11  27 -21  315.92   60.20
  12  28 -22   65.80   52.05
  13  29 -23   86.32   53.09
  14  30 -24   88.24   61.81
  15  31 -25  158.38   75.45
  16  32 -26   -7.26   54.74
  17  33 -27  268.86   82.09
  23  35 -19   43.41   64.84
  10  22  -6   -7.15   33.04
   9  21  -5 1256.88   68.22
   8  20  -4  895.36   57.93
   7  19  -3   37.76   34.57
   6  18  -2   91.73   32.27
   5  17  -1  211.13   35.57
   4  16   0 1854.88   68.76
   3  15   1 1766.99   63.38
   2  14   2  158.50   32.34
  -2 -14  -2  172.63   29.12
   1  13   3 1431.44   51.97
  -1 -13  -3 1366.67   51.67
  12  -4   0    2.69   21.20
   0  12   4   17.44   22.32
   0 -12  -4   23.13   24.59
  11  -5   1   24.66   33.69
  -5  -1 -11  -20.63   21.67
   1 -11  -5   32.96   22.43
  -1  11   5   14.17   21.97
  -6  -2 -10  115.01   21.36
 -10   6  -2  147.40   34.84
  10  -6   2  140.75   34.57
   2 -10  -6  144.67   26.35
  -9   7  -3 1487.94   62.96
   3  -9  -7 1720.50   48.86
  -7  -3  -9 1601.73   39.22
   9  -7   3 1666.19   67.96
   7   3   9 1693.46   38.88
   8  -8   4 4477.89  105.52
   8   4   8 4704.19   58.93
  -8  -4  -8 4618.87   54.39
  -8   8  -4 4471.97  101.15
  -7   9  -5 2095.24   77.79
   9   5   7 2449.00   42.03
   7  -9   5 2314.54   79.25
  -6  10  -6  196.72   44.83
   6 -10   6  184.31   39.34
  -5  11  -7  880.80   64.38
   5 -11   7  951.83   56.97
   4 -12   8 1028.05   60.50
  -4  12  -8 1295.26   71.95
   3 -13   9   21.05   31.42
  -3  13  -9   12.41   39.57
  -2  14 -10   42.91   41.18
  -1  15 -11 1558.24   80.56
   0  16 -12 4877.48  136.56
   1  17 -13 2701.38  109.14
   2  18 -14   68.92   38.61
   3  19 -15 1519.44   89.47
   4  20 -16  654.77   64.57
   5  21 -17  -29.19   37.30
   6  22 -18   45.06   47.83
   7  23 -19  575.03   68.61
   8  24 -20 2305.48  121.04
   9  25 -21 1452.79  107.68
  10  26 -22  -73.79   57.05
  11  27 -23  750.77   90.08
  12  28 -24  561.16   81.63
  13  29 -25  109.17   58.16
  14  30 -26 -166.33   73.14
  15  31 -27  204.29   73.22
  16  32 -28  941.42  106.83
  17  33 -29  627.61  100.91
  22  36 -20   14.83   70.11
  21  35 -19  -26.77   53.63
  20  34 -18 1245.51  113.82
  19  33 -17 1013.72  101.84
  18  32 -16   22.40   46.37
  17  31 -15 1671.53  113.82
  16  30 -14 2491.02  127.88
  15  29 -13  558.24   70.14
  14  28 -12   28.47   49.06
  13  27 -11   -3.19   37.22
  12  26 -10 1437.47   87.01
  11  25  -9 2206.95  101.84
  10  24  -8   41.79   40.60
   9  23  -7 3192.51  114.67
   8  22  -6 5199.12  139.94
   7  21  -5 1659.04   81.44
   6  20  -4   -1.84   32.42
   5  19  -3  -18.78   28.96
   4  18  -2 1135.26   61.85
   3  17  -1 1580.37   67.11
  -2 -16   0   22.43   22.20
   2  16   0   20.28   30.58
  -1 -15  -1 2670.99   74.75
   1  15   1 2605.76   79.10
   0  14   2 8348.33  126.73
   0 -14  -2 8401.65  125.73
  -1  13   3 1410.46   55.01
  13  -3   1 1477.38   59.39
   1 -13  -3 1365.32   54.13
  -2  12   4    2.69   26.58
  12  -4   2  -72.41   35.38
   2 -12  -4  -37.80   26.77
   3 -11  -5  261.56   33.31
 -11   5  -3  230.87   36.57
  -5  -3 -11  212.05   21.55
  -3  11   5  199.10   26.97
  11  -5   3  237.17   38.76
 -10   6  -4  955.06   52.55
  -6  -4 -10 1107.76   31.15
  10  -6   4  981.41   55.36
   4 -10  -6 1043.34   46.79
   9  -7   5 2210.90   77.37
  -9   7  -5 2289.23   75.14
  -8   8  -6   70.22   41.06
   8  -8   6   25.39   35.07
  -7   9  -7 3606.50   98.69
   7  -9   7 3845.78  100.61
  -6  10  -8 5497.87  124.42
   6 -10   8 5452.92  119.20
  -5  11  -9 1906.51   84.78
   5 -11   9 1810.70   76.33
   4 -12  10   42.37   26.20
  -4  12 -10  -10.53   44.18
  -3  13 -11   51.86   35.69
  -2  14 -12 3241.91  108.75
  -1  15 -13 3064.78  109.44
   0  16 -14    7.34   39.99
   1  17 -15 2913.04  116.78
   2  18 -16 4815.25  147.28
   3  19 -17 1044.72   75.75
   4  20 -18    3.53   44.37
   5  21 -19   37.45   45.75
   6  22 -20  954.18   81.59
   7  23 -21 1483.68  100.30
   8  24 -22  -61.00   56.20
   9  25 -23 1962.40  121.77
  10  26 -24 2807.75  145.67
  11  27 -25  653.39   84.36
  12  28 -26   47.13   53.32
  13  29 -27  -34.77   61.16
  14  30 -28  236.36   74.83
  15  31 -29  582.63  101.34
  16  32 -30   18.09   69.34
  21  37 -21   48.90   73.22
  20  36 -20   28.89   56.81
  19  35 -19  243.82   75.95
  18  34 -18   -6.53   60.50
  17  33 -17 1971.27  132.68
  16  32 -16 3958.03  170.64
  15  31 -15 1805.67  117.47
  14  30 -14   33.04   46.40
  13  29 -13  333.51   56.05
  12  28 -12   28.77   49.90
  11  27 -11  243.93   46.25
  10  26 -10   29.43   42.60
   9  25  -9 2881.73  119.62
   8  24  -8 7064.06  179.24
   7  23  -7 3623.55  124.92
   6  22  -6   23.28   37.49
   5  21  -5 1218.39   70.22
   4  20  -4  261.33   43.06
   3  19  -3  175.59   41.37
   2  18  -2   67.07   37.34
  -1 -17   1 3628.39   93.08
   1  17  -1 3587.98  101.34
   0  16   0 7188.83  132.91
   0 -16   0 7047.43  124.58
  -1  15   1 2643.03   81.63
   1 -15  -1 2755.08   81.48
  14  -2   2  151.78   28.96
   2 -14  -2  140.44   31.15
  -2  14   2  154.77   33.84
   3 -13  -3 1422.02   59.24
  13  -3   3 1459.52   61.00
  -3  13   3 1485.68   59.27
  -4  12   4   53.24   28.20
  12  -4   4  -13.10   34.19
   4 -12  -4   24.12   28.73
 -12   4  -4   42.14   31.65
  11  -5   5  788.30   53.17
   5 -11  -5  736.67   47.17
 -11   5  -5  717.16   49.94
  10  -6   6  129.76   32.61
   6 -10  -6  187.77   31.38
 -10   6  -6  177.47   40.72
  -9   7  -7 3808.71   97.57
   9  -7   7 3887.81  100.76
  -8   8  -8 8887.44  152.85
   8  -8   8 9282.80  153.39
   7  -9   9 3862.84  102.76
  -7   9  -9 3841.67  107.52
   6 -10  10  -15.87   37.99
  -6  10 -10   34.23   42.87
  -5  11 -11 1174.44   69.88
   5 -11  11 1093.27   60.66
  -4  12 -12   14.71   39.26
  -3  13 -13  990.59   68.42
  -2  14 -14   -6.49   42.37
  -1  15 -15 3412.27  120.58
   0  16 -16 6720.64  172.60
   1  17 -17 3467.09  129.80
   2  18 -18   36.72   47.33
   3  19 -19  824.72   76.18
   4  20 -20  191.46   52.24
   5  21 -21  170.41   55.43
   6  22 -22  -20.90   36.76
   7  23 -23 1802.33  114.47
   8  24 -24 4333.76  170.68
   9  25 -25 1650.36  114.82
  10  26 -26   51.59   63.92
  11  27 -27  422.25   75.79
  12  28 -28  -37.22   51.09
  13  29 -29   56.81   66.69
  14  30 -30  -35.03   66.15
  15  31 -31  848.69  112.17
  14  30 -32 1028.85  112.29
  13  29 -31  195.61   78.33
  12  28 -30  -17.17   67.07
  11  27 -29  -23.78   54.97
  10  26 -28 1042.26  100.15
   9  25 -27 1052.52   98.34
   8  24 -26  117.74   63.08
   7  23 -25 2043.95  122.47
   6  22 -24 2903.36  138.22
   5  21 -23  464.81   65.69
   4  20 -22   -5.88   52.63
   3  19 -21  168.18   47.48
   2  18 -20 1573.65   93.77
   1  17 -19 1887.49   98.53
   0  16 -18    3.69   39.84
  -1  15 -17 2889.19  120.51
  -2  14 -16 5337.95  146.24
  -3  13 -15 2173.91   92.69
  -4  12 -14  -14.25   43.72
  -5  11 -13  212.82   47.25
  -6  10 -12 2673.07   96.38
   6 -10  12 2935.51   92.46
  -7   9 -11 3167.88  102.41
   7  -9  11 3269.95   98.19
  -8   8 -10   10.56   35.76
   8  -8  10  -10.83   35.57
  -9   7  -9 4130.43  106.06
   9  -7   9 4152.90  105.75
   8 -10  -6 5756.44  109.79
  10  -6   8 5674.27  119.20
 -10   6  -8 5633.74  118.74
 -11   5  -7  923.25   53.63
   7 -11  -5  935.77   52.59
  11  -5   7 1010.88   58.54
  12  -4   6  -35.92   31.38
   6 -12  -4   45.37   28.50
  -6  12   4  -51.01   30.65
 -12   4  -6  -17.32   31.50
  13  -3   5  174.90   34.96
   5 -13  -3   48.40   31.19
  -5  13   3  143.98   32.58
 -13   3  -5  120.16   28.08
   4 -14  -2 2414.77   79.44
  -4  14   2 2439.28   77.90
  14  -2   4 2504.93   78.17
   3 -15  -1 1737.02   70.45
  15  -1   3 1807.09   65.11
  -3  15   1 1783.89   70.61
   2 -16   0  -75.45   36.57
  -2  16   0   55.12   36.22
   1 -17   1 3379.43   94.46
  -1  17  -1 3539.66  103.07
   0 -18   2 6248.06  129.23
   0  18  -2 6390.31  138.75
   1  19  -3 1447.99   76.64
   2  20  -4   13.60   35.84
   3  21  -5  225.11   45.10
   4  22  -6 2031.93   94.04
   5  23  -7 1991.94   95.15
   6  24  -8   40.95   38.61
   7  25  -9 2734.45  115.51
   8  26 -10 4497.10  152.93
   9  27 -11 1007.76   83.97
  10  28 -12  136.03   56.74
  11  29 -13    4.26   52.74
  12  30 -14  675.48   86.36
  13  31 -15  948.11   93.27
  14  32 -16   35.80   55.36
  15  33 -17 1603.23  119.55
  16  34 -18 2806.90  161.15
  17  35 -19  788.42  103.60
  18  36 -20  -53.01   76.21
  19  37 -21  -44.87   63.65
  15  29 -33  480.87   96.23
   2  16 -20  -23.89   45.02
   1  15 -19 2125.78  100.57
   0  14 -18 4753.78  140.83
  -1  13 -17 2869.21  108.87
  -2  12 -16    0.69   41.60
  -3  11 -15 1038.26   65.77
  -4  10 -14   15.14   41.14
   9  13   5  567.92   25.24
  -5   9 -13  521.63   50.28
   6  -8  12   55.59   27.24
  -6   8 -12   34.88   33.42
   8  12   6   14.90   10.99
  -7   7 -11 2004.69   78.25
   7  -7  11 2161.08   78.21
  -8   6 -10 5401.68  117.32
   8  -6  10 5672.73  116.36
   9  -5   9 2625.85   81.40
  -9   5  -9 2572.77   79.94
   9  -9  -5 2448.15   72.60
   8 -10  -4   53.51   29.50
 -10   4  -8   17.71   33.34
  10  -4   8   14.90   28.35
   7 -11  -3  294.29   39.49
  11  -3   7  292.68   36.34
  -7  11   3  297.90   35.80
 -11   3  -7  286.69   36.49
   6 -12  -2   24.85   31.08
 -12   2  -6   32.50   27.50
  12  -2   6   15.29   27.81
  -6  12   2   38.49   33.11
  -5  13   1   13.94   32.00
   5 -13  -1  -12.87   31.42
  13  -1   5   45.02   24.85
  -4  14   0    1.04   36.88
  14   0   4  -17.79   24.16
   3 -15   1 1885.46   73.91
  -3  15  -1 1727.03   73.45
  -2  16  -2 2899.75   94.19
   2 -16   2 2816.62   89.28
   1 -17   3 1556.74   71.76
  -1  17  -3 1405.24   70.61
   0  18  -4  -17.52   34.53
   0 -18   4    1.46   30.69
   1  19  -5  493.01   55.24
   2  20  -6   85.97   44.41
   3  21  -7  309.39   48.52
   4  22  -8    2.88   37.68
   5  23  -9 1767.25   93.12
   6  24 -10 4697.12  149.97
   7  25 -11 2171.99  109.56
   8  26 -12   50.09   50.02
   9  27 -13  285.61   59.27
  10  28 -14  -48.06   48.63
  11  29 -15   41.56   53.70
  12  30 -16    0.27   54.32
  13  31 -17 1090.24  102.41
  14  32 -18 2581.52  145.01
  15  33 -19 1079.64  108.33
  16  34 -20   66.65   68.11
  17  35 -21  250.62   74.26
  18  36 -22  110.60   76.94
  -1  11 -17 1440.85   77.14
  -2  10 -16 2002.39   88.24
  -3   9 -15  252.57   46.25
   9  15   3  157.23   23.05
   8  14   4   -6.72   18.02
  -4   8 -14  126.96   44.56
  -5   7 -13  206.59   39.34
   7  13   5  299.67   23.59
   6  12   6 1019.06   29.54
  -6   6 -12 1048.37   59.93
  -7   5 -11 1004.27   57.12
   5  11   7  891.98   22.24
   7  -5  11 1049.44   55.05
   8  -4  10    4.72   29.85
  -8   4 -10    8.87   31.85
  10  -8  -4   14.02   31.54
  -3  -9  -9 2250.85   35.57
   9  -3   9 2168.42   69.80
   9  -9  -3 2361.87   77.71
  -9   3  -9 2272.83   70.80
  10  -2   8 2237.68   68.84
   8 -10  -2 2350.35   77.44
  -8  10   2 2255.43   69.07
 -10   2  -8 2359.64   67.99
  -7  11   1   87.20   35.84
 -11   1  -7   29.04   25.81
  11  -1   7   19.40   26.47
   7 -11  -1   54.51   34.34
  12   0   6    8.87   23.62
   6 -12   0   54.43   35.69
  13   1   5   25.35   22.43
   5 -13   1   54.13   28.66
  -5  13  -1   49.44   36.26
   4 -14   2 2437.36   83.90
  14   2   4 2585.94   65.15
  -4  14  -2 2315.70   83.09
  -3  15  -3  968.66   62.81
   3 -15   3 1103.45   62.38
  -2  16  -4  -73.87   37.11
   2 -16   4  -25.16   33.34
   1 -17   5  303.90   38.30
  -1  17  -5  269.63   47.56
   0  18  -6  347.15   49.94
   1  19  -7   36.84   40.07
   2  20  -8   76.68   42.52
   3  21  -9  314.81   47.44
   4  22 -10 1363.90   83.17
   5  23 -11  911.27   73.14
   6  24 -12   -8.45   41.72
   7  25 -13  653.85   70.61
   8  26 -14  762.83   81.55
   9  27 -15   79.98   50.09
  10  28 -16  -24.51   50.44
  11  29 -17  245.81   61.23
  12  30 -18 1085.13   98.19
  13  31 -19  414.26   68.72
  14  32 -20   52.59   53.43
  15  33 -21  497.54   91.85
  16  34 -22  487.06   88.31
  17  35 -23   76.94   75.98
  18  36 -24   76.33   62.58
   9  17   1  320.91   34.04
  -2   8 -16  -33.57   38.22
   8  16   2    9.99   25.20
   7  15   3   47.36   20.51
  -3   7 -15   66.23   32.54
  -4   6 -14  -60.85   37.95
   6  14   4  -13.98   20.44
  -5   5 -13   62.65   31.88
   5  13   5   51.36   18.09
  -6   4 -12   15.75   33.77
  -4 -12  -6   -5.65   15.21
   4  12   6   36.03   16.63
   7  -3  11  312.81   34.69
  11  -7  -3  294.25   32.11
  -3 -11  -7  310.43   21.20
  -7   3 -11  293.87   38.03
   8  -2  10 2220.47   64.61
  -8   2 -10 2161.04   67.26
  -2 -10  -8 2377.74   44.60
  10  -8  -2 2327.80   77.75
  -9   1  -9 1345.00   52.90
   9  -1   9 1350.46   53.01
  -9   9   1 1192.61   53.90
   9  -9  -1 1252.85   60.39
 -10   0  -8   11.91   23.43
  10   0   8   -2.57   24.05
  -8  10   0   22.28   36.07
   8 -10   0  -33.69   36.19
 -11  -1  -7   57.66   21.09
  11   1   7   11.75   24.12
  -7  11  -1   40.99   36.69
   7 -11   1   14.33   35.53
   6 -12   2   67.49   34.50
  -6  12  -2    5.53   37.65
  12   2   6   24.20   22.24
   5 -13   3  122.62   34.96
  -5  13  -3  137.72   41.95
  13   3   5   92.77   23.32
   4 -14   4   51.44   38.07
  -4  14  -4   20.59   37.84
  -3  15  -5  384.95   48.79
   3 -15   5  401.89   45.33
  -2  16  -6  467.77   54.20
   2 -16   6  454.79   45.75
  -1  17  -7  121.66   42.52
   0  18  -8   54.28   43.56
   1  19  -9  248.12   49.98
   2  20 -10  104.68   41.10
   3  21 -11   12.79   35.92
   4  22 -12   30.31   46.94
   5  23 -13  359.60   59.81
   6  24 -14  704.60   74.79
   7  25 -15  352.45   58.62
   8  26 -16  -66.73   56.05
   9  27 -17   44.29   43.41
  10  28 -18  -31.58   48.02
  11  29 -19   84.24   65.07
  12  30 -20   -5.69   60.73
  13  31 -21   38.11   63.15
  14  32 -22  216.54   68.03
  15  33 -23  181.70   61.77
  16  34 -24  -34.73   72.03
  17  35 -25   68.45   75.45
  10  20  -2  155.23   35.26
   9  19  -1  236.33   34.34
   8  18   0  -49.71   32.04
   7  17   1  175.71   30.92
   6  16   2  438.23   35.53
  -3   5 -15  350.80   42.68
   5  15   3  427.44   34.57
  -4   4 -14   20.90   29.92
   4  14   4   -7.49   21.86
   3  13   5   91.66   20.36
  -3 -13  -5  109.14   21.86
  -5   3 -13  132.15   33.23
  12  -6  -2    9.87   23.05
  -2 -12  -6   80.98   20.17
   2  12   6   61.31   18.21
  -6   2 -12   46.06   28.54
  -7   1 -11   34.46   27.12
   7  -1  11   74.49   24.66
  11  -7  -1   20.13   34.61
  -1 -11  -7   11.29   19.36
 -10   8   0  -44.45   34.80
  10  -8   0  -20.86   35.88
   0 -10  -8  -40.53   19.17
  -8   0 -10    7.07   24.59
   8   0  10  -10.06   20.94
  -9   9  -1 1315.89   59.89
  -9  -1  -9 1355.61   46.60
   9  -9   1 1092.58   56.47
   9   1   9 1347.77   49.52
   8 -10   2 2475.54   84.43
  10   2   8 2396.79   58.89
  -8  10  -2 2301.06   79.40
 -10  -2  -8 2336.86   53.09
  11   3   7  284.57   25.39
  -7  11  -3  326.52   43.06
   7 -11   3  351.30   40.18
   6 -12   4   56.47   31.50
  -6  12  -4   -7.72   39.80
  12   4   6   -8.11   18.55
   5 -13   5   36.53   37.84
  -5  13  -5   34.19   30.46
  -4  14  -6  -57.89   40.18
   4 -14   6   60.20   36.84
  -3  15  -7   25.81   34.84
   3 -15   7   53.28   36.03
  -2  16  -8   -8.72   42.26
  -1  17  -9  418.79   56.97
   0  18 -10  976.46   69.61
   1  19 -11  545.06   59.04
   2  20 -12   13.45   33.92
   3  21 -13  170.75   54.32
   4  22 -14   -6.76   48.06
   5  23 -15   92.46   49.32
   6  24 -16   15.79   45.44
   7  25 -17  288.57   62.85
   8  26 -18  488.17   68.11
   9  27 -19  136.10   64.23
  10  28 -20  -61.42   61.27
  11  29 -21  131.03   63.84
  12  30 -22 -172.37   68.03
  13  31 -23   72.64   67.30
  14  32 -24  -72.80   73.41
  15  33 -25  132.88   63.27
  16  34 -26  314.04   85.51
  17  35 -27  265.64   89.74
  24  36 -18  123.43   69.34
  23  35 -17  184.58   71.64
  22  34 -16  619.97   86.36
  12  24  -6  -64.08   40.72
  11  23  -5 1145.98   69.99
  10  22  -4 1495.13   74.49
   9  21  -3  288.95   38.53
   8  20  -2   32.92   32.88
   7  19  -1   60.35   32.23
   6  18   0  362.67   38.03
   5  17   1  216.04   34.11
   4  16   2   31.08   27.97
   3  15   3 1107.10   50.17
  -3 -15  -3 1091.43   44.91
  -4   2 -14 2422.37   69.49
   2  14   4 2439.81   64.65
  -2 -14  -4 2377.20   61.54
  -5   1 -13   30.42   27.50
  -1 -13  -5   45.02   22.97
  13  -5  -1   67.61   24.74
   1  13   5   34.88   22.01
  12  -6   0   37.38   34.73
  -6   0 -12    0.04   24.97
   0 -12  -6  -10.14   22.05
   0  12   6    3.76   19.17
  -7  -1 -11   20.47   23.20
   1 -11  -7   40.53   20.63
  11  -7   1   58.62   38.72
 -11   7  -1   40.49   26.58
  10  -8   2 2454.03   81.28
   8   2  10 2315.12   53.05
   2 -10  -8 2301.56   56.85
  -8  -2 -10 2341.67   54.78
 -10   8  -2 2299.06   77.60
   9  -9   3 2126.66   76.29
  -9   9  -3 2065.12   75.29
  -9  -3  -9 2257.92   49.52
   9   3   9 2236.37   50.51
  -8  10  -4    5.65   40.14
  10   4   8   31.96   17.40
   8 -10   4   19.75   37.45
  11   5   7  985.14   34.57
  -7  11  -5  911.61   61.08
   7 -11   5 1038.53   61.81
  -6  12  -6 1049.75   68.65
   6 -12   6 1070.96   64.04
   5 -13   7  202.90   39.80
  -5  13  -7  243.20   47.79
  -4  14  -8   -5.69   42.10
   4 -14   8   51.44   32.50
   3 -15   9  148.89   38.22
  -3  15  -9   64.92   42.91
  -2  16 -10 2118.94   93.88
  -1  17 -11 1347.39   76.10
   0  18 -12   31.54   37.92
   1  19 -13 1067.69   76.10
   2  20 -14 2054.36  104.53
   3  21 -15  345.65   62.65
   4  22 -16  -56.62   50.25
   5  23 -17  -39.03   46.52
   6  24 -18  583.40   68.49
   7  25 -19  594.92   76.06
   8  26 -20   15.75   53.17
   9  27 -21  788.30   86.01
  10  28 -22 1011.53   95.65
  11  29 -23  320.11   74.45
  12  30 -24   16.94   62.73
  13  31 -25 -129.65   71.18
  14  32 -26  161.23   71.87
  15  33 -27  179.59   70.84
  16  34 -28 -114.01   79.59
  22  36 -18   88.12   65.69
  21  35 -17  225.61   67.80
  20  34 -16  -56.97   52.70
  19  33 -15 1111.67  102.18
  18  32 -14 2702.65  138.75
  17  31 -13 1174.33   98.38
  16  30 -12  127.96   58.66
  15  29 -11   71.14   47.71
  14  28 -10   11.06   44.83
  13  27  -9  248.54   47.33
  12  26  -8   88.47   44.52
  11  25  -7 2201.88   99.34
  10  24  -6 4817.28  138.37
   9  23  -5 1938.85   91.16
   8  22  -4   21.55   32.58
   7  21  -3  344.31   41.68
   6  20  -2  -10.91   30.12
   5  19  -1  467.54   47.56
   4  18   0  -28.08   30.08
   3  17   1 1456.67   62.58
   2  16   2 2686.55   78.13
  -2 -16  -2 2968.74   77.60
  -1 -15  -3 1746.32   60.46
   1  15   3 1760.11   62.81
   0  14   4   52.01   25.93
  14  -4   0   35.03   30.73
   0 -14  -4   19.90   26.24
  13  -5   1   28.47   32.61
  -1  13   5   62.69   23.89
   1 -13  -5   47.86   25.81
  -5  -1 -13   44.68   22.32
  -6  -2 -12   59.66   21.05
  12  -6   2    6.30   35.49
   2 -12  -6   50.78   24.97
 -12   6  -2   40.07   28.04
 -11   7  -3  305.39   43.56
  -7  -3 -11  298.33   25.51
   3 -11  -7  254.46   31.46
  11  -7   3  339.93   42.76
   8   4  10   41.41   14.14
  -8  -4 -10   45.98   16.17
 -10   8  -4   45.44   33.88
  10  -8   4   29.19   35.99
  -9   9  -5 2592.24   86.74
   9   5   9 2587.48   44.25
   9  -9   5 2452.68   84.51
   8 -10   6 5777.64  127.42
  10   6   8 5647.76   63.81
  -8  10  -6 5630.02  124.12
   7 -11   7 2035.54   78.48
  11   7   7 2070.38   40.68
  -7  11  -7 1824.49   78.79
  -6  12  -8    0.96   40.83
   6 -12   8  -31.42   32.54
   5 -13   9  536.46   51.13
  -5  13  -9  491.20   54.74
   4 -14  10   16.71   24.16
  -4  14 -10  -52.01   42.56
  -3  15 -11 1037.80   68.34
  -2  16 -12   46.10   47.10
  -1  17 -13 2416.65  100.45
   0  18 -14 4678.99  143.82
   1  19 -15 2067.73  105.52
   2  20 -16  -63.58   49.82
   3  21 -17  175.63   55.93
   4  22 -18   70.61   51.48
   5  23 -19  291.14   57.78
   6  24 -20  -62.12   57.54
   7  25 -21 1502.16  108.44
   8  26 -22 2970.97  145.74
   9  27 -23 1206.56  100.42
  10  28 -24   32.84   48.75
  11  29 -25  373.66   78.21
  12  30 -26   74.37   63.38
  13  31 -27   -9.91   69.26
  14  32 -28  -24.20   67.30
  15  33 -29  511.07   90.93
  21  37 -19  -66.53   79.25
  20  36 -18   41.22   65.34
  19  35 -17  691.50   89.89
  18  34 -16 2641.53  146.82
  17  33 -15 1646.71  121.31
  16  32 -14  -34.61   57.93
  15  31 -13  988.13   94.35
  14  30 -12  733.60   79.06
  13  29 -11   33.15   39.80
  12  28 -10   15.33   46.10
  11  27  -9 1045.37   80.90
  10  26  -8 4340.87  147.51
   9  25  -7 2917.92  117.59
   8  24  -6   77.17   42.60
   7  23  -5 1809.89   86.36
   6  22  -4 1841.24   83.94
   5  21  -3  278.27   45.91
   4  20  -2    5.57   34.19
   3  19  -1 1545.10   72.30
  -2 -18   0 6595.75  120.97
   2  18   0 6251.48  129.03
   1  17   1 3544.23   96.65
  -1 -17  -1 3523.25   91.54
   0 -16  -2   26.31   27.20
   0  16   2  -23.32   30.54
   1 -15  -3 1718.62   65.65
  -1  15   3 1822.53   65.27
  15  -3   1 1765.56   65.57
  14  -4   2 2364.83   78.10
   2 -14  -4 2432.78   72.26
  -2  14   4 2413.15   71.45
  13  -5   3   99.88   35.53
  -3  13   5   73.49   26.39
   3 -13  -5   74.83   27.50
  -6  -4 -12    5.15   16.10
 -12   6  -4   -8.87   35.15
  12  -6   4   15.63   35.00
   4 -12  -6  -11.72   27.35
  11  -7   5 1033.92   57.93
   5 -11  -7  967.20   47.71
  -7  -5 -11  954.25   29.46
 -11   7  -5 1016.75   59.39
  10  -8   6 5513.20  123.00
 -10   8  -6 5602.32  121.85
  -9   9  -7 3902.79  105.29
   9  -9   7 4078.76  109.75
   8 -10   8    9.87   39.34
  -8  10  -8   -9.30   39.41
   7 -11   9 3075.46   97.65
  -7  11  -9 2976.73   99.72
   6 -12  10 2962.94  100.07
  -6  12 -10 2620.40   98.00
  -5  13 -11  156.27   41.49
   5 -13  11  220.73   41.64
  -4  14 -12   23.36   45.41
  -3  15 -13 2180.63   97.80
  -2  16 -14 5384.62  148.70
  -1  17 -15 2889.11  115.59
   0  18 -16   54.66   44.14
   1  19 -17 2243.98  113.36
   2  20 -18 1692.73  102.60
   3  21 -19  182.35   47.83
   4  22 -20   45.44   51.74
   5  23 -21  514.98   72.87
   6  24 -22 2896.41  140.29
   7  25 -23 2172.60  128.30
   8  26 -24   52.13   46.37
   9  27 -25 1033.58   96.42
  10  28 -26  849.19   92.43
  11  29 -27  126.50   62.19
  12  30 -28  -68.99   71.45
  13  31 -29  473.07   99.57
  14  32 -30 1089.59  116.70
  20  38 -20  -53.59   77.83
  19  37 -19   79.06   72.30
  18  36 -18  973.08  109.29
  17  35 -17 1202.33  111.21
  16  34 -16   66.99   66.19
  15  33 -15 1873.66  128.61
  14  32 -14 2564.51  142.48
  13  31 -13  411.65   70.95
  12  30 -12  138.64   64.08
  11  29 -11  198.33   55.20
  10  28 -10  978.61   83.82
   9  27  -9 1372.89   91.12
   8  26  -8   56.89   41.22
   7  25  -7 2740.83  110.48
   6  24  -6 4447.27  135.41
   5  23  -5 1189.96   76.29
   4  22  -4  -11.02   38.91
   3  21  -3  277.01   44.56
   2  20  -2 2518.18   93.65
  -1 -19   1 3452.07   95.50
   1  19  -1 3146.18  100.26
   0 -18   0   26.51   27.50
   0  18   0   39.84   33.38
   1 -17  -1 3605.88   97.11
  -1  17   1 3515.88   98.15
  16  -2   2 3034.62   86.85
  -2  16   2 3012.19   87.35
   2 -16  -2 2873.55   87.12
  15  -3   3 1103.72   58.85
  -3  15   3 1036.46   54.47
   3 -15  -3 1009.65   55.47
  -4  14   4   19.78   29.46
   4 -14  -4   34.11   27.97
  14  -4   4   -4.88   32.81
   5 -13  -5   72.30   32.61
  13  -5   5   49.67   25.70
 -13   5  -5   69.15   32.69
  -5  13   5   65.00   26.85
 -12   6  -6 1161.96   62.65
   6 -12  -6 1093.01   55.70
  -6  -6 -12 1048.75   28.54
  12  -6   6 1014.83   57.70
   7 -11  -7 2115.17   70.03
 -11   7  -7 1961.94   77.56
  11  -7   7 1993.25   77.90
  10  -8   8   -6.15   34.38
 -10   8  -8   11.22   33.96
   9  -9   9 4691.55  117.39
  -9   9  -9 4648.26  119.58
  -8  10 -10 8359.63  162.65
   8 -10  10 8263.17  154.73
  -7  11 -11 2506.81   97.27
   7 -11  11 2677.22   95.88
   6 -12  12   -8.30   25.89
  -6  12 -12  -11.49   45.44
  -5  13 -13  175.71   53.59
  -4  14 -14 2965.09  113.21
  -3  15 -15 2350.04  102.99
  -2  16 -16    5.49   39.14
  -1  17 -17 3207.33  123.62
   0  18 -18 5865.07  172.02
   1  19 -19 1571.57   99.38
   2  20 -20   -8.72   44.68
   3  21 -21   71.22   55.05
   4  22 -22  367.32   59.70
   5  23 -23  966.74   92.73
   6  24 -24    5.57   55.24
   7  25 -25 1769.52  118.55
   8  26 -26 2720.35  146.28
   9  27 -27  466.47   74.95
  10  28 -28   96.15   62.65
  11  29 -29   42.06   68.53
  12  30 -30  240.47   86.85
  13  31 -31  445.11   85.63
  14  32 -32    0.35   67.72
  13  31 -33  382.26   89.58
  12  30 -32   98.00   77.56
  11  29 -31  162.72   76.33
  10  28 -30  -92.50   69.41
   9  27 -29  238.05   71.76
   8  26 -28 -108.98   55.12
   7  25 -27 1299.56  110.21
   6  24 -26 2901.63  148.66
   5  23 -25 1153.12  101.34
   4  22 -24   43.45   55.55
   3  21 -23   49.86   53.78
   2  20 -22  115.40   53.51
   1  19 -21  812.77   78.40
   0  18 -20   30.81   49.86
  -1  17 -19 2203.72  110.33
  -2  16 -18 4952.38  153.93
  -3  15 -17 1744.13   90.77
  -4  14 -16   79.40   41.95
  -5  13 -15  646.94   63.92
  -6  12 -14  -11.52   43.49
  -7  11 -13  647.51   62.46
   7 -11  13  602.57   52.09
   8 -10  12   37.26   31.77
  -8  10 -12   16.67   42.10
   9  -9  11 3776.71  107.18
  -9   9 -11 3709.87  112.71
 -10   8 -10 8568.29  158.73
  10  -8  10 8914.49  159.19
 -11   7  -9 3128.32   96.54
  11  -7   9 3060.74   96.54
   9 -11  -7 3211.48   86.82
   8 -12  -6   -1.42   25.97
 -12   6  -8   -8.53   31.42
  12  -6   8   51.90   28.93
   7 -13  -5  308.58   37.22
  13  -5   7  376.65   46.56
 -13   5  -7  403.43   43.37
  -6  14   4   16.98   29.73
   6 -14  -4   -6.57   31.12
  14  -4   6  -57.74   35.57
 -14   4  -6   39.03   29.54
   5 -15  -3  372.85   44.29
  15  -3   5  376.42   39.34
  -5  15   3  418.60   41.49
   4 -16  -2    7.95   27.16
  -4  16   2   62.12   34.77
  -3  17   1 1539.07   70.30
  17  -1   3 1532.35   65.96
   3 -17  -1 1436.43   67.34
   2 -18   0 6632.86  137.25
  -2  18   0 6418.85  136.76
   1 -19   1 3473.81  102.76
  -1  19  -1 3380.08  103.80
   0  20  -2    2.27   33.38
   0 -20   2   18.05   30.69
   1  21  -3  405.81   50.90
   2  22  -4  -13.29   39.72
   3  23  -5  391.02   53.82
   4  24  -6   55.24   45.29
   5  25  -7 1593.66   92.08
   6  26  -8 3818.78  137.56
   7  27  -9 1354.38   89.97
   8  28 -10   10.91   47.25
   9  29 -11  220.19   53.13
  10  30 -12  101.99   49.98
  11  31 -13   37.07   55.16
  12  32 -14   29.23   50.71
  13  33 -15  956.79   94.88
  14  34 -16 2437.82  146.59
  15  35 -17 1220.81  111.63
  16  36 -18  -22.74   60.23
  17  37 -19  265.60   80.67
  18  38 -20   85.43   76.48
  14  30 -34   70.68   80.48
  13  29 -33  120.31   59.00
  12  28 -32   43.02   67.57
  11  27 -31  136.56   75.37
  10  26 -30  -42.45   59.39
   9  25 -29  701.56   85.89
   8  24 -28 2144.75  129.65
   7  23 -27 1173.56  101.03
   6  22 -26   79.90   47.25
   5  21 -25  734.83   78.71
   4  20 -24  221.73   55.97
   3  19 -23  -30.16   39.61
   2  18 -22   38.11   50.21
   1  17 -21  819.61   73.72
   0  16 -20 3172.26  128.11
  -1  15 -19 2241.10  109.40
  -2  14 -18   23.86   33.73
  -3  13 -17 1670.60   87.12
  -4  12 -16 2001.89   87.93
  -5  11 -15  156.88   48.98
  10  14   6   12.56   14.02
  -6  10 -14  -40.14   40.57
  -7   9 -13 1180.47   72.33
   9  13   7 1094.66   28.77
   7  -9  13 1118.01   61.35
  -8   8 -12 4188.82  115.44
   8  -8  12 4495.68  114.36
   9  -7  11 3024.40   92.27
  -9   7 -11 3028.25   98.38
  10  -6  10   92.69   38.26
 -10   6 -10   66.84   39.87
  10 -10  -6   34.30   31.46
 -11   5  -9 1739.87   70.49
  11  -5   9 1611.29   68.76
   9 -11  -5 1794.07   69.76
   8 -12  -4 1264.79   63.23
  12  -4   8 1211.90   59.70
 -12   4  -8 1159.69   59.04
   7 -13  -3    6.30   26.31
  -7  13   3   -7.26   30.81
 -13   3  -7   53.82   32.11
  13  -3   7   62.96   33.92
  14  -2   6   30.12   25.78
   6 -14  -2   42.14   33.54
  -6  14   2   94.08   36.53
  -5  15   1  646.44   51.36
   5 -15  -1  588.05   51.90
  15  -1   5  591.27   43.02
  16   0   4 2006.58   69.38
  -4  16   0 1934.78   78.13
   4 -16   0 2010.61   79.40
   3 -17   1 1569.84   75.52
  -3  17  -1 1474.38   72.07
   2 -18   2  -12.91   32.92
  -2  18  -2   -7.76   34.77
  -1  19  -3 1393.33   75.41
   1 -19   3 1472.54   71.72
   0  20  -4  673.87   59.16
   1  21  -5   62.31   40.64
   2  22  -6   71.11   38.22
   3  23  -7  827.33   69.22
   4  24  -8 2909.58  119.20
   5  25  -9 1771.98   97.23
   6  26 -10   19.21   36.53
   7  27 -11  917.18   79.33
   8  28 -12  692.92   71.64
   9  29 -13   25.78   53.47
  10  30 -14    7.41   43.29
  11  31 -15  469.62   77.71
  12  32 -16 1440.50  112.40
  13  33 -17 1015.25  103.37
  14  34 -18  -41.14   57.43
  15  35 -19  698.34   98.11
  16  36 -20  354.91   87.12
  17  37 -21 -172.71   84.97
  18  38 -22  -53.05   76.71
  14  28 -34  264.10   84.78
   2  16 -22 1154.01   83.82
   1  15 -21  982.14   73.68
   0  14 -20  -42.41   35.69
  -1  13 -19  988.52   71.68
  -2  12 -18 2539.81  105.56
  -3  11 -17  854.87   67.07
  -4  10 -16   -5.03   32.08
  10  16   4   25.70   19.40
   9  15   5  138.45   21.55
  -5   9 -15  168.52   41.30
   8  14   6  739.78   29.85
  -6   8 -14  723.38   57.58
   7  13   7  526.09   21.40
   7  -7  13  499.16   40.53
  -7   7 -13  462.97   48.33
   8  -6  12  -29.04   32.27
  -8   6 -12    0.46   35.38
  11  -9  -5 1666.57   63.77
  -9   5 -11 1755.04   70.72
   9  -5  11 1792.42   69.68
 -10   4 -10 2594.28   80.36
  10 -10  -4 2575.49   82.21
  10  -4  10 2727.04   81.36
 -11   3  -9  841.74   52.17
  11  -3   9  796.14   49.59
   9 -11  -3  756.07   51.13
   8 -12  -2  -30.19   32.96
 -12   2  -8    0.31   27.66
  -8  12   2    3.96   26.43
  12  -2   8    7.49   29.50
   7 -13  -1   -4.19   27.77
 -13   1  -7    7.68   24.93
  -7  13   1   46.98   37.76
  13  -1   7   10.49   25.97
  -6  14   0    6.99   32.73
   6 -14   0   44.48   27.89
  14   0   6   23.62   25.28
  15   1   5  670.14   41.87
   5 -15   1  653.28   53.51
  -5  15  -1  571.15   49.32
  -4  16  -2   40.68   40.03
   4 -16   2  -17.09   32.92
  16   2   4  -15.90   22.51
   3 -17   3 1085.82   63.31
  -3  17  -3 1079.64   67.03
  -2  18  -4 1206.17   74.29
   2 -18   4 1196.22   67.80
   1 -19   5  476.07   47.56
  -1  19  -5  495.24   56.39
   0  20  -6   15.25   42.52
   1  21  -7   11.45   40.57
   2  22  -8 1189.69   81.48
   3  23  -9  933.47   76.14
   4  24 -10  -20.74   36.84
   5  25 -11 1003.73   78.60
   6  26 -12 1351.69   92.77
   7  27 -13  323.18   62.92
   8  28 -14   15.48   40.76
   9  29 -15  132.91   61.04
  10  30 -16  452.68   72.95
  11  31 -17  632.34   87.55
  12  32 -18   44.10   64.27
  13  33 -19  567.38   91.43
  14  34 -20  953.79  106.64
  15  35 -21  257.61   81.67
  16  36 -22   68.22   59.62
  17  37 -23  -40.03   70.99
  -1  11 -19  586.63   56.20
  11  19   1  575.52   42.29
  -2  10 -18  -17.63   41.45
  10  18   2   21.90   23.13
  -3   9 -17  130.99   41.79
   9  17   3  199.41   27.81
   8  16   4  -16.21   21.59
  -4   8 -16   77.10   37.84
   7  15   5   99.11   21.70
  -5   7 -15  132.95   35.23
  -6   6 -14   30.08   32.00
   6  14   6   13.71   17.21
   5  13   7  335.78   20.36
  -7   5 -13  305.59   43.06
   8  -4  12 1189.12   56.09
  -8   4 -12 1256.88   62.27
  12  -8  -4 1296.22   62.08
  -4 -12  -8 1140.83   30.46
  11  -9  -3  952.98   57.85
   9  -3  11  752.08   45.18
  -3 -11  -9  859.02   27.85
  -9   3 -11  766.71   48.90
  10 -10  -2   12.68   28.77
  -2 -10 -10    2.04   13.68
 -10   2 -10   -9.87   29.16
  10  -2  10   40.91   27.85
  11  -1   9  128.23   29.43
  -9  11   1  134.72   31.04
 -11   1  -9  145.97   29.96
   9 -11  -1  126.19   30.73
  -8  12   0   46.44   36.38
 -12   0  -8   38.15   24.59
   8 -12   0  -10.87   28.08
  12   0   8  -21.78   25.58
  -7  13  -1   15.14   31.31
  13   1   7   -2.92   23.70
   7 -13   1   21.13   30.46
  14   2   6   14.44   23.24
   6 -14   2   13.91   39.61
  -6  14  -2   -5.99   35.46
  15   3   5  447.64   33.11
  -5  15  -3  451.10   52.74
   5 -15   3  411.65   42.95
  -4  16  -4  800.79   63.50
   4 -16   4  837.09   57.66
  -3  17  -5  228.22   46.98
   3 -17   5  352.87   50.44
  -2  18  -6   98.80   49.79
   2 -18   6   86.78   33.38
  -1  19  -7   63.38   44.41
   0  20  -8   95.27   46.79
   1  21  -9   28.73   41.10
   2  22 -10  -53.09   44.75
   3  23 -11  140.25   49.55
   4  24 -12  605.83   70.03
   5  25 -13  340.47   63.65
   6  26 -14    4.88   48.67
   7  27 -15   95.19   55.16
   8  28 -16   69.99   46.06
   9  29 -17   57.16   55.12
  10  30 -18   28.23   61.19
  11  31 -19  106.02   59.54
  12  32 -20  423.10   85.28
  13  33 -21   28.31   63.58
  14  34 -22  -51.13   73.37
  15  35 -23    4.23   72.45
  16  36 -24  -94.50   83.21
  26  36 -16  -11.10   60.73
  12  22  -2  131.76   34.50
  11  21  -1   99.19   29.62
  10  20   0  -25.70   27.12
   9  19   1  281.23   33.34
   8  18   2  332.44   34.23
   7  17   3  135.91   29.27
  -3   7 -17  114.74   34.50
  -4   6 -16   35.57   34.80
   6  16   4    9.68   24.70
  -5   5 -15   12.68   29.77
   5  15   5   -0.85   21.13
  -6   4 -14  -28.50   31.92
  -4 -14  -6  -39.64   19.09
   4  14   6   33.84   19.09
  -7   3 -13   31.08   30.62
  -3 -13  -7   28.31   16.33
   3  13   7   35.76   17.75
  13  -7  -3    6.07   31.23
  -8   2 -12   22.05   30.27
  -2 -12  -8   24.62   17.06
   8  -2  12   32.96   23.16
  12  -8  -2   23.74   32.58
  11  -9  -1  112.52   40.45
   9  -1  11  108.48   23.32
  -1 -11  -9  155.85   21.32
  -9   1 -11  120.05   31.81
  10 -10   0  330.79   46.33
 -10   0 -10  266.90   32.34
  10   0  10  288.34   32.00
 -10  10   0  224.61   39.99
  -9  11  -1  189.50   42.29
   9 -11   1  105.95   35.57
  11   1   9  137.45   26.28
 -11  -1  -9  105.60   24.55
   8 -12   2   31.92   30.73
  -8  12  -2  -27.35   35.26
  12   2   8   12.95   21.09
   7 -13   3   26.81   37.95
  13   3   7   30.62   24.16
  -7  13  -3   33.96   36.38
  14   4   6   26.97   20.67
  -6  14  -4  -41.87   40.53
   5 -15   5  -13.41   37.11
  -5  15  -5   -6.84   44.10
  -4  16  -6    0.61   44.56
   4 -16   6   11.83   32.11
   3 -17   7  125.42   35.69
  -3  17  -7  125.69   47.06
  -2  18  -8  267.36   50.75
  -1  19  -9  235.40   52.40
   0  20 -10    3.19   44.64
   1  21 -11   61.08   45.29
   2  22 -12   58.66   47.29
   3  23 -13  -10.60   46.21
   4  24 -14  -14.14   36.80
   5  25 -15  111.71   50.78
   6  26 -16  353.84   72.91
   7  27 -17   -5.26   52.82
   8  28 -18  -29.19   61.04
   9  29 -19  -71.99   53.40
  10  30 -20   65.23   51.36
  11  31 -21  -28.77   62.96
  12  32 -22  -30.92   62.08
  13  33 -23   33.31   62.31
  14  34 -24   29.08   60.54
  15  35 -25 -149.85   80.29
  16  36 -26   63.88   77.98
  24  36 -16  -29.27   60.12
  23  35 -15   10.99   56.05
  22  34 -14   15.87   55.85
  21  33 -13  215.12   62.23
  20  32 -12  384.72   72.22
  16  28  -8  -30.46   42.26
  15  27  -7  168.68   44.64
  14  26  -6   -0.08   34.15
  13  25  -5  329.71   47.48
  12  24  -4  619.43   55.62
  11  23  -3  124.12   32.04
  10  22  -2  -68.34   35.23
   9  21  -1  -46.40   30.50
   8  20   0  109.14   31.08
   7  19   1   40.60   27.74
   6  18   2   67.49   28.93
   5  17   3  246.35   31.62
  -4   4 -16  798.10   52.13
   4  16   4  767.98   41.26
   3  15   5  442.11   32.61
  -5   3 -15  404.43   40.49
  -3 -15  -5  432.93   30.73
  14  -6  -2   40.76   32.42
  -6   2 -14  -22.89   26.93
  -2 -14  -6   49.67   22.01
   2  14   6   49.44   21.90
  -1 -13  -7    4.49   20.74
  13  -7  -1   50.05   32.42
   1  13   7   -7.30   17.36
  -7   1 -13    6.34   26.58
   0 -12  -8   10.99   20.71
   8   0  12   29.77   20.67
  -8   0 -12   13.21   25.97
   1 -11  -9  147.17   22.59
   9   1  11  150.39   24.51
  11  -9   1  110.52   30.58
  -9  -1 -11  141.48   25.39
 -11   9  -1   52.13   34.53
  10   2  10  -34.07   19.75
  10 -10   2    5.76   37.07
 -10  -2 -10   -1.11   21.36
 -10  10  -2   12.41   29.62
  11   3   9  811.43   37.07
   9 -11   3  673.06   55.59
  -9  11  -3  815.23   59.00
 -11  -3  -9  862.44   34.42
   8 -12   4 1126.04   64.69
  12   4   8 1188.20   42.99
  -8  12  -4 1084.21   69.76
  -7  13  -5  257.65   39.34
   7 -13   5  276.16   40.22
  13   5   7  292.95   26.08
  -6  14  -6   27.54   32.19
   6 -14   6   14.14   30.31
  -5  15  -7   57.47   45.10
   5 -15   7   72.95   35.96
  -4  16  -8   22.13   43.10
   4 -16   8   75.18   40.49
  -3  17  -9  179.78   49.90
   3 -17   9   96.73   36.95
  -2  18 -10   77.41   48.02
  -1  19 -11  585.28   64.54
   0  20 -12 1016.37   77.56
   1  21 -13  632.07   68.61
   2  22 -14   70.84   43.29
   3  23 -15  108.02   45.14
   4  24 -16  -30.08   37.72
   5  25 -17   97.69   53.36
   6  26 -18  124.27   58.43
   7  27 -19  305.28   68.03
   8  28 -20  304.09   69.45
   9  29 -21  171.90   73.14
  10  30 -22  -59.43   67.76
  11  31 -23  -73.06   73.79
  12  32 -24   11.79   69.80
  13  33 -25  -60.43   73.18
  14  34 -26 -152.85   72.45
  15  35 -27  -13.06   75.33
  23  37 -17  113.05   68.80
  22  36 -16  125.04   64.61
  21  35 -15  229.45   63.27
  20  34 -14  976.84   99.76
  19  33 -13  690.15   81.82
  18  32 -12   49.86   55.09
  17  31 -11  614.28   73.53
  16  30 -10  421.71   65.96
  15  29  -9   31.73   45.29
  14  28  -8  102.11   43.52
  13  27  -7  318.26   50.44
  12  26  -6 1384.65   83.21
  11  25  -5 1045.49   73.10
  10  24  -4  -38.11   36.88
   9  23  -3 1033.65   63.84
   8  22  -2 1026.09   62.42
   7  21  -1   34.19   30.27
   6  20   0  -22.01   30.19
   5  19   1  442.73   41.76
   4  18   2 1233.29   58.16
   3  17   3 1076.72   52.44
  -3 -17  -3 1179.13   49.36
  -2 -16  -4  -13.21   22.82
   2  16   4   12.72   25.01
  -5   1 -15  636.33   42.60
  -1 -15  -5  626.42   39.41
  15  -5  -1  627.73   47.56
   1  15   5  613.82   39.26
   0 -14  -6  -10.53   24.01
  14  -6   0  -22.36   37.15
   0  14   6   11.99   21.82
  -6   0 -14   -1.50   24.97
  -7  -1 -13   35.57   24.47
   1 -13  -7    6.49   22.47
  13  -7   1   -3.57   36.61
   2 -12  -8   -7.84   22.89
  -8  -2 -12  -18.48   21.51
  12  -8   2   25.89   33.84
 -12   8  -2  -13.83   35.30
   9   3  11  897.59   35.80
  11  -9   3  821.42   56.70
  -9  -3 -11  829.21   35.96
   3 -11  -9  835.40   40.45
 -11   9  -3  845.89   57.24
  10 -10   4 2664.23   90.39
 -10  10  -4 2623.70   88.12
  10   4  10 2688.74   54.09
 -10  -4 -10 2604.07   51.78
  11   5   9 1784.93   44.41
   9 -11   5 1832.90   79.71
  12   6   8   36.42   16.02
   8 -12   6   74.26   42.33
  13   7   7  575.14   27.54
   7 -13   7  397.74   45.52
  -7  13  -7  507.99   56.47
  -6  14  -8  707.86   58.70
   6 -14   8  678.94   57.31
   5 -15   9   79.48   40.22
  -5  15  -9  107.98   43.68
  -4  16 -10   25.74   43.60
   4 -16  10   -4.84   25.39
  -3  17 -11  761.03   65.30
  -2  18 -12 2639.88  110.02
  -1  19 -13 1031.39   78.94
   0  20 -14  117.93   53.55
   1  21 -15  932.36   75.91
   2  22 -16 1000.50   78.94
   3  23 -17  -23.89   40.99
   4  24 -18   10.10   48.40
   5  25 -19  199.41   58.66
   6  26 -20 1280.08  102.91
   7  27 -21  852.80   94.19
   8  28 -22  -38.88   64.15
   9  29 -23  508.99   88.01
  10  30 -24  862.21  104.87
  11  31 -25  129.34   75.95
  12  32 -26   69.41   79.29
  13  33 -27   -4.19   69.95
  14  34 -28  349.19   83.36
  22  38 -18  -41.95   68.30
  21  37 -17  -88.16   74.91
  20  36 -16  296.52   72.91
  19  35 -15  769.90   98.99
  18  34 -14  175.75   68.80
  17  33 -13 1015.45   97.61
  16  32 -12 1489.71  107.56
  15  31 -11  489.63   74.10
  14  30 -10   69.49   47.36
  13  29  -9   29.27   51.24
  12  28  -8  802.21   75.33
  11  27  -7 1123.05   82.40
  10  26  -6  102.68   42.06
   9  25  -5 1552.94   84.93
   8  24  -4 2616.02  100.22
   7  23  -3  868.13   62.65
   6  22  -2   21.28   31.54
   5  21  -1   32.50   32.23
   4  20   0  615.97   49.86
   3  19   1 1428.29   66.46
   2  18   2   30.12   30.19
  -2 -18  -2   53.43   26.39
   1  17   3 1501.35   60.12
  -1 -17  -3 1443.27   58.54
  16  -4   0 2064.93   75.06
   0  16   4 2044.41   67.38
   0 -16  -4 2042.49   69.18
   1 -15  -5  661.46   44.37
  -1  15   5  615.28   41.33
  15  -5   1  623.85   50.71
  -5  -1 -15  687.39   38.80
  -6  -2 -14   46.64   23.20
  -2  14   6   69.91   25.70
  14  -6   2   78.63   36.69
   2 -14  -6   42.33   26.08
 -13   7  -3   32.00   32.34
  -7  -3 -13   23.36   19.67
   3 -13  -7   41.14   25.55
  13  -7   3   13.14   32.27
 -12   8  -4 1103.53   63.65
  -8  -4 -12 1186.93   38.53
  12  -8   4 1312.74   66.99
   4 -12  -8 1185.66   51.28
 -11   9  -5 1739.48   73.56
  -9  -5 -11 1765.76   39.30
  11  -9   5 1790.26   78.56
  10   6  10   40.37   12.60
  10 -10   6    8.80   27.77
   9 -11   7 3095.05  100.95
  11   7   9 3072.19   48.06
  -9  11  -7 3131.39  102.60
  -8  12  -8 4088.94  117.62
   8 -12   8 4329.53  120.43
  12   8   8 4318.93   59.39
  -7  13  -9 1033.12   71.41
   7 -13   9  987.71   59.16
  -6  14 -10   21.51   40.18
   6 -14  10  -29.66   33.50
   5 -15  11  204.02   42.87
  -5  15 -11  145.94   50.75
  -4  16 -12 2108.11  100.38
  -3  17 -13 1668.45   89.81
  -2  18 -14   25.24   42.60
  -1  19 -15 2087.13  102.91
   0  20 -16 3246.59  128.80
   1  21 -17  878.69   79.59
   2  22 -18  -30.73   49.02
   3  23 -19   37.76   49.09
   4  24 -20  419.49   73.26
   5  25 -21  930.63   94.08
   6  26 -22    5.34   61.08
   7  27 -23 1272.17  110.06
   8  28 -24 2445.46  146.78
   9  29 -25  753.11  101.38
  10  30 -26   55.12   65.38
  11  31 -27   23.20   70.03
  12  32 -28  251.19   87.51
  13  33 -29  259.37   86.82
  14  34 -30   92.27   71.72
  20  38 -18   52.44   62.65
  19  37 -17  181.89   70.57
  18  36 -16  -31.19   63.23
  17  35 -15 1155.97  110.90
  16  34 -14 2373.01  142.06
  15  33 -13 1221.89  105.64
  14  32 -12  -21.86   49.17
  13  31 -11  121.01   53.78
  12  30 -10   48.86   49.86
  11  29  -9  183.35   52.67
  10  28  -8   79.71   46.37
   9  27  -7 1472.62   88.01
   8  26  -6 3465.98  123.00
   7  25  -5 1646.90   89.31
   6  24  -4  -46.06   36.92
   5  23  -3  375.81   49.25
   4  22  -2  -21.44   33.34
   3  21  -1  506.92   53.01
   2  20   0    2.42   33.69
  -1 -19  -1 3659.24   99.88
   1  19   1 3319.35   95.77
   0 -18  -2 6270.61  124.12
   0  18   2 6335.96  127.73
  17  -3   1 1527.63   66.53
  -1  17   3 1470.20   63.15
   1 -17  -3 1530.93   65.96
  -2  16   4  -17.71   28.96
   2 -16  -4   20.40   29.77
  16  -4   2   12.02   29.89
  15  -5   3  346.31   38.76
   3 -15  -5  368.59   36.65
  -3  15   5  469.58   41.95
   4 -14  -6  -16.63   30.65
 -14   6  -4   25.89   28.54
  -6  -4 -14   15.10   19.21
  14  -6   4  -62.42   30.16
  -7  -5 -13  344.19   24.09
   5 -13  -7  236.13   33.57
  13  -7   5  390.79   50.17
 -13   7  -5  330.98   45.41
  -8  -6 -12    5.45   11.79
   6 -12  -8   -5.99   26.39
  12  -8   6   71.30   41.83
 -12   8  -6   54.16   33.57
  11  -9   7 3083.02   99.26
 -11   9  -7 2990.60   95.38
  10 -10   8 8756.99  166.10
 -10  10  -8 8701.78  162.95
  -9  11  -9 3364.53  108.56
   9 -11   9 3918.42  114.17
   8 -12  10    4.72   36.57
  -8  12 -10    4.53   44.21
  -7  13 -11  665.07   63.35
   7 -13  11  637.03   60.23
   6 -14  12  -20.24   27.85
  -6  14 -12    7.15   36.38
  -5  15 -13  746.08   65.04
  -4  16 -14   75.22   48.98
  -3  17 -15 1898.71  100.99
  -2  18 -16 4968.44  155.27
  -1  19 -17 1955.10  101.07
   0  20 -18   56.51   53.93
   1  21 -19  793.56   79.67
   2  22 -20  301.48   71.11
   3  23 -21  138.75   58.51
   4  24 -22 -106.14   63.92
   5  25 -23 1322.88  109.44
   6  26 -24 3293.88  163.07
   7  27 -25 1358.06  117.55
   8  28 -26   -7.45   64.65
   9  29 -27  248.54   75.14
  10  30 -28  -38.11   69.80
  11  31 -29   67.57   78.48
  12  32 -30   77.06   80.09
  13  33 -31  553.63  101.26
  19  39 -19  -31.54   58.27
  18  38 -18  -15.21   72.64
  17  37 -17  329.13   78.75
  16  36 -16 1595.00  127.69
  15  35 -15  902.35   98.34
  14  34 -14   37.15   63.58
  13  33 -13  399.43   71.99
  12  32 -12   99.07   51.21
  11  31 -11  118.12   50.36
  10  30 -10   27.16   46.98
   9  29  -9  333.67   57.35
   8  28  -8 2154.32  109.56
   7  27  -7 1793.07  100.61
   6  26  -6   27.04   42.18
   5  25  -5  777.58   66.23
   4  24  -4  895.52   67.34
   3  23  -3  -51.13   41.03
   2  22  -2   56.01   37.80
   1  21  -1 1588.32   77.56
  -1 -21   1 1630.15   69.80
   0  20   0 4826.27  124.00
   0 -20   0 5143.61  122.12
  -1  19   1 3263.50   99.61
   1 -19  -1 3478.12   99.92
  -2  18   2   39.99   32.77
   2 -18  -2   45.52   30.46
  18  -2   2  -18.75   30.77
  -3  17   3 1115.36   60.35
   3 -17  -3 1039.57   57.93
  17  -3   3 1102.53   61.16
  16  -4   4  872.93   58.89
   4 -16  -4  925.71   57.54
  -4  16   4  810.54   51.36
 -15   5  -5  -44.52   34.38
  -5  15   5   39.03   31.12
  15  -5   5   24.74   36.46
   5 -15  -5   19.44   27.66
  14  -6   6   48.21   36.88
 -14   6  -6   49.67   33.69
   6 -14  -6   16.29   30.23
  -6  -6 -14   29.46   15.44
  13  -7   7  568.53   50.40
   7 -13  -7  515.98   43.02
 -13   7  -7  579.60   50.55
  -7  -7 -13  535.84   21.47
   8 -12  -8 4590.48  103.49
  12  -8   8 4353.89  116.63
 -12   8  -8 4362.30  114.94
  11  -9   9 4121.79  115.01
 -11   9  -9 4044.46  114.67
  10 -10  10   25.35   37.42
 -10  10 -10   22.66   39.72
  -9  11 -11 3888.65  120.81
   9 -11  11 3733.53  112.94
  -8  12 -12 2759.73  104.56
   8 -12  12 2709.91   99.22
  -7  13 -13  113.71   49.21
   7 -13  13   77.10   38.72
  -6  14 -14  112.09   50.78
  -5  15 -15 1153.43   77.56
  -4  16 -16 3783.05  133.87
  -3  17 -17 2263.88  109.60
  -2  18 -18   89.28   47.56
  -1  19 -19 1282.85   87.62
   0  20 -20 2644.14  124.39
   1  21 -21  399.66   65.65
   2  22 -22   36.95   41.06
   3  23 -23  438.96   77.98
   4  24 -24 1473.46  110.36
   5  25 -25 1027.35  105.83
   6  26 -26  -10.87   63.31
   7  27 -27  764.29   98.76
   8  28 -28  334.63   81.71
   9  29 -29   56.43   69.53
  10  30 -30 -171.41   87.55
  11  31 -31  133.03   84.70
  12  32 -32  501.73   98.07
  11  31 -33  180.01   76.56
  10  30 -32   92.81   79.33
   9  29 -31    2.88   74.95
   8  28 -30  -68.03   70.64
   7  27 -29  242.36   79.75
   6  26 -28  993.63  107.56
   5  25 -27  767.52   97.50
   4  24 -26  -81.09   55.74
   3  23 -25  618.32   83.44
   2  22 -24  196.76   61.73
   1  21 -23  -52.47   60.93
   0  20 -22   36.53   49.98
  -1  19 -21  734.48   76.21
  -2  18 -20 1571.57   98.76
  -3  17 -19  970.89   82.94
  -4  16 -18   14.94   48.79
  -5  15 -17  818.00   75.14
  -6  14 -16 1025.05   74.91
  -7  13 -15   56.66   47.98
  12  14   8    1.00    8.26
  -8  12 -14  -35.26   45.91
   8 -12  14   22.66   36.11
  -9  11 -13 1567.85   84.78
   9 -11  13 1447.38   75.71
  10 -10  12 6298.66  143.86
 -10  10 -12 6410.86  148.82
  11  -9  11 3943.97  114.63
 -11   9 -11 3721.59  112.75
  10 -12  -8    4.19   29.12
 -12   8 -10   99.19   42.03
  12  -8  10   58.89   31.08
   9 -13  -7 1062.62   59.20
  13  -7   9 1248.74   69.72
 -13   7  -9 1198.91   68.76
   8 -14  -6  737.10   54.97
  14  -6   8  720.88   55.62
 -14   6  -8  791.76   57.24
  -7  15   5   94.35   30.19
   7 -15  -5   93.69   30.81
 -15   5  -7   41.45   30.08
  15  -5   7  129.61   38.72
   6 -16  -4   28.23   32.08
  -6  16   4   -9.49   30.08
  16  -4   6  -57.47   33.92
  -5  17   3  193.92   39.03
   5 -17  -3  224.49   40.72
  17  -3   5  276.58   42.87
   4 -18  -2 1186.08   64.88
  -4  18   2 1222.96   65.42
  18  -2   4 1207.13   65.30
   3 -19  -1 1420.22   71.76
  -3  19   1 1518.06   72.83
  19  -1   3 1617.67   72.03
  -2  20   0  -20.71   32.84
   2 -20   0   19.75   34.88
  -1  21  -1 1459.13   76.91
   1 -21   1 1498.70   73.99
   0  22  -2 2379.00   97.46
   0 -22   2 2566.01   91.62
   1  23  -3  574.68   59.39
   2  24  -4   24.35   41.18
   3  25  -5  497.31   59.24
   4  26  -6 1165.19   78.21
   5  27  -7  834.59   74.60
   6  28  -8  -16.29   45.83
   7  29  -9  552.21   72.76
   8  30 -10  409.50   66.07
   9  31 -11  303.47   65.88
  10  32 -12   68.38   54.43
  11  33 -13  104.91   53.17
  12  34 -14  610.40   79.79
  13  35 -15  671.06   88.55
  14  36 -16   30.77   62.96
  15  37 -17  320.45   77.67
  16  38 -18  306.59   83.44
  17  39 -19   -6.84   68.80
  12  30 -34  161.53   70.84
  11  29 -33   84.47   73.56
  10  28 -32 -123.00   82.59
   9  27 -31  -27.70   68.53
   8  26 -30  498.47   88.97
   7  25 -29  633.84   89.35
   6  24 -28    8.22   61.62
   5  23 -27  684.12   89.62
   4  22 -26  848.00   89.74
   3  21 -25  168.37   53.97
   2  20 -24   32.11   54.16
   1  19 -23  114.94   47.63
   0  18 -22 1115.02   88.89
  -1  17 -21  846.58   76.83
  -2  16 -20  -74.52   46.52
  -3  15 -19 1425.75   87.82
  -4  14 -18 1735.95   94.65
  -5  13 -17  766.52   66.53
  12  16   6   -0.69   16.21
  -6  12 -16  107.64   50.67
  -7  11 -15  -44.75   43.22
  11  15   7   -9.26   12.60
  -8  10 -14 1720.39   85.51
   8 -10  14 1753.31   76.56
  10  14   8 1690.39   33.61
   9  -9  13 1966.66   81.21
  -9   9 -13 1792.99   82.17
 -10   8 -12  -50.55   39.53
  10  -8  12   29.23   28.66
  11 -11  -7 2758.73   85.89
  11  -7  11 2663.54   92.89
 -11   7 -11 2542.53   89.58
 -12   6 -10 2864.91   91.12
  10 -12  -6 2875.93   90.54
  12  -6  10 2745.52   93.42
 -13   5  -9  555.13   50.25
   9 -13  -5  547.17   49.25
  13  -5   9  573.22   51.74
   8 -14  -4  -45.25   34.27
  14  -4   8   -8.14   26.35
 -14   4  -8  -52.17   34.77
  -8  14   4  -27.43   32.34
  15  -3   7   75.18   34.77
 -15   3  -7   53.09   30.27
  -7  15   3  126.11   34.23
   7 -15  -3   63.73   34.73
  16  -2   6  545.06   44.68
  -6  16   2  397.24   44.68
   6 -16  -2  439.19   43.45
   5 -17  -1  324.03   45.52
  -5  17   1  309.04   45.87
  17  -1   5  301.21   39.76
  18   0   4  -39.22   26.85
  -4  18   0   17.82   36.30
   4 -18   0   30.96   34.80
   3 -19   1 1580.60   76.68
  -3  19  -1 1437.35   72.72
   2 -20   2 2324.84   88.12
  -2  20  -2 2347.73   95.81
   1 -21   3  436.27   47.83
  -1  21  -3  457.09   53.74
   0  22  -4  -17.59   37.72
   1  23  -5   44.45   37.72
   2  24  -6  919.45   74.68
   3  25  -7  961.05   74.49
   4  26  -8  100.99   50.94
   5  27  -9  818.23   75.79
   6  28 -10 1124.04   89.74
   7  29 -11  325.95   62.19
   8  30 -12  -10.87   46.48
   9  31 -13   49.40   50.40
  10  32 -14  274.66   68.07
  11  33 -15  288.84   67.76
  12  34 -16  -46.33   48.94
  13  35 -17  709.05   91.31
  14  36 -18  972.69  104.83
  15  37 -19  151.81   70.64
  16  38 -20  105.64   65.34
  17  39 -21   34.15   62.58
  13  29 -35  156.85   81.86
  12  28 -34   70.30   68.42
  11  27 -33   11.29   71.87
  10  26 -32  154.12   72.80
   9  25 -31  415.14   85.36
   8  24 -30  -24.62   56.78
   7  23 -29  543.06   80.40
   6  22 -28  912.11   94.27
   5  21 -27  509.18   77.79
   4  20 -26   21.01   52.09
   3  19 -25   48.71   42.99
   2  18 -24  141.21   55.16
   1  17 -23  414.72   61.46
   0  16 -22  -15.25   38.22
  -1  15 -21  958.52   73.99
  -2  14 -20 2123.13  108.21
  -3  13 -19  675.71   64.34
  -4  12 -18    9.45   40.60
  12  18   4    8.11   20.24
  -5  11 -17  115.78   35.92
  11  17   5  128.96   23.13
  -6  10 -16   22.13   38.72
  10  16   6   24.12   17.17
  -7   9 -15  381.76   50.86
   9  15   7  463.62   24.12
   8  14   8   -4.46    8.22
   8  -8  14    5.07   31.73
  -8   8 -14   13.21   32.96
   9  -7  13 1197.49   64.77
  -9   7 -13 1180.78   68.11
 -10   6 -12 2647.98   90.00
  12 -10  -6 2824.38   87.35
  10  -6  12 2665.00   86.43
 -11   5 -11 1018.02   59.08
  11 -11  -5 1084.17   60.62
  11  -5  11 1110.25   57.54
 -12   4 -10  -18.29   29.85
  12  -4  10    8.22   33.27
  10 -12  -4  -52.09   37.11
   9 -13  -3   36.30   36.15
 -13   3  -9   10.87   31.46
  -9  13   3   36.80   26.08
  13  -3   9   21.47   30.12
  -8  14   2  123.58   36.76
   8 -14  -2  130.38   37.84
 -14   2  -8  115.47   30.12
  14  -2   8   77.56   30.69
  15  -1   7    4.03   25.51
   7 -15  -1  -30.69   36.30
  -7  15   1  -24.09   33.92
  -6  16   0    5.30   32.50
  16   0   6  -15.71   25.32
   6 -16   0   14.37   30.50
  -5  17  -1  311.39   46.44
   5 -17   1  284.11   44.98
  17   1   5  253.88   33.04
   4 -18   2 1182.13   67.72
  18   2   4 1290.15   56.66
  -4  18  -2 1092.54   64.61
  -3  19  -3  133.91   45.41
   3 -19   3  140.14   40.30
  -2  20  -4   54.51   37.03
   2 -20   4   -3.19   35.34
   1 -21   5  100.57   37.07
  -1  21  -5   15.52   42.60
   0  22  -6  319.72   52.36
   1  23  -7  492.86   57.12
   2  24  -8  -15.75   37.65
   3  25  -9 1113.79   79.71
   4  26 -10 1395.56   94.19
   5  27 -11  505.53   66.73
   6  28 -12    3.07   46.21
   7  29 -13   55.16   51.05
   8  30 -14   19.63   51.97
   9  31 -15   80.25   48.29
  10  32 -16 -121.74   63.23
  11  33 -17  497.01   87.09
  12  34 -18  836.90   94.23
  13  35 -19  339.70   79.94
  14  36 -20    5.49   57.12
  15  37 -21   80.71   69.95
  16  38 -22   41.83   79.33
  13  27 -35  202.21   83.21
  12  26 -34  -58.58   58.58
   2  16 -24    1.23   42.60
   1  15 -23  482.22   60.81
   0  14 -22  972.42   76.18
  13  21   1  704.79   46.02
  -1  13 -21  743.36   69.03
  12  20   2   16.60   22.78
  -2  12 -20   81.02   40.41
  -3  11 -19  230.03   49.13
  11  19   3  293.29   33.88
  10  18   4   -6.15   21.40
  -4  10 -18  -19.75   37.15
   9  17   5    7.07   20.78
  -5   9 -17   43.22   40.37
  -6   8 -16    6.65   38.30
   8  16   6   21.74   18.75
   7  15   7  196.91   19.13
  -7   7 -15  210.82   40.34
  -8   6 -14  707.36   57.58
   6  14   8  754.92   24.97
   8  -6  14  803.25   52.32
  -9   5 -13  589.58   51.94
  -5 -13  -9  559.31   21.09
   9  -5  13  531.62   43.33
  13  -9  -5  607.68   48.29
  -4 -12 -10   12.95   10.53
  10  -4  12   -9.22   26.39
  12 -10  -4   29.19   28.50
 -10   4 -12   49.29   34.42
  11  -3  11   77.60   30.39
 -11   3 -11   25.39   28.93
  11 -11  -3   63.42   36.42
  -3 -11 -11   70.53   13.60
  12  -2  10   25.47   28.12
 -10  12   2   13.60   30.50
  10 -12  -2  -10.26   31.31
 -12   2 -10   14.17   27.89
  13  -1   9   35.07   27.39
 -13   1  -9   45.75   28.77
  -9  13   1   98.84   37.11
   9 -13  -1    8.30   33.69
  14   0   8   11.18   27.01
  -8  14   0  -23.78   37.57
   8 -14   0  -48.86   38.84
 -14   0  -8    4.11   22.97
  -7  15  -1   61.92   33.23
   7 -15   1   63.46   31.50
  15   1   7   25.35   27.20
  -6  16  -2  463.89   51.94
   6 -16   2  464.66   47.94
  16   2   6  447.91   37.95
   5 -17   3  240.74   41.91
  17   3   5  241.13   32.50
  -5  17  -3  164.80   37.49
   4 -18   4   43.83   35.15
  -4  18  -4    4.80   42.03
   3 -19   5    3.07   35.92
  -3  19  -5   -5.53   45.02
  -2  20  -6   39.57   44.37
   2 -20   6  -21.67   26.54
  -1  21  -7    4.46   40.53
   0  22  -8  -17.71   41.14
   1  23  -9  379.57   57.01
   2  24 -10  872.81   74.95
   3  25 -11  278.27   54.97
   4  26 -12  -30.50   45.48
   5  27 -13  -48.90   51.17
   6  28 -14   28.43   42.03
   7  29 -15   75.52   55.43
   8  30 -16   21.78   54.43
   9  31 -17  231.25   64.92
  10  32 -18  427.13   73.14
  11  33 -19  223.23   73.26
  12  34 -20   17.21   66.96
  13  35 -21  191.27   69.84
  14  36 -22  133.91   68.03
  15  37 -23   34.38   67.26
  26  36 -14  103.49   58.04
  25  35 -13   65.19   56.28
  14  24  -2  108.25   35.15
  13  23  -1  105.64   34.19
  12  22   0   27.04   31.04
  11  21   1  112.09   33.00
  -1  11 -21  128.53   43.60
  -2  10 -20  127.65   41.18
  10  20   2  128.00   30.96
  -3   9 -19  -47.67   40.57
   9  19   3  -10.41   24.97
   8  18   4   37.26   25.05
  -4   8 -18   47.17   42.03
  -5   7 -17   53.09   39.68
   7  17   5   73.91   21.90
  -6   6 -16    5.99   34.53
   6  16   6   38.72   18.40
  -7   5 -15   36.15   33.96
   5  15   7  113.98   19.75
  14  -8  -4  -22.17   29.08
   4  14   8  -10.91   14.44
  -8   4 -14   34.92   37.03
  -4 -14  -8   -5.26   15.37
  -9   3 -13   81.02   32.42
  -3 -13  -9   41.99   17.36
  13  -9  -3   19.28   37.34
   9  -3  13   26.31   25.58
 -10   2 -12   56.55   30.65
  10  -2  12  -25.39   26.12
  -2 -12 -10   30.65   16.52
  12 -10  -2    9.33   32.31
 -11  11   1   65.69   29.12
  11 -11  -1   17.48   33.19
 -11   1 -11   13.64   28.00
  11  -1  11   80.67   28.35
  -1 -11 -11   25.12   14.52
  10 -12   0   -8.91   36.95
  12   0  10   14.98   25.62
 -10  12   0    1.81   33.73
 -12   0 -10   12.18   26.85
  13   1   9   29.58   23.78
   9 -13   1   52.82   37.76
 -13  -1  -9   54.24   24.35
  -9  13  -1   38.84   37.11
  -8  14  -2   77.94   39.11
   8 -14   2   80.02   31.12
  14   2   8  160.07   28.27
  15   3   7   31.04   24.24
   7 -15   3   67.03   31.54
  -7  15  -3   74.18   40.07
  -6  16  -4   -4.69   38.34
  16   4   6   56.66   22.97
   6 -16   4  -15.37   37.15
   5 -17   5   41.68   32.73
  -5  17  -5  135.18   49.25
  -4  18  -6  -23.20   43.02
   4 -18   6  -11.99   31.81
   3 -19   7  -18.44   32.65
  -3  19  -7  -77.75   45.67
  -2  20  -8  -11.10   41.41
  -1  21  -9  -18.52   44.83
   0  22 -10  -77.37   51.40
   1  23 -11    9.33   45.25
   2  24 -12   14.94   37.03
   3  25 -13   86.66   52.90
   4  26 -14  -68.42   51.86
   5  27 -15   23.97   48.21
   6  28 -16   61.73   47.63
   7  29 -17   31.19   55.09
   8  30 -18  175.55   58.31
   9  31 -19   82.17   61.69
  10  32 -20  171.52   65.69
  11  33 -21   51.90   62.88
  12  34 -22   35.92   68.11
  13  35 -23   49.94   73.91
  14  36 -24  -79.86   83.44
  15  37 -25   -2.34   75.37
  25  37 -15   49.29   60.04
  24  36 -14    5.30   57.47
  23  35 -13   -2.00   49.98
  22  34 -12   21.32   58.12
  21  33 -11  -77.64   53.32
  20  32 -10   30.19   50.51
  19  31  -9  103.45   49.40
  18  30  -8  195.99   51.82
  17  29  -7   27.39   38.38
  16  28  -6    0.27   37.61
  15  27  -5    8.60   35.00
  14  26  -4   38.49   36.92
  13  25  -3   55.59   34.77
  12  24  -2  -10.95   32.15
  11  23  -1  -30.89   30.31
  10  22   0   42.03   28.27
   9  21   1  -12.29   26.66
   8  20   2  -38.03   29.04
   7  19   3    2.15   26.85
  -3   7 -19   -7.57   33.50
   6  18   4   13.06   24.97
  -4   6 -18  -29.43   34.30
   5  17   5   19.63   21.59
  -5   5 -17  100.38   37.22
  -4 -16  -6    1.15   17.94
   4  16   6    7.95   21.20
   3  15   7   57.28   20.32
  -3 -15  -7   46.02   20.94
  15  -7  -3   42.95   30.92
  -7   3 -15   33.84   31.50
  -2 -14  -8  121.81   22.01
  14  -8  -2   67.11   34.84
  -8   2 -14  138.06   31.96
   9  -1  13   64.92   24.93
  -1 -13  -9   48.48   20.74
  13  -9  -1   -6.22   28.31
  -9   1 -13   90.50   31.65
  10   0  12   -1.69   22.13
  12 -10   0   -7.99   32.65
   0 -12 -10   14.90   18.52
 -12  10   0    8.18   31.58
 -10   0 -12   -7.11   26.16
 -11  -1 -11   22.74   22.82
  11 -11   1   35.61   27.66
 -11  11  -1   39.14   33.27
  11   1  11   12.45   21.93
 -10  12  -2  -34.46   34.84
  10 -12   2   21.44   32.08
  12   2  10   15.94   22.97
 -12  -2 -10   15.52   21.90
  -9  13  -3   49.48   39.76
  13   3   9   46.40   23.32
   9 -13   3   68.34   38.88
  -8  14  -4   21.47   32.61
   8 -14   4  -19.40   34.42
  14   4   8  -28.50   21.20
  -7  15  -5   43.14   37.19
  15   5   7   63.69   20.94
   7 -15   5   89.24   35.61
   6 -16   6   67.88   39.80
  -6  16  -6   75.68   46.67
   5 -17   7   31.62   34.27
  -5  17  -7   62.96   44.02
  -4  18  -8    0.04   45.98
   4 -18   8   37.11   32.73
  -3  19  -9   10.14   46.52
  -2  20 -10   72.30   44.98
  -1  21 -11  121.85   50.36
   0  22 -12   10.41   46.10
   1  23 -13   57.39   41.53
   2  24 -14  106.22   54.20
   3  25 -15   60.31   53.32
   4  26 -16   -9.45   51.09
   5  27 -17  -34.30   51.48
   6  28 -18  -18.52   45.87
   7  29 -19 -170.64   71.14
   8  30 -20  108.21   70.26
   9  31 -21  -15.71   51.17
  10  32 -22  124.42   60.39
  11  33 -23  -83.32   64.04
  12  34 -24   92.58   62.12
  13  35 -25  -34.46   66.53
  14  36 -26    0.92   78.02
  23  37 -15  -45.94   59.16
  22  36 -14   99.99   62.88
  21  35 -13   96.88   63.61
  20  34 -12  -89.89   56.66
  19  33 -11  171.67   60.31
  18  32 -10  583.17   73.99
  17  31  -9  157.08   54.47
  16  30  -8   99.49   49.21
  15  29  -7   16.02   39.87
  14  28  -6   73.33   42.83
  13  27  -5  -27.20   39.37
  12  26  -4   10.26   36.92
  11  25  -3  311.69   46.17
  10  24  -2  931.13   63.23
   9  23  -1  349.07   41.30
   8  22   0  -53.20   33.04
   7  21   1   -7.41   28.35
   6  20   2   22.97   28.35
   5  19   3  -12.48   27.31
   4  18   4   37.30   25.12
  -4   4 -18   70.76   31.88
   3  17   5  228.57   30.08
  -3 -17  -5  265.48   29.96
  -5   3 -17  189.54   34.57
  -2 -16  -6  478.41   35.00
   2  16   6  430.36   32.61
  -6   2 -16  482.06   42.29
  16  -6  -2  515.64   47.44
  -7   1 -15   15.52   27.77
  -1 -15  -7   26.70   23.47
   1  15   7    7.22   19.55
  15  -7  -1  -26.43   35.00
  14  -8   0    3.61   31.73
  -8   0 -14  -18.36   26.66
   0 -14  -8  -15.33   22.17
 -13   9  -1   45.44   32.77
  -9  -1 -13   42.56   26.47
  13  -9   1   57.66   41.56
   1 -13  -9  107.52   24.74
 -12  10  -2   34.61   37.76
   2 -12 -10   43.02   21.09
  10   2  12   26.16   20.90
 -10  -2 -12   35.23   20.32
  12 -10   2  -47.10   40.18
 -11  -3 -11   75.22   20.32
 -11  11  -3   61.42   40.34
  11   3  11   62.31   19.51
  11 -11   3   20.94   38.84
 -10  12  -4   49.82   38.38
  12   4  10   28.66   19.05
  10 -12   4   -3.19   39.26
  13   5   9  575.29   31.88
  -9  13  -5  434.47   54.59
   9 -13   5  556.32   54.43
  -8  14  -6  764.60   65.77
  14   6   8  702.87   34.57
   8 -14   6  784.69   60.00
   7 -15   7  247.58   50.48
  15   7   7  181.89   22.59
  -7  15  -7  158.96   42.72
  -6  16  -8   -5.45   36.34
   6 -16   8   32.81   41.53
   5 -17   9  -10.41   28.85
  -5  17  -9   58.74   49.67
  -4  18 -10  -26.35   48.52
  -3  19 -11  268.79   56.09
  -2  20 -12   55.70   48.86
  -1  21 -13  694.42   72.07
   0  22 -14  944.61   77.14
   1  23 -15  511.41   71.18
   2  24 -16  -46.79   47.52
   3  25 -17   -7.76   50.71
   4  26 -18   -6.53   54.63
   5  27 -19   -5.11   45.83
   6  28 -20   45.64   61.58
   7  29 -21  167.76   57.47
   8  30 -22  360.10   71.72
   9  31 -23  133.37   70.41
  10  32 -24  -17.75   70.07
  11  33 -25  116.66   75.18
  12  34 -26 -116.66   75.87
  13  35 -27 -109.06   72.07
  22  38 -16   37.03   60.77
  21  37 -15  128.50   68.15
  20  36 -14  131.15   72.99
  19  35 -13  229.87   75.14
  18  34 -12  917.34   94.46
  17  33 -11  362.09   72.33
  16  32 -10   87.51   60.35
  15  31  -9   81.52   45.91
  14  30  -8   67.88   48.90
  13  29  -7   48.79   41.56
  12  28  -6   77.25   43.64
  11  27  -5  592.66   62.58
  10  26  -4 1385.61   81.17
   9  25  -3 1100.46   71.26
   8  24  -2  -30.04   34.80
   7  23  -1  548.17   49.75
   6  22   0  401.81   46.79
   5  21   1  100.99   33.00
   4  20   2    3.38   31.85
  -3 -19  -3  160.11   28.70
   3  19   3  116.32   30.16
  -2 -18  -4 1196.76   53.51
   2  18   4 1138.64   54.13
  17  -5  -1  221.80   37.57
  -1 -17  -5  328.21   35.30
  -5   1 -17  293.52   35.00
   1  17   5  258.87   33.27
   0  16   6   -5.07   23.89
  -6   0 -16  -15.10   27.39
  16  -6   0   19.75   34.42
   0 -16  -6   -9.14   25.24
  -7  -1 -15   -2.54   23.93
  -1  15   7   20.21   21.67
  15  -7   1   22.78   29.46
   1 -15  -7    4.80   24.32
  -8  -2 -14  118.59   24.55
   2 -14  -8  155.00   28.70
  14  -8   2  179.32   41.49
   3 -13  -9   73.41   26.81
  -9  -3 -13   41.64   20.78
  13  -9   3   35.99   37.53
 -13   9  -3    9.41   34.53
  10   4  12   50.51   18.82
 -10  -4 -12   46.94   18.25
  12 -10   4   95.69   42.52
   4 -12 -10   27.97   21.59
 -12  10  -4   53.97   36.49
 -11  -5 -11 1158.31   34.11
  11   5  11 1091.81   36.26
 -11  11  -5 1099.92   68.11
  11 -11   5 1131.65   68.30
  10 -12   6 2628.12   96.69
  12   6  10 2844.24   55.20
 -10  12  -6 2587.59   93.96
  -9  13  -7  954.41   66.23
   9 -13   7 1152.05   71.95
  13   7   9 1135.99   36.49
  -8  14  -8  -25.28   43.72
  14   8   8   37.11   16.25
   8 -14   8   -6.18   29.54
  -7  15  -9  348.00   57.08
   7 -15   9  385.57   47.90
  -6  16 -10   27.35   37.26
   6 -16  10   77.98   43.18
  -5  17 -11  172.63   52.21
  -4  18 -12   48.79   43.75
  -3  19 -13  696.30   69.11
  -2  20 -14 2150.90  109.25
  -1  21 -15  873.24   74.72
   0  22 -16  -23.20   52.05
   1  23 -17  381.49   65.04
   2  24 -18  159.61   57.62
   3  25 -19 -137.14   59.39
   4  26 -20   42.52   44.21
   5  27 -21  504.38   80.13
   6  28 -22  877.85   90.47
   7  29 -23  457.67   81.78
   8  30 -24   74.14   64.65
   9  31 -25  237.98   75.83
  10  32 -26   89.12   80.71
  11  33 -27   20.36   76.48
  12  34 -28  138.94   84.86
  13  35 -29  134.37   71.11
  21  39 -17   16.36   60.00
  20  38 -16   51.21   66.15
  19  37 -15   96.73   67.23
  18  36 -14  982.29  106.87
  17  35 -13  683.62   91.31
  16  34 -12    4.07   56.16
  15  33 -11  310.20   68.22
  14  32 -10  194.76   56.35
  13  31  -9  -74.26   54.01
  12  30  -8   23.32   43.72
  11  29  -7  292.56   54.16
  10  28  -6 1012.64   74.79
   9  27  -5  793.95   67.84
   8  26  -4   43.06   37.88
   7  25  -3  964.93   69.26
   6  24  -2  944.38   64.81
   5  23  -1    2.73   34.19
   4  22   0    4.19   33.96
   3  21   1  442.92   46.02
   2  20   2 2437.16   84.17
  -2 -20  -2 2569.19   78.86
  -1 -19  -3 1438.81   60.58
   1  19   3 1487.10   68.99
   0  18   4   10.99   28.66
  18  -4   0   34.00   32.96
   0 -18  -4  -21.70   26.31
   1 -17  -5  281.19   36.69
  -1  17   5  277.20   35.00
  17  -5   1  302.48   40.53
  -6  -2 -16  506.46   35.80
  -2  16   6  460.78   37.42
   2 -16  -6  509.84   42.03
  16  -6   2  574.45   53.82
  -7  -3 -15   53.20   20.71
  15  -7   3   46.44   33.15
   3 -15  -7   50.59   30.19
  -8  -4 -14   -4.96   18.71
   4 -14  -8    5.69   27.35
  14  -8   4  -15.02   38.45
 -14   8  -4   18.63   28.39
 -13   9  -5  542.64   49.40
  -9  -5 -13  588.78   28.47
  13  -9   5  640.41   57.54
   5 -13  -9  549.75   41.53
 -12  10  -6 2651.21   94.81
 -10  -6 -12 2696.54   46.33
  12 -10   6 2715.67   96.80
  11 -11   7 2493.75   94.31
  11   7  11 2430.40   40.60
 -11  11  -7 2524.86   94.58
  12   8  10   18.59   11.22
  10 -12   8   20.47   40.60
 -10  12  -8  -22.36   44.18
  -9  13  -9 1810.28   87.70
   9 -13   9 2038.46   91.08
  13   9   9 2022.90   42.10
  -8  14 -10 1761.84   89.08
   8 -14  10 1755.38   83.32
  -7  15 -11   26.35   47.60
   7 -15  11    7.26   32.27
  -6  16 -12   88.39   51.74
  -5  17 -13  845.46   78.48
  -4  18 -14 1614.48   92.27
  -3  19 -15 1422.45   91.31
  -2  20 -16   -7.91   48.67
  -1  21 -17  785.38   76.21
   0  22 -18 1082.59   89.85
   1  23 -19   65.42   50.28
   2  24 -20  -16.75   52.32
   3  25 -21  172.37   51.17
   4  26 -22 1125.47  104.41
   5  27 -23  802.86   90.08
   6  28 -24   85.20   64.81
   7  29 -25  555.86   95.11
   8  30 -26  490.13   94.00
   9  31 -27  275.89   87.01
  10  32 -28   97.15   82.09
  11  33 -29   94.42   79.48
  12  34 -30  255.84   87.43
  19  39 -17   12.91   70.64
  18  38 -16  156.62   71.68
  17  37 -15  354.91   81.25
  16  36 -14  -57.70   61.89
  15  35 -13  552.32   84.17
  14  34 -12  648.47   82.94
  13  33 -11   94.50   49.63
  12  32 -10   11.06   49.36
  11  31  -9  186.69   54.82
  10  30  -8  341.66   60.77
   9  29  -7  460.93   61.27
   8  28  -6  -37.42   42.56
   7  27  -5  894.13   72.60
   6  26  -4 1357.83   82.44
   5  25  -3  488.82   58.04
   4  24  -2  -19.63   37.22
   3  23  -1  527.16   55.55
   2  22   0 2367.36   93.31
  -1 -21  -1 1701.07   73.79
   1  21   1 1548.25   73.68
   0  20   2   79.59   36.34
   0 -20  -2  -26.85   30.16
  19  -3   1 1562.81   70.61
   1 -19  -3 1459.44   66.80
  -1  19   3 1544.45   70.30
  -2  18   4 1244.59   60.66
  18  -4   2 1151.05   65.38
   2 -18  -4 1108.52   58.97
  17  -5   3  268.98   41.30
  -3  17   5  239.09   35.38
   3 -17  -5  257.49   39.34
   4 -16  -6   39.37   29.19
  -6  -4 -16    2.80   18.36
  -4  16   6  -14.71   28.43
  16  -6   4   16.40   32.84
   5 -15  -7   64.96   30.89
 -15   7  -5  123.66   32.73
  15  -7   5   34.73   34.15
  -7  -5 -15   78.94   18.36
  -8  -6 -14  742.09   29.77
   6 -14  -8  757.07   50.02
  14  -8   6  652.70   55.93
 -14   8  -6  753.77   56.89
 -13   9  -7  976.61   63.23
  -9  -7 -13 1118.63   28.04
   7 -13  -9 1160.65   56.66
  13  -9   7 1059.05   65.77
 -12  10  -8    3.07   37.65
  12 -10   8   65.27   37.11
  11 -11   9 3788.89  117.28
 -11  11  -9 3873.67  118.97
  10 -12  10 6361.16  150.20
 -10  12 -10 6334.80  152.27
  -9  13 -11 1479.65   80.44
  13  11   9 1457.06   31.12
   9 -13  11 1288.38   71.64
  -8  14 -12   39.87   43.95
   8 -14  12    8.72   41.68
  -7  15 -13   66.03   39.11
  -6  16 -14 1031.54   79.06
  -5  17 -15  868.40   79.59
  -4  18 -16   55.24   51.01
  -3  19 -17  970.58   80.98
  -2  20 -18 1693.61  102.72
  -1  21 -19  743.01   75.10
   0  22 -20   27.97   45.71
   1  23 -21   36.88   46.56
   2  24 -22  186.23   58.93
   3  25 -23  399.32   76.87
   4  26 -24   36.11   55.28
   5  27 -25  843.54   96.07
   6  28 -26 1293.37  121.31
   7  29 -27   37.80   70.45
   8  30 -28   73.29   81.05
   9  31 -29  -94.81   76.10
  10  32 -30  352.57  100.11
  11  33 -31  108.90   81.13
  18  40 -18   75.83   69.95
  17  39 -17  128.57   64.96
  16  38 -16   40.72   57.97
  15  37 -15  560.97   83.97
  14  36 -14  801.09   93.65
  13  35 -13  236.13   67.65
  12  34 -12   35.49   56.09
  11  33 -11   82.90   56.12
  10  32 -10  427.59   70.57
   9  31  -9   68.68   50.63
   8  30  -8  -24.82   45.52
   7  29  -7  511.91   65.00
   6  28  -6 1353.84   87.78
   5  27  -5  330.06   57.16
   4  26  -4  -10.30   38.80
   3  25  -3    5.95   37.76
   2  24  -2  638.45   62.27
   1  23  -1 1044.76   67.96
  -1 -23   1 1164.96   64.42
   0  22   0   -2.50   36.11
   0 -22   0  -83.90   35.30
  -1  21   1 1496.51   74.98
   1 -21  -1 1474.69   69.53
   2 -20  -2 2465.32   89.47
  20  -2   2 2487.87   88.66
  -2  20   2 2647.83   91.89
  19  -3   3  211.74   39.30
   3 -19  -3  214.16   37.84
  -3  19   3  107.25   33.96
  18  -4   4  -13.91   35.80
  -4  18   4    6.68   31.23
   4 -18  -4   21.59   32.88
  -5  17   5   57.89   31.73
  17  -5   5   60.69   37.03
   5 -17  -5   76.25   32.81
   6 -16  -6   90.89   35.92
 -16   6  -6   50.59   36.30
  16  -6   6   30.54   35.23
  15  -7   7  218.92   38.80
  -7  -7 -15  191.53   18.44
 -15   7  -7  171.83   42.56
   7 -15  -7  189.15   36.57
   8 -14  -8   91.27   34.46
  -8  -8 -14    3.23    8.84
  14  -8   8   38.11   38.41
 -14   8  -8    8.76   38.57
  13  -9   9 1968.20   83.74
   9 -13  -9 2057.40   76.64
 -13   9  -9 1977.57   83.90
 -12  10 -10 6171.70  146.09
  12 -10  10 6517.93  152.08
 -11  11 -11 3702.80  119.55
  11 -11  11 3761.23  116.97
  10 -12  12   17.90   27.58
 -10  12 -12   -5.72   35.80
  -9  13 -13  321.61   55.39
   9 -13  13  273.66   47.75
  -8  14 -14  -46.29   43.06
  -7  15 -15  471.50   59.47
  -6  16 -16   80.13   50.36
  -5  17 -17 1924.29  103.68
  -4  18 -18 2019.68  109.10
  -3  19 -19  795.41   77.83
  -2  20 -20   33.27   53.17
  -1  21 -21  424.71   62.65
   0  22 -22  291.91   63.11
   1  23 -23  -66.26   58.31
   2  24 -24  -38.95   55.05
   3  25 -25  183.62   62.81
   4  26 -26  836.93   91.73
   5  27 -27  256.57   79.86
   6  28 -28  -17.29   73.06
   7  29 -29  145.74   81.67
   8  30 -30  100.95   79.10
   9  31 -31  204.36   81.94
  10  32 -32 -136.33   85.40
   9  31 -33   48.56   76.18
   8  30 -32  191.84   88.66
   7  29 -31   45.25   72.53
   6  28 -30  230.41   88.31
   5  27 -29   29.92   66.00
   4  26 -28  -16.75   57.70
   3  25 -27  261.06   70.99
   2  24 -26  272.40   71.45
   1  23 -25  125.50   51.21
   0  22 -24  -20.01   50.17
  -1  21 -23   -9.91   51.94
  -2  20 -22  185.81   57.58
  -3  19 -21  187.08   56.51
  -4  18 -20   32.81   48.56
  -5  17 -19  311.23   56.85
  -6  16 -18 1251.43   85.20
  -7  15 -17  437.19   64.65
  -8  14 -16  -29.46   46.14
  13  15   9    9.83    7.38
  -9  13 -15   -0.85   42.79
 -10  12 -14  199.83   47.25
  10 -12  14  150.85   46.06
 -11  11 -13  465.39   54.47
  11 -11  13  440.08   45.25
 -12  10 -12   18.98   41.33
  12 -10  12    7.53   38.22
 -13   9 -11 1416.15   75.87
  13  -9  11 1468.28   80.98
  11 -13  -9 1472.31   67.15
 -14   8 -10 1820.15   84.51
  14  -8  10 1783.00   81.75
  10 -14  -8 1902.93   80.06
  15  -7   9  467.73   48.17
  -7  -9 -15  371.35   17.40
 -15   7  -9  482.25   49.25
   9 -15  -7  433.47   48.86
  16  -6   8   94.61   41.22
 -16   6  -8   46.52   34.19
   7 -17  -5  140.29   40.26
  -7  17   5   89.81   32.00
  17  -5   7   66.11   30.65
 -17   5  -7   79.13   34.50
  18  -4   6   38.80   35.76
  -6  18   4    7.80   33.61
   6 -18  -4  -11.18   34.77
  -5  19   3  -62.15   36.03
  19  -3   5   -8.30   34.84
   5 -19  -3    7.15   29.04
  -4  20   2    9.95   35.61
  20  -2   4   57.12   33.27
   4 -20  -2   16.56   28.89
  -3  21   1  405.12   47.79
  21  -1   3  439.27   47.48
   3 -21  -1  431.78   47.13
   2 -22   0 2263.30   88.85
  -2  22   0 2400.02   96.38
   1 -23   1 1131.69   70.07
  -1  23  -1 1150.63   74.72
   0  24  -2  -26.31   41.95
   0 -24   2   43.52   29.96
   1  25  -3   54.97   41.53
   2  26  -4   58.66   42.14
   3  27  -5  126.38   50.05
   4  28  -6  -71.22   50.55
   5  29  -7  363.71   63.46
   6  30  -8  315.69   57.97
   7  31  -9  146.32   49.82
   8  32 -10    1.84   47.02
   9  33 -11  301.82   64.61
  10  34 -12  191.03   69.76
  11  35 -13    3.57   52.44
  12  36 -14  -23.70   62.15
  13  37 -15    8.76   58.85
  14  38 -16  232.06   67.15
  15  39 -17   71.53   64.27
  16  40 -18  -60.58   59.20
  10  30 -34  -13.98   63.23
   9  29 -33  -11.26   74.22
   8  28 -32  123.08   87.05
   7  27 -31   80.59   74.37
   6  26 -30    9.87   74.75
   5  25 -29  194.45   73.26
   4  24 -28  660.07   89.54
   3  23 -27  248.12   66.23
   2  22 -26   43.75   64.38
   1  21 -25   52.44   54.13
   0  20 -24  200.95   56.85
  -1  19 -23  153.85   61.58
  -2  18 -22    1.42   50.75
  -3  17 -21  180.09   45.44
  -4  16 -20  693.53   71.91
  -5  15 -19  321.37   60.93
  -6  14 -18   22.47   45.18
  -7  13 -17   42.87   44.75
  13  17   7   96.96   17.40
  -8  12 -16   17.36   45.83
  12  16   8   34.23   12.29
   9 -11  15  149.39   38.95
  -9  11 -15   75.48   37.45
  10 -10  14   60.93   37.42
 -10  10 -14   88.24   44.94
  11  -9  13 1480.80   74.41
 -11   9 -13 1510.38   79.02
  12 -12  -8 2879.66   93.00
 -12   8 -12 2695.85   98.07
  12  -8  12 2682.94   98.19
  13  -7  11  645.29   56.20
  11 -13  -7  604.22   52.28
 -13   7 -11  570.80   52.63
 -14   6 -10   -4.88   33.57
  14  -6  10  -32.46   34.00
  10 -14  -6   16.25   34.61
   9 -15  -5  137.14   34.69
 -15   5  -9  122.54   38.84
  15  -5   9  165.18   35.99
  16  -4   8   -2.57   27.01
   8 -16  -4  -44.25   33.46
 -16   4  -8  -34.80   30.89
  -8  16   4   15.44   30.46
   7 -17  -3  114.24   39.22
  17  -3   7   84.47   31.69
  -7  17   3  160.73   40.34
  -6  18   2  135.30   39.99
  18  -2   6   98.73   35.46
   6 -18  -2   30.42   37.03
   5 -19  -1  475.57   53.70
  19  -1   5  424.25   43.95
  -5  19   1  449.79   49.06
  20   0   4  651.20   49.94
   4 -20   0  660.80   53.93
  -4  20   0  660.15   56.81
  21   1   3  437.81   41.99
  -3  21  -1  513.83   54.20
   3 -21   1  535.61   56.24
  -2  22  -2   45.21   39.07
   2 -22   2   23.09   34.77
  -1  23  -3  501.35   57.01
   1 -23   3  521.78   48.86
   0  24  -4  -32.92   40.53
   1  25  -5  230.41   47.02
   2  26  -6   14.60   44.45
   3  27  -7  451.25   66.65
   4  28  -8  649.40   68.03
   5  29  -9  177.24   56.09
   6  30 -10   67.23   53.17
   7  31 -11   44.29   51.86
   8  32 -12  -62.27   58.01
   9  33 -13   46.83   58.77
  10  34 -14  -10.68   56.09
  11  35 -15  180.09   63.65
  12  36 -16  325.29   75.29
  13  37 -17  242.74   72.03
  14  38 -18  136.33   69.49
  15  39 -19 -114.40   75.06
  11  29 -35    7.11   76.37
  10  28 -34    9.49   52.82
   9  27 -33   -7.53   66.84
   8  26 -32   64.92   74.18
   7  25 -31   86.39   70.87
   6  24 -30  306.43   77.02
   5  23 -29  324.60   74.41
   4  22 -28   11.91   55.39
   3  21 -27  153.35   57.51
   2  20 -26  -75.22   59.43
   1  19 -25   87.62   53.20
   0  18 -24   42.79   48.40
  -1  17 -23  407.23   62.00
  -2  16 -22 1102.22   84.20
  -3  15 -21  352.57   54.78
  -4  14 -20  -18.21   43.98
  14  20   4   27.16   20.36
  -5  13 -19   35.96   44.25
  13  19   5  107.18   22.82
  -6  12 -18  121.58   44.52
  12  18   6  123.31   21.32
  -7  11 -17   85.70   45.06
  11  17   7    0.61   15.56
  -8  10 -16   -4.99   46.71
  10  16   8   14.14   11.06
  -9   9 -15 1339.89   77.33
   9  -9  15 1336.09   67.72
  10  -8  14 1846.04   81.55
 -10   8 -14 1793.68   84.05
 -11   7 -13  624.08   57.35
  11  -7  13  594.50   53.28
  13 -11  -7  611.48   48.29
  12 -12  -6   86.32   31.08
 -12   6 -12   40.10   35.23
  12  -6  12   25.12   27.89
 -13   5 -11  192.34   40.45
  11 -13  -5  223.30   44.33
  -5 -11 -13  165.22   11.56
  13  -5  11  191.69   40.45
  10 -14  -4   21.97   28.16
  14  -4  10   -2.54   30.00
 -14   4 -10  -25.43   35.53
 -15   3  -9  153.12   34.88
  -9  15   3  216.20   40.87
   9 -15  -3  162.68   35.03
  15  -3   9  153.12   33.19
  16  -2   8   -5.57   31.31
   8 -16  -2   45.25   30.65
 -16   2  -8   61.96   29.46
  -8  16   2   -8.57   33.96
   7 -17  -1  102.14   34.07
  -7  17   1  118.66   37.45
  17  -1   7  128.38   31.42
  18   0   6  341.20   40.26
   6 -18   0  323.14   44.33
  -6  18   0  390.83   49.32
  19   1   5  437.00   42.45
  -5  19  -1  389.48   48.67
   5 -19   1  383.07   49.52
   4 -20   2   21.74   27.97
  20   2   4   -0.50   23.59
   3 -21   3  254.34   38.84
  -3  21  -3  311.54   52.24
   2 -22   4    8.45   37.34
  -2  22  -4   58.39   41.91
  -1  23  -5   51.67   39.99
   0  24  -6  -10.72   46.10
   1  25  -7  407.27   56.62
   2  26  -8 1407.23   93.58
   3  27  -9  417.22   61.23
   4  28 -10  -15.87   40.91
   5  29 -11  -31.31   50.02
   6  30 -12   94.00   56.51
   7  31 -13   20.32   55.62
   8  32 -14  -31.58   54.55
   9  33 -15  117.59   64.34
  10  34 -16  384.80   74.91
  11  35 -17  133.87   64.38
  12  36 -18  -46.67   70.14
  13  37 -19  124.31   76.87
  14  38 -20  -19.17   68.49
  15  39 -21 -112.44   83.51
  12  28 -36   93.00   77.87
  11  27 -35  -41.72   69.84
  10  26 -34   34.96   52.86
   9  25 -33   74.75   66.53
   8  24 -32  649.55   97.23
   7  23 -31  138.29   69.57
   6  22 -30  103.33   69.76
   5  21 -29 -109.48   62.31
   4  20 -28   95.58   51.55
   3  19 -27   32.65   40.07
   2  18 -26  -21.74   50.67
   1  17 -25  187.15   48.59
   0  16 -24  789.76   78.56
  15  23   1  374.85   38.61
  -1  15 -23  501.54   67.46
  14  22   2    2.00   22.63
  -2  14 -22   37.84   44.94
  -3  13 -21  124.08   44.60
  13  21   3  177.01   30.42
  12  20   4    2.38   23.89
  -4  12 -20   -9.72   38.53
  -5  11 -19   40.34   38.49
  11  19   5   68.57   21.93
  10  18   6   19.44   18.78
  -6  10 -18  -24.55   42.14
   9  17   7  155.00   20.94
  -7   9 -17  186.54   44.68
  -8   8 -16 1230.49   73.99
   8  16   8 1246.32   34.77
  -9   7 -15  412.65   51.63
   9  -7  15  468.43   45.18
   7  15   9  414.88   17.71
  14 -10  -6   12.25   33.46
 -10   6 -14  -28.27   39.53
  10  -6  14    8.95   29.39
  13 -11  -5  208.17   41.37
  11  -5  13  188.73   37.92
 -11   5 -13  149.36   39.49
  -5 -13 -11  165.37   12.79
 -12   4 -12    9.80   31.50
  12  -4  12   37.15   32.04
  -4 -12 -12   42.06   11.87
  12 -12  -4   28.58   38.88
  11 -13  -3   16.83   33.84
 -13   3 -11   17.09   28.12
  13  -3  11    7.80   31.08
 -14   2 -10   56.47   30.27
  10 -14  -2   24.20   30.50
  14  -2  10   23.62   31.00
 -10  14   2   17.36   34.73
  15  -1   9  205.29   35.69
   9 -15  -1  172.86   34.46
 -15   1  -9  233.71   31.46
  -9  15   1  219.77   37.76
  -8  16   0  146.63   44.87
   8 -16   0   66.80   32.19
  16   0   8  146.74   32.11
  17   1   7  152.62   33.57
  -7  17  -1  217.04   48.36
   7 -17   1  144.40   42.18
  -6  18  -2   50.02   37.92
  18   2   6   66.92   27.89
   6 -18   2   46.56   39.99
  19   3   5  -17.13   23.62
   5 -19   3  -75.64   40.37
  -5  19  -3   -3.19   40.83
  -4  20  -4  298.63   54.74
   4 -20   4  249.04   44.68
   3 -21   5  237.44   45.79
  -3  21  -5  251.69   47.52
  -2  22  -6  -17.86   38.22
  -1  23  -7  465.70   59.62
   0  24  -8  845.23   75.98
   1  25  -9  567.23   70.95
   2  26 -10    9.99   41.83
   3  27 -11   43.33   49.21
   4  28 -12  -47.17   53.09
   5  29 -13   24.51   53.66
   6  30 -14    9.26   60.89
   7  31 -15  397.90   80.94
   8  32 -16  490.71   78.60
   9  33 -17  289.49   66.61
  10  34 -18  -36.76   61.16
  11  35 -19  160.23   66.99
  12  36 -20  115.93   61.58
  13  37 -21   19.98   58.31
  14  38 -22    7.64   69.49
  12  26 -36   71.34   76.10
  26  36 -12   -5.72   56.01
  25  35 -11  154.69   55.47
  11  25 -35  108.25   71.87
  24  34 -10  327.52   65.23
  10  24 -34  158.96   57.81
  23  33  -9   81.55   48.79
  18  28  -4    2.84   36.92
  17  27  -3  107.79   37.84
  16  26  -2  392.40   46.44
   2  16 -26  381.99   64.38
   1  15 -25  337.93   57.51
  15  25  -1  331.63   43.68
   0  14 -24  -77.06   48.52
  14  24   0   -9.53   28.50
  13  23   1   11.79   28.70
  -1  13 -23   59.43   42.26
  12  22   2  189.38   35.11
  -2  12 -22  141.33   46.40
  11  21   3   37.92   24.24
  -3  11 -21    2.04   36.72
  -4  10 -20   50.75   34.84
  10  20   4   19.59   24.78
  -5   9 -19  213.89   43.02
   9  19   5  228.10   28.43
   8  18   6  232.33   28.96
  -6   8 -18  157.73   40.60
  -7   7 -17   41.37   35.96
   7  17   7   15.33   17.13
  -8   6 -16   37.72   35.61
   6  16   8   10.26   14.98
  15  -9  -5  135.37   36.65
  -9   5 -15  115.01   37.72
  -5 -15  -9  149.32   17.13
   9  -5  15  158.88   33.19
  14 -10  -4   55.78   29.12
 -10   4 -14   40.10   34.15
  -4 -14 -10   -5.15   13.98
  10  -4  14   -0.23   28.89
  13 -11  -3   33.04   33.54
 -11   3 -13   15.10   30.16
  -3 -13 -11   34.50   15.33
  11  -3  13   51.24   27.85
  12  -2  12   18.86   27.70
  12 -12  -2    1.27   37.42
 -12   2 -12  -14.37   29.73
  -2 -12 -12   -6.76   14.83
 -11  13   1  129.73   37.84
  13  -1  11  226.15   34.27
  11 -13  -1  257.22   46.67
 -13   1 -11  210.74   31.31
 -10  14   0  404.16   45.79
  10 -14   0  495.93   49.67
  14   0  10  443.30   38.72
 -14   0 -10  375.31   35.34
  15   1   9  220.77   31.42
   9 -15   1  181.24   38.49
  -9  15  -1  207.82   45.94
  16   2   8   13.56   25.70
   8 -16   2   -0.92   37.88
  -8  16  -2   47.79   42.45
  17   3   7  133.22   28.12
  -7  17  -3  174.40   44.71
   7 -17   3  120.31   40.45
  18   4   6    2.92   25.20
   6 -18   4   17.94   40.57
  -6  18  -4   32.04   44.29
   5 -19   5  148.43   45.52
  -5  19  -5  129.34   50.71
   4 -20   6  -21.74   35.61
  -4  20  -6   29.46   38.53
  -3  21  -7  347.69   55.39
  -2  22  -8  818.65   68.26
  -1  23  -9  377.38   60.23
   0  24 -10  -43.72   48.13
   1  25 -11   67.11   50.17
   2  26 -12   -5.99   52.17
   3  27 -13  -12.48   46.17
   4  28 -14   33.96   46.33
   5  29 -15  109.56   49.55
   6  30 -16  706.10   84.70
   7  31 -17  232.37   66.26
   8  32 -18  -43.14   60.27
   9  33 -19   42.79   50.05
  10  34 -20    0.69   63.84
  11  35 -21 -107.56   75.98
  12  36 -22  -66.57   73.41
  13  37 -23  161.96   78.13
  14  38 -24   60.81   66.65
  25  37 -13   53.66   59.77
  24  36 -12  249.35   62.62
  23  35 -11  123.31   57.47
  22  34 -10  -36.61   52.74
  21  33  -9  -36.57   46.87
  20  32  -8   49.40   46.90
  19  31  -7  110.71   45.48
  18  30  -6   -5.88   40.99
  17  29  -5  205.29   49.40
  16  28  -4  143.29   44.06
  15  27  -3   45.83   36.76
  14  26  -2   11.10   36.76
  13  25  -1  -19.13   32.69
  12  24   0   25.55   30.31
  -1  11 -23   -1.31   41.76
  11  23   1   55.01   28.85
  -2  10 -22  -59.66   41.53
  10  22   2  -21.13   27.54
  -3   9 -21  374.50   50.17
   9  21   3  321.14   38.18
   8  20   4  878.73   48.56
  -4   8 -20  724.61   59.73
   7  19   5  240.59   30.58
  -5   7 -19  207.21   42.26
  -6   6 -18  -10.79   32.92
   6  18   6   26.20   22.66
   5  17   7   80.59   20.67
  -7   5 -17  115.59   40.95
  16  -8  -4   20.67   29.54
  -8   4 -16  -11.14   33.27
  -4 -16  -8    6.42   16.52
   4  16   8   26.51   17.67
  15  -9  -3  139.71   35.84
  -3 -15  -9  219.38   23.89
  -9   3 -15  217.92   39.72
  14 -10  -2  -30.81   33.23
 -10   2 -14   10.33   30.00
  -2 -14 -10   43.83   18.48
  10  -2  14  -17.44   24.89
  13 -11  -1  286.73   46.60
  -1 -13 -11  195.18   22.74
 -11   1 -13  228.45   34.42
  11  -1  13  204.29   29.54
  12 -12   0 1179.67   68.65
   0 -12 -12 1151.82   38.64
 -12  12   0 1178.29   65.50
  12   0  12 1193.57   52.94
 -12   0 -12 1166.65   51.74
 -11  13  -1  204.48   40.49
  11 -13   1  198.30   45.71
  13   1  11  230.29   31.00
 -13  -1 -11  199.68   31.31
  14   2  10   31.31   25.55
 -10  14  -2   28.66   38.34
  10 -14   2   43.64   41.45
 -14  -2 -10   69.07   23.20
  15   3   9  122.85   26.62
  -9  15  -3  129.65   45.37
   9 -15   3  133.95   37.68
  -8  16  -4   50.63   39.87
   8 -16   4  -12.83   41.18
  16   4   8   -7.03   21.97
   7 -17   5   29.19   39.95
  17   5   7   60.43   22.97
  -7  17  -5   97.57   47.67
  -6  18  -6    9.91   43.83
   6 -18   6  -90.24   42.79
  -5  19  -7  227.49   43.33
   5 -19   7  199.06   40.83
  -4  20  -8  813.62   69.76
  -3  21  -9  308.70   49.13
  -2  22 -10   32.88   48.40
  -1  23 -11   33.34   49.36
   0  24 -12   -6.45   48.59
   1  25 -13  103.26   47.67
   2  26 -14  -60.43   48.94
   3  27 -15   99.26   62.38
   4  28 -16  130.26   54.82
   5  29 -17  218.08   56.35
   6  30 -18   -0.23   56.32
   7  31 -19   57.05   45.52
   8  32 -20   62.23   63.31
   9  33 -21   88.28   64.73
  10  34 -22   58.81   67.65
  11  35 -23  112.21   71.49
  12  36 -24  321.22   86.47
  13  37 -25    4.42   76.25
  24  38 -14  232.18   69.91
  23  37 -13  115.51   60.20
  22  36 -12  150.12   69.03
  21  35 -11  -58.12   57.81
  20  34 -10   42.64   54.59
  19  33  -9  -33.00   52.59
  18  32  -8  -55.51   46.44
  17  31  -7  417.30   66.03
  16  30  -6  613.32   67.15
  15  29  -5   48.98   39.72
  14  28  -4   23.66   40.49
  13  27  -3   55.93   35.69
  12  26  -2    7.91   32.50
  11  25  -1  -12.37   29.73
  10  24   0  -15.83   31.27
   9  23   1  423.02   45.64
   8  22   2  937.54   57.20
   7  21   3  299.02   37.42
  -3   7 -21  301.67   45.18
   6  20   4   -8.99   24.66
  -4   6 -20  -14.14   32.19
  -5   5 -19   57.81   34.65
   5  19   5  120.66   29.50
  -4 -18  -6   14.52   19.86
  -6   4 -18  -13.21   33.27
   4  18   6   18.78   23.97
  -3 -17  -7  112.48   23.28
  -7   3 -17  133.07   37.11
   3  17   7  103.45   22.93
  17  -7  -3  113.94   36.15
  16  -8  -2   36.69   29.81
   2  16   8   23.62   20.13
  -2 -16  -8  -24.39   22.97
  -8   2 -16  -27.47   30.85
  -1 -15  -9  204.63   27.77
  -9   1 -15  197.30   34.65
  15  -9  -1  239.86   42.14
 -10   0 -14  403.04   37.42
   0 -14 -10  389.25   31.08
  14 -10   0  497.16   50.02
  10   0  14  437.92   33.84
   1 -13 -11  220.50   26.43
 -13  11  -1  198.49   36.34
  13 -11   1  303.97   49.36
  11   1  13  205.52   27.43
 -11  -1 -13  218.23   30.27
  12 -12   2    0.08   28.54
  12   2  12  -28.00   23.20
 -12  -2 -12  -31.58   22.82
 -12  12  -2   47.48   41.79
  13   3  11   49.55   23.51
 -13  -3 -11    2.61   19.32
  11 -13   3   19.75   38.45
 -11  13  -3   80.25   36.42
 -10  14  -4    6.49   32.73
  10 -14   4   35.73   41.76
  14   4  10  -10.45   23.09
  -9  15  -5   66.30   38.84
  15   5   9  125.00   23.28
  -8  16  -6   43.37   44.45
   8 -16   6   58.35   35.26
  16   6   8   12.83   21.78
  17   7   7   27.47   19.55
  -7  17  -7   26.39   43.91
   7 -17   7   38.80   42.18
   6 -18   8  235.86   45.60
  -6  18  -8  254.38   50.59
  -5  19  -9  237.94   50.02
  -4  20 -10   52.44   40.14
  -3  21 -11   33.00   51.97
  -2  22 -12  131.22   52.90
  -1  23 -13   43.22   51.05
   0  24 -14   51.09   44.91
   1  25 -15  315.84   64.69
   2  26 -16  433.35   73.06
   3  27 -17  183.89   64.38
   4  28 -18   39.53   56.62
   5  29 -19   86.39   56.97
   6  30 -20   -9.68   55.39
   7  31 -21   88.74   67.03
   8  32 -22   65.42   57.93
   9  33 -23   84.86   52.40
  10  34 -24  269.52   71.68
  11  35 -25  179.51   71.95
  12  36 -26  139.14   69.88
  22  38 -14  -48.79   63.50
  21  37 -13   38.38   65.57
  20  36 -12   29.00   61.23
  19  35 -11  171.29   69.95
  18  34 -10  119.24   63.77
  17  33  -9  259.76   60.93
  16  32  -8  524.28   69.88
  15  31  -7  499.77   70.26
  14  30  -6   12.98   38.80
  13  29  -5  -13.02   38.68
  12  28  -4    8.03   37.95
  11  27  -3   27.24   32.92
  10  26  -2  -66.50   35.42
   9  25  -1  515.02   50.63
   8  24   0  869.82   60.27
   7  23   1  546.68   50.71
   6  22   2   28.50   28.04
   5  21   3  259.37   37.53
  -4   4 -20  264.14   39.72
   4  20   4  250.88   35.03
  -5   3 -19    5.11   29.31
   3  19   5   24.66   25.08
  -3 -19  -5  -13.91   22.09
  18  -6  -2   81.36   34.88
  -6   2 -18   87.28   32.65
   2  18   6   79.98   26.51
  -2 -18  -6   93.27   26.81
  -1 -17  -7  159.38   28.58
  -7   1 -17   82.25   27.97
   1  17   7  127.19   27.27
  17  -7  -1  152.93   32.69
  16  -8   0  115.59   36.11
   0 -16  -8  114.21   26.31
  -8   0 -16  107.68   31.65
  -9  -1 -15  255.72   33.61
  15  -9   1  189.92   35.53
   1 -15  -9  234.06   32.19
   2 -14 -10    9.91   25.55
 -14  10  -2   75.56   36.88
  14 -10   2   78.75   39.11
 -10  -2 -14   18.63   23.93
   3 -13 -11   47.25   23.62
 -11  -3 -13   26.12   21.86
 -13  11  -3   13.18   32.50
  13 -11   3   -8.53   35.92
  11   3  13   35.61   20.21
  12   4  12   61.08   20.51
 -12  12  -4   46.87   41.60
 -12  -4 -12   31.50   18.90
  12 -12   4   75.75   41.64
 -11  13  -5  179.24   48.25
  11 -13   5  169.64   44.79
  13   5  11  169.41   21.86
  10 -14   6  -51.09   36.42
 -10  14  -6  -36.07   45.14
  14   6  10   -2.84   18.82
   9 -15   7  399.39   51.86
  15   7   9  499.58   30.08
  -9  15  -7  439.00   53.17
  16   8   8 1237.48   43.52
  -8  16  -8 1179.71   75.83
   8 -16   8 1270.94   75.79
  -7  17  -9  151.81   53.70
   7 -17   9  109.98   42.64
  -6  18 -10  -31.42   47.02
  -5  19 -11   16.02   46.33
  -4  20 -12   43.49   47.63
  -3  21 -13  219.96   56.93
  -2  22 -14    0.58   46.44
  -1  23 -15  482.98   66.30
   0  24 -16  716.66   75.98
   1  25 -17  111.36   58.54
   2  26 -18   31.73   56.58
   3  27 -19   21.78   54.01
   4  28 -20   77.06   53.90
   5  29 -21   -0.61   63.50
   6  30 -22  -15.37   57.74
   7  31 -23  217.92   66.61
   8  32 -24  553.47   94.92
   9  33 -25   -4.61   68.22
  10  34 -26   60.20   67.92
  11  35 -27  125.08   79.56
  12  36 -28   48.82   66.92
  21  39 -15  -39.68   70.53
  20  38 -14  109.14   71.11
  19  37 -13  -20.21   63.31
  18  36 -12  -51.01   58.12
  17  35 -11  190.92   63.35
  16  34 -10  404.20   67.96
  15  33  -9  281.73   63.00
  14  32  -8    5.80   51.90
  13  31  -7   18.32   41.41
  12  30  -6   83.90   39.37
  11  29  -5   23.51   41.79
  10  28  -4   -4.30   43.49
   9  27  -3  413.22   53.09
   8  26  -2 1412.15   79.59
   7  25  -1  340.54   47.63
   6  24   0    5.53   34.80
   5  23   1   71.18   33.92
   4  22   2   29.96   32.65
  -3 -21  -3  276.62   32.88
   3  21   3  293.03   39.68
  -2 -20  -4   32.54   27.43
   2  20   4   17.71   27.81
   1  19   5  449.37   40.37
  -5   1 -19  430.24   41.33
  19  -5  -1  483.29   44.87
  -1 -19  -5  410.96   38.18
  18  -6   0  370.01   46.67
   0 -18  -6  350.95   39.07
  -6   0 -18  403.43   39.53
   0  18   6  370.24   35.11
  -1  17   7  154.93   29.73
  17  -7   1  178.36   36.95
   1 -17  -7  134.91   29.62
  -7  -1 -17  168.06   29.35
  16  -8   2  -17.48   31.81
  -8  -2 -16    5.57   24.20
   2 -16  -8   -6.99   26.93
  -9  -3 -15  163.80   27.97
  15  -9   3  197.41   42.37
 -15   9  -3  114.32   35.00
   3 -15  -9  139.29   30.65
  14 -10   4   62.00   40.03
 -14  10  -4    2.11   36.72
   4 -14 -10   11.33   25.24
 -10  -4 -14  -14.06   18.98
   5 -13 -11  236.09   31.62
 -11  -5 -13  178.28   21.36
 -13  11  -5  206.78   49.40
  13 -11   5  155.50   39.99
  11   5  13  184.43   19.13
 -12  12  -6  -19.44   35.49
  12   6  12   30.19   14.87
  12 -12   6   -6.45   42.45
  11 -13   7  642.37   61.46
  13   7  11  598.04   27.58
 -11  13  -7  629.27   59.81
  14   8  10 1826.18   45.56
  10 -14   8 1718.74   84.86
 -10  14  -8 1715.32   86.05
  15   9   9 1348.50   41.03
  -9  15  -9 1146.98   79.06
   9 -15   9 1434.82   81.98
  -8  16 -10   77.87   44.02
   8 -16  10   19.05   37.07
  -7  17 -11  153.39   53.32
  -6  18 -12  141.44   49.71
  -5  19 -13   58.54   46.79
  -4  20 -14   64.88   46.02
  -3  21 -15  394.67   55.89
  -2  22 -16 1095.46   90.97
  -1  23 -17  453.29   67.34
   0  24 -18    4.03   51.97
   1  25 -19  148.43   66.03
   2  26 -20  -45.02   52.82
   3  27 -21  151.39   62.81
   4  28 -22  -55.74   60.04
   5  29 -23  218.00   62.81
   6  30 -24  572.57   85.97
   7  31 -25   93.73   64.77
   8  32 -26   -6.80   69.22
   9  33 -27   37.53   72.22
  10  34 -28   58.43   77.48
  11  35 -29   38.61   81.67
  19  39 -15   11.75   64.15
  18  38 -14  -27.93   62.92
  17  37 -13  368.43   78.29
  16  36 -12  527.47   83.09
  15  35 -11  244.55   67.23
  14  34 -10   -4.65   45.91
  13  33  -9  -28.54   47.40
  12  32  -8  172.02   54.39
  11  31  -7   88.62   45.06
  10  30  -6  -36.49   40.10
   9  29  -5  236.29   53.40
   8  28  -4  575.60   63.38
   7  27  -3  401.20   55.74
   6  26  -2  -12.22   36.65
   5  25  -1  212.89   42.45
   4  24   0   -1.42   33.07
   3  23   1  458.32   48.67
  -2 -22  -2   44.56   25.66
   2  22   2   40.95   31.27
   1  21   3  493.05   47.94
  -1 -21  -3  400.89   41.10
   0  20   4  641.25   47.83
   0 -20  -4  556.13   46.56
  20  -4   0  707.63   56.78
  19  -5   1  516.21   48.52
  -1  19   5  541.87   45.71
   1 -19  -5  543.72   46.40
  -6  -2 -18   78.33   26.28
   2 -18  -6   99.38   32.84
  18  -6   2  128.61   42.37
  -2  18   6   30.23   28.73
  -7  -3 -17  164.11   26.54
  17  -7   3  225.07   47.48
   3 -17  -7  144.40   32.50
  16  -8   4   -6.65   39.34
 -16   8  -4   12.60   28.73
  -8  -4 -16   18.32   20.78
   4 -16  -8  -30.42   29.54
  -9  -5 -15  144.55   23.47
 -15   9  -5  170.52   42.83
  15  -9   5  183.35   41.03
   5 -15  -9  168.41   33.88
  14 -10   6   46.33   36.61
 -14  10  -6   15.79   35.03
   6 -14 -10   30.65   27.20
 -10  -6 -14   29.16   15.75
  13 -11   7  570.65   58.54
 -13  11  -7  623.66   57.66
 -11  -7 -13  590.20   21.47
 -12  12  -8 2798.53  101.72
  12   8  12 2548.26   41.18
  12 -12   8 2725.19  104.64
 -11  13  -9 1487.44   82.82
  13   9  11 1452.49   32.81
  11 -13   9 1589.63   84.67
  10 -14  10   85.66   40.30
 -10  14 -10   44.87   43.64
  14  10  10   58.24   12.79
  -9  15 -11   97.88   48.44
  15  11   9  124.08   15.40
   9 -15  11  119.08   39.07
  -8  16 -12  -45.91   42.76
  -7  17 -13   85.47   43.06
  -6  18 -14  -40.26   51.97
  -5  19 -15  201.98   53.97
  -4  20 -16  742.24   78.56
  -3  21 -17  204.02   53.70
  -2  22 -18   36.72   46.48
  -1  23 -19   98.30   51.44
   0  24 -20   92.92   48.86
   1  25 -21   38.22   49.40
   2  26 -22  -74.37   61.31
   3  27 -23  155.35   63.69
   4  28 -24  703.71   93.35
   5  29 -25  175.98   61.19
   6  30 -26  -12.79   65.57
   7  31 -27   62.31   74.18
   8  32 -28  -80.40   80.82
   9  33 -29 -176.94   84.01
  10  34 -30   94.54   87.39
  18  40 -16   45.33   63.88
  17  39 -15    4.53   62.46
  16  38 -14  301.51   69.68
  15  37 -13  105.02   64.34
  14  36 -12 -113.28   65.84
  13  35 -11  -33.73   53.24
  12  34 -10   73.45   53.63
  11  33  -9  312.65   64.19
  10  32  -8  -12.14   47.83
   9  31  -7   68.45   45.10
   8  30  -6  355.37   56.62
   7  29  -5  304.32   55.28
   6  28  -4  -35.26   42.56
   5  27  -3  136.91   43.29
   4  26  -2   20.32   38.18
   3  25  -1    6.45   35.30
   2  24   0   16.56   37.76
  -1 -23  -1 1130.88   62.08
   1  23   1 1153.74   67.38
   0 -22  -2 2448.57   88.81
   0  22   2 2316.58   89.66
   1 -21  -3  530.81   48.98
  -1  21   3  487.29   47.40
  21  -3   1  481.37   50.02
   2 -20  -4   -1.81   27.74
  20  -4   2    0.04   35.73
  -2  20   4   56.55   32.08
   3 -19  -5  -14.21   34.34
  -3  19   5    9.87   30.77
  19  -5   3   22.89   30.54
  18  -6   4   12.56   29.66
   4 -18  -6  -24.59   32.50
  -6  -4 -18   -0.15   19.63
  -4  18   6  -42.60   30.39
  -7  -5 -17   54.93   20.40
   5 -17  -7  123.43   35.11
  17  -7   5   92.12   33.69
  -8  -6 -16   15.67   17.36
 -16   8  -6  -36.26   36.80
   6 -16  -8   37.68   33.77
  16  -8   6  -24.89   33.96
 -15   9  -7  509.30   52.78
  15  -9   7  497.85   55.09
  -9  -7 -15  442.92   23.05
   7 -15  -9  414.34   45.37
 -10  -8 -14 1615.25   30.27
  14 -10   8 1779.43   87.78
 -14  10  -8 1793.26   85.01
   8 -14 -10 1928.21   74.91
  13 -11   9 1548.91   82.21
 -13  11  -9 1523.67   79.17
  12 -12  10   65.42   42.03
 -12  12 -10   42.79   44.18
  11 -13  11  486.06   55.01
 -11  13 -11  444.03   53.24
  14  12  10  191.30   13.14
 -10  14 -12  148.78   53.36
  10 -14  12  204.36   45.87
  -9  15 -13  -34.07   42.41
  -8  16 -14  -39.11   46.29
  -7  17 -15  337.28   57.28
  -6  18 -16 1078.56   82.98
  -5  19 -17  338.47   60.77
  -4  20 -18   22.89   37.95
  -3  21 -19  122.08   61.62
  -2  22 -20  152.27   55.28
  -1  23 -21   21.17   45.02
   0  24 -22   12.91   58.16
   1  25 -23  272.97   74.56
   2  26 -24  387.18   74.37
   3  27 -25  330.36   77.64
   4  28 -26   16.60   52.05
   5  29 -27  111.09   69.80
   6  30 -28  -86.16   70.91
   7  31 -29   92.77   79.10
   8  32 -30   84.86   81.05
   9  33 -31  -52.40   80.25
  16  40 -16  246.62   80.98
  15  39 -15  181.85   68.19
  14  38 -14   64.50   58.43
  13  37 -13   -7.61   63.38
  12  36 -12   29.54   65.88
  11  35 -11   41.41   56.97
  10  34 -10   84.97   53.66
   9  33  -9  205.56   60.62
   8  32  -8  256.22   60.27
   7  31  -7   28.50   46.56
   6  30  -6   12.06   46.44
   5  29  -5   25.74   38.99
   4  28  -4   35.38   39.30
   3  27  -3    7.34   40.60
   2  26  -2    9.41   38.11
   1  25  -1  462.20   55.47
   0  24   0 1109.33   69.49
   0 -24   0  892.44   59.73
   1 -23  -1 1089.47   64.34
  -1  23   1 1129.73   70.68
   2 -22  -2   77.17   34.88
  -2  22   2   88.24   36.42
  22  -2   2   43.72   35.34
  -3  21   3  259.95   42.79
   3 -21  -3  253.00   41.06
  21  -3   3  353.76   47.52
  -4  20   4  292.33   42.10
  20  -4   4  266.37   43.56
   4 -20  -4  199.75   39.14
  -5  19   5   51.55   29.54
   5 -19  -5  118.59   37.45
  19  -5   5  153.35   43.75
   6 -18  -6   43.72   31.58
  18  -6   6  -30.23   40.60
  -6  18   6   28.16   30.19
  17  -7   7   29.81   39.18
  -7  -7 -17   10.76   17.36
 -17   7  -7   29.43   34.19
   7 -17  -7   89.58   36.84
  -8  -8 -16 1186.81   34.11
  16  -8   8 1242.44   72.10
   8 -16  -8 1323.41   68.76
 -16   8  -8 1214.13   71.30
   9 -15  -9 1409.35   70.64
 -15   9  -9 1287.19   71.87
  15  -9   9 1315.77   76.29
  14 -10  10   79.67   43.33
 -14  10 -10   14.41   34.69
  10 -14 -10   25.55   31.35
  13 -11  11  436.27   56.35
 -13  11 -11  509.03   58.43
 -12  12 -12  642.44   61.35
  12 -12  12  572.30   55.74
 -11  13 -13   10.18   43.49
 -10  14 -14    5.11   44.48
  -9  15 -15  414.84   61.35
  -8  16 -16 1223.77   86.85
  -7  17 -17  429.40   66.07
  -6  18 -18   48.56   49.90
  -5  19 -19  160.11   56.16
  -4  20 -20   99.92   46.10
  -3  21 -21  -10.10   56.12
  -2  22 -22  -33.96   57.85
  -1  23 -23   24.62   58.62
   0  24 -24  120.70   65.46
   1  25 -25   73.99   54.86
   2  26 -26  -43.25   64.73
   3  27 -27  109.75   63.19
   4  28 -28   57.39   57.78
   5  29 -29  -60.27   72.26
   6  30 -30  -17.94   76.48
   7  31 -31  175.67   85.01
   8  32 -32  424.29  101.18
   8  32 -34 -108.33   81.48
   7  31 -33   59.31   76.68
   6  30 -32  444.19   96.61
   5  29 -31  200.98   86.62
   4  28 -30   23.13   59.35
   3  27 -29  -81.55   58.24
   2  26 -28  146.13   68.53
   1  25 -27   28.66   57.43
   0  24 -26 -124.81   71.37
  -1  23 -25   81.75   48.40
  -2  22 -24  361.40   65.57
  -3  21 -23   -0.77   44.45
  -4  20 -22   27.12   52.21
  -5  19 -21  -16.83   52.94
  -6  18 -20   45.60   46.02
  -7  17 -19  181.66   50.59
  -8  16 -18   79.86   51.21
  15  17   9  395.28   20.86
  -9  15 -17  334.86   57.66
 -10  14 -16  738.13   72.30
 -11  13 -15  255.76   53.09
 -12  12 -14   24.32   40.34
 -13  11 -13    0.92   40.68
  13 -11  13   30.35   37.26
  14 -10  12  195.99   45.25
  12 -14 -10  243.51   43.22
 -14  10 -12  228.26   51.36
  11 -15  -9  100.42   38.07
  15  -9  11   90.31   32.38
 -15   9 -11  149.55   45.56
 -16   8 -10  -37.26   40.91
  16  -8  10   16.06   35.80
  10 -16  -8  -19.59   35.46
   9 -17  -7  108.14   31.65
  -7  -9 -17  123.54   15.56
  17  -7   9  215.16   41.37
 -17   7  -9  120.39   40.91
   8 -18  -6  193.53   42.64
 -18   6  -8  232.29   38.26
  18  -6   8  171.52   39.26
  19  -5   7  255.65   45.56
   7 -19  -5  273.66   46.67
  -7  19   5  275.43   41.83
  20  -4   6   26.58   36.42
  -6  20   4  -52.24   34.42
   6 -20  -4   67.30   39.45
  21  -3   5  178.74   37.11
   5 -21  -3  152.74   36.22
  -5  21   3  254.23   46.17
   4 -22  -2   62.69   36.65
  22  -2   4  -41.30   36.92
  -4  22   2   49.06   36.53
  23  -1   3  576.91   54.59
   3 -23  -1  488.63   52.28
  -3  23   1  557.01   57.24
   2 -24   0    3.34   34.11
  24   0   2  -20.55   32.04
  -2  24   0   15.52   38.88
  -1  25  -1  555.93   60.58
   0  26  -2  895.02   72.22
   1  27  -3  367.66   57.20
   2  28  -4    8.49   42.52
   3  29  -5  104.37   51.36
   4  30  -6  -80.09   55.59
   5  31  -7   18.40   41.87
   6  32  -8    0.85   53.90
   7  33  -9  307.39   66.30
   8  34 -10  844.00   89.54
   9  35 -11  337.89   73.72
  10  36 -12   93.39   56.05
  11  37 -13    4.69   63.77
  12  38 -14   -1.88   53.59
  13  39 -15  111.75   73.29
  14  40 -16  -46.40   75.64
  15  41 -17   90.20   74.75
   8  30 -34  112.44   76.48
   7  29 -33  171.44   83.70
   6  28 -32   11.45   67.11
   5  27 -31   18.05   64.04
   4  26 -30   20.44   54.20
   3  25 -29  -16.21   56.85
   2  24 -28   37.49   64.54
   1  23 -27  138.41   56.24
   0  22 -26  123.92   62.15
  -1  21 -25  -69.88   52.97
  -2  20 -24  -27.70   47.29
  -3  19 -23   40.64   47.33
  -4  18 -22   72.72   57.62
  -5  17 -21  -12.33   40.83
  -6  16 -20   31.42   48.48
  -7  15 -19  214.77   58.85
  15  19   7  202.79   23.97
  -8  14 -18   28.23   38.22
  14  18   8   71.22   15.40
  13  17   9   47.63   11.49
  -9  13 -17   84.05   44.25
 -10  12 -16   -1.08   39.53
 -11  11 -15  -16.06   42.83
  11 -11  15   42.68   43.37
  12 -10  14  206.94   44.02
 -12  10 -14  224.53   50.90
  13  -9  13  296.75   46.48
 -13   9 -13  275.74   48.94
  13 -13  -9  377.46   45.33
 -14   8 -12   43.72   41.33
  12 -14  -8  -28.27   34.11
  14  -8  12    8.41   34.57
  11 -15  -7  -32.61   37.68
  15  -7  11   74.29   41.18
 -15   7 -11    4.34   36.57
  10 -16  -6  -15.37   32.27
  16  -6  10   12.64   37.65
 -16   6 -10  -48.67   36.57
  17  -5   9   20.97   31.42
 -17   5  -9   84.67   34.80
   9 -17  -5  108.64   42.22
  18  -4   8   77.94   36.34
  -8  18   4   87.43   39.76
   8 -18  -4   20.17   31.69
  -7  19   3  -18.75   37.65
  19  -3   7  -44.91   38.49
   7 -19  -3  -67.57   37.65
  20  -2   6  -20.55   35.69
  -6  20   2   49.71   38.53
   6 -20  -2   90.43   40.41
   5 -21  -1  111.56   38.30
  -5  21   1   71.14   36.61
  21  -1   5  129.07   39.80
  -4  22   0  -35.19   34.65
   4 -22   0   -9.49   32.42
  22   0   4  -23.43   28.89
  -3  23  -1  532.77   55.43
  23   1   3  515.98   45.60
   3 -23   1  483.71   48.13
  -2  24  -2  791.61   67.03
  -1  25  -3   37.99   41.14
   0  26  -4  -14.25   45.41
   1  27  -5   35.38   39.49
   2  28  -6   28.70   42.14
   3  29  -7   48.75   39.61
   4  30  -8  -47.60   51.01
   5  31  -9  -47.94   46.79
   6  32 -10   42.76   53.40
   7  33 -11  113.09   62.38
   8  34 -12    0.04   48.82
   9  35 -13  -54.55   62.15
  10  36 -14  -81.21   61.81
  11  37 -15   -0.58   65.53
  12  38 -16  -69.57   55.89
  13  39 -17   24.78   63.88
  14  40 -18  -64.84   77.83
   9  29 -35   38.26   66.76
   8  28 -34   11.29   60.39
   7  27 -33   12.83   70.53
   6  26 -32   49.44   67.76
   5  25 -31   90.62   70.49
   4  24 -30 -166.87   62.23
   3  23 -29   23.32   63.88
   2  22 -28  -30.35   62.65
   1  21 -27  -23.09   46.67
   0  20 -26  -36.22   54.28
  -1  19 -25   50.94   55.36
  -2  18 -24  194.95   56.74
  -3  17 -23  175.82   58.20
  16  22   4   12.02   21.13
  -4  16 -22  -54.20   47.94
  15  21   5   42.26   22.24
  -5  15 -21  -11.37   48.63
  14  20   6   24.78   20.24
  -6  14 -20   16.29   43.52
  13  19   7   -8.84   16.44
  -7  13 -19   50.44   47.06
  -8  12 -18   19.25   40.18
  12  18   8   13.64   13.75
  11  17   9   14.94    9.22
  -9  11 -17    8.64   46.44
  10 -10  16  276.70   40.76
 -10  10 -16  294.72   51.05
 -11   9 -15   86.66   41.37
  11  -9  15   99.92   39.45
  14 -12  -8   -8.72   28.47
  12  -8  14   20.97   25.93
 -12   8 -14   38.91   42.99
 -13   7 -13   53.20   40.60
  13  -7  13   -8.95   35.11
  13 -13  -7   38.30   33.69
  12 -14  -6   12.87   37.65
  14  -6  12    3.84   31.81
 -14   6 -12   -0.88   35.49
  15  -5  11  123.58   37.61
  11 -15  -5   85.01   35.19
 -15   5 -11  123.77   35.34
  10 -16  -4  -19.25   39.26
  16  -4  10   -0.88   33.19
 -16   4 -10   19.67   30.69
  17  -3   9  146.94   34.96
 -17   3  -9  224.07   36.95
  -9  17   3  248.27   41.68
   9 -17  -3   92.66   34.04
   8 -18  -2  350.72   50.67
  -8  18   2  281.54   42.52
  18  -2   8  328.14   40.18
   7 -19  -1   84.70   34.73
  19  -1   7   55.78   32.58
  -7  19   1   70.14   39.76
  -6  20   0    1.54   38.41
   6 -20   0   -4.00   39.95
  20   0   6  -48.17   29.19
   5 -21   1   15.60   35.84
  21   1   5   46.29   26.35
  -5  21  -1   29.35   41.79
  22   2   4   11.87   29.62
  -4  22  -2   -6.76   40.72
   4 -22   2   31.62   38.15
  -3  23  -3   -9.10   38.30
  -2  24  -4  -36.49   43.60
  -1  25  -5  195.84   47.98
   0  26  -6  360.94   60.23
   1  27  -7  202.10   54.70
   2  28  -8  -11.37   47.79
   3  29  -9  -26.43   54.55
   4  30 -10    4.26   49.59
   5  31 -11  -14.94   48.59
   6  32 -12   65.34   49.36
   7  33 -13  -48.82   59.62
   8  34 -14  145.13   67.34
   9  35 -15  112.05   62.69
  10  36 -16  -38.15   68.72
  11  37 -17   20.05   66.80
  12  38 -18   -9.30   60.31
  13  39 -19  -36.38   57.43
  14  40 -20    0.35   60.16
  28  36 -10  -28.96   50.13
  10  28 -36  -38.53   79.40
  27  35  -9   96.80   56.70
   9  27 -35  104.64   66.57
   8  26 -34  332.71   73.87
   7  25 -33  177.55   69.30
   6  24 -32   56.51   60.89
   5  23 -31    8.68   56.20
   4  22 -30  -71.14   57.08
   3  21 -29  -80.71   64.73
   2  20 -28   18.82   61.73
   1  19 -27  140.17   51.74
  18  26   0  349.65   43.14
   0  18 -26  360.33   72.37
  -1  17 -25  238.90   61.35
  17  25   1  177.32   33.73
  16  24   2   17.48   28.27
  -2  16 -24   -3.73   48.67
  -3  15 -23  163.30   52.59
  15  23   3   72.87   28.70
  -4  14 -22   15.25   34.69
  14  22   4  -22.59   25.81
  -5  13 -21  -21.28   46.79
  13  21   5   42.14   20.97
  12  20   6   18.21   20.24
  -6  12 -20  -66.96   45.56
  11  19   7  127.11   22.40
  -7  11 -19  122.62   40.95
  -8  10 -18  323.18   51.21
  10  18   8  354.64   24.05
  -9   9 -17  710.90   60.85
   9  17   9  683.20   25.08
 -10   8 -16  -27.35   37.53
  10  -8  16  -18.32   31.81
  11  -7  15    2.73   31.04
  15 -11  -7   79.48   35.38
 -11   7 -15  -20.44   37.19
  14 -12  -6   23.55   32.23
 -12   6 -14   22.47   33.57
  12  -6  14   -7.30   24.35
  13  -5  13   68.53   33.34
 -13   5 -13  111.40   39.80
  13 -13  -5   37.07   27.89
  -5 -13 -13   52.09    9.91
 -14   4 -12   21.86   32.61
  14  -4  12   54.28   28.77
  -4 -12 -14    6.53   10.56
  12 -14  -4  -25.01   31.58
  11 -15  -3 1039.30   68.49
  15  -3  11 1032.27   59.93
 -15   3 -11 1012.95   59.20
 -16   2 -10 1978.38   71.80
 -10  16   2 1801.17   78.40
  16  -2  10 1957.06   76.75
  10 -16  -2 1886.42   84.55
   9 -17  -1  274.28   49.82
  17  -1   9  334.13   42.10
  -9  17   1  334.40   49.63
  -8  18   0  -28.43   34.46
  18   0   8   -8.68   31.77
   8 -18   0  -54.47   38.88
  19   1   7   85.47   32.23
   7 -19   1   81.48   42.03
  -7  19  -1   72.76   41.53
   6 -20   2   57.51   39.87
  20   2   6   15.21   29.50
  -6  20  -2   26.66   33.84
  -5  21  -3  161.99   42.37
   5 -21   3  255.65   51.13
  21   3   5  306.47   39.95
  -4  22  -4  -35.03   42.64
  -3  23  -5  303.59   49.36
  -2  24  -6  913.38   76.29
  -1  25  -7  355.56   55.59
   0  26  -8   42.41   45.06
   1  27  -9  179.97   49.25
   2  28 -10    4.99   51.28
   3  29 -11   47.25   49.29
   4  30 -12  -15.40   57.62
   5  31 -13  189.23   66.30
   6  32 -14  561.73   80.79
   7  33 -15  149.20   56.51
   8  34 -16 -153.50   75.83
   9  35 -17   65.65   53.93
  10  36 -18   77.52   62.88
  11  37 -19  -15.29   70.91
  12  38 -20   72.76   78.56
  13  39 -21  102.45   76.52
  27  37 -11  169.87   64.54
  11  27 -37  131.72   77.60
  26  36 -10  509.91   77.29
  10  26 -36  422.02   91.43
   9  25 -35  359.83   84.09
  25  35  -9  306.16   65.84
  24  34  -8   73.33   51.17
   8  24 -34    8.99   53.32
  23  33  -7   22.32   46.64
   7  23 -33  120.97   55.28
   6  22 -32  -25.16   52.28
  22  32  -6  -48.13   43.79
  21  31  -5  -64.34   42.79
   5  21 -31  -19.05   48.25
  20  30  -4  -55.62   42.18
   4  20 -30   47.44   49.94
  19  29  -3  155.12   42.06
   3  19 -29  178.59   61.46
  18  28  -2  677.40   58.97
   2  18 -28  690.35   80.63
  17  27  -1  306.74   44.45
   1  17 -27  260.30   53.90
   0  16 -26  -53.47   51.48
  16  26   0   20.97   31.04
  -1  15 -25  426.44   67.26
  15  25   1  319.92   43.06
  14  24   2  161.26   34.77
  -2  14 -24  119.32   50.05
  -3  13 -23   62.15   48.06
  13  23   3   43.56   27.12
  -4  12 -22   14.64   40.57
  12  22   4   -4.26   24.74
  -5  11 -21  457.59   56.05
  11  21   5  351.49   32.81
  -6  10 -20 1251.93   77.98
  10  20   6 1325.14   51.71
   9  19   7  325.10   26.93
  -7   9 -19  346.27   51.67
  -8   8 -18   -4.34   43.95
   8  18   8  -11.95   16.10
  -9   7 -17  142.59   43.72
   7  17   9  135.26   15.71
  10  -6  16   21.55   25.47
  16 -10  -6   64.73   38.64
  -5 -15 -11  139.02   14.79
  11  -5  15  160.92   38.80
 -11   5 -15  163.22   41.14
  15 -11  -5   82.13   35.46
  12  -4  14  -13.68   27.54
  -4 -14 -12   13.06   12.06
 -12   4 -14   10.18   32.58
  13 -13  -3 1206.14   71.45
  13  -3  13 1255.69   63.15
 -13   3 -13 1124.20   61.12
  -3 -13 -13 1261.22   37.22
 -12  14   2 3382.73   98.73
  14  -2  12 3541.35   97.80
  12 -14  -2 3607.27  113.98
 -14   2 -12 3480.15   93.58
 -15   1 -11 1419.03   62.58
  15  -1  11 1558.63   67.30
 -11  15   1 1604.76   75.71
  11 -15  -1 1538.34   76.48
  16   0  10   48.21   27.43
 -10  16   0  -25.51   38.72
  10 -16   0   68.34   41.41
 -16   0 -10  -14.33   25.89
   9 -17   1  305.36   44.33
  -9  17  -1  330.44   50.48
  17   1   9  275.39   36.72
  18   2   8  394.29   39.80
   8 -18   2  260.99   49.32
  -8  18  -2  362.29   49.75
  -7  19  -3   55.20   38.68
   7 -19   3  -33.84   39.53
  19   3   7   11.75   27.70
  20   4   6  -16.60   25.39
   6 -20   4   48.09   37.42
  -6  20  -4  -45.79   35.69
  -5  21  -5 1432.32   85.63
  -4  22  -6 1856.30   94.85
  -3  23  -7  822.76   74.41
  -2  24  -8  -27.97   46.21
  -1  25  -9  571.64   69.65
   0  26 -10  309.85   65.65
   1  27 -11  -43.14   42.56
   2  28 -12  -72.10   54.24
   3  29 -13   71.68   51.17
   4  30 -14  712.74   82.36
   5  31 -15  661.30   85.47
   6  32 -16   15.29   61.62
   7  33 -17  340.66   71.14
   8  34 -18  147.28   69.76
   9  35 -19    4.61   65.23
  10  36 -20   21.47   57.78
  11  37 -21   74.68   59.50
  12  38 -22  307.70   75.52
  13  39 -23  263.41   80.36
  11  25 -37  137.37   62.08
  25  37 -11  248.12   67.61
  24  36 -10   14.56   49.67
  10  24 -36  117.97   77.25
  23  35  -9  268.36   65.77
   9  23 -35  157.92   70.49
  22  34  -8  144.36   56.70
   8  22 -34  177.90   68.30
  21  33  -7   -2.04   47.02
  20  32  -6  -58.47   46.29
  19  31  -5  409.73   60.89
   4  18 -30  872.16   85.01
  18  30  -4  909.46   75.25
  17  29  -3  581.40   61.92
   3  17 -29  653.66   79.29
   2  16 -28  -34.00   52.63
  16  28  -2  -65.42   41.72
  15  27  -1  353.60   50.40
   1  15 -27  375.31   55.01
  14  26   0  435.97   49.02
   0  14 -26  581.13   68.45
  -1  13 -25  -58.08   46.48
  13  25   1   26.35   29.85
  -2  12 -24   31.31   44.75
  12  24   2   -8.41   27.24
  -3  11 -23  161.53   44.25
  11  23   3  228.60   33.96
  10  22   4 1363.25   60.50
  -4  10 -22 1349.84   86.66
   9  21   5 1309.32   56.35
  -5   9 -21 1197.65   75.37
  -6   8 -20  -16.29   37.80
   8  20   6   11.06   22.24
   7  19   7  590.62   34.88
  -7   7 -19  529.43   55.24
   6  18   8  178.67   22.28
  -8   6 -18  147.17   41.68
   5  17   9   11.79   16.21
  -5 -17  -9   44.37   16.56
  -9   5 -17   33.46   36.11
  17  -9  -5   -8.18   33.61
  16 -10  -4  -13.14   38.22
 -10   4 -16   11.64   36.65
  -4 -16 -10  -19.59   16.67
  -3 -15 -11 1020.17   37.15
  11  -3  15 1142.18   58.97
 -11   3 -15 1065.35   60.62
  15 -11  -3 1068.80   66.84
  14 -12  -2 3449.69  110.67
 -12   2 -14 3424.45   93.23
  12  -2  14 3235.95   88.74
  -2 -14 -12 3318.81   65.23
  13 -13  -1 2628.58   98.84
 -13   1 -13 2890.11   83.55
  13  -1  13 2777.82   82.01
 -13  13   1 2894.22   92.04
  -1 -13 -13 2921.03   61.39
 -14   0 -12   -0.88   26.97
  14   0  12   25.12   27.43
  12 -14   0    1.08   40.34
 -12  14   0  -22.51   38.15
  15   1  11 1439.27   60.23
  11 -15   1 1573.53   81.59
 -11  15  -1 1458.79   77.64
 -15  -1 -11 1556.63   58.93
  10 -16   2 1849.50   86.55
 -10  16  -2 2004.77   90.00
  16   2  10 1925.29   67.72
  17   3   9  181.20   31.62
  -9  17  -3  236.48   47.52
   9 -17   3  217.12   47.86
  -8  18  -4  -19.98   37.34
   8 -18   4   31.50   42.10
  18   4   8   20.90   24.01
   7 -19   5  238.94   46.90
  19   5   7  229.37   31.12
  -7  19  -5  213.28   45.71
  -6  20  -6 2066.16   99.42
  -5  21  -7 1403.05   86.13
  -4  22  -8   47.33   41.60
  -3  23  -9  981.33   78.79
  -2  24 -10  820.34   78.79
  -1  25 -11  -18.86   48.67
   0  26 -12  -24.59   50.94
   1  27 -13  122.77   53.05
   2  28 -14  501.00   66.88
   3  29 -15  462.09   71.49
   4  30 -16  -25.39   48.25
   5  31 -17  362.06   73.53
   6  32 -18  684.08   92.31
   7  33 -19  114.94   65.69
   8  34 -20  148.74   62.04
   9  35 -21   41.64   67.19
  10  36 -22  422.94   93.77
  11  37 -23  150.74   77.25
  12  38 -24  -67.57   85.40
  24  38 -12  -56.51   66.96
  23  37 -11  270.13   70.11
  22  36 -10  528.51   85.47
  21  35  -9  199.99   64.08
  20  34  -8   -2.61   55.05
  19  33  -7   50.98   47.25
  18  32  -6  764.10   78.21
  17  31  -5  376.46   62.35
  16  30  -4  -16.83   39.18
  15  29  -3  463.89   58.43
  14  28  -2  494.43   55.74
  13  27  -1  200.72   42.49
  12  26   0   24.62   30.35
  -1  11 -25   -3.73   44.10
  11  25   1  -15.60   32.08
  -2  10 -24  814.54   69.15
  10  24   2  881.53   57.70
   9  23   3 1021.09   58.85
  -3   9 -23 1064.08   72.76
   8  22   4   -2.80   25.74
  -4   8 -22  -20.78   42.56
  -5   7 -21 1436.74   81.86
   7  21   5 1418.53   59.66
   6  20   6 2153.20   65.92
  -6   6 -20 1989.94   86.47
   5  19   7  257.72   28.27
  -7   5 -19  190.42   40.80
  18  -8  -4   52.21   34.11
  -4 -18  -8   12.41   19.09
   4  18   8   -4.26   20.28
  17  -9  -3  108.48   39.68
  -9   3 -17  189.81   38.30
  -3 -17  -9  181.89   24.93
   3  17   9  191.23   22.09
  -2 -16 -10 1958.71   56.70
 -10   2 -16 1974.39   74.95
  16 -10  -2 1733.87   81.52
 -11   1 -15 1466.89   63.61
  15 -11  -1 1505.42   77.64
  11  -1  15 1568.84   60.81
  -1 -15 -11 1510.22   50.40
  12   0  14  -17.98   27.24
 -12   0 -14  -20.90   27.20
  14 -12   0   -3.69   35.42
   0 -14 -12  -18.98   20.74
 -13  -1 -13 2858.53   76.18
 -13  13  -1 2763.11   95.46
  13 -13   1 2907.66  102.76
  13   1  13 2842.28   77.79
  14   2  12 3396.03   83.05
 -12  14  -2 3194.47  106.14
  12 -14   2 3303.33  111.63
 -14  -2 -12 3361.45   78.17
 -11  15  -3 1099.73   69.41
  15   3  11  999.97   47.63
  11 -15   3 1032.69   71.91
  10 -16   4  -35.46   45.37
 -10  16  -4   22.32   44.83
  16   4  10   -2.34   21.36
   9 -17   5  -33.84   45.91
  -9  17  -5   19.75   35.42
  17   5   9   17.21   22.17
   8 -18   6  219.54   47.52
  18   6   8  223.76   31.88
  -8  18  -6  185.46   42.72
  19   7   7  508.91   36.49
  -7  19  -7  594.08   65.15
  -6  20  -8  -26.39   39.84
  -5  21  -9 1226.11   85.32
  -4  22 -10 1411.58   91.46
  -3  23 -11  231.87   53.40
  -2  24 -12    2.61   49.29
  -1  25 -13  -10.33   49.98
   0  26 -14  525.74   70.53
   1  27 -15  330.71   66.00
   2  28 -16   -4.15   52.28
   3  29 -17  590.70   81.90
   4  30 -18  942.50   96.04
   5  31 -19  366.43   81.98
   6  32 -20   77.64   51.55
   7  33 -21  129.30   74.79
   8  34 -22  209.63   81.63
   9  35 -23  216.35   71.95
  10  36 -24    9.10   66.42
  11  37 -25  243.55   78.83
  23  39 -13  157.61   64.19
  22  38 -12  304.90   73.49
  21  37 -11   49.63   55.51
  20  36 -10   37.57   60.20
  19  35  -9  -27.12   52.24
  18  34  -8  264.48   63.54
  17  33  -7  197.10   55.12
  16  32  -6   81.63   51.24
  15  31  -5  596.84   67.61
  14  30  -4  765.33   71.45
  13  29  -3  106.56   39.37
  12  28  -2   -1.00   37.30
  11  27  -1  -22.05   34.69
  10  26   0  157.00   37.19
   9  25   1  484.18   52.78
   8  24   2   31.23   33.80
   7  23   3  847.34   55.85
  -3   7 -23  956.29   67.99
   6  22   4 1855.72   73.06
  -4   6 -22 1955.41   88.05
  -5   5 -21 1468.20   75.48
   5  21   5 1340.97   59.12
  -6   4 -20   27.12   33.34
   4  20   6  -41.45   25.12
  -4 -20  -6  -13.02   19.48
  19  -7  -3  -44.21   36.19
  -3 -19  -7  -18.90   21.17
   3  19   7    6.38   24.05
  -7   3 -19   -9.37   31.62
   2  18   8  350.88   30.65
  18  -8  -2  315.42   48.25
  -2 -18  -8  340.35   31.96
  -8   2 -18  370.93   42.83
  -9   1 -17  367.13   41.49
  -1 -17  -9  318.53   32.61
  17  -9  -1  336.82   45.29
   0 -16 -10    6.68   20.21
  16 -10   0   49.94   39.53
 -10   0 -16  -22.66   28.08
  11   1  15 1527.55   54.13
 -11  -1 -15 1544.07   61.27
   1 -15 -11 1518.71   54.66
  15 -11   1 1558.93   80.82
  12   2  14 3526.79   79.48
  14 -12   2 3435.36  113.78
 -12  -2 -14 3409.97   80.06
 -14  12  -2 3231.88  102.68
   2 -14 -12 3460.91   78.17
 -13  13  -3 1076.33   69.30
  13   3  13 1161.81   47.67
 -13  -3 -13 1149.01   46.90
  13 -13   3 1148.40   72.99
  12 -14   4   -9.99   30.50
  14   4  12   30.77   21.82
 -12  14  -4  -11.45   43.41
 -11  15  -5  144.71   48.21
  11 -15   5   88.24   36.22
  15   5  11  136.76   24.39
 -10  16  -6  -43.75   45.02
  16   6  10   14.75   19.75
  10 -16   6   39.34   33.92
   9 -17   7  179.13   44.68
  17   7   9  185.89   26.77
  -9  17  -7  150.58   47.60
  -8  18  -8    3.65   46.83
  18   8   8   40.60   21.28
  -7  19  -9  438.31   62.46
  -6  20 -10 1315.96   88.74
  -5  21 -11  349.65   58.77
  -4  22 -12   28.58   51.28
  -3  23 -13    5.88   55.09
  -2  24 -14  -20.21   49.63
  -1  25 -15  170.87   48.09
   0  26 -16  -32.34   51.51
   1  27 -17  302.71   68.65
   2  28 -18  542.07   79.36
   3  29 -19  126.23   52.90
   4  30 -20  -49.40   61.19
   5  31 -21 -116.01   61.23
   6  32 -22   12.68   64.92
   7  33 -23   23.43   60.04
   8  34 -24  109.83   67.76
   9  35 -25  308.74   86.93
  10  36 -26  577.60   99.69
  11  37 -27  231.45   80.02
  21  39 -13  221.54   74.72
  20  38 -12   63.35   64.34
  19  37 -11    2.34   58.01
  18  36 -10   89.47   55.70
  17  35  -9   28.43   52.24
  16  34  -8   24.43   46.37
  15  33  -7  271.55   59.24
  14  32  -6  535.11   65.65
  13  31  -5  212.24   54.63
  12  30  -4   41.45   42.14
  11  29  -3   64.81   43.14
  10  28  -2    4.46   35.92
   9  27  -1  213.24   44.98
   8  26   0  -25.81   32.23
   7  25   1  277.85   40.99
   6  24   2  968.50   60.89
   5  23   3  337.62   39.80
  -4   4 -22   11.18   31.27
   4  22   4   24.35   27.27
   3  21   5  204.98   33.80
  -3 -21  -5  220.84   31.42
  -5   3 -21  276.01   42.10
  -2 -20  -6    1.23   23.32
  20  -6  -2  -13.25   27.74
   2  20   6  -11.02   24.24
  -6   2 -20  -58.66   33.42
   1  19   7   40.60   24.01
  -7   1 -19   26.47   27.27
  19  -7  -1   76.44   34.46
  -1 -19  -7   11.33   26.66
  -8   0 -18   17.40   29.54
   0  18   8   10.03   22.63
   0 -18  -8    0.73   24.78
  18  -8   0   -4.65   34.50
  -9  -1 -17  413.84   40.10
  17  -9   1  309.81   48.48
   1 -17  -9  311.62   33.27
   2 -16 -10 1885.11   65.77
 -10  -2 -16 1906.47   62.77
  16 -10   2 2046.45   91.04
  15 -11   3 1157.58   74.06
   3 -15 -11 1079.33   52.01
 -11  -3 -15 1088.86   45.71
 -15  11  -3 1064.08   65.23
   4 -14 -12    3.23   22.93
  12   4  14    3.23   17.17
 -12  -4 -14    6.15   19.09
 -14  12  -4   41.41   37.65
  14 -12   4  -21.67   40.22
 -13  13  -5  101.64   38.34
  13   5  13   55.36   17.90
  13 -13   5   76.52   41.18
 -13  -5 -13   64.65   18.32
  14   6  12   -7.41   18.09
  12 -14   6  -32.54   39.76
 -12  14  -6   66.76   46.75
 -11  15  -7   36.57   39.57
  15   7  11  -10.72   18.17
  11 -15   7   -3.11   46.87
 -10  16  -8    0.00   43.37
  16   8  10   19.86   18.48
  10 -16   8  -42.79   41.22
  17   9   9  721.54   35.57
  -9  17  -9  794.91   68.30
  -8  18 -10  334.24   59.20
  -7  19 -11  140.67   53.70
  -6  20 -12   23.32   33.88
  -5  21 -13  103.87   52.17
  -4  22 -14   24.78   54.13
  -3  23 -15   12.41   49.75
  -2  24 -16   61.54   51.63
  -1  25 -17  138.41   56.12
   0  26 -18  327.75   67.80
   1  27 -19   54.78   57.43
   2  28 -20   28.81   49.40
   3  29 -21   47.40   60.39
   4  30 -22   14.33   67.38
   5  31 -23   90.77   70.18
   6  32 -24    6.22   54.05
   7  33 -25  108.21   63.96
   8  34 -26  272.51   83.82
   9  35 -27   64.81   75.56
  10  36 -28   97.11   89.85
  20  40 -14  109.52   68.68
  19  39 -13  247.47   76.44
  18  38 -12   51.17   63.08
  17  37 -11  -52.24   57.89
  16  36 -10  -31.69   55.43
  15  35  -9    3.96   47.17
  14  34  -8  149.82   59.43
  13  33  -7  -12.95   46.83
  12  32  -6  117.20   50.21
  11  31  -5  -10.79   43.14
  10  30  -4  -63.84   45.14
   9  29  -3  -63.54   43.29
   8  28  -2   -4.69   36.95
   7  27  -1  249.96   43.68
   6  26   0  303.05   46.79
   5  25   1  227.11   41.18
   4  24   2  -20.44   34.07
   3  23   3   28.31   29.62
  -2 -22  -4  -21.17   27.24
   2  22   4   21.93   29.39
  -1 -21  -5   73.49   28.58
   1  21   5   70.38   31.04
  -5   1 -21   88.31   29.08
  -6   0 -20    6.22   26.74
  20  -6   0   80.06   39.57
   0  20   6    4.30   29.19
   0 -20  -6  -29.77   29.00
  19  -7   1   17.59   38.30
  -7  -1 -19   73.06   30.39
   1 -19  -7   45.83   28.81
  -1  19   7   67.96   26.74
  -8  -2 -18  304.28   35.38
  18  -8   2  384.22   46.33
   2 -18  -8  313.85   37.07
  -9  -3 -17  161.23   28.93
  17  -9   3  185.81   42.68
   3 -17  -9  155.62   33.42
   4 -16 -10   -3.96   26.77
 -16  10  -4  -68.34   41.95
 -10  -4 -16  -11.18   21.90
 -15  11  -5  157.84   45.18
 -11  -5 -15  143.44   21.82
  15 -11   5  185.66   49.25
   5 -15 -11  181.93   34.00
 -14  12  -6    5.88   43.45
 -12  -6 -14   15.83   16.90
  14 -12   6   63.19   43.91
   6 -14 -12   30.23   26.58
  13 -13   7   67.19   42.33
  13   7  13   42.91   13.94
 -13  13  -7   43.29   37.57
  14   8  12   -5.65   13.06
  12 -14   8  -38.34   42.03
 -12  14  -8   -8.41   44.10
  15   9  11  111.02   16.25
  11 -15   9  141.02   36.38
 -10  16 -10  299.82   56.32
  16  10  10  306.01   22.55
  17  11   9    5.95   15.06
  -9  17 -11   -5.88   45.10
  -8  18 -12  -30.35   41.76
  -7  19 -13  -54.97   48.59
  -6  20 -14  -62.50   41.45
  -5  21 -15  -28.93   45.75
  -4  22 -16   60.23   37.72
  -3  23 -17  185.00   61.73
  -2  24 -18  110.40   43.45
  -1  25 -19   61.23   49.40
   0  26 -20   10.18   52.59
   1  27 -21  -63.15   49.40
   2  28 -22  107.45   65.04
   3  29 -23  -28.81   67.23
   4  30 -24  -69.38   67.23
   5  31 -25   54.47   53.63
   6  32 -26  -14.56   69.15
   7  33 -27 -103.91   77.25
   8  34 -28   40.37   73.79
   9  35 -29   48.67   75.06
  18  40 -14  131.76   78.40
  17  39 -13   15.21   57.43
  16  38 -12   41.26   57.93
  15  37 -11  130.34   67.49
  14  36 -10   -3.76   57.62
  13  35  -9   87.12   59.96
  12  34  -8   -2.30   48.29
  11  33  -7   83.59   45.94
  10  32  -6   33.73   43.87
   9  31  -5   66.73   47.48
   8  30  -4   30.00   41.99
   7  29  -3   92.77   45.29
   6  28  -2  116.66   41.91
   5  27  -1    9.37   33.65
   4  26   0   -3.38   34.84
   3  25   1  -10.10   34.07
   2  24   2  700.87   54.39
  -2 -24  -2  688.54   49.98
   1  23   3  449.87   47.29
  -1 -23  -3  633.84   52.01
   0 -22  -4   -3.80   25.89
   0  22   4   30.73   32.42
   1 -21  -5   86.89   31.77
  -1  21   5   37.30   29.46
  21  -5   1   51.44   32.92
  20  -6   2  -35.99   30.39
   2 -20  -6    0.58   29.92
  -6  -2 -20  -13.79   25.05
  -2  20   6   33.61   30.69
  -7  -3 -19  -26.24   25.85
  -3  19   7  -10.10   26.62
   3 -19  -7  -24.85   29.04
  19  -7   3   -2.38   39.61
  18  -8   4   33.88   30.96
   4 -18  -8   34.84   32.31
  -8  -4 -18   17.09   22.05
  17  -9   5   80.32   37.76
  -9  -5 -17   19.21   19.78
   5 -17  -9   14.33   29.46
 -17   9  -5   -7.15   39.11
   6 -16 -10   34.80   30.54
 -10  -6 -16    9.87   18.05
 -16  10  -6   -9.33   41.41
  16 -10   6  -45.06   40.53
   7 -15 -11   -5.57   23.66
 -15  11  -7  -13.33   41.76
  15 -11   7  -63.23   42.37
 -11  -7 -15   15.79   12.87
   8 -14 -12   25.55   24.62
 -14  12  -8   40.87   41.72
 -13  13  -9  333.90   52.44
  13 -13   9  261.45   49.06
 -12  14 -10  232.48   47.98
  14  10  12  178.43   12.87
  12 -14  10  226.49   50.25
 -11  15 -11   55.20   44.14
  15  11  11  -10.79    9.95
 -10  16 -12   -8.26   45.64
  16  12  10   -2.96   11.49
  -9  17 -13   41.76   45.94
  -8  18 -14  116.59   41.37
  -7  19 -15   83.09   50.32
  -6  20 -16  -18.90   48.25
  -5  21 -17  -13.64   53.01
  -4  22 -18  -55.93   52.94
  -3  23 -19  174.52   60.12
  -2  24 -20   30.27   46.52
  -1  25 -21  -18.02   45.21
   0  26 -22  161.57   60.12
   1  27 -23  174.90   70.41
   2  28 -24  -72.76   73.76
   3  29 -25  -48.25   63.81
   4  30 -26   25.89   51.28
   5  31 -27   39.22   76.21
   6  32 -28  150.16   80.63
   7  33 -29  127.00   77.98
   8  34 -30  102.41   81.59
  17  41 -15  112.32   81.21
  16  40 -14   13.02   64.96
  15  39 -13   96.07   66.50
  14  38 -12  -65.04   66.19
  13  37 -11  -85.97   59.20
  12  36 -10  -50.02   51.24
  11  35  -9  310.23   67.99
  10  34  -8  749.96   82.82
   9  33  -7  407.50   66.38
   8  32  -6   83.21   47.44
   7  31  -5  -44.25   44.75
   6  30  -4    6.57   41.68
   5  29  -3  -41.37   41.83
   4  28  -2   18.36   41.87
   3  27  -1  324.22   52.97
   2  26   0  927.94   68.72
   1  25   1  475.11   52.13
  -1 -25  -1  489.44   46.29
   0 -24  -2  -23.70   30.16
   0  24   2   25.66   33.92
  -1  23   3  561.04   50.25
   1 -23  -3  526.70   49.40
   2 -22  -4  -31.58   28.35
  -2  22   4   46.67   35.15
  22  -4   2   16.90   37.38
  -3  21   5  198.76   37.68
   3 -21  -5  311.04   42.45
  21  -5   3  200.95   46.10
  -4  20   6   42.18   31.46
  20  -6   4   63.04   31.04
  19  -7   5  249.81   48.98
   5 -19  -7  261.87   41.68
  -7  -5 -19  235.63   29.39
  -5  19   7  299.02   37.19
  18  -8   6  185.16   43.91
   6 -18  -8  204.02   38.95
  -8  -6 -18  207.09   24.59
 -18   8  -6  175.59   41.30
  -9  -7 -17  119.62   18.25
   7 -17  -9   76.37   30.54
  17  -9   7  193.11   39.11
 -17   9  -7  114.94   40.34
 -16  10  -8   -8.60   42.14
  16 -10   8   18.82   35.46
 -10  -8 -16    2.69   11.45
   8 -16 -10   27.20   32.08
 -15  11  -9  195.38   48.44
  15 -11   9   97.38   46.71
 -14  12 -10  291.07   50.90
  14 -12  10  252.69   51.48
 -13  13 -11   61.46   38.88
 -12  14 -12  -34.34   35.69
 -11  15 -13  366.82   60.35
  16  14  10  568.65   22.17
 -10  16 -14  575.68   67.03
  -9  17 -15  383.07   62.08
  -8  18 -16   -5.38   36.92
  -7  19 -17  157.96   52.32
  -6  20 -18   12.91   46.75
  -5  21 -19   76.68   48.44
  -4  22 -20  -40.83   53.05
  -3  23 -21   97.11   60.54
  -2  24 -22  227.57   64.92
  -1  25 -23  162.30   67.61
   0  26 -24  -43.87   64.23
   1  27 -25  159.30   59.73
   2  28 -26   45.25   70.34
   3  29 -27   40.22   58.01
   4  30 -28   -8.64   65.73
   5  31 -29  152.74   79.10
   6  32 -30  368.62   90.66
   7  33 -31   17.90   75.48
   8  34 -32  -98.92   77.94
  15  41 -15  -57.74   76.48
  14  40 -14   38.84   65.57
  13  39 -13  -39.37   58.89
  12  38 -12  -26.58   65.69
  11  37 -11  174.17   62.27
  10  36 -10  605.80   81.52
   9  35  -9  569.99   81.17
   8  34  -8  108.17   55.78
   7  33  -7   32.42   51.97
   6  32  -6   24.59   46.02
   5  31  -5   49.52   49.86
   4  30  -4   59.77   46.17
   3  29  -3  321.03   56.62
   2  28  -2 1217.05   82.82
   1  27  -1  728.68   64.88
   0  26   0    4.00   35.92
  -1  25   1  491.51   54.89
   1 -25  -1  550.71   54.20
   2 -24  -2  750.27   59.31
  -2  24   2  695.76   58.62
   3 -23  -3   10.41   33.96
  -3  23   3   21.01   34.19
  -4  22   4   33.57   34.00
   4 -22  -4   39.84   33.65
  22  -4   4   -8.30   37.19
  21  -5   5 1315.12   76.71
  -5  21   5 1416.80   71.76
   5 -21  -5 1326.68   71.83
  20  -6   6 1994.17   91.93
  -6  20   6 2037.19   78.83
   6 -20  -6 2131.46   89.35
 -19   7  -7  558.89   48.25
  19  -7   7  523.13   57.89
  -7  -7 -19  539.65   31.73
   7 -19  -7  523.01   51.17
   8 -18  -8   12.72   34.07
  18  -8   8   24.09   39.14
 -18   8  -8   28.20   36.34
  -8  -8 -18   -3.00   14.94
   9 -17  -9  740.86   56.24
  17  -9   9  677.13   62.04
 -17   9  -9  690.88   61.23
  -9  -9 -17  682.47   25.51
  16 -10  10  231.41   42.03
  10 -16 -10  383.95   48.13
 -16  10 -10  302.28   50.02
 -15  11 -11   43.14   40.18
  15 -11  11  -19.21   41.87
  11 -15 -11   38.91   34.34
 -14  12 -12   -6.34   36.19
 -13  13 -13  166.18   42.91
 -12  14 -14 1371.82   87.74
 -11  15 -15  684.05   68.68
 -10  16 -16  -11.02   48.75
  -9  17 -17  464.05   66.57
  -8  18 -18  226.07   60.31
  -7  19 -19   12.91   53.43
  -6  20 -20   93.73   56.66
  -5  21 -21  129.07   51.63
  -4  22 -22  374.85   70.14
  -3  23 -23  359.44   72.64
  -2  24 -24  -26.04   56.97
  -1  25 -25  103.37   59.93
   0  26 -26   19.48   61.69
   1  27 -27   70.45   72.30
   2  28 -28   27.77   70.84
   3  29 -29  163.95   60.08
   4  30 -30  746.47  107.37
   5  31 -31  367.66   93.85
   6  32 -32 -136.87   83.97
   7  33 -33    7.53   79.59
   6  32 -34  243.01   85.20
   5  31 -33  460.40  104.41
   4  30 -32  192.84   88.05
   3  29 -31  365.94   79.79
   2  28 -30  545.29   97.15
   1  27 -29  240.90   81.36
   0  26 -28   53.90   53.51
  -1  25 -27   18.29   67.69
  -2  24 -26  345.35   70.87
  -3  23 -25  419.18   77.56
  -4  22 -24  -14.33   54.70
  -5  21 -23  345.04   68.84
  -6  20 -22  776.12   84.86
  -7  19 -21  110.67   55.59
  -8  18 -20   -6.49   43.95
  -9  17 -19  323.03   63.11
  17  19   9  255.84   20.86
  16  18  10  920.49   27.77
 -10  16 -18  995.05   86.59
 -11  15 -17  838.62   74.29
 -12  14 -16  -49.52   44.52
 -13  13 -15 1674.10   94.81
 -14  12 -14 1489.63   86.43
  13 -15 -11  282.23   40.60
 -15  11 -13  277.43   47.94
  12 -16 -10  -12.14   33.80
  16 -10  12   -3.50   39.26
 -16  10 -12    8.80   42.76
  11 -17  -9    0.50   30.16
  17  -9  11   59.96   37.38
 -17   9 -11  -12.10   36.99
 -18   8 -10  387.72   50.82
  10 -18  -8  391.98   46.94
  18  -8  10  420.56   55.59
  -8 -10 -18  335.82   19.28
   9 -19  -7  238.94   43.79
 -19   7  -9  377.54   47.33
  19  -7   9  369.47   48.90
  -7  -9 -19  347.00   23.59
  -8  20   6   18.67   26.93
   8 -20  -6   10.18   34.92
  20  -6   8   64.42   40.18
  21  -5   7 1380.34   77.52
   7 -21  -5 1520.67   79.90
  -7  21   5 1405.43   71.41
  22  -4   6 1870.97   89.16
   6 -22  -4 1935.16   89.89
  -6  22   4 1833.60   84.13
   5 -23  -3  368.43   46.37
  -5  23   3  376.12   52.28
  23  -3   5  359.41   50.32
  -4  24   2   35.65   36.34
   4 -24  -2   14.17   30.96
  -3  25   1   90.04   38.99
  -2  26   0  982.06   72.56
  -1  27  -1  912.46   73.60
   0  28  -2   87.93   46.40
   1  29  -3  673.71   67.11
   2  30  -4  857.33   78.67
   3  31  -5  304.82   61.46
   4  32  -6   17.29   44.75
   5  33  -7  159.07   62.85
   6  34  -8  293.87   63.58
   7  35  -9  310.85   67.34
   8  36 -10   21.36   57.12
   9  37 -11  313.73   73.22
  10  38 -12  570.53   87.09
  11  39 -13  -44.14   59.27
  12  40 -14  -75.83   68.68
  13  41 -15    8.87   70.84
  14  42 -16  281.73   79.48
   7  31 -35   -0.92   66.46
   6  30 -34   16.86   65.53
   5  29 -33   68.15   61.08
   4  28 -32  286.03   76.68
   3  27 -31  120.54   65.57
   2  26 -30   32.34   66.23
   1  25 -29  -49.79   66.73
   0  24 -28   25.47   58.01
  -1  23 -27   46.37   59.62
  -2  22 -26  -76.02   64.88
  -3  21 -25  192.34   69.45
  -4  20 -24  315.38   66.88
  -5  19 -23  283.08   66.15
  -6  18 -22   25.20   47.56
  18  22   6   33.54   21.86
  17  21   7   36.34   19.48
  -7  17 -21  114.90   47.67
  -8  16 -20    8.72   42.29
  16  20   8   33.31   16.71
  15  19   9   50.51   13.21
  -9  15 -19   17.52   45.33
 -10  14 -18    6.68   45.83
  14  18  10   15.29    7.57
 -11  13 -17  327.87   57.35
 -12  12 -16  842.81   70.95
 -13  11 -15  330.82   54.93
 -14  10 -14   26.24   43.22
  14 -10  14   79.48   42.41
  15  -9  13   21.09   35.80
 -15   9 -13  -31.65   35.69
  13 -15  -9   26.77   36.92
  16  -8  12  -62.58   40.26
 -16   8 -12   45.41   38.45
  12 -16  -8   38.26   28.58
  17  -7  11    2.57   34.53
 -17   7 -11   56.20   37.57
  -7 -11 -17   27.58    8.95
  11 -17  -7   -8.30   30.92
  10 -18  -6  -21.20   33.46
 -18   6 -10  -37.95   34.50
  18  -6  10  -17.52   31.54
   9 -19  -5  279.50   45.25
  -9  19   5  268.29   38.03
  19  -5   9  296.25   44.68
 -19   5  -9  235.83   41.41
  20  -4   8  845.23   61.27
   8 -20  -4  825.03   63.08
  -8  20   4  766.91   58.24
  -7  21   3  276.81   43.64
   7 -21  -3  281.31   44.14
  21  -3   7  359.67   48.79
  22  -2   6  120.47   41.26
   6 -22  -2  149.97   42.37
  -6  22   2   43.22   40.37
  23  -1   5   58.77   36.95
  -5  23   1   80.32   39.87
   5 -23  -1   91.04   40.91
  -4  24   0   49.55   41.95
  24   0   4  -31.42   34.88
  -3  25  -1    3.19   35.84
  -2  26  -2   33.54   44.41
  -1  27  -3  329.52   56.39
   0  28  -4  405.89   59.47
   1  29  -5  174.17   50.17
   2  30  -6  -45.71   45.48
   3  31  -7   32.69   46.71
   4  32  -8  -61.31   57.47
   5  33  -9   -5.72   53.32
   6  34 -10  -27.93   54.51
   7  35 -11  144.90   63.81
   8  36 -12  322.80   71.03
   9  37 -13   97.69   61.69
  10  38 -14  -60.93   58.85
  11  39 -15   15.67   65.04
  12  40 -16   14.41   69.99
  13  41 -17  -24.66   68.22
   7  29 -35  -55.66   67.30
   6  28 -34   -7.22   55.51
   5  27 -33   18.32   51.51
   4  26 -32  -75.22   57.12
   3  25 -31   22.63   66.15
   2  24 -30  119.35   72.26
   1  23 -29  -77.48   57.12
   0  22 -28 -144.13   69.30
  -1  21 -27   19.94   48.33
  -2  20 -26   24.70   49.06
  19  25   3    7.30   27.47
  -3  19 -25  113.44   58.51
  18  24   4   19.17   24.01
  -4  18 -24   -7.53   45.91
  -5  17 -23   50.09   52.32
  17  23   5  108.71   26.43
  -6  16 -22  220.23   57.74
  16  22   6  159.65   27.01
  15  21   7   39.30   17.90
  -7  15 -21  126.00   58.31
  14  20   8   -2.73   15.83
  -8  14 -20   74.64   51.94
  -9  13 -19   64.46   39.95
  13  19   9   89.16   14.29
 -10  12 -18   51.09   41.10
  12  18  10   -4.96    6.18
 -11  11 -17  -48.17   39.72
 -12  10 -16   -0.65   41.76
  12 -10  16  -15.44   34.88
 -13   9 -15    3.76   40.49
  13  -9  15   -3.69   34.84
 -14   8 -14  -10.10   37.19
  14  -8  14   -2.57   34.19
  14 -14  -8   18.02   36.42
  15  -7  13   62.31   38.30
 -15   7 -13  -16.56   34.84
  13 -15  -7   45.94   37.07
  12 -16  -6  -10.45   28.43
  16  -6  12   77.60   38.68
 -16   6 -12   83.40   40.03
  11 -17  -5  113.67   33.31
  17  -5  11  142.56   37.26
 -17   5 -11   37.07   32.42
  10 -18  -4   48.56   36.30
 -18   4 -10   12.41   30.50
  18  -4  10   -2.80   27.66
 -10  18   4  -22.28   34.61
   9 -19  -3   53.90   41.83
  19  -3   9  -14.71   32.69
  -9  19   3   -6.84   33.50
  20  -2   8   26.77   35.34
  -8  20   2   31.38   40.10
   8 -20  -2   49.44   37.88
  -7  21   1   49.17   36.99
   7 -21  -1   13.52   33.73
  21  -1   7   15.06   32.65
  -6  22   0  212.74   44.10
   6 -22   0  317.11   47.79
  22   0   6  322.64   44.52
  -5  23  -1   30.08   37.38
  23   1   5   27.70   30.23
  -4  24  -2   61.85   44.06
  24   2   4   10.60   29.19
  -3  25  -3   44.25   36.84
  -2  26  -4  113.86   49.63
  -1  27  -5   49.36   44.18
   0  28  -6   13.94   47.17
   1  29  -7  -58.77   48.75
   2  30  -8   90.35   54.20
   3  31  -9   53.20   45.02
   4  32 -10  -21.36   55.51
   5  33 -11   16.52   57.43
   6  34 -12   56.70   64.08
   7  35 -13  138.14   67.07
   8  36 -14   55.82   52.09
   9  37 -15   63.15   70.91
  10  38 -16  104.60   59.39
  11  39 -17  127.65   70.41
  12  40 -18   65.34   80.17
  13  41 -19    0.04   73.49
  28  36  -8  223.61   61.12
   8  28 -36  151.70   89.12
   7  27 -35  -34.42   72.60
  27  35  -7  100.84   57.47
   6  26 -34   97.80   64.54
  26  34  -6    9.95   44.33
   5  25 -33  144.78   71.07
  25  33  -5   40.26   41.72
  24  32  -4  -46.94   47.10
   4  24 -32  -19.13   67.42
  23  31  -3  -58.08   42.49
   3  23 -31  -11.75   67.38
   2  22 -30  -47.29   61.46
  22  30  -2   34.80   37.57
   1  21 -29  222.84   59.39
  21  29  -1  125.00   40.18
  20  28   0  213.74   45.10
   0  20 -28  254.61   72.14
  19  27   1  219.88   39.26
  -1  19 -27  105.22   53.36
  -2  18 -26   46.14   51.01
  18  26   2   23.20   28.73
  17  25   3  -17.06   30.65
  -3  17 -25   52.59   38.95
  16  24   4  -19.32   25.35
  -4  16 -24  -28.27   50.59
  15  23   5   74.10   25.55
  -5  15 -23   70.34   48.40
  -6  14 -22   28.31   45.25
  14  22   6   19.67   22.59
  13  21   7  182.85   25.97
  -7  13 -21  201.33   51.28
  -8  12 -20  718.00   70.26
  12  20   8  706.90   34.30
  11  19   9  313.65   20.59
  -9  11 -19  235.60   47.21
 -10  10 -18   58.12   44.25
  10  18  10   58.20    9.64
 -11   9 -17   17.09   41.37
  11  -9  17   22.05   28.93
  12  -8  16   31.77   28.73
 -12   8 -16   20.21   39.14
  15 -13  -7   59.70   32.96
 -13   7 -15   22.93   35.46
  13  -7  15   27.35   32.19
 -14   6 -14    8.80   37.03
  14  -6  14   55.01   35.73
  14 -14  -6  -30.96   40.34
  15  -5  13  757.07   57.81
  -5 -13 -15  641.60   23.13
 -15   5 -13  514.56   50.28
  13 -15  -5  648.17   56.81
  16  -4  12 2074.26   83.74
  12 -16  -4 2096.70   90.66
 -16   4 -12 2043.99   81.90
  11 -17  -3  767.06   65.00
 -11  17   3  719.54   57.62
  17  -3  11  752.00   56.32
 -17   3 -11  721.81   52.51
 -18   2 -10   53.24   29.89
  10 -18  -2   12.02   39.61
 -10  18   2   51.63   37.38
  18  -2  10   33.77   30.65
  -9  19   1  243.70   43.41
   9 -19  -1  293.14   53.17
  19  -1   9  273.24   40.68
  -8  20   0  135.18   44.79
  20   0   8  146.47   33.80
   8 -20   0   33.31   40.41
   7 -21   1  -58.04   44.75
  21   1   7   43.98   30.08
  -7  21  -1   23.86   39.64
  22   2   6   55.93   32.81
  -6  22  -2   89.12   43.72
  23   3   5  403.89   43.56
  -5  23  -3  374.23   53.43
  -4  24  -4  885.03   73.79
  -3  25  -5  526.20   63.73
  -2  26  -6  -25.20   40.07
  -1  27  -7  293.45   57.85
   0  28  -8   48.29   44.45
   1  29  -9   15.14   46.71
   2  30 -10  -88.51   59.62
   3  31 -11   85.32   55.70
   4  32 -12  270.13   65.57
   5  33 -13  328.56   67.49
   6  34 -14  -38.61   50.55
   7  35 -15   31.31   65.92
   8  36 -16  126.73   69.72
   9  37 -17  -46.87   70.57
  10  38 -18   44.64   62.73
  11  39 -19  -95.92   73.37
  12  40 -20  127.65   83.28
   9  27 -37  307.55   96.07
  27  37  -9  369.47   74.02
   8  26 -36  -40.68   82.25
  26  36  -8  194.38   65.84
   7  25 -35  138.02   85.82
  25  35  -7  235.83   59.77
   6  24 -34  174.52   66.84
  24  34  -6  142.63   52.59
  23  33  -5    4.46   42.60
   5  23 -33  -89.66   65.73
   4  22 -32   19.51   62.27
  22  32  -4   42.64   41.79
  21  31  -3  190.38   51.55
   3  21 -31  379.42   80.71
  20  30  -2  814.46   67.65
   2  20 -30  842.50   95.81
  19  29  -1  377.50   53.17
   1  19 -29  457.71   78.40
   0  18 -28    3.76   57.39
  18  28   0   -8.26   36.03
  -1  17 -27  281.69   68.65
  17  27   1  321.26   45.02
  -2  16 -26  429.97   69.72
  16  26   2  374.04   42.95
  -3  15 -25   64.04   47.40
  15  25   3  105.49   29.46
  -4  14 -24  -22.63   45.87
  14  24   4    3.50   24.78
  13  23   5  367.93   37.30
  -5  13 -23  354.56   51.13
  12  22   6 1389.06   57.12
  -6  12 -22 1587.63   94.73
  11  21   7 1115.94   47.44
  -7  11 -21 1086.55   79.75
  -8  10 -20  -38.76   43.45
  10  20   8   17.90   17.71
   9  19   9  822.22   31.92
  -9   9 -19  759.22   65.38
 -10   8 -18  338.93   50.28
   8  18  10  390.60   20.09
  11  -7  17   -2.69   29.77
 -11   7 -17    8.37   39.76
 -12   6 -16   -7.41   32.34
  12  -6  16   19.48   33.77
  -6 -16 -12   13.48    8.41
  16 -12  -6  -41.10   40.07
  -5 -15 -13  689.31   24.82
 -13   5 -15  628.38   54.51
  13  -5  15  701.06   54.82
  15 -13  -5  717.89   56.97
  14 -14  -4 2705.87  104.26
  14  -4  14 2680.06   92.04
  -4 -14 -14 2718.78   50.55
 -14   4 -14 2731.84   93.08
 -15   3 -13 2055.79   80.17
  -3 -13 -15 2236.26   46.71
  13 -15  -3 2215.05   95.19
  15  -3  13 2139.14   84.36
 -12  16   2   27.04   31.15
  16  -2  12   -2.34   29.85
 -16   2 -12   40.45   31.04
  12 -16  -2   38.95   40.18
  11 -17  -1 1391.98   81.28
  17  -1  11 1479.19   69.07
 -11  17   1 1476.19   78.29
 -17   1 -11 1487.56   63.19
  10 -18   0  876.16   68.92
  18   0  10  936.31   55.85
 -10  18   0  978.22   70.91
   9 -19   1  270.17   50.05
  -9  19  -1  279.58   50.25
  19   1   9  269.48   36.42
   8 -20   2   45.56   42.52
  -8  20  -2   45.25   37.07
  20   2   8  -11.02   28.16
  -7  21  -3  226.99   50.51
  21   3   7  275.39   37.76
  22   4   6 2023.75   76.52
  -6  22  -4 1821.23   96.30
  -5  23  -5 1131.53   80.21
  -4  24  -6  -27.54   45.87
  -3  25  -7  872.70   76.79
  -2  26  -8 1629.65  100.80
  -1  27  -9  193.53   60.04
   0  28 -10  -26.62   49.40
   1  29 -11  184.85   53.66
   2  30 -12  288.84   69.11
   3  31 -13  696.30   86.78
   4  32 -14  -69.49   62.88
   5  33 -15  683.51   87.28
   6  34 -16  518.79   80.29
   7  35 -17  180.01   71.68
   8  36 -18   21.97   54.66
   9  37 -19  -16.33   73.29
  10  38 -20  302.97   85.63
  11  39 -21  432.85  100.11
  12  40 -22   -4.76   72.95
  26  38 -10   58.24   62.38
  10  26 -38   -5.88   65.84
  25  37  -9  455.83   78.83
   9  25 -37  451.45   88.58
   8  24 -36 1072.99  121.27
  24  36  -8  919.26   89.70
   7  23 -35  393.21   87.66
  23  35  -7  235.79   61.46
   6  22 -34  -31.46   66.76
  22  34  -6  -60.46   48.40
  21  33  -5   54.86   47.94
   5  21 -33  -64.27   63.84
  20  32  -4  580.63   69.88
   4  20 -32  520.28   86.97
  19  31  -3  664.95   69.84
   3  19 -31  720.96   90.77
   2  18 -30  -17.82   50.13
  18  30  -2  -20.82   38.49
  17  29  -1  872.05   68.49
   1  17 -29  888.76   87.78
  16  28   0 1328.45   76.14
   0  16 -28 1244.17   96.54
  -1  15 -27  386.06   68.65
  15  27   1  331.44   44.29
  14  26   2   -6.11   31.38
  -2  14 -26   77.10   51.97
  13  25   3   32.11   27.70
  -3  13 -25  -11.14   48.82
  12  24   4  631.19   46.37
  -4  12 -24  551.55   68.38
  -5  11 -23  890.06   74.10
  11  23   5 1002.54   54.13
  10  22   6  -24.05   23.01
  -6  10 -22  -14.94   37.57
   9  21   7 1978.03   61.31
  -7   9 -21 2000.31   95.50
  -8   8 -20 2416.23  101.72
   8  20   8 2609.30   63.84
  -9   7 -19  261.41   48.25
   7  19   9  357.45   26.24
 -10   6 -18    4.11   33.38
  -5 -17 -11   99.15   15.98
 -11   5 -17   98.88   40.76
  11  -5  17  135.37   33.04
  16 -12  -4 2325.92   98.38
 -12   4 -16 2043.80   83.21
  -4 -16 -12 2211.25   50.59
  12  -4  16 2059.01   79.67
  -3 -15 -13 2212.17   52.17
  13  -3  15 2188.28   79.02
 -13   3 -15 2172.95   81.28
  15 -13  -3 2184.82   93.19
  -2 -14 -14   31.58   17.13
  14 -14  -2   45.14   33.00
 -14   2 -14   13.75   29.54
  14  -2  14   29.81   28.85
 -15   1 -13 2929.41   87.58
 -13  15   1 2819.85   96.00
  15  -1  13 2952.38   90.20
  13 -15  -1 3018.91  108.90
 -12  16   0 4784.51  129.26
  16   0  12 4834.88  112.44
  12 -16   0 4806.45  137.98
 -16   0 -12 4818.24  102.41
  11 -17   1 1404.62   80.82
  17   1  11 1468.93   64.38
 -11  17  -1 1380.42   78.48
  18   2  10   53.70   27.81
  10 -18   2  102.18   47.17
 -10  18  -2  -20.09   42.49
   9 -19   3   32.69   42.10
  -9  19  -3    4.80   36.46
  19   3   9    0.04   26.16
  -8  20  -4  737.25   65.65
  20   4   8  790.53   49.67
  21   5   7 1445.84   64.11
  -7  21  -5 1386.45   86.55
  22   6   6   -2.15   23.13
  -6  22  -6   37.99   45.33
  -5  23  -7 1792.45   97.65
  -4  24  -8 2947.00  126.23
  -3  25  -9 1026.78   85.51
  -2  26 -10   51.44   45.10
  -1  27 -11  -18.40   50.02
   0  28 -12  501.65   75.52
   1  29 -13  239.59   63.69
   2  30 -14  -26.85   48.40
   3  31 -15  876.73   93.04
   4  32 -16 1917.30  127.65
   5  33 -17  775.74   95.65
   6  34 -18   16.40   51.05
   7  35 -19   21.63   73.18
   8  36 -20  244.58   74.56
   9  37 -21  298.67   75.98
  10  38 -22  -46.64   78.29
  11  39 -23  654.35  107.18
  10  24 -38 1252.54  124.00
  24  38 -10 1320.11  114.21
   9  23 -37  565.84   87.70
  23  37  -9  713.16   89.08
  22  36  -8   15.40   50.44
   8  22 -36   12.95   63.69
  21  35  -7  175.44   58.66
   7  21 -35  179.89   74.52
   6  20 -34 -102.34   70.53
  20  34  -6   36.19   47.90
  19  33  -5  401.20   65.34
   5  19 -33  334.90   76.68
  18  32  -4   37.95   47.52
   4  18 -32  109.48   70.03
   3  17 -31 1076.49   95.11
  17  31  -3 1053.28   80.36
  16  30  -2 2154.40  101.03
   2  16 -30 1979.07  115.74
   1  15 -29  955.52   86.20
  15  29  -1  988.71   69.41
   0  14 -28   73.83   52.24
  14  28   0   30.77   35.00
  13  27   1  194.45   40.18
  -1  13 -27  207.90   52.28
  12  26   2  -13.91   31.38
  -2  12 -26   31.19   45.48
  11  25   3  286.07   38.64
  -3  11 -25  385.91   60.12
  -4  10 -24   48.25   41.10
  10  24   4   21.78   31.08
   9  23   5 1901.01   71.34
  -5   9 -23 1986.56   97.76
  -6   8 -22 5490.03  147.05
   8  22   6 5405.75  107.52
   7  21   7 2181.36   65.88
  -7   7 -21 2095.24   93.19
  -8   6 -20   13.10   33.69
   6  20   8    9.60   19.28
  -9   5 -19  321.45   47.67
   5  19   9  267.67   25.78
  -5 -19  -9  274.97   24.32
 -10   4 -18  -26.93   37.53
  -4 -18 -10   -9.14   17.48
  17 -11  -3  674.29   62.19
 -11   3 -17  732.22   55.20
  -3 -17 -11  726.19   36.07
 -12   2 -16  -19.36   31.46
  12  -2  16   -4.76   26.01
  -2 -16 -12    4.15   19.02
  16 -12  -2   45.79   35.07
  13  -1  15 2895.14   84.67
  15 -13  -1 2993.83  110.90
  -1 -15 -13 3095.86   69.34
 -13   1 -15 2961.83   88.28
 -14   0 -14 8154.80  134.60
 -14  14   0 8145.66  159.77
  14   0  14 8078.82  137.95
   0 -14 -14 8288.41  111.86
  14 -14   0 8196.71  175.09
  15   1  13 2965.32   84.17
 -13  15  -1 3035.54  105.83
  13 -15   1 2867.21  108.56
 -15  -1 -13 2906.78   81.13
  16   2  12    1.57   25.43
 -16  -2 -12    8.18   21.47
  12 -16   2   22.43   34.61
  11 -17   3  558.81   55.43
 -11  17  -3  696.41   63.54
  17   3  11  781.23   45.37
  18   4  10  -29.16   26.62
  10 -18   4   50.17   39.57
 -10  18  -4  -55.09   39.45
  19   5   9  331.36   36.46
  -9  19  -5  176.13   42.37
  20   6   8   14.44   22.55
  -8  20  -6   37.45   49.09
  21   7   7 2184.97   70.38
  -7  21  -7 2128.93  103.80
  -6  22  -8 5161.71  157.38
  -5  23  -9 1910.62  106.68
  -4  24 -10  -67.23   49.94
  -3  25 -11  294.83   53.66
  -2  26 -12  -31.15   46.71
  -1  27 -13  319.84   69.88
   0  28 -14  -70.26   51.67
   1  29 -15  819.42   85.43
   2  30 -16 2231.72  131.42
   3  31 -17  997.24   95.77
   4  32 -18   62.15   63.69
   5  33 -19  233.83   77.37
   6  34 -20  -42.83   63.08
   7  35 -21  131.99   62.69
   8  36 -22 -140.17   85.20
   9  37 -23  552.74   98.92
  10  38 -24 1251.96  134.72
  23  39 -11  496.47   89.16
  22  38 -10  -54.24   57.74
  21  37  -9  331.52   68.57
  20  36  -8  217.92   66.76
  19  35  -7  -34.11   45.83
  18  34  -6  -73.60   56.51
  17  33  -5  684.81   74.22
  16  32  -4 1651.01   97.42
  15  31  -3  852.03   73.49
  14  30  -2  -16.25   37.68
  13  29  -1  359.44   53.51
  12  28   0  469.58   56.43
  11  27   1  -23.05   31.58
  -1  11 -27   -4.30   45.14
  10  26   2   15.75   31.73
  -2  10 -26  -87.89   46.17
   9  25   3 1152.16   64.61
  -3   9 -25 1220.00   79.13
   8  24   4 2852.23   92.04
  -4   8 -24 2899.79  112.71
  -5   7 -23 1970.27   95.61
   7  23   5 1837.71   72.14
   6  22   6   20.55   24.66
  -6   6 -22   26.74   32.65
   5  21   7 1561.39   58.54
  -7   5 -21 1378.85   72.60
   4  20   8  829.02   42.91
  -4 -20  -8  822.61   41.30
  -8   4 -20  767.06   60.89
  -9   3 -19  -59.62   37.92
   3  19   9  -19.02   21.36
  -3 -19  -9   13.18   20.86
 -10   2 -18   -5.11   31.04
  -2 -18 -10   54.86   21.74
  18 -10  -2   18.25   39.87
  17 -11  -1 1538.65   82.59
  -1 -17 -11 1459.90   53.17
 -11   1 -17 1372.35   65.04
   0 -16 -12 4823.81   93.27
  16 -12   0 4954.23  137.75
 -12   0 -16 4866.99  108.75
  12   0  16 4800.46   99.45
  13   1  15 2975.70   79.48
  15 -13   1 2920.69  106.22
   1 -15 -13 2899.71   73.33
 -15  13  -1 2965.28  100.49
 -13  -1 -15 3022.21   83.13
  14 -14   2  -43.33   41.49
 -14  14  -2   27.89   38.45
   2 -14 -14   40.72   20.17
 -14  -2 -14   57.05   26.12
  14   2  14   14.29   23.89
 -15  -3 -13 2273.71   64.11
 -13  15  -3 2090.32   91.85
  13 -15   3 2266.33  100.57
  15   3  13 2271.14   68.92
  16   4  12 2091.43   66.03
  12 -16   4 2005.50   98.11
 -12  16  -4 2346.47  102.11
  17   5  11  101.80   25.66
 -11  17  -5   44.41   43.18
 -10  18  -6   52.13   47.10
  18   6  10   44.41   22.36
  19   7   9  347.34   34.69
  -9  19  -7  279.89   55.32
  -8  20  -8 2546.03  112.94
  20   8   8 2610.07   73.60
  -7  21  -9 1824.38  100.76
  -6  22 -10   68.19   48.63
  -5  23 -11  897.25   81.48
  -4  24 -12  532.31   68.95
  -3  25 -13  -84.32   56.70
  -2  26 -14   92.16   59.89
  -1  27 -15  257.76   59.24
   0  28 -16 1184.82   99.61
   1  29 -17  835.97   94.38
   2  30 -18   -4.11   60.46
   3  31 -19  612.90   83.21
   4  32 -20  520.75   88.58
   5  33 -21  106.79   60.77
   6  34 -22 -193.53   83.55
   7  35 -23  322.80   85.97
   8  36 -24  963.47  111.13
   9  37 -25  634.64   99.49
  10  38 -26  -78.83   68.22
  22  40 -12   14.48   59.39
  21  39 -11  135.03   64.54
  20  38 -10  287.76   73.03
  19  37  -9   86.28   57.51
  18  36  -8  -62.88   53.32
  17  35  -7  148.16   57.31
  16  34  -6  524.86   67.03
  15  33  -5  720.31   71.64
  14  32  -4   13.68   42.87
  13  31  -3  578.29   66.30
  12  30  -2  313.04   54.36
  11  29  -1  257.07   48.52
  10  28   0   21.40   35.69
   9  27   1  205.63   39.45
   8  26   2 1486.79   76.75
   7  25   3  873.93   58.74
  -3   7 -25  992.55   69.84
   6  24   4   23.74   28.62
  -4   6 -24  -61.00   38.61
   5  23   5 1140.87   59.20
  -5   5 -23 1108.06   69.95
  -6   4 -22 2066.00   89.43
   4  22   6 2001.89   71.34
  -3 -21  -7  303.36   32.84
   3  21   7  268.02   32.31
  -7   3 -21  302.67   44.45
  -2 -20  -8    1.69   22.63
  -8   2 -20  -29.16   32.77
   2  20   8  -14.67   22.70
  -9   1 -19  240.17   37.26
   1  19   9  260.53   26.31
  -1 -19  -9  212.39   31.88
  18 -10   0  977.99   70.95
   0 -18 -10  971.50   49.29
 -10   0 -18  916.41   54.86
   1 -17 -11 1427.25   57.43
 -11  -1 -17 1449.41   60.43
  17 -11   1 1518.56   82.55
 -16  12  -2    7.91   33.84
  16 -12   2   -2.15   35.46
 -12  -2 -16    4.34   23.70
   2 -16 -12   29.16   24.74
  13   3  15 2233.22   64.19
 -13  -3 -15 2005.35   61.73
 -15  13  -3 2108.80   89.20
  15 -13   3 2215.09   99.72
   3 -15 -13 2206.72   69.41
 -14  -4 -14 2742.17   66.46
  14 -14   4 2944.50  112.36
  14   4  14 2731.30   68.11
 -14  14  -4 2584.60  101.84
  15   5  13  737.29   39.95
  13 -15   5  624.85   58.16
 -13  15  -5  714.28   61.23
 -12  16  -6   95.27   49.09
  16   6  12   44.06   20.13
 -11  17  -7    8.30   43.75
  17   7  11   34.96   20.32
  18   8  10  398.51   31.23
 -10  18  -8  399.74   53.17
  19   9   9  721.50   39.87
  -9  19  -9  733.91   71.83
  -8  20 -10   22.55   53.63
  20  10   8    9.99   18.09
  -7  21 -11 1181.28   88.24
  -6  22 -12 1540.80   99.95
  -5  23 -13  351.49   60.12
  -4  24 -14  -14.52   51.86
  -3  25 -15   50.78   57.24
  -2  26 -16  335.97   61.89
  -1  27 -17  253.38   68.80
   0  28 -18   17.36   62.38
   1  29 -19  343.54   73.26
   2  30 -20  814.46   94.73
   3  31 -21  122.89   74.22
   4  32 -22   39.53   59.50
   5  33 -23 -122.73   74.64
   6  34 -24  151.81   65.38
   7  35 -25  197.80   69.65
   8  36 -26   67.92   71.30
   9  37 -27  263.02   94.42
  20  40 -12  218.12   71.64
  19  39 -11   36.26   60.93
  18  38 -10   68.80   60.66
  17  37  -9   13.91   56.47
  16  36  -8   43.41   53.36
  15  35  -7   46.52   50.40
  14  34  -6  -16.83   50.32
  13  33  -5  223.07   54.74
  12  32  -4  376.54   61.00
  11  31  -3   46.44   41.33
  10  30  -2   79.71   41.76
   9  29  -1  -29.62   40.34
   8  28   0  131.03   42.06
   7  27   1  229.07   41.30
   6  26   2   54.20   32.92
   5  25   3  466.39   46.94
  -4   4 -24  939.39   64.04
   4  24   4  938.23   59.62
  -3 -23  -5  421.41   36.72
  -5   3 -23  363.90   44.45
   3  23   5  299.06   37.22
  -2 -22  -6  109.33   29.04
  -6   2 -22   89.01   32.42
   2  22   6   71.22   26.89
  -1 -21  -7  -26.04   25.01
   1  21   7   -9.10   24.32
  -7   1 -21  -23.93   35.07
  -8   0 -20   81.75   32.42
   0  20   8  119.05   29.31
   0 -20  -8  100.07   29.92
   1 -19  -9  186.85   31.23
  19  -9   1  237.32   41.95
  -9  -1 -19  204.67   35.46
   2 -18 -10   20.13   25.51
 -10  -2 -18   81.25   28.12
  18 -10   2  105.02   45.21
   3 -17 -11  724.19   47.63
 -11  -3 -17  711.78   42.03
 -17  11  -3  712.78   56.70
  17 -11   3  708.78   60.62
   4 -16 -12 2144.83   73.95
 -16  12  -4 2235.95   92.73
  16 -12   4 2215.01  100.42
 -12  -4 -16 2001.39   58.93
   5 -15 -13  713.36   46.25
 -13  -5 -15  690.27   35.15
  15 -13   5  791.26   66.73
  13   5  15  724.61   33.04
 -15  13  -5  674.86   57.74
  14 -14   6   22.01   35.30
  14   6  14    2.50   15.79
  15   7  13   27.89   16.29
 -13  15  -7   44.02   46.37
 -12  16  -8  -23.20   40.57
  16   8  12   28.54   16.75
 -11  17  -9  -26.28   50.55
  17   9  11   -6.11   16.83
  18  10  10   67.72   18.71
 -10  18 -10  135.56   43.68
  -9  19 -11  241.28   49.94
  19  11   9  335.24   27.50
  -8  20 -12  591.27   68.45
  -7  21 -13  125.96   53.74
  -6  22 -14   39.91   51.09
  -5  23 -15  100.42   52.97
  -4  24 -16   75.48   54.43
  -3  25 -17    3.15   54.86
  -2  26 -18  -42.10   56.28
  -1  27 -19  201.64   64.11
   0  28 -20  296.52   72.03
   1  29 -21  285.92   67.65
   2  30 -22  -68.07   69.49
   3  31 -23   81.09   69.91
   4  32 -24 -120.54   74.41
   5  33 -25   -4.00   53.17
   6  34 -26  126.38   79.79
   7  35 -27  294.06   93.35
   8  36 -28  313.85   99.92
  19  41 -13  126.50   68.80
  18  40 -12  137.29   69.07
  17  39 -11   28.00   59.93
  16  38 -10 -107.33   69.49
  15  37  -9   68.57   51.13
  14  36  -8   56.43   56.58
  13  35  -7  -45.83   52.47
  12  34  -6   28.81   46.60
  11  33  -5  -40.14   47.60
  10  32  -4   13.83   45.83
   9  31  -3  -24.55   42.18
   8  30  -2    1.88   42.76
   7  29  -1   52.51   44.52
   6  28   0   32.11   36.53
   5  27   1   38.84   38.57
   4  26   2   62.65   37.68
   3  25   3    2.50   29.85
   2  24   4  -18.55   33.15
  -2 -24  -4    1.19   25.58
  -1 -23  -5   60.00   28.77
   1  23   5   37.68   30.31
  -5   1 -23   86.32   33.96
  -6   0 -22  302.86   38.68
   0  22   6  298.29   36.07
   0 -22  -6  280.89   38.49
  -7  -1 -21   40.53   28.93
  -1  21   7   31.27   27.93
   1 -21  -7   48.67   28.43
   2 -20  -8   -6.11   27.39
  -2  20   8    9.07   25.28
  -8  -2 -20   16.56   26.39
  -9  -3 -19  -16.67   25.62
  19  -9   3  -41.79   44.18
   3 -19  -9    9.53   26.28
 -10  -4 -18  -11.33   23.32
   4 -18 -10   15.63   31.04
  18 -10   4   -2.88   28.70
  17 -11   5  255.84   51.63
 -17  11  -5  135.87   45.67
 -11  -5 -17  109.75   23.09
   5 -17 -11  204.13   36.22
 -12  -6 -16   17.29   17.29
   6 -16 -12   42.29   29.96
  16 -12   6  -24.09   39.14
 -16  12  -6   12.22   41.56
 -15  13  -7   48.33   39.26
   7 -15 -13   16.36   26.08
 -13  -7 -15   27.77   12.72
  14   8  14    3.57   10.41
 -14  14  -8   -9.95   39.95
  15   9  13    7.68   11.22
 -13  15  -9  -20.97   42.37
 -12  16 -10    9.68   36.92
  16  10  12   -7.57   12.41
  17  11  11   22.20   14.17
 -11  17 -11  106.95   52.05
 -10  18 -12   33.50   49.90
  18  12  10   -5.88   15.63
  -9  19 -13   57.54   50.36
  -8  20 -14  -11.14   37.38
  -7  21 -15   26.77   46.94
  -6  22 -16   99.65   52.13
  -5  23 -17   44.91   46.06
  -4  24 -18   18.90   57.20
  -3  25 -19    3.27   46.14
  -2  26 -20  -33.50   49.40
  -1  27 -21  -28.23   54.59
   0  28 -22  -56.55   51.36
   1  29 -23   62.23   68.95
   2  30 -24 -142.86   86.70
   3  31 -25   71.07   73.49
   4  32 -26   14.83   63.92
   5  33 -27  -65.11   81.71
   6  34 -28   -9.07   83.74
   7  35 -29   43.75   88.01
  17  41 -13   51.05   67.23
  16  40 -12 -120.62   68.07
  15  39 -11  -55.16   63.35
  14  38 -10  -70.07   61.50
  13  37  -9  130.22   62.54
  12  36  -8  280.04   64.00
  11  35  -7  104.72   55.16
  10  34  -6   38.26   51.82
   9  33  -5   44.83   45.29
   8  32  -4   32.84   48.63
   7  31  -3   72.76   45.79
   6  30  -2    8.87   38.99
   5  29  -1   83.01   42.52
   4  28   0  399.01   52.09
   3  27   1  329.33   48.06
   2  26   2  -20.86   34.04
   1  25   3   20.74   32.31
  -1 -25  -3    3.27   29.54
   0  24   4  -25.51   34.04
   0 -24  -4    9.80   26.43
  -1  23   5   11.14   31.15
   1 -23  -5   48.44   30.35
   2 -22  -6   26.70   28.54
  -6  -2 -22   78.13   28.43
  -2  22   6   78.90   33.54
   3 -21  -7  232.56   37.26
  -7  -3 -21  312.19   36.99
  -3  21   7  315.23   39.41
  -8  -4 -20  751.46   42.33
   4 -20  -8  779.70   54.36
  -9  -5 -19  252.19   29.27
   5 -19  -9  246.08   40.41
  19  -9   5  202.60   48.86
  18 -10   6   10.06   39.61
 -10  -6 -18   11.26   18.78
 -18  10  -6   16.13   36.99
   6 -18 -10   15.06   29.12
  17 -11   7   48.86   42.87
 -17  11  -7   56.09   42.72
 -11  -7 -17   25.89   15.44
   7 -17 -11   16.60   31.65
 -16  12  -8   10.03   33.73
   8 -16 -12   33.92   27.39
 -12  -8 -16   21.32   10.60
   9 -15 -13   37.19   26.77
 -15  13  -9  -38.91   42.60
 -14  14 -10   36.61   47.67
 -13  15 -11  343.16   57.74
 -12  16 -12 1016.71   78.48
  16  12  12  839.09   25.58
 -11  17 -13  349.53   56.70
  17  13  11  242.82   17.52
  18  14  10   -0.61   12.98
 -10  18 -14  -32.08   44.21
  -9  19 -15   72.87   51.90
  -8  20 -16   51.05   45.52
  -7  21 -17   43.52   48.09
  -6  22 -18   36.34   56.32
  -5  23 -19  301.28   67.46
  -4  24 -20  366.74   76.68
  -3  25 -21  182.20   60.23
  -2  26 -22   -4.88   49.98
  -1  27 -23   32.31   61.12
   0  28 -24   62.73   73.72
   1  29 -25   13.21   58.97
   2  30 -26  -46.17   72.33
   3  31 -27  105.33   56.20
   4  32 -28  443.61  100.18
   5  33 -29  149.09   87.32
   6  34 -30  -70.57   82.78
   7  35 -31   67.15   86.05
  16  42 -14  187.12   83.28
  15  41 -13 -101.45   75.02
  14  40 -12   66.03   66.19
  13  39 -11  -41.45   58.08
  12  38 -10  533.46   86.43
  11  37  -9  294.87   69.91
  10  36  -8  -38.30   55.89
   9  35  -7  348.42   68.57
   8  34  -6  340.58   68.49
   7  33  -5   48.90   49.32
   6  32  -4  -11.64   46.60
   5  31  -3  301.75   58.16
   4  30  -2  782.19   71.53
   3  29  -1  666.41   63.11
   2  28   0  -33.11   36.38
   1  27   1  913.07   70.34
   0 -26  -2 1029.81   65.84
   0  26   2  862.79   64.61
   1 -25  -3   44.41   28.85
  -1  25   3  -15.52   35.00
   2 -24  -4   14.10   31.73
  -2  24   4    5.30   32.19
  -3  23   5  537.80   50.71
   3 -23  -5  403.47   47.44
  -4  22   6 1795.11   76.18
   4 -22  -6 1735.41   80.90
   5 -21  -7 1471.46   73.87
  -5  21   7 1584.17   69.91
  -7  -5 -21 1500.54   57.08
   6 -20  -8   -1.84   27.97
  -8  -6 -20    5.34   19.51
   7 -19  -9  368.36   42.06
 -19   9  -7  415.49   54.09
  -9  -7 -19  342.08   27.81
   8 -18 -10  380.15   48.29
 -18  10  -8  348.92   51.05
 -10  -8 -18  364.86   24.09
 -17  11  -9   21.59   33.61
 -11  -9 -17    5.84    8.87
   9 -17 -11   -3.53   30.04
  10 -16 -12    0.73   30.04
 -16  12 -10  -26.54   45.56
 -15  13 -11  273.40   53.63
  11 -15 -13  218.77   35.61
 -14  14 -12 1435.47   88.39
 -13  15 -13 1720.54   94.15
 -12  16 -14  -39.99   47.06
 -11  17 -15  893.83   81.67
  17  15  11  786.15   25.20
 -10  18 -16  780.12   77.79
  -9  19 -17  279.12   57.43
  -8  20 -18   81.52   62.00
  -7  21 -19  185.77   57.31
  -6  22 -20  965.62   91.62
  -5  23 -21  364.48   65.46
  -4  24 -22   20.67   62.35
  -3  25 -23  550.71   84.55
  -2  26 -24  329.94   80.98
  -1  27 -25  157.61   72.49
   0  28 -26   -2.42   56.35
   1  29 -27   75.68   71.83
   2  30 -28  323.60   74.02
   3  31 -29  372.54   87.78
   4  32 -30   27.24   76.44
   5  33 -31  577.87  111.09
   6  34 -32  398.90  105.10
  14  42 -14    8.34   66.07
  13  41 -13  -86.97   71.34
  12  40 -12  163.38   70.38
  11  39 -11  398.17   74.02
  10  38 -10  103.49   65.19
   9  37  -9  573.91   81.48
   8  36  -8 1495.47  114.28
   7  35  -7  607.68   82.48
   6  34  -6   -2.38   49.36
   5  33  -5  189.84   56.85
   4  32  -4  722.84   76.02
   3  31  -3  617.20   71.07
   2  30  -2   53.86   44.48
   1  29  -1 1603.96   93.15
   0  28   0 2981.19  117.09
  -1  27   1  823.91   67.72
  -2  26   2  -23.20   35.53
   3 -25  -3    6.42   32.04
  -3  25   3  -24.32   33.19
   4 -24  -4 1056.78   69.18
  -4  24   4  837.36   62.27
   5 -23  -5 1103.65   69.57
  -5  23   5 1226.42   71.37
  -6  22   6  -14.21   32.84
   6 -22  -6   33.38   33.46
  -7  -7 -21 2120.09   60.66
   7 -21  -7 2095.43   91.00
  -8  -8 -20 2519.37   59.62
   8 -20  -8 2478.00   98.26
 -20   8  -8 2482.15   93.81
   9 -19  -9  820.61   64.23
  -9  -9 -19  737.59   31.46
 -19   9  -9  744.74   59.47
  10 -18 -10   24.70   33.27
 -18  10 -10   42.03   34.07
 -10 -10 -18   62.88    9.80
  11 -17 -11   -3.38   35.19
 -17  11 -11  -26.16   42.33
 -16  12 -12  903.43   73.26
  12 -16 -12  776.93   63.19
 -15  13 -13 1630.15   92.43
 -14  14 -14   54.51   38.80
 -13  15 -15 1536.04   93.04
 -12  16 -16 3412.20  135.99
  17  17  11  865.21   23.51
 -11  17 -17 1008.84   82.44
  17  17  11  924.14   23.89
 -10  18 -18   19.67   52.40
  -9  19 -19   37.95   56.97
  -8  20 -20  264.18   65.19
  -7  21 -21  601.53   82.94
  -6  22 -22  -73.10   61.19
  -5  23 -23  795.56   86.43
  -4  24 -24 1310.20  110.83
  -3  25 -25  283.31   69.22
  -2  26 -26   18.09   52.01
  -1  27 -27  -87.74   66.07
   0  28 -28  360.79   88.31
   1  29 -29  423.44   90.27
   2  30 -30  130.49   63.54
   3  31 -31  769.67  112.82
   4  32 -32 1215.12  133.49
   5  33 -33  203.02   93.42
   4  32 -34   -1.84   80.98
   3  31 -33  606.60  106.56
   2  30 -32 1366.13  125.42
   1  29 -31  728.11  110.67
   0  28 -30    3.76   75.83
  -1  27 -29  142.56   72.76
  -2  26 -28  -51.82   67.38
  -3  25 -27  319.42   84.09
  -4  24 -26  -57.93   69.41
  -5  23 -25 1206.37  108.98
  -6  22 -24 3105.04  154.46
  -7  21 -23 1383.92  106.02
  -8  20 -22  -57.47   60.81
  20  22   8    5.95   18.32
  19  21   9   65.96   16.56
  -9  19 -21  131.03   55.93
 -10  18 -20  -40.22   45.98
  18  20  10   59.89   12.87
 -11  17 -19  308.08   66.73
 -12  16 -18  -21.97   44.41
 -13  15 -17 1881.23  105.99
 -14  14 -16 3807.06  138.41
 -15  13 -15 1717.78   94.92
 -16  12 -14   -1.15   41.79
 -17  11 -13  210.13   50.28
 -18  10 -12   57.20   41.91
  11 -19  -9  278.85   45.56
 -19   9 -11  300.48   50.86
  -9 -11 -19  262.56   15.98
  -8 -10 -20   10.64   13.56
  10 -20  -8   29.50   37.99
 -20   8 -10    3.46   34.96
 -21   7  -9 1939.20   83.36
  -7  -9 -21 1853.19   51.24
   9 -21  -7 1731.72   86.82
   8 -22  -6 4937.71  139.98
  -8  22   6 5217.37  128.50
   7 -23  -5 1808.90   90.04
  -7  23   5 2045.41   87.89
  -6  24   4  -18.40   36.46
  -5  25   3  450.02   53.74
  -4  26   2  139.87   45.71
  -3  27   1  386.37   52.86
  -2  28   0   13.29   39.64
  -1  29  -1 1585.21   93.77
   0  30  -2 3058.59  129.53
   1  31  -3 1483.60   96.27
   2  32  -4   -8.34   48.82
   3  33  -5  378.23   66.69
   4  34  -6  164.95   54.16
   5  35  -7  196.57   64.61
   6  36  -8   -3.65   56.05
   7  37  -9  757.03   94.73
   8  38 -10 1760.49  127.69
   9  39 -11  722.04   99.07
  10  40 -12  -32.77   59.24
  11  41 -13  167.91   84.32
  12  42 -14  149.36   74.95
  13  43 -15   -6.76   73.45
   5  31 -35   85.32   77.90
   4  30 -34  464.70   94.35
   3  29 -33  579.44   91.46
   2  28 -32   -1.38   70.61
   1  27 -31   70.49   72.14
   0  26 -30  215.97   71.49
  -1  25 -29  -95.04   73.68
  -2  24 -28  -45.06   56.55
  -3  23 -27  212.62   68.53
  -4  22 -26 1303.29  112.82
  -5  21 -25  848.27   92.85
  -6  20 -24   58.08   46.06
  20  24   6    7.68   22.97
  -7  19 -23  581.36   83.28
  19  23   7  567.11   39.80
  18  22   8  541.11   33.88
  -8  18 -22  516.21   70.14
  -9  17 -21   52.97   40.37
  17  21   9   28.73   14.10
  16  20  10    8.99   10.10
 -10  16 -20  -20.97   43.95
 -11  15 -19  386.45   64.42
 -12  14 -18 1137.80   85.51
 -13  13 -17  862.44   74.60
 -14  12 -16   19.90   43.75
 -15  11 -15  586.74   64.42
 -16  10 -14  572.53   61.73
 -17   9 -13   12.29   41.33
 -18   8 -12   22.47   41.79
  18  -8  12   -3.76   33.57
 -19   7 -11   84.82   35.69
  -7 -11 -19  131.61   15.02
  11 -19  -7  107.79   36.38
  19  -7  11  144.82   43.10
 -20   6 -10 1328.52   72.49
  20  -6  10 1315.42   76.71
  10 -20  -6 1188.81   72.95
  -9  21   5 1241.86   67.88
   9 -21  -5 1208.56   73.06
  21  -5   9 1297.52   77.79
  22  -4   8  -12.22   34.96
  -8  22   4   53.78   34.84
   8 -22  -4   72.76   32.73
  23  -3   7  808.66   62.58
  -7  23   3  879.19   66.34
  -6  24   2  887.72   68.61
  -5  25   1  198.79   43.83
  -4  26   0   50.78   42.22
  -3  27  -1  286.65   49.94
  -2  28  -2 1267.33   84.63
  -1  29  -3  680.59   68.65
   0  30  -4   12.64   39.68
   1  31  -5  574.10   72.30
   2  32  -6  571.18   73.91
   3  33  -7  141.86   59.00
   4  34  -8   10.41   52.86
   5  35  -9  -19.75   58.93
   6  36 -10  610.25   83.47
   7  37 -11  370.66   79.79
   8  38 -12   12.22   62.92
   9  39 -13  169.87   62.08
  10  40 -14  323.68   83.36
  11  41 -15  -18.63   63.27
  12  42 -16 -143.02   78.13
   6  30 -36   50.36   72.83
   5  29 -35  -45.02   62.81
  29  35  -5  -89.58   51.90
   4  28 -34   72.72   73.22
  28  34  -4   -5.65   43.25
  27  33  -3  133.84   50.32
   3  27 -33   43.52   72.91
   2  26 -32  373.31   88.20
  26  32  -2  454.94   59.47
   1  25 -31   52.44   65.84
  25  31  -1   91.08   37.19
  24  30   0  -67.38   37.80
   0  24 -30   16.25   53.32
  23  29   1    1.96   32.96
  -1  23 -29  -13.18   61.23
  22  28   2   -1.50   28.54
  -2  22 -28   38.30   61.50
  -3  21 -27   22.24   50.78
  21  27   3  137.75   32.38
  -4  20 -26  -41.79   51.55
  20  26   4    4.84   27.50
  -5  19 -25  129.00   55.85
  19  25   5  253.73   37.11
  18  24   6  527.31   42.37
  -6  18 -24  412.03   74.02
  -7  17 -23  196.22   51.55
  17  23   7  248.08   28.39
  -8  16 -22    0.96   46.71
  16  22   8    1.88   18.48
  -9  15 -21   55.59   44.79
  15  21   9   84.24   16.10
  14  20  10   17.71    8.87
 -10  14 -20  -49.71   51.21
 -11  13 -19   41.45   45.02
 -12  12 -18   43.95   46.52
 -13  11 -17  251.00   51.82
 -14  10 -16  614.40   61.19
  15  -9  15  314.69   47.83
 -15   9 -15  431.28   53.55
  16  -8  14  -36.42   36.42
 -16   8 -14   62.58   39.22
  17  -7  13   85.86   37.99
 -17   7 -13   38.03   38.61
  18  -6  12  134.30   41.83
 -18   6 -12  106.56   38.57
  12 -18  -6  144.94   36.95
  11 -19  -5   60.23   36.15
 -19   5 -11   20.97   34.73
  19  -5  11   44.87   38.07
 -10  20   4   40.53   34.84
  20  -4  10   28.70   30.12
  10 -20  -4   98.34   38.15
  -9  21   3  290.18   45.29
   9 -21  -3  428.36   54.28
  21  -3   9  326.29   44.45
  22  -2   8  966.54   66.96
  -8  22   2  914.34   66.73
  23  -1   7  488.36   49.71
  -7  23   1  522.01   58.54
  24   0   6   30.54   37.38
  -6  24   0   17.17   37.76
  -5  25  -1  161.34   47.10
  25   1   5  236.71   41.33
  -4  26  -2  141.75   49.09
  -3  27  -3   29.50   43.37
  -2  28  -4 -104.64   54.28
  -1  29  -5  200.18   54.01
   0  30  -6  254.92   56.74
   1  31  -7  109.98   49.71
   2  32  -8   17.82   51.94
   3  33  -9   13.98   49.06
   4  34 -10  -57.66   58.74
   5  35 -11  161.34   68.15
   6  36 -12   -7.03   60.62
   7  37 -13  180.20   61.62
   8  38 -14  275.32   78.60
   9  39 -15  150.78   69.53
  10  40 -16   70.38   72.83
  11  41 -17   52.40   60.96
  12  42 -18  -10.87   63.54
  28  36  -6   20.01   50.09
   6  28 -36   15.25   77.60
  27  35  -5  -21.97   46.44
   5  27 -35  -62.38   72.22
  26  34  -4   37.61   46.40
   4  26 -34   78.63   75.33
   3  25 -33  191.88   81.59
  25  33  -3   61.23   44.25
  24  32  -2    1.11   40.99
   2  24 -32  -88.12   73.68
  23  31  -1  159.46   46.52
   1  23 -31  169.25   57.35
  22  30   0  261.99   45.48
   0  22 -30  398.01   83.40
  -1  21 -29  291.99   61.04
  21  29   1  244.39   46.87
  -2  20 -28  -27.93   56.74
  20  28   2   13.52   32.46
  19  27   3   26.12   34.34
  -3  19 -27  -32.11   55.01
  18  26   4   16.52   27.39
  -4  18 -26  -60.89   55.93
  17  25   5   34.80   26.01
  -5  17 -25   10.18   55.36
  -6  16 -24    2.77   45.25
  16  24   6   11.06   23.01
  15  23   7  324.83   32.08
  -7  15 -23  289.18   59.73
  -8  14 -22  979.95   82.78
  14  22   8  883.15   40.99
  -9  13 -21  300.17   61.39
  13  21   9  321.68   24.32
 -10  12 -20  -26.66   46.48
  12  20  10   24.89    9.87
 -11  11 -19  105.18   46.94
 -12  10 -18  -64.50   46.48
 -13   9 -17   57.78   38.03
  13  -9  17   77.83   38.64
  14  -8  16    7.41   30.16
 -14   8 -16   27.12   37.57
  15  -7  15  479.83   53.55
 -15   7 -15  539.22   56.51
 -16   6 -14 1028.70   65.69
  16  -6  14  904.97   63.31
 -17   5 -13  755.69   57.20
  17  -5  13  766.41   59.24
  12 -18  -4   -3.00   35.76
  18  -4  12   27.47   31.69
 -18   4 -12  -53.36   34.53
 -11  19   3  211.66   40.07
  19  -3  11  259.72   43.02
 -19   3 -11  247.04   35.57
  11 -19  -3  146.74   43.79
 -10  20   2   83.01   38.72
  20  -2  10  204.44   40.10
  21  -1   9   -2.15   31.00
  -9  21   1   46.60   41.26
  22   0   8   25.58   29.54
  -8  22   0    3.61   42.14
  -7  23  -1  418.49   57.74
  23   1   7  517.98   49.75
  -6  24  -2  841.20   66.69
  24   2   6  840.12   60.46
  -5  25  -3  485.98   61.62
  25   3   5  452.56   47.67
  26   4   4  -28.89   27.89
  -4  26  -4   21.28   42.03
  -3  27  -5  148.93   44.14
  -2  28  -6  145.78   50.90
  -1  29  -7   49.90   53.43
   0  30  -8   60.20   54.05
   1  31  -9  379.46   65.57
   2  32 -10  123.23   60.58
   3  33 -11  110.21   61.81
   4  34 -12   23.97   49.06
   5  35 -13    2.15   54.59
   6  36 -14   52.63   68.88
   7  37 -15   28.89   63.42
   8  38 -16 -128.84   67.11
   9  39 -17  121.47   73.49
  10  40 -18  314.15   89.74
  11  41 -19  100.95   73.95
  27  37  -7  333.48   70.99
   7  27 -37  257.22   91.16
  26  36  -6  488.36   77.02
   6  26 -36  426.90   99.42
   5  25 -35  -11.02   76.48
  25  35  -5  151.70   52.97
   4  24 -34 -175.67   76.33
  24  34  -4   58.04   45.56
  23  33  -3   68.22   50.36
   3  23 -33  180.97   73.99
  22  32  -2  469.92   62.23
   2  22 -32  434.89   78.71
  21  31  -1  396.09   58.27
   1  21 -31  364.98   81.13
  20  30   0   21.36   39.76
   0  20 -30  -12.18   61.04
  19  29   1  352.11   49.59
  -1  19 -29  422.75   75.33
  18  28   2  734.29   57.81
  -2  18 -28  621.35   73.76
  17  27   3   53.13   30.92
  -3  17 -27   58.81   50.17
  16  26   4  -47.10   27.47
  -4  16 -26  -88.58   48.82
  15  25   5   34.84   26.74
  -5  15 -25   13.06   41.95
  14  24   6  642.48   44.91
  -6  14 -24  536.46   67.03
  13  23   7  911.73   46.71
  -7  13 -23  799.40   76.94
  -8  12 -22  -11.60   44.98
  12  22   8   26.47   18.09
  11  21   9 1308.63   42.64
  -9  11 -21 1384.72   90.27
 -10  10 -20 1783.77   96.54
  10  20  10 1816.69   42.18
 -11   9 -19  351.65   56.09
  12  -8  18    0.31   31.31
 -12   8 -18   20.40   41.33
 -13   7 -17   43.72   42.37
  13  -7  17  112.21   38.80
 -14   6 -16  978.91   67.65
  -6 -16 -14  852.92   21.90
  14  -6  16  951.91   62.04
  15  -5  15 1136.87   67.26
  -5 -15 -15 1054.59   29.89
 -15   5 -15 1024.17   65.61
  16  -4  14  -58.89   37.72
  -4 -14 -16    8.14   12.45
 -16   4 -14  -23.32   32.23
  17  -3  13 1844.01   80.94
 -17   3 -13 1739.40   76.25
 -12  18   2 2573.53   97.42
  18  -2  12 2488.10   90.66
 -18   2 -12 2568.77   86.36
  19  -1  11  622.43   52.70
 -11  19   1  569.69   58.51
  20   0  10   28.43   30.50
 -10  20   0    8.72   36.30
  21   1   9  -34.57   31.77
  -9  21  -1   28.47   36.38
  -8  22  -2  948.68   75.71
  22   2   8  998.66   60.77
  23   3   7  831.25   57.08
  -7  23  -3  831.94   71.14
  -6  24  -4  -44.41   44.91
  24   4   6  -33.54   27.04
  25   5   5  834.32   55.01
  -5  25  -5  902.01   78.25
  -4  26  -6 1260.80   90.89
  -3  27  -7  314.42   57.93
  -2  28  -8  -65.69   47.33
  -1  29  -9  -30.27   51.01
   0  30 -10  428.51   73.06
   1  31 -11  196.07   58.77
   2  32 -12  -70.18   61.66
   3  33 -13  618.13   89.89
   4  34 -14 1085.82  107.29
   5  35 -15  299.13   76.02
   6  36 -16  -80.67   71.11
   7  37 -17   90.54   72.76
   8  38 -18  304.55   86.43
   9  39 -19  252.69   75.75
  10  40 -20  129.92   78.56
  11  41 -21  480.30  106.14
  26  38  -8 1154.16  103.14
   8  26 -38 1159.62  121.08
  25  37  -7  734.60   86.70
   7  25 -37  560.12  100.53
  24  36  -6 -162.42   60.39
   6  24 -36   30.85   78.02
  23  35  -5   38.03   49.21
   5  23 -35    1.38   69.53
  22  34  -4    8.68   46.48
   4  22 -34    5.69   66.92
  21  33  -3  267.63   61.27
   3  21 -33  301.28   71.45
  20  32  -2   50.98   43.68
   2  20 -32   25.51   52.32
   1  19 -31  886.30   97.61
  19  31  -1 1094.85   76.52
  18  30   0 1998.47   94.92
   0  18 -30 2026.36  128.92
  17  29   1  766.64   60.62
  -1  17 -29  841.93   92.08
  -2  16 -28   14.83   50.71
  16  28   2  -23.43   32.69
  -3  15 -27  162.53   52.70
  15  27   3   92.77   34.65
  14  26   4   13.48   28.85
  -4  14 -26  -26.74   45.21
  13  25   5  209.70   33.54
  -5  13 -25  218.39   50.86
  12  24   6   43.72   24.89
  -6  12 -24   47.52   38.26
  11  23   7 1990.90   65.30
  -7  11 -23 1875.08  101.53
  10  22   8 4548.84   87.70
  -8  10 -22 4269.84  142.56
   9  21   9 1781.35   51.28
  -9   9 -21 1765.41   92.69
   8  20  10   -4.30   13.21
 -10   8 -20  -22.24   40.68
 -11   7 -19  125.96   45.02
  12  -6  18  159.00   37.34
 -12   6 -18  104.37   39.37
  13  -5  17  767.83   54.55
 -13   5 -17  811.73   59.50
  -5 -17 -13  771.78   29.54
  -4 -16 -14   10.76   14.37
  14  -4  16   15.63   30.65
 -14   4 -16   46.67   36.65
 -15   3 -15 2393.83   87.05
  -3 -15 -15 2368.86   54.36
  15  -3  15 2354.50   86.70
  16  -2  14 5668.35  129.23
 -16   2 -14 5376.36  123.00
  -2 -14 -16 5483.69   80.02
 -13  17   1 2509.31   97.57
 -17   1 -13 2510.15   83.44
  17  -1  13 2635.92   89.51
 -12  18   0   64.84   41.83
  18   0  12   -3.11   28.39
 -18   0 -12    6.80   24.32
  19   1  11  529.27   47.56
 -11  19  -1  605.87   58.81
  20   2  10   82.36   31.23
 -10  20  -2   66.23   41.37
  -9  21  -3  319.34   49.86
  21   3   9  367.93   41.03
  -8  22  -4   -4.88   44.94
  22   4   8   32.11   28.43
  -7  23  -5 1749.20   96.61
  23   5   7 1974.62   77.37
  -6  24  -6 4584.53  151.43
  24   6   6 4859.46  116.70
  -5  25  -7 1671.68  101.68
  -4  26  -8   36.57   38.84
  -3  27  -9  406.81   65.84
  -2  28 -10  -10.06   45.02
  -1  29 -11  240.86   64.61
   0  30 -12   89.89   60.46
   1  31 -13 1034.54   95.58
   2  32 -14 2177.37  134.76
   3  33 -15 1126.20  107.60
   4  34 -16  -47.98   69.65
   5  35 -17  187.81   74.29
   6  36 -18    9.72   58.16
   7  37 -19  205.59   84.09
   8  38 -20   79.25   74.33
   9  39 -21  542.91   95.31
  10  40 -22 1279.93  130.80
   9  25 -39  635.37  106.06
  25  39  -9  749.50   91.43
   8  24 -38  -15.56   71.11
  24  38  -8   12.06   58.01
  23  37  -7  691.23   84.47
   7  23 -37  684.97   90.89
  22  36  -6  381.22   67.07
   6  22 -36  429.51   86.55
   5  21 -35   51.28   59.70
  21  35  -5  -54.74   49.32
   4  20 -34   92.43   58.97
  20  34  -4   36.30   49.71
   3  19 -33  584.28   80.82
  19  33  -3  747.58   72.26
  18  32  -2 2522.14  112.55
   2  18 -32 2491.60  137.49
   1  17 -31 1599.73  116.05
  17  31  -1 1496.43   85.24
   0  16 -30  -10.64   44.10
  16  30   0  -33.11   36.11
  -1  15 -29  834.55   88.35
  15  29   1  861.67   67.42
  -2  14 -28  565.42   75.25
  14  28   2  414.68   50.02
  13  27   3  -39.64   28.96
  -3  13 -27  -28.81   55.51
  -4  12 -26  -24.43   48.13
  12  26   4  -12.45   28.27
  11  25   5  989.02   56.39
  -5  11 -25  942.96   76.37
  10  24   6 4604.70  105.68
  -6  10 -24 4542.35  143.86
   9  23   7 3163.39   81.13
  -7   9 -23 3319.04  124.23
  -8   8 -22  -45.41   36.57
   8  22   8   41.91   22.66
  -9   7 -21 1822.23   89.12
   7  21   9 1950.38   56.70
 -10   6 -20 1311.47   78.56
   6  20  10 1352.57   43.60
 -11   5 -19   51.17   36.15
  -5 -19 -11   52.63   16.21
  -4 -18 -12   42.29   17.90
 -12   4 -18   35.80   34.65
  13  -3  17 1846.04   73.64
  -3 -17 -13 1813.85   51.71
 -13   3 -17 1829.68   78.94
 -14   2 -16 5459.95  123.92
  -2 -16 -14 5544.66   89.20
  14  -2  16 5569.55  121.81
  -1 -15 -15 3609.92   74.56
 -15   1 -15 3596.89   97.03
  15  -1  15 3496.48   98.11
 -14  16   0  -48.44   38.15
  16   0  14  -17.67   27.24
 -16   0 -14    1.34   27.20
 -13  17  -1 2528.71  102.18
  17   1  13 2701.88   85.13
 -17  -1 -13 2676.87   77.56
  18   2  12 2544.30   82.67
 -12  18  -2 2474.27  103.49
  19   3  11  184.93   32.31
 -11  19  -3  204.83   45.75
  20   4  10   34.11   26.39
 -10  20  -4   -3.07   36.65
  -9  21  -5 1226.15   82.63
  21   5   9 1262.57   60.00
  22   6   8 5379.44  118.24
  -8  22  -6 5068.36  155.81
  23   7   7 3679.10   99.07
  -7  23  -7 3397.10  130.11
  -6  24  -8  -43.64   49.40
  -5  25  -9 1553.94   97.42
  -4  26 -10 1516.29  100.76
  -3  27 -11  137.56   57.28
  -2  28 -12   46.64   43.10
  -1  29 -13  445.49   77.60
   0  30 -14 2187.16  129.88
   1  31 -15 1465.05  114.05
   2  32 -16  -22.66   52.05
   3  33 -17 1206.71  108.75
   4  34 -18 1240.17  117.39
   5  35 -19  177.63   68.88
   6  36 -20    5.80   69.41
   7  37 -21  392.98   76.64
   8  38 -22 1653.09  144.32
   9  39 -23  964.93  128.65
  23  39  -9  780.96   94.69
   9  23 -39  713.55  104.06
   8  22 -38 1291.91  125.65
  22  38  -8 1228.49  102.84
   7  21 -37  375.35   81.63
  21  37  -7  398.36   73.53
   6  20 -36  119.08   60.50
  20  36  -6    6.84   48.67
  19  35  -5  129.53   52.05
   5  19 -35   87.32   52.63
   4  18 -34 1268.60  104.72
  18  34  -4 1153.39   86.16
   3  17 -33 1015.79   94.92
  17  33  -3 1009.61   82.67
  16  32  -2   -1.08   41.14
   2  16 -32  112.82   60.54
   1  15 -31 1547.99  106.14
  15  31  -1 1518.60   89.66
   0  14 -30 2234.95  120.81
  14  30   0 2197.92  101.53
  -1  13 -29  368.47   64.27
  13  29   1  336.32   49.02
  12  28   2   16.33   35.19
  -2  12 -28  -68.72   52.32
  11  27   3  114.05   32.96
  -3  11 -27  185.62   56.12
  10  26   4 1433.89   70.38
  -4  10 -26 1503.73   96.30
   9  25   5 1640.03   70.07
  -5   9 -25 1657.16   94.88
  -6   8 -24   38.18   34.23
   8  24   6   -1.00   23.97
  -7   7 -23 3173.61  113.48
   7  23   7 3574.15   89.24
  -8   6 -22 5233.77  142.98
   6  22   8 5177.84   99.95
   5  21   9 1218.74   48.71
  -9   5 -21 1246.62   72.87
  -4 -20 -10   67.72   20.97
 -10   4 -20   74.56   40.34
 -11   3 -19  162.34   40.34
  -3 -19 -11  244.39   28.54
 -12   2 -18 2592.90   91.50
  -2 -18 -12 2638.42   68.38
  13  -1  17 2654.74   80.48
  -1 -17 -13 2773.75   70.41
 -13   1 -17 2772.10   88.43
   0 -16 -14  -12.56   21.32
 -14   0 -16  -30.31   28.16
 -15  15  -1 3505.81  115.24
 -15  -1 -15 3766.84   93.54
   1 -15 -15 3656.71   79.90
  15   1  15 3597.20   92.16
  16   2  14 5517.31  112.94
 -14  16  -2 5269.46  142.56
 -16  -2 -14 5372.60  104.14
  17   3  13 1751.47   65.65
 -13  17  -3 1791.03   92.46
  18   4  12   -0.85   25.74
 -12  18  -4  -31.58   33.46
  19   5  11   23.66   22.20
 -11  19  -5   12.91   42.60
  20   6  10 1268.41   56.43
 -10  20  -6 1166.30   83.01
  -9  21  -7 1876.89  101.11
  21   7   9 1865.36   69.91
  22   8   8   15.94   23.86
  -8  22  -8  -10.83   45.75
  -7  23  -9 3077.61  131.76
  -6  24 -10 4528.17  158.34
  -5  25 -11 1056.63   90.85
  -4  26 -12  -29.39   53.74
  -3  27 -13   72.07   49.90
  -2  28 -14  594.81   83.90
  -1  29 -15  750.73   85.36
   0  30 -16   22.32   57.85
   1  31 -17 1493.86  121.08
   2  32 -18 2402.59  144.75
   3  33 -19  782.54   97.53
   4  34 -20   73.72   72.22
   5  35 -21  -91.43   62.85
   6  36 -22  471.34   92.89
   7  37 -23  497.70   98.84
   8  38 -24   98.38   74.95
   9  39 -25  751.35  109.52
  22  40 -10 1163.34  108.71
  10  22 -40 1186.70  119.20
  21  39  -9  548.29   78.98
  20  38  -8   47.10   56.12
  19  37  -7   56.01   53.86
  18  36  -6   71.95   52.86
  17  35  -5  302.40   62.58
  16  34  -4   17.17   49.36
  15  33  -3  982.60   84.93
  14  32  -2 2207.87  112.02
  13  31  -1  882.92   72.60
  12  30   0   19.09   37.19
   0  12 -30 -103.68   51.44
  -1  11 -29  230.56   49.48
  11  29   1  214.81   46.29
  10  28   2  -16.48   34.96
  -2  10 -28    6.57   40.91
   9  27   3  361.71   46.25
  -3   9 -27  437.00   58.16
   8  26   4  -18.09   31.31
  -4   8 -26    9.60   35.34
  -5   7 -25 1840.93   96.84
   7  25   5 1714.82   73.53
   6  24   6 4682.22  110.13
  -6   6 -24 4582.49  136.87
  -7   5 -23 1810.32   84.86
   5  23   7 1840.36   67.84
   4  22   8   11.45   24.66
  -4 -22  -8   22.17   19.55
  -8   4 -22  -34.50   33.57
  -3 -21  -9  306.28   31.19
   3  21   9  331.32   29.43
  -9   3 -21  284.50   42.49
 -10   2 -20   96.42   34.92
  -2 -20 -10  141.10   28.35
 -11   1 -19  580.60   48.13
  -1 -19 -11  579.25   39.11
 -12   0 -18  -11.45   29.66
   0 -18 -12  -18.98   23.01
   1 -17 -13 2720.24   75.83
 -13  -1 -17 2686.59   79.98
  14   2  16 5695.70  109.56
   2 -16 -14 5496.03  106.83
 -16  14  -2 5232.73  137.64
 -14  -2 -16 5544.62  107.52
 -15  15  -3 2300.25   97.42
  15   3  15 2248.78   68.68
 -15  -3 -15 2332.37   68.76
   3 -15 -15 2524.90   70.84
  16   4  14   -8.49   21.74
 -14  16  -4   56.39   46.94
  17   5  13  761.57   43.14
 -13  17  -5  795.64   70.03
  18   6  12  120.01   25.28
 -12  18  -6  204.94   54.20
 -11  19  -7   77.83   48.09
  19   7  11   87.12   22.86
 -10  20  -8   69.68   50.17
  20   8  10   25.55   20.78
  -9  21  -9 1665.76   97.19
  21   9   9 1832.79   63.81
  -8  22 -10 4463.18  155.58
  22  10   8 4659.32   97.30
  -7  23 -11 1906.24  108.02
  -6  24 -12  -12.41   53.51
  -5  25 -13  258.03   63.00
  -4  26 -14  -65.04   47.90
  -3  27 -15   96.34   59.00
  -2  28 -16   68.19   55.93
  -1  29 -17  836.59   98.19
   0  30 -18 2175.68  137.64
   1  31 -19 1005.38  102.18
   2  32 -20  -29.08   57.74
   3  33 -21  261.87   77.98
   4  34 -22   16.13   60.93
   5  35 -23  253.23   85.59
   6  36 -24  -80.75   71.80
   7  37 -25  742.78  104.45
   8  38 -26 1194.92  131.57
  21  41 -11  526.47   92.89
  20  40 -10   35.96   65.50
  19  39  -9  271.82   71.37
  18  38  -8  208.59   67.53
  17  37  -7  -29.04   55.82
  16  36  -6  -40.14   50.98
  15  35  -5  138.10   51.55
  14  34  -4 1056.43   86.89
  13  33  -3  577.56   68.19
  12  32  -2  -48.71   44.60
  11  31  -1  139.02   46.48
  10  30   0  439.58   56.55
   9  29   1  -25.81   35.99
   8  28   2    2.19   33.50
   7  27   3  402.62   47.63
  -3   7 -27  293.79   46.17
   6  26   4 1072.15   64.04
  -4   6 -26 1109.37   74.06
  -5   5 -25  721.38   61.31
   5  25   5  835.51   55.16
   4  24   6    3.80   26.66
  -6   4 -24    7.34   33.88
   3  23   7  873.35   50.28
  -7   3 -23  861.60   62.15
  -3 -23  -7  928.90   51.28
  -2 -22  -8  942.27   50.48
  -8   2 -22 1007.80   61.27
   2  22   8  928.98   51.40
   1  21   9   21.01   20.59
  -1 -21  -9   11.83   26.47
  -9   1 -21   44.33   32.42
 -10   0 -20    4.61   29.00
   0 -20 -10   23.78   26.39
 -11  -1 -19  574.83   45.98
   1 -19 -11  547.29   40.64
 -12  -2 -18 2492.48   77.83
   2 -18 -12 2629.43   81.25
 -17  13  -3 1734.26   84.36
   3 -17 -13 1816.08   69.38
 -13  -3 -17 1810.20   61.96
  14   4  16   -8.03   17.98
   4 -16 -14   27.27   26.58
 -14  -4 -16   23.86   21.09
 -15  -5 -15 1083.56   41.56
  15   5  15 1093.54   44.48
 -15  15  -5 1053.82   75.83
 -14  16  -6  900.93   71.03
  16   6  14 1075.14   43.87
  17   7  13   74.45   19.90
 -13  17  -7  121.08   47.02
  18   8  12   18.55   19.63
 -12  18  -8   26.89   39.64
 -11  19  -9  276.93   52.51
  19   9  11  280.54   27.58
 -10  20 -10 1828.99  104.33
  20  10  10 1839.20   59.96
  -9  21 -11 1327.91   90.81
  21  11   9 1304.63   50.78
  -8  22 -12  -44.18   52.59
  -7  23 -13  872.35   82.25
  -6  24 -14  783.69   80.36
  -5  25 -15  -42.29   46.87
  -4  26 -16  -11.91   56.85
  -3  27 -17  111.40   57.24
  -2  28 -18  719.77   93.12
  -1  29 -19  440.50   84.55
   0  30 -20    3.27   64.88
   1  31 -21  332.94   77.48
   2  32 -22  359.25   78.21
   3  33 -23    2.04   70.64
   4  34 -24   53.70   82.05
   5  35 -25  117.86   62.69
   6  36 -26  494.66  104.45
   7  37 -27  231.22   90.85
  19  41 -11  153.47   68.72
  18  40 -10  286.49   73.45
  17  39  -9   82.63   60.00
  16  38  -8   42.29   53.32
  15  37  -7   53.66   54.78
  14  36  -6    2.04   49.36
  13  35  -5  157.69   52.78
  12  34  -4   -5.92   48.56
  11  33  -3   72.80   45.91
  10  32  -2  121.93   50.05
   9  31  -1  332.67   57.39
   8  30   0   -2.96   36.95
   7  29   1   29.66   36.19
   6  28   2   98.23   38.61
   5  27   3  113.02   34.80
  -4   4 -26  -41.26   37.92
   4  26   4  -22.01   31.42
  -3 -25  -5  430.43   40.37
  -5   3 -25  309.93   42.99
   2  24   6  903.74   56.55
  -6   2 -24  999.43   62.35
  -2 -24  -6  869.32   53.66
  -1 -23  -7  524.16   47.10
  -7   1 -23  543.29   50.09
   1  23   7  429.82   41.72
   0  22   8   -8.60   26.20
   0 -22  -8  -37.07   31.00
  -8   0 -22  -32.04   29.62
  -9  -1 -21  -14.83   29.66
   1 -21  -9  -20.44   26.47
 -10  -2 -20  142.71   31.08
   2 -20 -10  107.68   31.12
 -11  -3 -19  220.88   31.65
   3 -19 -11  176.59   31.81
 -18  12  -4   20.86   35.96
   4 -18 -12   24.16   27.93
 -12  -4 -18    1.27   21.70
 -13  -5 -17  745.93   37.84
   5 -17 -13  827.10   52.36
 -17  13  -5  790.38   65.84
   6 -16 -14 1043.60   56.66
 -14  -6 -16 1026.09   39.11
 -16  14  -6 1042.57   76.83
  15   7  15  519.98   28.58
 -15  15  -7  483.29   61.35
 -14  16  -8  -17.40   47.17
  16   8  14   14.14   14.75
 -13  17  -9  126.34   52.55
  17   9  13   32.04   16.17
 -12  18 -10   73.49   44.21
  18  10  12  -18.05   15.60
  19  11  11  131.61   21.74
 -11  19 -11   13.79   38.15
 -10  20 -12  -56.85   49.98
  20  12  10   26.08   18.48
  -9  21 -13  367.74   64.54
  -8  22 -14  864.02   83.59
  -7  23 -15  213.66   49.75
  -6  24 -16   48.98   51.48
  -5  25 -17  -77.02   62.27
  -4  26 -18   -0.19   45.64
  -3  27 -19   16.10   58.66
  -2  28 -20   30.73   68.07
  -1  29 -21  281.12   76.83
   0  30 -22  420.22   79.86
   1  31 -23  227.49   78.60
   2  32 -24 -142.29   76.52
   3  33 -25   -3.27   69.80
   4  34 -26  152.01   73.76
   5  35 -27 -101.95   79.90
   6  36 -28   88.74   86.62
  18  42 -12  -18.52   59.73
  17  41 -11  -56.81   56.01
  16  40 -10  -10.99   64.42
  15  39  -9  142.75   62.04
  14  38  -8  365.40   74.79
  13  37  -7  152.43   61.73
  12  36  -6  -98.34   59.43
  11  35  -5   87.09   51.24
  10  34  -4   23.36   47.21
   9  33  -3   -4.11   45.60
   8  32  -2  -19.67   44.52
   7  31  -1  132.49   46.33
   6  30   0  214.31   47.13
   5  29   1  130.49   41.91
   4  28   2   37.42   35.69
   3  27   3   26.51   33.88
   2  26   4   82.78   35.23
  -2 -26  -4   40.95   26.08
  -1 -25  -5  185.20   35.57
  -5   1 -25  222.57   39.87
   1  25   5  263.14   40.95
   0  24   6   30.69   29.35
  -6   0 -24    7.41   27.97
   0 -24  -6   -3.15   26.51
  -1  23   7  493.78   46.71
   1 -23  -7  592.96   50.17
  -7  -1 -23  520.13   48.48
  -2  22   8  999.93   55.51
   2 -22  -8 1041.41   61.12
  -8  -2 -22 1016.68   54.86
   3 -21  -9  316.61   42.26
  -9  -3 -21  324.33   37.03
   4 -20 -10   57.16   30.42
 -10  -4 -20   12.18   24.01
 -11  -5 -19   39.87   23.78
 -19  11  -5   49.98   31.46
   5 -19 -11   75.06   30.35
 -12  -6 -18  116.20   22.43
 -18  12  -6  143.36   48.59
   6 -18 -12   62.00   30.96
   7 -17 -13  102.64   29.77
 -13  -7 -17  118.05   18.29
   8 -16 -14    2.27   25.16
 -16  14  -8   27.08   35.80
 -15  15  -9  377.88   50.55
 -14  16 -10  562.62   68.80
  16  10  14  553.21   22.32
 -13  17 -11  261.91   49.86
  17  11  13  279.35   18.63
 -12  18 -12  156.88   57.24
  18  12  12  -13.56   12.98
  19  13  11   50.71   15.63
 -11  19 -13   23.09   49.21
 -10  20 -14   -6.84   39.34
  20  14  10    8.11   15.98
  -9  21 -15  -79.75   60.62
  -8  22 -16  101.45   60.89
  -7  23 -17  245.12   67.03
  -6  24 -18  498.70   76.79
  -5  25 -19  235.86   68.38
  -4  26 -20   46.60   54.78
  -3  27 -21  106.22   64.04
  -2  28 -22   12.52   58.16
  -1  29 -23  -39.37   47.90
   0  30 -24  -62.81   70.72
   1  31 -25    7.26   67.88
   2  32 -26  372.89   84.09
   3  33 -27   75.29   71.76
   4  34 -28  -72.53   85.47
   5  35 -29    2.96   80.21
   6  36 -30  188.50   88.55
  16  42 -12  102.53   68.57
  15  41 -11  105.06   62.35
  14  40 -10  329.86   80.52
  13  39  -9  418.18   76.48
  12  38  -8  -73.79   61.58
  11  37  -7  440.11   73.06
  10  36  -6  593.35   79.44
   9  35  -5   37.65   50.05
   8  34  -4   10.49   47.63
   7  33  -3    6.80   46.02
   6  32  -2  717.77   74.33
   5  31  -1  608.64   64.73
   4  30   0  -51.48   41.45
   3  29   1  604.37   61.42
   2  28   2 1276.09   78.17
  -1 -27  -3  311.04   41.30
   1  27   3  380.49   46.02
   0  26   4    2.88   33.77
   0 -26  -4  -50.67   31.92
  -1  25   5  185.46   39.76
   1 -25  -5  181.74   37.99
   2 -24  -6  895.21   61.19
  -2  24   6  921.45   61.19
  -6  -2 -24  997.97   54.82
  -7  -3 -23  963.05   53.59
   3 -23  -7  835.63   58.74
  -3  23   7  873.97   55.97
   4 -22  -8   28.43   29.85
  -4  22   8  -10.18   27.39
  -8  -4 -22   16.94   24.93
  -9  -5 -21 1261.11   54.20
   5 -21  -9 1253.08   69.22
   6 -20 -10 1225.27   67.23
 -10  -6 -20 1237.60   49.40
 -20  10  -6 1291.07   71.72
 -19  11  -7  158.96   44.83
   7 -19 -11  134.18   36.11
 -11  -7 -19  130.46   21.17
   8 -18 -12    7.03   31.65
 -18  12  -8   15.63   34.65
 -12  -8 -18    0.19   12.98
 -17  13  -9   11.72   40.80
   9 -17 -13   47.90   28.27
 -16  14 -10  488.55   59.31
  10 -16 -14  539.26   48.09
 -15  15 -11  629.07   61.54
 -14  16 -12  -49.25   49.67
 -13  17 -13  905.97   76.87
 -12  18 -14 1111.56   88.74
  18  14  12  984.48   29.46
 -11  19 -15  309.39   63.42
  19  15  11  300.21   21.01
 -10  20 -16   54.47   47.10
  -9  21 -17   19.09   46.37
  -8  22 -18  500.00   70.38
  -7  23 -19  680.32   84.01
  -6  24 -20  -36.84   60.12
  -5  25 -21  753.34   93.27
  -4  26 -22 1311.78  112.67
  -3  27 -23   93.46   56.39
  -2  28 -24  -12.91   61.35
  -1  29 -25  117.74   73.79
   0  30 -26   57.12   64.50
   1  31 -27  368.39   91.39
   2  32 -28  103.30   68.92
   3  33 -29  452.33   99.88
   4  34 -30  852.61  126.69
   5  35 -31  119.39   87.32
  15  43 -13   91.81   67.84
  14  42 -12   31.65   72.68
  13  41 -11  215.16   71.49
  12  40 -10   47.06   61.00
  11  39  -9  729.11   92.50
  10  38  -8 1826.34  127.84
   9  37  -7  720.50   89.24
   8  36  -6  -34.04   54.13
   7  35  -5  190.11   58.74
   6  34  -4   60.73   49.94
   5  33  -3  400.35   65.19
   4  32  -2   -1.15   44.41
   3  31  -1 1371.93   90.00
   2  30   0 3206.07  123.81
   1  29   1 1277.16   79.83
   0  28   2   10.68   38.18
  -1  27   3  399.36   51.78
   1 -27  -3  407.31   48.90
  -2  26   4   84.93   32.92
   2 -26  -4   54.36   34.42
   3 -25  -5  471.50   52.67
  -3  25   5  520.13   53.36
  -4  24   6  -16.60   33.27
   4 -24  -6   35.53   34.88
  -5  23   7 1942.58   81.05
  -7  -5 -23 1919.26   67.76
   5 -23  -7 1999.51   88.55
   6 -22  -8 5122.98  136.76
  -8  -6 -22 5005.01   99.69
  -9  -7 -21 1882.00   58.39
   7 -21  -9 1841.24   85.93
   8 -20 -10   -2.30   29.04
 -10  -8 -20   25.81   17.98
 -20  10  -8   36.26   40.80
 -11  -9 -19  329.21   20.71
 -19  11  -9  254.30   45.83
   9 -19 -11  325.60   47.44
  10 -18 -12  -16.56   33.11
 -18  12 -10  -37.53   45.37
  11 -17 -13  223.00   37.72
 -17  13 -11  219.23   50.13
 -16  14 -12    3.42   40.45
 -15  15 -13 1783.89  101.64
 -14  16 -14 3752.24  139.10
 -13  17 -15 1672.91   98.65
 -12  18 -16   20.13   46.71
 -11  19 -17  243.43   61.77
  19  17  11  291.45   18.48
 -10  20 -18  100.03   56.58
  -9  21 -19  -34.88   60.00
  -8  22 -20   56.47   60.12
  -7  23 -21 1476.11  107.98
  -6  24 -22 3186.47  156.81
  -5  25 -23 1368.01  117.86
  -4  26 -24   -7.99   66.38
  -3  27 -25  293.06   81.59
  -2  28 -26  -69.22   73.45
  -1  29 -27  136.03   63.81
   0  30 -28  174.67   80.90
   1  31 -29  453.83   86.55
   2  32 -30 1418.72  137.41
   3  33 -31  757.53  115.09
   4  34 -32   33.65   87.89
  13  43 -13 -116.63   68.99
  12  42 -12    2.54   68.42
  11  41 -11  499.62   87.32
  10  40 -10 2007.19  142.17
   9  39  -9  964.20  101.61
   8  38  -8   38.57   56.97
   7  37  -7  703.79   86.89
   6  36  -6  642.56   78.33
   5  35  -5   -1.57   46.56
   4  34  -4   62.42   53.28
   3  33  -3 1013.72   84.97
   2  32  -2 3272.64  135.68
   1  31  -1 2009.53  107.14
   0  30   0   71.87   45.79
  -1  29   1 1402.86   87.28
  -2  28   2 1224.15   80.29
  -3  27   3   -3.03   37.42
  -4  26   4   16.63   37.80
  -5  25   5  872.08   65.11
   5 -25  -5  827.48   65.57
   6 -24  -6 4288.39  132.99
  -6  24   6 4583.57  125.42
  -7  23   7 3645.14  106.98
  -7  -7 -23 3554.10   82.86
   7 -23  -7 3378.16  117.55
   8 -22  -8   71.80   37.95
  -8  -8 -22    6.57   20.01
 -21   9  -9 1775.44   87.24
  -9  -9 -21 1627.93   48.94
   9 -21  -9 1599.73   82.21
 -20  10 -10 1776.82   89.66
  10 -20 -10 1724.81   86.09
 -10 -10 -20 1727.69   41.79
 -19  11 -11  108.87   44.25
 -18  12 -12   35.15   42.79
 -17  13 -13  904.70   75.25
 -16  14 -14 3829.42  139.10
 -15  15 -15 1589.97   95.84
 -14  16 -16    1.65   45.98
 -13  17 -17 1659.77  100.84
 -12  18 -18 1434.82  102.91
 -11  19 -19   54.93   48.75
  19  19  11   46.10   10.99
  19  19  11   31.85    9.18
 -10  20 -20  -28.16   45.21
  -9  21 -21  289.26   68.99
  -8  22 -22 2152.28  132.22
  -7  23 -23 1676.17  120.43
  -6  24 -24  112.48   59.70
  -5  25 -25  863.21   99.34
  -4  26 -26  710.51   91.27
  -3  27 -27  146.59   61.89
  -2  28 -28  -96.46   76.56
  -1  29 -29  344.00   84.09
   0  30 -30 1578.87  142.21
   1  31 -31  945.46  112.52
   2  32 -32  160.57   88.28
   3  33 -33  672.60  113.17
   2  32 -34 1285.96  137.22
   1  31 -33  774.78  109.33
   0  30 -32  -24.09   74.06
  -1  29 -31  793.30  112.02
  -2  28 -30  629.88   96.42
  -3  27 -29   -9.95   72.37
  -4  26 -28  136.56   75.22
  -5  25 -27  825.37  102.64
  -6  24 -26 2906.82  160.96
  -7  23 -25 2088.05  138.02
  23  25   7 2111.79   71.80
  -8  22 -24  -22.82   60.35
  22  24   8    2.61   19.55
  -9  21 -23  974.00   94.12
  21  23   9  989.17   44.29
 -10  20 -22  709.51   79.06
  20  22  10  640.94   31.04
 -11  19 -21   -8.41   52.44
  19  21  11   17.09    9.14
 -12  18 -20   74.64   42.49
 -13  17 -19  815.73   80.17
 -14  16 -18 3416.54  140.64
 -15  15 -17 2651.82  121.70
 -16  14 -16  119.47   45.14
 -17  13 -15 1664.46   96.19
 -18  12 -14 1038.96   75.25
 -19  11 -13   65.80   39.18
 -20  10 -12   58.58   39.64
 -21   9 -11 1393.60   79.56
  -9 -11 -21 1323.18   38.64
 -22   8 -10 4501.25  127.80
  -8 -10 -22 4630.78   79.98
  -8  24   6   -7.22   31.15
  -7  25   5 1559.74   82.01
  -6  26   4 1146.40   74.18
  -5  27   3  133.30   43.64
  -4  28   2   14.75   36.95
  -3  29   1  565.81   61.31
  -2  30   0 3023.29  122.96
  -1  31  -1 2154.16  108.71
   0  32  -2   66.65   52.21
   1  33  -3 1681.78  105.68
   2  34  -4 1396.25  101.15
   3  35  -5  113.98   58.27
   4  36  -6  -65.30   50.48
   5  37  -7  417.45   73.99
   6  38  -8 1960.25  130.46
   7  39  -9 1261.91  112.59
   8  40 -10  -63.92   65.46
   9  41 -11  657.39   93.58
  10  42 -12  989.29  111.44
  11  43 -13  128.84   73.06
   3  31 -35  372.93   94.23
   2  30 -34  -10.06   63.61
   1  29 -33  687.12  111.48
   0  28 -32  849.53  112.02
  28  32   0 1011.95   75.60
  -1  27 -31  338.78   75.10
  27  31   1  265.29   47.75
  -2  26 -30  115.01   77.71
  26  30   2  -18.71   36.07
  -3  25 -29   99.11   67.42
  25  29   3   35.69   31.27
  24  28   4  728.99   55.78
  -4  24 -28  828.25   96.23
  23  27   5  750.04   51.97
  -5  23 -27  720.15   95.04
  -6  22 -26   47.44   59.73
  22  26   6   24.28   25.66
  -7  21 -25 1344.35  107.14
  21  25   7 1451.07   63.23
  -8  20 -24 2276.40  131.19
  20  24   8 2189.39   66.99
  -9  19 -23  489.17   71.68
  19  23   9  636.49   34.73
  18  22  10   11.91   12.06
 -10  18 -22   76.56   51.67
 -11  17 -21   57.35   43.98
  17  21  11   33.92    7.91
 -12  16 -20  698.34   76.98
 -13  15 -19  661.50   72.87
 -14  14 -18  106.83   54.51
 -15  13 -17 1725.27   97.27
 -16  12 -16 3257.31  126.23
 -17  11 -15  839.55   69.72
 -18  10 -14  -22.63   36.46
 -19   9 -13   27.24   38.53
 -20   8 -12  666.41   61.27
  -8 -12 -20  603.34   23.59
 -21   7 -11 1169.03   72.72
  -9  23   5 1905.24   89.58
  -8  24   4 2813.55  108.25
  -7  25   3  872.51   69.57
  -6  26   2  -54.89   42.33
  -5  27   1   30.65   37.19
  -4  28   0  446.57   59.20
  -3  29  -1  608.71   66.11
  -2  30  -2  -41.53   46.06
  -1  31  -3 1474.08   96.11
   0  32  -4 3044.46  137.79
   1  33  -5  790.57   82.32
   2  34  -6   39.72   47.60
   3  35  -7    1.15   57.28
   4  36  -8  199.29   65.88
   5  37  -9  312.65   73.41
   6  38 -10   20.55   67.26
   7  39 -11  779.31   98.03
   8  40 -12 1170.33  114.44
   9  41 -13  283.15   82.25
  10  42 -14   68.84   71.22
  11  43 -15  -92.19   80.56
   4  30 -36 -146.47   81.67
   3  29 -35  200.64   85.89
  28  34  -2  613.48   67.61
   2  28 -34  453.10   94.85
  27  33  -1  218.23   50.51
   1  27 -33  307.81   86.59
  26  32   0  -19.21   38.26
   0  26 -32 -107.83   68.53
  25  31   1   51.51   40.72
  -1  25 -31  115.93   76.37
  24  30   2    4.92   33.15
  -2  24 -30  125.92   68.03
  23  29   3   23.59   32.08
  -3  23 -29  -48.59   71.87
  22  28   4  -20.17   34.46
  -4  22 -28  128.27   68.95
  21  27   5  464.74   46.02
  -5  21 -27  437.16   81.71
  20  26   6 1155.74   59.00
  -6  20 -26 1208.09  108.06
  19  25   7  514.29   38.61
  -7  19 -25  641.21   84.05
  18  24   8   -8.30   19.36
  -8  18 -24   -4.03   52.09
  17  23   9  226.68   24.24
  -9  17 -23  256.99   58.12
  16  22  10  143.44   16.94
 -10  16 -22  179.43   58.01
 -11  15 -21  -36.46   39.87
 -12  14 -20  -42.03   48.59
 -13  13 -19  261.99   59.04
 -14  12 -18 1033.62   80.36
 -15  11 -17  911.38   73.29
 -16  10 -16  -23.89   41.64
 -17   9 -15  366.20   51.63
 -18   8 -14   90.47   40.80
  19  -7  13  -63.96   44.14
 -19   7 -13   -6.72   36.65
 -20   6 -12  -24.89   33.07
  20  -6  12   -9.87   35.19
  21  -5  11  412.42   51.55
 -21   5 -11  501.73   49.25
  22  -4  10 1512.30   80.94
 -10  22   4 1449.68   81.28
  -9  23   3 1024.05   71.80
  23  -3   9  915.91   66.38
  -8  24   2   38.34   40.68
  24  -2   8   65.53   40.64
  -7  25   1  312.65   48.09
  -6  26   0  351.22   56.35
  -5  27  -1   32.46   44.91
  -4  28  -2  -24.01   44.48
  -3  29  -3  244.01   57.97
  -2  30  -4 1008.19   81.17
  -1  31  -5  450.14   63.11
   0  32  -6   68.45   51.21
   1  33  -7  193.57   59.39
   2  34  -8  -35.19   58.35
   3  35  -9    6.15   52.47
   4  36 -10  -18.75   60.58
   5  37 -11  281.77   70.87
   6  38 -12  538.76   82.59
   7  39 -13  350.42   84.40
   8  40 -14   79.13   74.95
   9  41 -15  108.37   67.96
  10  42 -16   14.98   74.29
   5  29 -37   54.24   79.25
   4  28 -36  -35.15   78.63
  28  36  -4  -28.81   53.28
  27  35  -3  101.45   51.01
   3  27 -35 -179.32   88.85
  26  34  -2  -14.02   42.56
   2  26 -34 -124.65   85.09
  25  33  -1  142.82   48.33
   1  25 -33  139.41   59.43
   0  24 -32  261.49   75.95
  24  32   0  283.00   56.05
  23  31   1  150.43   41.37
  -1  23 -31  154.46   68.99
  22  30   2   10.18   35.11
  -2  22 -30   16.86   65.57
  21  29   3    3.50   32.81
  -3  21 -29   31.19   48.13
  20  28   4   73.60   31.96
  -4  20 -28  107.98   65.34
  -5  19 -27   58.47   56.09
  19  27   5    7.57   25.85
  -6  18 -26  -83.13   51.24
  18  26   6   21.93   26.93
  -7  17 -25  186.96   62.81
  17  25   7  231.37   33.23
  16  24   8  687.16   39.95
  -8  16 -24  688.46   74.18
  -9  15 -23  434.24   66.96
  15  23   9  425.40   29.46
 -10  14 -22   35.92   45.41
  14  22  10   16.86   12.64
 -11  13 -21   99.92   50.55
  13  21  11   56.85    7.84
 -12  12 -20   66.11   42.83
 -13  11 -19   75.79   43.22
 -14  10 -18  -47.40   42.60
 -15   9 -17  455.52   59.77
  16  -8  16 1066.38   70.99
 -16   8 -16 1391.52   81.25
 -17   7 -15  345.69   49.40
  17  -7  15  316.07   49.09
  -6 -14 -18   13.37    8.41
  18  -6  14   27.47   29.89
 -18   6 -14    5.88   34.38
 -19   5 -13   44.33   31.46
  19  -5  13   81.78   40.37
 -20   4 -12   15.48   31.35
  20  -4  12   58.51   39.07
 -11  21   3  -21.51   32.04
  21  -3  11  -13.75   32.38
  22  -2  10    2.07   33.04
 -10  22   2  -11.64   32.34
  23  -1   9  354.68   47.36
  -9  23   1  331.40   48.56
  24   0   8  763.52   60.16
  -8  24   0  876.58   71.34
  -7  25  -1  266.98   48.40
  25   1   7  274.66   42.99
  26   2   6  -16.52   30.81
  -6  26  -2   10.41   42.56
  -5  27  -3   62.85   44.33
  -4  28  -4   43.68   42.10
  -3  29  -5   -9.07   50.55
  -2  30  -6  -53.20   49.82
  -1  31  -7  114.32   56.35
   0  32  -8  443.38   74.95
   1  33  -9  -47.94   52.36
   2  34 -10  -89.66   64.15
   3  35 -11   48.82   57.58
   4  36 -12   79.98   62.46
   5  37 -13  143.52   68.30
   6  38 -14   -3.23   67.15
   7  39 -15    2.46   58.81
   8  40 -16  523.82  103.53
   9  41 -17  179.05   72.64
  10  42 -18   93.27   83.44
  27  37  -5  142.33   59.20
   5  27 -37  152.81   75.56
  26  36  -4   38.18   48.44
   4  26 -36   38.15   71.80
  25  35  -3   14.94   45.71
   3  25 -35  -44.98   67.80
   2  24 -34  218.58   65.15
  24  34  -2  123.43   51.59
  23  33  -1  271.94   58.08
   1  23 -33  133.22   71.22
  22  32   0   -9.30   36.76
   0  22 -32  -53.63   65.69
  21  31   1  265.98   46.87
  -1  21 -31  298.56   63.04
  20  30   2  779.89   62.50
  -2  20 -30  810.97   94.61
  19  29   3  152.12   36.19
  -3  19 -29  128.61   60.77
  18  28   4    4.96   28.89
  -4  18 -28  -80.21   57.35
  17  27   5   29.96   29.73
  -5  17 -27   23.70   54.82
  -6  16 -26  150.51   57.78
  16  26   6  220.77   34.77
  15  25   7  331.86   34.65
  -7  15 -25  254.57   56.55
  -8  14 -24  -41.14   48.52
  14  24   8  -15.17   19.59
  -9  13 -23 1054.09   84.32
  13  23   9 1032.46   41.53
  12  22  10 1714.70   45.02
 -10  12 -22 1781.12  102.07
  11  21  11  486.94   20.32
 -11  11 -21  528.12   66.84
 -12  10 -20   10.64   42.95
 -13   9 -19   28.04   37.65
  14  -8  18   60.39   32.96
 -14   8 -18   97.19   40.80
 -15   7 -17  387.14   51.13
  15  -7  17  366.47   47.67
  -6 -16 -16   51.78    9.03
 -16   6 -16   59.89   36.88
  16  -6  16   78.56   37.76
 -17   5 -15  788.88   61.39
  -5 -15 -17  731.14   26.89
  17  -5  15  786.73   59.04
  18  -4  14 1715.40   81.63
 -18   4 -14 1726.69   82.05
  19  -3  13  700.56   58.47
 -19   3 -13  662.19   51.67
 -13  19   3  664.53   57.54
  20  -2  12   10.30   32.65
 -12  20   2  110.94   38.18
 -20   2 -12   19.44   28.27
 -11  21   1  114.86   43.83
  21  -1  11  101.34   35.69
  22   0  10   71.22   33.69
 -10  22   0  -25.78   41.33
  23   1   9  455.48   48.63
  -9  23  -1  381.22   54.16
  24   2   8   20.74   29.50
  -8  24  -2   52.70   43.41
  25   3   7  922.29   64.46
  -7  25  -3  936.66   75.41
  26   4   6 1125.43   67.49
  -6  26  -4 1325.99   91.23
  27   5   5  278.54   39.30
  -5  27  -5  301.51   60.96
  -4  28  -6    3.73   40.03
  -3  29  -7   20.74   51.28
  -2  30  -8   40.37   50.25
  -1  31  -9  219.23   53.97
   0  32 -10  -77.67   64.73
   1  33 -11  213.01   57.43
   2  34 -12  786.69   92.31
   3  35 -13  281.31   73.76
   4  36 -14    8.99   64.34
   5  37 -15  109.52   64.04
   6  38 -16  127.73   73.60
   7  39 -17  145.40   79.63
   8  40 -18   19.05   73.41
   9  41 -19  251.08   72.53
   6  26 -38    8.72   59.16
  26  38  -6  -11.56   52.94
  25  37  -5  238.75   62.00
   5  25 -37  262.49   85.66
  24  36  -4  225.30   60.81
   4  24 -36  199.14   75.71
   3  23 -35   79.71   58.16
  23  35  -3   90.58   47.33
   2  22 -34    2.73   60.27
  22  34  -2   11.06   43.22
   1  21 -33  595.46   92.77
  21  33  -1  408.15   57.08
  20  32   0 1409.77   83.70
   0  20 -32 1527.51  120.70
  -1  19 -31  994.86  102.07
  19  31   1 1117.71   73.29
  18  30   2   -6.22   33.73
  -2  18 -30   26.39   47.10
  17  29   3  553.21   52.94
  -3  17 -29  593.50   79.98
  16  28   4  121.43   34.61
  -4  16 -28  149.74   57.43
  15  27   5   30.81   27.20
  -5  15 -27  -41.56   47.29
  14  26   6   -3.46   25.28
  -6  14 -26    7.03   42.76
  -7  13 -25  492.09   63.84
  13  25   7  696.57   45.25
  12  24   8 3443.66   82.13
  -8  12 -24 3384.62  137.64
  -9  11 -23 2138.11  107.52
  11  23   9 2258.08   60.31
 -10  10 -22   -2.84   43.98
  10  22  10   13.71   13.41
 -11   9 -21 1229.80   80.63
   9  21  11 1259.65   33.46
 -12   8 -20  606.33   59.35
  13  -7  19   13.45   31.62
 -13   7 -19  -34.30   37.61
  14  -6  18  -19.63   32.23
 -14   6 -18  -50.51   41.76
  -6 -18 -14   -0.15    8.99
  15  -5  17  710.13   55.28
 -15   5 -17  862.48   63.23
  -5 -17 -15  733.41   28.54
 -16   4 -16 3704.80  112.52
  16  -4  16 3736.45  113.36
  -4 -16 -16 3845.67   65.30
 -17   3 -15 1861.25   80.32
  -3 -15 -17 1901.09   48.79
  17  -3  15 1884.96   82.36
  18  -2  14   69.91   35.96
 -14  18   2   91.89   38.61
 -18   2 -14  -32.38   31.35
 -19   1 -13 1075.99   58.20
  19  -1  13 1103.84   65.19
 -13  19   1 1105.37   73.37
 -12  20   0 1146.40   77.37
  20   0  12 1166.99   65.46
  21   1  11  108.14   34.23
 -11  21  -1   47.52   42.79
  22   2  10   21.74   30.04
 -10  22  -2  -20.32   38.49
  -9  23  -3  967.58   74.22
  23   3   9  958.06   61.66
  24   4   8 2838.40   97.73
  -8  24  -4 2737.49  117.62
  -7  25  -5 1629.65   96.07
  25   5   7 1662.73   77.67
  -6  26  -6   44.83   47.94
  26   6   6   19.63   29.66
  -5  27  -7  921.37   83.90
  -4  28  -8  570.99   72.99
  -3  29  -9   65.42   53.43
  -2  30 -10   54.63   59.81
  -1  31 -11  160.46   53.36
   0  32 -12 1119.01  104.14
   1  33 -13  850.80   96.15
   2  34 -14   20.13   60.50
   3  35 -15  580.90   93.31
   4  36 -16  475.11   89.58
   5  37 -17   49.44   62.73
   6  38 -18    5.72   71.41
   7  39 -19  258.91   74.02
   8  40 -20 1024.01  122.85
   9  41 -21  655.20  112.63
   7  25 -39 1039.15  125.54
  25  39  -7  852.30   90.85
  24  38  -6 1509.49  112.63
   6  24 -38 1657.04  144.86
   5  23 -37  324.06   87.89
  23  37  -5  301.17   63.19
   4  22 -36  -55.66   72.07
  22  36  -4   -6.72   46.56
   3  21 -35   20.44   66.53
  21  35  -3   19.21   44.98
   2  20 -34 1031.89  110.63
  20  34  -2 1014.72   80.09
  19  33  -1  927.75   76.06
   1  19 -33 1268.10  116.32
   0  18 -32  100.61   59.24
  18  32   0    6.65   43.29
  -1  17 -31 1376.46  110.94
  17  31   1 1392.18   82.36
  -2  16 -30 2143.37  130.03
  16  30   2 1933.44   91.58
  15  29   3  456.32   51.82
  -3  15 -29  401.39   63.77
  -4  14 -28  -33.27   43.87
  14  28   4    6.34   30.65
  13  27   5   22.55   28.00
  -5  13 -27  -10.64   46.40
  12  26   6 1399.13   64.46
  -6  12 -26 1435.70   96.27
  -7  11 -25 1985.33  109.52
  11  25   7 2193.04   72.87
  -8  10 -24  -12.91   43.10
  10  24   8   -4.72   21.47
  -9   9 -23 2999.28  120.62
   9  23   9 2853.61   69.91
 -10   8 -22 4564.09  142.94
   8  22  10 4335.45   78.60
 -11   7 -21 1189.50   77.87
 -12   6 -20   -5.88   35.61
 -13   5 -19   33.96   37.15
  -5 -19 -13   64.11   15.60
 -14   4 -18 1747.16   82.28
  -4 -18 -14 1693.42   48.02
  14  -4  18 1666.92   76.02
  15  -3  17 1973.08   80.32
  -3 -17 -15 1929.56   53.13
  -2 -16 -16  -11.91   18.17
 -16   2 -16   -0.19   30.23
  16  -2  16   40.14   28.62
  17  -1  15 2817.74   92.23
 -15  17   1 3068.58  107.21
  -1 -15 -17 2884.35   64.46
 -17   1 -15 2908.82   91.62
  18   0  14 4629.97  116.97
 -18   0 -14 4650.03  106.41
 -14  18   0 4702.12  136.18
 -13  19  -1 1092.77   77.60
  19   1  13 1025.66   58.97
 -12  20  -2  104.06   42.87
  20   2  12   25.16   27.77
  21   3  11  -27.47   28.16
 -11  21  -3  -54.39   42.60
 -10  22  -4 1227.61   83.21
  22   4  10 1325.34   63.42
  23   5   9 1916.11   77.41
  -9  23  -5 1819.96   98.65
  -8  24  -6   81.36   43.52
  24   6   8   36.26   29.81
  -7  25  -7 3100.31  130.26
  25   7   7 3003.66   96.69
  -6  26  -8 3956.61  151.51
  -5  27  -9  643.02   76.94
  -4  28 -10    5.76   49.59
  -3  29 -11   77.41   57.39
  -2  30 -12  296.87   67.46
  -1  31 -13  830.29   90.54
   0  32 -14  -13.75   48.33
   1  33 -15 1425.29  113.71
   2  34 -16 2051.64  136.22
   3  35 -17  701.22   93.15
   4  36 -18 -107.06   77.83
   5  37 -19  -59.39   66.57
   6  38 -20  711.55  110.13
   7  39 -21  574.10   98.61
   8  40 -22  -76.83   69.30
   8  24 -40 2143.29  159.57
  24  40  -8 1924.02  132.03
   7  23 -39 1233.37  127.38
  23  39  -7  783.69   90.70
   6  22 -38  181.28   85.28
  22  38  -6   13.06   54.39
   5  21 -37   95.58   67.69
  21  37  -5  217.96   59.43
  20  36  -4   14.33   47.29
   4  20 -36  111.36   76.25
  19  35  -3  393.98   63.19
   3  19 -35  435.00   81.78
   2  18 -34  -34.42   62.31
  18  34  -2   90.31   50.44
  17  33  -1 1510.76   93.50
   1  17 -33 1586.02  115.93
   0  16 -32 3144.76  152.70
  16  32   0 3367.60  128.19
  -1  15 -31 1402.20  105.60
  15  31   1 1468.43   84.24
  14  30   2   67.38   39.72
  -2  14 -30   89.08   57.20
  13  29   3  133.91   41.33
  -3  13 -29  -72.56   60.04
  12  28   4  -52.78   32.54
  -4  12 -28   -9.60   47.67
  11  27   5  486.36   46.79
  -5  11 -27  460.63   64.34
  10  26   6    1.81   26.58
  -6  10 -26   -1.65   43.64
   9  25   7 2936.86   84.28
  -7   9 -25 2598.00  112.48
  -8   8 -24 6470.37  171.90
   8  24   8 6795.82  118.62
   7  23   9 3135.77   76.79
  -9   7 -23 3164.46  117.59
   6  22  10  -11.79   17.21
 -10   6 -22  -16.67   38.84
 -11   5 -21  394.25   52.01
  -5 -21 -11  402.81   29.00
 -12   4 -20  -16.17   33.00
  -4 -20 -12   15.06   18.13
  -3 -19 -13  635.34   36.53
 -13   3 -19  713.74   56.35
  -2 -18 -14    2.73   19.63
  14  -2  18   -9.07   25.78
 -14   2 -18   36.34   32.50
  -1 -17 -15 2801.52   70.38
  15  -1  17 2866.79   89.81
 -15   1 -17 2694.85   87.97
   0 -16 -16 6634.86  108.10
  16   0  16 6523.92  131.15
 -16  16   0 6720.33  153.66
 -16   0 -16 6689.60  130.88
 -17  -1 -15 2804.02   82.82
 -15  17  -1 2804.79  109.75
  17   1  15 2870.94   87.28
  18   2  14  -13.56   25.78
 -18  -2 -14  -21.59   20.55
 -13  19  -3  622.24   65.04
  19   3  13  628.27   43.49
  20   4  12  -31.73   28.04
 -12  20  -4  -18.05   41.68
 -11  21  -5  356.41   55.55
  21   5  11  487.25   42.26
 -10  22  -6  -38.80   39.91
  22   6  10   33.96   25.12
  -9  23  -7 3113.06  129.76
  23   7   9 3052.75   91.96
  24   8   8 6649.84  132.99
  -8  24  -8 6955.73  190.57
  -7  25  -9 2963.94  133.87
  25   9   7 2840.48   88.51
  -6  26 -10   -2.04   45.14
  -5  27 -11  602.88   70.91
  -4  28 -12  -22.20   48.98
  -3  29 -13  198.56   68.84
  -2  30 -14   49.67   46.79
  -1  31 -15 1561.12  118.35
   0  32 -16 3440.89  170.21
   1  33 -17 1494.74  122.50
   2  34 -18   -2.23   62.77
   3  35 -19  349.57   73.56
   4  36 -20  134.80   77.02
   5  37 -21   83.51   65.34
   6  38 -22   86.97   70.34
   7  39 -23 1127.81  127.73
   8  40 -24 1852.38  155.16
   8  22 -40  -41.53   62.73
  22  40  -8 -102.72   62.85
  21  39  -7  698.76   86.74
   7  21 -39  663.26   94.35
   6  20 -38  512.60   86.39
  20  38  -6  557.24   80.44
  19  37  -5   56.66   54.20
   5  19 -37  -40.95   63.46
  18  36  -4  -20.78   47.60
   4  18 -36   50.55   60.04
  17  35  -3  689.42   75.41
   3  17 -35  563.08   84.24
   2  16 -34 1995.24  124.08
  16  34  -2 2213.78  112.86
  15  33  -1 1467.47   91.89
   1  15 -33 1440.96  105.10
  14  32   0  -10.14   37.99
   0  14 -32  -67.34   58.81
  13  31   1  897.63   71.72
  -1  13 -31  884.07   84.43
  12  30   2  292.64   47.60
  -2  12 -30  424.10   65.27
  -3  11 -29  -14.87   47.25
  11  29   3   24.82   34.46
  10  28   4   -8.53   32.65
  -4  10 -28   85.59   51.90
   9  27   5  792.83   57.05
  -5   9 -27  769.09   72.26
   8  26   6 4069.93  105.49
  -6   8 -26 4011.27  136.45
  -7   7 -25 2863.33  111.75
   7  25   7 2842.09   85.43
   6  24   8   -6.91   23.47
  -8   6 -24   21.70   36.92
   5  23   9 1929.82   65.15
  -9   5 -23 1899.52   90.54
  -4 -22 -10 1358.26   52.36
 -10   4 -22 1359.68   76.14
   4  22  10 1419.87   52.32
  -3 -21 -11  -30.81   20.90
 -11   3 -21   41.14   36.80
  -2 -20 -12    5.30   21.90
 -12   2 -20   27.66   33.19
 -13   1 -19  993.55   61.77
  -1 -19 -13 1105.11   49.52
   0 -18 -14 4814.17   98.15
 -14   0 -18 4670.12  112.71
  14   0  18 4671.42  104.37
 -17  15  -1 2780.97  101.68
   1 -17 -15 2803.83   77.60
 -15  -1 -17 2793.88   84.36
  15   1  17 2986.49   87.51
 -16  -2 -16   11.33   28.77
   2 -16 -16   -9.45   20.44
 -16  16  -2   28.23   39.22
  16   2  16   -2.15   22.09
 -15  17  -3 1848.89   95.31
 -17  -3 -15 1869.82   61.89
  17   3  15 1888.49   67.42
  18   4  14 1676.60   63.96
 -14  18  -4 1607.45   90.58
 -13  19  -5  131.65   42.14
  19   5  13   96.11   25.01
 -12  20  -6   26.54   44.33
  20   6  12   -9.03   23.78
  21   7  11 1189.16   55.39
 -11  21  -7  988.98   77.33
  22   8  10 4619.06  105.41
 -10  22  -8 4481.35  151.85
  23   9   9 2794.38   84.78
  -9  23  -9 2834.14  125.23
  24  10   8  -17.79   23.16
  -8  24 -10   17.25   53.82
  -7  25 -11 1945.27  111.25
  -6  26 -12 1355.14   97.50
  -5  27 -13   27.24   49.32
  -4  28 -14   61.62   54.01
  -3  29 -15  560.58   80.02
  -2  30 -16 2114.02  132.49
  -1  31 -17 1453.95  118.74
   0  32 -18  -55.16   70.45
   1  33 -19 1196.88  117.89
   2  34 -20 1034.58  108.29
   3  35 -21  275.43   81.90
   4  36 -22   28.08   67.34
   5  37 -23  141.29   76.37
   6  38 -24 1622.74  144.51
   7  39 -25  818.65  111.36
   9  21 -41  719.58   98.00
  21  41  -9  570.15   88.51
   8  20 -40  813.81  108.79
  20  40  -8  807.16   94.27
  19  39  -7  277.58   71.11
   7  19 -39  272.36   78.21
  18  38  -6   -1.23   50.94
  17  37  -5   19.17   51.13
  16  36  -4  434.47   73.26
  15  35  -3  553.17   67.92
  14  34  -2   11.26   45.21
   2  14 -34  -22.32   46.90
  13  33  -1 1005.11   81.36
   1  13 -33  949.22   89.58
  12  32   0 1089.66   78.71
   0  12 -32 1032.89   88.51
  11  31   1  137.41   41.53
  -1  11 -31  174.86   55.05
  10  30   2   38.99   36.30
  -2  10 -30    4.84   38.68
  -3   9 -29   39.11   36.80
   9  29   3  -18.94   33.69
   8  28   4  581.94   54.28
  -4   8 -28  580.29   60.89
  -5   7 -27  908.19   76.44
   7  27   5  797.94   56.74
   6  26   6   16.67   27.27
  -6   6 -26    4.11   39.18
  -7   5 -25 1660.31   87.51
   5  25   7 1596.81   68.30
   4  24   8 2866.25   84.74
  -4 -24  -8 2922.11   80.90
  -8   4 -24 2745.05  104.33
  -3 -23  -9 1022.02   50.67
   3  23   9  846.35   47.48
  -9   3 -23 1046.41   69.22
 -10   2 -22    2.77   33.11
  -2 -22 -10  -37.61   23.16
 -11   1 -21   82.21   33.04
  -1 -21 -11   74.29   25.28
 -12   0 -20 1154.89   61.54
   0 -20 -12 1194.61   56.74
 -13  -1 -19 1062.35   57.24
   1 -19 -13 1131.61   55.39
   2 -18 -14   -8.80   25.12
 -14  -2 -18   11.68   26.62
   3 -17 -15 1953.10   69.91
 -15  -3 -17 1883.07   64.34
  15   3  17 1795.18   60.73
 -16  -4 -16 3816.32   82.48
  16   4  16 3662.05   83.44
 -16  16  -4 3575.69  124.77
   4 -16 -16 3716.86   91.00
 -15  17  -5  726.76   66.03
  17   5  15  766.94   42.14
 -14  18  -6  -17.79   42.06
  18   6  14   21.24   22.05
 -13  19  -7  -18.98   44.60
  19   7  13   24.82   20.28
  20   8  12  651.01   38.99
 -12  20  -8  704.44   70.87
  21   9  11 1351.42   54.74
 -11  21  -9 1268.71   88.78
  22  10  10    5.72   22.74
 -10  22 -10   10.14   49.94
  -9  23 -11 2161.12  116.17
  23  11   9 2207.60   71.45
  -8  24 -12 3316.51  142.17
  -7  25 -13  626.31   74.87
  -6  26 -14  -64.73   57.62
  -5  27 -15   43.87   55.82
  -4  28 -16   92.04   48.02
  -3  29 -17  687.73   91.73
  -1  31 -19 1038.80  110.13
   0  32 -20 1564.23  130.46
   1  33 -21  546.60   93.73
   2  34 -22   92.43   70.91
   3  35 -23  -92.08   72.91
   4  36 -24  178.59   80.17
   5  37 -25  369.70   89.39
   6  38 -26    9.33   76.14
  19  41  -9  293.60   73.68
  18  40  -8   33.84   62.04
  17  39  -7  224.65   64.57
  16  38  -6   11.79   50.48
  15  37  -5   64.46   53.09
  14  36  -4  -32.15   48.17
  13  35  -3  457.09   69.80
  12  34  -2  797.64   78.60
  11  33  -1  167.18   48.02
  10  32   0  -28.50   40.45
   9  31   1  308.62   52.36
   8  30   2  102.60   40.45
  -2   8 -30   54.82   46.33
  -3   7 -29  -18.67   39.03
   7  29   3   33.54   33.38
  -4   6 -28   25.66   38.30
   6  28   4    9.64   32.50
   5  27   5  267.94   39.64
  -5   5 -27  349.19   51.24
   4  26   6 1242.09   65.27
  -6   4 -26 1230.99   79.75
   3  25   7  887.53   54.28
  -3 -25  -7  895.94   51.59
  -7   3 -25  853.57   62.15
  -2 -24  -8   29.81   25.78
   2  24   8  -33.27   25.16
  -8   2 -24  -37.88   31.15
   1  23   9  365.86   36.19
  -9   1 -23  406.12   47.67
  -1 -23  -9  402.54   39.91
 -10   0 -22  -25.93   28.70
   0 -22 -10   10.60   27.31
 -11  -1 -21   95.77   32.73
   1 -21 -11  160.65   32.65
 -12  -2 -20    2.65   24.47
   2 -20 -12   -5.95   25.08
 -13  -3 -19  691.84   44.71
   3 -19 -13  763.33   49.90
 -18  14  -4 1712.05   89.70
   4 -18 -14 1640.06   69.26
 -14  -4 -18 1783.89   62.12
   5 -17 -15  691.96   47.79
 -17  15  -5  704.67   64.88
 -15  -5 -17  804.17   40.30
 -16  16  -6   37.19   46.75
  16   6  16   60.08   18.90
 -15  17  -7  422.37   64.34
  17   7  15  432.82   29.89
  18   8  14   75.41   20.74
 -14  18  -8   50.05   38.72
  19   9  13   87.12   22.36
 -13  19  -9  103.37   46.64
 -12  20 -10    2.61   50.48
  20  10  12    6.22   18.90
  21  11  11  540.87   36.76
 -11  21 -11  616.44   75.41
  22  12  10 1881.08   62.46
 -10  22 -12 1777.86  105.41
  -9  23 -13 1049.40   89.70
  23  13   9 1011.99   46.60
  -8  24 -14   95.08   59.66
  -7  25 -15  213.78   60.08
  -6  26 -16   83.17   65.53
  -5  27 -17  -84.13   54.47
  -4  28 -18   50.02   66.19
  -3  29 -19  198.45   74.87
  -2  30 -20  836.09  108.17
  -1  31 -21  320.91   84.59
   0  32 -22  133.99   73.72
   1  33 -23  256.65   70.84
   2  34 -24  305.01   88.43
   3  35 -25  -48.75   69.45
   4  36 -26   21.74   70.49
   5  37 -27  227.68   96.50
  18  42 -10   24.28   64.04
  17  41  -9  119.74   64.31
  16  40  -8  442.15   79.21
  15  39  -7  149.43   62.58
  14  38  -6    2.80   53.66
  13  37  -5  -73.41   52.40
  12  36  -4   -0.12   50.21
  11  35  -3   44.56   47.71
  10  34  -2  -20.59   42.79
   9  33  -1   26.58   39.95
   8  32   0  379.46   55.78
   7  31   1   52.51   37.26
   6  30   2  -41.68   39.80
   5  29   3   47.33   37.45
   4  28   4   -3.38   31.27
  -4   4 -28   -6.07   35.46
   3  27   5  127.92   34.73
  -5   3 -27   95.31   37.49
  -6   2 -26   11.10   31.88
   2  26   6   -6.42   30.96
  -2 -26  -6   12.06   28.04
  -7   1 -25  271.55   40.26
   1  25   7  306.70   41.10
  -1 -25  -7  389.29   40.18
   0  24   8  853.30   54.63
  -8   0 -24  808.66   55.28
   0 -24  -8  883.76   55.16
   1 -23  -9  392.79   42.99
  -1  23   9  421.75   38.76
  -9  -1 -23  358.71   41.37
 -10  -2 -22  -28.20   25.62
   2 -22 -10  -30.58   28.12
   3 -21 -11   -4.53   28.73
 -11  -3 -21    0.73   25.24
   4 -20 -12  -61.92   28.12
 -12  -4 -20  -22.86   23.89
 -13  -5 -19   62.96   23.16
 -19  13  -5   20.28   39.68
   5 -19 -13   39.80   29.39
 -18  14  -6   -8.30   35.30
   6 -18 -14   32.15   30.27
 -14  -6 -18   -1.27   18.36
   7 -17 -15  417.03   43.64
 -17  15  -7  425.13   58.12
 -16  16  -8 1069.53   79.29
  16   8  16 1220.35   38.18
  17   9  15  404.04   24.24
 -15  17  -9  398.09   60.39
  18  10  14   15.14   14.29
 -14  18 -10   -4.11   41.06
 -13  19 -11   -6.61   37.84
  19  11  13   65.00   17.86
  20  12  12    0.23   16.06
 -12  20 -12   28.66   42.10
  21  13  11   56.28   18.13
 -11  21 -13   83.17   53.70
 -10  22 -14  -30.96   51.24
  22  14  10   44.98   21.74
  -9  23 -15  406.50   71.64
  -8  24 -16  777.66   88.70
  -7  25 -17  250.46   61.04
  -6  26 -18   14.29   57.93
  -5  27 -19   86.82   61.27
  -4  28 -20   63.58   69.57
  -3  29 -21  207.09   79.21
  -2  30 -22  122.39   75.83
  -1  31 -23  317.34   84.01
   0  32 -24  230.76   71.07
   1  33 -25   96.73   77.44
   2  34 -26    4.84   65.96
   3  35 -27    8.76   74.41
   4  36 -28 -203.48   96.34
   5  37 -29   71.53   85.93
  16  42 -10   80.98   67.88
  15  41  -9  206.86   71.99
  14  40  -8   76.44   61.31
  13  39  -7  272.36   65.80
  12  38  -6  527.08   79.44
  11  37  -5  156.81   61.19
  10  36  -4   63.84   51.97
   9  35  -3  -34.96   45.33
   8  34  -2  137.29   52.47
   7  33  -1  380.49   59.93
   6  32   0   31.50   44.52
   5  31   1  646.86   66.26
   4  30   2  953.87   70.07
   3  29   3  331.82   49.86
   2  28   4   31.31   31.81
  -2 -28  -4    2.88   27.85
   1  27   5   20.97   30.96
  -5   1 -27    8.72   30.19
  -1 -27  -5   -7.76   32.27
  -6   0 -26  314.15   42.41
   0  26   6  275.78   41.26
   0 -26  -6  256.69   38.22
  -1  25   7  323.95   40.72
   1 -25  -7  302.13   41.72
  -7  -1 -25  347.27   41.99
  -2  24   8   16.13   28.04
   2 -24  -8  -31.04   29.89
  -8  -2 -24   -6.11   29.92
   3 -23  -9 1008.72   63.50
  -9  -3 -23 1003.73   56.28
   4 -22 -10 1393.52   71.37
 -10  -4 -22 1391.98   61.39
 -11  -5 -21  398.20   35.15
   5 -21 -11  363.52   44.91
 -20  12  -6   10.68   33.00
 -12  -6 -20    5.15   19.71
   6 -20 -12   -4.69   29.85
   7 -19 -13    5.84   28.23
 -13  -7 -19   -5.65   17.09
 -19  13  -7   19.13   37.30
   8 -18 -14   18.05   30.42
 -14  -8 -18   64.92   13.25
   9 -17 -15  303.47   40.49
 -17  15  -9  381.99   53.17
 -16  16 -10   36.46   46.25
 -15  17 -11  826.18   77.25
  17  11  15  768.17   22.74
 -14  18 -12  996.74   85.74
  18  12  14 1012.76   29.54
  19  13  13  228.41   18.94
 -13  19 -13  266.52   64.65
  20  14  12   -4.30   13.21
 -12  20 -14   33.04   47.44
  21  15  11   21.78   15.83
 -11  21 -15   27.35   52.32
  22  16  10  170.94   21.74
 -10  22 -16  179.55   54.28
  -9  23 -17  127.34   47.98
  -8  24 -18  -13.56   48.82
  -7  25 -19  634.18   89.31
  -6  26 -20 1048.14  100.34
  -5  27 -21  438.58   79.86
  -4  28 -22   39.68   64.69
  -3  29 -23   21.78   69.80
  -2  30 -24  107.79   63.38
  -1  31 -25 -107.21   72.60
   0  32 -26  -64.57   76.56
   1  33 -27  148.97   67.11
   2  34 -28  665.91  109.02
   3  35 -29   28.04   83.36
   4  36 -30  -83.05   84.55
  15  43 -11 -138.41   74.83
  14  42 -10   66.34   64.42
  13  41  -9  546.94   89.97
  12  40  -8 1266.41  111.67
  11  39  -7  621.05   81.32
  10  38  -6   96.69   63.65
   9  37  -5  353.76   65.07
   8  36  -4  385.22   70.30
   7  35  -3   72.68   51.36
   6  34  -2   22.32   47.71
   5  33  -1  846.42   77.56
   4  32   0 2753.16  120.05
   3  31   1 1459.86   87.47
   2  30   2   32.81   39.41
   1  29   3  712.09   62.54
   0  28   4  462.97   53.40
   0 -28  -4  315.80   45.33
  -1  27   5  -19.71   36.95
   1 -27  -5   -2.65   28.35
   2 -26  -6   -3.00   32.11
  -6  -2 -26  -46.52   29.39
  -2  26   6   60.35   35.76
   3 -25  -7  965.01   67.88
  -3  25   7  884.38   59.50
  -7  -3 -25  948.18   56.12
   4 -24  -8 2790.11  101.76
  -4  24   8 2931.02   94.54
  -8  -4 -24 2832.45   87.43
   5 -23  -9 1794.34   83.47
  -9  -5 -23 1880.92   68.38
 -10  -6 -22    1.08   21.78
   6 -22 -10  -13.68   34.11
   7 -21 -11 1157.27   68.34
 -11  -7 -21 1165.80   47.17
 -21  11  -7 1171.91   71.99
   8 -20 -12  744.01   58.43
 -20  12  -8  614.25   62.42
 -12  -8 -20  746.20   34.46
   9 -19 -13  107.14   36.61
 -19  13  -9  125.88   44.25
 -13  -9 -19   73.72   13.33
 -18  14 -10   12.41   45.18
  10 -18 -14    3.50   32.58
 -17  15 -11  788.19   69.11
 -16  16 -12 3497.94  136.56
 -15  17 -13 1484.68   93.96
 -14  18 -14   -5.03   47.75
 -13  19 -15  691.08   78.33
  20  16  12  612.83   25.70
 -12  20 -16  542.33   68.80
  21  17  11   29.81   13.79
 -11  21 -17  162.92   63.92
 -10  22 -18  111.44   61.66
  -9  23 -19  444.15   74.75
  -8  24 -20 2339.82  134.34
  -7  25 -21 1433.51  118.59
  -6  26 -22  -73.03   54.47
  -5  27 -23  707.55   89.31
  -4  28 -24  642.29   89.66
  -3  29 -25   63.69   58.01
  -2  30 -26   48.82   76.21
  -1  31 -27  239.44   80.13
   0  32 -28  819.99  109.37
   1  33 -29  476.45   91.50
   2  34 -30  100.57   82.44
   3  35 -31  248.93   88.31
  13  43 -11   28.85   73.95
  12  42 -10  764.10  101.26
  11  41  -9  930.78  110.02
  10  40  -8   61.96   57.54
   9  39  -7 1117.59  100.61
   8  38  -6 1672.76  117.24
   7  37  -5  486.63   72.80
   6  36  -4  -22.63   51.97
   5  35  -3  216.81   58.27
   4  34  -2 1506.23  101.18
   3  33  -1 1559.36   98.99
   2  32   0    8.18   40.45
   1  31   1 2070.11  102.72
   0  30   2 3270.03  123.31
  -1  29   3  584.05   62.00
  -2  28   4   -6.53   38.34
  -3  27   5  119.85   38.57
   4 -26  -6 1193.46   76.79
  -4  26   6 1285.04   76.21
   5 -25  -7 1556.05   82.71
  -7  -5 -25 1595.43   67.15
  -5  25   7 1602.61   78.40
   6 -24  -8   -0.81   35.38
  -8  -6 -24   58.58   25.35
  -9  -7 -23 3120.71   79.40
   7 -23  -9 3200.23  113.05
 -10  -8 -22 4689.86   88.93
 -22  10  -8 4707.30  132.80
   8 -22 -10 4416.43  131.61
   9 -21 -11 1131.65   71.11
 -11  -9 -21 1250.04   41.22
 -21  11  -9 1366.32   82.55
 -12 -10 -20   29.27   10.18
 -20  12 -10   46.75   42.41
 -19  13 -11  101.84   48.40
 -18  14 -12 1049.52   77.48
 -17  15 -13 1761.49  100.18
 -16  16 -14   43.45   39.61
 -15  17 -15 2493.21  119.43
 -14  18 -16 3332.10  140.44
 -13  19 -17 1028.32   92.16
  20  18  12   10.30    8.22
 -12  20 -18   22.74   50.40
  21  19  11    0.65   10.76
 -11  21 -19  -59.12   50.36
 -10  22 -20  600.26   81.71
  -9  23 -21 1087.36  102.03
  -8  24 -22   13.21   54.24
  -7  25 -23 2284.24  144.13
  -6  26 -24 2948.00  163.22
  -5  27 -25  806.28  106.75
  -4  28 -26 -108.52   80.48
  -3  29 -27    8.95   75.52
  -2  30 -28  532.00   85.13
  -1  31 -29  614.75  104.95
   0  32 -30  -12.64   61.85
   1  33 -31 1214.70  136.52
   2  34 -32 1536.77  151.74
  12  44 -12  146.09   74.45
  11  43 -11  399.32   86.55
  10  42 -10   16.52   59.89
   9  41  -9 1189.81  112.98
   8  40  -8 2588.52  149.85
   7  39  -7 1269.48  110.13
   6  38  -6   -3.61   56.39
   5  37  -5  299.59   61.35
   4  36  -4   15.94   56.16
   3  35  -3  411.00   67.65
   2  34  -2  -97.27   52.36
   1  33  -1 2265.95  116.20
   0  32   0 6007.24  175.63
  -1  31   1 2095.54  103.87
  -2  30   2   65.46   41.95
  -3  29   3  365.82   52.51
  -4  28   4  -54.93   39.72
  -5  27   5  266.48   48.52
  -6  26   6  -13.91   31.04
  -7  -7 -25 3037.73   82.55
  -7  25   7 3016.18  103.26
  -8  -8 -24 6954.43  116.55
  -9  -9 -23 2878.16   69.45
 -10 -10 -22   24.35   15.87
 -22  10 -10   25.89   38.22
 -21  11 -11  497.31   58.93
 -11 -11 -21  486.44   20.51
 -20  12 -12  -46.98   43.91
 -19  13 -13  307.66   52.09
 -18  14 -14   25.12   45.18
 -17  15 -15 2526.40  116.32
 -16  16 -16 4686.83  161.34
 -15  17 -17 2076.87  113.94
 -14  18 -18  -49.90   55.85
 -13  19 -19  526.55   69.45
 -12  20 -20  103.87   59.04
  21  21  11  207.05   18.55
 -11  21 -21   86.09   57.43
  22  22  10   42.06   16.33
 -10  22 -22    4.96   48.52
  -9  23 -23 1458.44  117.51
  -8  24 -24 4384.35  184.81
  -7  25 -25 1766.14  132.91
  -6  26 -26   44.52   72.10
  -5  27 -27  332.36   82.82
  -4  28 -28   66.46   53.59
  -3  29 -29  292.06   91.62
  -2  30 -30   28.58   72.03
  -1  31 -31  579.25  104.95
   0  32 -32 2191.62  163.88
   1  33 -33 1181.36  138.29
   0  32 -34   -4.03   70.18
  -1  31 -33  989.21  119.66
  -2  30 -32 1379.54  137.87
  -3  29 -31  510.72   92.08
  -4  28 -30  -62.69   74.14
  -5  27 -29   26.93   73.91
  27  29   5   58.66   29.27
  -6  26 -28 1162.23  121.24
  26  28   6 1148.97   63.92
  -7  25 -27 1446.76  125.38
  25  27   7 1343.62   64.00
  -8  24 -26   34.88   68.19
  24  26   8   45.48   26.62
  -9  23 -25 1837.40  130.34
  23  25   9 1822.03   62.50
 -10  22 -24 2547.37  139.29
  22  24  10 2450.61   61.54
 -11  21 -23  633.42   90.70
  21  23  11  457.52   25.16
 -12  20 -22   -1.19   60.39
 -13  19 -21   90.93   63.58
 -14  18 -20 1052.13   92.27
 -15  17 -19 1278.12   96.07
 -16  16 -18   29.77   43.83
 -17  15 -17 1918.30  108.06
 -18  14 -16 3291.31  133.07
 -19  13 -15  751.42   74.56
 -20  12 -14  -17.63   37.15
 -21  11 -13   63.15   38.07
 -10 -12 -22 1641.64   37.38
 -22  10 -12 1938.05   94.81
 -23   9 -11 2113.68   94.50
  -9 -11 -23 2147.13   54.16
  -8 -10 -24   -1.57   18.40
  -7  -9 -25 2863.56   73.83
  -8  26   6 4004.39  125.77
  -7  27   5  831.36   66.34
  -6  28   4   23.05   38.07
  -5  29   3   53.47   46.48
  -4  30   2 1007.11   78.17
  -3  31   1 1551.44   95.46
  -2  32   0  -46.94   43.87
  -1  33  -1 2456.06  123.96
   0  34  -2 3120.56  138.98
   1  35  -3  819.30   80.13
   2  36  -4   96.96   55.28
   3  37  -5   61.92   56.89
   4  38  -6  715.55   83.36
   5  39  -7  645.29   88.20
   6  40  -8    5.49   65.69
   7  41  -9 1200.64  113.63
   8  42 -10 2082.21  145.86
   9  43 -11  391.21   87.43
  10  44 -12  -86.70   77.33
   1  31 -35  590.12  100.76
   0  30 -34 1299.83  132.45
  -1  29 -33  682.93  110.40
  -2  28 -32  -56.01   63.46
  27  31   3  124.85   39.95
  -3  27 -31   94.96   76.87
  -4  26 -30  -63.27   71.87
  26  30   4   16.10   34.23
  -5  25 -29  395.78   75.98
  25  29   5  327.67   45.41
  24  28   6   28.50   30.27
  -6  24 -28 -128.04   65.15
  -7  23 -27 1253.92  112.29
  23  27   7 1175.44   59.89
  -8  22 -26 3015.95  156.88
  22  26   8 2830.41   80.06
  -9  21 -25 1232.72  110.36
  21  25   9 1336.74   52.44
  20  24  10   -1.77   14.17
 -10  20 -24  -18.52   45.14
  19  23  11  180.05   16.63
 -11  19 -23  158.73   59.43
 -12  18 -22  -29.85   53.20
 -13  17 -21  148.55   58.70
 -14  16 -20   30.69   55.51
 -15  15 -19 1083.56   85.20
 -16  14 -18 3344.28  136.03
 -17  13 -17 1648.55   97.19
 -18  12 -16  120.85   51.17
 -19  11 -15  310.50   53.82
 -20  10 -14   12.60   37.57
 -21   9 -13  369.20   55.24
  -8 -12 -22   11.41   12.75
 -22   8 -12   -8.37   37.11
  -9  25   5 1612.60   84.13
  -8  26   4   75.64   34.42
  -7  27   3  385.57   55.78
  -6  28   2  125.27   43.91
  -5  29   1  141.98   43.60
  -4  30   0   38.26   47.86
  -3  31  -1 1492.90   96.73
  -2  32  -2 3214.75  139.02
  -1  33  -3 1447.72   99.69
   0  34  -4   -3.03   50.59
   1  35  -5  371.62   69.41
   2  36  -6   51.09   57.85
   3  37  -7  222.69   65.92
   4  38  -8   17.09   49.86
   5  39  -9  825.26   97.50
   6  40 -10 1678.79  127.73
   7  41 -11  639.52   93.65
   8  42 -12   17.02   66.57
   9  43 -13  173.17   78.98
  10  44 -14   53.93   65.65
   2  30 -36  648.82  116.36
   1  29 -35  359.25   92.96
   0  28 -34   55.09   82.51
  -1  27 -33  370.78   78.48
  -2  26 -32  366.05   91.46
  26  32   2  312.58   50.09
  -3  25 -31   55.20   56.78
  25  31   3   32.34   36.69
  -4  24 -30    0.46   64.00
  24  30   4   22.86   33.46
  -5  23 -29  332.98   85.28
  23  29   5  293.29   43.72
  -6  22 -28  964.01  105.33
  22  28   6 1012.60   60.27
  21  27   7  731.33   48.17
  -7  21 -27  679.59   90.89
  20  26   8    1.92   21.90
  -8  20 -26    8.37   58.47
  -9  19 -25  283.77   71.37
  19  25   9  458.48   33.00
 -10  18 -24  406.96   64.61
  18  24  10  383.84   25.66
 -11  17 -23   72.18   55.39
 -12  16 -22  106.95   53.05
 -13  15 -21  174.36   51.94
 -14  14 -20  606.79   69.65
 -15  13 -19  644.44   72.18
 -16  12 -18   41.03   37.38
 -17  11 -17  932.09   74.60
 -18  10 -16 1130.34   80.86
 -19   9 -15   72.14   42.52
 -20   8 -14   33.42   37.99
 -21   7 -13  171.90   42.06
 -22   6 -12 1527.01   76.64
 -11  23   5  933.39   65.57
 -10  24   4   47.63   37.26
  -9  25   3 1108.60   74.87
  -8  26   2 1406.20   87.66
  -7  27   1  136.29   47.44
  -6  28   0   32.54   39.76
  -5  29  -1  102.91   46.14
  -4  30  -2  935.74   79.02
  -3  31  -3  741.97   78.29
  -2  32  -4   -6.38   50.98
  -1  33  -5  806.59   83.28
   0  34  -6  739.44   84.01
   1  35  -7   -4.07   50.40
   2  36  -8    8.30   57.66
   3  37  -9   45.10   55.24
   4  38 -10  492.01   79.13
   5  39 -11  427.48   79.67
   6  40 -12   43.45   62.65
   7  41 -13  326.33   88.62
   8  42 -14  471.15   90.27
   9  43 -15  127.65   79.25
   3  29 -37  -88.81   86.82
   2  28 -36  265.10   96.65
   1  27 -35  160.19   80.17
  26  34   0  257.72   54.59
   0  26 -34  292.79   76.02
  25  33   1  164.64   45.91
  -1  25 -33   79.86   71.53
  24  32   2   13.06   36.76
  -2  24 -32  -52.70   65.15
  23  31   3   41.18   34.88
  -3  23 -31  -38.38   71.14
  -4  22 -30   52.44   60.66
  22  30   4  -23.55   32.77
  -5  21 -29   28.73   47.71
  21  29   5   41.56   31.23
  -6  20 -28  -20.55   49.86
  20  28   6   12.95   27.97
  19  27   7  274.24   35.42
  -7  19 -27  353.14   74.41
  18  26   8  398.20   36.92
  -8  18 -26  383.72   77.94
  -9  17 -25  160.38   55.43
  17  25   9  164.34   23.13
 -10  16 -24  -58.16   49.52
  16  24  10    5.61   13.83
  15  23  11   77.90   11.45
 -11  15 -23  126.84   52.47
 -12  14 -22  -15.17   44.91
 -13  13 -21 -128.88   56.58
 -14  12 -20   12.95   44.68
 -15  11 -19  327.48   51.55
 -16  10 -18 1048.75   78.60
 -17   9 -17  355.45   54.01
 -18   8 -16   13.98   38.80
 -19   7 -15  284.54   50.05
 -20   6 -14   25.58   38.34
  20  -6  14   -7.34   40.03
 -21   5 -13   39.91   34.27
  21  -5  13   42.29   35.26
 -12  22   4   47.94   34.61
  22  -4  12   24.43   34.92
 -11  23   3  171.83   42.87
  23  -3  11  239.55   47.48
 -10  24   2  860.56   70.80
  24  -2  10  835.17   63.65
  -9  25   1  506.61   58.70
  -8  26   0   25.58   42.45
  -7  27  -1  276.01   58.97
  -6  28  -2   91.81   47.44
  -5  29  -3  -41.45   50.02
  -4  30  -4  -15.90   48.13
  -3  31  -5  305.01   55.59
  -2  32  -6  631.23   76.14
  -1  33  -7  317.61   63.58
   0  34  -8  -55.89   57.12
   1  35  -9    3.23   53.78
   2  36 -10  117.93   65.50
   3  37 -11   79.86   70.68
   4  38 -12  -18.86   66.84
   5  39 -13  262.26   86.55
   6  40 -14  301.44   89.97
   7  41 -15  238.78   77.79
   8  42 -16  -41.37   75.02
   9  43 -17   11.68   72.72
   4  28 -38  127.34   85.74
   3  27 -37   28.20   68.95
  26  36  -2  -25.08   50.28
   2  26 -36  -11.18   62.96
  25  35  -1   69.22   46.94
   1  25 -35   25.78   56.74
  24  34   0  -63.96   42.33
   0  24 -34  103.60   72.18
  23  33   1  145.86   46.98
  -1  23 -33  225.49   78.02
  22  32   2  375.12   50.55
  -2  22 -32  534.50   84.01
  21  31   3  111.06   37.53
  -3  21 -31  258.53   64.04
  20  30   4   18.09   31.04
  -4  20 -30   97.11   67.53
  -5  19 -29  -80.48   64.27
  19  29   5  -67.72   32.92
  -6  18 -28   94.46   62.35
  18  28   6  -33.38   28.23
  -7  17 -27   56.89   54.82
  17  27   7   90.81   29.12
  -8  16 -26  108.71   60.35
  16  26   8   -1.84   22.01
  -9  15 -25  302.21   60.35
  15  25   9  262.29   26.97
 -10  14 -24  568.88   73.60
  14  24  10  685.74   32.61
 -11  13 -23  265.87   56.47
  13  23  11  248.23   17.44
 -12  12 -22    9.26   48.17
 -13  11 -21  138.14   54.51
 -14  10 -20   56.55   44.87
 -15   9 -19   60.54   40.14
 -16   8 -18  -20.13   37.22
 -17   7 -17  409.27   51.48
  17  -7  17  378.65   49.52
 -18   6 -16 1069.69   69.72
  18  -6  16 1151.93   72.91
  -6 -16 -18  950.22   26.62
  19  -5  15  285.57   45.64
  -5 -15 -19  280.92   19.71
 -19   5 -15  346.11   47.67
 -20   4 -14   -9.03   32.19
  20  -4  14   50.02   38.53
 -21   3 -13  130.84   34.30
  21  -3  13  132.22   35.38
 -13  21   3  120.01   41.72
  22  -2  12  134.37   39.84
 -12  22   2   94.35   36.92
  23  -1  11  -34.57   33.31
 -11  23   1  -24.01   38.53
 -10  24   0   47.71   47.44
  24   0  10  -19.98   30.69
  25   1   9  509.41   52.21
  -9  25  -1  580.36   64.88
  -8  26  -2 1371.32   88.78
  26   2   8 1317.11   75.95
  -7  27  -3  457.90   62.12
  -6  28  -4   82.94   54.55
  -5  29  -5   17.17   46.40
  -4  30  -6   59.66   51.78
  -3  31  -7   -1.61   54.05
  -2  32  -8   59.93   59.04
  -1  33  -9  -41.91   58.31
   0  34 -10  202.90   64.65
   1  35 -11  211.55   66.69
   2  36 -12   30.62   59.93
   3  37 -13    6.99   62.00
   4  38 -14   67.42   63.65
   5  39 -15    7.03   61.85
   6  40 -16   89.51   83.59
   7  41 -17  187.69   71.14
   8  42 -18  607.25  109.94
   4  26 -38  449.10   90.97
   3  25 -37   49.75   64.31
  25  37  -3   88.81   48.75
   2  24 -36   16.86   66.57
  24  36  -2    5.19   41.60
   1  23 -35  191.53   80.52
  23  35  -1    9.30   43.45
  22  34   0  530.23   63.31
   0  22 -34  654.04   91.89
  21  33   1  316.11   51.67
  -1  21 -33  431.43   78.75
  -2  20 -32   35.69   62.23
  20  32   2   48.82   38.91
  -3  19 -31  561.50   83.40
  19  31   3  637.18   57.74
  -4  18 -30  918.91   94.85
  18  30   4  778.43   60.43
  17  29   5   67.99   32.92
  -5  17 -29  237.25   66.42
  16  28   6  -19.67   29.04
  -6  16 -28  -68.34   59.89
  -7  15 -27  153.39   60.27
  15  27   7  150.74   31.35
  14  26   8  701.02   43.87
  -8  14 -26  765.98   77.94
  -9  13 -25  710.36   76.18
  13  25   9  755.69   40.07
 -10  12 -24   21.51   43.98
  12  24  10    0.88   15.14
  11  23  11 1343.39   38.07
 -11  11 -23 1507.65   98.61
 -12  10 -22 1790.03   97.73
 -13   9 -21  231.91   50.28
 -14   8 -20   70.30   42.60
  15  -7  19  171.17   40.18
 -15   7 -19  212.05   47.29
  16  -6  18 1126.16   70.30
 -16   6 -18 1055.74   69.57
  -6 -18 -16  963.09   26.58
 -17   5 -17 1777.05   85.55
  -5 -17 -17 1730.30   41.41
  17  -5  17 1751.39   84.20
  -4 -16 -18   -5.03   14.10
  18  -4  16    5.22   28.47
 -18   4 -16  -16.83   35.76
  19  -3  15 1488.67   78.83
 -19   3 -15 1439.46   73.83
  20  -2  14 1994.40   86.01
 -20   2 -14 2149.82   83.21
 -14  20   2 2116.63   93.65
  21  -1  13  637.29   55.85
 -13  21   1  589.62   62.65
 -12  22   0   29.54   36.57
  22   0  12    0.54   30.46
 -11  23  -1   46.06   44.68
  23   1  11   19.02   32.42
 -10  24  -2  842.27   72.41
  24   2  10  791.45   58.01
  -9  25  -3 1058.51   81.28
  25   3   9 1090.82   67.61
  -8  26  -4   20.55   51.05
  26   4   8   -4.46   29.96
  27   5   7  803.40   59.73
  -7  27  -5  792.30   74.83
  -6  28  -6 1299.48   93.58
  -5  29  -7  155.04   49.21
  -4  30  -8  -80.79   46.37
  -3  31  -9   69.80   43.60
  -2  32 -10  161.03   66.50
  -1  33 -11  269.52   69.91
   0  34 -12  113.44   64.92
   1  35 -13  672.37   92.85
   2  36 -14  852.88   96.69
   3  37 -15  203.87   76.52
   4  38 -16  120.62   80.09
   5  39 -17   95.15   68.11
   6  40 -18  465.12  102.34
   7  41 -19  384.18   88.81
   8  42 -20   55.05   88.97
   5  25 -39  677.86  115.59
  25  39  -5  708.59   84.09
   4  24 -38 -203.52   88.85
  24  38  -4   41.18   52.24
   3  23 -37   36.65   77.64
  23  37  -3  166.76   54.63
   2  22 -36   25.89   73.99
  22  36  -2   28.73   50.05
   1  21 -35  260.37   77.33
  21  35  -1  268.06   52.90
   0  20 -34   18.86   55.20
  20  34   0  -19.67   42.68
  -1  19 -33 1338.59  117.93
  19  33   1 1084.21   79.33
  -2  18 -32 2302.37  135.22
  18  32   2 2457.98  105.91
  -3  17 -31 1098.23  101.41
  17  31   3  992.71   66.61
  16  30   4    2.57   32.50
  -4  16 -30   29.43   55.01
  15  29   5   54.28   30.54
  -5  15 -29  101.18   61.16
  -6  14 -28  -51.32   53.05
  14  28   6   49.09   32.96
  13  27   7  283.50   35.53
  -7  13 -27  329.21   65.15
  -8  12 -26  -10.56   43.52
  12  26   8   25.16   22.97
  11  25   9 2221.04   65.69
  -9  11 -25 2102.00  109.14
 -10  10 -24 5076.00  160.99
  10  24  10 5292.97   89.66
   9  23  11 2245.25   52.59
 -11   9 -23 2254.93  110.36
 -12   8 -22   24.55   48.67
 -13   7 -21  122.70   42.79
  -6 -20 -14   -1.38   10.56
 -14   6 -20  -18.90   36.61
  15  -5  19  293.49   43.49
 -15   5 -19  246.97   44.10
  -5 -19 -15  262.99   20.47
 -16   4 -18   27.66   34.04
  -4 -18 -16   10.56   15.29
  16  -4  18   28.77   30.42
  -3 -17 -17 2590.86   60.73
 -17   3 -17 2547.07   93.58
  17  -3  17 2445.38   91.50
  -2 -16 -18 5064.79   86.13
 -18   2 -16 4987.69  124.92
  18  -2  16 4856.85  126.81
  19  -1  15 2107.22   86.74
 -19   1 -15 2013.95   78.37
 -15  19   1 2150.21   95.23
  20   0  14   25.89   29.12
 -14  20   0   32.96   42.79
 -20   0 -14   -1.27   24.32
 -13  21  -1  662.26   65.23
  21   1  13  729.91   53.82
  22   2  12  144.78   35.57
 -12  22  -2  188.08   52.59
  23   3  11  169.71   35.42
 -11  23  -3  160.30   51.09
 -10  24  -4   25.74   47.13
  24   4  10    0.73   30.50
  25   5   9 1562.93   75.45
  -9  25  -5 1767.68  101.34
  26   6   8 3794.04  114.51
  -8  26  -6 3942.01  147.47
  27   7   7 1681.24   77.41
  -7  27  -7 1759.42  106.79
  28   8   6   17.52   28.04
  -6  28  -8  -11.49   51.63
  -5  29  -9   67.46   59.62
  -4  30 -10  -20.40   52.97
  -3  31 -11  -52.78   53.70
  -2  32 -12  -51.63   64.96
  -1  33 -13  734.91   86.24
   0  34 -14 2228.53  141.13
   1  35 -15 1078.45  109.75
   2  36 -16 -100.84   66.19
   3  37 -17  131.76   70.07
   4  38 -18   71.80   81.67
   5  39 -19  196.34   75.75
   6  40 -20 -111.56   83.82
   7  41 -21  702.87  114.13
   6  24 -40  -36.92   68.45
  24  40  -6   79.52   60.81
   5  23 -39  827.83  113.09
  23  39  -5  700.83   84.09
   4  22 -38  426.75   94.96
  22  38  -4  512.22   78.10
  21  37  -3  -94.19   53.70
   3  21 -37 -119.55   82.55
  20  36  -2  -60.31   50.48
   2  20 -36    4.46   63.88
   1  19 -35  626.62   88.16
  19  35  -1  639.18   71.68
   0  18 -34 2509.80  153.47
  18  34   0 2451.22  116.36
  -1  17 -33 1603.42  117.62
  17  33   1 1418.99   86.82
  16  32   2   22.09   40.26
  -2  16 -32  135.26   70.30
  15  31   3  876.08   68.92
  -3  15 -31  998.04   93.96
  14  30   4  714.93   57.51
  -4  14 -30  848.61   84.32
  -5  13 -29   60.46   48.56
  13  29   5   -7.11   29.81
  12  28   6    0.92   27.31
  -6  12 -28  -29.46   47.71
  11  27   7 1111.60   58.89
  -7  11 -27 1115.02   84.09
  -8  10 -26 4339.56  151.20
  10  26   8 4223.97   98.76
   9  25   9 2804.67   75.41
  -9   9 -25 2840.90  122.23
 -10   8 -24   -1.15   42.99
   8  24  10   32.61   21.20
   7  23  11 2029.43   53.01
 -11   7 -23 1947.99   96.61
 -12   6 -22 1428.09   84.78
 -13   5 -21   55.70   35.84
  -5 -21 -13   58.77   18.17
  -4 -20 -14   43.02   18.59
 -14   4 -20  -11.95   37.42
  -3 -19 -15 1559.16   50.90
 -15   3 -19 1630.54   79.06
  15  -3  19 1648.75   74.22
  16  -2  18 4830.69  122.43
  -2 -18 -16 5228.12   92.54
 -16   2 -18 4687.36  121.31
 -17   1 -17 3625.51  103.49
  -1 -17 -17 3447.46   78.86
  17  -1  17 3326.07  100.18
   0 -16 -18   23.24   16.48
 -16  18   0  -16.71   38.88
 -18   0 -16    0.54   27.08
  18   0  16    3.23   26.81
 -19  -1 -15 2247.17   75.02
  19   1  15 2085.10   79.79
 -15  19  -1 2181.36  101.88
 -14  20  -2 1992.59   99.65
  20   2  14 2015.68   79.75
 -13  21  -3  126.54   45.83
  21   3  13  137.37   33.65
  22   4  12  -17.98   25.89
 -12  22  -4  110.44   50.17
  23   5  11  956.10   58.27
 -11  23  -5  969.58   80.86
  24   6  10 4589.10  116.59
 -10  24  -6 4739.30  157.73
  25   7   9 2810.40   94.69
  -9  25  -7 3036.20  132.53
  -8  26  -8  -22.78   44.56
  26   8   8   -4.76   26.54
  27   9   7 1349.31   66.73
  -7  27  -9 1497.24  103.72
  -6  28 -10 1116.94   95.42
  -5  29 -11   86.62   63.00
  -4  30 -12   10.49   54.78
  -3  31 -13  526.20   78.75
  -2  32 -14 2288.38  137.18
  -1  33 -15 1412.19  122.54
   0  34 -16 -168.75   73.83
   1  35 -17 1110.48  116.51
   2  36 -18  919.53  107.18
   3  37 -19   45.79   62.04
   4  38 -20    4.03   81.28
   5  39 -21  381.34   94.04
   6  40 -22 1626.39  147.17
   6  22 -40 1587.71  139.52
  22  40  -6 1662.46  118.85
  21  39  -5  541.99   79.10
   5  21 -39  421.48   85.24
  20  38  -4  -28.58   53.05
   4  20 -38   24.01   61.54
  19  37  -3   89.28   50.40
   3  19 -37   15.33   52.97
   2  18 -36  944.30  105.45
  18  36  -2  892.37   80.98
   1  17 -35 1110.48  105.18
  17  35  -1  899.59   77.64
  16  34   0   50.09   44.91
   0  16 -34   33.69   61.77
  15  33   1 1471.58   89.81
  -1  15 -33 1368.36  112.36
  14  32   2 2121.32  103.53
  -2  14 -32 2275.55  131.34
  13  31   3  608.52   58.16
  -3  13 -31  585.05   76.75
  12  30   4   34.84   32.46
  -4  12 -30  -47.67   53.86
  -5  11 -29   -1.65   46.83
  11  29   5   23.51   29.58
  10  28   6 1121.59   62.23
  -6  10 -28 1016.52   81.09
   9  27   7 1508.84   66.88
  -7   9 -27 1352.53   87.47
   8  26   8  -16.17   24.32
  -8   8 -26   14.75   45.14
   7  25   9 2829.41   78.98
  -9   7 -25 2816.62  116.74
 -10   6 -24 4823.77  143.79
   6  24  10 4689.28   93.19
 -11   5 -23  911.80   68.49
  -5 -23 -11  946.99   42.60
 -12   4 -22    6.42   36.65
  -4 -22 -12   18.40   19.51
  -3 -21 -13   94.31   23.32
 -13   3 -21  179.47   41.83
 -14   2 -20 2115.63   84.97
  -2 -20 -14 1831.25   61.31
  15  -1  19 2105.72   77.14
 -15   1 -19 2048.49   82.21
  -1 -19 -15 2132.54   66.26
  16   0  18   49.59   27.58
 -16   0 -18   29.89   29.46
   0 -18 -16   -4.34   19.86
   1 -17 -17 3481.65   84.51
 -17  -1 -17 3471.93   96.30
  17   1  17 3217.44   90.97
 -17  17  -1 3429.14  119.70
  18   2  16 5005.67  113.44
 -18  -2 -16 4966.91  105.87
 -16  18  -2 4938.40  146.24
 -15  19  -3 1566.92   90.81
  19   3  15 1508.00   65.50
 -14  20  -4  115.40   44.87
  20   4  14   66.50   26.97
  21   5  13   40.26   26.93
 -13  21  -5   18.75   43.72
 -12  22  -6 1530.70   96.69
  22   6  12 1363.98   62.58
  23   7  11 2004.50   76.10
 -11  23  -7 1999.05  108.14
 -10  24  -8   25.58   50.17
  24   8  10   -9.60   26.85
  -9  25  -9 2903.63  131.76
  25   9   9 2719.62   89.08
  -8  26 -10 4174.95  160.73
  26  10   8 4248.02  110.10
  -7  27 -11 1272.59  104.30
  -6  28 -12   80.94   60.43
  -5  29 -13   69.53   63.31
  -4  30 -14  828.33   87.16
  -3  31 -15  812.93   92.12
  -2  32 -16  -93.77   72.53
  -1  33 -17 1722.04  132.11
   0  34 -18 2767.80  162.15
   1  35 -19  625.16  105.45
   2  36 -20   47.10   66.80
   3  37 -21 -149.20   85.51
   4  38 -22  470.04   96.65
   5  39 -23  816.34  119.74
   6  40 -24   41.26   74.91
   7  21 -41  695.26  106.83
  21  41  -7  574.64   86.28
   6  20 -40   -6.03   71.49
  20  40  -6   90.66   57.01
  19  39  -5  201.68   62.96
   5  19 -39  145.32   72.53
  18  38  -4   34.88   48.13
   4  18 -38  116.24   70.45
  17  37  -3  120.77   53.55
   3  17 -37  214.43   73.37
  16  36  -2   -0.23   47.13
   2  16 -36  -98.30   62.08
  15  35  -1  995.82   85.28
   1  15 -35  867.74   91.96
  14  34   0 2330.49  111.63
   0  14 -34 2163.81  126.27
  13  33   1  902.05   76.14
  -1  13 -33  883.65   89.28
  12  32   2    5.72   37.03
  -2  12 -32  -19.40   47.90
  11  31   3   52.82   39.76
  -3  11 -31   21.01   41.64
  10  30   4   37.22   35.49
  -4  10 -30   60.89   48.63
  -5   9 -29  122.04   46.98
   9  29   5  128.57   32.54
  -6   8 -28   22.78   43.56
   8  28   6   42.03   29.73
  -7   7 -27 1650.24   91.62
   7  27   7 1772.21   73.95
   6  26   8 3910.09  100.34
  -8   6 -26 3763.19  131.38
   5  25   9 1652.74   64.19
  -9   5 -25 1603.92   86.78
 -10   4 -24   11.64   35.42
  -4 -24 -10   -3.00   19.75
   4  24  10    0.69   22.09
 -11   3 -23  225.26   44.45
  -3 -23 -11  195.15   27.70
  -2 -22 -12  163.18   28.20
 -12   2 -22   92.39   34.77
  -1 -21 -13  674.94   44.52
 -13   1 -21  714.74   54.59
 -14   0 -20   13.18   31.81
   0 -20 -14    6.07   23.74
   1 -19 -15 2257.38   73.56
 -15  -1 -19 2111.41   77.17
  16   2  18 5054.84  107.52
 -16  -2 -18 5236.84  111.36
   2 -18 -16 4887.85  108.33
 -18  16  -2 4915.89  138.22
 -17  -3 -17 2427.75   74.10
 -17  17  -3 2517.14  106.48
  17   3  17 2471.89   75.64
   3 -17 -17 2520.56   78.37
  18   4  16    7.61   22.66
 -16  18  -4  -22.36   37.49
  19   5  15  308.54   34.15
 -15  19  -5  312.50   55.47
 -14  20  -6   43.75   39.68
  20   6  14    2.15   22.40
  21   7  13  176.13   29.04
 -13  21  -7  227.30   57.81
  22   8  12   -8.37   22.01
 -12  22  -8  -70.72   51.67
  23   9  11 2210.17   74.37
 -11  23  -9 2196.88  115.59
 -10  24 -10 5127.98  171.60
  24  10  10 5045.69  113.71
  25  11   9 2113.45   74.98
  -9  25 -11 2363.95  125.42
  26  12   8  -17.17   23.74
  -8  26 -12  -14.64   59.00
  -7  27 -13  299.48   67.15
  -6  28 -14  186.69   66.61
  -5  29 -15   14.21   47.10
  -4  30 -16   29.77   62.69
  -3  31 -17 1028.24  104.22
  -2  32 -18 2482.88  155.54
  -1  33 -19  994.74  107.68
   0  34 -20    3.61   70.99
   1  35 -21  342.93   88.62
   2  36 -22   55.78   62.35
   3  37 -23   36.72   77.71
   4  38 -24  188.54   85.78
   5  39 -25  739.13  108.71
  20  42  -8  -62.15   59.58
   8  20 -42   38.11   68.99
  19  41  -7  264.75   69.57
   7  19 -41  409.88   78.02
   6  18 -40  407.62   80.75
  18  40  -6  449.64   79.71
  17  39  -5   20.21   53.66
   5  17 -39  146.44   62.77
  16  38  -4  109.48   54.63
   4  16 -38  169.79  104.14
  15  37  -3  115.63   48.90
   3  15 -37  151.12   65.77
  14  36  -2  738.90   76.33
   2  14 -36  832.90   90.85
  13  35  -1  580.94   67.99
   1  13 -35  536.84   73.06
  12  34   0  -55.12   46.79
   0  12 -34  -51.17   54.51
  11  33   1  215.12   46.75
  -1  11 -33  211.05   56.09
  10  32   2  177.94   43.87
  -2  10 -32  169.60   56.89
   9  31   3  100.61   42.29
  -3   9 -31   73.06   46.94
  -4   8 -30  100.68   51.63
   8  30   4  -36.61   35.26
  -5   7 -29  216.50   50.17
   7  29   5  234.79   40.18
  -6   6 -28 1282.50   84.24
   6  28   6 1298.71   68.84
   5  27   7  902.51   58.12
  -7   5 -27  940.88   71.80
   4  26   8   55.09   30.23
  -8   4 -26   -0.08   33.73
   3  25   9 1073.30   56.85
  -3 -25  -9 1088.86   57.70
  -9   3 -25 1059.78   72.22
  -2 -24 -10  868.55   51.44
   2  24  10  813.96   45.79
 -10   2 -24  789.34   58.35
  -1 -23 -11   38.76   24.78
 -11   1 -23  -55.43   34.96
 -12   0 -22   35.15   31.69
   0 -22 -12   30.89   27.35
 -13  -1 -21  698.45   51.21
   1 -21 -13  733.72   49.09
 -14  -2 -20 2126.01   76.44
   2 -20 -14 2119.51   76.79
 -15  -3 -19 1510.26   60.96
   3 -19 -15 1538.27   66.92
 -19  15  -3 1406.89   81.02
   4 -18 -16   22.24   27.35
 -16  -4 -18   -8.14   22.24
  16   4  18   35.26   22.01
 -17  17  -5 1570.65   91.66
 -17  -5 -17 1792.38   55.62
   5 -17 -17 1785.92   69.03
  17   5  17 1849.31   61.16
 -16  18  -6  997.20   77.87
  18   6  16 1025.24   46.98
  19   7  15  238.25   28.16
 -15  19  -7  176.09   50.98
  20   8  14   12.64   19.90
 -14  20  -8   45.48   41.30
  21   9  13  385.33   33.77
 -13  21  -9  427.48   63.38
 -12  22 -10 1761.99  103.41
  22  10  12 1780.93   62.31
  23  11  11 1506.19   59.81
 -11  23 -11 1511.80  102.60
  24  12  10    0.96   23.09
 -10  24 -12  -10.06   48.13
  25  13   9  727.11   45.64
  -9  25 -13  773.01   85.55
  -8  26 -14  742.67   87.62
  -7  27 -15  148.78   64.96
  -6  28 -16    6.99   45.25
  -5  29 -17   58.04   65.23
  -4  30 -18  705.56   93.42
  -3  31 -19  561.81   88.39
  -2  32 -20  -34.84   60.77
  -1  33 -21  521.63   91.96
   0  34 -22  507.22  100.49
   1  35 -23  104.99   65.61
   2  36 -24 -211.24   88.78
   3  37 -25   16.48   63.04
   4  38 -26  506.65  112.09
  18  42  -8  440.54   81.55
  17  41  -7  120.93   63.65
  16  40  -6  -30.50   55.51
  15  39  -5   20.36   52.67
  14  38  -4   94.54   58.66
  13  37  -3   55.09   51.51
  12  36  -2   33.73   45.21
  11  35  -1  175.05   48.29
  10  34   0  231.52   53.70
   9  33   1   74.14   43.60
  -1   9 -33   41.22   52.90
  -2   8 -32   50.94   40.53
   8  32   2    1.34   39.07
  -3   7 -31   56.62   42.45
   7  31   3   29.43   34.00
  -4   6 -30   59.58   42.64
   6  30   4    8.45   34.19
   5  29   5   38.18   34.69
  -5   5 -29   48.90   38.61
   4  28   6   36.42   30.62
  -6   4 -28   20.13   35.65
   3  27   7  374.12   43.18
  -3 -27  -7  386.72   39.61
  -7   3 -27  328.33   49.98
  -8   2 -26 1461.21   76.91
  -2 -26  -8 1476.84   67.61
   2  26   8 1433.59   70.61
  -9   1 -25  487.40   50.44
   1  25   9  591.47   44.10
  -1 -25  -9  498.89   44.68
 -10   0 -24    0.19   31.31
   0 -24 -10   26.93   28.89
 -11  -1 -23   37.49   29.69
   1 -23 -11    3.50   30.08
 -12  -2 -22   96.80   32.19
   2 -22 -12  117.01   33.23
   3 -21 -13  101.15   31.77
 -13  -3 -21   80.29   27.12
 -20  14  -4   96.15   39.99
 -14  -4 -20   30.35   23.78
   4 -20 -14   88.28   30.81
 -15  -5 -19  305.70   30.69
   5 -19 -15  287.22   39.30
 -19  15  -5  316.27   54.55
 -18  16  -6 1152.66   80.36
   6 -18 -16 1009.49   57.62
 -16  -6 -18 1135.88   43.68
   7 -17 -17  394.21   40.30
 -17  17  -7  397.78   61.62
  17   7  17  418.87   28.54
  18   8  16   29.16   17.32
 -16  18  -8    8.49   46.83
  19   9  15   70.30   18.67
 -15  19  -9  107.94   53.13
 -14  20 -10   -9.87   45.83
  20  10  14   12.75   16.44
 -13  21 -11   43.75   52.78
  21  11  13   62.23   20.28
  22  12  12  -19.36   21.24
 -12  22 -12  -97.00   56.47
  23  13  11  322.72   31.42
 -11  23 -13  280.50   57.39
  24  14  10  700.26   41.10
 -10  24 -14  866.94   89.16
  -9  25 -15  321.91   66.96
  -8  26 -16   27.47   52.94
  -7  27 -17  -13.33   54.70
  -6  28 -18   60.50   62.92
  -5  29 -19  -57.12   68.15
  -4  30 -20  -71.26   65.46
  -3  31 -21  157.19   72.45
  -2  32 -22  463.09   85.55
  -1  33 -23  170.06   86.66
   0  34 -24  166.68   77.25
   1  35 -25   30.96   75.33
   2  36 -26   47.98   74.60
   3  37 -27   48.79   84.05
   4  38 -28   99.72   99.72
  17  43  -9   -0.50   70.76
  16  42  -8   39.41   63.00
  15  41  -7  224.88   68.15
  14  40  -6  292.45   68.80
  13  39  -5  170.68   62.08
  12  38  -4  -33.50   51.24
  11  37  -3  -31.38   48.52
  10  36  -2   -6.99   46.94
   9  35  -1   16.29   44.79
   8  34   0  -31.62   40.68
   7  33   1  475.22   62.12
   6  32   2  635.60   61.62
  -3   5 -31  263.83   47.56
   5  31   3  207.02   44.33
   4  30   4 -102.30   40.30
  -4   4 -30   27.35   40.64
  -5   3 -29   15.37   35.46
   3  29   5   24.82   33.69
   2  28   6  137.91   36.30
  -6   2 -28   94.12   39.37
  -2 -28  -6   69.88   30.00
  -7   1 -27  298.75   46.60
  -1 -27  -7  216.47   36.46
   1  27   7  241.13   39.30
   0  26   8   18.21   28.50
  -8   0 -26  -43.95   34.00
   0 -26  -8  -28.20   27.24
  -1  25   9  509.99   42.45
  -9  -1 -25  531.89   48.44
   1 -25  -9  537.53   48.44
   2 -24 -10  872.97   60.69
 -10  -2 -24  814.19   54.82
 -11  -3 -23  196.72   36.19
   3 -23 -11  143.71   35.49
 -12  -4 -22  -36.19   27.81
   4 -22 -12   25.01   30.73
   5 -21 -13   77.17   31.15
 -13  -5 -21   57.97   23.55
 -14  -6 -20   27.58   20.01
 -20  14  -6  -41.10   46.87
   6 -20 -14   32.88   32.31
 -19  15  -7  141.21   47.90
 -15  -7 -19  149.82   20.71
   7 -19 -15  177.94   37.80
   8 -18 -16   25.66   31.35
 -18  16  -8   26.85   41.10
 -17  17  -9  418.26   61.23
 -16  18 -10  954.18   79.79
  18  10  16 1010.11   33.69
 -15  19 -11  296.10   58.31
  19  11  15  319.72   21.90
 -14  20 -12    0.50   51.74
  20  12  14   -4.65   13.75
  21  13  13    2.07   15.06
 -13  21 -13   17.86   38.03
 -12  22 -14   20.21   54.24
  22  14  12    6.11   15.71
  23  15  11   40.37   19.21
 -11  23 -15   95.92   58.62
  24  16  10   -9.99   18.75
 -10  24 -16 -108.83   53.40
  -9  25 -17  145.09   57.97
  -8  26 -18  486.60   79.56
  -7  27 -19  159.77   55.70
  -6  28 -20   89.12   67.57
  -5  29 -21   28.77   67.11
  -4  30 -22    2.38   71.30
  -3  31 -23 -142.52   81.67
  -2  32 -24  -95.34   82.44
  -1  33 -25   66.65   62.85
   0  34 -26  182.97   85.59
   1  35 -27  144.40   78.48
   2  36 -28 -117.20   87.05
   3  37 -29  -50.78   90.97
  15  43  -9   99.45   67.34
  14  42  -8  463.78   84.20
  13  41  -7  380.99   81.28
  12  40  -6  -63.11   53.24
  11  39  -5  380.23   69.91
  10  38  -4  336.86   63.15
   9  37  -3    8.34   48.44
   8  36  -2  -26.47   50.02
   7  35  -1  -10.10   44.29
   6  34   0  692.27   71.18
   5  33   1  840.43   74.37
   4  32   2  -33.88   38.64
   3  31   3  621.62   61.00
   2  30   4 1038.19   71.72
  -5   1 -29  151.62   40.14
   1  29   5  118.55   38.22
  -1 -29  -5  151.01   37.15
   0  28   6   35.19   32.58
  -6   0 -28   21.32   30.77
   0 -28  -6  -31.81   32.61
   1 -27  -7  258.49   43.29
  -7  -1 -27  206.90   41.10
  -1  27   7  222.61   42.33
   2 -26  -8 1456.48   75.29
  -8  -2 -26 1465.82   71.37
  -2  26   8 1486.87   71.49
   3 -25  -9 1068.50   68.42
  -9  -3 -25 1131.88   62.92
 -10  -4 -24   31.54   27.81
   4 -24 -10   21.74   31.85
 -11  -5 -23  918.80   51.51
   5 -23 -11 1057.89   66.76
 -12  -6 -22 1500.66   57.31
   6 -22 -12 1513.57   76.48
   7 -21 -13  126.19   33.69
 -21  13  -7   52.67   37.42
 -14  -8 -20    2.00   14.83
   8 -20 -14    0.12   31.65
 -20  14  -8   -0.85   41.91
   9 -19 -15   79.75   31.35
 -19  15  -9  101.68   52.70
 -18  16 -10  954.75   75.91
 -17  17 -11 1003.96   83.63
 -16  18 -12   25.24   49.98
 -15  19 -13  783.69   81.05
  20  14  14  628.92   25.05
 -14  20 -14  717.97   81.05
  21  15  13  196.26   18.71
 -13  21 -15  203.48   52.63
  22  16  12   32.00   15.14
 -12  22 -16   20.97   57.05
  23  17  11    6.22   16.83
 -11  23 -17  -42.06   56.70
 -10  24 -18  412.65   78.02
  -9  25 -19  491.44   81.40
  -8  26 -20   91.89   66.84
  -7  27 -21  762.14   93.12
  -6  28 -22  915.61  106.79
  -5  29 -23  334.90   88.43
  -4  30 -24  118.74   76.94
  -3  31 -25   52.67   76.14
  -2  32 -26  293.91   77.60
  -1  33 -27  268.56   90.85
   0  34 -28   87.93   67.61
   1  35 -29  504.04  107.45
   2  36 -30  401.32  102.49
  14  44 -10  232.68   82.55
  13  43  -9  205.79   68.95
  12  42  -8   -1.84   60.54
  11  41  -7  798.87   93.23
  10  40  -6 1659.69  120.39
   9  39  -5  539.22   80.75
   8  38  -4   46.98   58.97
   7  37  -3  140.40   56.93
   6  36  -2    3.11   45.44
   5  35  -1  422.25   64.54
   4  34   0   18.75   43.79
   3  33   1 1491.17   93.65
   2  32   2 2981.46  122.23
   1  31   3 1529.89   90.24
   0  30   4   22.13   35.84
  -1  29   5  180.01   42.56
  -6  -2 -28   70.87   30.00
  -2  28   6   54.63   34.53
   3 -27  -7  342.66   47.63
  -3  27   7  393.59   48.52
  -7  -3 -27  379.23   44.94
  -4  26   8   13.41   28.43
   4 -26  -8   28.58   32.04
  -8  -4 -26   -6.07   24.82
   5 -25  -9 1594.12   83.17
  -9  -5 -25 1606.76   67.23
   6 -24 -10 4706.42  135.56
 -10  -6 -24 4751.13  103.99
 -11  -7 -23 1974.12   64.42
   7 -23 -11 1900.25   88.89
 -22  12  -8  -12.22   31.08
   8 -22 -12   24.32   30.23
 -12  -8 -22    9.95   17.90
 -13  -9 -21  367.05   23.70
 -21  13  -9  333.86   53.55
   9 -21 -13  279.81   40.91
 -20  14 -10  -68.84   50.02
 -19  15 -11  297.02   55.32
 -18  16 -12   -5.42   44.98
 -17  17 -13 1548.06   97.07
 -16  18 -14 3265.53  136.76
 -15  19 -15  934.24   85.74
 -14  20 -16  -20.97   56.24
  21  17  13  145.86   12.64
 -13  21 -17  208.28   61.66
 -12  22 -18   14.64   41.49
  22  18  12   18.02   12.72
 -11  23 -19  191.80   51.09
  23  19  11  193.45   21.28
 -10  24 -20   42.03   54.86
  -9  25 -21 1500.66  120.85
  -8  26 -22 3195.54  163.84
  -7  27 -23 1211.90  108.02
  -6  28 -24  -11.29   65.57
  -5  29 -25  308.08   76.41
  -4  30 -26  -54.86   61.16
  -3  31 -27  180.97   84.59
  -2  32 -28  -98.92   85.01
  -1  33 -29  548.90   96.96
   0  34 -30 1457.52  144.05
   1  35 -31  668.14  116.05
  12  44 -10  -71.68   70.95
  11  43  -9  499.12   84.28
  10  42  -8 1736.83  130.42
   9  41  -7 1118.17  107.10
   8  40  -6   53.59   59.31
   7  39  -5  759.64   86.85
   6  38  -4  708.32   84.51
   5  37  -3   14.25   49.94
   4  36  -2   85.93   56.20
   3  35  -1  991.28   85.16
   2  34   0 3121.55  134.68
   1  33   1 2060.09  106.91
   0  32   2    6.18   42.64
  -1  31   3 1457.37   88.05
  -2  30   4  841.35   73.26
  -3  29   5   25.28   36.69
  -4  28   6   -4.53   35.19
  -6  -4 -28   18.82   26.12
  -7  -5 -27  788.07   50.90
  -5  27   7  793.37   61.89
  -8  -6 -26 3904.90  101.18
  -9  -7 -25 2778.05   80.02
 -10  -8 -24    2.96   20.32
 -11  -9 -23 2149.13   59.66
 -23  11  -9 2157.16   97.38
 -12 -10 -22 1857.76   45.02
 -22  12 -10 1806.51   94.19
 -21  13 -11  111.13   46.90
 -20  14 -12    7.72   45.06
 -19  15 -13  714.39   69.99
 -18  16 -14 3275.98  135.49
 -17  17 -15 2200.07  115.44
 -16  18 -16  -59.85   43.25
 -15  19 -17 1121.82   93.54
 -14  20 -18 1013.87   88.47
 -13  21 -19  -17.25   59.93
  22  20  12   15.48   10.68
  22  20  12  -15.10    9.76
 -11  23 -21  567.30   82.94
 -10  24 -22 2635.30  146.47
  -9  25 -23 1994.86  136.26
  -8  26 -24   96.27   72.87
  -7  27 -25 1273.74  120.58
  -6  28 -26 1098.19  113.17
  -5  29 -27   57.12   74.18
  -4  30 -28  -93.31   83.70
  -3  31 -29  306.66   80.52
  -2  32 -30 1445.73  140.44
  -1  33 -31  927.98  118.28
   0  34 -32   52.51   85.32
  10  44 -10  735.41   98.38
   9  43  -9  985.60  105.87
   8  42  -8    8.41   68.49
   7  41  -7  902.16  101.34
   6  40  -6 1693.81  119.55
   5  39  -5  461.40   74.68
   4  38  -4   46.37   58.01
   3  37  -3  134.95   55.51
   2  36  -2 1675.10  109.67
   1  35  -1 1476.04   99.57
   0  34   0    2.69   46.06
  -1  33   1 2385.69  118.89
  -2  32   2 3070.50  125.62
  -3  31   3  758.45   71.26
  -4  30   4    8.91   39.30
  -5  29   5   41.41   40.10
  -6  28   6 1171.68   76.48
  -7  27   7 1918.07   87.82
  -7  -7 -27 1672.37   66.96
  -8  -8 -26  -21.24   24.09
  -9  -9 -25 2792.69   74.14
 -10 -10 -24 5085.84   90.89
 -11 -11 -23 1468.81   41.14
 -23  11 -11 1454.29   88.16
 -22  12 -12   24.97   43.37
 -21  13 -13   63.84   48.33
 -20  14 -14  564.92   65.73
 -19  15 -15 1119.28   87.05
 -18  16 -16   34.84   48.75
 -17  17 -17 1610.41  103.99
 -16  18 -18 2724.70  130.95
 -15  19 -19  474.92   73.76
 -14  20 -20   25.66   60.23
 -13  21 -21  -47.33   61.12
 -12  22 -22  708.02   90.77
  22  22  12  548.06   21.44
  22  22  12  549.13   22.17
 -11  23 -23 1258.80  110.79
  23  23  11 1283.96   42.22
 -10  24 -24   -6.22   63.35
  24  24  10   48.36   19.82
  -9  25 -25 1492.59  121.62
  25  25   9 1486.06   56.97
  -8  26 -26 2717.86  160.15
  26  26   8 2659.58   81.05
  -7  27 -27  841.89  109.79
  -6  28 -28  -20.24   73.06
  -5  29 -29  239.21   77.48
  -4  30 -30  704.87  109.25
  -3  31 -31  805.32  126.61
  -2  32 -32   32.73   77.67
  -1  33 -33  930.24  125.23
  -2  32 -34 1618.71  146.63
  -3  31 -33  725.88  115.36
  -4  30 -32   30.39   61.92
  -5  29 -31  134.60   90.43
  -6  28 -30  -73.56   87.28
  -7  27 -29  117.51   66.92
  -8  26 -28  102.53   70.76
  -9  25 -27 1227.15  117.43
 -10  24 -26 2643.72  156.92
  24  26  10 2366.75   65.80
 -11  23 -25 1112.06  110.56
  23  25  11  932.93   37.22
 -12  22 -24   19.40   63.15
 -13  21 -23   82.05   54.16
 -14  20 -22  -51.09   48.67
 -15  19 -21  208.59   58.97
 -16  18 -20   32.88   57.74
 -17  17 -19 1119.09   89.89
 -18  16 -18 2691.04  130.69
 -19  15 -17 1098.15   87.74
 -20  14 -16   50.51   42.45
 -21  13 -15  204.52   54.97
 -22  12 -14  -21.36   43.91
 -23  11 -13  195.34   49.55
 -10 -12 -24   24.78   12.48
 -24  10 -12   52.05   40.41
  -9 -11 -25 2144.06   59.39
  -8 -10 -26 4315.17   93.96
  -7  -9 -27 1413.00   57.74
  -8  28   6   39.99   37.84
  -7  29   5  274.55   51.48
  -6  30   4    9.91   44.14
  -5  31   3  259.57   55.97
  -4  32   2   15.25   45.41
  -3  33   1 1533.96   98.26
  -2  34   0 3049.41  134.60
  -1  35  -1 1535.50  103.26
   0  36  -2   42.29   49.17
   1  37  -3  547.87   77.02
   2  38  -4   17.17   55.89
   3  39  -5  173.44   67.34
   4  40  -6  -81.17   64.00
   5  41  -7  682.59   90.20
   6  42  -8 1743.40  130.69
   7  43  -9  674.44   93.73
   8  44 -10    6.38   60.35
   9  45 -11   -0.81   76.37
  -1  31 -35  607.91  111.25
  -2  30 -34   78.94   87.66
  -3  29 -33  629.07   99.03
  -4  28 -32  198.03   86.82
  -5  27 -31   23.59   63.96
  -6  26 -30  145.74   70.87
  -7  25 -29  543.64   93.88
  24  28   8 1921.37   70.57
  -8  24 -28 2141.91  143.13
  -9  23 -27 1358.72  115.82
  23  27   9 1218.66   53.24
  22  26  10   17.94   16.71
 -10  22 -26  -33.31   64.11
  21  25  11  662.76   29.58
 -11  21 -25  817.80   95.50
 -12  20 -24  401.66   82.09
 -13  19 -23  -41.91   60.35
 -14  18 -22 -115.40   63.38
 -15  17 -21  562.69   75.22
 -16  16 -20 1883.84  113.98
 -17  15 -19 1212.90   91.73
 -18  14 -18   27.85   39.11
 -19  13 -17  954.98   82.59
 -20  12 -16  683.08   68.95
 -21  11 -15  -59.04   43.22
 -22  10 -14   80.71   41.26
 -23   9 -13  915.49   71.18
  -9 -13 -23  974.61   31.96
 -24   8 -12 3489.91  118.32
  -8 -12 -24 3447.81   69.45
 -10  26   6    9.60   33.69
  -9  27   5  841.43   68.68
  -8  28   4  582.02   61.58
  -7  29   3  -54.78   48.02
  -6  30   2  -38.68   45.18
  -5  31   1  762.95   76.68
  -4  32   0 2892.68  129.15
  -3  33  -1 1721.81  106.22
  -2  34  -2  116.90   50.25
  -1  35  -3  870.32   86.01
   0  36  -4  771.09   82.13
   1  37  -5  -50.71   54.24
   2  38  -6   -5.84   57.62
   3  39  -7  472.73   83.94
   4  40  -8 1306.90  110.40
   5  41  -9  902.32  101.72
   6  42 -10    6.49   58.81
   7  43 -11  583.94   96.04
   8  44 -12  542.76   98.88
   0  30 -36 -184.70   96.57
  -1  29 -35  303.44   90.20
  -2  28 -34  565.54   91.93
  -3  27 -33   18.32   82.01
  -4  26 -32 -107.52   65.15
  -5  25 -31  -83.97   71.60
  -6  24 -30  540.72   90.16
  24  30   6  417.10   45.14
  -7  23 -29  372.70   80.59
  23  29   7  462.55   44.18
  22  28   8   11.60   23.70
  -8  22 -28   50.44   72.91
  21  27   9  754.73   43.64
  -9  21 -27  975.23  103.37
 -10  20 -26  931.24  100.45
  20  26  10  876.73   38.91
 -11  19 -25  207.25   63.96
  19  25  11  111.13   14.48
 -12  18 -24   88.28   61.89
 -13  17 -23  -10.33   54.82
 -14  16 -22  512.14   69.53
 -15  15 -21  545.87   74.75
 -16  14 -20    7.91   42.52
 -17  13 -19  872.43   76.06
 -18  12 -18 1376.85   90.85
 -19  11 -17  309.16   55.12
 -20  10 -16  -10.18   44.18
 -21   9 -15   60.96   45.21
 -22   8 -14  883.76   68.03
  -8 -14 -22  779.31   25.05
 -23   7 -13  862.33   64.19
 -11  25   5 1052.25   71.83
 -10  26   4 1560.66   88.31
  -9  27   3  441.54   58.39
  -8  28   2   53.74   41.76
  -7  29   1   69.80   43.33
  -6  30   0  255.26   54.82
  -5  31  -1  568.88   69.41
  -4  32  -2   22.24   51.01
  -3  33  -3  972.27   88.05
  -2  34  -4 1584.71  108.10
  -1  35  -5  379.34   66.30
   0  36  -6  -60.54   55.66
   1  37  -7  -66.61   63.54
   2  38  -8  279.73   72.33
   3  39  -9  230.14   67.30
   4  40 -10   33.31   55.66
   5  41 -11  382.68   76.48
   6  42 -12  632.11   97.50
   7  43 -13  377.61   91.50
   8  44 -14 -132.84   69.49
   1  29 -37   84.13   85.93
   0  28 -36  247.00   79.48
  -1  27 -35   77.90   69.03
  -2  26 -34   -1.61   75.91
  -3  25 -33  -30.39   57.28
  -4  24 -32  152.47   80.98
  24  32   4    2.00   33.92
  -5  23 -31   57.24   71.80
  23  31   5   26.51   31.04
  -6  22 -30   61.62   59.12
  22  30   6  -54.05   32.88
  21  29   7   78.86   29.69
  -7  21 -29  159.23   63.46
  20  28   8  418.03   37.88
  -8  20 -28  472.15   81.75
  -9  19 -27  181.55   74.33
  19  27   9  132.26   23.93
 -10  18 -26   66.00   58.58
  18  26  10   13.25   17.36
  17  25  11   26.47   10.53
 -11  17 -25    4.34   49.17
 -12  16 -24   14.71   52.74
 -13  15 -23   23.32   42.64
 -14  14 -22 -103.53   58.39
 -15  13 -21  186.46   54.70
 -16  12 -20  703.44   69.88
 -17  11 -19  241.63   54.51
 -18  10 -18    5.22   40.37
 -19   9 -17  193.72   43.22
 -20   8 -16   60.77   35.84
  -7 -15 -21   81.17   10.79
 -21   7 -15  134.53   42.14
 -22   6 -14    4.72   34.46
 -23   5 -13  369.16   46.37
 -12  24   4  640.41   61.46
 -11  25   3  302.24   50.02
 -10  26   2   29.46   44.37
  -9  27   1   94.27   42.06
  -8  28   0   22.93   38.11
  -7  29  -1  -30.35   44.02
  -6  30  -2   51.21   50.21
  -5  31  -3  262.33   55.51
  -4  32  -4  834.71   84.93
  -3  33  -5  521.94   78.67
  -2  34  -6   10.49   54.28
  -1  35  -7  -24.05   56.62
   0  36  -8   14.41   48.59
   1  37  -9  -34.00   64.08
   2  38 -10  -39.76   73.14
   3  39 -11  226.30   79.44
   4  40 -12  263.45   80.94
   5  41 -13  158.69   74.33
   6  42 -14   -7.57   69.68
   7  43 -15  250.58   84.70
   2  28 -38  131.57   83.13
   1  27 -37  -24.20   62.54
   0  26 -36   20.90   70.76
  -1  25 -35   58.01   73.56
  -2  24 -34  224.49   74.06
  24  34   2  104.06   41.14
  -3  23 -33  -59.93   71.99
  23  33   3   60.16   36.53
  22  32   4   -8.11   35.07
  -4  22 -32   19.32   56.09
  21  31   5  -11.56   31.35
  -5  21 -31  -27.93   56.93
  -6  20 -30   70.80   60.35
  20  30   6   12.79   30.12
  -7  19 -29  -45.67   53.05
  19  29   7  -12.95   28.93
  -8  18 -28  -11.79   49.40
  18  28   8   -1.65   24.20
  -9  17 -27 -111.86   63.46
  17  27   9   44.25   20.63
 -10  16 -26  107.64   57.78
  16  26  10  101.95   19.94
 -11  15 -25   40.37   46.83
  15  25  11   38.30   11.91
 -12  14 -24  -50.67   47.02
 -13  13 -23  -46.83   53.01
 -14  12 -22  -40.07   41.41
 -15  11 -21  -34.34   45.37
 -16  10 -20   55.16   42.14
 -17   9 -19  216.66   50.09
 -18   8 -18  320.11   48.48
 -19   7 -17   62.12   33.84
 -20   6 -16    6.76   38.07
  -6 -16 -20    8.64    9.41
 -21   5 -15   32.08   37.45
  22  -4  14   22.13   38.99
 -22   4 -14   34.50   32.96
 -13  23   3   77.29   34.11
  23  -3  13   40.49   30.92
 -12  24   2   -3.84   40.76
  24  -2  12  -24.28   36.11
  25  -1  11   31.38   38.07
 -11  25   1    3.61   35.61
 -10  26   0  191.11   51.55
  -9  27  -1  254.53   55.20
  -8  28  -2  -32.84   47.98
  -7  29  -3  105.72   45.48
  -6  30  -4   43.56   47.48
  -5  31  -5   57.70   49.32
  -4  32  -6   19.44   52.63
  -3  33  -7  107.02   55.51
  -2  34  -8    7.53   47.86
  -1  35  -9  147.47   69.03
   0  36 -10   12.45   52.24
   1  37 -11   56.97   58.54
   2  38 -12  100.76   65.96
   3  39 -13  -45.91   68.34
   4  40 -14  -98.88   71.83
   5  41 -15  -10.30   60.08
   6  42 -16   89.93   79.02
   7  43 -17  -61.08   67.34
   2  26 -38   50.40   68.95
   1  25 -37   35.15   76.44
   0  24 -36   16.21   76.02
  24  36   0   57.89   44.14
  -1  23 -35   -4.99   53.05
  23  35   1   42.33   43.95
  22  34   2   32.50   39.61
  -2  22 -34   65.50   72.80
  21  33   3  224.69   44.60
  -3  21 -33  310.81   71.99
  20  32   4  558.35   55.93
  -4  20 -32  436.39   80.94
  -5  19 -31  376.88   79.86
  19  31   5  335.17   45.44
  -6  18 -30   53.63   62.81
  18  30   6   54.89   32.46
  -7  17 -29  181.78   72.14
  17  29   7   30.00   27.89
  -8  16 -28  -78.48   50.94
  16  28   8   13.52   24.01
  -9  15 -27   74.29   58.58
  15  27   9   46.37   22.43
  14  26  10    7.15   16.33
 -10  14 -26   -1.08   48.48
  13  25  11  235.86   19.98
 -11  13 -25  214.93   56.58
 -12  12 -24  631.11   72.14
 -13  11 -23  309.89   53.74
 -14  10 -22  -30.31   42.06
 -15   9 -21  125.19   45.83
 -16   8 -20   61.54   41.10
 -17   7 -19  107.87   39.45
  -6 -18 -18   31.88    9.14
 -18   6 -18   49.67   35.15
  19  -5  17  389.33   50.82
 -19   5 -17  293.29   46.64
  -5 -17 -19  284.46   20.01
  20  -4  16  683.89   59.50
 -20   4 -16  753.23   59.54
  -4 -16 -20  693.26   31.88
  21  -3  15  424.56   51.36
 -21   3 -15  393.21   45.75
 -14  22   2   24.89   38.26
  22  -2  14  -18.09   32.65
 -13  23   1   18.52   36.61
  23  -1  13   45.52   34.46
 -12  24   0   11.22   44.02
  24   0  12  -36.92   33.57
  25   1  11   23.59   35.84
 -11  25  -1    3.92   44.45
  26   2  10   10.06   33.27
 -10  26  -2    2.00   41.91
  -9  27  -3  464.28   66.65
  27   3   9  367.36   48.82
  -8  28  -4  626.08   75.14
  -7  29  -5  220.84   55.12
  -6  30  -6  -36.92   54.01
  -5  31  -7  -20.09   51.44
  -4  32  -8   -9.91   53.20
  -3  33  -9   70.72   67.80
  -2  34 -10   36.88   48.25
  -1  35 -11  192.46   67.99
   0  36 -12  407.88   78.17
   1  37 -13  269.67   68.45
   2  38 -14  112.59   69.22
   3  39 -15   -1.92   67.53
   4  40 -16  -17.25   74.10
   5  41 -17  143.48   69.11
   6  42 -18  -18.48   79.17
   3  25 -39    7.11   82.71
   2  24 -38  109.33   76.33
  23  37  -1   76.56   50.48
   1  23 -37  141.79   73.03
  22  36   0  -22.28   44.52
   0  22 -36   29.96   57.70
  21  35   1  201.21   50.02
  -1  21 -35  266.25   84.67
  -2  20 -34  935.39  101.18
  20  34   2 1036.54   77.64
  19  33   3  692.07   62.19
  -3  19 -33  659.81   92.35
  18  32   4   -5.61   35.99
  -4  18 -32   74.79   57.62
  17  31   5  507.95   50.13
  -5  17 -31  518.17   74.60
  16  30   6  582.71   49.63
  -6  16 -30  553.63   75.91
  -7  15 -29   72.07   56.85
  15  29   7   34.61   27.66
  -8  14 -28  -11.18   52.67
  14  28   8   40.68   24.05
  -9  13 -27  286.07   60.66
  13  27   9  269.17   28.62
 -10  12 -26 1438.81   98.00
  12  26  10 1343.51   49.63
 -11  11 -25 1255.50   95.04
  11  25  11 1148.05   40.83
 -12  10 -24   44.21   46.67
 -13   9 -23 1103.45   84.20
 -14   8 -22  831.21   70.99
 -15   7 -21   51.82   41.87
  -6 -20 -16   -4.80    9.33
 -16   6 -20   27.50   37.68
  -5 -19 -17  328.14   21.93
  17  -5  19  299.79   45.56
 -17   5 -19  381.61   50.67
 -18   4 -18 2058.67   90.77
  -4 -18 -18 1976.42   51.67
  18  -4  18 1884.07   83.55
 -19   3 -17 1067.38   65.92
  -3 -17 -19  995.32   40.49
  19  -3  17  994.09   66.88
 -20   2 -16  -15.98   30.92
  20  -2  16   16.75   31.23
  21  -1  15  844.50   61.96
 -15  21   1  926.40   72.22
 -21   1 -15  925.94   55.89
  22   0  14  833.05   60.69
 -14  22   0  807.55   68.11
 -13  23  -1   76.25   47.40
  23   1  13   88.47   36.07
  24   2  12  -61.46   33.42
 -12  24  -2   57.12   41.87
 -11  25  -3  250.81   54.16
  25   3  11  287.61   43.72
  26   4  10 1418.14   75.75
 -10  26  -4 1486.02   96.46
  -9  27  -5  821.22   78.37
  27   5   9  696.53   56.35
  -8  28  -6   97.38   58.39
  28   6   8    3.84   32.81
  -7  29  -7  448.49   70.72
  -6  30  -8  219.85   54.47
  -5  31  -9   33.19   45.75
  -4  32 -10 -111.52   65.80
  -3  33 -11  130.88   66.69
  -2  34 -12  807.13   95.96
  -1  35 -13  606.45   89.51
   0  36 -14  -32.50   70.03
   1  37 -15  466.97   86.28
   2  38 -16  383.22   81.75
   3  39 -17  116.78   72.53
   4  40 -18 -155.23   76.02
   5  41 -19  109.56   70.26
   6  42 -20  441.38  101.88
   4  24 -40 1157.08  122.54
  23  39  -3  285.50   67.92
   3  23 -39  400.93   84.67
  22  38  -2   87.74   51.21
   2  22 -38   -6.88   63.58
  21  37  -1   46.10   49.55
   1  21 -37   40.76   65.11
  20  36   0  486.02   63.38
   0  20 -36  610.02   95.92
  19  35   1  708.59   68.45
  -1  19 -35  652.62   87.16
  18  34   2   28.81   39.11
  -2  18 -34    3.34   62.31
  17  33   3  908.12   70.41
  -3  17 -33  999.31   92.27
  16  32   4 1892.83   88.93
  -4  16 -32 1861.56  118.97
  15  31   5  585.55   53.63
  -5  15 -31  650.93   84.24
  14  30   6  -22.13   28.58
  -6  14 -30   83.44   56.16
  13  29   7  109.33   32.19
  -7  13 -29  111.48   50.63
  12  28   8  810.39   48.90
  -8  12 -28  780.81   80.17
  11  27   9 1034.35   50.71
  -9  11 -27  868.32   79.56
 -10  10 -26   16.06   44.56
  10  26  10  -11.37   20.24
 -11   9 -25 2230.88  113.51
   9  25  11 2180.79   58.24
 -12   8 -24 3523.98  134.72
 -13   7 -23  898.32   73.95
 -14   6 -22   17.98   35.30
 -15   5 -21   72.07   42.41
  -5 -21 -15   -0.73   13.33
  -4 -20 -16  754.15   36.26
  16  -4  20  740.25   57.43
 -16   4 -20  669.87   56.12
 -17   3 -19 1088.05   67.26
  -3 -19 -17 1030.31   43.02
  17  -3  19  982.79   63.31
 -18   2 -18    7.87   30.54
  -2 -18 -18   -5.07   18.25
  18  -2  18  -15.37   29.69
  -1 -17 -19 2136.26   62.50
  19  -1  17 2196.34   88.28
 -19   1 -17 2215.13   85.24
  20   0  16 3286.35  104.76
 -16  20   0 3440.78  124.23
  21   1  15  928.71   60.54
 -15  21  -1  882.11   73.95
  22   2  14    2.88   29.85
 -14  22  -2   17.82   45.67
 -13  23  -3   42.68   40.26
  23   3  13   40.53   30.39
 -12  24  -4  578.94   69.72
  24   4  12  551.78   50.09
  25   5  11  966.66   61.77
 -11  25  -5 1030.20   86.16
 -10  26  -6  -12.29   40.99
  26   6  10   45.67   31.73
  27   7   9 1263.68   71.41
  -9  27  -7 1495.13  104.83
  28   8   8 1943.65   85.78
  -8  28  -8 2029.62  117.05
  -7  29  -9  462.97   70.49
  29   9   7  483.41   49.21
  -6  30 -10   -6.80   53.24
  -5  31 -11  -55.12   54.32
  -4  32 -12  171.14   66.88
  -3  33 -13  577.60   85.93
  -2  34 -14 -132.68   70.91
  -1  35 -15 1019.98  107.94
   0  36 -16 1717.74  132.84
   1  37 -17  505.15   96.34
   2  38 -18   68.92   77.52
   3  39 -19   53.17   64.38
   4  40 -20  294.68   93.23
   5  41 -21  401.70   94.46
   5  23 -41  637.72  116.86
  22  40  -4  -62.38   54.32
   4  22 -40  -78.98   82.78
  21  39  -3  152.54   59.73
   3  21 -39  104.87   89.31
  20  38  -2   -3.03   48.48
   2  20 -38  -19.75   76.48
  19  37  -1  239.24   56.32
   1  19 -37  266.98   80.79
  18  36   0  -66.61   46.44
   0  18 -36  -23.20   53.24
  17  35   1 1030.89   81.94
  -1  17 -35  882.80   98.61
  16  34   2 2163.54  104.87
  -2  16 -34 2051.25  130.49
  15  33   3  977.95   70.57
  -3  15 -33  970.96  100.07
  14  32   4   18.71   36.11
  -4  14 -32   11.91   55.28
  13  31   5  124.89   37.07
  -5  13 -31  147.01   53.78
  12  30   6   82.17   35.30
  -6  12 -30  108.37   54.66
  11  29   7  292.56   37.99
  -7  11 -29  358.21   63.77
  10  28   8   12.98   24.74
  -8  10 -28  -72.45   51.40
   9  27   9 1481.87   60.00
  -9   9 -27 1494.36   96.15
   8  26  10 4187.71   92.62
 -10   8 -26 4259.08  144.90
 -11   7 -25 2080.45  105.68
   7  25  11 2269.64   62.88
 -12   6 -24  -26.58   35.99
 -13   5 -23  357.68   53.63
  -5 -23 -13  366.47   29.27
 -14   4 -22  -34.07   36.53
  -4 -22 -14   34.92   18.98
  -3 -21 -15  345.92   29.85
 -15   3 -21  357.02   49.48
 -16   2 -20   16.98   32.65
  16  -2  20   11.02   25.58
  -2 -20 -16   14.52   21.09
  -1 -19 -17 2201.38   67.46
 -17   1 -19 2079.10   82.51
  17  -1  19 2353.80   87.74
 -18   0 -18 5807.95  129.15
   0 -18 -18 5730.89  108.71
  18   0  18 5595.83  127.38
 -19  -1 -17 2220.39   78.29
   1 -17 -19 2213.86   67.23
 -17  19  -1 2392.99  106.52
  19   1  17 2061.28   81.36
  20   2  16   52.90   29.39
 -16  20  -2   10.53   40.57
  21   3  15  373.35   41.72
 -15  21  -3  281.54   50.21
 -14  22  -4  -39.80   37.65
  22   4  14  -14.33   24.59
  23   5  13  414.38   43.64
 -13  23  -5  346.77   59.54
  24   6  12  -17.98   27.12
 -12  24  -6   15.29   45.56
  25   7  11 2080.64   81.59
 -11  25  -7 2154.28  113.75
  26   8  10 3971.13  113.05
 -10  26  -8 4160.89  157.73
  27   9   9 1467.97   72.30
  -9  27  -9 1573.15  104.99
  -8  28 -10  128.65   62.92
  28  10   8   69.57   32.54
  -7  29 -11  405.46   80.29
  29  11   7  277.31   39.87
  -6  30 -12   54.74   58.12
  -5  31 -13  122.66   54.16
  -4  32 -14   96.54   70.87
  -3  33 -15  881.38   99.92
  -2  34 -16 2202.03  141.06
  -1  35 -17 1118.09  109.25
   0  36 -18   20.78   64.31
   1  37 -19  122.47   75.79
   2  38 -20  -10.22   75.91
   3  39 -21  129.57   75.29
   4  40 -22 -116.40   89.58
   5  41 -23  688.31  114.13
   5  21 -41  585.36  102.07
  21  41  -5  487.67   79.86
  20  40  -4  210.82   64.54
   4  20 -40  489.94   95.11
  19  39  -3  -42.83   54.74
   3  19 -39  -54.78   71.26
  18  38  -2   49.25   52.78
   2  18 -38   27.12   60.00
  17  37  -1  367.66   62.38
   1  17 -37  412.38   75.41
   0  16 -36 1457.75  118.85
  16  36   0 1622.24  102.99
  15  35   1  974.65   78.06
  -1  15 -35  965.66  101.26
  14  34   2   59.54   40.37
  -2  14 -34   23.16   58.66
  13  33   3  617.47   62.04
  -3  13 -33  541.07   73.37
  12  32   4  318.53   50.25
  -4  12 -32  356.37   68.45
  11  31   5   67.65   36.22
  -5  11 -31  -28.89   47.02
  -6  10 -30   19.44   44.87
  10  30   6  -53.09   33.42
  -7   9 -29  545.91   68.95
   9  29   7  529.62   49.09
   8  28   8 2164.38   79.21
  -8   8 -28 2087.86  109.25
   7  27   9 1438.43   63.00
  -9   7 -27 1516.83   96.54
 -10   6 -26   58.43   39.49
   6  26  10   -4.15   22.09
 -11   5 -25 1055.36   75.56
 -12   4 -24  606.06   59.77
  -4 -24 -12  659.08   41.33
  -3 -23 -13   23.20   23.55
 -13   3 -23   15.44   38.07
  -2 -22 -14   42.03   24.28
 -14   2 -22   37.19   36.19
  -1 -21 -15 1000.89   49.90
 -15   1 -21  891.91   60.89
 -16   0 -20 3271.29  101.22
   0 -20 -16 3308.36   86.62
 -17  -1 -19 2366.06   81.90
   1 -19 -17 2135.00   72.45
  17   1  19 2084.17   75.83
 -18  18  -2   62.35   41.60
   2 -18 -18   33.11   23.74
 -18  -2 -18   88.31   28.35
  18   2  18  -12.91   25.62
 -17  19  -3 1036.61   74.45
 -19  -3 -17 1062.39   51.24
  19   3  17  979.14   54.63
  20   4  16  692.73   47.40
 -16  20  -4  636.95   71.18
 -15  21  -5   10.45   38.76
  21   5  15  -17.21   24.24
  22   6  14   25.39   26.85
 -14  22  -6   21.86   43.33
 -13  23  -7  937.12   84.86
  23   7  13  928.59   54.36
 -12  24  -8 3369.90  139.56
  24   8  12 3410.09   96.61
  25   9  11 2170.15   79.17
 -11  25  -9 2258.69  125.35
  26  10  10   -6.07   27.62
 -10  26 -10    1.23   48.33
  27  11   9  956.06   58.01
  -9  27 -11  853.15   90.35
  28  12   8  816.11   56.47
  -8  28 -12  711.51   86.13
  -7  29 -13  279.20   72.60
  -6  30 -14  -92.04   51.32
  -5  31 -15  690.50   91.89
  -4  32 -16 1872.59  131.65
  -3  33 -17 1109.25  104.49
  -2  34 -18   -9.30   57.85
  -1  35 -19  736.06   95.73
   0  36 -20  567.69  101.57
   1  37 -21   80.71   83.40
   2  38 -22  -75.83   63.61
   3  39 -23  430.13  103.10
   4  40 -24 1076.14  128.19
  20  42  -6  531.16   85.28
   6  20 -42  587.97  102.60
  19  41  -5  141.60   66.03
   5  19 -41   96.96   68.76
  18  40  -4   -8.41   55.05
   4  18 -40  103.30   64.69
   3  17 -39    7.72   57.05
  17  39  -3   54.05   50.71
  16  38  -2  375.35   66.03
   2  16 -38  246.16   73.53
  15  37  -1  337.16   61.50
   1  15 -37  426.36   81.05
  14  36   0  -12.60   42.76
   0  14 -36  -83.13   61.58
  13  35   1  545.72   64.34
  -1  13 -35  586.55   77.90
  12  34   2  856.53   74.75
  -2  12 -34  936.39   95.96
  11  33   3  178.28   44.48
  -3  11 -33  143.48   61.58
  10  32   4   24.32   34.07
  -4  10 -32  172.33   61.31
  -5   9 -31 -123.35   52.70
   9  31   5    8.22   31.73
  -6   8 -30  261.91   54.43
   8  30   6  316.84   43.49
   7  29   7  450.37   44.41
  -7   7 -29  518.33   62.46
   6  28   8   -1.38   27.81
  -8   6 -28    9.87   37.30
  -9   5 -27  807.13   71.11
   5  27   9  796.95   50.55
 -10   4 -26 1369.40   83.47
   4  26  10 1433.01   60.00
  -4 -26 -10 1322.65   57.54
 -11   3 -25  326.95   50.86
  -3 -25 -11  292.76   34.00
  -2 -24 -12   20.59   22.66
 -12   2 -24   53.32   39.18
  -1 -23 -13   30.50   25.93
 -13   1 -23   43.22   31.92
   0 -22 -14  892.83   50.78
 -14   0 -22  834.44   58.74
 -15  -1 -21  904.39   56.58
   1 -21 -15  851.72   51.32
 -16  -2 -20   11.52   26.70
   2 -20 -16    6.45   23.93
 -19  17  -3  984.10   68.80
  17   3  19 1077.60   50.78
 -17  -3 -19 1091.24   53.97
   3 -19 -17 1004.73   56.39
  18   4  18 2030.32   69.80
 -18  18  -4 1983.64  100.38
 -18  -4 -18 2018.75   66.15
   4 -18 -18 1997.20   75.60
 -17  19  -5  294.72   54.51
  19   5  17  347.69   32.88
  20   6  16   -2.38   22.43
 -16  20  -6   -6.99   48.09
  21   7  15   58.62   23.66
 -15  21  -7   45.71   39.80
 -14  22  -8  910.38   77.94
  22   8  14  964.20   50.44
 -13  23  -9 1103.72   89.89
  23   9  13 1049.37   53.93
 -12  24 -10   11.33   53.63
  24  10  12    0.61   23.32
  25  11  11 1187.16   59.35
 -11  25 -11 1133.88   89.66
 -10  26 -12 1362.75  102.60
  26  12  10 1348.38   63.69
  -9  27 -13  282.77   69.22
  27  13   9  312.89   37.99
  -8  28 -14 -114.13   65.46
  -7  29 -15  -67.76   51.01
  -6  30 -16  674.71   93.50
  -5  31 -17  490.17   80.59
  -4  32 -18   -1.04   59.12
  -3  33 -19  727.22   99.11
  -2  34 -20 1058.51  112.75
  -1  35 -21  401.55   85.32
   0  36 -22  -25.62   81.82
   1  37 -23  105.56   81.94
   2  38 -24   94.38   82.48
   3  39 -25  199.45   80.25
  18  42  -6   73.18   59.08
   6  18 -42    3.76   67.65
  17  41  -5  180.39   65.11
   5  17 -41   35.23   68.22
  16  40  -4   16.44   52.67
   4  16 -40   -5.65   63.38
  15  39  -3  -42.72   52.67
   3  15 -39   -3.30   61.16
  14  38  -2   20.32   50.55
   2  14 -38    4.07   57.93
  13  37  -1  189.00   55.85
   1  13 -37  174.25   63.81
  12  36   0  391.48   61.42
   0  12 -36  496.66   72.72
  11  35   1  168.83   47.02
  -1  11 -35  167.68   59.31
  10  34   2   68.38   41.87
  -2  10 -34  -25.89   48.71
  -3   9 -33  -28.58   47.48
   9  33   3  -23.93   36.76
  -4   8 -32   28.54   46.64
   8  32   4   44.94   35.69
   7  31   5   38.34   33.61
  -5   7 -31   61.69   47.33
   6  30   6  -20.24   31.81
  -6   6 -30  -60.46   47.44
  -7   5 -29  194.07   44.52
   5  29   7  263.87   40.10
   4  28   8  460.05   43.72
  -8   4 -28  569.80   57.74
   3  27   9  415.26   42.03
  -3 -27  -9  397.17   40.41
  -9   3 -27  369.09   50.71
   2  26  10  -11.26   21.82
  -2 -26 -10    1.81   25.51
 -11   1 -25   26.97   33.11
  -1 -25 -11  -28.39   28.04
   0 -24 -12    1.34   26.47
 -12   0 -24  -43.91   37.03
 -13  -1 -23   49.29   30.42
   1 -23 -13   70.76   31.46
 -14  -2 -22   41.33   27.39
   2 -22 -14   12.02   26.54
   3 -21 -15  404.08   43.83
 -15  -3 -21  462.86   41.37
 -16  -4 -20  725.84   44.83
   4 -20 -16  729.53   50.44
 -20  16  -4  728.61   68.65
   5 -19 -17  310.62   40.72
 -17  -5 -19  315.80   30.31
 -19  17  -5  280.62   50.82
   6 -18 -18  -30.23   26.93
  18   6  18   38.72   19.32
 -18  18  -6   -2.42   44.29
 -17  19  -7  150.28   51.36
  19   7  17  111.36   21.93
  20   8  16   41.79   20.86
 -16  20  -8  -46.33   48.44
  21   9  15   59.66   21.70
 -15  21  -9  121.20   52.09
 -14  22 -10  108.79   58.89
  22  10  14   -2.00   21.36
 -13  23 -11  277.62   61.96
  23  11  13  274.55   31.50
  24  12  12  669.37   42.18
 -12  24 -12  697.30   80.94
  25  13  11  310.50   35.11
 -11  25 -13  187.23   58.31
  26  14  10  -11.41   22.17
 -10  26 -14  -77.52   55.01
  27  15   9   98.84   28.08
  -9  27 -15    8.99   51.94
  -8  28 -16  -48.06   56.85
  -7  29 -17   66.80   64.73
  -6  30 -18  -15.17   60.39
  -5  31 -19  300.17   72.49
  -4  32 -20  536.88   89.47
  -3  33 -21  407.73   88.05
  -2  34 -22  141.63   65.42
  -1  35 -23   20.82   75.52
   0  36 -24   43.64   76.91
   1  37 -25 -107.45   74.10
   2  38 -26   83.94   91.77
  17  43  -7   29.08   58.01
   7  17 -43   -2.38   67.76
  16  42  -6   78.94   56.89
   6  16 -42   88.70   60.66
  15  41  -5  157.35   62.69
  14  40  -4   70.68   59.00
  13  39  -3  -22.78   48.71
  12  38  -2  -31.77   47.56
  11  37  -1   37.72   47.67
   1  11 -37   88.66   55.82
  10  36   0  -27.43   42.99
   0  10 -36   14.56   55.20
  -1   9 -35  125.69   42.83
   9  35   1  131.07   47.56
  -2   8 -34  107.87   53.51
   8  34   2   68.65   44.45
  -3   7 -33  167.99   53.40
   7  33   3  129.61   43.02
   6  32   4  -34.27   39.76
  -4   6 -32  -13.79   43.10
   5  31   5   20.13   38.22
  -5   5 -31  100.88   45.56
   4  30   6  -12.87   30.77
  -6   4 -30   60.77   40.34
  -7   3 -29   42.22   38.34
   3  29   7   30.85   29.77
   2  28   8  -48.63   29.58
  -2 -28  -8   -2.57   27.58
  -8   2 -28   20.94   35.30
   1  27   9  177.74   33.77
  -1 -27  -9  142.79   31.62
  -9   1 -27   94.81   34.46
 -10   0 -26  206.32   41.72
   0 -26 -10  189.88   34.53
 -11  -1 -25   37.07   34.50
   1 -25 -11   67.76   33.27
 -12  -2 -24    4.88   29.96
   2 -24 -12   -2.73   28.00
 -13  -3 -23   -6.30   25.08
   3 -23 -13  -41.41   29.66
   4 -22 -14   89.70   33.54
 -14  -4 -22   -9.33   22.70
 -15  -5 -21   -8.11   21.47
   5 -21 -15    2.07   28.43
 -20  16  -6   36.88   40.37
   6 -20 -16   48.44   33.42
 -16  -6 -20   -1.50   19.40
   7 -19 -17  144.86   35.19
 -19  17  -7  152.12   53.82
 -18  18  -8  237.67   51.90
   8 -18 -18  307.12   38.38
  19   9  17  246.20   24.51
 -17  19  -9  186.58   53.20
 -16  20 -10   15.44   48.48
  20  10  16   21.86   16.40
  21  11  15   -6.30   16.21
 -15  21 -11  -25.97   47.86
 -14  22 -12  -47.90   45.37
  22  12  14   44.48   17.82
 -13  23 -13   47.36   58.04
  23  13  13   23.36   19.25
  24  14  12   19.90   21.09
 -12  24 -14   11.29   54.63
  25  15  11   30.12   22.36
 -11  25 -15   66.11   50.32
  26  16  10   73.91   25.01
 -10  26 -16   78.71   52.97
  -9  27 -17   64.81   63.50
  -8  28 -18   13.41   66.53
  -7  29 -19    8.99   62.92
  -6  30 -20  -68.92   56.01
  -5  31 -21  -56.93   57.47
  -4  32 -22  -17.67   62.04
  -3  33 -23  -40.76   61.46
  -2  34 -24  156.50   79.44
  -1  35 -25   24.32   85.78
   0  36 -26  -36.57   72.95
   1  37 -27  -10.56   80.90
   2  38 -28  -52.90   85.36
  15  43  -7   34.15   58.31
  14  42  -6   10.91   59.96
  13  41  -5  157.58   64.65
  12  40  -4  226.88   67.34
  11  39  -3  150.62   57.16
  10  38  -2   66.15   53.82
   9  37  -1  -10.79   44.87
   8  36   0  -18.32   44.37
   7  35   1  118.43   50.94
   6  34   2   15.10   43.45
  -3   5 -33  409.96   59.73
   5  33   3  479.57   58.01
  -4   4 -32  801.71   68.53
   4  32   4  875.89   68.30
   3  31   5  190.34   45.25
  -5   3 -31  381.69   53.74
  -2 -30  -6   43.91   31.00
  -6   2 -30    6.65   36.11
   2  30   6    6.57   33.15
   1  29   7   54.20   34.96
  -7   1 -29    4.38   34.96
  -1 -29  -7   29.04   31.69
   0  28   8   55.47   32.96
  -8   0 -28   91.27   36.61
   0 -28  -8  140.37   35.34
   1 -27  -9  156.58   38.18
  -9  -1 -27  181.32   41.56
  -1  27   9  108.10   30.04
 -10  -2 -26   15.60   29.46
   2 -26 -10   76.06   34.15
 -11  -3 -25  299.29   41.76
   3 -25 -11  271.86   42.06
 -12  -4 -24  608.71   47.48
   4 -24 -12  571.80   51.82
 -13  -5 -23  381.88   37.80
   5 -23 -13  389.71   46.06
 -14  -6 -22  -14.67   21.24
 -22  14  -6   14.60   38.72
   6 -22 -14    9.41   30.54
 -15  -7 -21   70.30   20.05
 -21  15  -7    3.57   39.30
 -20  16  -8   59.81   44.75
   8 -20 -16   88.62   34.30
 -16  -8 -20   51.90   14.67
 -19  17  -9  258.68   54.93
   9 -19 -17  220.73   38.68
 -18  18 -10   17.71   50.67
 -17  19 -11  232.52   55.28
 -16  20 -12  630.65   72.33
  20  12  16  626.62   25.93
  21  13  15  203.40   18.40
 -15  21 -13  188.54   61.46
  22  14  14   16.71   13.79
 -14  22 -14    5.99   40.53
  23  15  13   40.14   17.25
 -13  23 -15   97.57   57.54
 -12  24 -16   35.23   65.73
  24  16  12    4.46   17.40
 -11  25 -17   54.55   60.04
  25  17  11   -1.96   20.67
 -10  26 -18  104.10   66.23
  26  18  10   -2.15   19.63
  -9  27 -19  125.88   58.08
  -8  28 -20  266.52   73.91
  -7  29 -21   76.56   64.61
  -6  30 -22 -109.94   65.38
  -5  31 -23  -16.21   53.59
  -4  32 -24  285.07   77.52
  -3  33 -25    7.34   75.02
  -2  34 -26   83.90   75.52
  -1  35 -27   86.93   69.30
   0  36 -28  192.34   81.48
   1  37 -29   80.98   85.89
  14  44  -8   59.31   63.00
  13  43  -7  172.56   70.41
  12  42  -6  638.91   89.93
  11  41  -5  343.46   70.41
  10  40  -4  -52.67   54.32
   9  39  -3  227.99   60.66
   8  38  -2  174.32   56.89
   7  37  -1   -3.80   46.40
   6  36   0  -30.73   46.02
   5  35   1  427.24   63.27
   4  34   2 1453.95   90.43
   3  33   3  967.54   74.37
  -4   2 -32   20.05   36.76
   2  32   4   36.11   39.03
   1  31   5  711.17   65.15
  -5   1 -31  647.05   59.66
  -6   0 -30  271.51   44.52
   0  30   6  269.82   46.87
  -7  -1 -29    7.99   33.84
  -1  29   7   14.94   31.92
   2 -28  -8  -29.39   33.92
  -2  28   8  -16.86   29.69
  -8  -2 -28   29.92   32.04
   3 -27  -9  421.91   50.82
  -9  -3 -27  400.70   42.99
  -3  27   9  515.18   46.33
   4 -26 -10 1305.44   75.18
 -10  -4 -26 1461.25   69.38
 -11  -5 -25  994.09   58.27
   5 -25 -11 1059.97   70.22
 -12  -6 -24  -19.25   22.47
   6 -24 -12    7.68   32.73
 -13  -7 -23  891.25   44.06
   7 -23 -13  877.92   63.61
 -22  14  -8  930.97   74.14
 -14  -8 -22  925.44   39.57
   8 -22 -14  796.37   62.77
 -21  15  -9   38.91   35.49
 -15  -9 -21   80.36   15.44
 -20  16 -10  -46.98   49.29
 -19  17 -11  253.57   53.78
 -18  18 -12 1308.86   93.04
 -17  19 -13  859.48   77.02
 -16  20 -14  -64.65   48.79
 -15  21 -15  566.84   76.91
  22  16  14  442.50   20.97
 -14  22 -16  445.11   68.72
  23  17  13   39.57   13.98
 -13  23 -17   14.14   49.40
 -12  24 -18   29.85   52.86
  24  18  12   -8.84   16.75
  25  19  11  112.13   21.59
 -11  25 -19  168.14   55.97
 -10  26 -20  904.62  101.45
  -9  27 -21  553.67   85.93
  -8  28 -22  -82.74   74.33
  -7  29 -23  488.63   91.27
  -6  30 -24  503.15   93.19
  -5  31 -25   -4.88   75.68
  -4  32 -26   23.16   79.52
  -3  33 -27   98.03   75.29
  -2  34 -28  578.91  101.88
  -1  35 -29  321.49   86.05
   0  36 -30  113.13   92.81
  12  44  -8  356.60   75.98
  11  43  -7  590.05   91.00
  10  42  -6  -33.69   68.19
   9  41  -5  633.65   85.20
   8  40  -4 1277.86  107.41
   7  39  -3  503.15   78.37
   6  38  -2    7.57   47.63
   5  37  -1   38.88   45.67
   4  36   0  943.04   80.44
   3  35   1 1077.02   86.51
   2  34   2   47.94   46.10
   1  33   3 1482.68   89.62
   0  32   4 2887.26  116.40
  -5  -1 -31  495.97   51.51
  -1  31   5  571.95   61.19
  -6  -2 -30   13.87   31.62
  -2  30   6    9.99   37.15
  -3  29   7   14.25   33.34
  -7  -3 -29   96.23   34.11
  -4  28   8  679.55   59.04
  -8  -4 -28  571.26   49.52
  -9  -5 -27  705.37   48.90
 -10  -6 -26   29.12   26.70
 -11  -7 -25 2089.36   70.80
 -12  -8 -24 3370.83   80.21
 -13  -9 -23 1076.72   40.80
 -23  13  -9 1040.92   79.29
 -22  14 -10  -33.00   40.10
 -14 -10 -22   28.50   11.60
 -21  15 -11   62.77   45.37
 -20  16 -12  708.40   70.99
 -19  17 -13  863.86   80.29
 -18  18 -14  -36.34   55.82
 -17  19 -15 1275.05   93.73
 -16  20 -16 1857.99  116.24
 -15  21 -17  593.69   78.90
 -14  22 -18  -68.92   62.31
  23  19  13    5.26    9.18
 -13  23 -19  130.95   59.73
 -12  24 -20  489.78   86.62
  24  20  12  347.69   24.66
 -11  25 -21  632.22   84.24
 -10  26 -22  106.83   68.53
  -9  27 -23 1195.99  108.67
  -8  28 -24 2177.56  147.47
  -7  29 -25  760.87  108.79
  -6  30 -26   63.31   72.03
  -5  31 -27   66.50   77.87
  -4  32 -28  282.54   76.79
  -3  33 -29  467.66  105.64
  -2  34 -30   82.36   72.87
  -1  35 -31  721.96  127.38
  11  45  -9  342.08   91.23
  10  44  -8   53.01   59.47
   9  43  -7  781.12   96.38
   8  42  -6 1703.29  126.19
   7  41  -5  773.90   85.32
   6  40  -4  -45.37   60.62
   5  39  -3  230.68   61.42
   4  38  -2  110.86   59.93
   3  37  -1  517.06   76.56
   2  36   0   50.36   51.63
   1  35   1 1584.21   99.65
   0  34   2 3203.11  130.99
  -1  33   3 1433.01   90.58
  -2  32   4   -8.57   40.41
  -3  31   5  255.46   48.75
  -4  30   6   26.81   41.91
  -6  -4 -30   -1.11   30.00
  -5  29   7  185.20   42.06
  -7  -5 -29  291.49   38.03
  -8  -6 -28   -0.54   28.89
  -6  28   8  -28.93   35.38
  -9  -7 -27 1416.57   62.42
 -10  -8 -26 4330.76   97.76
 -11  -9 -25 2197.03   65.84
 -24  12 -10   23.70   42.49
 -12 -10 -24    4.49   15.14
 -13 -11 -23  252.61   17.21
 -23  13 -11  231.68   53.78
 -22  14 -12   46.83   47.75
 -21  15 -13  257.61   57.74
 -20  16 -14   -4.46   49.55
 -19  17 -15 1182.93   93.42
 -18  18 -16 2816.93  135.49
 -17  19 -17 1187.50   92.89
 -16  20 -18  -55.09   59.27
 -15  21 -19  126.27   53.28
 -14  22 -20   96.80   52.70
 -13  23 -21   78.52   53.70
 -12  24 -22   17.71   60.89
  24  22  12    7.49   11.41
 -11  25 -23 1061.58  108.29
  25  23  11  927.29   38.84
 -10  26 -24 2647.37  157.27
  -9  27 -25  975.23  103.99
  -8  28 -26  -77.60   61.08
  -7  29 -27  197.26   68.61
  -6  30 -28  -22.09   63.61
  -5  31 -29  167.60   89.20
  -4  32 -30  101.68   92.39
  -3  33 -31  583.90  104.41
  -2  34 -32 1450.03  148.59
   9  45  -9  561.35   90.58
   8  44  -8 1188.08  114.44
   7  43  -7  586.74   90.62
   6  42  -6  -73.64   60.69
   5  41  -5  537.99   79.71
   4  40  -4  301.48   70.11
   3  39  -3   -1.65   49.21
   2  38  -2  -21.74   47.83
   1  37  -1  855.03   83.44
   0  36   0 2973.77  136.72
  -1  35   1 1473.81   98.19
  -2  34   2  -52.67   43.83
  -3  33   3  914.69   79.02
  -4  32   4  994.86   77.83
  -5  31   5  -19.17   41.64
  -6  30   6  -62.19   38.95
  -7  29   7  533.58   55.89
  -7  -7 -29  496.74   43.91
  -8  -8 -28 2027.55   75.64
  -9  -9 -27 1340.93   56.32
 -10 -10 -26  -15.71   19.98
 -25  11 -11 1173.14   80.09
 -11 -11 -25 1174.71   42.91
 -12 -12 -24  626.27   23.82
 -24  12 -12  717.04   69.07
 -23  13 -13  -11.68   46.33
 -22  14 -14   -4.46   42.06
 -21  15 -15  625.62   76.14
 -20  16 -16 1851.84  112.94
 -19  17 -17 1330.21  100.34
 -18  18 -18    2.73   51.86
 -17  19 -19  931.70   95.31
 -16  20 -20  494.97   73.72
 -15  21 -21   41.87   58.70
 -14  22 -22   58.08   58.43
 -13  23 -23  275.78   63.42
 -12  24 -24 1459.06  122.39
 -11  25 -25 1163.46  112.40
 -10  26 -26 -114.90   74.41
  -9  27 -27  559.24   98.46
  -8  28 -28  341.12   94.50
  -7  29 -29   66.19   83.90
  -6  30 -30   95.42   81.44
  -5  31 -31  468.31   92.85
  -4  32 -32 1234.83  143.82
  -3  33 -33  814.50  114.51
  -4  32 -34  195.91  100.11
  -5  31 -33  322.95   90.35
  -6  30 -32  394.98  106.98
  -7  29 -31   39.91   66.34
  -8  28 -30  -65.57   67.19
  -9  27 -29  208.51   74.26
 -10  26 -28  869.36  101.88
 -11  25 -27  621.62   92.27
 -12  24 -26   67.03   71.60
 -13  23 -25  321.07   68.57
 -14  22 -24  316.38   70.95
 -15  21 -23   37.26   63.73
 -16  20 -22  108.60   66.69
 -17  19 -21  331.09   76.83
 -18  18 -20 1163.11   96.27
 -19  17 -19  907.89   87.39
 -20  16 -18   29.39   54.05
 -21  15 -17  545.83   73.26
 -22  14 -16  332.13   63.84
 -23  13 -15    2.19   40.87
 -24  12 -14   -9.91   45.98
 -11 -13 -25  214.81   16.06
 -25  11 -13  220.31   45.94
 -10 -12 -26 1508.38   48.86
  -9 -11 -27  914.92   44.45
  -8 -10 -28   13.71   23.01
  -7  -9 -29  508.26   41.76
  -8  30   6  229.64   47.60
  -7  31   5   76.29   42.83
  -6  32   4 -105.45   46.14
  -5  33   3  472.84   65.38
  -4  34   2 1405.43   98.96
  -3  35   1  990.55   83.17
  -2  36   0   80.29   57.05
  -1  37  -1  854.84   88.12
   0  38  -2  544.10   78.48
   1  39  -3   85.66   57.62
   2  40  -4  -24.70   54.59
   3  41  -5  230.22   69.65
   4  42  -6  876.50   97.34
   5  43  -7  398.17   78.33
   6  44  -8  -35.99   58.20
   7  45  -9  358.56   83.28
  -3  31 -35  437.42  107.52
  -4  30 -34  766.41  112.02
  -5  29 -33  128.11   83.90
  -6  28 -32   20.67   65.46
  -7  27 -31   55.28   74.56
  -8  26 -30  613.25  101.68
  -9  25 -29  785.27  105.75
 -10  24 -28  132.95   67.46
 -11  23 -27  651.59   93.15
 -12  22 -26 1228.49  116.13
 -13  21 -25  273.24   72.64
 -14  20 -24  -52.86   51.82
 -15  19 -23   17.75   47.25
 -16  18 -22  305.93   64.34
 -17  17 -21  429.43   73.60
 -18  16 -20   20.05   45.79
 -19  15 -19  469.92   63.69
 -20  14 -18 1080.33   87.97
 -21  13 -17  247.93   56.35
 -22  12 -16   22.32   46.10
 -23  11 -15   75.91   39.11
 -24  10 -14  678.55   65.38
  -9 -13 -25  687.58   31.62
 -25   9 -13  801.09   67.34
  -8 -12 -26   11.75   18.59
 -10  28   6 1069.50   72.99
  -9  29   5  152.74   43.22
  -8  30   4  -85.74   45.18
  -7  31   3   -4.19   43.75
  -6  32   2  703.37   73.53
  -5  33   1  966.58   83.32
  -4  34   0   13.41   49.09
  -3  35  -1  793.49   82.48
  -2  36  -2 1737.60  112.44
  -1  37  -3  489.44   75.37
   0  38  -4   75.83   59.81
   1  39  -5  -76.14   60.46
   2  40  -6  675.48   90.00
   3  41  -7  432.24   76.48
   4  42  -8  -51.17   56.85
   5  43  -9  553.01   89.39
   6  44 -10  619.43   92.08
   7  45 -11  148.01   75.56
  -2  30 -36  582.40  112.90
  -3  29 -35  173.52   75.79
  -4  28 -34  132.45   90.24
  -5  27 -33   79.71   64.19
  -6  26 -32   69.95   75.68
  -7  25 -31  290.45   84.32
  -8  24 -30   80.75   77.44
  -9  23 -29  338.32   85.40
 -10  22 -28 1313.62  120.12
 -11  21 -27  341.58   71.95
  21  27  11  315.46   23.89
 -12  20 -26   -5.22   60.16
 -13  19 -25  -27.62   59.85
 -14  18 -24   96.57   57.66
 -15  17 -23  266.37   69.72
 -16  16 -22  -36.03   51.24
 -17  15 -21  487.52   68.53
 -18  14 -20  946.92   83.86
 -19  13 -19  557.97   68.53
 -20  12 -18   63.23   47.67
 -21  11 -17   29.00   37.30
 -22  10 -16  122.66   49.13
 -23   9 -15  407.00   57.66
 -24   8 -14    1.81   39.11
  -8 -14 -24    0.31   11.26
 -11  27   5  539.22   60.46
 -10  28   4  -13.21   39.68
  -9  29   3  -90.43   44.33
  -8  30   2   61.66   39.14
  -7  31   1  143.55   54.39
  -6  32   0   73.10   51.13
  -5  33  -1  753.77   76.94
  -4  34  -2 1447.99  104.56
  -3  35  -3  469.65   73.33
  -2  36  -4  141.25   66.46
  -1  37  -5   28.12   56.70
   0  38  -6   59.27   53.17
   1  39  -7  342.00   76.14
   2  40  -8   26.04   61.46
   3  41  -9  339.01   71.99
   4  42 -10  636.53   90.93
   5  43 -11  180.16   64.92
   6  44 -12   46.71   71.30
   7  45 -13  -52.74   72.72
  -1  29 -37  147.51   79.36
  -2  28 -36  -53.78   76.10
  -3  27 -35  100.11   82.63
  -4  26 -34  -16.67   56.62
  -5  25 -33   70.95   71.76
  -6  24 -32   90.50   74.14
  -7  23 -31  105.14   64.08
  22  30   8  531.04   45.14
  -8  22 -30  424.90   88.28
  -9  21 -29  258.72   75.79
  21  29   9  189.81   27.16
 -10  20 -28  150.55   71.53
  20  28  10   -4.65   15.71
  19  27  11   17.48   12.29
 -11  19 -27   31.69   50.94
 -12  18 -26   87.20   64.38
 -13  17 -25   88.51   61.31
 -14  16 -24   38.30   53.28
 -15  15 -23  207.71   55.89
 -16  14 -22  543.56   72.03
 -17  13 -21  130.49   50.55
 -18  12 -20   11.52   46.79
 -19  11 -19    1.38   44.60
 -20  10 -18   23.43   42.91
 -21   9 -17  -11.56   35.76
 -22   8 -16  -57.89   40.64
 -23   7 -15  264.33   49.98
 -24   6 -14  549.71   51.17
 -12  26   4    6.49   33.61
 -11  27   3  114.47   44.33
 -10  28   2  -88.01   49.02
  -9  29   1   -3.69   45.10
  -8  30   0  -65.46   54.43
  -7  31  -1  102.95   50.82
  -6  32  -2  713.51   79.56
  -5  33  -3  436.81   66.50
  -4  34  -4   13.52   51.90
  -3  35  -5  111.86   62.23
  -2  36  -6  -24.09   50.36
  -1  37  -7  -50.94   54.93
   0  38  -8   31.81   56.01
   1  39  -9  248.20   80.82
   2  40 -10  300.90   76.68
   3  41 -11  151.58   70.53
   4  42 -12   67.23   70.68
   5  43 -13   63.42   74.64
   6  44 -14  -16.90   71.64
   0  28 -38  -29.62   72.03
  -1  27 -37   12.91   83.90
  -2  26 -36  142.71   80.71
  -3  25 -35  105.83   67.38
  -4  24 -34 -118.97   77.75
  -5  23 -33   48.02   69.84
  -6  22 -32  -13.29   52.24
  22  32   6  -27.27   33.80
  -7  21 -31   83.51   59.24
  21  31   7   45.98   29.54
  -8  20 -30    3.53   54.13
  20  30   8   19.36   25.12
  -9  19 -29   15.79   63.38
  19  29   9    3.42   20.94
 -10  18 -28 -124.81   70.41
  18  28  10    2.54   17.17
 -11  17 -27  -29.23   50.71
  17  27  11   10.18   12.29
 -12  16 -26  -18.05   46.67
  16  26  12    4.92    5.76
 -13  15 -25  131.07   52.24
 -14  14 -24   62.12   57.31
 -15  13 -23   78.02   51.55
 -16  12 -22  -38.57   47.63
 -17  11 -21   58.62   48.75
 -18  10 -20   14.64   39.18
 -19   9 -19  144.55   51.97
 -20   8 -18   -7.07   39.68
 -21   7 -17   53.24   39.18
  -6 -16 -22  130.76   15.40
 -22   6 -16   87.82   37.34
 -23   5 -15   66.07   37.49
 -13  25   3  -25.08   39.64
 -12  26   2  -28.20   36.80
 -11  27   1   15.14   36.92
 -10  28   0  -45.33   46.10
  -9  29  -1   71.37   44.87
  -8  30  -2   52.97   46.17
  -7  31  -3   86.28   55.74
  -6  32  -4  -16.90   53.97
  -5  33  -5  177.01   58.12
  -4  34  -6  100.53   56.70
  -3  35  -7  -91.81   56.93
  -2  36  -8  -71.18   60.93
  -1  37  -9   21.67   52.67
   0  38 -10   42.03   59.96
   1  39 -11  133.87   68.49
   2  40 -12  -32.50   69.22
   3  41 -13   69.26   74.49
   4  42 -14   81.44   67.15
   5  43 -15   71.22   76.37
   6  44 -16   86.24   81.44
   1  27 -39  124.27   92.19
   0  26 -38  -89.20   86.62
  -1  25 -37   92.16   76.56
  -2  24 -36   50.82   66.34
  -3  23 -35  -35.99   79.10
  -4  22 -34   40.49   64.08
  22  34   4   19.82   35.46
  -5  21 -33   52.09   73.29
  21  33   5  -21.51   35.03
  -6  20 -32  -71.41   64.42
  20  32   6   13.98   31.38
  -7  19 -31  238.48   70.95
  19  31   7  185.43   37.92
  -8  18 -30  150.93   57.78
  18  30   8  180.86   31.00
  -9  17 -29   61.35   56.28
  17  29   9   54.20   22.70
  16  28  10   18.32   18.52
 -10  16 -28   59.00   63.61
 -11  15 -27   30.50   54.39
  15  27  11   10.64   13.75
  14  26  12    3.30    7.87
 -12  14 -26    6.57   51.63
 -13  13 -25  -13.79   54.93
 -14  12 -24  -16.48   46.06
 -15  11 -23   -8.68   49.59
 -16  10 -22  268.90   58.97
 -17   9 -21   49.36   42.45
 -18   8 -20  -32.54   45.14
 -19   7 -19   22.59   40.99
  -6 -18 -20   -1.96    9.14
 -20   6 -18  -12.48   35.23
  -5 -17 -21   17.48   12.95
 -21   5 -17   -3.07   35.65
 -22   4 -16   -3.11   33.11
 -23   3 -15   31.19   29.73
  24  -2  14  104.56   39.49
 -14  24   2  204.79   45.14
 -13  25   1  -59.70   46.44
 -12  26   0   14.60   46.98
 -11  27  -1  -28.16   50.02
 -10  28  -2   31.65   51.05
  -9  29  -3   57.01   47.33
  -8  30  -4    4.57   51.90
  -7  31  -5   -7.07   51.01
  -6  32  -6   29.92   55.16
  -5  33  -7   58.24   55.82
  -4  34  -8  132.84   57.01
  -3  35  -9   31.35   50.55
  -2  36 -10   88.81   69.53
  -1  37 -11   11.95   62.15
   0  38 -12   33.15   53.47
   1  39 -13   84.36   59.89
   2  40 -14   16.90   57.81
   3  41 -15  -30.27   70.76
   4  42 -16  -60.20   81.36
   5  43 -17   46.17   64.50
   1  25 -39   45.64   68.07
   0  24 -38   95.61   57.62
  -1  23 -37   75.79   73.95
  -2  22 -36   68.92   76.02
  21  35   3   80.02   39.61
  -3  21 -35   88.62   66.76
  20  34   4  -21.70   37.72
  -4  20 -34  -84.86   72.76
  -5  19 -33  386.41   82.09
  19  33   5  334.67   51.01
  18  32   6  598.88   53.82
  -6  18 -32  716.62   96.61
  -7  17 -31  294.72   74.18
  17  31   7  304.90   42.95
  -8  16 -30   25.08   58.93
  16  30   8   68.53   29.92
  -9  15 -29   43.41   49.32
  15  29   9   50.71   25.20
 -10  14 -28   23.70   53.90
  14  28  10   27.04   18.48
  13  27  11   70.11   16.86
 -11  13 -27   90.35   58.08
 -12  12 -26   64.11   52.44
  12  26  12   13.10   10.37
 -13  11 -25  239.13   54.13
 -14  10 -24  574.06   67.42
 -15   9 -23  396.40   60.73
 -16   8 -22   67.92   44.25
 -17   7 -21   70.72   42.52
 -18   6 -20   27.89   37.80
  -6 -20 -18    4.23    8.26
 -19   5 -19   14.17   34.96
  -5 -19 -19   75.37   14.52
  20  -4  18  -17.44   34.53
 -20   4 -18   28.77   34.04
  -4 -18 -20    5.76   15.21
  21  -3  17  257.65   45.98
  -3 -17 -21  231.06   24.59
 -21   3 -17  236.36   40.60
  22  -2  16 1044.37   70.45
 -22   2 -16 1081.60   65.65
 -15  23   1  386.60   53.70
  23  -1  15  363.67   46.52
 -14  24   0   10.79   49.55
  24   0  14   26.97   35.49
 -13  25  -1   27.20   45.52
  25   1  13   64.73   33.31
 -12  26  -2   -9.14   40.53
  26   2  12   -3.53   33.19
  27   3  11   72.56   36.19
 -11  27  -3   60.69   48.17
 -10  28  -4   11.95   53.51
  28   4  10   55.62   33.50
  -9  29  -5  159.57   50.17
  -8  30  -6  278.31   65.50
  -7  31  -7    0.96   58.39
  -6  32  -8  -30.27   53.13
  -5  33  -9   61.19   58.97
  -4  34 -10   49.86   59.96
  -3  35 -11   -5.65   53.70
  -2  36 -12  100.42   67.26
  -1  37 -13  342.43   78.48
   0  38 -14  618.78   99.15
   1  39 -15   29.77   71.22
   2  40 -16  -35.07   73.26
   3  41 -17    0.54   62.65
   4  42 -18   19.75   75.91
   5  43 -19   50.09   62.23
   2  24 -40   24.74   70.80
   1  23 -39   83.55   70.14
   0  22 -38    7.30   72.53
  21  37   1   72.07   48.71
  -1  21 -37   40.41   64.19
  20  36   2    1.27   42.14
  -2  20 -36  157.31   65.96
  19  35   3  385.30   56.20
  -3  19 -35  418.41   84.43
  18  34   4 1206.79   77.71
  -4  18 -34 1150.97  110.21
  17  33   5  494.97   52.70
  -5  17 -33  536.03   78.71
  16  32   6   -3.00   31.23
  -6  16 -32  -35.92   47.75
  -7  15 -31  406.35   69.22
  15  31   7  384.72   43.49
  -8  14 -30    1.81   54.89
  14  30   8  114.21   31.31
  -9  13 -29  -34.53   52.70
  13  29   9   32.73   27.04
 -10  12 -28   79.06   53.70
  12  28  10   23.32   20.13
 -11  11 -27  401.08   66.65
  11  27  11  305.13   26.39
 -12  10 -26 1527.63   98.30
 -13   9 -25  741.40   73.99
 -14   8 -24   17.25   41.22
 -15   7 -23  181.89   46.67
  -6 -22 -16  148.51   15.40
 -16   6 -22  194.03   48.21
  -5 -21 -17   12.68   13.45
 -17   5 -21   25.85   36.11
 -18   4 -20   18.94   35.84
  -4 -20 -18    0.50   14.83
  18  -4  20   74.02   35.80
 -19   3 -19  851.26   62.77
  19  -3  19  807.59   59.50
  -3 -19 -19  806.13   38.88
  -2 -18 -20 1657.27   56.01
 -20   2 -18 1583.36   77.90
  20  -2  18 1559.59   79.02
  21  -1  17  902.16   61.66
 -21   1 -17  905.04   58.12
  -1 -17 -21  869.59   41.49
  22   0  16  -24.97   31.27
 -16  22   0  -18.25   46.44
  23   1  15  408.04   47.52
 -15  23  -1  439.58   58.74
 -14  24  -2  143.94   44.75
  24   2  14  142.29   35.42
 -13  25  -3  -20.71   39.84
  25   3  13   54.66   34.04
  26   4  12  -16.13   29.54
 -12  26  -4  -11.91   40.07
  27   5  11  449.87   49.25
 -11  27  -5  523.36   67.99
 -10  28  -6 1007.73   90.08
  28   6  10 1021.90   67.92
  29   7   9  420.22   49.55
  -9  29  -7  460.13   70.34
  -8  30  -8   57.62   48.63
  -7  31  -9  228.49   63.81
  -6  32 -10   72.14   53.20
  -5  33 -11   43.68   60.85
  -4  34 -12  -82.90   58.04
  -3  35 -13  328.79   82.86
  -2  36 -14  735.56   94.69
  -1  37 -15  447.84   84.24
   0  38 -16   50.36   65.69
   1  39 -17  178.63   78.17
   2  40 -18   66.65   77.94
   3  41 -19  -22.24   65.19
   4  42 -20   86.66   84.90
   3  23 -41   48.94   77.25
   2  22 -40  344.23   96.57
  21  39  -1 -138.79   54.20
   1  21 -39  -28.62   73.49
  20  38   0  -19.78   45.52
   0  20 -38   99.30   64.73
  19  37   1  266.33   56.09
  -1  19 -37  156.85   69.18
  18  36   2  793.95   74.29
  -2  18 -36  835.67  101.07
  17  35   3  693.57   66.53
  -3  17 -35  622.20   80.75
  16  34   4  -32.19   38.41
  -4  16 -34   24.24   47.56
  15  33   5  711.47   61.00
  -5  15 -33  702.25   85.20
  14  32   6  613.98   53.70
  -6  14 -32  567.84   80.21
  13  31   7   20.94   30.31
  -7  13 -31  -35.76   55.85
  -8  12 -30   -2.15   50.48
  12  30   8   38.30   29.08
  -9  11 -29  234.94   61.27
  11  29   9  163.72   30.81
 -10  10 -28 1100.76   88.78
  10  28  10  938.04   47.75
 -11   9 -27  905.89   81.13
   9  27  11  970.77   44.21
 -12   8 -26  -50.05   47.98
 -13   7 -25  647.86   66.11
 -14   6 -24  650.32   65.23
 -15   5 -23  101.61   42.52
  -5 -23 -15   75.75   17.86
  -4 -22 -16   29.50   18.94
 -16   4 -22  -16.40   36.99
 -17   3 -21  184.93   40.41
  -3 -21 -17  254.34   27.31
  17  -3  21  319.38   41.79
 -18   2 -20 1517.29   76.98
  18  -2  20 1562.97   75.87
  -2 -20 -18 1590.16   56.51
  19  -1  19 1424.87   71.41
  -1 -19 -19 1515.45   57.70
 -19   1 -19 1444.04   72.49
 -20   0 -18   49.90   28.08
   0 -18 -20  -20.55   23.20
  20   0  18   16.02   30.04
 -17  21  -1  895.75   73.60
 -21  -1 -17  775.74   49.02
  21   1  17  919.06   60.69
  22   2  16 1024.55   63.15
 -16  22  -2 1079.10   83.01
  23   3  15   60.00   30.19
 -15  23  -3   35.49   39.84
 -14  24  -4   28.70   43.98
  24   4  14  -47.79   29.81
 -13  25  -5  165.22   48.36
  25   5  13  159.00   33.50
 -12  26  -6 1402.28   95.69
  26   6  12 1310.35   69.72
 -11  27  -7  975.19   87.32
  27   7  11  925.60   61.42
  28   8  10   -6.91   29.39
 -10  28  -8   34.65   46.10
  -9  29  -9  342.16   67.30
  29   9   9  335.09   44.64
  30  10   8  322.49   42.37
  -8  30 -10  304.43   69.95
  -7  31 -11   22.70   59.93
  -6  32 -12  -23.43   50.17
  -5  33 -13  233.44   71.41
  -4  34 -14  985.02  103.03
  -3  35 -15  747.51   99.19
  -2  36 -16   50.05   67.49
  -1  37 -17  174.36   71.26
   0  38 -18  299.09   74.64
   1  39 -19   77.37   75.68
   2  40 -20   46.33   77.44
   3  41 -21   43.10   68.34
   3  21 -41   60.69   59.89
  20  40  -2  -81.05   52.24
   2  20 -40  -47.75   63.11
  19  39  -1   16.63   46.29
   1  19 -39   18.17   63.19
  18  38   0  256.95   56.01
   0  18 -38  354.64   88.78
  17  37   1  344.04   58.62
  -1  17 -37  270.82   74.87
  16  36   2  -21.51   41.53
  -2  16 -36  -49.82   64.73
  15  35   3  691.42   65.92
  -3  15 -35  575.22   86.13
  14  34   4 1015.02   72.53
  -4  14 -34 1218.89  103.95
  13  33   5  223.00   40.64
  -5  13 -33  240.59   66.96
  12  32   6   -5.92   32.34
  -6  12 -32  -10.18   49.40
  11  31   7   67.96   29.92
  -7  11 -31   28.12   51.55
  -8  10 -30  389.29   60.08
  10  30   8  358.71   41.26
   9  29   9  388.06   40.99
  -9   9 -29  388.52   60.73
 -10   8 -28   76.21   46.29
   8  28  10   22.78   22.59
 -11   7 -27 1115.13   79.98
   7  27  11 1103.26   50.86
 -12   6 -26 1406.39   88.74
 -13   5 -25  224.69   46.14
  -5 -25 -13  216.50   25.97
 -14   4 -24   29.81   39.61
  -4 -24 -14  -22.28   19.86
  -3 -23 -15   73.26   22.78
 -15   3 -23  108.79   41.26
  -2 -22 -16 1065.65   50.67
 -16   2 -22 1091.70   68.45
  -1 -21 -17  890.02   48.13
 -17   1 -21  936.16   62.77
   0 -20 -18   23.09   24.97
  18   0  20   -5.15   26.24
 -18   0 -20  -22.59   29.81
  19   1  19 1421.56   67.92
 -19  -1 -19 1355.14   66.42
   1 -19 -19 1299.87   59.35
 -18  20  -2 1715.32   94.85
   2 -18 -20 1646.94   64.34
  20   2  18 1479.65   69.95
 -20  -2 -18 1754.62   69.57
 -17  21  -3  316.07   58.20
  21   3  17  260.64   35.99
  22   4  16   20.67   26.35
 -16  22  -4   28.27   42.22
 -15  23  -5   71.03   44.64
  23   5  15  144.51   35.73
 -14  24  -6  607.02   69.15
  24   6  14  595.96   47.29
 -13  25  -7  502.88   65.61
  25   7  13  635.68   51.13
 -12  26  -8  -70.91   60.85
  26   8  12   -9.33   28.85
  27   9  11  840.16   56.89
 -11  27  -9  968.89   86.28
  28  10  10  941.84   61.04
 -10  28 -10  989.36   90.31
  29  11   9  163.65   35.00
  -9  29 -11  180.39   66.80
  30  12   8  -27.58   34.19
  -8  30 -12   24.85   59.81
  -7  31 -13   29.00   48.36
  -6  32 -14  637.53   92.58
  -5  33 -15  641.75   86.28
  -4  34 -16  -56.28   72.76
  -3  35 -17  503.92   90.43
  -2  36 -18  666.22  100.30
  -1  37 -19  236.17   82.44
   0  38 -20  115.67   73.18
   1  39 -21   86.89   83.82
   2  40 -22  102.95   75.14
   3  41 -23  115.17   92.39
   4  20 -42  142.67   85.89
  19  41  -3    9.30   54.51
   3  19 -41   98.84   74.37
  18  40  -2  -81.40   52.82
   2  18 -40 -152.66   80.90
  17  39  -1   49.55   51.05
   1  17 -39  119.55   71.34
  16  38   0   38.34   43.64
   0  16 -38   37.45   58.20
  15  37   1  532.81   67.11
  -1  15 -37  235.83   62.62
  14  36   2  832.63   72.80
  -2  14 -36  849.07   92.12
  13  35   3  347.30   51.51
  -3  13 -35  330.06   68.42
  12  34   4   30.19   41.45
  -4  12 -34   67.92   48.52
  11  33   5    6.38   33.54
  -5  11 -33    0.88   45.98
  10  32   6   78.83   35.42
  -6  10 -32  -15.52   47.79
   9  31   7  211.55   38.11
  -7   9 -31  104.64   46.87
   8  30   8   26.74   30.31
  -8   8 -30  -19.13   41.10
   7  29   9  561.23   47.25
  -9   7 -29  481.41   61.50
   6  28  10 1054.32   55.78
 -10   6 -28 1176.21   82.78
 -11   5 -27  592.66   62.88
   5  27  11  548.52   39.18
 -12   4 -26   -1.54   38.53
  -4 -26 -12  -30.27   22.97
 -13   3 -25   20.24   37.68
  -3 -25 -13   -1.69   21.47
  -2 -24 -14  131.30   28.73
 -14   2 -24  121.89   39.14
  -1 -23 -15  457.32   39.72
 -15   1 -23  441.15   47.94
 -16   0 -22  -27.77   30.58
   0 -22 -16   11.91   23.43
   1 -21 -17  874.39   50.28
 -17  -1 -21  839.01   56.62
   2 -20 -18 1453.37   64.57
 -18  -2 -20 1617.98   69.15
  18   2  20 1544.68   65.69
   3 -19 -19  763.79   48.75
 -19  19  -3  795.98   67.65
 -19  -3 -19  765.79   48.36
  19   3  19  851.03   51.05
   4 -18 -20    8.26   22.28
 -18  20  -4  -20.40   45.33
  20   4  18   -0.61   22.97
  21   5  17  -13.79   24.39
 -17  21  -5  -21.67   46.10
 -16  22  -6  108.33   43.33
  22   6  16  145.17   30.46
  23   7  15  258.72   37.42
 -15  23  -7  254.80   56.43
 -14  24  -8   54.47   50.36
  24   8  14   13.29   25.24
 -13  25  -9  689.88   80.94
  25   9  13  699.41   48.44
  26  10  12 1412.11   65.77
 -12  26 -10 1405.24  101.68
 -11  27 -11  250.12   59.81
  27  11  11  298.10   39.14
  28  12  10    2.80   27.43
 -10  28 -12  116.36   59.39
  29  13   9   -6.03   28.16
  -9  29 -13  -16.90   60.54
  30  14   8  150.97   35.00
  -8  30 -14  104.83   56.81
  -7  31 -15  244.85   67.99
  -6  32 -16   -0.88   52.63
  -5  33 -17  709.21  100.11
  -4  34 -18 1126.27  117.59
  -3  35 -19  340.66   91.04
  -2  36 -20   13.79   71.11
  -1  37 -21   74.98   67.49
   0  38 -22   58.24   66.80
   1  39 -23  106.48   87.66
   2  40 -24 -168.33   79.59
  19  43  -5   28.04   61.81
   5  19 -43   35.11   57.24
  18  42  -4  -35.19   61.54
   4  18 -42  -45.60   59.58
  17  41  -3  -11.91   52.90
   3  17 -41  -33.80   59.47
  16  40  -2  -41.45   57.39
   2  16 -40  -12.33   53.59
  15  39  -1  136.22   58.81
   1  15 -39  132.11   66.73
  14  38   0  429.47   66.11
   0  14 -38  336.59   75.33
  13  37   1  233.98   53.09
  -1  13 -37  176.51   65.00
  12  36   2   46.06   44.52
  -2  12 -36   39.14   63.11
  11  35   3  153.81   47.60
  -3  11 -35  170.75   62.15
  -4  10 -34  114.40   59.96
  10  34   4  -47.56   35.73
  -5   9 -33  -36.38   55.32
   9  33   5   17.90   35.03
   8  32   6  -17.48   34.73
  -6   8 -32  -41.06   44.06
   7  31   7   24.93   31.54
  -7   7 -31    0.42   45.87
   6  30   8  262.64   39.37
  -8   6 -30  306.89   52.51
   5  29   9  109.56   32.23
  -9   5 -29  150.93   43.41
 -10   4 -28   54.78   42.33
   4  28  10  -25.81   26.31
 -11   3 -27   97.27   41.72
  -3 -27 -11  128.15   30.73
 -12   2 -26   -1.46   38.64
  -2 -26 -12    1.31   25.01
  -1 -25 -13   81.44   30.12
 -13   1 -25   -0.50   33.69
   0 -24 -14  -23.97   24.01
 -14   0 -24   43.41   32.50
   1 -23 -15  435.97   42.29
 -15  -1 -23  442.57   43.25
   2 -22 -16  990.82   57.85
 -16  -2 -22 1073.91   59.73
   3 -21 -17  265.98   37.68
 -17  -3 -21  269.09   34.11
   4 -20 -18   43.33   28.16
 -18  -4 -20  -26.20   23.70
 -20  18  -4    4.99   42.14
 -19  19  -5   52.21   41.53
  19   5  19   80.82   25.47
   5 -19 -19   98.99   29.46
 -18  20  -6  -23.20   54.24
  20   6  18   44.21   21.93
  21   7  17   56.85   23.39
 -17  21  -7    4.65   47.86
  22   8  16   26.43   23.36
 -16  22  -8  -42.99   47.48
  23   9  15  419.37   36.76
 -15  23  -9  468.66   72.76
 -14  24 -10  744.24   81.36
  24  10  14  748.62   46.29
  25  11  13  274.93   34.27
 -13  25 -11  324.37   68.65
 -12  26 -12   50.86   48.21
  26  12  12  -13.14   24.28
  27  13  11   57.81   27.43
 -11  27 -13   20.32   53.47
  28  14  10    3.96   26.24
 -10  28 -14  -68.92   54.39
  -9  29 -15   90.04   49.13
  29  15   9   42.91   27.12
  -8  30 -16  -42.99   62.58
  -7  31 -17  236.13   67.07
  -6  32 -18  703.52   98.07
  -5  33 -19  305.36   87.16
  -4  34 -20  -52.47   76.56
  -3  35 -21  162.03   83.63
  -2  36 -22    0.46   75.52
  -1  37 -23  -43.14   60.39
   0  38 -24   17.63   78.67
   1  39 -25  -31.27   69.18
  17  43  -5    1.92   60.20
   5  17 -43  -19.40   70.76
  16  42  -4  -23.28   54.82
   4  16 -42  -21.24   75.48
  15  41  -3   20.90   54.63
   3  15 -41   39.07   67.57
  14  40  -2   12.83   48.90
   2  14 -40  107.10   62.46
  13  39  -1   62.69   51.09
   1  13 -39   79.21   65.88
   0  12 -38  -67.15   57.12
  12  38   0  -51.28   49.71
  -1  11 -37   -1.08   54.09
  11  37   1  -21.59   46.21
  -2  10 -36   45.37   51.09
  10  36   2  133.95   48.75
  -3   9 -35  -55.36   54.16
   9  35   3   -5.53   41.87
   8  34   4  -51.32   37.22
  -4   8 -34   27.16   49.98
   7  33   5   58.16   37.42
  -5   7 -33    5.49   51.13
   6  32   6   48.21   40.07
  -6   6 -32  -26.43   45.60
   5  31   7  -24.35   31.73
  -7   5 -31   13.48   40.49
   4  30   8   15.94   33.54
  -8   4 -30   19.05   37.84
   3  29   9   -1.73   27.35
  -3 -29  -9   20.44   27.77
  -9   3 -29   31.38   40.64
 -10   2 -28   -7.61   36.34
  -2 -28 -10   34.53   27.89
   2  28  10   23.89   26.01
 -11   1 -27   -5.30   33.73
  -1 -27 -11  101.34   32.27
   0 -26 -12  -17.02   28.31
 -12   0 -26  -17.36   34.42
   1 -25 -13   31.27   26.89
 -13  -1 -25    4.23   31.04
 -14  -2 -24  152.74   33.57
   2 -24 -14   94.35   32.84
   3 -23 -15   56.47   28.93
 -15  -3 -23   39.41   25.43
 -16  -4 -22   10.06   24.82
   4 -22 -16   -5.72   28.81
   5 -21 -17   27.62   28.47
 -21  17  -5  -13.33   43.41
 -17  -5 -21    5.76   22.97
 -18  -6 -20   -2.65   18.94
   6 -20 -18   26.01   29.43
 -20  18  -6   -1.19   43.87
   7 -19 -19  -31.58   28.27
 -19  19  -7  -16.60   37.65
 -18  20  -8  -16.52   50.44
  20   8  18   13.29   18.71
 -17  21  -9   45.37   53.24
  21   9  17   56.12   18.98
  22  10  16  193.38   26.39
 -16  22 -10  185.85   55.32
 -15  23 -11   55.32   46.14
  23  11  15   65.38   22.28
 -14  24 -12   -4.72   55.47
  24  12  14   -0.35   20.74
 -13  25 -13   57.31   55.66
  25  13  13   37.99   22.93
  26  14  12  -13.41   22.78
 -12  26 -14   71.41   48.09
  27  15  11   38.49   26.89
 -11  27 -15    5.53   44.75
  28  16  10   40.34   26.43
 -10  28 -16  136.03   66.03
  -9  29 -17   12.29   65.96
  29  17   9   69.38   29.77
  -8  30 -18  178.74   57.93
  -7  31 -19  140.44   75.33
  -6  32 -20  -77.41   70.87
  -5  33 -21    5.88   72.14
  -4  34 -22   -1.34   75.37
  -3  35 -23   -0.85   81.25
  -2  36 -24  -91.00   63.77
  -1  37 -25  -56.55   85.05
   0  38 -26   73.45   80.09
   1  39 -27  -22.01   91.85
  16  44  -6  189.04   70.76
   6  16 -44   25.24   61.08
  15  43  -5   -7.76   57.62
   5  15 -43   37.07   62.42
  14  42  -4  -47.71   53.78
   4  14 -42   47.21   63.92
  13  41  -3 -116.74   62.31
   3  13 -41   15.29   54.97
  12  40  -2   75.41   57.31
   2  12 -40   13.25   46.90
  11  39  -1   46.67   53.20
   1  11 -39    7.95   48.40
   0  10 -38   -1.34   54.39
  10  38   0    0.23   46.17
  -1   9 -37   10.14   49.52
   9  37   1   11.18   44.29
   8  36   2  -17.98   44.68
  -2   8 -36  -84.09   49.98
   7  35   3   44.02   43.18
  -3   7 -35   68.65   45.33
   6  34   4  142.40   43.91
  -4   6 -34  129.69   49.06
   5  33   5  286.42   50.28
  -5   5 -33  146.90   46.83
   4  32   6   17.13   35.34
  -6   4 -32   39.68   46.37
   3  31   7  130.22   38.53
  -7   3 -31   50.55   39.80
   2  30   8   86.09   33.23
  -2 -30  -8   74.56   31.31
  -8   2 -30   31.00   35.92
   1  29   9  -43.68   31.85
  -1 -29  -9    9.87   29.85
  -9   1 -29    3.07   35.19
 -10   0 -28  -12.33   34.23
   0  28  10  -22.47   27.24
   0 -28 -10    0.27   31.92
 -11  -1 -27   10.76   33.61
   1 -27 -11   18.48   29.35
 -12  -2 -26  -51.74   37.03
   2 -26 -12  -43.79   30.16
 -13  -3 -25   57.58   31.81
   3 -25 -13    9.37   30.35
 -14  -4 -24  -32.84   26.85
   4 -24 -14   54.39   32.58
 -15  -5 -23   96.42   27.08
   5 -23 -15   78.13   34.65
 -22  16  -6  115.44   41.64
   6 -22 -16  158.00   37.11
 -16  -6 -22  180.36   26.01
   7 -21 -17   85.40   35.49
 -17  -7 -21   81.75   19.86
 -21  17  -7   44.94   43.41
   8 -20 -18   17.75   33.11
 -20  18  -8    3.84   49.52
 -19  19  -9   15.21   46.10
 -18  20 -10   78.06   52.32
 -17  21 -11    0.04   49.44
  21  11  17   19.75   12.79
  22  12  16   16.83   14.64
 -16  22 -12   -1.19   53.70
 -15  23 -13   19.59   45.29
  23  13  15   44.60   17.44
 -14  24 -14  220.00   69.65
  24  14  14   82.90   20.55
  25  15  13   99.69   21.78
 -13  25 -15  109.44   62.31
 -12  26 -16   21.13   60.66
  26  16  12   21.09   23.16
  27  17  11   32.11   25.39
 -11  27 -17   88.97   65.11
 -10  28 -18  -20.55   63.04
  -9  29 -19   74.95   62.31
  -8  30 -20   19.13   67.07
  -7  31 -21  117.01   76.29
  -6  32 -22  -34.73   72.91
  -5  33 -23  -73.79   75.10
  -4  34 -24  -95.81   81.63
  -3  35 -25   41.53   61.66
  -2  36 -26  174.48   91.39
  -1  37 -27  105.56   78.52
   0  38 -28 -218.85  100.11
  14  44  -6  -48.59   63.84
  13  43  -5   61.62   60.04
  12  42  -4   -3.19   58.04
  11  41  -3  136.10   58.97
  10  40  -2  206.75   62.46
   9  39  -1   84.97   51.32
   8  38   0  118.93   52.24
  -1   7 -37   -7.68   46.60
   7  37   1   18.21   44.56
   6  36   2   29.73   46.83
  -2   6 -36  -19.90   41.41
   5  35   3  153.77   49.13
  -3   5 -35  198.22   55.12
  -4   4 -34   61.77   43.91
   4  34   4   16.75   42.79
   3  33   5  420.98   52.97
  -5   3 -33  498.58   61.42
   2  32   6  766.41   65.88
  -6   2 -32  783.77   70.45
   1  31   7   94.58   36.46
  -7   1 -31   92.23   43.29
   0  30   8   -3.34   33.38
   0 -30  -8   -8.64   30.19
  -8   0 -30   10.64   33.61
  -1  29   9   17.06   31.81
  -9  -1 -29  -42.14   34.46
   1 -29  -9  -13.91   30.58
 -10  -2 -28   -1.15   31.73
   2 -28 -10   64.77   35.99
 -11  -3 -27   52.86   32.31
   3 -27 -11   65.00   36.15
 -12  -4 -26  -13.21   28.39
   4 -26 -12   73.83   39.49
 -13  -5 -25  191.76   33.57
   5 -25 -13  116.28   35.76
 -14  -6 -24  541.57   39.72
   6 -24 -14  624.04   57.24
 -15  -7 -23  295.06   29.81
   7 -23 -15  228.07   42.22
 -23  15  -7  344.27   51.51
 -22  16  -8   32.23   48.17
 -16  -8 -22  -13.21   16.60
 -21  17  -9  -22.32   41.79
 -20  18 -10  -15.98   44.83
 -19  19 -11   11.56   48.13
 -18  20 -12  -77.21   50.28
 -17  21 -13  177.94   49.98
 -16  22 -14  469.65   73.14
  22  14  16  411.84   19.63
 -15  23 -15  108.21   49.79
  23  15  15  191.73   17.52
  24  16  14   12.18   14.29
 -14  24 -16   60.00   58.70
  25  17  13  100.68   20.74
 -13  25 -17   79.36   59.77
  26  18  12   -3.84   18.05
 -12  26 -18  -31.54   65.15
 -11  27 -19  -19.44   51.59
 -10  28 -20   57.93   69.99
  -9  29 -21  240.24   69.15
  -8  30 -22  446.87   88.12
  -7  31 -23  118.09   74.83
  -6  32 -24   22.97   71.22
  -5  33 -25  -75.68   68.92
  -4  34 -26   12.95   62.69
  -3  35 -27   17.63   83.24
  -2  36 -28  -44.06   72.99
  -1  37 -29  238.44  106.60
  13  45  -7    3.69   67.84
  12  44  -6   49.40   60.12
  11  43  -5  374.81   76.87
  10  42  -4  731.83   87.85
   9  41  -3  393.79   67.96
   8  40  -2   75.75   57.31
   7  39  -1  207.09   59.43
   6  38   0   77.87   49.86
   5  37   1   44.60   48.56
   4  36   2  -13.25   47.17
   3  35   3  432.55   63.54
  -3   3 -35  430.70   60.81
   2  34   4 1440.73   89.54
  -4   2 -34 1282.66   84.90
   1  33   5  729.80   67.49
  -5   1 -33  931.20   72.76
   0  32   6   43.49   39.03
  -6   0 -32  -11.18   36.53
  -7  -1 -31  139.48   42.64
  -1  31   7   93.88   36.53
  -2  30   8   54.24   37.49
  -8  -2 -30  101.49   35.38
  -3  29   9   37.42   32.81
  -9  -3 -29   12.68   28.27
 -10  -4 -28   21.59   30.23
 -11  -5 -27  479.22   44.75
 -12  -6 -26 1339.55   61.54
 -13  -7 -25  667.41   43.06
 -24  14  -8  -29.43   40.03
 -14  -8 -24   25.74   20.17
 -15  -9 -23  392.94   27.20
 -23  15  -9  453.25   63.27
 -22  16 -10   97.42   42.68
 -21  17 -11   58.58   54.59
 -20  18 -12  -24.62   51.48
 -19  19 -13  527.39   74.98
 -18  20 -14  965.70   90.12
 -17  21 -15  476.11   65.88
 -16  22 -16 -133.18   66.73
 -15  23 -17  182.85   62.23
  24  18  14   57.12   11.22
 -14  24 -18  126.46   60.81
  25  19  13   -0.38   12.91
 -13  25 -19  -19.78   58.81
 -12  26 -20   79.94   70.61
 -11  27 -21  217.12   68.07
 -10  28 -22 1088.36  112.82
  -9  29 -23  353.53   78.83
  -8  30 -24    1.31   58.47
  -7  31 -25  199.14   72.41
  -6  32 -26    5.76   58.47
  -5  33 -27   70.18   72.80
  -4  34 -28   88.31   91.39
  -3  35 -29   69.26   66.88
  -2  36 -30  509.22  113.78
  11  45  -7   84.63   67.23
  10  44  -6  736.17   90.27
   9  43  -5  406.50   75.02
   8  42  -4  -19.32   54.86
   7  41  -3  480.49   80.09
   6  40  -2  355.03   64.23
   5  39  -1  -29.89   57.66
   4  38   0   16.56   47.60
   3  37   1  345.73   57.85
   2  36   2 1724.77  103.10
   1  35   3 1029.47   82.55
   0  34   4   23.55   44.41
  -5  -1 -33  861.79   68.84
  -1  33   5  845.27   71.68
  -6  -2 -32  663.15   59.89
  -2  32   6  711.28   64.38
  -3  31   7   48.86   35.38
  -7  -3 -31  104.41   37.11
  -8  -4 -30  -37.53   31.04
  -4  30   8  -36.92   36.38
  -9  -5 -29  131.61   33.61
 -10  -6 -28 1134.61   61.81
 -11  -7 -27 1047.60   56.01
 -12  -8 -26  -20.05   24.51
 -13  -9 -25  706.75   38.15
 -24  14 -10  616.59   64.08
 -14 -10 -24  723.69   31.85
 -23  15 -11  162.65   51.97
 -22  16 -12  -66.99   49.13
 -21  17 -13  247.58   58.85
 -20  18 -14 1033.00   90.12
 -19  19 -15  560.54   76.75
 -18  20 -16  -39.30   59.73
 -17  21 -17  394.05   68.95
 -16  22 -18  467.27   74.60
 -15  23 -19   75.41   63.54
 -14  24 -20   17.44   59.12
 -13  25 -21  244.35   63.65
  25  21  13  242.70   17.02
 -12  26 -22 1081.86  106.95
 -11  27 -23  676.98  102.18
 -10  28 -24   20.21   71.30
  -9  29 -25  628.38  100.45
  -8  30 -26  557.93   97.23
  -7  31 -27    3.03   71.34
  -6  32 -28   76.14   87.93
  -5  33 -29  125.50   83.82
  -4  34 -30  640.48  109.06
  -3  35 -31  347.54  105.22
   9  45  -7  335.74   76.10
   8  44  -6   -8.30   59.00
   7  43  -5  454.10   79.33
   6  42  -4  761.99   92.27
   5  41  -3  211.09   67.57
   4  40  -2   72.18   60.66
   3  39  -1   59.12   53.66
   2  38   0  663.15   74.37
   1  37   1  801.82   78.79
   0  36   2    6.61   50.82
  -1  35   3  863.36   77.83
  -2  34   4 1358.45   91.96
  -3  33   5  398.59   54.86
  -4  32   6    4.11   38.18
  -6  -4 -32   30.69   32.38
  -5  31   7  -23.82   35.42
  -7  -5 -31   13.33   30.19
  -6  30   8  319.84   48.13
  -8  -6 -30  279.35   41.06
  -9  -7 -29  437.62   41.87
 -10  -8 -28   24.70   24.93
 -11  -9 -27  924.98   48.09
 -12 -10 -26 1335.71   49.29
 -25  13 -11  193.88   45.02
 -13 -11 -25  245.70   19.86
 -24  14 -12  -17.21   49.71
 -23  15 -13   18.05   47.90
 -22  16 -14  482.22   66.38
 -21  17 -15  511.91   63.69
 -20  18 -16  -27.20   48.33
 -19  19 -17  946.19   94.69
 -18  20 -18 1144.33   95.84
 -17  21 -19  228.57   72.53
 -16  22 -20  -69.80   62.42
 -15  23 -21   20.40   62.38
 -14  24 -22  450.29   88.01
 -13  25 -23  448.30   82.71
 -12  26 -24  -48.33   74.37
 -11  27 -25  594.54   88.01
 -10  28 -26 1085.74  117.74
  -9  29 -27  212.55   85.47
  -8  30 -28  -75.33   76.91
  -7  31 -29  -11.49   66.92
  -6  32 -30  350.99   90.54
  -5  33 -31  762.18  123.00
  -4  34 -32   63.04   78.83
   8  46  -8   -4.26   60.04
   7  45  -7  359.14   80.21
   6  44  -6  600.53   88.39
   5  43  -5  201.41   64.46
   4  42  -4   15.94   58.24
   3  41  -3    3.61   50.36
   2  40  -2  -21.47   57.85
   1  39  -1  235.86   64.46
   0  38   0    2.04   53.43
  -1  37   1  866.74   83.94
  -2  36   2 1621.66  103.72
  -3  35   3  459.71   64.69
  -4  34   4  -22.78   46.21
  -5  33   5  159.42   48.67
  -6  -6 -32  -15.06   32.31
  -6  32   6   45.21   42.22
  -7  31   7   10.68   34.07
  -7  -7 -31   38.68   28.81
  -8  -8 -30   38.49   29.69
  -9  -9 -29  381.30   38.11
 -10 -10 -28 1016.83   50.21
 -11 -11 -27  336.20   29.04
 -26  12 -12   69.30   43.33
 -12 -12 -26    3.69   12.14
 -25  13 -13   79.63   46.48
 -24  14 -14  143.86   57.01
 -23  15 -15  163.11   51.21
 -22  16 -16  -16.94   42.41
 -21  17 -17  405.04   65.19
 -20  18 -18 1180.17  100.30
 -19  19 -19  316.04   68.34
 -18  20 -20  -98.03   64.54
 -17  21 -21   47.33   53.82
 -16  22 -22  201.52   64.69
 -15  23 -23  310.58   79.75
 -14  24 -24   54.93   67.46
 -13  25 -25  492.24   84.01
 -12  26 -26 1021.02  116.90
 -11  27 -27  285.46   85.43
 -10  28 -28    8.84   61.85
  -9  29 -29   63.11   64.27
  -8  30 -30  -78.83   75.06
  -7  31 -31  218.81   92.77
  -6  32 -32  -35.34   81.71
  -5  33 -33  370.93  105.06
  -6  32 -34  390.10  108.56
  -7  31 -33   85.74   79.94
  -8  30 -32   29.31   62.69
  -9  29 -31   42.64   74.98
 -10  28 -30 -117.51   83.01
 -11  27 -29   27.43   79.90
 -12  26 -28   59.12   68.15
 -13  25 -27  136.64   68.88
 -14  24 -26  507.57   89.35
 -15  23 -25   11.91   65.04
 -16  22 -24  -50.02   56.62
 -17  21 -23  -18.29   52.90
 -18  20 -22   16.60   51.90
 -19  19 -21   86.20   54.63
 -20  18 -20  -12.64   55.62
 -21  17 -19  228.45   59.89
 -22  16 -18  415.03   64.77
 -23  15 -17  219.27   55.16
 -24  14 -16    3.80   45.18
 -25  13 -15   50.82   49.13
 -26  12 -14   13.87   42.91
 -11 -13 -27   82.32   16.06
 -10 -12 -28    8.03   17.98
  -9 -11 -29  209.90   29.89
  -8 -10 -30  418.60   40.99
  -7  -9 -31  414.91   40.14
  -8  32   6   75.98   40.95
  -7  33   5   49.67   40.64
  -6  34   4  140.87   54.47
  -5  35   3   58.70   47.79
  -4  36   2  -26.74   46.14
  -3  37   1  358.60   65.61
  -2  38   0  595.58   76.33
  -1  39  -1  187.92   61.62
   0  40  -2   17.52   52.05
   1  41  -3  -68.30   57.47
   2  42  -4    8.84   59.47
   3  43  -5    0.85   58.08
   4  44  -6   33.80   59.12
   5  45  -7  130.30   73.33
   6  46  -8  319.88   77.67
  -5  31 -35  138.87   92.23
  -6  30 -34 -129.96   87.97
  -7  29 -33  -30.39   65.46
  -8  28 -32  -43.56   74.83
  -9  27 -31   63.31   75.68
 -10  26 -30 -121.35   80.17
 -11  25 -29  368.70   93.88
 -12  24 -28  880.77  106.14
 -13  23 -27  438.42   83.63
 -14  22 -26   -4.84   58.89
 -15  21 -25  149.89   68.07
 -16  20 -24   87.66   64.96
 -17  19 -23  -16.10   58.47
 -18  18 -22  -64.38   57.08
 -19  17 -21  196.57   56.62
 -20  16 -20  548.63   74.75
 -21  15 -19  171.41   56.85
 -22  14 -18   83.67   56.62
 -23  13 -17   12.95   44.10
 -24  12 -16   74.79   45.91
 -25  11 -15   37.30   43.22
 -10 -14 -26  -14.25   10.99
 -26  10 -14   -5.15   44.18
  -9 -13 -27  264.83   24.43
  -8 -12 -28  742.32   41.87
  -7 -11 -29  305.13   32.58
 -10  30   6   41.83   39.34
  -9  31   5  -27.04   40.37
  -8  32   4   27.01   44.98
  -7  33   3   93.19   50.82
  -6  34   2  -70.34   49.59
  -5  35   1  357.45   64.42
  -4  36   0  815.85   82.32
  -3  37  -1  499.16   74.68
  -2  38  -2   42.72   57.08
  -1  39  -3   33.15   51.67
   0  40  -4   56.85   54.63
   1  41  -5  124.12   64.08
   2  42  -6    2.54   57.93
   3  43  -7  220.35   67.53
   4  44  -8  343.12   80.25
   5  45  -9  140.40   67.34
   6  46 -10  -48.02   65.27
  -4  30 -36   17.32   68.68
  -5  29 -35   -9.95   88.01
  -6  28 -34  -35.49   65.34
  -7  27 -33   45.56   84.09
  -8  26 -32  158.50   83.74
  -9  25 -31  131.61   76.56
 -10  24 -30  593.35   96.54
 -11  23 -29  290.22   81.09
 -12  22 -28  119.20   62.31
 -13  21 -27  128.57   67.57
 -14  20 -26   55.24   50.59
 -15  19 -25  144.25   57.28
 -16  18 -24   55.70   47.83
 -17  17 -23  118.20   54.89
 -18  16 -22  439.15   73.41
 -19  15 -21  122.77   54.47
 -20  14 -20  -10.10   42.03
 -21  13 -19  120.01   45.83
 -22  12 -18   -3.50   46.87
 -23  11 -17   31.15   44.87
 -24  10 -16  -67.76   48.36
  -9 -15 -25  227.99   16.13
 -25   9 -15  265.10   52.78
  -8 -14 -26  683.35   32.31
 -11  29   5  -18.05   44.25
 -10  30   4   93.08   45.21
  -9  31   3   54.47   47.94
  -8  32   2  -19.71   48.25
  -7  33   1  374.16   61.85
  -6  34   0  823.84   82.17
  -5  35  -1  374.39   63.08
  -4  36  -2   11.95   49.63
  -3  37  -3  183.93   62.69
  -2  38  -4    4.38   48.71
  -1  39  -5  -43.22   54.74
   0  40  -6  -47.98   65.27
   1  41  -7  186.16   70.45
   2  42  -8  375.69   78.94
   3  43  -9  269.78   76.18
   4  44 -10  -60.35   66.19
   5  45 -11  -54.82   66.11
  -3  29 -37   72.68   71.72
  -4  28 -36   26.54   89.04
  -5  27 -35   19.48   58.08
  -6  26 -34  -85.74   82.78
  -7  25 -33  280.19   91.96
  -8  24 -32  317.23   76.21
  -9  23 -31  124.12   68.19
 -10  22 -30  104.87   77.67
 -11  21 -29   78.10   66.73
 -12  20 -28  -20.59   51.97
 -13  19 -27   -2.42   66.69
 -14  18 -26   24.74   59.35
 -15  17 -25  152.31   63.77
 -16  16 -24  508.22   77.44
 -17  15 -23  242.78   57.12
 -18  14 -22    7.80   53.01
 -19  13 -21  148.32   54.70
 -20  12 -20   -3.69   48.71
 -21  11 -19   -7.22   43.87
 -22  10 -18  -22.97   46.37
 -23   9 -17  314.46   56.28
 -24   8 -16  598.57   61.66
  -8 -16 -24  492.09   19.48
  -8 -16 -24  504.38   20.24
 -25   7 -15  327.87   48.17
 -12  28   4  -90.97   44.14
 -11  29   3  -74.02   48.44
 -10  30   2   34.46   46.14
  -9  31   1  245.85   53.51
  -8  32   0  367.43   61.00
  -7  33  -1  309.77   64.57
  -6  34  -2  -12.18   48.44
  -5  35  -3  174.09   55.66
  -4  36  -4  160.34   55.62
  -3  37  -5   43.37   55.32
  -2  38  -6  -52.97   71.18
  -1  39  -7  250.54   63.35
   0  40  -8  452.02   85.20
   1  41  -9  154.16   68.76
   2  42 -10  -24.70   61.62
   3  43 -11  -13.02   66.38
   4  44 -12  121.20   79.71
   5  45 -13  -18.17   76.37
  -2  28 -38  -48.40   80.40
  -3  27 -37   -5.38   80.17
  -4  26 -36   27.66   65.30
  -5  25 -35  166.64   83.40
  -6  24 -34   60.66   74.41
  -7  23 -33  141.02   60.23
  -8  22 -32  -13.37   59.39
  -9  21 -31  -23.24   54.28
 -10  20 -30  -60.89   69.65
  19  29  11   55.97   14.79
 -11  19 -29  127.07   70.41
 -12  18 -28  118.35   56.74
  18  28  12   13.41    6.80
 -13  17 -27  239.09   67.46
 -14  16 -26  466.93   73.87
 -15  15 -25  299.48   66.19
 -16  14 -24  -56.66   51.55
 -17  13 -23   42.64   44.14
 -18  12 -22  -46.94   50.67
 -19  11 -21   72.41   48.86
 -20  10 -20   48.48   45.29
 -21   9 -19  -13.33   41.83
 -22   8 -18  523.74   63.35
  -7 -17 -23  189.96   14.21
 -23   7 -17  111.32   39.68
 -24   6 -16    1.08   33.34
 -13  27   3   21.20   34.84
 -12  28   2   16.06   37.72
 -11  29   1  185.58   46.37
 -10  30   0  386.30   64.00
  -9  31  -1  222.30   60.16
  -8  32  -2  -36.72   45.44
  -7  33  -3  205.06   62.85
  -6  34  -4  121.97   58.20
  -5  35  -5  108.79   61.58
  -4  36  -6   40.87   61.66
  -3  37  -7   42.18   55.85
  -2  38  -8  306.93   74.29
  -1  39  -9   97.11   65.23
   0  40 -10  196.14   77.25
   1  41 -11  -49.55   73.64
   2  42 -12   85.86   68.80
   3  43 -13  -62.27   70.99
   4  44 -14 -102.57   65.38
  -1  27 -39   28.27   87.09
  -2  26 -38   24.35   72.26
  -3  25 -37  203.40   86.66
  -4  24 -36  266.60   87.28
  -5  23 -35   69.88   70.72
  -6  22 -34  -19.94   52.51
  -7  21 -33   84.40   61.27
  -8  20 -32  148.36   75.79
  -9  19 -31   37.34   55.51
  19  31   9   25.62   21.59
  18  30  10  -11.41   18.05
 -10  18 -30   32.19   60.20
  17  29  11  217.92   22.09
 -11  17 -29  149.12   65.57
  16  28  12  299.75   18.29
 -12  16 -28  356.10   70.11
 -13  15 -27  190.42   52.40
 -14  14 -26   54.59   53.51
 -15  13 -25  221.15   63.35
 -16  12 -24    5.72   42.68
 -17  11 -23   40.26   42.06
 -18  10 -22   36.26   43.83
 -19   9 -21   42.49   43.52
 -20   8 -20  212.62   47.90
 -21   7 -19  146.47   40.95
  -6 -18 -22    4.26    9.83
 -22   6 -18   -9.07   38.64
  -5 -17 -23   74.02   15.25
 -23   5 -17   58.51   34.42
 -24   4 -16   28.35   33.07
 -15  25   3   64.15   40.37
 -14  26   2   -8.87   43.83
 -13  27   1  253.77   57.81
 -12  28   0  429.32   65.30
 -11  29  -1  173.56   55.36
 -10  30  -2   72.49   46.14
  -9  31  -3   33.34   53.43
  -8  32  -4   26.66   44.91
  -7  33  -5   20.32   59.39
  -6  34  -6  -20.36   53.82
  -5  35  -7   56.16   51.71
  -4  36  -8  302.63   71.72
  -3  37  -9   56.81   67.61
  -2  38 -10 -107.06   58.66
  -1  39 -11   50.82   58.04
   0  40 -12   75.37   65.88
   1  41 -13   52.67   62.42
   2  42 -14 -117.59   63.54
   3  43 -15  -93.04   77.10
   4  44 -16    4.61   77.29
  -1  25 -39  122.81   79.56
  -2  24 -38  121.93   87.28
  -3  23 -37   63.38   78.40
  -4  22 -36   71.11   81.63
  -5  21 -35   72.99   61.85
  -6  20 -34    3.96   64.38
  -7  19 -33  149.93   75.60
  19  33   7   23.09   32.15
  -8  18 -32 -103.37   70.41
  18  32   8   16.90   28.66
  -9  17 -31  296.98   76.60
  17  31   9  283.58   34.34
 -10  16 -30  459.28   77.02
  16  30  10  446.34   34.61
 -11  15 -29  220.46   70.76
  15  29  11   52.90   15.48
 -12  14 -28 -137.68   63.84
  14  28  12    7.57   10.60
 -13  13 -27   95.42   56.47
 -14  12 -26    7.76   48.86
 -15  11 -25   54.59   49.82
 -16  10 -24   52.63   43.41
 -17   9 -23  220.61   52.28
 -18   8 -22  534.08   67.15
 -19   7 -21  103.26   43.37
  -6 -20 -20   16.67    9.80
 -20   6 -20  -11.60   39.34
  -5 -19 -21   -0.38   12.14
 -21   5 -19   33.80   37.34
  -4 -18 -22   -6.80   15.60
 -22   4 -18   22.78   35.07
 -23   3 -17   63.11   32.61
 -16  24   2   26.16   42.06
 -15  25   1  311.12   58.39
 -14  26   0  481.26   65.53
 -13  27  -1  277.85   59.04
 -12  28  -2   62.46   53.86
 -11  29  -3   16.63   52.09
 -10  30  -4  -12.06   43.68
  -9  31  -5  -63.08   61.92
  -8  32  -6  -84.90   60.69
  -7  33  -7    5.92   56.97
  -6  34  -8  495.20   82.21
  -5  35  -9   73.29   62.62
  -4  36 -10    5.34   52.90
  -3  37 -11   56.89   64.46
  -2  38 -12   48.56   66.46
  -1  39 -13   87.85   67.42
   0  40 -14   76.02   67.57
   1  41 -15  -84.20   81.67
   2  42 -16  159.69   82.94
   3  43 -17  228.41   79.29
   0  24 -40  154.39   86.05
  -1  23 -39    9.07   73.87
  -2  22 -38   81.02   59.50
  -3  21 -37  -65.00   80.25
  -4  20 -36  -11.45   55.47
  -5  19 -35  129.73   72.03
  19  35   5   55.51   37.19
  -6  18 -34  -20.24   68.07
  18  34   6   45.75   35.99
  -7  17 -33  229.76   70.57
  17  33   7  195.22   38.07
  16  32   8  572.84   46.98
  -8  16 -32  604.03   92.19
  15  31   9  148.01   31.08
  -9  15 -31   89.24   60.35
 -10  14 -30   77.02   56.78
  14  30  10   44.21   21.09
 -11  13 -29   47.63   49.40
  13  29  11   15.02   18.09
 -12  12 -28  -28.27   52.40
  12  28  12   20.13   14.64
 -13  11 -27   63.50   44.91
 -14  10 -26   30.92   51.32
 -15   9 -25  262.49   55.62
 -16   8 -24  717.08   71.34
 -17   7 -23  267.21   53.51
 -18   6 -22  -32.27   43.10
  -6 -22 -18  -12.22   10.56
  -5 -21 -19   27.93   14.17
 -19   5 -21   29.62   39.41
  -4 -20 -20  151.20   21.44
 -20   4 -20  131.11   39.07
  -3 -19 -21  155.12   22.82
 -21   3 -19  133.84   40.37
  21  -3  19  161.19   40.83
  22  -2  18   39.07   35.84
  -2 -18 -22   -8.49   19.02
 -22   2 -18    3.19   30.69
  23  -1  17  333.94   47.40
 -23   1 -17  392.44   42.14
 -17  23   1  455.59   61.54
  24   0  16  684.47   58.97
 -16  24   0  675.29   69.84
 -15  25  -1  291.22   53.40
  25   1  15  254.57   44.45
 -14  26  -2  -57.35   41.68
  26   2  14   18.78   34.30
 -13  27  -3   47.48   45.33
  27   3  13   66.96   37.57
  28   4  12    0.04   33.61
 -12  28  -4   23.78   50.05
 -11  29  -5   15.10   48.59
 -10  30  -6   12.64   53.51
  -9  31  -7  165.07   52.51
  -8  32  -8  451.37   70.72
  -7  33  -9  165.53   59.39
  -6  34 -10  111.29   68.15
  -5  35 -11   48.56   61.58
  -4  36 -12   -0.35   64.65
  -3  37 -13  -34.57   60.20
  -2  38 -14   36.69   64.69
  -1  39 -15  175.28   72.91
   0  40 -16  174.21   68.07
   1  41 -17   81.90   69.45
   2  42 -18 -134.68   82.86
   3  43 -19 -189.77   78.21
   1  23 -41    7.87   71.18
   0  22 -40   -8.84   58.12
  -1  21 -39  -40.14   63.88
  -2  20 -38  -68.92   68.92
  19  37   3   -5.38   38.45
  -3  19 -37    2.42   53.28
  -4  18 -36   -8.49   66.65
  18  36   4  -27.04   39.34
  17  35   5  205.21   46.40
  -5  17 -35  151.70   64.77
  -6  16 -34  515.18   79.79
  16  34   6  577.56   55.78
  -7  15 -33  153.00   58.04
  15  33   7  164.41   37.45
  14  32   8   22.97   28.20
  -8  14 -32  -69.95   56.12
  -9  13 -31   11.83   55.78
  13  31   9   12.14   26.08
 -10  12 -30  136.99   57.78
  12  30  10  118.97   29.19
 -11  11 -29  230.87   57.85
  11  29  11  226.41   28.66
 -12  10 -28   48.33   47.33
 -13   9 -27  301.21   60.66
 -14   8 -26  674.17   70.64
 -15   7 -25  264.79   50.40
 -16   6 -24    6.53   38.80
  -5 -23 -17   68.38   17.52
 -17   5 -23   81.67   42.33
 -18   4 -22   27.66   36.61
  -4 -22 -18  -29.73   18.36
 -19   3 -21  130.88   40.03
  19  -3  21  163.84   37.88
  -3 -21 -19  110.94   22.05
 -20   2 -20    8.68   33.61
  -2 -20 -20    3.73   20.51
  20  -2  20   -8.45   30.77
 -21   1 -19  725.65   55.59
  -1 -19 -21  767.56   43.33
  21  -1  19  739.17   59.04
 -22   0 -18 1161.31   63.73
   0 -18 -22  984.91   48.06
 -18  22   0 1033.89   76.18
  22   0  18 1017.52   67.11
  23   1  17  467.93   50.75
 -17  23  -1  399.13   58.43
 -16  24  -2   55.39   43.10
  24   2  16    1.38   30.16
 -15  25  -3    9.07   43.22
  25   3  15   25.93   30.54
 -14  26  -4   -4.65   41.10
  26   4  14   34.34   31.77
  27   5  13   25.62   33.46
 -13  27  -5  -22.70   46.25
  28   6  12  -48.56   32.11
 -12  28  -6   -6.15   54.39
  29   7  11  271.86   43.56
 -11  29  -7  272.51   62.77
  30   8  10  371.70   49.32
 -10  30  -8  391.33   70.80
  -9  31  -9  424.10   73.64
  -8  32 -10 -104.83   57.39
  -7  33 -11   67.76   52.40
  -6  34 -12   31.19   66.96
  -5  35 -13   45.48   53.20
  -4  36 -14   10.83   70.80
  -3  37 -15   21.01   70.03
  -2  38 -16  323.10   85.28
  -1  39 -17    2.30   74.49
   0  40 -18   86.82   78.86
   1  41 -19   40.49   65.53
   2  42 -20    6.42   85.63
   2  22 -42   -5.53   68.95
   1  21 -41  101.57   80.36
   0  20 -40    7.68   74.14
  -1  19 -39  -13.33   65.04
  18  38   2   70.91   46.06
  -2  18 -38   49.59   57.97
  17  37   3   66.15   44.10
  -3  17 -37  198.53   71.11
  16  36   4  372.97   53.55
  -4  16 -36  413.61   77.02
  15  35   5  203.79   44.79
  -5  15 -35  225.15   56.09
  14  34   6  -38.61   33.96
  -6  14 -34   -8.11   52.36
  13  33   7   42.60   30.62
  -7  13 -33   68.76   52.28
  -8  12 -32   -9.83   48.67
  12  32   8   27.01   28.47
  -9  11 -31  246.43   65.11
  11  31   9  162.65   32.46
 -10  10 -30  156.88   55.66
  10  30  10  133.91   29.43
 -11   9 -29   69.99   49.94
   9  29  11  158.77   26.08
 -12   8 -28  718.77   75.79
 -13   7 -27  342.16   56.97
 -14   6 -26   39.57   41.83
 -15   5 -25   79.13   41.72
  -5 -25 -15  -11.41   18.48
 -16   4 -24   17.48   38.11
  -4 -24 -16  -25.43   19.82
 -17   3 -23   18.13   39.11
  -3 -23 -17   63.84   22.01
 -18   2 -22   34.69   34.77
  -2 -22 -18   -8.22   20.86
 -19   1 -21  795.02   58.04
  19  -1  21  816.50   58.12
  -1 -21 -19  766.37   45.18
   0 -20 -20 2593.86   78.98
  20   0  20 2543.46   93.39
 -20   0 -20 2458.91   92.96
   1 -19 -21  704.83   44.60
 -21  -1 -19  754.27   52.90
 -19  21  -1  855.34   74.52
  21   1  19  687.08   53.36
  22   2  18   14.06   27.01
 -18  22  -2   20.21   37.84
 -17  23  -3  102.76   43.68
  23   3  17   47.52   28.85
  24   4  16    5.19   27.43
 -16  24  -4   44.83   47.63
 -15  25  -5   89.12   48.06
  25   5  15   77.87   31.58
  26   6  14   15.10   28.96
 -14  26  -6  -45.33   47.75
 -13  27  -7  242.93   64.11
  27   7  13  274.16   41.18
 -12  28  -8  862.71   84.82
  28   8  12  752.92   58.04
 -11  29  -9  228.07   61.50
  29   9  11  115.05   34.88
 -10  30 -10   41.60   56.16
  30  10  10   82.94   35.99
  -9  31 -11  115.82   59.27
  -8  32 -12  -24.51   51.74
  -7  33 -13  -16.79   60.89
  -6  34 -14   86.70   62.31
  -5  35 -15  201.87   82.05
  -4  36 -16  355.10   79.48
  -3  37 -17  196.45   77.64
  -2  38 -18  -80.71   82.32
  -1  39 -19   76.71   81.98
   0  40 -20  110.10   77.90
   1  41 -21   98.99   80.98
   2  42 -22  169.75   92.23
   2  20 -42   73.49   70.49
   1  19 -41   78.21   63.81
  18  40   0  -27.77   49.86
   0  18 -40   82.28   67.26
  17  39   1   78.21   52.59
  -1  17 -39  168.79   72.64
  16  38   2  342.62   60.35
  -2  16 -38  285.34   77.75
  15  37   3  199.64   52.28
  -3  15 -37  248.69   74.60
  14  36   4  -61.77   46.94
  -4  14 -36   10.99   50.63
  -5  13 -35  125.27   57.58
  13  35   5   79.33   36.22
  -6  12 -34   88.93   57.89
  12  34   6   38.26   33.84
  11  33   7  105.10   38.07
  -7  11 -33   89.16   51.48
  -8  10 -32  -23.01   49.75
  10  32   8   25.74   29.12
  -9   9 -31  119.39   55.05
   9  31   9   52.01   28.35
   8  30  10  382.45   39.49
 -10   8 -30  384.57   64.92
 -11   7 -29  426.32   62.54
   7  29  11  305.28   34.88
 -12   6 -28   74.45   43.18
 -13   5 -27   84.67   45.83
  -4 -26 -14   46.44   21.40
 -14   4 -26  -50.32   40.53
  -3 -25 -15   75.91   24.74
 -15   3 -25   94.96   39.30
  -2 -24 -16    0.00   22.97
 -16   2 -24   -7.95   32.04
  -1 -23 -17  368.62   36.07
 -17   1 -23  355.64   46.79
 -18   0 -22 1110.25   65.80
   0 -22 -18  993.17   52.82
   1 -21 -19  735.67   47.94
 -19  -1 -21  790.15   54.09
  19   1  21  711.17   49.44
 -20  -2 -20   -3.07   26.77
 -20  20  -2    2.96   42.45
   2 -20 -20   21.51   26.74
  20   2  20   -9.22   26.74
   3 -19 -21  138.18   28.47
 -19  21  -3  187.92   50.78
  21   3  19   98.61   27.93
  22   4  18   41.64   27.89
 -18  22  -4    9.91   35.19
  23   5  17   93.23   31.88
 -17  23  -5   74.29   43.22
 -16  24  -6   -6.76   36.92
  24   6  16   -5.88   25.35
  25   7  15  276.55   36.30
 -15  25  -7  383.26   67.42
 -14  26  -8  732.75   80.86
  26   8  14  682.66   52.28
 -13  27  -9  229.07   59.24
  27   9  13  247.85   37.88
 -12  28 -10   60.54   57.08
  28  10  12   -4.80   29.73
 -11  29 -11  266.10   73.76
  29  11  11  172.40   36.99
  30  12  10   49.86   32.42
 -10  30 -12   73.22   59.50
  -9  31 -13   18.98   53.59
  -8  32 -14   -9.49   57.20
  -7  33 -15  282.04   79.25
  -6  34 -16  609.02   94.65
  -5  35 -17  223.34   73.56
  -4  36 -18  -40.80   61.12
  -3  37 -19  103.33   63.58
  -2  38 -20   -6.18   71.99
  -1  39 -21  129.73   81.98
   0  40 -22  -31.85   68.80
   1  41 -23  -61.73   82.28
   3  19 -43 -114.21   77.87
   2  18 -42    8.68   70.53
  17  41  -1   -4.99   49.86
   1  17 -41   50.44   72.53
  16  40   0  259.72   61.89
   0  16 -40  237.75   76.18
  15  39   1   70.30   47.52
  -1  15 -39  152.77   67.53
  14  38   2  -38.26   40.80
  -2  14 -38   38.15   64.77
  13  37   3   89.74   43.56
  -3  13 -37   95.96   55.93
  12  36   4    7.38   35.76
  -4  12 -36  -51.82   62.73
  -5  11 -35   42.14   53.05
  11  35   5   64.88   41.03
  10  34   6   73.45   39.80
  -6  10 -34   26.81   52.21
   9  33   7  171.71   39.99
  -7   9 -33  131.76   54.43
   8  32   8  308.89   41.37
  -8   8 -32  202.79   53.74
  -9   7 -31  156.19   52.51
   7  31   9  141.13   34.57
   6  30  10  -11.18   26.28
 -10   6 -30    5.26   44.21
 -11   5 -29  -32.38   46.02
   5  29  11   10.91   24.20
 -12   4 -28  -22.70   41.26
  -4 -28 -12   18.13   22.86
 -13   3 -27   53.63   41.03
  -3 -27 -13   46.87   25.24
  -2 -26 -14   11.72   25.24
 -14   2 -26   61.31   38.76
  -1 -25 -15  251.92   35.00
 -15   1 -25  310.12   44.33
   0 -24 -16  744.74   50.51
 -16   0 -24  740.40   59.47
   1 -23 -17  488.52   44.71
 -17  -1 -23  328.71   41.49
   2 -22 -18    9.10   27.66
 -18  -2 -22   32.73   27.70
   3 -21 -19   82.78   28.54
 -19  -3 -21  127.96   31.12
 -21  19  -3  190.61   48.82
   4 -20 -20  159.73   33.31
 -20  -4 -20  106.06   24.78
 -20  20  -4  179.93   51.32
  20   4  20  151.01   29.27
   5 -19 -21   18.40   27.12
  21   5  19   20.55   25.58
 -19  21  -5    3.65   44.33
 -18  22  -6  -65.73   44.41
  22   6  18   24.16   22.43
  23   7  17  229.53   34.04
 -17  23  -7  195.26   55.62
  24   8  16  647.82   46.17
 -16  24  -8  640.14   79.13
  25   9  15  214.97   33.96
 -15  25  -9  273.43   60.66
 -14  26 -10  -17.09   51.74
  26  10  14  -13.29   24.59
  27  11  13   72.30   28.85
 -13  27 -11   67.80   51.44
 -12  28 -12   40.45   58.01
  28  12  12   16.13   25.24
  29  13  11   13.45   27.50
 -11  29 -13  -51.67   66.42
  30  14  10   15.98   28.35
 -10  30 -14  -13.37   54.55
  -9  31 -15  194.88   70.14
  -8  32 -16  875.77   96.77
  -7  33 -17  196.41   69.72
  -6  34 -18  -72.45   60.00
  -5  35 -19  101.76   63.92
  -4  36 -20   -0.85   59.27
  -3  37 -21  -11.87   66.23
  -2  38 -22  -77.14   86.16
  -1  39 -23   99.42   75.79
   0  40 -24  155.73   79.02
  17  43  -3  103.10   63.46
   3  17 -43   88.85   74.33
  16  42  -2  269.13   66.19
   2  16 -42  124.54   68.99
  15  41  -1  141.29   56.70
   1  15 -41   75.60   64.11
  14  40   0   55.51   50.51
   0  14 -40   -6.18   56.12
  -1  13 -39  -45.33   67.88
  13  39   1   46.71   48.82
  -2  12 -38   16.36   52.78
  12  38   2   20.97   41.87
  -3  11 -37  -86.97   68.92
  11  37   3   40.80   40.64
  -4  10 -36  -21.24   58.08
  10  36   4   87.70   45.14
   9  35   5   79.98   42.18
  -5   9 -35   36.11   47.13
   8  34   6  372.85   54.86
  -6   8 -34  234.06   56.66
   7  33   7  -12.48   31.65
  -7   7 -33   41.45   45.75
  -8   6 -32  -20.55   42.52
   6  32   8   36.38   30.73
   5  31   9   15.48   28.00
  -9   5 -31   17.86   40.14
 -10   4 -30  -73.53   45.48
   4  30  10   12.25   28.39
 -11   3 -29   26.66   39.14
  -3 -29 -11   -2.04   25.89
 -12   2 -28  -33.96   37.49
  -2 -28 -12   28.35   28.27
  -1 -27 -13  146.28   31.00
 -13   1 -27  191.50   41.91
   0 -26 -14  462.74   45.98
 -14   0 -26  367.24   47.63
   1 -25 -15  257.88   38.45
 -15  -1 -25  342.16   44.02
 -16  -2 -24  -50.02   28.89
   2 -24 -16   -7.30   28.16
   3 -23 -17   61.85   30.00
 -17  -3 -23   68.15   30.19
 -18  -4 -22   21.05   24.43
   4 -22 -18   -8.60   26.85
   5 -21 -19   -7.76   29.16
 -21  19  -5   -4.07   41.95
 -19  -5 -21   18.67   21.63
 -20  20  -6  -55.82   49.06
  20   6  20  -13.75   21.24
   6 -20 -20    0.46   28.27
   7 -19 -21  151.54   33.96
  21   7  19  220.46   29.50
 -19  21  -7  184.04   59.39
 -18  22  -8  565.69   75.79
  22   8  18  477.76   35.15
 -17  23  -9  304.28   67.76
  23   9  17  206.86   29.39
  24  10  16  -16.98   23.59
 -16  24 -10   88.12   47.06
 -15  25 -11  -41.26   61.19
  25  11  15   36.72   22.70
 -14  26 -12   61.19   49.63
  26  12  14   -9.41   23.28
 -13  27 -13  126.61   61.62
  27  13  13   55.89   27.04
  28  14  12   -6.15   27.12
 -12  28 -14   20.63   52.01
  29  15  11  127.04   32.04
 -11  29 -15  132.38   58.62
 -10  30 -16  470.42   81.82
  -9  31 -17  439.00   87.39
  -8  32 -18   40.87   63.92
  -7  33 -19   94.77   59.62
  -6  34 -20  -95.08   71.45
  -5  35 -21  -85.89   66.26
  -4  36 -22  -34.07   58.24
  -3  37 -23   71.22   75.52
  -2  38 -24  171.10   89.77
  -1  39 -25   51.82   69.38
  16  44  -4  100.15   58.12
   4  16 -44  179.89   83.32
  15  43  -3   31.19   53.70
   3  15 -43  121.66   65.38
  14  42  -2  -26.16   53.20
   2  14 -42  106.02   66.38
  13  41  -1   20.78   50.63
   1  13 -41  -64.88   65.30
   0  12 -40   72.14   58.85
  12  40   0   12.68   50.63
  -1  11 -39   93.23   54.24
  11  39   1  -18.52   49.21
  -2  10 -38    2.69   57.78
  10  38   2   39.99   42.87
  -3   9 -37  -77.98   55.39
   9  37   3   91.50   48.17
   8  36   4  215.66   48.90
  -4   8 -36  242.05   58.24
   7  35   5  175.55   43.83
  -5   7 -35  136.79   50.02
   6  34   6   48.90   35.96
  -6   6 -34   68.11   41.87
   5  33   7   98.30   41.83
  -7   5 -33   66.38   46.67
   4  32   8    6.42   31.96
  -8   4 -32  -12.60   37.19
   3  31   9   44.64   31.81
  -9   3 -31   38.68   40.26
 -10   2 -30  -52.47   40.26
   2  30  10    2.27   30.35
  -2 -30 -10   10.30   29.96
 -11   1 -29  230.95   45.91
  -1 -29 -11  164.03   32.34
 -12   0 -28  521.74   55.51
   0 -28 -12  385.14   44.33
   1 -27 -13  254.80   41.18
 -13  -1 -27  207.48   38.49
   2 -26 -14  -52.59   32.84
 -14  -2 -26  -39.41   29.81
   3 -25 -15   74.56   33.04
 -15  -3 -25   59.43   30.85
   4 -24 -16  -36.42   34.57
 -16  -4 -24   26.66   23.82
   5 -23 -17   55.70   31.54
 -17  -5 -23   53.93   25.66
   6 -22 -18    2.15   30.69
 -18  -6 -22  -31.85   23.09
 -22  18  -6   23.36   43.95
 -21  19  -7  226.53   48.86
   7 -21 -19  165.03   35.99
 -20  20  -8  137.75   44.10
 -19  21  -9   44.68   48.90
  21   9  19   61.46   17.36
  22  10  18   -0.65   15.63
 -18  22 -10  -42.72   47.25
  23  11  17   37.68   19.25
 -17  23 -11   74.18   53.86
  24  12  16   -9.99   19.63
 -16  24 -12   49.29   52.59
 -15  25 -13  235.21   68.80
  25  13  15   85.05   22.40
 -14  26 -14   54.09   56.32
  26  14  14   47.06   23.01
 -13  27 -15  149.59   55.51
  27  15  13  149.32   28.20
  28  16  12  414.91   39.80
 -12  28 -16  387.79   73.83
 -11  29 -17  224.22   76.75
 -10  30 -18  -85.89   61.77
  -9  31 -19 -116.13   68.95
  -8  32 -20  -14.10   59.81
  -7  33 -21  112.36   64.88
  -6  34 -22   59.20   65.77
  -5  35 -23  156.19   71.68
  -4  36 -24  106.06   92.77
  -3  37 -25   28.93   80.86
  -2  38 -26  -26.39   63.27
  -1  39 -27   77.71   92.73
  14  44  -4  -49.44   61.50
   4  14 -44   71.64   61.85
  13  43  -3   74.45   57.85
   3  13 -43  -95.73   71.14
   2  12 -42   15.06   53.78
  12  42  -2  -53.78   53.32
   1  11 -41   95.31   55.09
  11  41  -1  -28.70   52.13
   0  10 -40  -59.77   62.54
  10  40   0 -111.21   50.71
  -1   9 -39   58.81   57.47
   9  39   1  171.98   53.82
   8  38   2  201.21   53.66
  -2   8 -38  149.47   48.48
   7  37   3  150.24   47.90
  -3   7 -37  132.76   55.43
   6  36   4   -2.27   40.80
  -4   6 -36  -14.33   52.86
   5  35   5   51.55   39.14
  -5   5 -35   57.12   48.21
   4  34   6  143.06   45.56
  -6   4 -34  163.57   51.28
   3  33   7   47.83   33.84
  -7   3 -33   74.83   42.37
   2  32   8   33.46   40.03
  -8   2 -32   60.85   38.18
  -1 -31  -9  296.37   44.83
   1  31   9  286.73   43.64
  -9   1 -31  257.03   46.71
   0  30  10  515.48   48.56
 -10   0 -30  542.99   59.89
 -11  -1 -29  252.38   44.21
   1 -29 -11  242.39   42.26
 -12  -2 -28  -22.97   32.08
   2 -28 -12    3.11   31.96
 -13  -3 -27   15.63   28.23
   3 -27 -13   25.39   31.54
 -14  -4 -26    5.49   27.43
   4 -26 -14    9.80   31.58
 -15  -5 -25   57.70   27.74
   5 -25 -15   34.00   34.50
   6 -24 -16  -29.43   32.73
 -16  -6 -24   11.45   22.74
 -23  17  -7  310.04   57.66
   7 -23 -17  201.75   41.53
 -17  -7 -23  252.19   29.16
 -22  18  -8  558.24   68.68
 -21  19  -9   42.52   53.59
 -20  20 -10   22.17   50.40
 -19  21 -11  -53.28   56.32
  22  12  18   -3.50   10.45
 -18  22 -12  -19.09   54.78
 -17  23 -13   -3.07   53.47
  23  13  17   43.29   13.02
  24  14  16   -2.04   12.98
 -16  24 -14  -91.96   58.77
 -15  25 -15  383.34   79.44
  25  15  15  250.62   25.43
  26  16  14  483.68   33.04
 -14  26 -16  552.25   84.43
 -13  27 -17   74.29   63.15
 -12  28 -18  -13.52   64.15
 -11  29 -19   40.60   56.97
 -10  30 -20  104.91   76.56
  -9  31 -21  -45.75   74.72
  -8  32 -22   34.96   63.23
  -7  33 -23  216.54   76.29
  -6  34 -24  198.22   75.45
  -5  35 -25  152.47   86.47
  -4  36 -26   19.32   79.40
  -3  37 -27  -12.83   60.23
  -2  38 -28   84.90   86.93
  13  45  -5  138.41   68.19
   5  13 -45  122.89   74.18
  12  44  -4   53.63   59.96
   4  12 -44   70.99   69.26
  11  43  -3  129.34   61.23
   3  11 -43  -22.32   62.50
   2  10 -42  -20.82   59.62
  10  42  -2  -89.20   58.97
   1   9 -41  457.29   79.79
   9  41  -1  140.71   55.55
   0   8 -40  493.28   68.15
   8  40   0  437.77   71.11
   7  39   1  144.09   52.51
  -1   7 -39  129.30   54.74
  -2   6 -38  -24.82   47.79
   6  38   2   24.66   44.14
   5  37   3  -42.87   44.56
  -3   5 -37   22.32   47.60
   4  36   4   -2.19   42.91
  -4   4 -36   92.92   50.36
  -5   3 -35  103.33   47.98
   3  35   5  113.32   45.25
   2  34   6   54.63   40.80
  -6   2 -34   -7.76   43.79
  -7   1 -33  322.18   52.59
   1  33   7  369.16   52.44
   0  32   8  504.50   54.20
  -8   0 -32  465.51   56.85
  -1  31   9  234.21   41.41
  -9  -1 -31  279.89   46.44
 -10  -2 -30  -27.39   32.38
 -11  -3 -29  -20.47   32.00
 -12  -4 -28   -3.34   29.77
 -13  -5 -27   21.70   29.31
 -14  -6 -26  -31.96   25.89
 -15  -7 -25  334.24   34.15
 -16  -8 -24  733.52   38.26
 -24  16  -8  587.59   70.03
 -23  17  -9  243.28   56.78
 -22  18 -10   10.60   40.22
 -21  19 -11   24.43   38.95
 -20  20 -12   83.78   49.55
 -19  21 -13   80.71   59.77
 -18  22 -14  -38.72   58.01
 -17  23 -15  223.61   62.65
  24  16  16  369.28   17.40
 -16  24 -16  516.10   71.53
 -15  25 -17  160.15   63.73
  25  17  15  174.98   17.09
 -14  26 -18   -0.85   53.47
 -13  27 -19  -27.77   56.89
 -12  28 -20   23.59   70.84
 -11  29 -21  110.71   61.39
 -10  30 -22   75.29   70.91
  -9  31 -23  130.69   75.95
  -8  32 -24  413.53   98.69
  -7  33 -25  -31.00   76.14
  -6  34 -26  -21.28   81.17
  -5  35 -27   99.49   80.25
  -4  36 -28  100.95   77.14
  -3  37 -29   52.94   87.85
  11  45  -5  -20.44   64.15
  10  44  -4   37.92   60.77
   9  43  -3  194.61   62.23
   8  42  -2  394.44   70.38
   7  41  -1  174.79   58.81
   6  40   0   32.34   48.63
   5  39   1  -16.25   46.10
   4  38   2   15.17   43.87
  -2   4 -38   42.56   48.56
   3  37   3  248.73   54.39
  -3   3 -37  157.31   51.32
  -4   2 -36   -4.76   39.53
   2  36   4  -15.90   41.22
   1  35   5  444.80   59.81
  -5   1 -35  423.90   58.12
  -6   0 -34  693.88   66.30
   0  34   6  728.41   67.72
  -7  -1 -33  409.31   56.32
  -1  33   7  275.58   48.82
  -8  -2 -32   23.20   32.88
  -2  32   8   13.56   35.92
  -9  -3 -31   30.62   30.12
  -3  31   9   87.28   37.53
 -10  -4 -30   61.39   32.31
 -11  -5 -29   -9.26   29.92
 -12  -6 -28   43.37   27.35
 -13  -7 -27  313.77   35.38
 -14  -8 -26  689.85   42.68
 -15  -9 -25  277.74   25.05
 -25  15  -9  285.11   56.62
 -16 -10 -24    5.30   11.10
 -24  16 -10   -8.18   36.19
 -23  17 -11   93.69   45.71
 -22  18 -12   54.24   51.63
 -21  19 -13   20.74   49.29
 -20  20 -14   21.63   48.21
 -19  21 -15  504.46   78.13
 -18  22 -16  388.95   71.53
 -17  23 -17  252.81   72.60
 -16  24 -18  -13.79   62.65
 -15  25 -19   82.59   65.84
 -14  26 -20   65.92   66.96
 -13  27 -21   79.40   62.35
 -12  28 -22 -109.98   68.19
 -11  29 -23  184.73   64.61
 -10  30 -24  657.92  103.45
  -9  31 -25  327.41   91.58
  -8  32 -26   87.16   84.13
  -7  33 -27   97.23   86.47
  -6  34 -28   16.94   67.84
  -5  35 -29  -59.00   80.82
  -4  36 -30  159.15   94.31
  10  46  -6   57.31   66.80
   9  45  -5   43.14   64.34
   8  44  -4  362.63   79.98
   7  43  -3   66.19   61.85
   6  42  -2   21.01   51.36
   5  41  -1   37.76   53.74
   4  40   0   92.19   55.39
   3  39   1   54.51   53.32
   2  38   2  -37.88   47.44
   1  37   3  606.60   72.22
  -4   0 -36  810.28   69.03
   0  36   4  902.24   79.29
  -5  -1 -35  451.37   56.39
  -1  35   5  382.65   61.50
  -6  -2 -34   15.56   37.34
  -2  34   6    4.30   41.37
  -3  33   7   86.36   42.29
  -7  -3 -33   76.21   36.42
  -4  32   8   79.83   38.68
  -8  -4 -32   17.67   32.73
  -9  -5 -31   11.45   32.81
 -10  -6 -30   26.43   30.23
 -11  -7 -29  306.78   39.84
 -12  -8 -28  686.96   45.52
 -13  -9 -27  323.95   32.08
 -14 -10 -26    1.50   15.71
 -15 -11 -25   32.81   10.83
 -25  15 -11   15.29   44.10
 -24  16 -12  -62.27   50.51
 -23  17 -13  110.90   59.08
 -22  18 -14   15.48   54.51
 -21  19 -15  173.36   60.12
 -20  20 -16  497.20   70.68
 -19  21 -17  277.62   70.07
 -18  22 -18   52.86   58.08
 -17  23 -19   19.13   51.01
 -16  24 -20   -7.03   52.17
 -15  25 -21   88.58   55.24
 -14  26 -22  -20.71   66.42
 -13  27 -23  355.10   81.55
 -12  28 -24  582.82  100.88
 -11  29 -25  324.79   78.21
 -10  30 -26  107.60   70.11
  -9  31 -27   69.22   70.57
  -8  32 -28   17.29   60.46
  -7  33 -29   14.41   72.76
  -6  34 -30  174.25   95.58
  -5  35 -31   12.29   67.49
   8  46  -6  292.68   76.60
   7  45  -5  111.79   61.31
   6  44  -4  -42.29   62.88
   5  43  -3    4.65   55.66
   4  42  -2  -17.52   52.90
   3  41  -1  -46.75   50.28
   2  40   0   44.10   54.39
   1  39   1  336.36   63.61
   0  38   2  755.38   79.52
  -1  37   3  356.41   64.27
  -2  36   4   24.20   48.17
  -3  35   5  156.65   51.51
  -5  -3 -35  101.64   39.91
  -4  34   6   94.31   49.75
  -6  -4 -34  134.72   38.57
  -5  33   7  -33.65   38.30
  -7  -5 -33   31.00   39.14
  -6  32   8  -17.21   36.69
  -8  -6 -32   -3.65   29.12
  -9  -7 -31  186.85   35.96
 -10  -8 -30  375.35   40.49
 -11  -9 -29  180.32   34.69
 -12 -10 -28   12.37   21.93
 -13 -11 -27   59.96   17.71
 -26  14 -12  -79.33   48.29
 -14 -12 -26    1.61    8.11
 -25  15 -13  144.21   55.78
 -24  16 -14   19.48   53.90
 -23  17 -15  232.94   62.00
 -22  18 -16  310.58   70.95
 -21  19 -17  267.83   62.92
 -20  20 -18   71.37   61.31
 -19  21 -19  174.25   62.12
 -18  22 -20   14.79   60.00
 -17  23 -21    7.53   62.92
 -16  24 -22  -58.27   68.92
 -15  25 -23   87.16   54.32
 -14  26 -24  654.47   95.31
 -13  27 -25  172.75   75.95
 -12  28 -26  190.11   82.74
 -11  29 -27  169.64   85.82
 -10  30 -28   31.50   75.83
  -9  31 -29   39.34   79.44
  -8  32 -30   31.38   82.71
  -7  33 -31  133.49   82.55
  -6  34 -32  531.04  113.48
   6  46  -6  106.37   62.27
   5  45  -5   99.95   62.31
   4  44  -4  -65.65   66.73
   3  43  -3   56.62   62.23
   2  42  -2  -84.43   59.00
   1  41  -1  168.06   61.62
   0  40   0  382.15   65.46
  -1  39   1  308.16   62.27
  -2  38   2   73.03   47.02
  -3  37   3  144.94   54.63
  -4  36   4   43.22   43.14
  -5  35   5   35.53   47.86
  -6  -6 -34  -10.41   32.96
  -6  34   6   39.76   45.18
  -7  33   7   99.69   44.37
  -7  -7 -33   66.57   35.23
  -8  -8 -32  262.02   40.07
  -9  -9 -31  121.70   32.65
 -10 -10 -30   86.01   27.70
 -11 -11 -29  198.64   28.04
 -12 -12 -28   11.18   15.25
 -13 -13 -27   84.01   10.79
 -27  13 -13   51.86   40.03
 -26  14 -14   42.03   49.90
 -25  15 -15   64.57   49.86
 -24  16 -16  607.25   82.78
 -23  17 -17  321.61   72.49
 -22  18 -18   22.78   53.86
 -21  19 -19  154.54   55.32
 -20  20 -20   20.09   59.04
 -19  21 -21   89.81   68.99
 -18  22 -22    9.64   62.73
 -17  23 -23  -17.02   63.69
 -16  24 -24  279.70   82.32
 -15  25 -25  259.49   74.91
 -14  26 -26  104.22   79.25
 -13  27 -27  -11.37   58.66
 -12  28 -28   89.93   71.64
 -11  29 -29   34.11   70.22
 -10  30 -30  105.33   77.90
  -9  31 -31  156.27   73.56
  -8  32 -32  332.78   96.46
  -7  33 -33  214.70   97.76
  -8  32 -34   12.37   63.58
  -9  31 -33  -24.93   81.90
 -10  30 -32  168.02   91.46
 -11  29 -31  110.10   84.97
 -12  28 -30  111.71   88.20
 -13  27 -29  -56.93   78.83
 -14  26 -28  -28.62   72.87
 -15  25 -27   72.72   66.23
 -16  24 -26   79.17   67.26
 -17  23 -25  252.11   77.75
 -18  22 -24  355.64   79.67
 -19  21 -23  147.01   67.57
 -20  20 -22   38.18   61.04
 -21  19 -21  -52.01   61.69
 -22  18 -20   49.09   50.40
 -23  17 -19 -107.33   60.81
 -24  16 -18   62.12   55.16
 -25  15 -17  263.10   69.80
 -26  14 -16  569.99   75.56
 -27  13 -15   55.01   46.87
 -12 -14 -28   29.73    8.99
 -11 -13 -29   14.29   16.40
 -10 -12 -30   97.34   23.74
  -9 -11 -31  145.90   29.66
  -8 -10 -32  -17.86   28.47
  -7  -9 -33  278.47   40.83
  -6  -8 -34  271.82   41.41
  -8  34   6  333.67   58.01
  -7  35   5  132.72   52.47
  -6  36   4  -17.44   43.91
  -5  37   3   62.96   54.24
  -4  38   2   50.78   53.09
  -3  39   1  125.69   54.36
  -2  40   0  -26.89   48.86
  -1  41  -1  223.65   62.42
   0  42  -2  257.80   71.07
   1  43  -3   68.15   60.04
   2  44  -4   52.36   66.07
   3  45  -5 -166.56   63.84
   4  46  -6  -36.57   63.81
  -7  31 -35   16.79   70.14
  -8  30 -34  102.45   78.60
  -9  29 -33 -112.48   90.43
 -10  28 -32   89.16   88.01
 -11  27 -31  112.17   73.76
 -12  26 -30   56.70   73.33
 -13  25 -29  223.76   83.47
 -14  24 -28  -40.18   62.58
 -15  23 -27  156.50   69.45
 -16  22 -26   61.04   54.09
 -17  21 -25   96.11   60.69
 -18  20 -24   45.60   57.16
 -19  19 -23   20.94   51.17
 -20  18 -22   -4.72   59.96
 -21  17 -21  -31.65   57.08
 -22  16 -20  -72.45   57.35
 -23  15 -19    4.96   51.40
 -24  14 -18   49.94   52.17
 -25  13 -17   27.27   49.79
 -26  12 -16   40.72   43.98
 -27  11 -15   26.16   36.72
 -10 -14 -28  -10.87   13.79
  -9 -13 -29   30.81   20.05
  -8 -12 -30    5.88   22.78
  -7 -11 -31   50.05   25.81
 -10  32   6  100.49   41.99
  -9  33   5   10.91   42.79
  -8  34   4  -58.93   45.56
  -7  35   3  -24.12   47.17
  -6  36   2  -50.05   54.24
  -5  37   1  -22.97   52.01
  -4  38   0  -40.07   48.29
  -3  39  -1  161.96   58.12
  -2  40  -2   45.14   52.94
  -1  41  -3   50.51   62.92
   0  42  -4   42.18   56.62
   1  43  -5  104.18   67.96
   2  44  -6   69.34   58.81
   3  45  -7  104.91   62.65
   4  46  -8   28.70   63.88
  -6  30 -36  -20.67   78.75
  -7  29 -35  -27.16   82.74
  -8  28 -34  203.48   95.23
  -9  27 -33   83.21   79.56
 -10  26 -32   96.61   64.31
 -11  25 -31   -2.84   67.69
 -12  24 -30   -9.83   75.25
 -13  23 -29  -54.70   79.29
 -14  22 -28  126.42   60.12
 -15  21 -27  -42.49   62.46
 -16  20 -26   70.30   66.57
 -17  19 -25  -42.10   61.46
 -18  18 -24   62.69   61.08
 -19  17 -23   64.23   54.09
 -20  16 -22   61.69   57.85
 -21  15 -21  -83.17   47.63
 -22  14 -20   55.93   47.79
 -23  13 -19   41.95   45.10
 -24  12 -18   21.59   43.37
 -25  11 -17   90.08   49.52
 -26  10 -16   40.10   39.61
  -9 -15 -27   45.64   13.18
 -27   9 -15  102.26   44.41
  -8 -14 -28   47.48   17.94
 -11  31   5   -3.96   43.60
 -10  32   4   54.55   47.75
  -9  33   3  -13.41   49.06
  -8  34   2   12.37   45.37
  -7  35   1  -39.68   50.78
  -6  36   0  -56.09   54.01
  -5  37  -1    4.38   50.67
  -4  38  -2   13.25   49.25
  -3  39  -3   59.66   57.43
  -2  40  -4   19.86   57.97
  -1  41  -5   -5.22   59.47
   0  42  -6  207.59   76.60
   1  43  -7  -41.53   67.11
   2  44  -8   88.05   57.08
   3  45  -9   86.89   65.23
   4  46 -10  -91.85   68.03
  -5  29 -37   48.21   90.27
  -6  28 -36   32.38   68.72
  -7  27 -35  229.83   99.69
  -8  26 -34  203.44   85.28
  -9  25 -33  192.00   76.18
 -10  24 -32  -73.49   57.78
 -11  23 -31   99.99   69.30
 -12  22 -30   -3.65   70.64
 -13  21 -29   28.39   68.72
 -14  20 -28  -99.61   69.76
 -15  19 -27  -18.63   48.94
 -16  18 -26  278.62   65.19
 -17  17 -25  213.20   62.19
 -18  16 -24  -26.85   55.85
 -19  15 -23  106.87   57.47
 -20  14 -22   94.85   57.97
 -21  13 -21   58.01   54.24
 -22  12 -20    2.23   48.63
 -23  11 -19  175.52   53.70
 -24  10 -18  439.58   63.15
 -25   9 -17  150.81   46.17
 -26   8 -16  -38.34   40.53
  -8 -16 -26    7.57    9.87
 -12  30   4  -27.54   44.14
 -11  31   3  -15.37   44.25
 -10  32   2  103.37   43.14
  -9  33   1   64.04   48.17
  -8  34   0    5.61   51.01
  -7  35  -1  -57.51   56.78
  -6  36  -2   15.94   51.90
  -5  37  -3   59.35   58.77
  -4  38  -4  -96.27   62.08
  -3  39  -5  148.82   69.95
  -2  40  -6  408.38   76.68
  -1  41  -7  193.42   72.91
   0  42  -8  -54.05   67.07
   1  43  -9   10.10   58.74
   2  44 -10   35.42   65.23
   3  45 -11   36.03   65.07
  -4  28 -38  216.35  100.49
  -5  27 -37   42.99   70.03
  -6  26 -36  536.11  106.52
  -7  25 -35  345.73   94.27
  -8  24 -34   39.87   60.23
  -9  23 -33  127.57   64.54
 -10  22 -32  211.78   70.34
 -11  21 -31  -58.89   62.62
 -12  20 -30    5.26   65.88
 -13  19 -29  213.01   67.46
 -14  18 -28  663.34   90.43
 -15  17 -27  509.99   83.21
 -16  16 -26   17.52   60.00
 -17  15 -25  196.99   64.92
 -18  14 -24  120.54   61.42
 -19  13 -23   27.66   43.87
 -20  12 -22  -11.91   45.14
 -21  11 -21  137.91   49.55
 -22  10 -20  776.36   76.98
 -23   9 -19  647.09   67.72
 -24   8 -18   29.39   43.37
  -7 -17 -25  174.25   16.25
 -25   7 -17  221.73   49.98
 -26   6 -16  120.20   39.26
 -14  28   4   21.36   40.22
 -13  29   3   78.40   42.95
 -12  30   2  336.16   55.05
 -11  31   1  158.69   55.09
 -10  32   0   36.61   52.67
  -9  33  -1   92.00   51.67
  -8  34  -2   84.13   53.51
  -7  35  -3  -20.21   59.47
  -6  36  -4  135.83   64.77
  -5  37  -5  293.33   71.53
  -4  38  -6  772.21   92.43
  -3  39  -7  442.96   80.86
  -2  40  -8    3.30   58.04
  -1  41  -9  321.26   85.13
   0  42 -10    9.22   65.65
   1  43 -11  111.13   68.15
   2  44 -12 -164.99   81.21
   3  45 -13  145.78   82.48
  -4  26 -38  601.92  109.37
  -5  25 -37  210.32   91.70
  -6  24 -36  -61.46   76.06
  -7  23 -35  123.62   61.04
  -8  22 -34  305.51   79.02
  -9  21 -33  -51.74   63.38
 -10  20 -32  120.31   65.69
 -11  19 -31  237.06   76.75
 -12  18 -30 1220.31  114.13
 -13  17 -29  581.56   83.28
 -14  16 -28   28.31   48.36
 -15  15 -27  529.04   74.26
 -16  14 -26  477.84   71.91
 -17  13 -25   25.28   53.55
 -18  12 -24   38.11   50.63
 -19  11 -23  184.66   54.43
 -20  10 -22  772.51   77.87
 -21   9 -21  392.67   59.85
 -22   8 -20  -52.97   47.67
 -23   7 -19  664.95   68.65
 -24   6 -18  493.63   59.35
  -6 -18 -24  466.12   25.08
 -25   5 -17   -2.61   31.88
 -15  27   3  145.09   51.90
 -14  28   2  343.31   60.96
 -13  29   1  376.23   64.50
 -12  30   0  -63.50   49.06
 -11  31  -1  131.15   53.28
 -10  32  -2   93.04   56.89
  -9  33  -3  -46.87   54.66
  -8  34  -4   54.39   49.59
  -7  35  -5  160.23   56.05
  -6  36  -6  856.37   92.16
  -5  37  -7  583.63   83.51
  -4  38  -8  -44.02   66.19
  -3  39  -9  233.06   71.34
  -2  40 -10  407.62   79.79
  -1  41 -11   34.57   68.76
   0  42 -12  -19.40   73.83
   1  43 -13  194.80   85.82
   2  44 -14  156.88   74.29
  -3  25 -39  141.17   86.43
  -4  24 -38   52.21   69.68
  -5  23 -37  393.48   96.15
  -6  22 -36  498.81   88.31
  -7  21 -35   79.71   63.58
  -8  20 -34   41.37   66.84
  -9  19 -33  127.38   82.67
 -10  18 -32  412.53   75.98
 -11  17 -31  506.76   83.86
  16  30  12   13.56   12.29
 -12  16 -30   74.95   57.51
 -13  15 -29  393.52   74.87
 -14  14 -28  746.47   85.20
 -15  13 -27  231.91   63.65
 -16  12 -26  -10.30   45.02
 -17  11 -25  -30.16   49.94
 -18  10 -24  525.59   67.88
 -19   9 -23  697.14   71.49
 -20   8 -22  -22.89   44.98
 -21   7 -21  636.07   63.92
  -6 -20 -22  782.42   28.08
 -22   6 -20  923.79   73.14
  -5 -19 -23  280.89   22.74
 -23   5 -19  304.93   46.83
 -24   4 -18   19.71   33.54
  -4 -18 -24   11.56   15.75
 -16  26   2  429.13   56.74
 -15  27   1  279.00   51.78
 -14  28   0   47.63   45.56
 -13  29  -1  426.67   69.34
 -12  30  -2  437.31   70.22
 -11  31  -3  -35.99   48.09
 -10  32  -4   33.38   51.09
  -9  33  -5   58.93   56.51
  -8  34  -6  373.04   76.14
  -7  35  -7  671.79   87.35
  -6  36  -8    8.07   61.81
  -5  37  -9  487.29   81.40
  -4  38 -10  623.70   93.31
  -3  39 -11   10.72   66.53
  -2  40 -12  123.19   66.69
  -1  41 -13    5.88   56.85
   0  42 -14  173.75   70.07
   1  43 -15  197.07   90.39
   2  44 -16  -25.39   85.82
  -2  24 -40  -82.01   78.52
  -3  23 -39  335.55   83.21
  -4  22 -38  725.92  108.67
  -5  21 -37  181.55   68.88
  -6  20 -36  -27.89   67.53
  -7  19 -35  -52.17   73.14
  -8  18 -34  184.81   74.14
  -9  17 -33  236.17   65.73
  17  33   9  326.52   37.68
 -10  16 -32   68.84   64.38
  16  32  10  -28.93   22.86
 -11  15 -31  435.12   72.99
  15  31  11  358.41   30.27
 -12  14 -30  558.01   77.60
  14  30  12  628.23   31.69
 -13  13 -29  372.81   71.18
 -14  12 -28  -74.06   55.97
 -15  11 -27   50.44   49.48
 -16  10 -26   35.80   45.10
 -17   9 -25  167.41   48.21
 -18   8 -24  -10.45   40.10
 -19   7 -23  609.71   68.26
 -20   6 -22  844.16   70.68
  -6 -22 -20  818.96   27.31
  -5 -21 -21  120.28   17.36
 -21   5 -21   89.20   42.14
  -4 -20 -22    6.38   15.71
 -22   4 -20  -25.43   40.57
  -3 -19 -23   -9.10   18.90
 -23   3 -19   45.33   35.73
 -24   2 -18  160.65   37.30
  -2 -18 -24  147.97   23.89
 -17  25   1  117.55   46.14
 -16  26   0  -42.95   45.37
 -15  27  -1  252.61   52.70
 -14  28  -2  422.37   63.50
 -13  29  -3    8.18   55.32
 -12  30  -4   65.07   53.59
 -11  31  -5   19.13   55.47
 -10  32  -6   21.40   52.21
  -9  33  -7  249.81   60.12
  -8  34  -8   26.89   51.94
  -7  35  -9  393.82   80.06
  -6  36 -10  615.82   93.08
  -5  37 -11  196.45   69.49
  -4  38 -12  -44.68   60.81
  -3  39 -13   19.40   72.64
  -2  40 -14  -38.61   73.45
  -1  41 -15   95.88   77.60
   0  42 -16   78.10   76.10
   1  43 -17  129.03   66.76
  -1  23 -41   52.67   71.18
  -2  22 -40  211.59   84.86
  -3  21 -39   77.14   73.03
  -4  20 -38  -75.02   73.33
  -5  19 -37   21.28   64.15
  -6  18 -36  -51.21   66.84
  -7  17 -35  -41.56   73.14
  17  35   7   99.99   38.76
  16  34   8   39.61   30.39
  -8  16 -34   46.17   67.03
  -9  15 -33  150.43   66.00
  15  33   9  241.40   35.96
 -10  14 -32  245.58   61.42
  14  32  10  310.89   34.50
 -11  13 -31   93.96   63.88
  13  31  11   42.49   20.78
  12  30  12   56.93   17.90
 -12  12 -30   93.54   54.59
 -13  11 -29   85.40   55.51
 -14  10 -28  -39.03   50.90
 -15   9 -27   64.04   44.02
 -16   8 -26   -7.41   44.64
 -17   7 -25  100.07   42.64
 -18   6 -24  567.42   62.65
  -6 -24 -18  458.63   23.93
 -19   5 -23  281.35   49.55
  -5 -23 -19  286.69   23.51
  -4 -22 -20   -9.26   16.13
 -20   4 -22  -55.47   37.76
  -3 -21 -21  -12.72   18.75
 -21   3 -21   30.50   36.30
  -2 -20 -22  170.52   27.39
 -22   2 -20  159.42   40.10
  22  -2  20  126.08   37.53
  23  -1  19  133.76   41.37
  -1 -19 -23   94.38   23.28
 -23   1 -19  106.33   36.15
  24   0  18  -49.55   36.72
 -18  24   0  -37.26   46.02
 -17  25  -1  217.50   58.81
  25   1  17  217.31   42.95
 -16  26  -2  453.83   70.03
  26   2  16  248.85   45.67
  27   3  15   76.68   34.84
 -15  27  -3   66.84   47.94
 -14  28  -4   54.16   49.02
  28   4  14    7.07   32.96
  29   5  13   50.75   37.19
 -13  29  -5    0.23   54.43
 -12  30  -6  103.64   57.35
 -11  31  -7    3.65   46.52
 -10  32  -8   26.35   56.05
  -9  33  -9  255.96   69.88
  -8  34 -10  773.78   87.24
  -7  35 -11  113.55   70.99
  -6  36 -12   28.77   61.89
  -5  37 -13  122.47   74.60
  -4  38 -14  118.47   73.76
  -3  39 -15   81.09   67.49
  -2  40 -16  -16.17   68.53
  -1  41 -17   65.34   73.56
   0  42 -18  218.77   89.77
   1  43 -19   13.10   68.15
   0  22 -42  -22.66   74.68
  -1  21 -41   18.48   70.38
  -2  20 -40   27.12   61.39
  -3  19 -39 -212.89   90.12
  -4  18 -38   36.11   57.20
  -5  17 -37   21.32   68.15
  -6  16 -36   54.20   64.92
  16  36   6   35.61   33.77
  -7  15 -35   -4.76   57.66
  15  35   7  -15.37   32.19
  -8  14 -34  105.49   58.66
  14  34   8   53.20   30.35
  -9  13 -33    9.72   56.62
  13  33   9   -3.96   27.66
 -10  12 -32   29.85   46.90
  12  32  10   30.65   28.43
 -11  11 -31   34.84   55.70
  11  31  11   95.61   26.89
 -12  10 -30   26.51   53.17
  10  30  12   87.09   22.43
 -13   9 -29  -34.07   48.82
 -14   8 -28   51.78   45.18
 -15   7 -27   75.75   41.95
 -16   6 -26  147.20   46.64
  -5 -25 -17   48.44   17.94
 -17   5 -25   17.82   39.11
  -4 -24 -18   17.94   17.82
 -18   4 -24  -47.10   40.64
 -19   3 -23   -7.61   35.03
  -3 -23 -19  -30.35   22.70
  -2 -22 -20  178.86   27.58
  20  -2  22  173.56   38.41
 -20   2 -22  169.37   41.14
  -1 -21 -21  441.38   35.61
  21  -1  21  489.05   51.01
 -21   1 -21  480.37   50.59
   0 -20 -22   -1.27   23.09
 -22   0 -20   17.32   27.81
  22   0  20   -0.96   28.58
  23   1  19   96.07   34.11
   1 -19 -23  110.75   25.62
 -19  23  -1  107.06   47.48
  24   2  18  115.78   35.61
 -18  24  -2   49.59   51.51
 -17  25  -3   58.12   49.90
  25   3  17   79.56   35.26
  26   4  16   13.21   30.00
 -16  26  -4   36.92   49.29
 -15  27  -5   16.10   45.64
  27   5  15  -42.60   33.04
 -14  28  -6  -15.44   56.32
  28   6  14   35.99   32.69
  29   7  13  105.75   35.61
 -13  29  -7  191.11   56.97
  30   8  12   23.05   35.46
 -12  30  -8  -49.90   56.85
 -11  31  -9  -57.12   62.77
 -10  32 -10  485.21   83.90
  -9  33 -11  308.77   70.38
  -8  34 -12   52.94   55.89
  -7  35 -13  -52.59   65.57
  -6  36 -14   28.16   69.07
  -5  37 -15   81.17   64.73
  -4  38 -16   91.70   67.46
  -3  39 -17   60.20   63.00
  -2  40 -18  273.89   77.87
  -1  41 -19   11.49   72.60
   0  42 -20   69.88   86.09
   0  20 -42   25.20   63.84
  -1  19 -41  -63.00   70.38
  -2  18 -40  -35.23   63.77
  -3  17 -39   -6.15   52.74
  16  38   4   12.72   38.88
  -4  16 -38  161.19   70.11
  15  37   5   19.32   38.76
  -5  15 -37  104.33   67.38
  14  36   6    0.73   33.84
  -6  14 -36   91.20   56.05
  -7  13 -35  -37.30   50.44
  13  35   7    6.76   31.77
  -8  12 -34   15.67   54.78
  12  34   8   41.91   32.04
  -9  11 -33  223.76   64.54
  11  33   9  276.89   39.72
  10  32  10  390.29   40.83
 -10  10 -32  459.71   70.03
 -11   9 -31  167.76   49.71
   9  31  11  114.67   26.04
 -12   8 -30    3.61   44.18
 -13   7 -29  189.42   59.43
 -14   6 -28   67.99   44.41
 -15   5 -27  -30.69   42.45
  -5 -27 -15   17.90   18.44
 -16   4 -26  -27.97   41.83
  -4 -26 -16   11.56   18.71
  -3 -25 -17   34.07   21.13
 -17   3 -25    8.91   36.61
 -18   2 -24  164.68   40.37
  -2 -24 -18  128.84   27.04
 -19   1 -23  140.67   38.11
  -1 -23 -19  125.19   28.58
 -20   0 -22  -28.23   30.35
   0 -22 -20    8.76   23.86
  20   0  22  -10.33   28.08
 -21  -1 -21  483.37   49.71
   1 -21 -21  466.50   40.41
  21   1  21  445.49   46.06
 -22  -2 -20  157.00   31.81
   2 -20 -22  146.01   28.04
  22   2  20  154.50   35.19
 -20  22  -2  208.01   53.74
 -19  23  -3   -4.57   47.44
   3 -19 -23   19.86   22.89
  23   3  19   15.71   28.70
  24   4  18   41.95   33.34
 -18  24  -4   85.47   56.12
  25   5  17   44.56   29.46
 -17  25  -5  -20.21   47.21
 -16  26  -6   97.38   47.60
  26   6  16  163.41   34.42
  27   7  15  162.92   35.96
 -15  27  -7  244.39   66.23
 -14  28  -8   85.01   47.52
  28   8  14   24.97   32.65
  29   9  13    9.49   31.58
 -13  29  -9   53.90   57.20
 -12  30 -10  183.66   68.15
  30  10  12   50.86   33.61
 -11  31 -11  116.86   65.11
 -10  32 -12   -3.15   64.46
  -9  33 -13  113.17   56.35
  -8  34 -14  166.10   73.29
  -7  35 -15    9.53   52.28
  -6  36 -16   52.97   68.42
  -5  37 -17  -32.92   75.52
  -4  38 -18   -7.61   74.45
  -3  39 -19  -16.13   80.63
  -2  40 -20   -9.10   66.96
  -1  41 -21  -98.53   83.67
   0  42 -22 -154.39   88.43
   1  19 -43   89.66   75.29
   0  18 -42  137.18   75.22
  -1  17 -41   65.30   63.19
  16  40   2   35.61   48.40
  -2  16 -40  -55.47   64.88
  15  39   3   -6.53   39.84
  -3  15 -39   -9.03   63.58
  14  38   4   58.27   43.52
  -4  14 -38   40.10   60.08
  -5  13 -37    8.64   47.48
  13  37   5   31.96   37.34
  12  36   6  -42.41   37.22
  -6  12 -36   43.83   52.63
  11  35   7  169.10   39.87
  -7  11 -35  220.73   60.00
  10  34   8  725.57   56.58
  -8  10 -34  607.87   79.02
  -9   9 -33  170.06   58.31
   9  33   9  272.28   41.26
 -10   8 -32  129.96   60.46
   8  32  10   21.59   28.12
 -11   7 -31  125.65   49.67
   7  31  11   84.82   28.20
 -12   6 -30    7.30   48.17
 -13   5 -29  -23.47   44.60
 -14   4 -28   -5.22   43.33
  -4 -28 -14   18.94   23.39
 -15   3 -27   43.52   36.99
  -3 -27 -15  104.91   26.31
  -2 -26 -16  326.87   36.19
 -16   2 -26  371.85   52.40
  -1 -25 -17  163.03   32.27
 -17   1 -25  209.97   42.29
 -18   0 -24   -0.65   34.11
   0 -24 -18  -28.04   27.04
   1 -23 -19  146.05   32.58
 -19  -1 -23   80.32   29.77
 -20  -2 -22  157.61   32.54
   2 -22 -20  162.03   32.08
 -21  21  -3   34.00   36.49
 -21  -3 -21  -14.67   25.32
   3 -21 -21  -18.13   28.96
  21   3  21   19.63   24.93
   4 -20 -22   16.29   26.08
 -20  22  -4   11.52   45.18
  22   4  20  -20.59   24.05
 -19  23  -5  263.52   57.47
  23   5  19  220.92   32.50
 -18  24  -6  453.37   65.30
  24   6  18  508.41   44.18
 -17  25  -7  206.67   55.93
  25   7  17  196.57   34.38
  26   8  16   -9.76   25.93
 -16  26  -8   -0.69   55.78
 -15  27  -9  -50.90   48.21
  27   9  15   69.95   31.42
 -14  28 -10   71.64   58.24
  28  10  14   27.81   30.27
  29  11  13  -41.49   30.54
 -13  29 -11   35.80   58.81
 -12  30 -12   75.56   62.77
  30  12  12   85.36   32.73
 -11  31 -13   72.76   69.03
 -10  32 -14  356.22   75.41
  -9  33 -15  336.28   85.47
  -8  34 -16   69.72   60.96
  -7  35 -17  244.66   78.44
  -6  36 -18   78.48   79.21
  -5  37 -19   50.78   82.13
  -4  38 -20  425.67  104.41
  -3  39 -21  174.06   86.28
  -2  40 -22  296.02   80.71
  -1  41 -23    2.27   87.20
   1  17 -43  210.47   75.87
   0  16 -42  -71.80   71.76
  15  41   1  248.96   61.04
  -1  15 -41  125.88   69.07
  14  40   2   32.96   45.60
  -2  14 -40   11.95   51.48
  13  39   3   16.06   42.99
  -3  13 -39  -70.99   62.19
  -4  12 -38   14.83   49.63
  12  38   4   27.16   43.87
  11  37   5  133.45   40.95
  -5  11 -37  140.14   49.94
  -6  10 -36  442.46   69.95
  10  36   6  563.65   59.04
   9  35   7  379.76   49.40
  -7   9 -35  304.66   63.84
   8  34   8   78.25   33.00
  -8   8 -34  155.58   57.89
  -9   7 -33  225.26   59.12
   7  33   9  281.69   45.33
 -10   6 -32  136.10   55.78
   6  32  10   64.92   28.96
 -11   5 -31   23.74   44.33
   5  31  11   -6.22   26.54
 -12   4 -30   47.06   46.87
 -13   3 -29  104.79   47.98
  -3 -29 -13   68.42   27.50
 -14   2 -28  460.40   55.39
  -2 -28 -14  455.79   42.37
  -1 -27 -15  296.98   38.34
 -15   1 -27  348.00   49.71
   0 -26 -16    1.96   29.43
 -16   0 -26  -14.64   34.00
 -17  -1 -25  154.20   38.11
   1 -25 -17  176.21   36.88
   2 -24 -18  117.74   31.92
 -18  -2 -24   95.19   30.12
 -19  -3 -23   -3.69   28.58
   3 -23 -19   10.91   27.89
   4 -22 -20   -7.64   28.20
 -20  -4 -22   10.76   25.24
 -22  20  -4   10.79   43.18
 -21  21  -5  129.34   45.79
  21   5  21   94.23   24.89
   5 -21 -21  102.11   31.42
   6 -20 -22  839.51   57.81
 -20  22  -6  799.17   74.72
  22   6  20  956.75   53.59
  23   7  19  413.22   36.22
 -19  23  -7  514.64   72.14
  24   8  18   -2.96   22.36
 -18  24  -8   83.94   56.66
  25   9  17  174.56   31.23
 -17  25  -9  211.01   63.35
  26  10  16   83.28   28.00
 -16  26 -10   93.92   57.54
 -15  27 -11   -0.19   51.09
  27  11  15   33.57   26.89
 -14  28 -12  161.30   66.73
  28  12  14   -4.99   24.78
  29  13  13  372.70   40.83
 -13  29 -13  371.20   78.79
 -12  30 -14  627.42   89.70
 -11  31 -15  470.77   74.02
 -10  32 -16    4.07   66.96
  -9  33 -17  234.87   69.88
  -8  34 -18  120.20   77.56
  -7  35 -19  -19.51   72.91
  -6  36 -20   39.68   76.87
  -5  37 -21    5.22   80.02
  -4  38 -22  479.18  107.14
  -3  39 -23  328.79   88.55
  -2  40 -24  -48.25   91.16
   2  16 -44   22.55   73.33
  15  43  -1  125.85   56.39
   1  15 -43  126.88   70.34
  14  42   0  189.92   63.84
   0  14 -42  179.70   71.03
  13  41   1  119.05   54.20
  -1  13 -41   77.60   65.15
  -2  12 -40   33.42   61.69
  12  40   2  -36.76   43.79
  -3  11 -39  257.38   73.33
  11  39   3  118.51   51.21
  -4  10 -38  322.95   67.57
  10  38   4  395.02   58.20
  -5   9 -37  402.16   75.33
   9  37   5  262.83   53.40
   8  36   6   54.66   40.99
  -6   8 -36  -41.53   54.59
  -7   7 -35  527.35   71.53
   7  35   7  599.07   58.89
   6  34   8  289.95   46.10
  -8   6 -34  126.04   47.90
   5  33   9   57.70   38.15
  -9   5 -33    2.88   43.95
 -10   4 -32   33.69   47.33
   4  32  10  -19.28   31.38
 -11   3 -31   79.63   44.91
  -3 -31 -11  -28.66   28.27
 -12   2 -30  330.06   51.21
  -2 -30 -12  295.87   41.03
 -13   1 -29  290.80   49.29
  -1 -29 -13  232.25   39.03
   0 -28 -14   11.68   28.96
 -14   0 -28   17.59   36.57
   1 -27 -15  286.57   40.49
 -15  -1 -27  365.40   47.44
   2 -26 -16  387.41   43.91
 -16  -2 -26  414.68   44.64
 -17  -3 -25  -13.37   29.54
   3 -25 -17   36.76   30.96
   4 -24 -18   35.30   29.31
 -18  -4 -24  -39.72   29.12
 -23  19  -5  342.04   59.12
   5 -23 -19  231.68   39.87
 -19  -5 -23  239.48   32.11
 -22  20  -6  776.97   79.10
   6 -22 -20  799.13   60.46
 -21  21  -7  540.99   73.95
  22   8  20   -1.04   18.36
 -20  22  -8  -38.53   52.63
  23   9  19  597.96   38.26
 -19  23  -9  778.74   82.05
 -18  24 -10  412.49   67.38
  24  10  18  433.01   34.19
  25  11  17    9.22   20.74
 -17  25 -11  -66.76   62.12
  26  12  16   -5.34   22.28
 -16  26 -12  135.83   58.77
 -15  27 -13   74.64   53.90
  27  13  15  175.78   29.96
 -14  28 -14  844.89   93.77
  28  14  14  787.53   47.98
 -13  29 -15  527.39   81.32
 -12  30 -16   28.16   59.77
 -11  31 -17  723.65  100.65
 -10  32 -18  396.09   73.26
  -9  33 -19   79.36   67.84
  -8  34 -20 -142.56   80.36
  -7  35 -21  -92.81   81.52
  -6  36 -22  476.99  102.41
  -5  37 -23  187.96   87.89
  -4  38 -24   15.56   77.25
  -3  39 -25  423.63  102.34
  14  44  -2  381.99   74.98
   2  14 -44  397.93   89.35
  13  43  -1  131.34   61.35
   1  13 -43  151.12   75.37
   0  12 -42   50.78   73.37
  12  42   0   14.14   48.82
  -1  11 -41   86.16   59.66
  11  41   1   31.77   47.60
  -2  10 -40  330.52   74.10
  10  40   2  298.79   59.85
  -3   9 -39  371.31   71.57
   9  39   3  370.51   62.58
   8  38   4  -36.30   39.72
  -4   8 -38  -84.36   62.15
   7  37   5  589.39   64.96
  -5   7 -37  623.54   80.90
   6  36   6  756.03   67.15
  -6   6 -36  871.66   87.78
  -7   5 -35   92.62   50.86
   5  35   7  117.09   39.95
   4  34   8  -27.47   32.04
  -8   4 -34   -1.65   40.72
   3  33   9   -5.07   32.34
  -9   3 -33    9.30   40.83
 -10   2 -32   73.72   39.80
   2  32  10  113.51   34.42
  -2 -32 -10   45.75   28.35
 -11   1 -31   84.32   43.33
  -1 -31 -11  106.91   35.96
 -12   0 -30    3.53   41.79
   0 -30 -12  -57.43   33.34
   1 -29 -13  286.30   42.79
 -13  -1 -29  293.64   46.87
   2 -28 -14  446.53   50.59
 -14  -2 -28  468.54   51.55
   3 -27 -15  109.48   36.49
 -15  -3 -27   96.57   34.77
 -16  -4 -26   44.45   31.19
   4 -26 -16  -35.11   32.77
   5 -25 -17   60.12   33.04
 -17  -5 -25   32.77   27.47
   6 -24 -18  429.43   50.63
 -18  -6 -24  547.64   41.87
 -19  -7 -23  596.81   35.30
 -23  19  -7  541.18   65.23
 -22  20  -8   10.72   39.64
 -21  21  -9  302.13   56.39
 -20  22 -10  748.24   81.78
  23  11  19  181.20   20.82
 -19  23 -11  193.11   64.88
 -18  24 -12   33.77   50.98
  24  12  18   15.02   14.75
  25  13  17   34.07   16.71
 -17  25 -13   89.35   59.16
 -16  26 -14  602.03   83.55
  26  14  16  542.41   34.50
  27  15  15  526.66   36.76
 -15  27 -15  518.67   78.02
 -14  28 -16  -67.80   55.09
 -13  29 -17  760.11   99.95
 -12  30 -18 1132.80  117.93
 -11  31 -19  145.90   61.96
 -10  32 -20   78.83   69.11
  -9  33 -21  -67.88   78.56
  -8  34 -22  331.48   96.07
  -7  35 -23  242.86   89.39
  -6  36 -24 -116.90   83.94
  -5  37 -25  317.76   94.58
  -4  38 -26  541.41  102.18
   3  13 -45   60.58   64.81
  13  45  -3   90.08   58.70
   2  12 -44   34.27   54.66
  12  44  -2  100.80   60.58
   1  11 -43    4.76   53.24
  11  43  -1 -101.68   54.70
   0  10 -42   24.74   56.24
  10  42   0   24.20   50.75
   9  41   1  233.29   60.35
  -1   9 -41  226.22   74.87
   8  40   2   -5.45   47.02
  -2   8 -40   56.05   52.01
  -3   7 -39  525.28   80.32
   7  39   3  493.05   66.34
   6  38   4  700.10   71.68
  -4   6 -38  768.44   84.63
   5  37   5  371.28   56.09
  -5   5 -37  466.93   71.11
  -6   4 -36  -55.09   51.13
   4  36   6   46.67   42.91
   3  35   7  -62.50   40.80
  -7   3 -35  -84.86   42.95
   2  34   8   43.18   34.00
  -8   2 -34   56.89   46.64
   1  33   9   64.96   33.73
  -9   1 -33   49.25   44.33
 -10   0 -32  -13.48   40.10
   0  32  10   22.09   33.31
 -11  -1 -31  164.80   43.10
 -12  -2 -30  378.77   48.13
 -13  -3 -29  139.10   37.38
 -14  -4 -28    8.22   29.12
 -15  -5 -27   -8.11   25.66
 -16  -6 -26  185.89   31.54
 -17  -7 -25  225.80   29.77
 -18  -8 -24  -32.73   18.63
 -24  18  -8   38.57   49.48
 -23  19  -9  727.34   81.98
 -22  20 -10  657.96   79.06
 -21  21 -11  307.89   68.57
 -20  22 -12  -24.05   44.87
 -19  23 -13   46.21   55.66
 -18  24 -14   92.19   57.66
 -17  25 -15  124.85   64.27
  25  15  17  171.98   15.33
 -16  26 -16  -63.77   61.46
 -15  27 -17  446.64   84.70
 -14  28 -18  601.15   94.12
 -13  29 -19  236.21   64.61
 -12  30 -20  166.30   78.48
 -11  31 -21 -102.68   61.50
 -10  32 -22   58.97   69.57
  -9  33 -23  133.03   80.02
  -8  34 -24   -8.84   80.86
  -7  35 -25  169.14   83.90
  -6  36 -26  482.48   99.22
  -5  37 -27  182.35   78.10
  -4  38 -28  -60.77   86.78
   3  11 -45  120.81   73.56
  11  45  -3   86.97   55.74
   2  10 -44  -18.25   59.43
  10  44  -2   18.52   54.13
   1   9 -43   51.05   63.61
   9  43  -1  -48.56   54.89
   8  42   0  119.32   55.85
   0   8 -42   52.21   48.56
   7  41   1  152.54   56.24
  -1   7 -41  242.89   65.04
  -2   6 -40  384.45   65.27
   6  40   2  378.65   63.38
   5  39   3  165.68   49.29
  -3   5 -39  170.98   61.58
   4  38   4   -1.57   43.56
  -4   4 -38    9.14   43.98
  -5   3 -37   15.87   44.14
   3  37   5   19.51   42.10
   2  36   6    2.92   43.33
  -6   2 -36   -6.76   46.56
   1  35   7    8.26   38.26
  -7   1 -35   14.94   43.14
   0  34   8   25.28   33.42
  -8   0 -34  -16.48   38.61
  -1  33   9   47.06   34.77
  -9  -1 -33   80.40   41.41
 -10  -2 -32  206.98   44.25
 -11  -3 -31   23.82   33.84
 -12  -4 -30   -1.42   32.92
 -13  -5 -29  -13.52   29.19
 -14  -6 -28   29.69   25.47
 -15  -7 -27  141.67   28.20
 -16  -8 -26   -5.30   21.51
 -17  -9 -25  176.55   23.01
 -25  17  -9  215.01   56.70
 -24  18 -10  338.43   58.81
 -23  19 -11  244.20   56.47
 -22  20 -12   10.64   53.43
 -21  21 -13    0.42   58.62
 -20  22 -14   94.61   52.36
 -19  23 -15    4.61   58.89
 -18  24 -16   22.36   49.98
 -17  25 -17  192.49   61.73
 -16  26 -18  363.29   74.60
 -15  27 -19   89.74   55.55
 -14  28 -20  -69.68   74.22
 -13  29 -21  177.21   73.83
 -12  30 -22  110.33   73.49
 -11  31 -23   12.60   57.05
 -10  32 -24  -99.49   72.56
  -9  33 -25  237.75   79.63
  -8  34 -26  304.59   91.70
  -7  35 -27   68.30   75.52
  -6  36 -28  133.11   89.12
  -5  37 -29  -92.81   79.59
   4  10 -46   -9.22   58.43
  10  46  -4   48.40   56.24
   3   9 -45  -31.08   53.97
   9  45  -3   24.24   54.36
   2   8 -44  -28.85   58.24
   8  44  -2   46.79   54.28
   7  43  -1  -12.22   55.09
   1   7 -43   26.97   61.31
   6  42   0   67.19   49.13
   0   6 -42  168.64   59.58
   5  41   1  -20.55   48.06
  -1   5 -41   83.51   50.94
  -2   4 -40  -59.96   52.13
   4  40   2  -55.01   50.51
  -3   3 -39  -60.93   44.79
   3  39   3  101.88   51.74
  -4   2 -38   32.81   43.49
   2  38   4  -36.69   47.17
   1  37   5   20.09   42.18
  -5   1 -37   64.23   41.33
   0  36   6    5.53   39.57
  -6   0 -36   11.91   41.37
  -1  35   7   29.00   38.57
  -7  -1 -35   -8.76   42.33
  -2  34   8   57.12   39.49
  -8  -2 -34   55.20   37.57
  -3  33   9    3.27   33.42
  -9  -3 -33   27.70   31.77
 -10  -4 -32   43.14   33.46
 -11  -5 -31    9.99   33.07
 -12  -6 -30   50.90   30.31
 -13  -7 -29  134.07   31.38
 -14  -8 -28   24.20   24.51
 -15  -9 -27   48.44   20.47
 -26  16 -10   75.91   40.87
 -16 -10 -26   93.65   17.67
 -25  17 -11  -34.30   44.33
 -24  18 -12   17.32   47.36
 -23  19 -13   48.09   43.87
 -22  20 -14   98.84   54.93
 -21  21 -15   48.75   57.43
 -20  22 -16   11.49   49.82
 -19  23 -17   74.68   61.42
 -18  24 -18   80.40   66.57
 -17  25 -19  110.86   70.49
 -16  26 -20  -78.06   72.91
 -15  27 -21   82.25   61.50
 -14  28 -22   31.00   62.27
 -13  29 -23   17.09   67.65
 -12  30 -24  -11.56   73.95
 -11  31 -25   12.02   69.22
 -10  32 -26  227.07   80.98
  -9  33 -27    7.57   69.88
  -8  34 -28  -64.73   80.06
  -7  35 -29   59.24   91.31
  -6  36 -30  -80.79   71.26
   8  46  -4   99.80   67.84
   7  45  -3   29.31   62.54
   6  44  -2   17.90   54.63
   5  43  -1   53.59   56.28
   4  42   0  126.50   61.77
   3  41   1   33.19   51.94
   2  40   2   17.67   46.67
  -2   2 -40   -6.30   44.68
  -3   1 -39   -6.91   39.76
   1  39   3   -4.88   43.18
   0  38   4  -76.48   50.02
  -4   0 -38   70.95   47.83
  -1  37   5   34.42   45.48
  -5  -1 -37   43.91   41.41
  -6  -2 -36  -27.66   38.38
  -2  36   6   -5.15   40.07
  -7  -3 -35   46.75   41.03
  -3  35   7   25.62   39.30
  -8  -4 -34  -24.16   33.88
  -4  34   8  -60.16   40.99
  -9  -5 -33   18.09   32.42
 -10  -6 -32   77.48   35.99
 -11  -7 -31   72.10   32.73
 -12  -8 -30   30.39   26.24
 -13  -9 -29  -15.98   23.36
 -14 -10 -28  -13.98   17.90
 -15 -11 -27   35.26   13.79
 -27  15 -11    5.42   40.41
 -26  16 -12   37.26   52.59
 -25  17 -13   63.23   55.16
 -24  18 -14   62.12   53.36
 -23  19 -15   79.02   48.56
 -22  20 -16  -46.67   56.20
 -21  21 -17  -29.23   56.28
 -20  22 -18   15.56   62.35
 -19  23 -19   26.24   51.01
 -18  24 -20   48.94   51.55
 -17  25 -21   10.30   55.28
 -16  26 -22    2.15   70.26
 -15  27 -23   93.39   76.48
 -14  28 -24   36.72   65.46
 -13  29 -25   42.14   62.77
 -12  30 -26   61.35   80.13
 -11  31 -27   11.37   80.44
 -10  32 -28 -124.16   87.85
  -9  33 -29  -17.98   80.98
  -8  34 -30  -78.98   79.52
  -7  35 -31   53.36   80.67
   6  46  -4 -159.65   68.45
   5  45  -3   59.93   62.50
   4  44  -2    6.18   58.51
   3  43  -1   95.77   64.50
   2  42   0  350.53   72.56
   1  41   1  146.63   55.28
   0  40   2  -43.60   49.40
  -1  39   3   21.74   50.40
  -2  38   4  -29.89   51.44
  -4  -2 -38   -1.73   37.53
  -5  -3 -37  -27.04   42.33
  -3  37   5  162.07   52.17
  -4  36   6   -8.84   39.18
  -6  -4 -36   -4.65   34.77
  -5  35   7  135.49   45.94
  -7  -5 -35  130.53   42.49
  -6  34   8  357.33   53.20
  -8  -6 -34  325.75   44.87
  -9  -7 -33  183.85   38.45
 -10  -8 -32   27.31   29.69
 -11  -9 -31  222.27   37.88
 -12 -10 -30   55.97   23.51
 -13 -11 -29   20.67   17.32
 -14 -12 -28    4.92   11.33
 -27  15 -13   90.50   45.91
 -26  16 -14  612.83   77.83
 -25  17 -15  203.79   65.46
 -24  18 -16  155.62   62.85
 -23  19 -17  -38.03   49.98
 -22  20 -18   25.58   58.62
 -21  21 -19    1.54   54.93
 -20  22 -20    2.38   53.24
 -19  23 -21  -37.15   60.73
 -18  24 -22  399.47   80.13
 -17  25 -23  143.44   59.85
 -16  26 -24  132.95   72.26
 -15  27 -25  164.03   70.49
 -14  28 -26   65.30   76.25
 -13  29 -27   24.16   60.35
 -12  30 -28   74.52   65.53
 -11  31 -29   -6.99   70.61
 -10  32 -30  105.83   68.19
  -9  33 -31    7.41   76.06
  -8  34 -32  -59.62   89.08
   4  46  -4   86.70   69.45
   3  45  -3  194.53   71.07
   2  44  -2  548.17   84.82
   1  43  -1  312.58   71.03
   0  42   0   61.62   55.70
  -1  41   1   98.80   51.44
  -2  40   2   69.68   51.51
  -3  39   3  -27.74   51.44
  -4  38   4   50.44   49.17
  -5  37   5  307.62   58.16
  -5  -5 -37  221.73   43.41
  -6  -6 -36  747.97   63.54
  -6  36   6  652.16   70.91
  -7  35   7  724.76   71.72
  -7  -7 -35  568.46   56.66
  -8  -8 -34   82.59   35.69
  -9  -9 -33  230.79   35.30
 -10 -10 -32  478.14   42.10
 -11 -11 -31   32.58   23.74
 -12 -12 -30   27.66   17.79
 -13 -13 -29  344.85   21.74
 -28  14 -14  949.37   83.24
 -27  15 -15  594.46   73.37
 -26  16 -16  -23.66   52.55
 -25  17 -17  206.75   67.96
 -24  18 -18   96.27   52.21
 -23  19 -19 -146.51   65.57
 -22  20 -20   61.23   53.66
 -21  21 -21  144.44   68.07
 -20  22 -22  343.46   76.25
 -19  23 -23  316.92   83.17
 -18  24 -24  -76.64   70.18
 -17  25 -25  180.51   64.96
 -16  26 -26  -23.89   74.14
 -15  27 -27   60.89   67.38
 -14  28 -28  -20.86   79.48
 -13  29 -29   91.00   80.40
 -12  30 -30  252.34   95.42
 -11  31 -31  -47.29   89.43
 -10  32 -32   62.04   82.48
 -11  31 -33  167.87   80.06
 -12  30 -32 -104.10   73.53
 -13  29 -31  258.26   77.02
 -14  28 -30  391.67   81.75
 -15  27 -29  121.47   83.63
 -16  26 -28  -23.20   74.06
 -17  25 -27  124.62   65.42
 -18  24 -26  535.80   87.74
 -19  23 -25  454.21   93.15
 -20  22 -24   58.01   62.88
 -21  21 -23  379.88   82.59
 -22  20 -22  391.94   82.71
 -23  19 -21   94.42   51.82
 -24  18 -20   42.49   62.27
 -25  17 -19   28.77   49.79
 -26  16 -18  312.96   61.00
 -27  15 -17  408.31   62.54
 -28  14 -16   -6.76   49.02
 -29  13 -15  521.82   64.46
 -12 -14 -30  590.01   27.31
 -11 -13 -31   83.24   21.20
 -10 -12 -32   17.29   23.47
  -9 -11 -33  208.86   34.27
  -8 -10 -34  714.24   54.47
  -7  -9 -35  367.20   45.44
  -6  -8 -36   38.61   32.84
  -8  36   6  103.83   47.79
  -7  37   5  467.08   66.30
  -5  -7 -37  564.61   56.01
  -6  38   4  725.92   78.10
  -5  39   3  159.65   58.27
  -4  40   2   25.74   55.16
  -3  41   1    1.46   51.44
  -2  42   0  332.09   69.49
  -1  43  -1  281.00   72.80
   0  44  -2  -10.60   58.12
   1  45  -3  304.24   78.06
   2  46  -4  465.01   81.13
   3  47  -5  180.70   71.64
 -10  30 -34    9.83   76.18
 -11  29 -33   50.75   68.92
 -12  28 -32  -17.02   69.03
 -13  27 -31   70.99   65.88
 -14  26 -30   51.17   69.15
 -15  25 -29 -193.38   81.71
 -16  24 -28   66.99   62.35
 -17  23 -27  295.18   83.47
 -18  22 -26   -7.99   63.84
 -19  21 -25   52.13   52.36
 -20  20 -24  223.30   67.03
 -21  19 -23  -95.00   65.30
 -22  18 -22  167.03   62.31
 -23  17 -21   36.72   52.24
 -24  16 -20   72.87   48.79
 -25  15 -19   15.40   55.85
 -26  14 -18   48.63   56.78
 -27  13 -17  230.76   56.35
 -28  12 -16  408.54   60.96
 -10 -14 -30   29.69   17.86
  -9 -13 -31   -2.04   21.44
  -8 -12 -32   75.83   26.58
  -7 -11 -33   90.70   29.39
 -10  34   6   24.47   41.37
  -9  35   5  112.44   47.83
  -8  36   4  187.12   49.44
  -7  37   3  234.48   60.69
  -6  38   2   17.25   53.66
  -5  39   1   52.97   50.59
  -4  40   0   -6.22   51.63
  -3  41  -1   -6.03   59.96
  -2  42  -2  -91.43   62.15
  -1  43  -3   18.75   53.70
   0  44  -4  183.08   66.15
   1  45  -5   73.64   61.89
   2  46  -6   -1.19   60.58
  -9  29 -35   33.65   82.01
 -10  28 -34   54.89   70.14
 -11  27 -33  -94.00   66.61
 -12  26 -32 -150.66   69.91
 -13  25 -31   34.96   68.49
 -14  24 -30 -115.90   75.64
 -15  23 -29  114.09   75.29
 -16  22 -28  -77.37   63.88
 -17  21 -27  -31.15   59.20
 -18  20 -26   50.25   65.65
 -19  19 -25  -10.10   59.24
 -20  18 -24   69.45   55.74
 -21  17 -23   25.12   55.82
 -22  16 -22  109.48   59.24
 -23  15 -21   62.15   58.01
 -24  14 -20   25.08   52.86
 -25  13 -19   15.63   52.36
 -26  12 -18  -75.06   51.51
 -27  11 -17   13.71   38.30
 -28  10 -16  114.82   46.06
  -9 -15 -29   45.06   15.06
  -8 -14 -30   88.12   22.36
  -7 -13 -31   -7.57   21.67
 -11  33   5   24.55   43.98
 -10  34   4   -7.22   48.29
  -9  35   3    8.53   45.29
  -8  36   2  182.62   61.50
  -7  37   1   56.09   58.66
  -6  38   0  102.26   52.59
  -5  39  -1   38.15   51.74
  -4  40  -2  -15.48   59.77
  -3  41  -3   49.29   58.31
  -2  42  -4  -31.85   51.97
  -1  43  -5   58.24   68.34
   0  44  -6    7.87   57.74
   1  45  -7  115.59   67.57
   2  46  -8  181.55   77.56
  -8  28 -36  184.93   92.23
  -9  27 -35   77.98   66.73
 -10  26 -34    7.03   62.27
 -11  25 -33   26.93   65.46
 -12  24 -32   50.59   62.92
 -13  23 -31   -4.69   61.23
 -14  22 -30   88.28   70.68
 -15  21 -29   96.77   56.51
 -16  20 -28  248.93   72.14
 -17  19 -27   56.39   64.46
 -18  18 -26  -46.21   60.85
 -19  17 -25   19.25   59.89
 -20  16 -24  -47.52   50.78
 -21  15 -23  -34.65   57.35
 -22  14 -22  -61.00   54.09
 -23  13 -21   92.00   49.79
 -24  12 -20  320.18   60.27
 -25  11 -19   95.58   55.43
 -26  10 -18  -65.34   44.64
 -27   9 -17   -0.65   42.60
  -8 -16 -28   23.74   14.02
 -12  32   4  287.61   55.09
 -11  33   3  219.81   54.16
 -10  34   2   28.81   52.59
  -9  35   1  164.61   53.78
  -8  36   0   92.96   58.47
  -7  37  -1  -29.81   53.97
  -6  38  -2   57.97   59.81
  -5  39  -3  251.38   68.61
  -4  40  -4  514.25   86.59
  -3  41  -5  230.45   69.68
  -2  42  -6 -111.94   72.10
  -1  43  -7   84.17   66.00
   0  44  -8  -23.66   58.43
   1  45  -9   28.20   67.76
   2  46 -10  -48.48   72.10
  -7  27 -37  288.65  101.45
  -8  26 -36   49.44   80.09
  -9  25 -35  339.62   82.17
 -10  24 -34  192.49   79.79
 -11  23 -33  143.71   77.25
 -12  22 -32  -98.15   62.85
 -13  21 -31  104.91   68.26
 -14  20 -30  579.33   86.70
 -15  19 -29  600.46   89.51
 -16  18 -28    4.69   52.67
 -17  17 -27  421.25   70.07
 -18  16 -26  418.49   71.95
 -19  15 -25 -105.83   69.41
 -20  14 -24   50.90   44.94
 -21  13 -23   88.85   49.06
 -22  12 -22  700.49   75.60
 -23  11 -21  493.93   65.07
 -24  10 -20   -8.30   44.71
 -25   9 -19  514.71   63.88
 -26   8 -18  351.22   55.62
  -7 -17 -27   24.62   12.29
 -27   7 -17   48.33   41.72
 -14  30   4  859.56   78.83
 -13  31   3  544.02   66.61
 -12  32   2  -15.44   46.87
 -11  33   1  227.87   61.12
 -10  34   0  288.61   65.23
  -9  35  -1   20.82   52.21
  -8  36  -2  -43.41   57.93
  -7  37  -3  108.79   62.88
  -6  38  -4  823.07   94.23
  -5  39  -5  464.66   78.52
  -4  40  -6   53.78   64.77
  -3  41  -7  444.38   84.82
  -2  42  -8  455.36   88.16
  -1  43  -9   -4.53   64.31
   0  44 -10   40.26   64.34
   1  45 -11  116.86   67.80
  -6  26 -38  -37.76   80.06
  -7  25 -37  464.51   97.42
  -8  24 -36  834.28  104.56
  -9  23 -35  174.79   72.72
 -10  22 -34   -2.00   67.88
 -11  21 -33   31.62   64.65
 -12  20 -32  201.98   64.00
 -13  19 -31  511.95   87.39
 -14  18 -30  -35.00   54.13
 -15  17 -29  793.60   95.77
 -16  16 -28 1571.11  115.63
 -17  15 -27  614.94   84.93
 -18  14 -26  -29.27   49.94
 -19  13 -25   57.08   60.89
 -20  12 -24  312.04   61.96
 -21  11 -23  507.53   67.76
 -22  10 -22  114.94   56.74
 -23   9 -21 1027.89   82.21
 -24   8 -20 2383.65  115.63
 -25   7 -19  614.59   65.73
  -7 -19 -25  474.65   20.13
 -26   6 -18   43.91   41.95
  -6 -18 -26   13.41   12.10
 -15  29   3  500.77   61.58
 -14  30   2   45.52   47.02
 -13  31   1  925.63   85.05
 -12  32   0 1053.86   90.00
 -11  33  -1  326.02   66.50
 -10  34  -2  -11.14   54.36
  -9  35  -3   10.72   45.94
  -8  36  -4  239.67   63.15
  -7  37  -5  589.43   84.63
  -6  38  -6  -21.97   59.08
  -5  39  -7  816.65   98.19
  -4  40  -8 1202.64  109.87
  -3  41  -9  385.83   84.28
  -2  42 -10   37.03   70.41
  -1  43 -11 -101.15   72.64
   0  44 -12  294.22   89.47
   1  45 -13  356.45   94.69
  -5  25 -39  609.37  100.61
  -6  24 -38 1488.56  141.25
  -7  23 -37  696.57   98.53
  -8  22 -36  -35.53   63.92
  -9  21 -35  195.18   86.28
 -10  20 -34   -1.08   75.60
 -11  19 -33  217.89   71.18
 -12  18 -32   80.06   62.85
 -13  17 -31  869.70   98.11
 -14  16 -30 2286.23  139.14
 -15  15 -29  961.70   94.46
 -16  14 -28   31.88   56.47
 -17  13 -27  289.07   66.23
 -18  12 -26   69.30   49.63
 -19  11 -25  112.17   51.36
 -20  10 -24   -2.42   46.56
 -21   9 -23 1007.92   83.24
 -22   8 -22 2137.26  109.21
 -23   7 -21 1490.71   92.16
  -6 -20 -24   30.31   11.18
 -24   6 -20   60.89   40.80
 -25   5 -19  242.09   48.48
  -5 -19 -25  239.36   23.51
  -4 -18 -26  -15.75   16.29
 -26   4 -18  -25.74   31.69
 -16  28   2  -48.17   44.48
 -15  29   1  802.90   75.56
 -14  30   0 2150.36  118.47
 -13  31  -1  825.60   84.78
 -12  32  -2   56.70   51.55
 -11  33  -3  181.74   63.46
 -10  34  -4   57.97   58.70
  -9  35  -5  163.68   66.30
  -8  36  -6  111.48   66.46
  -7  37  -7 1067.88  105.72
  -6  38  -8 1715.16  123.85
  -5  39  -9  731.22   94.73
  -4  40 -10   54.89   61.12
  -3  41 -11   28.89   59.70
  -2  42 -12  -58.54   72.56
  -1  43 -13   45.41   74.60
   0  44 -14  -44.98   67.15
   1  45 -15  424.63   94.00
  -4  24 -40 1012.10  128.23
  -5  23 -39  960.63  119.89
  -6  22 -38   48.94   76.33
  -7  21 -37  382.88   81.55
  -8  20 -36  102.76   70.03
  -9  19 -35   41.14   72.80
 -10  18 -34   42.68   71.49
 -11  17 -33  500.27   83.97
 -12  16 -32 1520.71  123.04
 -13  15 -31  762.68   87.20
 -14  14 -30   78.17   63.73
 -15  13 -29  655.43   78.98
 -16  12 -28  386.22   61.50
 -17  11 -27   22.47   52.09
 -18  10 -26   29.35   49.21
 -19   9 -25  456.63   63.96
 -20   8 -24 2530.36  119.43
 -21   7 -23 1278.78   86.32
  -6 -22 -22   17.44    8.84
 -22   6 -22   57.62   40.22
  -5 -21 -23  448.57   26.43
 -23   5 -21  427.51   58.08
 -24   4 -20  328.83   48.67
  -4 -20 -24  341.12   27.39
 -25   3 -19    3.30   33.73
  -3 -19 -25   -4.92   17.40
 -17  27   1  395.02   62.54
 -16  28   0 1395.98  101.15
 -15  29  -1  897.63   82.63
 -14  30  -2   44.21   51.59
 -13  31  -3  491.51   73.10
 -12  32  -4  344.62   74.52
 -11  33  -5   -3.65   51.82
 -10  34  -6  -19.90   43.75
  -9  35  -7  305.47   67.92
  -8  36  -8 1355.18  112.82
  -7  37  -9  768.56   95.38
  -6  38 -10  -23.36   53.09
  -5  39 -11  403.93   87.20
  -4  40 -12  287.69   81.17
  -3  41 -13  183.24   82.48
  -2  42 -14  106.52   69.95
  -1  43 -15  169.91   87.32
   0  44 -16  788.26  119.70
  -3  23 -41  339.08  100.91
  -4  22 -40   62.58   67.46
  -5  21 -39  332.78   88.47
  -6  20 -38  519.59   86.05
  -7  19 -37  181.66   66.30
  -8  18 -36   -7.87   69.03
  -9  17 -35   66.76   73.49
 -10  16 -34  487.25   87.39
 -11  15 -33  256.92   71.57
 -12  14 -32    3.65   60.31
  14  32  12  -14.60   17.06
 -13  13 -31  321.49   70.38
 -14  12 -30  543.53   75.64
 -15  11 -29  231.29   66.30
 -16  10 -28   36.42   45.56
 -17   9 -27  115.32   56.62
 -18   8 -26  358.52   64.31
 -19   7 -25  596.19   66.00
 -20   6 -24   16.75   41.76
  -6 -24 -20   16.40   10.33
  -5 -23 -21  422.87   25.74
 -21   5 -23  457.09   56.85
  -4 -22 -22  391.98   29.23
 -22   4 -22  399.74   53.05
  -3 -21 -23   80.40   24.01
 -23   3 -21   88.16   39.53
 -24   2 -20   13.91   32.84
  -2 -20 -24   11.18   21.32
  -1 -19 -25   80.32   22.74
 -18  26   0  362.48   57.39
 -17  27  -1  241.47   54.93
 -16  28  -2  -51.28   51.40
 -15  29  -3  492.82   67.69
 -14  30  -4  813.73   84.93
 -13  31  -5  216.93   59.50
 -12  32  -6  -58.16   57.08
 -11  33  -7   12.95   59.12
 -10  34  -8  609.83   83.74
  -9  35  -9  701.18   86.28
  -8  36 -10  -44.56   61.19
  -7  37 -11  370.31   83.24
  -6  38 -12  754.54   97.69
  -5  39 -13  135.10   62.65
  -4  40 -14  -76.87   72.68
  -3  41 -15    8.03   74.83
  -2  42 -16   99.19   76.56
  -1  43 -17  357.33   84.13
  -2  22 -42  -58.47   64.88
  -3  21 -41  100.80   76.87
  -4  20 -40  383.53   96.04
  -5  19 -39  -91.58   78.25
  -6  18 -38    0.15   67.46
  -7  17 -37   17.06   66.15
  -8  16 -36  186.16   74.10
  -9  15 -35   36.38   61.66
 -10  14 -34  -19.63   54.36
  14  34  10    3.73   24.55
 -11  13 -33  100.65   63.42
  13  33  11   60.39   23.20
 -12  12 -32   88.16   58.66
  12  32  12   56.24   19.63
 -13  11 -31  122.31   57.20
 -14  10 -30  -13.37   49.32
 -15   9 -29  -17.75   50.09
 -16   8 -28   53.51   45.91
 -17   7 -27   13.25   41.49
 -18   6 -26   60.77   44.60
  -5 -25 -19  216.89   21.28
 -19   5 -25  320.72   53.93
  -4 -24 -20  354.07   28.54
 -20   4 -24  347.19   53.17
  -3 -23 -21   72.37   22.17
 -21   3 -23   69.61   38.22
  -2 -22 -22   37.88   22.63
 -22   2 -22   34.73   37.65
 -23   1 -21  -11.75   31.23
  -1 -21 -23   12.33   21.93
   0 -20 -24   97.69   26.62
 -24   0 -20  137.18   35.57
  24   0  20   81.09   35.11
  25   1  19   30.23   34.07
 -19  25  -1   35.23   41.22
 -18  26  -2   41.79   58.51
  26   2  18 -105.72   40.53
 -17  27  -3  168.87   58.74
  27   3  17   63.42   35.69
  28   4  16  160.46   43.18
 -16  28  -4  259.03   61.42
 -15  29  -5  152.58   61.27
  29   5  15  100.95   37.49
 -14  30  -6   -5.61   52.28
  30   6  14  -31.92   33.00
 -13  31  -7   56.28   57.12
 -12  32  -8   59.04   59.58
 -11  33  -9  283.54   76.56
 -10  34 -10  -75.41   62.35
  -9  35 -11  299.09   67.03
  -8  36 -12  367.66   83.63
  -7  37 -13   76.79   57.24
  -6  38 -14   76.52   69.41
  -5  39 -15  102.99   78.17
  -4  40 -16 -123.69   86.01
  -3  41 -17  117.89   84.20
  -2  42 -18  145.09   88.51
  -1  43 -19  192.03   76.91
  -2  20 -42  137.60   87.85
  -3  19 -41    3.53   62.19
  -4  18 -40   37.61   69.49
  -5  17 -39   92.54   58.62
  -6  16 -38  147.47   72.45
  -7  15 -37   72.53   67.34
  -8  14 -36 -116.90   71.72
  14  36   8   44.60   31.35
  -9  13 -35  102.11   64.31
  13  35   9   58.81   30.85
 -10  12 -34  -31.62   46.44
  12  34  10   18.21   27.89
  11  33  11   67.19   26.28
 -11  11 -33  180.89   65.19
 -12  10 -32   34.46   55.47
  10  32  12  -22.05   22.20
 -13   9 -31   60.73   51.82
 -14   8 -30   66.88   49.52
 -15   7 -29  114.67   49.79
 -16   6 -28   -4.88   40.99
  -5 -27 -17  -22.74   18.71
 -17   5 -27   -1.04   41.26
  -4 -26 -18  -20.09   19.75
 -18   4 -26  -34.50   40.60
 -19   3 -25  -25.81   38.57
  -3 -25 -19  -27.89   20.44
 -20   2 -24   74.60   38.30
  -2 -24 -20   53.70   23.05
  -1 -23 -21   57.16   23.97
 -21   1 -23   -0.65   33.38
  21  -1  23   21.36   30.50
   0 -22 -22  280.81   35.00
  22   0  22  276.01   42.72
 -22   0 -22  255.26   40.10
   1 -21 -23  -11.56   26.35
 -23  -1 -21   28.12   28.50
  23   1  21    4.38   30.19
   2 -20 -24  -33.69   23.78
 -20  24  -2  -10.37   44.60
  24   2  20   14.98   30.00
 -19  25  -3   20.13   51.74
  25   3  19    8.49   30.62
 -18  26  -4    8.91   52.01
  26   4  18   15.87   30.04
  27   5  17   13.98   31.42
 -17  27  -5  -24.59   52.01
 -16  28  -6   -9.53   57.47
  28   6  16   -5.84   30.73
  29   7  15   -4.11   32.38
 -15  29  -7   53.05   53.90
 -14  30  -8   65.38   65.34
  30   8  14   55.89   33.11
 -13  31  -9   38.41   59.50
 -12  32 -10   32.92   61.08
 -11  33 -11   36.99   66.80
 -10  34 -12  101.07   71.83
  -9  35 -13  -82.48   62.38
  -8  36 -14  -29.73   71.99
  -7  37 -15   14.37   68.53
  -6  38 -16   -2.92   65.80
  -5  39 -17  198.10   85.74
  -4  40 -18  -37.22   69.22
  -3  41 -19  -88.74   78.33
  -2  42 -20   66.99   83.09
  -1  19 -43  140.33   66.19
  -2  18 -42    4.38   71.41
  -3  17 -41   24.89   70.34
  -4  16 -40   61.50   58.62
  -5  15 -39  -45.41   63.92
  14  38   6  -73.64   42.18
  -6  14 -38   34.65   62.85
  -7  13 -37  207.36   71.87
  13  37   7  158.65   38.61
  12  36   8  363.40   45.98
  -8  12 -36  476.22   83.09
  -9  11 -35  291.33   64.15
  11  35   9  232.02   39.53
 -10  10 -34    4.38   49.02
  10  34  10  -13.02   27.58
 -11   9 -33  356.41   69.91
   9  33  11  265.37   35.03
 -12   8 -32   63.88   50.82
 -13   7 -31   40.80   45.83
 -14   6 -30  -47.40   48.48
 -15   5 -29   52.32   47.06
 -16   4 -28  174.94   45.75
  -4 -28 -16  174.06   27.89
 -17   3 -27   57.20   39.72
  -3 -27 -17  139.52   29.81
 -18   2 -26   14.87   36.46
  -2 -26 -18   -4.07   23.86
 -19   1 -25   49.48   35.15
  -1 -25 -19  100.15   29.39
 -20   0 -24  115.74   39.30
   0 -24 -20  108.52   29.00
   1 -23 -21    6.34   26.08
 -21  -1 -23   41.60   31.81
   2 -22 -22   11.45   27.08
  22   2  22   63.77   29.23
 -22  -2 -22   35.88   29.16
   3 -21 -23   70.11   29.73
 -21  23  -3  121.39   54.43
  23   3  21  107.29   32.23
 -20  24  -4  355.37   66.65
   4 -20 -24  377.38   41.41
  24   4  20  363.82   42.79
  25   5  19  139.71   33.65
 -19  25  -5  176.59   60.08
  26   6  18  -14.90   29.27
 -18  26  -6   44.14   44.87
 -17  27  -7   82.48   61.46
  27   7  17   34.46   29.92
  28   8  16   -8.91   28.23
 -16  28  -8   22.36   56.12
 -15  29  -9   55.20   59.54
  29   9  15  122.81   36.42
  30  10  14   14.14   30.62
 -14  30 -10   28.35   57.97
 -13  31 -11  201.56   69.65
 -12  32 -12   49.06   62.88
 -11  33 -13   -8.72   65.65
 -10  34 -14  -81.36   60.35
  -9  35 -15  -11.37   69.07
  -8  36 -16  -36.61   79.29
  -7  37 -17  123.46   66.11
  -6  38 -18 -109.79   63.31
  -5  39 -19  207.05   75.60
  -4  40 -20  288.49   82.63
  -3  41 -21  137.37   90.62
  -2  42 -22  -72.03   86.39
  -1  17 -43  210.13   78.25
  -2  16 -42  114.51   63.08
  -3  15 -41 -124.39   73.99
  -4  14 -40  -68.03   59.04
  13  39   5  156.50   43.98
  -5  13 -39   27.97   58.70
  -6  12 -38  576.64   84.55
  12  38   6  637.18   62.38
  11  37   7  421.56   54.16
  -7  11 -37  394.44   76.71
  -8  10 -36   51.51   65.19
  10  36   8   -7.64   35.84
   9  35   9  539.95   53.17
  -9   9 -35  587.78   80.98
   8  34  10  620.58   52.47
 -10   8 -34  536.23   72.18
   7  33  11  135.72   31.69
 -11   7 -33  153.96   51.32
 -12   6 -32   80.71   52.97
 -13   5 -31  161.96   52.47
 -14   4 -30  736.14   69.72
  -4 -30 -14  652.32   44.79
 -15   3 -29  369.62   54.16
  -3 -29 -15  397.24   39.64
  -2 -28 -16  -13.45   27.27
 -16   2 -28   45.18   37.49
  -1 -27 -17  295.75   37.68
 -17   1 -27  313.42   46.33
   0 -26 -18  301.98   38.15
 -18   0 -26  344.50   47.21
 -19  -1 -25   69.30   32.15
   1 -25 -19  110.79   30.73
 -20  -2 -24   -3.30   30.04
   2 -24 -20   26.08   29.12
 -21  -3 -23   50.40   27.97
   3 -23 -21   87.35   31.31
  22   4  22  315.84   36.26
 -22  22  -4  360.44   64.54
   4 -22 -22  358.98   42.91
 -21  23  -5  368.97   64.96
   5 -21 -23  401.01   46.40
  23   5  21  495.24   44.91
 -20  24  -6   54.16   51.74
  24   6  20   20.17   25.97
  25   7  19  571.30   46.64
 -19  25  -7  634.34   77.64
  26   8  18  388.48   39.80
 -18  26  -8  407.00   75.48
  27   9  17   78.60   31.50
 -17  27  -9  -23.43   43.22
  28  10  16   15.21   27.50
 -16  28 -10   46.98   60.23
 -15  29 -11  146.36   67.30
  29  11  15   86.59   30.19
 -14  30 -12  620.85   86.09
 -13  31 -13  350.45   81.05
 -12  32 -14   47.17   62.46
 -11  33 -15  252.19   69.53
 -10  34 -16  549.63   96.30
  -9  35 -17   44.25   63.96
  -8  36 -18  109.02   61.00
  -7  37 -19  -10.26   68.76
  -6  38 -20  499.00   94.00
  -5  39 -21  321.61   83.51
  -4  40 -22   47.02   75.68
  -3  41 -23  293.18   99.03
   0  16 -44  682.01   95.69
  -1  15 -43  428.13   95.19
  -2  14 -42 -138.87   78.25
  -3  13 -41    9.64   53.43
  13  41   3   42.29   42.87
  12  40   4  202.48   49.59
  -4  12 -40  404.62   79.21
  -5  11 -39  428.67   82.17
  11  39   5  386.41   56.66
  10  38   6   74.75   40.53
  -6  10 -38  -52.44   54.55
   9  37   7  695.34   62.15
  -7   9 -37  683.85   85.97
   8  36   8 1411.35   79.59
  -8   8 -36 1272.05  100.38
  -9   7 -35  304.82   59.89
   7  35   9  292.30   46.29
 -10   6 -34  -83.32   55.51
   6  34  10   62.46   35.88
 -11   5 -33   18.52   44.21
   5  33  11   60.46   31.15
 -12   4 -32  252.04   57.70
 -13   3 -31  571.30   64.61
  -3 -31 -13  465.31   42.45
 -14   2 -30  -62.35   45.48
  -2 -30 -14  -28.70   27.77
 -15   1 -29  915.88   73.60
  -1 -29 -15  824.83   56.39
   0 -28 -16 1203.14   67.30
 -16   0 -28 1218.08   76.71
   1 -27 -17  300.82   40.41
 -17  -1 -27  377.77   50.55
 -18  -2 -26  -22.63   31.58
   2 -26 -18   -2.07   28.66
   3 -25 -19    5.26   30.16
 -19  -3 -25  -11.02   28.70
   4 -24 -20  377.23   48.48
 -20  -4 -24  323.68   39.14
 -21  -5 -23  499.00   39.41
   5 -23 -21  431.28   48.06
 -23  21  -5  565.69   66.30
 -22  22  -6   96.38   49.36
   6 -22 -22    9.26   31.23
 -21  23  -7 1282.70   94.23
  23   7  21 1368.40   58.43
  24   8  20 2159.50   72.68
 -20  24  -8 2194.81  124.54
 -19  25  -9  525.70   77.29
  25   9  19  412.80   35.96
  26  10  18   20.36   24.24
 -18  26 -10   48.33   54.63
  27  11  17   -2.77   25.08
 -17  27 -11   88.55   57.93
 -16  28 -12  448.68   82.13
  28  12  16  337.51   37.22
 -15  29 -13  633.07   93.42
 -14  30 -14  -25.62   64.31
 -13  31 -15  850.00  101.76
 -12  32 -16 1341.35  117.82
 -11  33 -17  176.05   76.87
 -10  34 -18   12.83   66.53
  -9  35 -19  126.92   69.80
  -8  36 -20   99.30   78.06
  -7  37 -21  381.84   96.69
  -6  38 -22   25.01   66.00
  -5  39 -23  714.43  108.94
  -4  40 -24 1105.07  151.58
   1  15 -45  471.15   98.49
   0  14 -44   -5.26   62.77
  -1  13 -43   16.17   61.96
  13  43   1  287.19   66.34
  12  42   2   -3.69   45.48
  -2  12 -42  -59.04   69.11
  11  41   3  101.30   48.67
  -3  11 -41  163.80   62.04
  10  40   4   24.12   40.57
  -4  10 -40  -46.33   61.85
   9  39   5  749.58   68.38
  -5   9 -39  743.74   85.78
   8  38   6 1806.13   95.42
  -6   8 -38 1626.50  109.71
   7  37   7  747.66   66.34
  -7   7 -37  774.51   83.90
   6  36   8  -39.11   34.69
  -8   6 -36   17.32   49.55
  -9   5 -35  151.28   51.63
   5  35   9   54.32   34.50
 -10   4 -34   30.23   45.02
   4  34  10  -44.56   34.42
 -11   3 -33  102.26   48.44
 -12   2 -32   17.71   41.10
  -2 -32 -12   27.31   27.81
 -13   1 -31  840.74   72.18
  -1 -31 -13  843.39   59.89
 -14   0 -30 2044.65   96.80
   0 -30 -14 2085.56   89.16
   1 -29 -15  741.05   57.43
 -15  -1 -29  829.02   62.73
   2 -28 -16   13.60   29.85
 -16  -2 -28   34.11   37.15
 -17  -3 -27  103.72   32.88
   3 -27 -17   15.67   33.38
 -18  -4 -26   29.92   28.47
   4 -26 -18   -5.15   34.07
 -19  -5 -25  189.81   31.81
   5 -25 -19  201.98   40.26
 -20  -6 -24   80.67   25.62
 -24  20  -6   60.54   44.10
 -23  21  -7 1451.72  102.34
 -22  22  -8 2348.00  127.34
 -21  23  -9  859.83   90.08
 -20  24 -10   -4.23   44.25
  24  10  20   26.97   16.86
  25  11  19  131.72   23.24
 -19  25 -11  264.56   76.48
  26  12  18   16.86   18.32
 -18  26 -12  -20.32   48.90
 -17  27 -13  157.88   60.73
 -16  28 -14   33.57   62.77
 -15  29 -15  983.37  102.34
 -14  30 -16 2418.53  146.94
 -13  31 -17 1139.06  116.86
 -12  32 -18   47.36   71.76
 -11  33 -19  324.22   79.52
 -10  34 -20  -35.19   57.89
  -9  35 -21  116.78   65.30
  -8  36 -22   24.85   71.99
  -7  37 -23  711.13  104.72
  -6  38 -24 1577.95  142.02
  -5  39 -25  707.17  120.89
   1  13 -45  511.33   97.00
   0  12 -44  192.07   77.75
  12  44   0  241.24   63.23
  11  43   1   38.41   48.71
  -1  11 -43   50.90   61.73
  10  42   2   12.87   47.40
  -2  10 -42  -37.03   66.07
  -3   9 -41  444.88   80.09
   9  41   3  354.03   62.12
   8  40   4 1222.35   87.51
  -4   8 -40 1540.19  117.89
   7  39   5  799.33   76.75
  -5   7 -39  735.83   84.13
   6  38   6  -13.91   38.41
  -6   6 -38   45.83   49.59
   5  37   7  503.65   59.27
  -7   5 -37  478.91   69.95
   4  36   8  219.73   45.25
  -8   4 -36  180.24   55.01
   3  35   9    1.34   38.49
  -9   3 -35   60.08   48.33
 -10   2 -34  -14.75   42.52
   2  34  10  -17.75   30.31
 -11   1 -33  276.12   49.13
 -12   0 -32 1149.09   80.98
 -13  -1 -31  956.44   73.79
   1 -31 -13  744.13   60.58
   2 -30 -14   41.64   35.19
 -14  -2 -30   28.50   38.84
   3 -29 -15  380.49   50.36
 -15  -3 -29  472.23   50.25
   4 -28 -16  179.82   41.72
 -16  -4 -28  143.40   35.03
 -17  -5 -27  -28.89   32.08
 -18  -6 -26    4.57   25.35
 -19  -7 -25  631.07   38.99
 -25  19  -7  578.79   65.04
 -24  20  -8 2317.50  120.89
 -23  21  -9  883.61   82.48
 -22  22 -10  -37.84   49.02
 -21  23 -11  554.70   82.13
 -20  24 -12  326.14   66.88
  25  13  19   -6.72   12.60
 -19  25 -13   18.40   61.54
 -18  26 -14  -24.35   54.93
 -17  27 -15  468.12   77.17
 -16  28 -16 1341.32  113.82
 -15  29 -17  890.29  101.99
 -14  30 -18   57.20   74.64
 -13  31 -19  353.72   80.17
 -12  32 -20  192.42   80.59
 -11  33 -21   -5.53   64.65
 -10  34 -22   45.94   58.74
  -9  35 -23  191.42   81.40
  -8  36 -24  873.77  110.90
  -7  37 -25  605.60  103.68
  -6  38 -26 -127.92   96.77
   1  11 -45   -2.27   59.39
  11  45  -1   53.66   53.74
  10  44   0  -43.41   52.44
   0  10 -44  105.45   63.77
   9  43   1   44.94   50.63
  -1   9 -43  154.00   68.42
  -2   8 -42  448.45   79.06
   8  42   2  365.82   66.99
   7  41   3  487.02   67.57
  -3   7 -41  427.94   78.13
   6  40   4  -90.62   47.33
  -4   6 -40  -28.89   56.20
   5  39   5  458.25   63.04
  -5   5 -39  465.93   73.76
   4  38   6  670.98   67.42
  -6   4 -38  791.53   80.86
   3  37   7   98.92   39.41
  -7   3 -37  114.28   51.28
   2  36   8  -58.31   36.92
  -8   2 -36  -76.71   46.25
   1  35   9  103.83   41.53
  -9   1 -35   12.02   42.95
 -10   0 -34  209.63   47.48
   0  34  10  294.10   43.52
 -11  -1 -33  290.37   52.17
 -12  -2 -32  -34.80   39.53
 -13  -3 -31  526.93   55.05
 -14  -4 -30  775.39   60.35
 -15  -5 -29  121.81   31.73
 -16  -6 -28    1.61   27.54
 -17  -7 -27   67.19   26.70
 -18  -8 -26  432.97   33.27
 -25  19  -9  516.06   69.95
 -24  20 -10  -56.39   54.16
 -23  21 -11  533.58   78.71
 -22  22 -12  532.00   72.30
 -21  23 -13  114.71   62.77
 -20  24 -14  -86.01   47.75
 -19  25 -15   19.86   63.92
 -18  26 -16  401.58   83.13
 -17  27 -17  325.64   82.13
 -16  28 -18   90.77   73.18
 -15  29 -19  549.98   90.66
 -14  30 -20  506.88   91.46
 -13  31 -21  218.77   85.43
 -12  32 -22  106.29   80.98
 -11  33 -23  -26.28   69.84
 -10  34 -24  168.37   76.18
  -9  35 -25  312.92   81.71
  -8  36 -26   67.23   79.52
  -7  37 -27  181.43   92.89
  10  46  -2  -54.16   63.00
   2  10 -46  -17.13   61.46
   9  45  -1  115.97   59.24
   1   9 -45   17.98   57.70
   8  44   0  -35.92   51.01
   0   8 -44    3.23   51.21
   7  43   1   36.22   51.82
  -1   7 -43   28.54   57.74
   6  42   2  -13.94   48.02
  -2   6 -42   23.32   51.01
   5  41   3  232.37   58.58
  -3   5 -41  155.54   57.70
   4  40   4  438.77   63.27
  -4   4 -40  446.49   69.15
  -5   3 -39  175.78   59.66
   3  39   5  277.66   56.43
   2  38   6   -6.15   41.60
  -6   2 -38   19.86   44.10
   1  37   7   -9.10   39.45
  -7   1 -37   11.95   43.18
   0  36   8    6.26   36.49
  -8   0 -36   91.31   46.60
  -1  35   9  130.30   40.30
  -9  -1 -35   24.20   38.57
 -10  -2 -34  -29.85   42.06
 -11  -3 -33  146.24   40.87
 -12  -4 -32  291.49   45.14
 -13  -5 -31  203.67   40.68
 -14  -6 -30   -8.45   29.23
 -15  -7 -29   45.71   24.62
 -16  -8 -28  -11.29   23.01
 -17  -9 -27   46.02   19.51
 -26  18 -10  -46.64   44.98
 -25  19 -11   82.48   47.17
 -24  20 -12  545.37   79.86
 -23  21 -13  126.38   60.46
 -22  22 -14    6.22   47.36
 -21  23 -15  -70.45   64.27
 -20  24 -16  121.66   59.70
 -19  25 -17   71.07   50.02
 -18  26 -18  -42.33   59.93
 -17  27 -19   73.64   51.05
 -16  28 -20  297.56   86.20
 -15  29 -21   91.20   69.26
 -14  30 -22  -13.45   61.73
 -13  31 -23  -13.94   69.99
 -12  32 -24 -130.65   86.28
 -11  33 -25  125.35   85.09
 -10  34 -26  -98.46   87.01
  -9  35 -27   -6.15   82.25
  -8  36 -28  171.25   97.23
   8  46  -2   17.29   55.47
   2   8 -46 -133.18   71.76
   7  45  -1   44.52   59.62
   1   7 -45    2.27   56.85
   6  44   0   95.50   56.89
   0   6 -44   22.36   52.78
   5  43   1   -8.22   51.28
  -1   5 -43   60.23   48.56
   4  42   2   16.60   48.48
  -2   4 -42  149.43   62.50
  -3   3 -41   95.34   56.35
   3  41   3    9.60   48.67
  -4   2 -40   18.52   44.94
   2  40   4  -47.13   47.36
   1  39   5   -7.53   45.14
  -5   1 -39   78.02   45.98
   0  38   6   78.13   44.41
  -6   0 -38  153.43   51.63
  -1  37   7    9.37   42.45
  -7  -1 -37  -47.79   41.41
  -2  36   8  -31.35   41.03
  -8  -2 -36  -65.84   40.18
  -3  35   9  -50.82   35.84
  -9  -3 -35  -21.28   36.30
 -10  -4 -34   37.53   35.42
 -11  -5 -33  -28.77   36.38
 -12  -6 -32   32.61   31.46
 -13  -7 -31   30.54   31.42
 -14  -8 -30   67.61   29.31
 -15  -9 -29   87.74   25.62
 -16 -10 -28   19.59   16.71
 -27  17 -11   24.43   45.98
 -26  18 -12  -29.50   45.94
 -25  19 -13    5.61   42.79
 -24  20 -14  -21.17   55.97
 -23  21 -15  -39.87   69.68
 -22  22 -16   -8.60   53.43
 -21  23 -17  -23.01   57.89
 -20  24 -18  -23.89   64.46
 -19  25 -19  -29.77   66.88
 -18  26 -20   28.70   65.73
 -17  27 -21  -86.66   73.14
 -16  28 -22   46.33   58.89
 -15  29 -23 -129.53   79.33
 -14  30 -24   18.98   63.15
 -13  31 -25   30.81   63.96
 -12  32 -26 -155.50   93.08
 -11  33 -27  -80.94   89.93
 -10  34 -28  252.19   90.00
  -9  35 -29 -180.28   79.48
   6  46  -2   14.67   57.43
   2   6 -46   17.29   56.78
   5  45  -1  108.52   62.58
   1   5 -45  176.98   63.84
   4  44   0  204.67   64.84
   0   4 -44  161.72   60.69
   3  43   1   71.68   52.13
  -1   3 -43   39.72   48.86
  -2   2 -42  128.46   56.35
   2  42   2   82.01   57.81
  -3   1 -41  -11.87   42.29
   1  41   3   42.99   50.51
   0  40   4    0.23   45.71
  -4   0 -40   37.19   43.37
  -1  39   5  -10.76   46.90
  -5  -1 -39   23.62   43.25
  -2  38   6   42.79   44.56
  -6  -2 -38   12.25   43.75
  -7  -3 -37   63.23   41.41
  -3  37   7  128.07   44.60
  -4  36   8  230.37   46.40
  -8  -4 -36  159.57   45.33
  -9  -5 -35   58.04   33.84
 -10  -6 -34   86.74   39.64
 -11  -7 -33  119.85   35.88
 -12  -8 -32   35.42   29.54
 -13  -9 -31  -21.17   25.39
 -14 -10 -30   51.28   22.24
 -15 -11 -29  107.18   19.09
 -28  16 -12  538.80   70.03
 -27  17 -13  157.81   55.97
 -26  18 -14   70.99   57.01
 -25  19 -15   57.93   48.82
 -24  20 -16   -9.26   58.74
 -23  21 -17   10.26   51.28
 -22  22 -18  -49.63   59.16
 -21  23 -19  240.55   78.02
 -20  24 -20  204.10   66.30
 -19  25 -21  122.08   62.92
 -18  26 -22   41.53   69.88
 -17  27 -23  156.81   80.44
 -16  28 -24   16.02   55.28
 -15  29 -25   54.24   75.98
 -14  30 -26   -5.84   73.41
 -13  31 -27  -33.57   66.99
 -12  32 -28   -2.96   63.65
 -11  33 -29   28.43   77.14
 -10  34 -30  -28.04   78.40
   5  47  -3  153.35   69.22
   4  46  -2  357.75   74.56
   3  45  -1  234.02   69.72
   2  44   0  -40.72   50.55
   1  43   1  213.81   62.35
  -2   0 -42  315.23   62.27
   0  42   2  349.53   71.99
  -1  41   3   18.48   49.86
  -3  -1 -41   50.98   49.32
  -2  40   4  157.96   59.20
  -4  -2 -40   18.25   39.57
  -5  -3 -39  167.68   48.94
  -3  39   5  112.09   49.06
  -4  38   6  875.58   81.71
  -6  -4 -38  766.64   69.22
  -5  37   7  512.26   61.69
  -7  -5 -37  597.08   63.69
  -6  36   8  -50.90   40.76
  -8  -6 -36   -3.19   34.77
  -9  -7 -35  311.89   48.25
 -10  -8 -34  696.30   56.01
 -11  -9 -33  186.96   34.07
 -12 -10 -32   33.69   27.54
 -13 -11 -31   96.30   23.66
 -14 -12 -30  666.87   32.73
 -28  16 -14   12.56   52.86
 -27  17 -15  528.47   75.10
 -26  18 -16  287.45   64.00
 -25  19 -17   78.44   55.85
 -24  20 -18  -45.44   58.35
 -23  21 -19  123.62   62.73
 -22  22 -20  395.25   72.26
 -21  23 -21  216.20   66.07
 -20  24 -22   35.92   58.20
 -19  25 -23  304.55   70.61
 -18  26 -24  337.55   82.28
 -17  27 -25   94.15   76.60
 -16  28 -26  -12.83   63.50
 -15  29 -27  204.75   76.87
 -14  30 -28  249.96   87.93
 -13  31 -29   -7.22   86.28
 -12  32 -30  -84.32   86.62
 -11  33 -31  456.29  117.86
   3  47  -3  419.14   85.59
   2  46  -2  -31.65   62.96
   1  45  -1  428.90   73.56
   0  44   0 1120.70  102.76
  -1  43   1  333.51   70.38
  -2  42   2  -27.16   53.43
  -3  41   3   -1.34   50.71
  -4  40   4  445.30   69.41
  -4  -4 -40  443.61   59.27
  -5  39   5  496.24   69.53
  -5  -5 -39  513.45   60.69
  -6  38   6   -1.46   47.10
  -6  -6 -38   50.71   38.80
  -7  -7 -37  807.47   66.50
  -7  37   7  765.64   73.03
  -8  -8 -36 1392.83   77.29
  -9  -9 -35  532.42   49.67
 -10 -10 -34   12.06   30.35
 -11 -11 -33   61.12   26.66
 -12 -12 -32   49.48   19.90
 -13 -13 -31  307.74   23.66
 -29  15 -15 1039.92   88.08
 -28  16 -16 1700.80  111.98
 -27  17 -17  350.07   64.19
 -26  18 -18   23.36   53.93
 -25  19 -19   90.81   69.03
 -24  20 -20  314.69   72.30
 -23  21 -21  396.90   72.80
 -22  22 -22   14.75   63.15
 -21  23 -23  505.42   89.81
 -20  24 -24 1256.54  117.13
 -19  25 -25  376.46   76.75
 -18  26 -26  -85.97   79.94
 -17  27 -27  123.31   69.26
 -16  28 -28  293.14   90.04
 -15  29 -29  120.77   72.41
 -14  30 -30  112.82   77.67
 -13  31 -31  631.88   98.38
 -12  32 -32  443.84   97.46
 -13  31 -33  400.01  108.41
 -14  30 -32 1142.14  137.06
 -15  29 -31  559.77  104.60
 -16  28 -30  -14.48   67.53
 -17  27 -29  142.67   68.11
 -18  26 -28  192.80   90.66
 -19  25 -27  167.49   67.07
 -20  24 -26   43.41   67.11
 -21  23 -25  680.55   97.27
 -22  22 -24 1522.71  128.00
 -23  21 -23  337.01   74.02
 -24  20 -22   89.31   58.43
 -25  19 -21  179.13   61.50
 -26  18 -20   21.97   58.81
 -27  17 -19   48.82   60.16
 -28  16 -18  -34.23   44.18
 -29  15 -17  826.18   82.28
 -30  14 -16 2421.11  120.54
 -12 -14 -32    4.30   13.75
 -11 -13 -33   75.75   22.63
 -10 -12 -34   49.02   26.35
  -9 -11 -35  216.54   34.53
  -8 -10 -36  -24.97   32.15
  -7  -9 -37  717.97   62.81
  -8  38   6 1749.78  105.56
  -6  -8 -38 1626.77   84.20
  -5  -7 -39  885.72   71.26
  -7  39   5  893.56   85.82
  -6  40   4   13.98   51.74
  -4  -6 -40   90.70   43.45
  -5  41   3  168.26   60.69
  -4  42   2    7.64   55.51
  -3  43   1  158.88   61.85
  -2  44   0  -10.83   62.42
  -1  45  -1  719.66   88.12
   0  46  -2 1148.97  113.98
   1  47  -3  487.82   86.13
 -12  30 -34  249.27   92.77
 -13  29 -33  122.23   82.01
 -14  28 -32   21.74   80.32
 -15  27 -31  385.10   98.57
 -16  26 -30  215.12   71.41
 -17  25 -29   64.23   73.14
 -18  24 -28  -92.16   67.15
 -19  23 -27   38.15   72.91
 -20  22 -26  587.13   90.04
 -21  21 -25  491.59   84.24
 -22  20 -24   33.23   64.08
 -23  19 -23   86.16   60.62
 -24  18 -22  365.05   70.72
 -25  17 -21  116.09   66.76
 -26  16 -20  -63.61   54.82
 -27  15 -19   90.70   50.17
 -28  14 -18  698.03   75.68
 -29  13 -17  626.65   70.34
 -11 -15 -31  357.02   22.63
 -10 -14 -32  262.26   28.12
  -9 -13 -33  -10.60   22.55
  -8 -12 -34   10.03   26.20
  -7 -11 -35  145.71   35.49
  -6 -10 -36  560.89   50.90
 -10  36   6  633.15   71.95
  -9  37   5  491.32   67.11
  -8  38   4   21.51   50.05
  -7  39   3  398.17   68.61
  -6  40   2  448.64   75.83
  -5  41   1  109.44   58.12
  -4  42   0 -116.47   68.95
  -3  43  -1  168.91   67.34
  -2  44  -2  470.00   81.52
  -1  45  -3  280.66   80.21
   0  46  -4  -35.92   57.31
   1  47  -5  121.62   65.73
 -11  29 -35   11.87   78.06
 -12  28 -34   63.23   86.85
 -13  27 -33  201.75   84.05
 -14  26 -32  225.80   79.52
 -15  25 -31   -4.88   59.31
 -16  24 -30  -77.48   67.34
 -17  23 -29  -31.85   66.42
 -18  22 -28   42.52   65.57
 -19  21 -27   68.88   66.99
 -20  20 -26   50.71   55.28
 -21  19 -25  124.04   57.51
 -22  18 -24  283.69   74.41
 -23  17 -23  122.00   59.58
 -24  16 -22   75.48   56.93
 -25  15 -21  118.55   53.74
 -26  14 -20   33.38   47.06
 -27  13 -19  -23.86   42.95
 -28  12 -18  -19.90   40.80
 -29  11 -17  248.96   54.36
 -10 -16 -30  378.46   21.24
  -9 -15 -31  119.93   21.36
  -8 -14 -32    2.69   20.17
  -7 -13 -33  100.30   28.23
 -11  35   5  -27.47   46.29
 -10  36   4  -81.52   49.52
  -9  37   3  168.37   60.93
  -8  38   2   94.42   55.97
  -7  39   1  218.58   63.04
  -6  40   0   -6.68   54.01
  -5  41  -1   71.68   67.65
  -4  42  -2  139.67   68.34
  -3  43  -3   47.60   56.62
  -2  44  -4   68.80   61.50
  -1  45  -5   70.91   55.51
   0  46  -6   73.60   68.99
 -10  28 -36   45.79   69.65
 -11  27 -35   10.76   75.68
 -12  26 -34  -95.08   85.28
 -13  25 -33   19.05   77.52
 -14  24 -32  114.94   68.15
 -15  23 -31  162.11   68.57
 -16  22 -30  179.09   75.22
 -17  21 -29  138.94   76.68
 -18  20 -28    9.91   54.66
 -19  19 -27   52.55   56.58
 -20  18 -26   39.34   53.74
 -21  17 -25   92.31   56.70
 -22  16 -24   25.62   56.78
 -23  15 -23  301.25   66.46
 -24  14 -22  433.58   71.87
 -25  13 -21  362.09   68.22
 -26  12 -20  -27.97   45.14
 -27  11 -19  -31.31   46.33
 -28  10 -18   56.62   50.36
  -9 -17 -29   28.31    8.68
  -8 -16 -30    9.68   14.98
  -7 -15 -31  358.87   31.69
 -12  34   4  -49.17   45.94
 -11  35   3  133.11   51.74
 -10  36   2   60.96   50.40
  -9  37   1   86.24   58.04
  -8  38   0  -40.87   57.47
  -7  39  -1  235.98   72.26
  -6  40  -2  428.59   77.98
  -5  41  -3  129.19   65.65
  -4  42  -4   59.04   59.81
  -3  43  -5   67.61   67.53
  -2  44  -6  100.34   67.11
  -1  45  -7 -111.02   68.11
   0  46  -8   84.86   73.76
  -9  27 -37  312.35   89.97
 -10  26 -36  405.39   96.84
 -11  25 -35  154.85   80.52
 -12  24 -34    4.61   78.02
 -13  23 -33  -21.51   69.30
 -14  22 -32  268.86   71.37
 -15  21 -31  285.34   78.60
 -16  20 -30   37.34   53.09
 -17  19 -29  616.59   92.81
 -18  18 -28  736.94   93.73
 -19  17 -27  123.19   64.57
 -20  16 -26   62.85   57.24
 -21  15 -25  132.99   60.46
 -22  14 -24  515.52   75.64
 -23  13 -23  290.60   65.46
 -24  12 -22   19.98   52.94
 -25  11 -21  737.36   77.60
 -26  10 -20  854.53   79.98
 -27   9 -19  273.51   58.74
  -8 -18 -28   -3.73    7.99
 -28   8 -18    2.30   39.64
  -8 -18 -28   -4.88    8.30
  -7 -17 -29   62.46   15.17
 -14  32   4  -87.70   46.02
 -13  33   3  557.74   69.07
 -12  34   2  971.00   93.00
 -11  35   1  228.26   60.66
 -10  36   0   -4.53   51.40
  -9  37  -1   -1.00   57.39
  -8  38  -2  288.42   74.18
  -7  39  -3  444.49   78.33
  -6  40  -4   30.58   59.62
  -5  41  -5  548.98   89.12
  -4  42  -6  989.82  107.56
  -3  43  -7  218.27   80.21
  -2  44  -8  -22.93   58.58
  -1  45  -9  -60.89   67.88
   0  46 -10   39.41   70.87
  -8  26 -38 1252.69  142.63
  -9  25 -37  386.91   84.20
 -10  24 -36   14.29   80.06
 -11  23 -35  180.36   80.56
 -12  22 -34  -52.63   77.67
 -13  21 -33  131.76   66.53
 -14  20 -32    3.15   67.57
 -15  19 -31  980.84  108.94
 -16  18 -30 2180.98  139.52
 -17  17 -29  894.33  100.18
 -18  16 -28   57.47   60.39
 -19  15 -27   65.23   59.73
 -20  14 -26  121.54   61.50
 -21  13 -25  370.78   68.42
 -22  12 -24  -50.36   56.35
 -23  11 -23 1376.89   97.46
 -24  10 -22 2777.59  129.61
 -25   9 -21 1381.34   94.81
 -26   8 -20   78.02   48.56
  -7 -19 -27  172.83   15.52
  -7 -19 -27  194.38   16.21
 -27   7 -19  267.94   51.78
  -6 -18 -28   -4.84   13.02
 -15  31   3  796.64   74.41
 -14  32   2 2348.46  125.15
 -13  33   1  818.19   78.94
 -12  34   0   35.30   56.35
 -11  35  -1  263.83   68.49
 -10  36  -2  158.31   58.16
  -9  37  -3    7.53   49.52
  -8  38  -4   38.95   51.21
  -7  39  -5  965.35   98.42
  -6  40  -6 1802.10  130.65
  -5  41  -7  845.31   96.30
  -4  42  -8   31.35   67.99
  -3  43  -9  187.27   82.13
  -2  44 -10  -75.41   68.61
  -1  45 -11    5.69   59.77
  -7  25 -39  930.17  131.42
  -8  24 -38  -62.62   74.79
  -9  23 -37  509.07   96.19
 -10  22 -36  521.74   99.99
 -11  21 -35   24.74   70.72
 -12  20 -34    7.80   62.88
 -13  19 -33  654.04   92.16
 -14  18 -32 2533.20  152.89
 -15  17 -31 1706.83  125.19
 -16  16 -30   16.40   50.90
 -17  15 -29 1014.52   96.80
 -18  14 -28  659.92   78.10
 -19  13 -27   -2.92   54.59
 -20  12 -26   23.66   48.17
 -21  11 -25  721.31   74.83
 -22  10 -24 2738.99  128.38
 -23   9 -23 1522.06   99.53
 -24   8 -22   26.97   44.56
 -25   7 -21 1500.20   93.58
 -26   6 -20 1268.48   83.78
  -6 -20 -26  973.42   34.84
 -27   5 -19   39.87   40.26
  -5 -19 -27   38.53   17.48
 -16  30   2 1960.79  109.40
 -15  31   1 1405.24   97.84
 -14  32   0  110.02   62.04
 -13  33  -1  752.58   77.98
 -12  34  -2  812.70   91.31
 -11  35  -3   23.39   59.27
 -10  36  -4  -94.35   66.69
  -9  37  -5  313.81   75.41
  -8  38  -6 1943.50  132.53
  -7  39  -7 1258.42  113.51
  -6  40  -8  -18.75   66.26
  -5  41  -9  767.37   96.38
  -4  42 -10  668.37  102.18
  -3  43 -11   50.82   69.72
  -2  44 -12 -102.53   83.67
  -1  45 -13  254.46   90.08
  -6  24 -40   54.86   84.17
  -7  23 -39  956.40  126.69
  -8  22 -38 1467.89  133.80
  -9  21 -37  181.20   84.20
 -10  20 -36  -49.90   78.71
 -11  19 -35  163.88   77.64
 -12  18 -34  889.79   99.03
 -13  17 -33 1081.90  110.63
 -14  16 -32  106.48   63.84
 -15  15 -31 1880.19  130.65
 -16  14 -30 2268.72  134.91
 -17  13 -29  767.02   87.39
 -18  12 -28  -71.68   51.74
 -19  11 -27  -36.95   52.17
 -20  10 -26 1075.91   90.93
 -21   9 -25 1399.67   94.50
 -22   8 -24   31.77   40.83
 -23   7 -23 1889.14  103.49
  -6 -22 -24 2371.01   47.10
 -24   6 -22 2816.51  120.20
 -25   5 -21 1021.40   76.94
  -5 -21 -25  728.26   33.84
  -4 -20 -26   -7.53   17.32
 -26   4 -20   51.74   38.38
  -3 -19 -27   64.31   21.20
 -17  29   1  915.72   84.05
 -16  30   0   26.47   60.16
 -15  31  -1 1415.72  100.95
 -14  32  -2 2361.56  133.22
 -13  33  -3  510.45   78.52
 -12  34  -4  -38.80   45.87
 -11  35  -5  -27.01   51.59
 -10  36  -6  571.53   81.78
  -9  37  -7  685.27   89.77
  -8  38  -8   13.02   63.88
  -7  39  -9 1291.18  114.71
  -6  40 -10 1900.59  141.79
  -5  41 -11  344.12   77.56
  -4  42 -12   31.15   61.92
  -3  43 -13  -39.95   68.92
  -2  44 -14  376.35   87.24
  -1  45 -15  487.17   97.53
  -5  23 -41  627.85   99.57
  -6  22 -40 1796.53  153.96
  -7  21 -39  684.54  100.15
  -8  20 -38    9.60   66.65
  -9  19 -37  -14.44   72.76
 -10  18 -36   71.07   67.88
 -11  17 -35  226.84   75.83
 -12  16 -34    8.22   59.12
 -13  15 -33  960.63  100.26
 -14  14 -32 2205.87  135.99
 -15  13 -31  836.82   87.55
 -16  12 -30  -52.59   57.31
 -17  11 -29  221.50   60.73
 -18  10 -28   42.03   47.13
 -19   9 -27  131.84   52.32
 -20   8 -26  -17.98   42.83
 -21   7 -25 1352.84   92.46
 -22   6 -24 2785.81  120.62
  -6 -24 -22 2470.89   45.44
  -5 -23 -23  735.21   32.96
 -23   5 -23  822.22   71.95
 -24   4 -22   40.60   39.80
  -4 -22 -24    7.87   16.25
 -25   3 -21  142.86   42.03
  -3 -21 -25  149.82   24.82
  -2 -20 -26   -3.00   21.86
 -18  28   0   -0.50   39.95
 -17  29  -1  688.66   78.06
 -16  30  -2 2002.08  118.97
 -15  31  -3  785.31   89.24
 -14  32  -4   31.73   50.21
 -13  33  -5  208.51   66.50
 -12  34  -6 -119.81   69.88
 -11  35  -7  130.19   65.42
 -10  36  -8  105.64   62.38
  -9  37  -9  774.47   94.12
  -8  38 -10 1714.36  130.69
  -7  39 -11  628.65   89.28
  -6  40 -12  -70.34   70.68
  -5  41 -13  209.09   80.56
  -4  42 -14   60.96   72.76
  -3  43 -15  219.77   92.54
  -2  44 -16   79.06   80.63
  -5  21 -41  390.21   97.61
  -6  20 -40 -156.88   89.66
  -7  19 -39  643.52   88.16
  -8  18 -38  298.02   84.32
  -9  17 -37  -96.54   70.07
 -10  16 -36  -91.27   71.87
 -11  15 -35  196.72   64.61
 -12  14 -34  710.36   94.50
 -13  13 -33  399.66   70.68
 -14  12 -32   12.02   55.82
 -15  11 -31  366.90   69.53
 -16  10 -30  475.22   68.95
 -17   9 -29   53.90   51.28
 -18   8 -28   50.71   48.67
 -19   7 -27  317.26   58.62
 -20   6 -26 1075.03   80.71
 -21   5 -25  799.17   71.53
  -5 -25 -21  777.32   33.96
  -4 -24 -22   -8.57   17.32
 -22   4 -24   94.00   45.64
  -3 -23 -23  314.15   30.54
 -23   3 -23  292.10   51.24
  -2 -22 -24  240.01   29.50
 -24   2 -22  292.83   48.13
 -25   1 -21   10.64   30.19
  -1 -21 -25   23.74   22.17
   0 -20 -26  -20.71   22.93
 -19  27  -1  176.40   53.09
 -18  28  -2  661.92   73.87
 -17  29  -3  466.97   75.41
 -16  30  -4   29.27   50.13
 -15  31  -5  636.18   84.70
 -14  32  -6  726.92   93.69
 -13  33  -7   85.20   63.50
 -12  34  -8   52.70   62.42
 -11  35  -9  320.99   79.33
 -10  36 -10  605.07   90.43
  -9  37 -11  518.86   87.28
  -8  38 -12 -212.74   83.51
  -7  39 -13  268.44   73.83
  -6  40 -14  440.04   86.32
  -5  41 -15   11.10   60.35
  -4  42 -16  -56.01   61.42
  -3  43 -17   35.57   65.92
  -4  20 -42   37.03   68.68
  -5  19 -41  269.32   89.12
  -6  18 -40  260.07   76.52
  -7  17 -39   70.57   59.16
  -8  16 -38   95.19   66.11
  -9  15 -37   57.24   74.56
 -10  14 -36   24.66   59.08
 -11  13 -35   39.37   57.16
 -12  12 -34  -47.52   62.69
 -13  11 -33   16.67   55.89
 -14  10 -32  316.73   68.30
 -15   9 -31  -51.48   58.47
 -16   8 -30  -31.65   49.63
 -17   7 -29   30.92   44.25
 -18   6 -28   -3.00   40.87
 -19   5 -27  116.74   47.75
  -5 -27 -19   90.12   20.44
  -4 -26 -20   22.55   18.90
 -20   4 -26  -29.35   41.83
  -3 -25 -21  163.38   26.35
 -21   3 -25  150.24   41.76
  -2 -24 -22  252.11   31.96
 -22   2 -24  282.15   49.06
  -1 -23 -23   36.65   24.39
 -23   1 -23   23.97   32.50
 -24   0 -22   -3.88   30.62
   0 -22 -24   22.43   26.12
   1 -21 -25   21.74   26.39
  25   1  21   15.98   30.85
  26   2  20   72.22   37.15
 -20  26  -2   25.35   45.18
   2 -20 -26   21.82   27.50
  27   3  19   31.58   33.88
 -19  27  -3  -54.47   43.83
 -18  28  -4   56.97   57.43
  28   4  18   11.22   32.96
  29   5  17  219.54   45.94
 -17  29  -5  134.22   47.60
 -16  30  -6  451.52   80.94
 -15  31  -7  353.57   77.25
 -14  32  -8    5.65   51.78
 -13  33  -9  -52.86   55.93
 -12  34 -10   70.84   63.00
 -11  35 -11   54.13   68.53
 -10  36 -12   14.17   57.62
  -9  37 -13  211.59   81.40
  -8  38 -14  204.79   65.34
  -7  39 -15   46.52   65.92
  -6  40 -16   38.68   84.47
  -5  41 -17  175.36   80.44
  -4  42 -18   96.61   85.63
  -3  43 -19   47.25   63.19
  -3  19 -43   68.22   77.79
  -4  18 -42  -14.52   65.15
  -5  17 -41   60.20   77.75
  -6  16 -40  -65.27   56.28
  -7  15 -39  118.39   68.07
  -8  14 -38  281.50   74.26
  -9  13 -37  173.98   61.81
 -10  12 -36   -4.84   53.93
 -11  11 -35  -29.46   59.31
  11  35  11   19.40   27.43
  10  34  12   57.43   22.93
 -12  10 -34   11.60   51.82
 -13   9 -33  -38.38   49.40
 -14   8 -32  -31.35   48.48
 -15   7 -31  533.61   72.60
 -16   6 -30  510.37   66.46
 -17   5 -29  158.96   46.48
  -4 -28 -18   31.23   21.40
 -18   4 -28   55.05   42.68
  -3 -27 -19   23.97   22.70
 -19   3 -27  112.75   45.75
  -2 -26 -20   -8.80   23.28
 -20   2 -26  -36.84   38.22
  -1 -25 -21  -15.33   24.89
 -21   1 -25   82.36   39.03
   0 -24 -22   19.05   25.20
 -22   0 -24   13.87   33.77
 -23  -1 -23  -29.69   31.19
   1 -23 -23    1.00   26.01
  23   1  23    6.99   29.04
  24   2  22  220.27   38.41
   2 -22 -24  218.58   35.03
 -21  25  -3  140.52   51.94
  25   3  21  172.06   36.49
   3 -21 -25  173.02   34.61
  26   4  20   -1.81   29.66
 -20  26  -4   33.50   44.75
 -19  27  -5  -57.43   63.08
  27   5  19   94.69   34.88
  28   6  18   17.06   32.42
 -18  28  -6  -19.44   46.14
 -17  29  -7   81.32   58.66
  29   7  17   55.82   32.31
  30   8  16  -11.02   34.77
 -16  30  -8   35.69   57.43
 -15  31  -9   47.48   50.51
 -14  32 -10  239.28   65.42
 -13  33 -11  101.99   62.50
 -12  34 -12  -48.67   68.19
 -11  35 -13  -14.75   64.88
 -10  36 -14  -55.12   63.92
  -9  37 -15   -4.72   67.65
  -8  38 -16  -88.70   77.94
  -7  39 -17  198.49   91.00
  -6  40 -18  335.24   94.85
  -5  41 -19  106.10   88.93
  -4  42 -20   33.69   82.67
  -3  17 -43   68.38   71.37
  -4  16 -42  -22.97   70.61
  -5  15 -41  105.06   66.26
  -6  14 -40  277.04   73.64
  -7  13 -39  330.36   77.06
  -8  12 -38   75.75   65.34
  -9  11 -37  357.98   69.38
  11  37   9  319.65   45.44
  10  36  10  487.63   46.83
 -10  10 -36  484.52   75.14
 -11   9 -35  234.40   67.15
   9  35  11  194.72   33.69
 -12   8 -34    5.88   54.24
 -13   7 -33  -53.59   57.66
 -14   6 -32  553.32   69.03
 -15   5 -31  614.59   68.03
 -16   4 -30  -84.86   49.17
  -4 -30 -16   35.69   22.93
 -17   3 -29  603.57   66.23
  -3 -29 -17  457.67   39.11
 -18   2 -28  662.57   62.23
  -2 -28 -18  570.57   44.60
  -1 -27 -19  180.74   34.84
 -19   1 -27  180.55   45.60
 -20   0 -26    1.00   35.30
   0 -26 -20   18.94   26.70
   1 -25 -21   19.82   26.01
 -21  -1 -25  -27.12   32.84
 -22  -2 -24  270.17   39.11
   2 -24 -22  218.12   35.53
   3 -23 -23  243.28   37.45
 -23  -3 -23  341.35   37.30
  23   3  23  329.29   40.60
 -22  24  -4   18.17   37.07
  24   4  22   28.23   28.23
   4 -22 -24  -23.28   29.19
   5 -21 -25  681.47   54.09
  25   5  21  699.53   53.51
 -21  25  -5  875.43   85.05
 -20  26  -6 1215.47   98.92
  26   6  20  958.48   58.89
  27   7  19  184.39   35.96
 -19  27  -7  248.04   59.70
 -18  28  -8 -135.03   68.49
  28   8  18  -14.60   29.23
  29   9  17   41.64   30.42
 -17  29  -9  -17.25   60.23
 -16  30 -10  347.23   67.42
 -15  31 -11  379.84   72.41
 -14  32 -12   26.01   55.78
 -13  33 -13  483.64   87.01
 -12  34 -14  705.94   96.88
 -11  35 -15  392.25   82.82
 -10  36 -16 -102.87   75.10
  -9  37 -17  118.62   82.40
  -8  38 -18  224.84   84.59
  -7  39 -19  341.50   94.35
  -6  40 -20   62.85   76.79
  -5  41 -21  369.55  100.99
  -2  16 -44   35.34   70.41
  -3  15 -43   44.14   52.86
  -4  14 -42  -75.98   66.84
  -5  13 -41  231.37   74.33
  -6  12 -40  -47.13   58.08
  11  39   7  708.09   66.69
  -7  11 -39  597.92   84.32
  10  38   8 1474.77   83.36
  -8  10 -38 1681.74  123.46
   9  37   9  646.71   57.70
  -9   9 -37  707.25   83.67
   8  36  10  -21.24   30.54
 -10   8 -36  -83.55   54.01
 -11   7 -35   60.50   48.67
   7  35  11  109.83   32.27
 -12   6 -34   39.49   48.36
 -13   5 -33  240.05   57.54
 -14   4 -32   -0.31   44.14
 -15   3 -31  885.49   75.87
  -3 -31 -15  819.99   53.20
 -16   2 -30 2051.87  103.91
  -2 -30 -16 1664.19   70.07
 -17   1 -29  878.46   70.49
  -1 -29 -17  722.00   53.40
 -18   0 -28   -0.96   35.23
   0 -28 -18  -31.00   25.85
 -19  -1 -27  188.08   43.75
   1 -27 -19  144.75   36.42
 -20  -2 -26  -12.95   28.35
   2 -26 -20   -8.30   29.16
   3 -25 -21  142.67   35.03
 -21  -3 -25  142.33   34.42
 -22  -4 -24   -1.61   25.78
   4 -24 -22   -6.61   29.35
 -23  23  -5  832.21   81.40
   5 -23 -23  767.71   62.69
  24   6  22 2648.87   83.21
 -22  24  -6 2929.67  139.64
 -21  25  -7 1440.85  105.72
  25   7  21 1189.35   58.93
 -20  26  -8   54.32   60.31
  26   8  20   25.55   24.74
  27   9  19  103.83   28.54
 -19  27  -9  207.48   65.61
 -18  28 -10  169.68   74.75
 -17  29 -11  195.53   66.80
 -16  30 -12   29.23   61.96
 -15  31 -13  967.54  102.37
 -14  32 -14 2465.90  150.51
 -13  33 -15 1055.47  112.67
 -12  34 -16  103.33   67.15
 -11  35 -17  166.14   78.33
 -10  36 -18   32.96   74.75
  -9  37 -19  106.29   78.56
  -8  38 -20   99.95   71.34
  -7  39 -21  636.68  104.56
  -6  40 -22 1547.49  148.09
  -5  41 -23  763.72  119.24
  -1  15 -45  427.78   88.43
  -2  14 -44  292.22   82.67
  -3  13 -43  -94.69   64.61
  -4  12 -42  -61.89   68.38
  11  41   5  433.62   61.81
  -5  11 -41  384.84   73.79
  10  40   6 1740.02   96.96
  -6  10 -40 1637.38  121.31
   9  39   7 1247.24   83.94
  -7   9 -39 1166.49  104.30
   8  38   8  -35.46   37.19
  -8   8 -38   62.65   48.86
  -9   7 -37  662.99   79.06
   7  37   9  777.78   63.35
   6  36  10  543.22   51.32
 -10   6 -36  562.66   75.98
   5  35  11   14.14   26.39
 -11   5 -35   47.33   48.98
 -12   4 -34   69.65   50.36
 -13   3 -33  636.72   72.60
 -14   2 -32 2210.10  108.37
  -2 -32 -14 2074.53   86.85
 -15   1 -31 1356.41   85.24
  -1 -31 -15 1195.03   66.42
   0 -30 -16   16.63   32.88
 -16   0 -30  -24.09   39.61
   1 -29 -17  784.73   59.77
 -17  -1 -29  762.37   61.77
   2 -28 -18  504.19   53.17
 -18  -2 -28  749.04   59.24
 -19  -3 -27   28.47   31.12
   3 -27 -19   22.01   32.69
   4 -26 -20  -40.76   34.42
 -20  -4 -26   10.18   28.66
   5 -25 -21  692.00   59.62
 -21  -5 -25  809.47   50.05
 -24  22  -6 3064.28  136.49
 -23  23  -7 1825.76  116.01
 -22  24  -8   20.21   46.25
  25   9  21 1300.29   53.40
 -21  25  -9 1354.22  107.83
 -20  26 -10  844.58   85.01
  26  10  20  808.39   45.71
 -19  27 -11  -24.16   59.20
 -18  28 -12   75.91   66.15
 -17  29 -13  676.52   92.43
 -16  30 -14 2263.72  144.82
 -15  31 -15 2090.86  142.63
 -14  32 -16   23.78   63.92
 -13  33 -17 1093.16  119.08
 -12  34 -18  944.49  111.48
 -11  35 -19  -11.26   75.79
 -10  36 -20  109.56   74.02
  -9  37 -21  346.65   84.67
  -8  38 -22 1471.66  137.95
  -7  39 -23  997.43  127.96
  -6  40 -24  141.98   93.15
  -1  13 -45  206.44   71.57
  -2  12 -44  -29.04   64.54
  -3  11 -43  -37.92   59.27
  10  42   4  614.02   69.65
  -4  10 -42  749.93   91.70
   9  41   5  713.59   72.68
  -5   9 -41  652.58   84.90
   8  40   6    9.45   40.72
  -6   8 -40  -35.96   49.59
   7  39   7  998.35   75.33
  -7   7 -39 1027.09   92.77
   6  38   8 1654.70   89.66
  -8   6 -38 1705.83  113.02
   5  37   9  367.47   51.01
  -9   5 -37  400.51   70.87
 -10   4 -36  112.63   49.63
   4  36  10   75.68   36.95
 -11   3 -35  120.24   54.82
 -12   2 -34  787.15   74.26
 -13   1 -33  845.31   77.98
 -14   0 -32  -42.14   40.45
 -15  -1 -31 1357.68   81.05
   1 -31 -15 1222.12   72.72
   2 -30 -16 1840.63   87.74
 -16  -2 -30 2130.69   93.54
   3 -29 -17  406.73   49.67
 -17  -3 -29  517.17   52.78
 -18  -4 -28  -25.97   30.81
   4 -28 -18   36.46   36.34
 -19  -5 -27  -16.90   29.00
 -20  -6 -26 1134.15   55.05
 -25  21  -7 1293.91   92.12
 -24  22  -8   48.52   52.67
 -23  23  -9 1571.69  111.82
 -22  24 -10 2695.85  141.83
 -21  25 -11  755.38   92.96
 -20  26 -12   37.99   48.44
 -19  27 -13   92.85   64.73
 -18  28 -14  542.64   86.24
 -17  29 -15  855.18  102.60
 -16  30 -16   28.96   67.80
 -15  31 -17 1474.92  117.66
 -14  32 -18 2436.09  158.42
 -13  33 -19  656.00   96.54
 -12  34 -20  -14.02   74.14
 -11  35 -21 -248.35   89.01
 -10  36 -22  403.31   90.24
  -9  37 -23  888.95  119.12
  -8  38 -24  -54.39   84.09
  -7  39 -25  942.34  127.07
  -1  11 -45   92.23   64.84
  10  44   2   59.08   52.97
  -2  10 -44   21.63   55.43
   9  43   3  141.37   55.09
  -3   9 -43  159.38   72.45
   8  42   4  -36.22   42.60
  -4   8 -42   23.01   54.86
   7  41   5  746.78   73.06
  -5   7 -41  673.56   83.67
   6  40   6 1491.48   94.38
  -6   6 -40 1577.56  109.79
   5  39   7  823.68   74.56
  -7   5 -39  838.55   86.09
   4  38   8  -13.37   39.64
  -8   4 -38  -48.71   50.67
   3  37   9   -8.84   36.11
  -9   3 -37   48.13   45.98
 -10   2 -36  129.11   53.86
   2  36  10  111.48   38.41
 -11   1 -35  171.94   49.06
 -12   0 -34   44.45   42.14
 -13  -1 -33  935.20   71.72
 -14  -2 -32 2056.32   96.23
 -15  -3 -31  907.16   66.42
 -16  -4 -30  -35.84   30.96
 -17  -5 -29  190.65   38.41
 -18  -6 -28  -30.04   26.47
 -19  -7 -27  186.66   29.04
 -26  20  -8   -8.14   49.48
 -25  21  -9 1410.12  100.91
 -24  22 -10 2585.40  131.42
 -23  23 -11 1431.82  107.94
 -22  24 -12   -2.80   55.20
 -21  25 -13  393.21   80.59
 -20  26 -14   17.02   53.90
 -19  27 -15   89.62   50.98
 -18  28 -16  -67.53   56.16
 -17  29 -17  765.45   92.73
 -16  30 -18 2088.36  143.06
 -15  31 -19  893.40  104.76
 -14  32 -20  -23.93   68.68
 -13  33 -21  116.40   67.65
 -12  34 -22 -106.52   78.90
 -11  35 -23  178.28   87.09
 -10  36 -24 -152.62   97.11
  -9  37 -25  629.15  117.74
  -8  38 -26 1203.02  141.29
   0  10 -46  185.39   76.75
   9  45   1  -22.55   53.66
  -1   9 -45   42.29   68.26
   8  44   2   10.49   51.36
  -2   8 -44   59.62   66.53
   7  43   3  103.83   51.32
  -3   7 -43  176.05   69.38
   6  42   4  795.72   81.02
  -4   6 -42  635.57   81.40
   5  41   5  510.87   68.38
  -5   5 -41  401.85   67.49
   4  40   6   66.92   46.10
  -6   4 -40  -55.01   47.60
  -7   3 -39  394.09   67.07
   3  39   7  418.87   59.24
   2  38   8  245.81   48.90
  -8   2 -38  232.29   52.51
   1  37   9  -32.96   40.49
  -9   1 -37   85.43   48.56
 -10   0 -36    5.38   41.10
   0  36  10  -62.15   36.26
 -11  -1 -35  135.37   40.41
 -12  -2 -34  765.29   67.46
 -13  -3 -33  606.37   61.92
 -14  -4 -32   69.76   38.18
 -15  -5 -31  618.97   52.47
 -16  -6 -30  487.17   45.60
 -17  -7 -29   30.92   25.35
 -18  -8 -28    4.19   21.63
 -19  -9 -27  129.53   20.86
 -26  20 -10  890.64   89.08
 -25  21 -11  757.92   89.20
 -24  22 -12    6.76   50.82
 -23  23 -13  214.70   70.53
 -22  24 -14  495.81   75.83
 -21  25 -15   55.39   63.65
 -20  26 -16  -75.02   62.69
 -19  27 -17   74.29   64.96
 -18  28 -18  661.23   93.88
 -17  29 -19  560.62   91.89
 -16  30 -20  -65.11   58.62
 -15  31 -21  124.54   77.44
 -14  32 -22  244.51   72.64
 -13  33 -23  -58.43   71.14
 -12  34 -24    8.60   78.52
 -11  35 -25  184.47   97.38
 -10  36 -26  595.77  113.55
  -9  37 -27  247.47   85.97
   8  46   0  -81.55   54.59
   0   8 -46   38.03   58.35
   7  45   1   19.78   52.55
  -1   7 -45  -99.42   64.46
   6  44   2   34.11   54.93
  -2   6 -44    4.72   53.40
   5  43   3   93.69   53.09
  -3   5 -43  125.35   60.58
  -4   4 -42  -61.46   54.63
   4  42   4   90.43   53.09
   3  41   5  152.51   51.71
  -5   3 -41  226.30   60.04
  -6   2 -40  340.97   65.50
   2  40   6  431.93   62.08
   1  39   7  117.93   44.64
  -7   1 -39  219.27   56.39
   0  38   8   24.39   39.14
  -8   0 -38   24.89   44.02
  -1  37   9  -26.81   38.22
  -9  -1 -37   42.95   42.72
 -10  -2 -36  110.17   43.83
 -11  -3 -35   81.59   39.22
 -12  -4 -34   63.00   38.95
 -13  -5 -33  241.40   45.14
 -14  -6 -32  662.42   54.13
 -15  -7 -31  385.87   42.14
 -16  -8 -30   48.52   25.85
 -17  -9 -29   26.62   21.01
 -18 -10 -28   12.79   13.68
 -27  19 -11  -26.28   40.60
 -26  20 -12  -31.08   49.98
 -25  21 -13  318.88   73.60
 -24  22 -14  363.52   69.99
 -23  23 -15  372.24   79.98
 -22  24 -16  -10.99   59.85
 -21  25 -17  119.78   58.54
 -20  26 -18   -8.41   53.86
 -19  27 -19    8.95   58.27
 -18  28 -20  -50.86   61.19
 -17  29 -21  205.29   80.29
 -16  30 -22  175.02   72.14
 -15  31 -23   21.28   75.45
 -14  32 -24   56.66   66.88
 -13  33 -25   68.65   69.15
 -12  34 -26  -39.53   76.94
 -11  35 -27   84.74   76.98
 -10  36 -28   52.94   63.54
   6  46   0   37.30   54.16
   0   6 -46   70.72   57.70
   5  45   1  134.18   64.46
  -1   5 -45  257.91   74.22
  -2   4 -44   61.81   55.01
   4  44   2   70.03   52.40
  -3   3 -43    4.57   51.36
   3  43   3   50.13   54.32
   2  42   4   12.48   46.90
  -4   2 -42  -45.87   51.13
   1  41   5   -8.87   46.37
  -5   1 -41   40.07   49.36
  -6   0 -40  -34.42   48.48
   0  40   6  -49.29   46.67
  -1  39   7  105.41   45.14
  -7  -1 -39  222.11   53.82
  -2  38   8  240.44   47.86
  -8  -2 -38  310.70   53.47
  -3  37   9    5.15   34.73
  -9  -3 -37    9.07   37.26
 -10  -4 -36   57.58   42.56
 -11  -5 -35   83.67   40.64
 -12  -6 -34   24.01   33.80
 -13  -7 -33   18.90   28.27
 -14  -8 -32   -3.57   27.04
 -15  -9 -31  127.84   27.43
 -16 -10 -30  524.16   34.61
 -17 -11 -29  218.62   20.01
 -28  18 -12  -69.49   49.75
 -27  19 -13  -37.76   44.68
 -26  20 -14  157.23   63.27
 -25  21 -15   45.75   62.73
 -24  22 -16  142.25   64.92
 -23  23 -17   74.22   59.85
 -22  24 -18  163.61   70.68
 -21  25 -19   83.59   71.72
 -20  26 -20  199.03   80.36
 -19  27 -21  -51.44   73.60
 -18  28 -22  -31.27   60.69
 -17  29 -23   -1.31   71.91
 -16  30 -24   37.65   70.30
 -15  31 -25   24.47   79.59
 -14  32 -26  -46.06   78.40
 -13  33 -27   57.20   77.79
 -12  34 -28  -78.52   73.29
 -11  35 -29 -209.51   99.34
   5  47  -1  208.21   69.22
   1   5 -47  200.52   68.84
   4  46   0  -66.34   60.73
   0   4 -46   86.24   56.43
  -1   3 -45  207.05   61.92
   3  45   1  317.23   71.41
   2  44   2  421.87   75.25
  -2   2 -44  350.76   66.69
   1  43   3  115.36   52.78
  -3   1 -43  164.72   59.58
   0  42   4 -115.47   51.44
  -4   0 -42    4.00   47.60
  -1  41   5   51.78   51.17
  -5  -1 -41   48.98   48.25
  -2  40   6  423.10   64.73
  -6  -2 -40  454.33   66.50
  -7  -3 -39  368.93   59.16
  -3  39   7  456.59   63.84
  -4  38   8   54.47   42.03
  -8  -4 -38  -35.65   44.56
  -9  -5 -37  338.24   51.59
 -10  -6 -36  467.46   56.28
 -11  -7 -35  176.28   39.26
 -12  -8 -34   -0.38   33.19
 -13  -9 -33   44.60   28.16
 -14 -10 -32  233.64   30.69
 -15 -11 -31  479.64   32.84
 -16 -12 -30  -11.14   10.10
 -29  17 -13  733.72   80.21
 -28  18 -14  747.89   79.71
 -27  19 -15   55.74   47.52
 -26  20 -16   -1.46   59.85
 -25  21 -17  134.49   56.39
 -24  22 -18  153.00   68.34
 -23  23 -19  238.25   75.48
 -22  24 -20    6.30   56.05
 -21  25 -21  527.20   84.63
 -20  26 -22  639.95   94.81
 -19  27 -23  158.34   71.03
 -18  28 -24  -14.94   65.07
 -17  29 -25   56.24   73.26
 -16  30 -26   78.02   60.58
 -15  31 -27  158.04   84.51
 -14  32 -28  -80.44   87.09
 -13  33 -29  208.55   99.45
 -12  34 -30  360.33  105.52
   3  47  -1  617.28   96.11
   1   3 -47  556.62   81.71
   2  46   0  992.78  100.84
   0   2 -46 1021.09   93.69
   1  45   1  551.82   81.05
  -1   1 -45  560.43   74.60
   0  44   2  -52.55   53.97
  -2   0 -44   64.23   45.29
  -1  43   3  118.93   51.86
  -3  -1 -43  192.46   54.36
  -2  42   4   37.57   52.59
  -4  -2 -42   23.09   44.10
  -3  41   5  239.09   59.66
  -5  -3 -41  222.57   55.05
  -6  -4 -40  -30.89   44.02
  -4  40   6  -69.26   49.44
  -5  39   7  765.14   75.02
  -7  -5 -39  683.24   65.30
  -8  -6 -38 1837.67   92.89
  -9  -7 -37  631.23   59.47
 -10  -8 -36  -10.53   33.31
 -11  -9 -35  238.55   40.34
 -12 -10 -34   44.25   26.43
 -13 -11 -33   92.89   25.28
 -14 -12 -32  -24.35   17.90
 -29  17 -15 1025.01   87.85
 -28  18 -16  -70.26   52.21
 -27  19 -17   49.86   60.81
 -26  20 -18  -11.60   56.32
 -25  21 -19  199.56   70.99
 -24  22 -20   33.11   53.32
 -23  23 -21  422.40   75.87
 -22  24 -22 1395.83  116.13
 -21  25 -23  755.42   96.07
 -20  26 -24   28.89   63.08
 -19  27 -25  263.18   87.28
 -18  28 -26   54.51   64.08
 -17  29 -27   34.30   78.56
 -16  30 -28   80.29   82.86
 -15  31 -29  590.35  101.68
 -14  32 -30 1180.86  130.76
 -13  33 -31  405.00   93.46
   1  47  -1  714.89   92.54
   0  46   0  107.18   63.65
  -1  -1 -45  607.22   78.63
  -1  45   1  564.23   81.71
  -2  44   2  358.33   70.34
  -2  -2 -44  324.99   60.58
  -3  43   3  -53.13   59.24
  -3  -3 -43   66.19   48.63
  -4  42   4  -25.43   51.01
  -4  -4 -42   26.01   41.68
  -5  41   5  445.72   68.65
  -5  -5 -41  390.41   59.43
  -6  40   6 1621.32  105.52
  -6  -6 -40 1700.38   94.73
  -7  -7 -39 1020.90   76.98
  -7  39   7 1067.08   85.89
  -8  -8 -38  -71.87   36.42
  -9  -9 -37  587.70   53.90
 -10 -10 -36  597.23   52.63
 -11 -11 -35    0.69   29.08
 -12 -12 -34    5.15   21.55
 -30  16 -16    7.11   48.44
 -29  17 -17  790.91   83.24
 -28  18 -18  588.05   82.36
 -27  19 -19    9.53   57.97
 -26  20 -20  174.75   70.18
 -25  21 -21  380.57   68.45
 -24  22 -22 1430.01  119.08
 -23  23 -23 1044.41  110.06
 -22  24 -24   18.05   67.38
 -21  25 -25  905.27  104.37
 -20  26 -26 1030.08  113.25
 -19  27 -27  177.78   81.86
 -18  28 -28   30.46   68.76
 -17  29 -29  393.98   97.80
 -16  30 -30 1455.14  143.79
 -15  31 -31  780.31  122.73
 -14  32 -32   47.44   94.46
 -16  30 -32  -19.63   74.29
 -17  29 -31  671.37  112.78
 -18  28 -30  455.25  101.99
 -19  27 -29  -34.77   63.73
 -20  26 -28 -100.95   76.94
 -21  25 -27  400.32   76.48
 -22  24 -26 1881.61  142.02
 -23  23 -25  966.89  112.78
 -24  22 -24   79.33   73.72
 -25  21 -23  583.59   89.89
 -26  20 -22  826.02   93.00
 -27  19 -21   41.95   63.81
 -28  18 -20   -3.07   60.16
 -29  17 -19  648.01   83.05
 -30  16 -18 2658.28  136.56
 -31  15 -17 1823.69  109.40
 -10 -12 -36  -11.87   27.50
  -9 -11 -37  332.82   41.03
  -8 -10 -38 1563.27   78.33
  -7  -9 -39 1180.40   77.17
  -8  40   6   36.69   45.79
  -6  -8 -40   18.71   40.49
  -5  -7 -41  685.04   67.57
  -7  41   5  862.02   90.35
  -6  42   4  662.88   75.52
  -4  -6 -42  791.38   73.53
  -5  43   3   98.84   59.73
  -3  -5 -43   74.22   42.79
  -4  44   2   21.47   58.01
  -3  45   1  187.19   68.26
  -2  46   0 1211.59  109.75
  -1  47  -1  862.56  103.22
 -14  30 -34  213.93  103.83
 -15  29 -33  517.40  101.49
 -16  28 -32  734.18  113.67
 -17  27 -31  482.06  100.15
 -18  26 -30  -48.17   64.34
 -19  25 -29 -111.94   71.68
 -20  24 -28  508.84   86.39
 -21  23 -27  625.16   98.69
 -22  22 -26  136.37   74.79
 -23  21 -25  605.37   92.00
 -24  20 -24 1310.35  113.67
 -25  19 -23  436.81   75.71
 -26  18 -22   -4.61   61.54
 -27  17 -21  -55.93   62.54
 -28  16 -20  387.14   76.71
 -29  15 -19  477.41   70.45
 -30  14 -18   11.91   43.18
 -10 -14 -34   -2.57   21.40
  -9 -13 -35   23.43   24.93
  -8 -12 -36  328.37   41.30
  -7 -11 -37  482.45   50.02
  -6 -10 -38   41.95   33.92
  -9  39   5  683.74   77.21
  -5  -9 -39  727.57   61.50
  -8  40   4 1281.66   99.80
  -7  41   3  476.11   76.29
  -6  42   2  -23.74   52.70
  -5  43   1  116.17   68.38
  -4  44   0  178.82   72.60
  -3  45  -1  407.65   74.29
  -2  46  -2  -68.61   67.26
  -1  47  -3  730.68   92.16
 -13  29 -35  231.60   99.72
 -14  28 -34  410.77  103.41
 -15  27 -33  266.56   92.85
 -16  26 -32  131.53   84.13
 -17  25 -31  289.11   83.94
 -18  24 -30   55.05   69.26
 -19  23 -29 -101.45   66.11
 -20  22 -28 -105.29   80.13
 -21  21 -27  105.60   67.23
 -22  20 -26  777.66   98.96
 -23  19 -25  425.63   84.51
 -24  18 -24   10.18   61.04
 -25  17 -23  159.80   59.85
 -26  16 -22  186.08   66.57
 -27  15 -21  -87.66   64.61
 -28  14 -20   26.43   49.71
 -29  13 -19  279.35   60.69
 -30  12 -18  946.26   81.55
  -9 -15 -33  263.25   28.96
  -8 -14 -34  117.59   28.77
  -7 -13 -35  -14.64   28.00
  -6 -12 -36   -3.19   27.04
 -11  37   5  126.23   47.86
 -10  38   4  497.43   71.49
  -9  39   3  368.47   70.99
  -8  40   2   69.45   54.89
  -7  41   1   37.88   53.24
  -6  42   0  246.51   67.11
  -5  43  -1  -28.35   65.38
  -4  44  -2  113.78   68.92
  -3  45  -3   83.47   62.27
  -2  46  -4  474.61   83.40
  -1  47  -5  168.60   73.95
 -12  28 -36  -80.59   86.28
 -13  27 -35 -163.57   94.38
 -14  26 -34   38.18   77.02
 -15  25 -33   48.67   75.98
 -16  24 -32  262.52   79.98
 -17  23 -31  102.07   68.88
 -18  22 -30  -56.05   67.26
 -19  21 -29  -22.01   73.18
 -20  20 -28   31.96   59.89
 -21  19 -27   10.53   57.16
 -22  18 -26   69.76   63.23
 -23  17 -25  155.00   65.00
 -24  16 -24  388.37   65.92
 -25  15 -23  123.27   62.35
 -26  14 -22   13.64   54.36
 -27  13 -21   46.71   50.78
 -28  12 -20  -59.08   50.78
 -29  11 -19    6.03   47.60
  -9 -17 -31  241.17   19.94
  -8 -16 -32  559.43   34.50
  -7 -15 -33  217.31   29.77
 -12  36   4   28.47   42.26
 -11  37   3   35.76   53.28
 -10  38   2   77.06   58.04
  -9  39   1   32.19   55.05
  -8  40   0  374.89   71.64
  -7  41  -1  217.81   71.03
  -6  42  -2   25.62   65.38
  -5  43  -3   12.64   59.58
  -4  44  -4  -73.68   63.23
  -3  45  -5   80.13   68.03
  -2  46  -6   11.52   67.19
 -11  27 -37  168.83   92.89
 -12  26 -36  -51.55   84.67
 -13  25 -35  106.29   85.20
 -14  24 -34   91.93   82.28
 -15  23 -33  100.84   67.61
 -16  22 -32  -54.59   65.88
 -17  21 -31  723.57  102.37
 -18  20 -30  842.74  101.91
 -19  19 -29  472.34   77.37
 -20  18 -28  -16.10   51.28
 -21  17 -27  -44.52   51.24
 -22  16 -26  173.56   63.11
 -23  15 -25  128.00   60.08
 -24  14 -24   34.69   55.09
 -25  13 -23  577.02   79.52
 -26  12 -22 1064.23   95.61
 -27  11 -21  348.30   65.50
 -28  10 -20   28.58   45.94
 -29   9 -19  -25.08   40.53
  -8 -18 -30  150.74   16.63
  -7 -17 -31  295.33   26.66
 -14  34   4 1123.58   88.85
 -13  35   3  255.30   58.54
 -12  36   2   15.02   46.64
 -11  37   1  139.10   62.00
 -10  38   0  -19.67   58.08
  -9  39  -1   82.36   59.66
  -8  40  -2    4.46   60.54
  -7  41  -3  407.50   80.06
  -6  42  -4  647.01   86.51
  -5  43  -5  452.52   86.39
  -4  44  -6  -18.02   56.81
  -3  45  -7   36.72   67.53
  -2  46  -8  -35.23   71.95
 -10  26 -38 -216.04   92.16
 -11  25 -37  431.28  118.85
 -12  24 -36  -21.36   82.55
 -13  23 -35 -138.37   85.78
 -14  22 -34   66.61   85.86
 -15  21 -33  558.55   89.24
 -16  20 -32 1764.10  137.79
 -17  19 -31  993.82  103.57
 -18  18 -30   11.91   60.08
 -19  17 -29  587.32   82.28
 -20  16 -28  376.65   71.80
 -21  15 -27  -42.76   53.90
 -22  14 -26  -27.97   59.47
 -23  13 -25  446.91   71.91
 -24  12 -24 1695.80  109.02
 -25  11 -23 1075.37   88.85
 -26  10 -22   86.66   51.82
 -27   9 -21  702.56   69.15
 -28   8 -20  484.67   62.46
  -7 -19 -29    3.03   10.37
 -15  33   3 1048.48   87.82
 -14  34   2   -3.57   53.59
 -13  35   1  521.82   73.79
 -12  36   0  444.38   71.18
 -11  37  -1  156.39   61.54
 -10  38  -2  117.70   69.15
  -9  39  -3  299.75   71.64
  -8  40  -4 1272.52  107.83
  -7  41  -5  640.37   97.96
  -6  42  -6  155.31   73.99
  -5  43  -7  287.88   80.44
  -4  44  -8  282.12   78.67
  -3  45  -9  -16.98   65.53
  -2  46 -10  -92.73   78.06
  -9  25 -39  809.20  108.94
 -10  24 -38 1075.72  122.20
 -11  23 -37  516.02   99.80
 -12  22 -36   65.00   77.94
 -13  21 -35  -97.53   80.17
 -14  20 -34  985.14  108.41
 -15  19 -33 1075.18  114.59
 -16  18 -32  -18.71   59.81
 -17  17 -31 1764.83  129.92
 -18  16 -30 2356.26  141.25
 -19  15 -29  528.58   82.59
 -20  14 -28   41.22   55.89
 -21  13 -27  115.44   58.01
 -22  12 -26 1116.48   94.19
 -23  11 -25 1170.91   94.69
 -24  10 -24   27.16   44.21
 -25   9 -23 1788.81  107.60
 -26   8 -22 2989.22  129.80
 -27   7 -21  674.75   67.42
  -6 -20 -28   34.27   14.90
 -28   6 -20  -20.74   37.72
  -5 -19 -29   -4.00   16.02
 -16  32   2  -43.75   49.02
 -15  33   1 1407.00  101.18
 -14  34   0 2243.82  126.38
 -13  35  -1  645.82   84.01
 -12  36  -2  -55.51   59.00
 -11  37  -3  -14.71   59.89
 -10  38  -4  364.09   75.98
  -9  39  -5 1054.05  109.56
  -8  40  -6  192.76   68.45
  -7  41  -7 1152.16  111.21
  -6  42  -8 1779.09  138.22
  -5  43  -9  400.74   87.20
  -4  44 -10  -73.83   64.50
  -3  45 -11   90.43   67.07
  -8  24 -40 2079.29  167.26
  -9  23 -39  689.42  105.56
 -10  22 -38  127.73   82.36
 -11  21 -37  140.60   80.02
 -12  20 -36  -56.93   67.69
 -13  19 -35  457.82   80.13
 -14  18 -34   50.21   65.42
 -15  17 -33 1610.45  126.84
 -16  16 -32 3818.66  180.24
 -17  15 -31 1679.82  124.23
 -18  14 -30  -24.32   59.12
 -19  13 -29  232.14   64.42
 -20  12 -28   12.91   48.52
 -21  11 -27  323.45   62.85
 -22  10 -26   97.46   56.16
 -23   9 -25 2039.07  114.59
 -24   8 -24 4317.01  156.35
 -25   7 -23 2162.27  112.78
 -26   6 -22  132.18   47.75
  -6 -22 -26   10.49    9.80
  -5 -21 -27  458.48   29.46
 -27   5 -21  496.20   58.16
  -4 -20 -28   43.14   18.25
 -17  31   1 1477.38  102.34
 -16  32   0 3274.25  148.20
 -15  33  -1 1360.60  105.14
 -14  34  -2   75.95   50.71
 -13  35  -3  457.44   78.06
 -12  36  -4    3.23   58.97
 -11  37  -5  164.26   69.26
 -10  38  -6   11.75   54.24
  -9  39  -7 1387.41  120.62
  -8  40  -8 2825.49  163.72
  -7  41  -9 1301.79  120.77
  -6  42 -10    5.03   64.88
  -5  43 -11  400.74   94.15
  -4  44 -12  130.30   81.55
  -3  45 -13  116.55   87.39
  -8  22 -40  119.85   90.58
  -9  21 -39  537.15   90.47
 -10  20 -38  180.89   74.91
 -11  19 -37  -62.23   72.14
 -12  18 -36  -16.86   66.88
 -13  17 -35  693.34   95.34
 -14  16 -34 2754.97  158.11
 -15  15 -33 1508.38  120.28
 -16  14 -32   85.16   55.16
 -17  13 -31  871.24   91.16
 -18  12 -30 1018.02   95.65
 -19  11 -29  -22.82   52.24
 -20  10 -28    4.57   53.55
 -21   9 -27  794.18   80.17
 -22   8 -26 2923.68  132.11
 -23   7 -25 2243.55  113.98
 -24   6 -24  -36.57   43.75
  -6 -24 -24   16.06    7.76
 -25   5 -23 1286.73   86.20
  -5 -23 -25 1078.02   39.72
 -26   4 -22 1218.81   80.06
  -4 -22 -26 1091.43   44.87
  -3 -21 -27  147.01   25.47
 -27   3 -21   83.97   37.49
  -2 -20 -28    0.85   21.05
 -18  30   0 1993.98  113.78
 -17  31  -1 1662.42  110.75
 -16  32  -2  -47.67   44.41
 -15  33  -3 1087.01  101.64
 -14  34  -4 1021.13  101.34
 -13  35  -5  118.16   70.49
 -12  36  -6   77.37   64.84
 -11  37  -7  514.25   88.01
 -10  38  -8 1634.34  127.00
  -9  39  -9 1178.75  114.74
  -8  40 -10   -7.76   68.95
  -7  41 -11  843.08  108.67
  -6  42 -12  768.63  103.26
  -5  43 -13   78.98   71.80
  -4  44 -14   82.67   64.15
  -7  21 -41  593.12  111.63
  -8  20 -40  996.70  119.55
  -9  19 -39  411.42   89.35
 -10  18 -38  -43.91   67.11
 -11  17 -37   -1.11   61.39
 -12  16 -36  404.70   78.13
 -13  15 -35  565.38   90.35
 -14  14 -34   94.58   59.43
 -15  13 -33 1059.09   99.88
 -16  12 -32 1510.57  110.13
 -17  11 -31  579.44   77.48
 -18  10 -30   31.73   50.78
 -19   9 -29   41.99   51.86
 -20   8 -28  473.27   66.38
 -21   7 -27  708.40   70.84
 -22   6 -26  -34.69   45.52
 -23   5 -25 1297.29   86.20
  -5 -25 -23 1072.91   38.84
  -4 -24 -24 1197.03   46.64
 -24   4 -24 1303.02   84.09
 -25   3 -23  478.49   56.24
  -3 -23 -25  451.10   34.73
 -26   2 -22   29.77   33.19
  -2 -22 -26  -37.34   23.20
  -1 -21 -27    0.04   21.93
   0 -20 -28  235.44   32.42
 -19  29  -1  414.03   68.57
 -18  30  -2  -11.18   53.40
 -17  31  -3  946.92   91.85
 -16  32  -4 1984.10  129.46
 -15  33  -5  656.43   82.01
 -14  34  -6  -35.73   49.94
 -13  35  -7  -43.95   52.94
 -12  36  -8  324.79   70.07
 -11  37  -9  457.25   87.82
 -10  38 -10  -50.05   61.00
  -9  39 -11  572.37   93.92
  -8  40 -12 1155.12  117.70
  -7  41 -13  368.32   90.62
  -6  42 -14  -74.64   77.48
  -5  43 -15  140.94   87.09
  -4  44 -16  192.00   92.12
  -6  20 -42  605.41  104.76
  -7  19 -41  307.93   93.42
  -8  18 -40  120.81   64.84
  -9  17 -39    9.30   59.47
 -10  16 -38   91.23   70.87
 -11  15 -37  -47.75   61.31
 -12  14 -36   46.94   65.84
 -13  13 -35  323.76   77.29
 -14  12 -34  655.93   85.66
 -15  11 -33  207.59   61.96
 -16  10 -32  -64.73   58.24
 -17   9 -31  252.61   61.92
 -18   8 -30  215.12   59.27
 -19   7 -29    6.42   51.13
 -20   6 -28   26.39   46.02
 -21   5 -27  501.96   64.08
  -5 -27 -21  479.99   29.31
 -22   4 -26 1288.00   83.74
  -4 -26 -22 1129.73   46.06
  -3 -25 -23  436.23   34.80
 -23   3 -25  610.10   65.57
 -24   2 -24    0.04   35.57
  -2 -24 -24   -6.22   21.70
  -1 -23 -25  191.53   31.69
 -25   1 -23  169.64   40.76
   0 -22 -26  102.91   29.46
   1 -21 -27   40.18   27.62
 -20  28  -2  -95.96   53.09
 -19  29  -3  153.20   51.05
 -18  30  -4  704.06   86.16
 -17  31  -5  452.75   73.87
 -16  32  -6   -7.38   50.02
 -15  33  -7  203.33   65.50
 -14  34  -8   95.96   57.39
 -13  35  -9   18.44   54.66
 -12  36 -10   -0.77   57.81
 -11  37 -11   50.44   67.07
 -10  38 -12  621.85   89.89
  -9  39 -13  191.03   79.44
  -8  40 -14  -56.20   70.91
  -7  41 -15  123.35   70.80
  -6  42 -16   50.55   71.37
  -5  43 -17   29.66   68.42
  -5  19 -43  -14.64   63.73
  -6  18 -42   66.30   74.33
  -7  17 -41  -75.91   71.80
  -8  16 -40  305.43   73.22
  -9  15 -39   61.89   56.28
 -10  14 -38   53.90   53.17
 -11  13 -37  -82.44   68.57
 -12  12 -36 -115.97   66.23
 -13  11 -35   50.63   56.66
 -14  10 -34   38.99   48.13
 -15   9 -33  170.91   55.59
 -16   8 -32  470.35   68.88
 -17   7 -31  305.05   58.66
 -18   6 -30  -31.38   50.05
  -5 -29 -19    3.42   16.52
 -19   5 -29   15.21   44.98
 -20   4 -28   -4.15   42.72
  -4 -28 -20   27.97   18.40
  -3 -27 -21  104.49   24.89
 -21   3 -27  170.37   44.71
  -2 -26 -22    5.03   22.43
 -22   2 -26   -9.72   38.99
 -23   1 -25  110.90   40.30
  -1 -25 -23  181.85   31.15
   0 -24 -24   72.49   28.00
 -24   0 -24   50.63   32.27
 -25  -1 -23  153.43   36.11
   1 -23 -25  165.18   33.88
  26   2  22    8.14   31.77
   2 -22 -26   28.08   27.50
   3 -21 -27  156.46   33.42
  27   3  21   71.64   35.23
 -21  27  -3   74.91   57.16
 -20  28  -4  -42.60   46.21
 -19  29  -5  -55.97   61.54
 -18  30  -6    8.91   52.94
 -17  31  -7  376.00   73.64
 -16  32  -8  592.70   86.36
 -15  33  -9  288.88   77.71
 -14  34 -10  -68.61   60.50
 -13  35 -11    9.03   49.94
 -12  36 -12    5.69   66.92
 -11  37 -13 -175.94   72.33
 -10  38 -14 -196.68   87.97
  -9  39 -15   90.54   62.19
  -8  40 -16  341.66   81.36
  -7  41 -17  283.88   85.05
  -6  42 -18   59.24   69.57
  -5  43 -19   98.23   70.64
  -5  17 -43  -41.03   69.57
  -6  16 -42  153.39   79.06
  -7  15 -41  -20.82   68.53
  -8  14 -40  -14.90   55.12
  -9  13 -39  431.62   77.52
 -10  12 -38  379.15   73.41
 -11  11 -37  169.83   70.49
 -12  10 -36   30.27   51.05
 -13   9 -35   55.01   53.09
 -14   8 -34  111.40   56.24
 -15   7 -33  113.44   51.55
 -16   6 -32    9.72   48.82
 -17   5 -31  490.82   65.19
 -18   4 -30  974.57   78.63
 -19   3 -29   71.49   42.76
  -3 -29 -19  140.02   27.24
  -2 -28 -20  -49.25   26.58
 -20   2 -28   19.90   38.07
  -1 -27 -21   12.41   25.05
 -21   1 -27   -3.53   37.95
 -22   0 -26  174.63   43.79
   0 -26 -22  114.78   30.16
   1 -25 -23  144.40   31.50
 -23  -1 -25  150.12   35.11
  24   2  24   33.42   30.16
   2 -24 -24   44.41   29.89
 -24  -2 -24   -0.88   30.00
  25   3  23  402.47   46.06
   3 -23 -25  420.22   47.48
   4 -22 -26 1067.54   64.57
 -22  26  -4 1258.49   96.19
  26   4  22 1039.07   66.03
 -21  27  -5  523.90   69.45
  27   5  21  487.44   49.25
  28   6  20   52.86   36.15
 -20  28  -6  -31.88   58.93
 -19  29  -7  -44.21   52.24
 -18  30  -8  193.07   62.35
 -17  31  -9  223.38   70.76
 -16  32 -10    7.68   71.14
 -15  33 -11  322.10   74.72
 -14  34 -12  672.67   86.16
 -13  35 -13  237.25   80.02
 -12  36 -14  -52.74   70.53
 -11  37 -15   -4.61   66.15
 -10  38 -16   11.68   60.04
  -9  39 -17   73.03   72.99
  -8  40 -18  132.84   85.66
  -7  41 -19  349.26  100.65
  -6  42 -20  703.98  119.01
  -4  16 -44  133.34   78.10
  -5  15 -43  -66.07   63.92
  -6  14 -42    0.65   70.91
  -7  13 -41  311.85   78.37
  -8  12 -40 1096.08  108.29
  -9  11 -39  824.18   93.39
 -10  10 -38  -48.79   67.07
 -11   9 -37  224.65   61.12
   9  37  11  434.47   44.60
 -12   8 -36  362.06   75.02
 -13   7 -35  152.27   59.62
 -14   6 -34  -36.61   49.86
 -15   5 -33  662.92   74.98
 -16   4 -32 1976.08  106.68
 -17   3 -31 1034.69   81.78
 -18   2 -30   19.36   41.37
  -2 -30 -18   38.11   24.12
  -1 -29 -19  320.72   38.64
 -19   1 -29  454.75   55.82
   0 -28 -20  209.13   37.84
 -20   0 -28  251.38   45.37
   1 -27 -21  -22.40   31.58
 -21  -1 -27    4.72   33.19
   2 -26 -22   29.89   29.54
 -22  -2 -26  -27.50   35.34
   3 -25 -23  451.87   47.29
 -23  -3 -25  485.71   46.48
   4 -24 -24 1217.78   71.53
 -23  25  -5 1471.16  104.53
  25   5  23 1157.73   62.04
 -22  26  -6   32.84   49.71
  26   6  22  -24.43   28.70
 -21  27  -7  751.31   88.81
 -20  28  -8  348.96   72.07
 -19  29  -9  -49.98   46.33
 -18  30 -10  -53.59   58.04
 -17  31 -11  602.57   89.93
 -16  32 -12 1412.19  119.70
 -15  33 -13  969.43   98.73
 -14  34 -14   98.76   66.38
 -13  35 -15  549.59   94.92
 -12  36 -16  531.27   96.38
 -11  37 -17    8.87   63.15
 -10  38 -18  -51.67   75.14
  -9  39 -19  272.09   92.43
  -8  40 -20 1040.99  131.30
  -7  41 -21  664.34  119.20
  -4  14 -44   73.68   77.44
  -5  13 -43  165.49   74.64
  -6  12 -42  747.01   99.99
  -7  11 -41  879.34  106.48
  -8  10 -40   30.39   60.73
   9  39   9 1029.20   71.26
  -9   9 -39 1126.89  104.45
   8  38  10 1451.80   74.91
 -10   8 -38 1569.57  115.78
 -11   7 -37  458.17   72.64
   7  37  11  487.48   47.10
 -12   6 -36   41.03   51.32
 -13   5 -35   74.87   49.98
 -14   4 -34 1138.53   91.62
 -15   3 -33  980.60   82.48
 -16   2 -32   -3.84   43.72
 -17   1 -31 1565.39   92.85
  -1 -31 -17 1260.95   67.76
   0 -30 -18 1953.72   83.63
 -18   0 -30 2072.88   98.26
 -19  -1 -29  279.35   43.98
   1 -29 -19  316.23   41.91
 -20  -2 -28  -59.12   35.34
   2 -28 -20  -57.85   31.69
 -21  -3 -27  125.12   36.76
   3 -27 -21   89.89   34.34
 -22  -4 -26 1154.66   61.58
   4 -26 -22  975.26   66.57
 -24  24  -6   38.57   44.21
 -23  25  -7 2183.67  127.50
 -22  26  -8 3289.23  156.19
 -21  27  -9  827.29   95.69
 -20  28 -10  126.08   61.08
 -19  29 -11   13.10   50.51
 -18  30 -12  932.55  101.80
 -17  31 -13  971.08  102.72
 -16  32 -14  -33.00   52.32
 -15  33 -15 1651.55  132.76
 -14  34 -16 2327.95  154.58
 -13  35 -17  706.52  103.45
 -12  36 -18   42.18   65.15
 -11  37 -19   53.36   77.56
 -10  38 -20  228.72   89.31
  -9  39 -21  625.31  114.71
  -8  40 -22  158.04   88.39
  -3  13 -45   79.86   69.91
  -4  12 -44   98.88   66.07
  -5  11 -43  134.45   70.07
  -6  10 -42   14.98   59.85
  -7   9 -41 1199.76  109.71
   8  40   8 2495.55  111.06
  -8   8 -40 2537.08  142.94
   7  39   9 1107.53   73.26
  -9   7 -39 1298.29  104.83
 -10   6 -38    2.77   47.90
   6  38  10  -25.12   31.92
 -11   5 -37  189.08   58.97
   5  37  11  166.56   38.41
 -12   4 -36  -18.13   49.36
 -13   3 -35  297.21   57.54
 -14   2 -34   83.47   48.79
 -15   1 -33 1476.46   91.27
 -16   0 -32 3244.67  124.77
 -17  -1 -31 1429.28   84.74
 -18  -2 -30    3.65   34.07
 -19  -3 -29  135.53   36.61
 -20  -4 -28   -1.19   28.04
 -21  -5 -27  432.32   41.10
 -25  23  -7 2247.63  124.31
 -24  24  -8 4363.76  174.75
 -23  25  -9 2008.11  128.07
 -22  26 -10   -0.50   55.05
 -21  27 -11  260.76   74.79
 -20  28 -12  -24.47   63.65
 -19  29 -13  332.63   72.30
 -18  30 -14   88.51   57.78
 -17  31 -15 1777.20  135.60
 -16  32 -16 4020.22  191.03
 -15  33 -17 1368.24  123.73
 -14  34 -18   35.73   69.65
 -13  35 -19  419.98   82.90
 -12  36 -20   26.93   72.80
 -11  37 -21  152.20   90.97
 -10  38 -22  -15.87   79.67
  -9  39 -23 1101.26  132.26
  -8  40 -24 2124.20  170.14
  -3  11 -45   61.50   63.84
  -4  10 -44   17.17   62.58
  -5   9 -43  404.04   81.63
   8  42   6 1718.05  104.79
  -6   8 -42 1613.64  117.78
   7  41   7  955.75   77.06
  -7   7 -41 1087.55  102.57
   6  40   8   41.56   42.14
  -8   6 -40   19.48   54.36
   5  39   9  815.85   67.46
  -9   5 -39  753.15   83.44
   4  38  10  423.44   50.82
 -10   4 -38  446.84   71.53
 -11   3 -37   -4.99   50.98
 -12   2 -36   22.82   45.56
 -13   1 -35  656.73   73.91
 -14   0 -34 2132.54  105.79
 -15  -1 -33 1295.45   84.43
 -16  -2 -32   14.56   37.34
 -17  -3 -31 1040.03   68.76
 -18  -4 -30  806.55   58.24
 -19  -5 -29   34.27   28.66
 -20  -6 -28   46.67   27.43
 -21  -7 -27  734.21   42.68
 -26  22  -8 2989.29  136.72
 -25  23  -9 1914.57  122.47
 -24  24 -10  -16.29   58.58
 -23  25 -11 1020.75   98.11
 -22  26 -12  983.91  100.26
 -21  27 -13   94.38   67.84
 -20  28 -14   37.38   66.69
 -19  29 -15  553.13   90.00
 -18  30 -16 2767.26  159.80
 -17  31 -17 1839.24  136.64
 -16  32 -18   19.48   58.62
 -15  33 -19  902.43  114.28
 -14  34 -20 1062.27  119.85
 -13  35 -21   22.66   72.91
 -12  36 -22  -77.67   83.63
 -11  37 -23  307.12   97.50
 -10  38 -24 1294.07  143.25
  -9  39 -25  873.01  124.04
  -2  10 -46  -25.85   63.81
  -3   9 -45    8.34   62.15
  -4   8 -44  225.07   67.53
   7  43   5  452.33   67.15
  -5   7 -43  419.60   76.79
   6  42   6   89.58   46.56
  -6   6 -42   34.46   57.12
  -7   5 -41  667.64   81.86
   5  41   7  703.06   73.10
   4  40   8 1322.11   86.47
  -8   4 -40 1206.94   96.65
  -9   3 -39  303.01   63.84
   3  39   9  239.55   45.21
 -10   2 -38  -19.63   46.75
   2  38  10  -45.21   34.96
 -11   1 -37  -22.47   45.21
 -12   0 -36  565.38   66.07
 -13  -1 -35  577.79   65.69
 -14  -2 -34   93.96   41.60
 -15  -3 -33  945.72   69.15
 -16  -4 -32 1925.94   88.55
 -17  -5 -31  570.95   51.28
 -18  -6 -30   19.44   28.35
 -19  -7 -29   24.28   24.89
 -20  -8 -28  459.51   35.92
 -27  21  -9  920.02   87.93
 -26  22 -10   10.87   53.05
 -25  23 -11  956.94   88.20
 -24  24 -12 1843.35  121.93
 -23  25 -13  451.37   81.82
 -22  26 -14   -2.77   52.32
 -21  27 -15  -62.50   62.69
 -20  28 -16  247.27   73.87
 -19  29 -17  576.45   91.66
 -18  30 -18   -0.88   54.32
 -17  31 -19  849.73  107.79
 -16  32 -20 1600.54  133.87
 -15  33 -21  382.80   94.27
 -14  34 -22   17.94   57.81
 -13  35 -23  -15.67   70.07
 -12  36 -24  222.27   85.59
 -11  37 -25  445.34  105.56
 -10  38 -26   11.99   71.95
  -2   8 -46   43.52   63.54
   7  45   3  -11.79   47.13
  -3   7 -45  -44.87   66.69
  -4   6 -44  131.26   63.35
   6  44   4  -19.63   47.60
   5  43   5  337.16   61.50
  -5   5 -43  369.01   73.18
  -6   4 -42  780.31   87.47
   4  42   6  664.84   72.76
  -7   3 -41  399.43   63.46
   3  41   7  304.63   52.13
   2  40   8  -37.45   43.56
  -8   2 -40   43.75   49.52
   1  39   9  129.34   42.18
  -9   1 -39  125.19   51.17
 -10   0 -38   35.92   42.79
 -11  -1 -37  142.79   51.78
 -12  -2 -36  -10.56   40.60
 -13  -3 -35  325.45   52.82
 -14  -4 -34 1121.28   72.26
 -15  -5 -33  736.17   61.89
 -16  -6 -32  -40.07   29.12
 -17  -7 -31  295.14   38.30
 -18  -8 -30  205.63   30.46
 -19  -9 -29   -7.76   17.71
 -27  21 -11  285.88   65.30
 -26  22 -12 1143.40  100.07
 -25  23 -13  428.47   76.33
 -24  24 -14 -102.60   69.91
 -23  25 -15  219.12   74.95
 -22  26 -16  180.82   78.02
 -21  27 -17   74.22   68.22
 -20  28 -18   35.26   64.11
 -19  29 -19  498.50   95.04
 -18  30 -20  881.53  109.14
 -17  31 -21  535.50   92.54
 -16  32 -22  -29.85   77.98
 -15  33 -23  441.19  103.76
 -14  34 -24   25.55   64.81
 -13  35 -25  -97.76   69.18
 -12  36 -26 -162.26   83.82
 -11  37 -27  140.90   73.37
   6  46   2   -4.65   50.13
  -2   6 -46   93.88   61.81
  -3   5 -45   20.82   60.20
   5  45   3  -30.89   50.94
   4  44   4  -33.46   56.62
  -4   4 -44   31.50   53.13
   3  43   5  -25.89   51.13
  -5   3 -43  198.22   60.50
   2  42   6   63.08   48.67
  -6   2 -42   16.75   45.79
   1  41   7  111.06   46.56
  -7   1 -41  170.25   56.28
   0  40   8  403.08   62.27
  -8   0 -40  451.83   66.38
  -1  39   9   29.96   37.30
  -9  -1 -39  171.64   50.17
 -10  -2 -38   50.48   45.25
 -11  -3 -37   15.60   41.72
 -12  -4 -36  -15.25   38.45
 -13  -5 -35   55.16   33.96
 -14  -6 -34   37.84   35.23
 -15  -7 -33  176.86   35.15
 -16  -8 -32  623.12   47.60
 -17  -9 -31  187.88   27.77
 -18 -10 -30    0.65   15.37
 -28  20 -12   -2.77   41.41
 -27  21 -13  147.13   59.89
 -26  22 -14   71.76   54.74
 -25  23 -15  183.66   68.11
 -24  24 -16  455.67   78.25
 -23  25 -17  125.73   64.46
 -22  26 -18  -71.72   71.45
 -21  27 -19   40.14   66.23
 -20  28 -20  -34.77   56.85
 -19  29 -21  -23.82   69.61
 -18  30 -22   10.14   73.87
 -17  31 -23   42.06   68.03
 -16  32 -24  426.21  100.76
 -15  33 -25   -1.84   81.21
 -14  34 -26  -16.52   79.59
 -13  35 -27   38.91   82.78
 -12  36 -28  -27.74   87.05
   5  47   1  358.68   74.91
  -1   5 -47  172.60   64.27
   4  46   2  507.19   82.28
  -2   4 -46  460.93   78.25
   3  45   3   98.15   56.85
  -3   3 -45  108.44   67.57
   2  44   4  -67.46   57.58
  -4   2 -44   55.05   64.04
   1  43   5   21.86   51.32
  -5   1 -43  -81.63   55.74
   0  42   6  187.65   52.17
  -6   0 -42  137.25   57.81
  -1  41   7  160.76   48.56
  -7  -1 -41  182.05   50.25
  -2  40   8  -54.39   45.91
  -8  -2 -40  -28.16   46.17
  -9  -3 -39  265.25   56.55
 -10  -4 -38  375.88   53.90
 -11  -5 -37  132.34   43.10
 -12  -6 -36   91.54   38.61
 -13  -7 -35  -63.23   34.42
 -14  -8 -34   84.32   30.12
 -15  -9 -33  252.46   33.38
 -16 -10 -32   35.92   20.32
 -17 -11 -31  482.75   30.50
 -29  19 -13  257.03   62.96
 -28  20 -14  -19.55   50.71
 -27  21 -15 -119.58   64.73
 -26  22 -16   54.16   53.20
 -25  23 -17  201.48   72.37
 -24  24 -18   56.78   67.96
 -23  25 -19  200.52   74.91
 -22  26 -20  815.23  104.03
 -21  27 -21  203.67   76.79
 -20  28 -22   11.64   69.34
 -19  29 -23  -78.40   63.11
 -18  30 -24  -12.79   80.86
 -17  31 -25   48.71   70.41
 -16  32 -26   96.46   73.68
 -15  33 -27  397.36   98.84
 -14  34 -28  514.68  107.79
 -13  35 -29  391.67  105.68
   3  47   1  559.70   83.67
  -1   3 -47  619.24   85.59
   2  46   2  -62.38   56.39
  -2   2 -46   64.54   50.71
   1  45   3  152.01   60.12
  -3   1 -45  346.54   72.10
   0  44   4  137.18   58.01
  -4   0 -44  299.09   76.71
  -1  43   5   49.32   49.06
  -5  -1 -43   33.31   51.90
  -2  42   6  -25.74   50.25
  -6  -2 -42   16.60   44.02
  -3  41   7  355.49   58.35
  -7  -3 -41  329.90   57.51
  -8  -4 -40 1184.85   83.59
  -4  40   8 1372.20   91.39
  -9  -5 -39  719.66   68.80
 -10  -6 -38    4.92   37.49
 -11  -7 -37  514.10   54.28
 -12  -8 -36  258.53   41.06
 -13  -9 -35   64.65   31.92
 -14 -10 -34   20.59   24.59
 -15 -11 -33  278.89   30.08
 -30  18 -14  -94.00   57.54
 -29  19 -15  547.44   71.95
 -28  20 -16  302.28   70.84
 -27  21 -17  -11.45   52.86
 -26  22 -18   42.76   69.99
 -25  23 -19  285.34   71.03
 -24  24 -20 1122.28  108.02
 -23  25 -21  662.84   88.78
 -22  26 -22   44.48   59.16
 -21  27 -23  567.00   95.65
 -20  28 -24  569.19  104.26
 -19  29 -25  -11.75   64.92
 -18  30 -26  -15.02   79.21
 -17  31 -27  179.51   81.05
 -16  32 -28  994.24  125.88
 -15  33 -29  492.63   96.54
 -14  34 -30  -33.00   72.80
   1  47   1  577.71   83.44
  -1   1 -47  861.02   96.42
  -2   0 -46 1118.97   98.53
   0  46   2 1203.83  105.60
  -1  45   3  263.48   64.31
  -3  -1 -45  244.20   62.92
  -4  -2 -44  -91.62   53.55
  -2  44   4   -6.26   50.86
  -3  43   5   98.11   53.86
  -5  -3 -43  118.89   54.74
  -6  -4 -42  760.68   76.06
  -4  42   6  808.12   83.86
  -5  41   7  732.87   73.64
  -7  -5 -41  808.85   74.22
  -8  -6 -40   -7.34   36.11
  -9  -7 -39 1116.51   74.95
 -10  -8 -38 1537.61   84.40
 -11  -9 -37  354.87   46.64
 -12 -10 -36  -13.18   28.20
 -13 -11 -35   19.51   24.97
 -30  18 -16 2434.32  131.03
 -29  19 -17  431.16   79.21
 -28  20 -18  -26.70   56.01
 -27  21 -19  -21.44   73.68
 -26  22 -20  702.60   90.97
 -25  23 -21  731.95   88.85
 -24  24 -22  -24.97   66.73
 -23  25 -23  824.60  106.41
 -22  26 -24 1873.01  138.29
 -21  27 -25  493.78   91.00
 -20  28 -26  -44.29   70.49
 -19  29 -27   39.22   72.72
 -18  30 -28  285.76   76.48
 -17  31 -29  725.99  117.20
 -16  32 -30  127.84   85.20
  -1  -1 -47  661.34   79.59
  -1  47   1  766.71   95.38
  -2  46   2   28.54   52.59
  -2  -2 -46   23.82   50.17
  -3  -3 -45   74.37   47.06
  -3  45   3  119.20   61.19
  -4  44   4   -4.23   51.48
  -4  -4 -44   26.04   44.52
  -5  43   5  347.54   69.53
  -5  -5 -43  394.98   64.08
  -6  -6 -42    0.38   41.14
  -6  42   6  -44.60   49.36
  -7  -7 -41 1118.20   79.17
  -8  -8 -40 2339.36  101.88
  -9  -9 -39  994.86   69.34
 -10 -10 -38  -26.12   32.04
 -31  17 -17 2021.02  120.43
 -30  18 -18   36.65   58.39
 -29  19 -19  492.43   83.78
 -28  20 -20   34.73   61.04
 -27  21 -21  136.56   59.62
 -26  22 -22  -14.98   67.19
 -25  23 -23 1073.99  115.63
 -24  24 -24 2776.94  168.18
 -23  25 -25 1075.72  114.05
 -22  26 -26   80.59   64.23
 -21  27 -27  466.54   99.69
 -20  28 -28 -101.15   63.35
 -19  29 -29  133.22   90.12
 -18  30 -30 -164.41   93.04
 -17  31 -31 1132.30  129.11
 -18  30 -32 1562.31  144.44
 -19  29 -31  321.57   83.74
 -20  28 -30  -23.28   75.48
 -21  27 -29   27.16   74.33
 -22  26 -28  869.89  111.02
 -23  25 -27  854.30  103.03
 -24  24 -26  152.93   81.05
 -25  23 -25 1260.49  119.43
 -26  22 -24 1935.32  142.82
 -27  21 -23  662.46   94.81
 -28  20 -22 -104.76   62.23
 -29  19 -21  -19.75   58.66
 -30  18 -20  840.32   90.73
 -31  17 -19  960.21   97.00
  -7  -9 -41  983.98   71.99
  -8  42   6 1943.46  114.97
  -6  -8 -42 1631.15   97.03
  -7  43   5  411.19   70.80
  -5  -7 -43  360.90   56.43
  -4  -6 -44   55.16   45.37
  -6  44   4   15.40   56.35
  -5  45   3  -56.55   59.54
  -3  -5 -45   -8.80   44.25
  -4  46   2  477.99   81.09
  -2  -4 -46  460.20   66.00
  -1  -3 -47  439.58   72.37
  -3  47   1  684.62   93.88
 -17  29 -33  784.54  112.59
 -18  28 -32   13.41   63.69
 -19  27 -31   -9.80   76.64
 -20  26 -30  303.20   81.75
 -21  25 -29  141.10   77.79
 -22  24 -28   58.66   68.19
 -23  23 -27  870.59  114.17
 -24  22 -26 1687.20  130.84
 -25  21 -25  798.52  101.18
 -26  20 -24   13.68   61.81
 -27  19 -23  121.58   59.70
 -28  18 -22   -8.60   61.19
 -29  17 -21   56.62   52.01
 -30  16 -20  115.40   62.00
 -31  15 -19 1036.65   93.27
  -7 -11 -39  599.80   56.39
  -6 -10 -40 1750.97   91.39
  -9  41   5  775.82   80.48
  -5  -9 -41  850.84   70.11
  -8  42   4   48.33   53.05
  -4  -8 -42   63.19   40.41
  -7  43   3  157.88   58.58
  -6  44   2  -83.32   56.32
  -5  45   1  229.99   77.44
  -4  46   0  -86.55   62.23
  -3  47  -1  659.73   94.61
 -16  28 -34  -23.36   65.00
 -17  27 -33  391.98   90.62
 -18  26 -32  248.39   80.21
 -19  25 -31  -51.67   75.45
 -20  24 -30   21.05   70.99
 -21  23 -29  119.20   72.26
 -22  22 -28  825.53  108.90
 -23  21 -27  792.87  106.10
 -24  20 -26   21.24   70.22
 -25  19 -25  389.18   81.32
 -26  18 -24  588.16   84.13
 -27  17 -23  184.58   70.07
 -28  16 -22   12.48   49.67
 -29  15 -21  207.94   63.38
 -30  14 -20  679.74   83.78
 -31  13 -19  495.70   72.03
  -7 -13 -37  102.80   33.50
  -6 -12 -38  620.70   53.78
 -11  39   5  380.61   66.99
  -5 -11 -39  413.80   50.71
 -10  40   4  -31.81   52.21
  -9  41   3  192.61   60.62
  -8  42   2  387.60   69.95
  -7  43   1   67.96   63.73
  -6  44   0   12.52   60.89
  -5  45  -1  290.11   85.16
  -4  46  -2  363.21   78.13
  -3  47  -3  554.78   91.43
 -15  27 -35   -9.76   70.53
 -16  26 -34  271.63   84.20
 -17  25 -33  142.67   80.94
 -18  24 -32  124.42   84.28
 -19  23 -31   24.43   64.08
 -20  22 -30 -114.24   76.14
 -21  21 -29 -123.62   73.87
 -22  20 -28   43.83   65.57
 -23  19 -27  115.05   70.64
 -24  18 -26  509.95   85.36
 -25  17 -25  134.91   58.51
 -26  16 -24  -48.17   65.80
 -27  15 -23  -23.93   49.79
 -28  14 -22  170.56   68.57
 -29  13 -21   -0.85   53.01
 -30  12 -20   52.44   49.21
  -7 -15 -35   86.74   29.66
  -6 -14 -36    3.38   24.51
 -12  38   4   32.84   52.32
 -11  39   3   69.57   51.71
 -10  40   2  231.06   62.04
  -9  41   1  214.77   62.65
  -8  42   0   -9.33   59.20
  -7  43  -1   84.63   65.57
  -6  44  -2   51.55   67.88
  -5  45  -3   29.54   64.61
  -4  46  -4  203.63   75.25
  -3  47  -5  -49.40   76.06
 -14  26 -36  -46.33   78.60
 -15  25 -35   49.79   71.68
 -16  24 -34   99.49   84.43
 -17  23 -33  169.68   81.86
 -18  22 -32  533.54   90.77
 -19  21 -31  261.79   80.63
 -20  20 -30  -53.05   73.03
 -21  19 -29   46.17   70.61
 -22  18 -28  -85.78   70.14
 -23  17 -27   53.97   63.42
 -24  16 -26  -11.75   53.93
 -25  15 -25  176.51   66.30
 -26  14 -24  431.55   68.45
 -27  13 -23  382.26   73.99
 -28  12 -22   13.71   53.13
 -29  11 -21   98.61   51.28
 -30  10 -20   22.20   44.06
  -7 -17 -33  236.79   27.70
 -13  37   3  153.77   59.27
 -12  38   2  -76.25   60.35
 -11  39   1   -4.76   57.47
 -10  40   0  -22.13   60.50
  -9  41  -1  120.97   66.65
  -8  42  -2  472.57   85.78
  -7  43  -3  122.20   64.88
  -6  44  -4   42.52   62.88
  -5  45  -5   85.86   60.16
  -4  46  -6 -164.84   78.83
 -13  25 -37  -58.31   93.88
 -14  24 -36   74.33   78.63
 -15  23 -35  -91.85   81.71
 -16  22 -34  596.81   99.53
 -17  21 -33  530.08   88.78
 -18  20 -32   31.19   68.03
 -19  19 -31  736.33   99.65
 -20  18 -30  838.01  100.72
 -21  17 -29   17.98   55.62
 -22  16 -28   40.14   58.77
 -23  15 -27  107.06   62.58
 -24  14 -26  465.74   72.53
 -25  13 -25  570.03   78.60
 -26  12 -24   26.08   56.35
 -27  11 -23  612.86   75.75
 -28  10 -22 1018.75   84.63
 -29   9 -21  248.35   53.70
  -7 -19 -31  104.37   17.06
 -15  35   3  598.57   72.60
 -14  36   2  656.54   77.41
 -13  37   1  194.65   61.42
 -12  38   0   51.71   61.19
 -11  39  -1   18.21   61.58
 -10  40  -2  399.59   77.60
  -9  41  -3  397.78   81.48
  -8  42  -4  -10.72   59.62
  -7  43  -5  305.62   78.13
  -6  44  -6  570.72   87.24
  -5  45  -7   39.03   66.50
  -4  46  -8  -98.38   82.71
 -12  24 -38  -72.30   86.43
 -13  23 -37  205.98   98.92
 -14  22 -36  175.21   89.89
 -15  21 -35  270.59   90.35
 -16  20 -34  -23.01   62.62
 -17  19 -33  793.14  107.10
 -18  18 -32 2663.58  153.96
 -19  17 -31 1168.22  109.25
 -20  16 -30   27.77   55.43
 -21  15 -29   43.83   52.70
 -22  14 -28  -24.66   60.23
 -23  13 -27  395.48   70.87
 -24  12 -26  119.55   62.12
 -25  11 -25 1229.61   98.65
 -26  10 -24 2361.29  125.12
 -27   9 -23 1344.66   95.73
 -28   8 -22  114.94   48.75
 -29   7 -21  130.76   43.75
 -16  34   2 2114.29  118.12
 -15  35   1 1093.77   98.26
 -14  36   0   72.72   52.74
 -13  37  -1  204.10   57.74
 -12  38  -2  121.12   58.47
 -11  39  -3   61.08   51.48
 -10  40  -4  166.18   65.30
  -9  41  -5  738.21   99.88
  -8  42  -6 1655.85  128.65
  -7  43  -7  887.14  112.17
  -6  44  -8   86.05   64.04
  -5  45  -9   68.22   66.69
  -4  46 -10 -147.66   78.29
 -11  23 -39  439.19  100.99
 -12  22 -38  243.89   82.71
 -13  21 -37  -16.79   79.25
 -14  20 -36  -93.23   75.91
 -15  19 -35  560.97   86.55
 -16  18 -34 2533.31  156.81
 -17  17 -33 1796.10  133.84
 -18  16 -32  114.32   62.81
 -19  15 -31 1303.29  111.13
 -20  14 -30  730.45   87.55
 -21  13 -29   70.14   57.89
 -22  12 -28   49.40   53.28
 -23  11 -27  528.58   77.33
 -24  10 -26 2766.34  133.53
 -25   9 -25 1648.05  107.64
 -26   8 -24   42.22   44.60
 -27   7 -23 1374.28   94.85
 -28   6 -22  918.45   75.91
 -17  33   1 1456.37  104.45
 -16  34   0   57.05   54.01
 -15  35  -1  938.66   94.38
 -14  36  -2  822.80   95.58
 -13  37  -3  -92.73   71.64
 -12  38  -4    2.57   62.42
 -11  39  -5  238.86   70.53
 -10  40  -6 1829.49  131.95
  -9  41  -7 1211.97  117.20
  -8  42  -8   21.20   65.65
  -7  43  -9  820.95  113.55
  -6  44 -10  644.02   97.27
  -5  45 -11  -19.05   61.66
 -10  22 -40 1341.12  133.37
 -11  21 -39  258.11   87.55
 -12  20 -38  -19.17   77.14
 -13  19 -37  -22.55   65.92
 -14  18 -36  595.96   89.20
 -15  17 -35 1067.34  116.24
 -16  16 -34  -54.70   60.04
 -17  15 -33 1585.94  123.58
 -18  14 -32 2475.62  143.94
 -19  13 -31  568.30   80.56
 -20  12 -30    2.61   49.25
 -21  11 -29  160.53   62.77
 -22  10 -28 1098.27   92.35
 -23   9 -27 1433.36  101.61
 -24   8 -26  114.71   53.59
 -25   7 -25 1911.77  108.41
 -26   6 -24 2821.08  123.19
 -27   5 -23  758.42   70.30
 -28   4 -22   51.48   40.80
 -18  32   0   60.73   44.98
 -17  33  -1 1630.35  114.86
 -16  34  -2 2440.85  139.37
 -15  35  -3  519.94   78.67
 -14  36  -4   -6.34   49.48
 -13  37  -5  -13.83   56.74
 -12  38  -6  574.33   88.24
 -11  39  -7  740.48  100.45
 -10  40  -8   31.62   70.38
  -9  41  -9 1328.37  126.31
  -8  42 -10 1640.45  131.11
  -7  43 -11  436.54   98.65
  -6  44 -12   17.75   75.33
  -5  45 -13  257.76   94.00
  -9  21 -41  584.48  104.87
 -10  20 -40  -87.58   74.83
 -11  19 -39   59.66   78.25
 -12  18 -38  -40.53   66.34
 -13  17 -37  259.57   75.25
 -14  16 -36  -78.67   71.57
 -15  15 -35  971.65  106.48
 -16  14 -34 2527.44  147.32
 -17  13 -33 1074.87  104.45
 -18  12 -32  -23.78   58.70
 -19  11 -31  144.25   60.62
 -20  10 -30   78.71   59.16
 -21   9 -29  281.96   59.50
 -22   8 -28    8.84   47.67
 -23   7 -27 1114.56   90.43
 -24   6 -26 2795.11  123.43
 -25   5 -25  891.79   76.44
 -26   4 -24   70.30   42.49
 -27   3 -23  156.62   37.92
 -19  31  -1 1206.75  100.91
 -18  32  -2 2331.79  132.99
 -17  33  -3 1104.34   97.19
 -16  34  -4   39.80   61.31
 -15  35  -5  227.91   72.18
 -14  36  -6   11.45   63.27
 -13  37  -7   93.42   64.50
 -12  38  -8   68.30   60.81
 -11  39  -9  598.69   94.54
 -10  40 -10 1747.55  131.95
  -9  41 -11  989.06  115.44
  -8  42 -12  -40.07   78.29
  -7  43 -13  248.77   76.21
  -6  44 -14  129.30   68.57
  -8  20 -42 -157.35   86.89
  -9  19 -41  396.01   94.27
 -10  18 -40  196.22   71.99
 -11  17 -39   70.53   67.42
 -12  16 -38  132.68   65.65
 -13  15 -37   88.97   67.38
 -14  14 -36  727.45   91.31
 -15  13 -35  543.95   85.05
 -16  12 -34  -22.51   60.27
 -17  11 -33  383.57   74.02
 -18  10 -32  586.28   82.21
 -19   9 -31   57.47   46.29
 -20   8 -30   48.67   47.48
 -21   7 -29  111.48   51.28
 -22   6 -28 1144.98   87.78
 -23   5 -27  731.45   70.99
 -24   4 -26   20.51   40.37
 -25   3 -25  342.77   53.13
 -26   2 -24  353.80   49.17
 -21  29  -1  221.80   53.17
 -20  30  -2  867.94   93.12
 -19  31  -3  671.10   80.25
 -18  32  -4  -78.71   54.24
 -17  33  -5  610.79   88.12
 -16  34  -6  596.50   89.97
 -15  35  -7   82.63   70.11
 -14  36  -8  109.17   74.06
 -13  37  -9  163.84   67.80
 -12  38 -10  414.34   84.93
 -11  39 -11  524.59   99.53
 -10  40 -12   23.32   68.92
  -9  41 -13  373.93   81.90
  -8  42 -14  469.88   97.88
  -7  43 -15   82.13   87.24
  -6  44 -16   12.29   80.25
  -8  18 -42  361.29   93.15
  -9  17 -41   42.52   71.72
 -10  16 -40   30.04   60.85
 -11  15 -39   61.19   66.84
 -12  14 -38   32.34   68.68
 -13  13 -37   74.18   62.19
 -14  12 -36   58.47   64.23
 -15  11 -35  362.94   72.10
 -16  10 -34  409.61   75.48
 -17   9 -33  251.50   64.42
 -18   8 -32  -57.05   54.09
 -19   7 -31  139.02   55.32
 -20   6 -30  -52.24   49.21
 -21   5 -29   44.41   46.44
 -22   4 -28   -7.72   43.33
 -23   3 -27  228.03   46.29
 -24   2 -26  303.70   50.75
 -25   1 -25   62.00   34.92
   0 -24 -26  -12.18   26.54
 -26   0 -24   47.71   32.38
   1 -23 -27   23.13   25.58
 -22  28  -2   -6.88   41.91
 -21  29  -3  103.14   57.28
 -20  30  -4  -15.33   44.37
 -19  31  -5  185.16   63.92
 -18  32  -6  664.72   92.31
 -17  33  -7  245.47   77.02
 -16  34  -8   15.56   60.23
 -15  35  -9  100.91   74.83
 -14  36 -10  119.66   74.29
 -13  37 -11   10.60   55.43
 -12  38 -12  -57.89   73.76
 -11  39 -13   20.47   57.97
 -10  40 -14  422.21   97.03
  -9  41 -15   35.61   74.33
  -8  42 -16 -148.43   86.47
  -7  43 -17  -40.57   74.83
  -7  17 -43  105.10   75.33
  -8  16 -42  -93.15   74.91
  -9  15 -41  282.46   77.64
 -10  14 -40  407.15   86.13
 -11  13 -39  160.15   70.68
 -12  12 -38  123.81   67.53
 -13  11 -37  -44.37   62.04
 -14  10 -36  -63.31   59.93
 -15   9 -35   77.64   58.08
 -16   8 -34   37.19   52.44
 -17   7 -33  216.31   59.20
 -18   6 -32  699.53   75.48
 -19   5 -31  403.70   64.65
 -20   4 -30   33.92   44.79
 -21   3 -29   85.59   43.83
 -22   2 -28   47.13   41.26
 -23   1 -27   61.54   38.26
   0 -26 -24   46.75   28.31
 -24   0 -26   16.52   35.26
   1 -25 -25   15.14   26.43
 -25  -1 -25   -8.64   32.69
   2 -24 -26  306.32   40.76
 -23  27  -3   97.73   48.44
 -22  28  -4  -96.19   58.47
 -21  29  -5  -23.39   44.33
 -20  30  -6   34.57   63.46
 -19  31  -7  188.77   65.42
 -18  32  -8  -24.51   59.85
 -17  33  -9  367.70   84.82
 -16  34 -10  413.30   83.36
 -15  35 -11  136.29   71.26
 -14  36 -12   85.78   71.18
 -13  37 -13  -21.05   66.73
 -12  38 -14    0.81   66.57
 -11  39 -15   58.39   81.36
 -10  40 -16 -126.31   84.59
  -9  41 -17  137.29   70.26
  -8  42 -18  292.49   77.64
  -6  16 -44   80.94   65.57
  -7  15 -43   75.45   67.23
  -8  14 -42  620.51   98.76
  -9  13 -41  430.28   84.78
 -10  12 -40  -53.63   62.96
 -11  11 -39  439.42   84.36
 -12  10 -38  517.83   74.18
 -13   9 -37  119.70   59.27
 -14   8 -36   27.66   57.66
 -15   7 -35  -13.14   52.24
 -16   6 -34  533.77   70.11
 -17   5 -33  627.35   78.10
 -18   4 -32  -41.87   50.32
 -19   3 -31  673.33   73.56
 -20   2 -30  814.88   68.95
 -21   1 -29  248.23   52.63
 -22   0 -28    1.88   34.88
 -23  -1 -27   28.27   34.50
   1 -27 -23   15.17   26.20
 -24  -2 -26  278.12   41.95
   2 -26 -24  297.44   41.60
 -23  27  -5  751.46   86.24
 -22  28  -6 1028.70   93.77
 -21  29  -7   86.13   56.93
 -20  30  -8    6.99   63.58
 -19  31  -9   84.63   72.37
 -18  32 -10  418.45   81.40
 -17  33 -11  290.49   80.63
 -16  34 -12  181.35   76.18
 -15  35 -13  737.21   99.76
 -14  36 -14  569.69   94.50
 -13  37 -15  128.15   74.64
 -12  38 -16    1.50   75.18
 -11  39 -17  -12.91   64.04
 -10  40 -18  456.75   89.31
  -9  41 -19  286.65   84.32
  -8  42 -20  -26.43   69.45
  -6  14 -44    3.42   66.92
  -7  13 -43  148.51   72.37
  -8  12 -42  154.77   80.98
  -9  11 -41  766.10   97.38
 -10  10 -40 1888.18  130.57
 -11   9 -39  696.91   85.01
 -12   8 -38  -79.06   61.04
 -13   7 -37  194.53   68.80
 -14   6 -36   40.45   55.89
 -15   5 -35  185.04   55.28
 -16   4 -34   13.25   47.98
 -17   3 -33 1091.89   85.40
 -18   2 -32 2583.10  115.82
 -19   1 -31  988.98   76.56
 -20   0 -30  -57.12   40.37
 -21  -1 -29  169.25   41.72
 -22  -2 -28  -15.06   34.73
 -23  -3 -27  252.04   38.72
 -24  26  -6 2871.63  140.10
 -23  27  -7 1095.50   99.69
 -22  28  -8   28.81   49.82
 -21  29  -9  175.78   67.11
 -20  30 -10 -118.59   70.38
 -19  31 -11  174.48   68.76
 -18  32 -12 -103.14   77.02
 -17  33 -13 1294.76  121.58
 -16  34 -14 2344.09  152.51
 -15  35 -15  969.73  110.06
 -14  36 -16  124.19   81.82
 -13  37 -17  345.61   97.50
 -12  38 -18   -8.87   55.32
 -11  39 -19  140.14   84.55
 -10  40 -20  202.44   92.04
  -9  41 -21  446.68   98.61
  -5  13 -45  147.43   83.28
  -6  12 -44  135.37   71.57
  -7  11 -43  570.65   84.78
  -8  10 -42 1994.55  139.48
  -9   9 -41 1220.54  112.94
 -10   8 -40  -16.02   58.62
 -11   7 -39  805.74   88.28
 -12   6 -38  591.62   79.10
 -13   5 -37   45.71   49.98
 -14   4 -36   34.30   48.79
 -15   3 -35  695.65   76.14
 -16   2 -34 2278.32  114.05
 -17   1 -33 1586.25   94.58
 -18   0 -32  -40.34   39.95
 -19  -1 -31 1001.35   72.45
 -20  -2 -30  803.82   62.69
 -21  -3 -29   18.17   33.19
 -22  -4 -28   42.76   32.15
 -23  -5 -27  623.35   44.79
 -25  25  -7 1846.20  112.25
 -24  26  -8  -67.07   64.61
 -23  27  -9 1356.53  109.37
 -22  28 -10  975.84   98.88
 -21  29 -11  135.18   72.68
 -20  30 -12   -0.19   65.00
 -19  31 -13  643.83   93.65
 -18  32 -14 2614.52  154.39
 -17  33 -15 1625.01  127.73
 -16  34 -16   79.79   78.06
 -15  35 -17 1140.02  118.35
 -14  36 -18  970.81  124.85
 -13  37 -19 -138.60   74.79
 -12  38 -20  -73.79   68.65
 -11  39 -21  261.26   85.16
 -10  40 -22 1284.58  136.99
  -5  11 -45  187.35   73.95
  -6  10 -44  705.52  101.30
  -7   9 -43  711.86   91.58
  -8   8 -42  -81.05   60.20
  -9   7 -41 1089.39   99.34
 -10   6 -40 1801.87  119.74
   6  40  10 1814.27   89.16
 -11   5 -39  354.56   67.23
 -12   4 -38    2.00   52.13
 -13   3 -37   18.09   46.90
 -14   2 -36  926.71   83.82
 -15   1 -35  974.80   82.94
 -16   0 -34  -42.87   42.03
 -17  -1 -33 1547.26   88.47
 -18  -2 -32 2538.92  104.18
 -19  -3 -31  711.78   59.54
 -20  -4 -30  -32.69   30.54
 -21  -5 -29   40.03   28.77
 -22  -6 -28  974.46   53.17
 -26  24  -8  -11.72   54.74
 -25  25  -9 1625.35  116.05
 -24  26 -10 2388.42  139.06
 -23  27 -11  470.15   72.83
 -22  28 -12   38.88   56.39
 -21  29 -13  169.71   68.92
 -20  30 -14  684.85   92.39
 -19  31 -15 1015.41  109.37
 -18  32 -16   61.50   70.61
 -17  33 -17 1722.31  138.45
 -16  34 -18 2563.51  162.57
 -15  35 -19  681.05  108.48
 -14  36 -20  -35.15   64.50
 -13  37 -21   -8.68   63.35
 -12  38 -22  326.33   87.24
 -11  39 -23  578.94  110.75
  -4  10 -46  123.46   57.01
  -5   9 -45  131.61   68.68
  -6   8 -44  138.87   64.84
  -7   7 -43  706.56   87.01
   6  42   8 1603.80   92.08
  -8   6 -42 1532.27  117.39
   5  41   9  799.83   69.07
  -9   5 -41  870.74   93.15
 -10   4 -40    0.92   50.51
   4  40  10  -52.44   36.53
 -11   3 -39   94.19   54.32
 -12   2 -38   11.56   50.82
 -13   1 -37  180.36   53.01
 -14   0 -36   67.42   45.52
 -15  -1 -35 1003.85   78.75
 -16  -2 -34 2401.40  105.45
 -17  -3 -33  984.25   70.22
 -18  -4 -32   -5.30   31.58
 -19  -5 -31  319.80   41.10
 -20  -6 -30   20.47   27.66
 -21  -7 -29  153.20   29.46
 -27  23  -9 1454.87  106.56
 -26  24 -10 2581.18  138.94
 -25  25 -11 1163.76  103.49
 -24  26 -12   92.35   66.53
 -23  27 -13  369.01   81.67
 -22  28 -14   59.04   58.70
 -21  29 -15  138.18   66.38
 -20  30 -16  -23.89   60.43
 -19  31 -17  865.25  108.79
 -18  32 -18 2815.43  169.29
 -17  33 -19 1226.30  122.89
 -16  34 -20   17.09   71.60
 -15  35 -21  240.86   87.55
 -14  36 -22    6.99   63.73
 -13  37 -23   77.67   65.61
 -12  38 -24  -44.60   67.23
  -4   8 -46  -54.09   57.43
  -5   7 -45  194.53   65.23
  -6   6 -44  512.83   81.13
   5  43   7  424.56   63.04
  -7   5 -43  373.31   73.95
   4  42   8   67.07   45.60
  -8   4 -42  -46.90   62.77
  -9   3 -41  349.96   66.46
   3  41   9  378.61   55.51
   2  40  10  430.51   54.16
 -10   2 -40  424.21   68.84
 -11   1 -39   66.30   51.13
 -12   0 -38   61.50   47.52
 -13  -1 -37  242.51   56.01
 -14  -2 -36  809.85   70.84
 -15  -3 -35  719.66   68.95
 -16  -4 -34  -19.90   36.76
 -17  -5 -33  603.99   55.85
 -18  -6 -32  690.11   51.44
 -19  -7 -31  174.59   32.08
 -20  -8 -30   15.83   20.78
 -28  22 -10 1208.56  101.07
 -27  23 -11  634.26   81.36
 -26  24 -12  -64.19   59.27
 -25  25 -13  442.34   68.61
 -24  26 -14  384.41   76.68
 -23  27 -15   92.62   73.95
 -22  28 -16   11.91   70.11
 -21  29 -17  153.39   75.48
 -20  30 -18  794.03   98.65
 -19  31 -19  552.98   88.24
 -18  32 -20   65.04   77.14
 -17  33 -21  518.63   94.35
 -16  34 -22  523.59  107.98
 -15  35 -23  156.65   87.70
 -14  36 -24  -57.39   76.68
 -13  37 -25   90.04   75.56
  -4   6 -46   20.17   57.28
  -5   5 -45  -60.73   61.92
   4  44   6  -70.84   50.17
  -6   4 -44    3.15   53.09
   3  43   7   34.30   45.52
  -7   3 -43   83.13   50.94
  -8   2 -42  365.97   69.88
   2  42   8  313.08   54.05
  -9   1 -41  273.43   62.04
   1  41   9  228.99   50.17
 -10   0 -40 -135.83   55.28
 -11  -1 -39    3.46   44.68
 -12  -2 -38   32.19   42.95
 -13  -3 -37   -4.92   39.53
 -14  -4 -36  -19.51   36.03
 -15  -5 -35  247.20   45.94
 -16  -6 -34  476.88   50.55
 -17  -7 -33  285.61   40.60
 -18  -8 -32  -41.26   25.32
 -19  -9 -31   16.02   19.02
 -28  22 -12 -109.17   68.65
 -27  23 -13  440.31   72.76
 -26  24 -14  444.19   81.09
 -25  25 -15  280.08   77.21
 -24  26 -16  -32.54   56.39
 -23  27 -17   42.26   50.05
 -22  28 -18   -2.07   51.67
 -21  29 -19   50.78   69.80
 -20  30 -20    2.27   74.33
 -19  31 -21  271.63   85.97
 -18  32 -22  441.15   94.85
 -17  33 -23  291.64   78.71
 -16  34 -24 -122.54   82.55
 -15  35 -25   65.27   90.66
 -14  36 -26   57.20   87.74
  -3   5 -47   72.22   63.27
   4  46   4   -3.57   51.24
  -4   4 -46   40.26   62.27
   3  45   5    8.53   50.67
  -5   3 -45  -35.26   51.82
   2  44   6  -61.08   48.06
  -6   2 -44  -12.52   50.44
   1  43   7   41.41   47.52
  -7   1 -43   46.67   48.67
   0  42   8   10.49   44.02
  -8   0 -42   17.71   49.06
  -1  41   9  219.46   50.25
  -9  -1 -41  154.43   54.43
 -10  -2 -40  317.73   59.35
 -11  -3 -39   41.26   42.06
 -12  -4 -38  -41.99   39.64
 -13  -5 -37  -11.18   35.38
 -14  -6 -36  -48.40   33.96
 -15  -7 -35    1.42   29.92
 -16  -8 -34  156.77   35.92
 -17  -9 -33  363.48   36.53
 -18 -10 -32  433.66   33.42
 -29  21 -13   72.45   54.16
 -28  22 -14  -18.05   61.73
 -27  23 -15   12.98   62.65
 -26  24 -16   87.82   58.97
 -25  25 -17  315.31   81.86
 -24  26 -18  385.53   83.51
 -23  27 -19  113.71   69.11
 -22  28 -20   52.36   66.61
 -21  29 -21  159.84   71.30
 -20  30 -22  -50.09   74.26
 -19  31 -23   63.81   76.83
 -18  32 -24  -23.28   76.98
 -17  33 -25  193.92   71.18
 -16  34 -26  410.34   90.35
 -15  35 -27  112.55   94.85
   3  47   3  392.67   70.57
  -3   3 -47  338.39   73.10
   2  46   4  360.21   69.72
  -4   2 -46  489.02   79.06
  -5   1 -45   17.52   50.48
   1  45   5   25.78   48.90
   0  44   6   54.63   44.21
  -6   0 -44   44.14   52.59
  -1  43   7   22.55   47.63
  -7  -1 -43   86.20   51.48
  -2  42   8  346.96   57.89
  -8  -2 -42  339.12   63.38
  -9  -3 -41  282.69   58.27
 -10  -4 -40  -19.86   43.56
 -11  -5 -39  311.16   52.59
 -12  -6 -38  562.46   60.93
 -13  -7 -37  170.52   41.45
 -14  -8 -36   28.47   32.50
 -15  -9 -35  105.29   30.08
 -30  20 -14  661.04   79.21
 -29  21 -15    9.22   62.27
 -28  22 -16  -27.66   49.79
 -27  23 -17  212.82   75.37
 -26  24 -18  498.96   89.74
 -25  25 -19  495.05   86.66
 -24  26 -20    3.00   67.49
 -23  27 -21  525.16   90.31
 -22  28 -22  834.67  113.48
 -21  29 -23   74.10   70.34
 -20  30 -24  -46.90   71.72
 -19  31 -25  -23.09   70.41
 -18  32 -26  375.88  102.64
 -17  33 -27  237.06   84.70
 -16  34 -28   38.84   66.65
   1  47   3  463.55   74.49
  -3   1 -47  562.35   84.01
  -4   0 -46   18.17   53.86
   0  46   4    0.31   51.82
  -1  45   5   66.69   55.55
  -5  -1 -45  167.18   59.89
  -2  44   6  -39.41   50.82
  -6  -2 -44   28.66   48.86
  -3  43   7   63.00   45.98
  -7  -3 -43   99.95   47.52
  -8  -4 -42   26.51   43.72
  -9  -5 -41  733.72   71.95
 -10  -6 -40 1595.62   92.12
 -11  -7 -39  643.29   61.04
 -12  -8 -38   18.09   34.73
 -13  -9 -37  111.29   35.03
 -31  19 -15 1061.77   94.54
 -30  20 -16  106.45   59.39
 -29  21 -17  151.43   66.34
 -28  22 -18   -6.42   66.15
 -27  23 -19  213.55   69.99
 -26  24 -20  131.92   60.46
 -25  25 -21  806.82   96.73
 -24  26 -22 1798.91  132.38
 -23  27 -23  867.67  105.26
 -22  28 -24   23.13   75.75
 -21  29 -25  183.93   70.64
 -20  30 -26  -30.08   75.83
 -19  31 -27  169.25   71.72
 -18  32 -28   20.44   77.90
 -17  33 -29  452.18  103.60
  -1  47   3  596.35   86.28
  -3  -1 -47  502.27   78.02
  -2  46   4  476.26   75.37
  -4  -2 -46  410.23   74.45
  -3  45   5   18.82   50.67
  -5  -3 -45   13.29   50.40
  -4  44   6  -26.66   48.71
  -6  -4 -44   49.55   47.79
  -7  -5 -43  443.07   62.31
  -5  43   7  494.35   66.99
  -8  -6 -42 1546.03   93.08
  -9  -7 -41 1247.89   84.67
 -10  -8 -40   48.98   41.76
 -31  19 -17 1011.95   94.65
 -30  20 -18  768.25   93.00
 -29  21 -19   26.51   67.38
 -28  22 -20  139.91   60.66
 -27  23 -21  711.05   97.27
 -26  24 -22 1761.07  135.83
 -25  25 -23 1326.87  123.16
 -24  26 -24   86.62   67.72
 -23  27 -25  782.39  101.68
 -22  28 -26  942.38  117.86
 -21  29 -27  -11.41   63.11
 -20  30 -28   17.06   78.17
 -19  31 -29  430.36  104.26
 -18  32 -30 1427.44  143.48
  -3  47   3  298.79   69.45
  -3  -3 -47  495.01   74.02
  -4  46   4  -86.13   56.97
  -4  -4 -46    6.88   48.29
  -5  45   5  -26.47   51.40
  -5  -5 -45   40.18   47.25
  -6  -6 -44  509.84   66.42
  -6  44   6  518.90   73.95
 -32  18 -18 2725.35  140.90
 -31  19 -19  772.40   92.00
 -30  20 -20   -0.27   56.51
 -29  21 -21   12.60   54.86
 -28  22 -22  797.79  101.30
 -27  23 -23  624.66  100.38
 -26  24 -24   63.27   77.17
 -25  25 -25 1231.60  126.65
 -24  26 -26 1955.79  146.40
 -23  27 -27  601.57  103.60
 -22  28 -28   11.68   75.60
 -21  29 -29   83.90   79.29
 -20  30 -30  580.71  105.52
 -21  29 -31   90.04   84.43
 -22  28 -30 -153.62   70.38
 -23  27 -29  175.32   88.97
 -24  26 -28   19.44   58.27
 -25  25 -27  827.79  109.14
 -26  24 -26 1760.72  140.87
 -27  23 -25  754.92   99.34
 -28  22 -24  210.51   79.75
 -29  21 -23  147.20   72.99
 -30  20 -22   13.68   53.32
 -31  19 -21  287.42   71.45
 -32  18 -20    4.07   54.82
  -7  45   5  130.76   56.78
  -6  46   4   23.89   57.28
  -5  47   3   70.07   58.51
 -20  28 -32  164.18   85.59
 -21  27 -31 -111.71   73.10
 -22  26 -30  251.81   90.77
 -23  25 -29  431.39   86.74
 -24  24 -28 1161.08  114.09
 -25  23 -27  782.66  102.76
 -26  22 -26   75.02   75.98
 -27  21 -25  491.09   89.74
 -28  20 -24  410.92   81.75
 -29  19 -23   -3.07   53.82
 -30  18 -22   13.41   61.35
 -31  17 -21  469.77   72.33
 -32  16 -20 1761.76  118.16
  -9  43   5  485.98   70.64
  -8  44   4  383.11   69.45
  -3  -7 -45  -26.39   45.29
  -7  45   3   70.41   53.47
  -6  46   2   72.99   64.92
  -2  -6 -46   38.95   46.64
  -1  -5 -47  133.18   51.63
  -5  47   1  151.74   71.18
 -19  27 -33  128.38   79.67
 -20  26 -32   73.10   68.80
 -21  25 -31 -133.37   83.70
 -22  24 -30  352.11   88.01
 -23  23 -29  330.36   80.63
 -24  22 -28  199.64   83.74
 -25  21 -27  392.98   84.86
 -26  20 -26 1076.99  112.82
 -27  19 -25  178.13   70.80
 -28  18 -24    1.77   52.82
 -29  17 -23  -54.78   61.23
 -30  16 -22  210.74   63.19
 -31  15 -21  414.18   70.41
 -32  14 -20  -95.08   56.70
 -10  42   4  751.54   86.24
  -4 -10 -42  625.77   61.50
  -9  43   3  137.79   57.43
  -8  44   2  -26.20   50.86
  -7  45   1  107.83   70.91
  -6  46   0   41.10   62.50
  -5  47  -1  208.40   72.07
 -17  27 -35  238.55   93.39
 -18  26 -34 -100.49   72.07
 -19  25 -33  -66.61   69.38
 -20  24 -32  122.81   82.48
 -21  23 -31   -5.22   70.53
 -22  22 -30  -16.48   70.68
 -23  21 -29  338.89   88.28
 -24  20 -28  446.95   87.70
 -25  19 -27  332.13   79.06
 -26  18 -26   -2.11   57.39
 -27  17 -25   65.11   55.97
 -28  16 -24  -28.20   61.46
 -29  15 -23  -10.79   56.93
 -30  14 -22  -39.45   44.71
 -31  13 -21   97.50   49.40
 -12  40   4  206.55   58.47
 -11  41   3  195.57   54.05
 -10  42   2  -72.18   53.63
  -9  43   1  -10.56   51.28
  -8  44   0    0.12   62.85
  -7  45  -1  -37.38   68.42
  -6  46  -2  -64.23   62.38
  -5  47  -3  163.22   79.63
 -16  26 -36   64.88   78.90
 -17  25 -35   63.58   63.19
 -18  24 -34   97.61   74.87
 -19  23 -33   23.74   72.37
 -20  22 -32  -11.95   64.34
 -21  21 -31   52.21   66.19
 -22  20 -30  -47.52   74.22
 -23  19 -29 -189.69   77.90
 -24  18 -28  -54.63   63.73
 -25  17 -27  120.20   67.61
 -26  16 -26   79.36   53.86
 -27  15 -25   -0.27   57.05
 -28  14 -24  -19.75   57.05
 -29  13 -23  116.43   59.85
 -30  12 -22   -3.53   45.14
 -31  11 -21   21.97   43.14
 -13  39   3   85.93   52.40
 -12  40   2  -12.41   46.79
 -11  41   1  -26.43   55.74
 -10  42   0  109.52   61.42
  -9  43  -1  -46.52   66.23
  -8  44  -2  -22.74   61.27
  -7  45  -3  108.71   59.85
  -6  46  -4  124.12   71.11
 -15  25 -37   -6.45   67.03
 -16  24 -36  -51.71   72.91
 -17  23 -35   27.81   81.59
 -18  22 -34   50.05   80.21
 -19  21 -33  397.59   90.12
 -20  20 -32  550.17   96.84
 -21  19 -31  257.68   78.17
 -22  18 -30   52.32   69.88
 -23  17 -29   28.35   67.38
 -24  16 -28 -119.43   63.81
 -25  15 -27   50.28   55.39
 -26  14 -26   -7.07   54.16
 -27  13 -25  169.02   61.62
 -28  12 -24  486.10   74.83
 -29  11 -23  242.09   63.69
 -30  10 -22   85.51   50.25
 -15  37   3  207.90   63.50
 -14  38   2   25.39   57.39
 -13  39   1  -16.79   54.20
 -12  40   0   46.17   59.54
 -11  41  -1  -11.18   63.38
 -10  42  -2  -89.35   68.22
  -9  43  -3  145.44   64.38
  -8  44  -4  336.39   75.75
  -7  45  -5  106.48   69.45
  -6  46  -6  -37.72   70.41
 -14  24 -38  167.18   86.24
 -15  23 -37  -75.98   75.45
 -16  22 -36   16.56   75.95
 -17  21 -35  271.63   86.66
 -18  20 -34 1017.56  112.09
 -19  19 -33  697.49   92.62
 -20  18 -32   64.04   70.38
 -21  17 -31  609.06   98.00
 -22  16 -30  216.23   71.83
 -23  15 -29  -59.43   64.04
 -24  14 -28  -57.24   55.93
 -25  13 -27  157.84   62.54
 -26  12 -26 1105.76   99.69
 -27  11 -25  632.42   77.87
 -28  10 -24  -11.72   50.55
 -29   9 -23  758.53   79.52
 -30   8 -22  481.60   63.50
 -16  36   2    5.57   42.37
 -15  37   1  430.93   73.76
 -14  38   0  359.25   73.60
 -13  39  -1   17.13   56.43
 -12  40  -2   19.94   57.74
 -11  41  -3  137.45   59.16
 -10  42  -4  672.37   96.65
  -9  43  -5  331.82   82.55
  -8  44  -6   26.54   62.15
  -7  45  -7  149.85   75.75
  -6  46  -8  329.33   88.31
 -13  23 -39  133.95   82.51
 -14  22 -38  101.11   82.55
 -15  21 -37   59.12   79.44
 -16  20 -36  450.79   93.00
 -17  19 -35  718.00  101.68
 -18  18 -34  -58.47   66.76
 -19  17 -33 1149.67  111.40
 -20  16 -32 1854.61  132.95
 -21  15 -31  422.67   82.78
 -22  14 -30   43.10   64.34
 -23  13 -29  -15.67   51.97
 -24  12 -28  575.10   79.10
 -25  11 -27  681.16   82.17
 -26  10 -26  -20.74   52.21
 -27   9 -25 1176.21   93.81
 -28   8 -24 1972.70  108.75
 -29   7 -23  555.47   65.50
 -17  35   1  925.33   89.77
 -16  36   0 1599.46  116.82
 -15  37  -1  487.59   76.64
 -14  38  -2  119.12   61.27
 -13  39  -3   31.85   57.81
 -12  40  -4  273.09   80.94
 -11  41  -5  451.22   85.32
 -10  42  -6  -63.54   58.89
  -9  43  -7 1050.40  118.66
  -8  44  -8 1320.53  125.46
  -7  45  -9  154.16   73.06
  -6  46 -10  -52.51   80.40
 -12  22 -40   53.17   78.29
 -13  21 -39   72.60   84.01
 -14  20 -38   42.91   73.76
 -15  19 -37  356.64   78.10
 -16  18 -36   52.86   69.07
 -17  17 -35  840.66  100.99
 -18  16 -34 2760.15  161.57
 -19  15 -33 1095.92  105.64
 -20  14 -32  -20.21   57.16
 -21  13 -31   91.46   60.43
 -22  12 -30  -36.03   51.78
 -23  11 -29  254.38   67.23
 -24  10 -28  -53.78   59.93
 -25   9 -27 1197.30   95.92
 -26   8 -26 2716.67  129.96
 -27   7 -25 1325.30   95.04
 -28   6 -24  -19.09   44.91
 -29   5 -23  310.70   53.82
 -18  34   0 2566.43  135.18
 -17  35  -1  971.96   98.53
 -16  36  -2   10.45   59.73
 -15  37  -3   85.36   61.42
 -14  38  -4   29.46   63.77
 -13  39  -5  149.01   69.45
 -12  40  -6   84.78   59.12
 -11  41  -7  745.24  102.26
 -10  42  -8 1801.98  135.26
  -9  43  -9  904.81  112.48
  -8  44 -10  141.25   82.25
  -7  45 -11  174.29   70.34
 -11  21 -41  418.14   93.85
 -12  20 -40  161.57   78.60
 -13  19 -39 -146.86   80.09
 -14  18 -38   46.87   59.93
 -15  17 -37  312.50   87.62
 -16  16 -36 1313.31  120.31
 -17  15 -35 1148.32  111.21
 -18  14 -34  -95.46   64.31
 -19  13 -33  720.62   91.12
 -20  12 -32  262.18   70.45
 -21  11 -31   27.47   53.20
 -22  10 -30  -81.67   51.28
 -23   9 -29  530.66   71.91
 -24   8 -28 1961.75  111.17
 -25   7 -27 1440.42   99.95
 -26   6 -26   20.47   48.13
 -27   5 -25  782.04   73.53
 -28   4 -24  773.17   69.41
 -19  33  -1 1125.96   98.65
 -18  34  -2  -37.80   62.62
 -17  35  -3  600.23   82.71
 -16  36  -4  511.30   88.85
 -15  37  -5  -44.64   63.15
 -14  38  -6 -127.07   72.68
 -13  39  -7  199.75   69.65
 -12  40  -8 1176.36  116.59
 -11  41  -9  949.91  113.63
 -10  42 -10  -60.89   61.85
  -9  43 -11  594.35  100.68
  -8  44 -12  619.05  106.56
  -7  45 -13  151.28   86.47
 -11  19 -41   79.67   73.03
 -12  18 -40   85.40   65.46
 -13  17 -39   12.68   65.46
 -14  16 -38  459.55   91.62
 -15  15 -37  494.32   88.74
 -16  14 -36    8.49   69.11
 -17  13 -35  624.66   85.89
 -18  12 -34  954.87   94.46
 -19  11 -33  165.91   59.66
 -20  10 -32  -30.62   56.81
 -21   9 -31   -3.07   49.02
 -22   8 -30  480.99   67.92
 -23   7 -29  379.30   62.54
 -24   6 -28   56.12   46.21
 -25   5 -27  592.35   66.65
 -26   4 -26  688.54   68.61
 -27   3 -25  220.58   47.67
 -21  31  -1  397.17   67.38
 -20  32  -2   84.70   62.85
 -19  33  -3  735.14   85.36
 -18  34  -4 1084.94  102.72
 -17  35  -5  177.24   59.31
 -16  36  -6   55.47   56.28
 -15  37  -7   81.67   65.65
 -14  38  -8  331.55   84.43
 -13  39  -9  375.88   88.05
 -12  40 -10   13.14   65.34
 -11  41 -11  629.50  106.79
 -10  42 -12  705.13  105.72
  -9  43 -13  322.53   78.17
  -8  44 -14  -74.91   66.92
 -10  18 -42   53.01   84.09
 -11  17 -41   52.51   69.07
 -12  16 -40   -1.11   68.07
 -13  15 -39   10.14   68.72
 -14  14 -38  -12.87   61.16
 -15  13 -37   67.26   66.26
 -16  12 -36  464.16   77.83
 -17  11 -35  139.25   56.74
 -18  10 -34    8.49   49.79
 -19   9 -33  172.25   59.31
 -20   8 -32  -33.42   50.36
 -21   7 -31  -15.60   45.10
 -22   6 -30   51.55   46.52
 -23   5 -29  201.25   51.36
 -24   4 -28  688.46   69.76
 -25   3 -27  247.27   52.24
 -26   2 -26    4.80   36.76
 -27   1 -25   47.36   34.11
 -22  30  -2  -37.65   50.75
 -21  31  -3   98.84   59.54
 -20  32  -4  473.69   74.87
 -19  33  -5  425.32   75.56
 -18  34  -6   39.76   56.28
 -17  35  -7  125.19   68.19
 -16  36  -8  -74.06   56.62
 -15  37  -9   36.49   60.58
 -14  38 -10  107.98   78.98
 -13  39 -11   35.30   61.96
 -12  40 -12  219.19   84.93
 -11  41 -13  109.56   64.27
 -10  42 -14    3.50   70.57
  -9  43 -15  -12.72   88.16
  -9  17 -43    1.19   77.06
 -10  16 -42  207.75   78.86
 -11  15 -41   47.79   68.53
 -12  14 -40  120.39   73.26
 -13  13 -39 -126.23   72.10
 -14  12 -38  -66.99   68.26
 -15  11 -37   28.54   56.97
 -16  10 -36   87.58   65.77
 -17   9 -35   69.03   55.82
 -18   8 -34  181.55   56.20
 -19   7 -33   40.22   49.36
 -20   6 -32  -18.59   50.86
 -21   5 -31   21.55   43.64
 -22   4 -30    3.88   43.41
 -23   3 -29   -9.14   40.22
 -24   2 -28  101.18   45.18
 -25   1 -27   39.11   36.49
 -26   0 -26   42.87   36.72
 -23  29  -3   48.21   54.36
 -22  30  -4   42.76   54.97
 -21  31  -5   31.81   46.02
 -20  32  -6   19.28   52.90
 -19  33  -7  144.32   72.10
 -18  34  -8  350.03   87.66
 -17  35  -9  161.61   70.53
 -16  36 -10  -15.21   52.21
 -15  37 -11    1.77   68.30
 -14  38 -12   19.44   66.73
 -13  39 -13   -9.14   67.07
 -12  40 -14 -106.95   71.14
 -11  41 -15   25.89   79.90
 -10  42 -16  161.46   86.51
  -9  43 -17  155.46   82.28
  -9  15 -43   91.08   69.68
 -10  14 -42  -11.14   73.18
 -11  13 -41   73.22   70.80
 -12  12 -40  243.16   70.26
 -13  11 -39  154.27   73.37
 -14  10 -38   15.63   54.74
 -15   9 -37  -18.78   55.28
 -16   8 -36   47.94   54.63
 -17   7 -35  110.67   51.67
 -18   6 -34   95.50   54.93
 -19   5 -33  424.82   66.19
 -20   4 -32  474.07   66.65
 -21   3 -31  245.39   54.16
 -22   2 -30   10.95   41.37
 -23   1 -29  125.62   47.25
 -24   0 -28   17.82   37.68
 -25  -1 -27   17.56   32.15
 -24  28  -4  750.19   80.52
 -23  29  -5  374.50   76.37
 -22  30  -6  -37.95   50.71
 -21  31  -7    6.42   54.66
 -20  32  -8    4.65   72.18
 -19  33  -9 -101.30   70.64
 -18  34 -10   13.56   62.85
 -17  35 -11  366.40   81.17
 -16  36 -12  504.07   90.89
 -15  37 -13  138.52   73.10
 -14  38 -14  -30.73   68.92
 -13  39 -15   45.48   80.21
 -12  40 -16    0.08   77.06
 -11  41 -17   54.93   75.45
 -10  42 -18   74.64   81.25
  -8  14 -44   65.15   64.38
  -9  13 -43  307.20   74.87
 -10  12 -42  771.28   98.15
 -11  11 -41  601.84   87.51
 -12  10 -40   29.27   64.11
 -13   9 -39  309.16   70.14
 -14   8 -38  337.78   70.03
 -15   7 -37  160.11   64.69
 -16   6 -36   72.18   51.51
 -17   5 -35  163.72   53.97
 -18   4 -34 1234.95   94.61
 -19   3 -33  657.62   70.45
 -20   2 -32   14.44   41.14
 -21   1 -31  351.84   52.28
 -22   0 -30  332.63   48.33
 -23  -1 -29  -88.43   40.87
 -24  -2 -28   20.17   31.46
 -25  -3 -27  257.84   40.03
 -25  27  -5  666.64   77.37
 -24  28  -6  232.33   72.87
 -23  29  -7  531.54   75.71
 -22  30  -8  452.02   75.98
 -21  31  -9   69.34   63.81
 -20  32 -10   31.62   63.00
 -19  33 -11  175.28   66.92
 -18  34 -12  925.13  101.41
 -17  35 -13  749.20  101.18
 -16  36 -14   32.42   74.41
 -15  37 -15  308.51   80.48
 -14  38 -16  438.08   94.96
 -13  39 -17   35.69   75.68
 -12  40 -18  -37.49   68.42
 -11  41 -19   78.29   66.92
  -7  13 -45   99.38   75.75
  -8  12 -44  549.29   93.39
  -9  11 -43  557.35   90.62
 -10  10 -42   10.76   64.77
 -11   9 -41  952.22  102.64
 -12   8 -40 1266.02  109.63
 -13   7 -39  438.23   78.75
 -14   6 -38 -105.99   59.24
 -15   5 -37   39.76   49.94
 -16   4 -36  409.23   66.30
 -17   3 -35  593.85   70.38
 -18   2 -34  -40.95   42.56
 -19   1 -33 1038.15   81.02
 -20   0 -32 1333.75   85.32
 -21  -1 -31  393.44   52.47
 -22  -2 -30   22.59   34.80
 -23  -3 -29   32.58   30.54
 -24  -4 -28  778.93   55.51
 -25  27  -7 1144.79  100.88
 -24  28  -8 2178.29  134.49
 -23  29  -9  438.08   73.33
 -22  30 -10   48.25   54.51
 -21  31 -11   28.85   55.47
 -20  32 -12  294.18   72.95
 -19  33 -13  781.12   97.84
 -18  34 -14   -8.14   69.41
 -17  35 -15 1070.42  117.51
 -16  36 -16 1494.24  132.57
 -15  37 -17  355.22   89.74
 -14  38 -18  -83.70   82.94
 -13  39 -19  -10.56   66.00
 -12  40 -20  166.68   68.45
 -11  41 -21  292.99   81.13
  -7  11 -45  198.60   76.87
  -8  10 -44  -28.85   64.77
  -9   9 -43  881.92  102.22
 -10   8 -42 2059.82  134.57
 -11   7 -41  896.25   94.96
 -12   6 -40   44.94   56.97
 -13   5 -39  275.78   68.34
 -14   4 -38   31.38   55.36
 -15   3 -37  162.42   54.39
 -16   2 -36  -77.41   46.67
 -17   1 -35  878.88   76.75
 -18   0 -34 2343.66  110.21
 -19  -1 -33 1277.47   81.13
 -20  -2 -32  -44.21   34.57
 -21  -3 -31  130.72   36.19
 -22  -4 -30  -42.95   34.04
 -23  -5 -29  315.54   38.68
 -26  26  -8 2729.84  140.37
 -25  27  -9 1256.04  111.79
 -24  28 -10   27.97   62.46
 -23  29 -11  207.98   65.69
 -22  30 -12   19.09   58.62
 -21  31 -13   93.15   62.19
 -20  32 -14  122.08   71.72
 -19  33 -15 1036.11  113.67
 -18  34 -16 2599.16  168.95
 -17  35 -17  897.48  109.14
 -16  36 -18  205.06   78.90
 -15  37 -19   34.61   83.05
 -14  38 -20   48.67   71.72
 -13  39 -21  -41.83   66.03
 -12  40 -22  205.86   80.75
  -6  10 -46  153.04   73.41
  -7   9 -45  319.22   75.60
  -8   8 -44 1410.46  121.50
  -9   7 -43  850.80   97.73
 -10   6 -42   -4.88   55.70
 -11   5 -41  462.86   79.44
 -12   4 -40  221.69   61.89
 -13   3 -39  -25.78   53.17
 -14   2 -38   18.67   52.67
 -15   1 -37  399.93   60.20
 -16   0 -36 1622.47   97.38
 -17  -1 -35 1266.02   85.55
 -18  -2 -34   -0.96   34.46
 -19  -3 -33  679.44   59.50
 -20  -4 -32  520.05   51.17
 -21  -5 -31    7.49   28.85
 -22  -6 -30  -13.41   26.24
 -27  25  -9 1273.74  107.10
 -26  26 -10   84.97   54.13
 -25  27 -11  761.76   92.73
 -24  28 -12  616.97   92.96
 -23  29 -13  -50.40   76.75
 -22  30 -14   22.55   68.72
 -21  31 -15  370.24   88.39
 -20  32 -16 1723.31  136.45
 -19  33 -17 1002.85  107.48
 -18  34 -18  -27.85   75.37
 -17  35 -19  564.42   90.35
 -16  36 -20  570.18  101.26
 -15  37 -21  -23.78   82.36
 -14  38 -22  -73.37   78.56
 -13  39 -23  222.38   82.51
  -6   8 -46  321.64   85.59
  -7   7 -45  272.47   69.18
  -8   6 -44   33.11   55.66
  -9   5 -43  447.03   77.60
 -10   4 -42  663.61   84.28
 -11   3 -41  117.36   54.09
 -12   2 -40  -80.75   54.32
 -13   1 -39   75.91   50.55
 -14   0 -38  403.20   64.27
 -15  -1 -37  394.44   59.08
 -16  -2 -36   14.60   40.03
 -17  -3 -35  652.43   62.46
 -18  -4 -34 1193.11   73.22
 -19  -5 -33  282.50   40.49
 -20  -6 -32    0.73   29.08
 -21  -7 -31    9.53   23.55
 -28  24 -10   87.12   50.67
 -27  25 -11  564.23   80.94
 -26  26 -12  720.77   87.24
 -25  27 -13  202.98   61.16
 -24  28 -14   40.99   62.65
 -23  29 -15  -10.64   66.96
 -22  30 -16  303.51   74.79
 -21  31 -17  529.12   83.78
 -20  32 -18   17.79   77.33
 -19  33 -19  634.30  106.37
 -18  34 -20  924.33  116.01
 -17  35 -21  289.26   90.73
 -16  36 -22  -10.91   82.17
 -15  37 -23  -10.56   80.67
 -14  38 -24  174.21   86.43
  -6   6 -46   57.08   60.73
  -7   5 -45  156.96   63.69
  -8   4 -44  436.66   78.79
  -9   3 -43  192.99   66.50
   3  43   9  139.52   42.56
 -10   2 -42  -75.02   55.55
 -11   1 -41   -0.04   47.79
 -12   0 -40  -90.85   53.28
 -13  -1 -39  -39.41   44.64
 -14  -2 -38  -79.67   43.68
 -15  -3 -37  161.69   45.79
 -16  -4 -36  365.74   49.48
 -17  -5 -35  179.55   41.87
 -18  -6 -34   34.23   28.66
 -19  -7 -33   69.45   29.81
 -20  -8 -32   33.77   25.70
 -29  23 -11  202.87   63.11
 -28  24 -12  644.98   80.48
 -27  25 -13   97.53   62.35
 -26  26 -14   47.67   68.76
 -25  27 -15  -55.78   75.22
 -24  28 -16    5.95   65.15
 -23  29 -17  -39.84   68.92
 -22  30 -18   10.14   69.99
 -21  31 -19  165.95   77.25
 -20  32 -20  437.58   82.98
 -19  33 -21  149.51   80.40
 -18  34 -22  -62.23   65.23
 -17  35 -23    2.46   76.25
 -16  36 -24 -248.20  102.22
 -15  37 -25  162.30   91.12
  -6   4 -46  -80.21   59.43
  -7   3 -45   83.86   61.96
   2  44   8  100.22   47.83
  -8   2 -44   44.37   52.78
  -9   1 -43   51.36   50.78
   1  43   9   50.63   41.87
 -10   0 -42  118.51   54.51
 -11  -1 -41   44.14   48.13
 -12  -2 -40   67.69   45.98
 -13  -3 -39   38.53   43.25
 -14  -4 -38    9.60   40.76
 -15  -5 -37   56.78   40.26
 -16  -6 -36   -3.92   30.73
 -17  -7 -35   74.68   32.08
 -18  -8 -34  186.35   34.11
 -29  23 -13   57.35   58.08
 -28  24 -14   31.15   58.51
 -27  25 -15   97.69   53.24
 -26  26 -16  186.69   74.06
 -25  27 -17   79.21   65.23
 -24  28 -18  -21.90   66.23
 -23  29 -19   60.58   62.92
 -22  30 -20   59.27   70.99
 -21  31 -21  122.43   85.93
 -20  32 -22  -43.98   65.92
 -19  33 -23  127.61   84.47
 -18  34 -24   99.76   69.99
 -17  35 -25  105.06   75.06
 -16  36 -26   40.07   85.16
  -5   3 -47  137.41   65.61
  -6   2 -46   37.80   50.98
   1  45   7  -70.18   47.75
  -7   1 -45   87.09   51.05
   0  44   8   58.62   45.98
  -8   0 -44  -73.64   55.16
  -9  -1 -43   -9.60   46.60
 -10  -2 -42   -4.49   49.79
 -11  -3 -41  160.65   51.63
 -12  -4 -40  261.87   51.05
 -13  -5 -39  132.99   45.71
 -14  -6 -38  -18.48   35.57
 -15  -7 -37    5.15   37.57
 -30  22 -14   86.05   63.38
 -29  23 -15   55.05   50.51
 -28  24 -16    0.23   61.08
 -27  25 -17   79.13   65.84
 -26  26 -18    5.22   71.95
 -25  27 -19  284.27   87.82
 -24  28 -20  516.71   97.80
 -23  29 -21  305.43   88.47
 -22  30 -22   47.02   60.35
 -21  31 -23  107.64   79.48
 -20  32 -24   85.78   73.03
 -19  33 -25 -101.03   89.51
 -18  34 -26   -7.84   78.63
 -17  35 -27  128.00   78.10
   1  47   5  176.32   61.19
  -5   1 -47  135.91   61.35
   0  46   6   53.51   49.86
  -6   0 -46   84.86   58.12
  -1  45   7   38.84   44.79
  -7  -1 -45   46.37   49.09
  -2  44   8  -40.49   47.13
  -8  -2 -44  -82.74   53.28
  -9  -3 -43  236.44   56.85
 -10  -4 -42  636.99   70.22
 -11  -5 -41  402.89   55.16
 -12  -6 -40   29.23   38.49
 -31  21 -15  248.16   60.69
 -30  22 -16  337.01   75.06
 -29  23 -17   41.49   60.39
 -28  24 -18   -1.54   61.50
 -27  25 -19  287.88   71.07
 -26  26 -20  920.29  104.03
 -25  27 -21  546.60   89.04
 -24  28 -22  -47.40   66.84
 -23  29 -23  498.31   99.69
 -22  30 -24  336.93   85.47
 -21  31 -25    3.11   78.71
 -20  32 -26    6.34   57.16
 -19  33 -27 -136.91   89.62
  -1  47   5   61.39   48.75
  -5  -1 -47  179.28   66.53
  -2  46   6  -41.72   52.28
  -6  -2 -46    4.72   51.24
  -3  45   7   78.40   48.52
  -7  -3 -45  -61.96   47.94
  -8  -4 -44  346.61   60.89
  -9  -5 -43  394.55   61.50
 -32  20 -16 1872.09  117.36
 -31  21 -17  560.74   87.62
 -30  22 -18 -103.87   61.81
 -29  23 -19    6.15   53.86
 -28  24 -20  415.45   84.70
 -27  25 -21  448.72   87.28
 -26  26 -22    3.07   71.11
 -25  27 -23  776.82  102.80
 -24  28 -24 1025.97  115.90
 -23  29 -25  374.92   95.34
 -22  30 -26   66.61   60.20
 -21  31 -27   65.04   84.43
 -20  32 -28  164.64   78.56
  -3  47   5   25.51   53.90
  -5  -3 -47    5.76   51.82
  -4  46   6   20.97   49.44
 -32  20 -18  -53.36   63.50
 -31  21 -19  213.97   62.08
 -30  22 -20  -49.09   57.78
 -29  23 -21  202.44   75.68
 -28  24 -22   86.59   75.68
 -27  25 -23  814.04  103.37
 -26  26 -24 1965.09  150.70
 -25  27 -25  801.48  103.91
 -24  28 -26  -17.06   74.91
 -23  29 -27  218.04   83.21
 -22  30 -28 -116.70   81.63
 -21  31 -29  106.56   68.15
  -6  46   6  143.36   56.89
 -33  19 -19  748.39   91.58
 -32  20 -20  473.23   77.75
 -31  21 -21  114.17   68.45
 -30  22 -22   55.55   66.80
 -29  23 -23  422.21   86.93
 -28  24 -24 1408.23  130.57
 -27  25 -25  829.75  112.52
 -26  26 -26  -79.59   72.14
 -25  27 -27  472.88   87.35
 -24  28 -28  559.35  107.29
 -23  29 -29   -5.49   66.15
 -25  27 -29  175.90   75.29
 -26  26 -28  428.78   92.00
 -27  25 -27  451.79   98.34
 -28  24 -26  -12.48   72.56
 -29  23 -25  401.16   96.69
 -30  22 -24  469.69   94.61
 -31  21 -23    8.30   66.50
 -32  20 -22   29.50   60.20
 -33  19 -21  162.80   53.93
 -23  27 -31  -31.04   71.07
 -24  26 -30  328.14   97.65
 -25  25 -29  467.58   92.77
 -26  24 -28    5.61   71.91
 -27  23 -27  550.75   97.00
 -28  22 -26  619.93   97.30
 -29  21 -25    8.34   68.34
 -30  20 -24 -191.96   74.91
 -31  19 -23   84.28   54.86
 -32  18 -22  640.44   85.63
 -33  17 -21  450.75   73.10
  -9  45   5  218.65   66.34
  -8  46   4   63.84   53.09
 -22  26 -32   98.88   75.48
 -23  25 -31  120.54   80.71
 -24  24 -30   21.01   59.16
 -25  23 -29  376.85   87.35
 -26  22 -28  686.12  107.06
 -27  21 -27  209.32   78.10
 -28  20 -26   68.76   76.25
 -29  19 -25  108.83   67.99
 -30  18 -24  -42.52   61.39
 -31  17 -23  152.85   63.35
 -32  16 -22   80.59   57.12
 -33  15 -21  521.67   75.87
 -10  44   4   -2.65   53.01
  -9  45   3    5.84   52.70
  -8  46   2  -83.01   62.35
 -20  26 -34  -16.86   79.86
 -21  25 -33  -11.22   67.19
 -22  24 -32  107.87   82.98
 -23  23 -31  123.54   63.92
 -24  22 -30  347.34   80.63
 -25  21 -29  167.53   75.37
 -26  20 -28   79.71   72.45
 -27  19 -27   97.53   63.50
 -28  18 -26  111.40   59.70
 -29  17 -25   92.08   62.50
 -30  16 -24  117.47   59.77
 -31  15 -23   79.48   61.77
 -32  14 -22  124.39   48.94
 -12  42   4  -34.57   54.13
 -11  43   3   81.05   59.12
 -10  44   2   55.66   58.24
  -9  45   1  -48.90   54.16
  -8  46   0 -108.02   71.95
 -19  25 -35   65.04   77.67
 -20  24 -34   93.31   82.86
 -21  23 -33   47.17   74.79
 -22  22 -32   22.09   66.99
 -23  21 -31   62.69   60.69
 -24  20 -30  141.86   73.33
 -25  19 -29   -4.76   65.88
 -26  18 -28  -11.18   65.92
 -27  17 -27   36.72   51.44
 -28  16 -26  -82.86   66.65
 -29  15 -25  -17.13   52.70
 -30  14 -24   52.09   57.78
 -31  13 -23  -84.86   55.51
 -32  12 -22   22.20   51.28
 -13  41   3   62.81   51.86
 -12  42   2   -2.07   53.51
 -11  43   1   80.09   54.89
 -10  44   0   14.71   51.09
  -9  45  -1 -112.17   74.60
  -8  46  -2   73.95   65.50
 -18  24 -36  -14.37   64.65
 -19  23 -35   90.08   72.18
 -20  22 -34  117.13   79.06
 -21  21 -33   66.88   73.06
 -22  20 -32  -10.03   64.88
 -23  19 -31   11.68   64.11
 -24  18 -30  -37.38   68.22
 -25  17 -29  -68.80   63.77
 -26  16 -28   42.22   60.00
 -27  15 -27  -34.96   60.73
 -28  14 -26   54.20   53.36
 -29  13 -25   26.58   51.05
 -30  12 -24   13.41   52.28
 -31  11 -23  -20.24   48.52
 -14  40   2   11.45   52.32
 -13  41   1  -53.74   52.55
 -12  42   0  -29.73   51.24
 -11  43  -1    1.46   59.81
 -10  44  -2   33.84   66.99
  -9  45  -3    0.35   58.51
  -8  46  -4  -75.45   74.14
 -17  23 -37   78.33   86.32
 -18  22 -36   35.73   74.72
 -19  21 -35  170.44   77.60
 -20  20 -34  170.10   86.20
 -21  19 -33  247.35   69.38
 -22  18 -32  398.13   75.87
 -23  17 -31  108.41   68.45
 -24  16 -30   62.65   52.90
 -25  15 -29  -52.90   59.16
 -26  14 -28   72.41   60.04
 -27  13 -27   86.43   53.82
 -28  12 -26  -48.17   55.74
 -29  11 -25  276.62   62.96
 -30  10 -24  865.71   84.05
 -31   9 -23  221.73   55.16
 -16  38   2  354.95   76.52
 -15  39   1   77.87   62.23
 -14  40   0   41.79   56.43
 -13  41  -1  -36.69   61.66
 -12  42  -2  -77.87   70.91
 -11  43  -3  145.05   68.57
 -10  44  -4  -31.88   66.19
  -9  45  -5   89.70   70.11
  -8  46  -6  198.68   81.09
 -16  22 -38  -66.50   72.80
 -17  21 -37   -4.11   78.63
 -18  20 -36  -26.51   64.57
 -19  19 -35  413.45   89.39
 -20  18 -34  971.88  102.84
 -21  17 -33  655.62   95.88
 -22  16 -32  -93.62   63.11
 -23  15 -31   42.45   56.35
 -24  14 -30   12.48   52.86
 -25  13 -29   75.79   58.39
 -26  12 -28    6.80   58.16
 -27  11 -27  320.65   66.07
 -28  10 -26  910.15   85.70
 -29   9 -25  676.44   72.95
 -30   8 -24   55.05   48.59
 -17  37   1  399.78   73.76
 -16  38   0    6.99   59.27
 -15  39  -1  250.42   74.72
 -14  40  -2  154.39   67.23
 -13  41  -3   73.95   55.01
 -12  42  -4   -2.88   63.81
 -11  43  -5  391.56   86.62
 -10  44  -6  539.11   88.97
  -9  45  -7  419.22   92.96
  -8  46  -8   81.86   77.79
 -15  21 -39 -255.80   98.69
 -16  20 -38  148.82   82.74
 -17  19 -37   95.61   67.57
 -18  18 -36 1011.37  113.71
 -19  17 -35  625.04   85.97
 -20  16 -34   14.06   59.04
 -21  15 -33  463.43   83.90
 -22  14 -32  226.72   62.81
 -23  13 -31   56.43   56.24
 -24  12 -30  -30.42   58.58
 -25  11 -29  385.99   69.07
 -26  10 -28  905.97   88.62
 -27   9 -27  430.70   68.34
 -28   8 -26   63.54   47.17
 -29   7 -25  634.11   71.07
 -30   6 -24  446.91   57.70
 -18  36   0   23.36   59.43
 -17  37  -1  311.85   67.07
 -16  38  -2  259.60   68.95
 -15  39  -3   36.34   68.15
 -14  40  -4  -13.18   65.42
 -13  41  -5  170.68   76.60
 -12  42  -6  576.91   87.74
 -11  43  -7  526.82   95.46
 -10  44  -8   33.77   60.54
  -9  45  -9  415.26   94.31
 -14  20 -40   23.78   79.75
 -15  19 -39  123.50   74.45
 -16  18 -38  225.38   74.79
 -17  17 -37  415.34   89.12
 -18  16 -36   34.57   58.66
 -19  15 -35  539.80   83.63
 -20  14 -34 1033.08  105.99
 -21  13 -33  108.10   59.70
 -22  12 -32   51.90   51.05
 -23  11 -31    8.91   56.51
 -24  10 -30  604.99   80.71
 -25   9 -29  718.12   77.90
 -26   8 -28   24.12   46.90
 -27   7 -27  939.19   83.97
 -28   6 -26 1187.70   89.77
 -29   5 -25  268.29   51.71
 -19  35  -1  696.95   80.36
 -18  36  -2  864.55   93.08
 -17  37  -3  130.69   63.50
 -16  38  -4  161.99   60.73
 -15  39  -5  104.41   58.39
 -14  40  -6  309.16   80.90
 -13  41  -7  397.47   92.31
 -12  42  -8   62.92   64.15
 -11  43  -9  494.43  101.68
 -10  44 -10  928.82  113.75
  -9  45 -11  410.46   91.39
 -13  19 -41  -38.57   61.58
 -14  18 -40   -3.50   61.92
 -15  17 -39   98.11   75.91
 -16  16 -38  102.53   71.72
 -17  15 -37  525.66   89.85
 -18  14 -36  927.09  104.87
 -19  13 -35  298.25   73.45
 -20  12 -34  -84.63   57.35
 -21  11 -33   21.17   51.82
 -22  10 -32   96.50   54.78
 -23   9 -31  138.68   59.58
 -24   8 -30   38.34   47.52
 -25   7 -29  440.15   68.26
 -26   6 -28  954.67   83.36
 -27   5 -27  247.20   51.36
 -28   4 -26  115.44   47.33
 -21  33  -1  493.59   69.38
 -20  34  -2 1175.71  106.87
 -19  35  -3  450.22   79.13
 -18  36  -4    1.38   64.46
 -17  37  -5   10.64   68.84
 -16  38  -6  -33.73   70.07
 -15  39  -7  195.99   73.26
 -14  40  -8  104.64   73.33
 -13  41  -9  455.98   95.00
 -12  42 -10  703.56  105.14
 -11  43 -11  400.89   87.93
 -10  44 -12   54.66   81.28
 -12  18 -42  -17.36   68.88
 -13  17 -41   61.31   75.29
 -14  16 -40   21.97   69.41
 -15  15 -39  156.92   72.30
 -16  14 -38  364.51   83.13
 -17  13 -37   69.49   56.93
 -18  12 -36  111.17   62.62
 -19  11 -35  158.88   72.49
 -20  10 -34    6.68   52.28
 -21   9 -33   45.06   53.51
 -22   8 -32   44.33   58.31
 -23   7 -31   71.53   49.52
 -24   6 -30  396.32   66.11
 -25   5 -29  332.82   57.35
 -26   4 -28   70.53   47.21
 -27   3 -27   33.61   39.84
 -28   2 -26   31.62   38.07
 -22  32  -2  343.00   67.19
 -21  33  -3  326.45   73.26
 -20  34  -4  -76.91   61.04
 -19  35  -5   26.66   62.73
 -18  36  -6  -78.86   69.11
 -17  37  -7  -28.27   72.80
 -16  38  -8   98.00   73.79
 -15  39  -9  249.66   72.56
 -14  40 -10  232.94   80.25
 -13  41 -11  207.21   76.56
 -12  42 -12   59.50   82.67
 -11  43 -13   14.67   77.10
 -10  44 -14  -13.48   67.26
 -12  16 -42  225.34   88.05
 -13  15 -41  117.09   76.02
 -14  14 -40   73.06   59.39
 -15  13 -39  154.54   74.72
 -16  12 -38   60.69   56.78
 -17  11 -37  -20.74   58.70
 -18  10 -36   58.16   60.54
 -19   9 -35   28.27   50.67
 -20   8 -34   35.30   53.28
 -21   7 -33   11.75   48.86
 -22   6 -32   83.67   48.82
 -23   5 -31   49.63   49.36
 -24   4 -30   35.46   42.49
 -25   3 -29   96.61   47.33
 -26   2 -28  120.81   44.21
 -27   1 -27   62.15   39.26
 -23  31  -3   17.94   55.78
 -22  32  -4  -79.63   62.69
 -21  33  -5  -22.05   55.51
 -20  34  -6 -122.77   61.66
 -19  35  -7   26.62   63.15
 -18  36  -8  129.76   72.03
 -17  37  -9   47.79   71.60
 -16  38 -10    2.38   70.68
 -15  39 -11   64.04   60.12
 -14  40 -12   89.35   78.29
 -13  41 -13   31.65   78.10
 -12  42 -14   45.10   64.88
 -11  43 -15 -102.03   71.95
 -11  15 -43   19.44   69.30
 -12  14 -42  127.19   68.11
 -13  13 -41 -132.64   71.37
 -14  12 -40  113.02   66.61
 -15  11 -39   -8.91   61.35
 -16  10 -38    8.49   61.73
 -17   9 -37  112.71   60.08
 -18   8 -36   23.66   55.51
 -19   7 -35  -47.25   49.79
 -20   6 -34    0.04   51.21
 -21   5 -33    0.27   45.79
 -22   4 -32   54.51   45.52
 -23   3 -31   23.36   40.30
 -24   2 -30   91.70   45.91
 -25   1 -29  -40.64   39.26
 -26   0 -28    4.34   34.42
 -24  30  -4   53.36   62.69
 -23  31  -5   -3.11   57.39
 -22  32  -6   51.44   57.31
 -21  33  -7  -14.98   53.40
 -20  34  -8  -59.96   56.81
 -19  35  -9  -71.53   67.42
 -18  36 -10  -25.01   66.73
 -17  37 -11  -60.85   71.83
 -16  38 -12   44.10   54.13
 -15  39 -13   36.07   71.87
 -14  40 -14  103.22   68.68
 -13  41 -15  -86.82   82.94
 -12  42 -16  -22.59   79.75
 -10  14 -44   95.34   63.15
 -11  13 -43  -76.94   67.80
 -12  12 -42   66.50   69.68
 -13  11 -41  274.13   80.56
 -14  10 -40  240.90   63.08
 -15   9 -39   79.56   62.62
 -16   8 -38   92.08   63.46
 -17   7 -37   28.47   52.17
 -18   6 -36   36.34   52.63
 -19   5 -35  -13.94   45.94
 -20   4 -34  -15.87   50.28
 -21   3 -33  177.40   50.32
 -22   2 -32  377.58   57.89
 -23   1 -31  220.54   49.17
 -24   0 -30  -18.32   39.76
 -25  -1 -29    8.07   33.42
 -26  -2 -28   37.11   31.27
 -25  29  -5  208.28   62.31
 -24  30  -6  565.69   88.31
 -23  31  -7  101.45   62.23
 -22  32  -8  -24.93   54.39
 -21  33  -9  -28.77   59.04
 -20  34 -10  110.52   70.30
 -19  35 -11  286.88   85.55
 -18  36 -12  -38.99   73.03
 -17  37 -13  205.67   68.38
 -16  38 -14  258.61   86.36
 -15  39 -15  218.92   69.15
 -14  40 -16    4.72   81.86
 -13  41 -17   69.80   82.67
 -12  42 -18  151.85   86.55
 -10  12 -44  -32.31   71.91
 -11  11 -43  309.27   86.36
 -12  10 -42  874.35  103.49
 -13   9 -41  380.65   78.83
 -14   8 -40   13.25   55.05
 -15   7 -39  120.62   61.69
 -16   6 -38  148.32   62.50
 -17   5 -37  111.94   55.85
 -18   4 -36   50.90   48.90
 -19   3 -35  440.23   64.46
 -20   2 -34 1036.77   82.48
 -21   1 -33  573.33   63.08
 -22   0 -32   36.38   36.22
 -23  -1 -31  147.63   41.30
 -24  -2 -30   20.05   35.00
 -25  -3 -29   81.78   32.19
 -26  28  -6 1134.72   96.38
 -25  29  -7  525.32   79.48
 -24  30  -8   32.54   62.42
 -23  31  -9  209.59   69.65
 -22  32 -10   16.40   64.73
 -21  33 -11  -61.46   66.76
 -20  34 -12  -43.25   74.45
 -19  35 -13  319.34   90.58
 -18  36 -14 1044.60  110.75
 -17  37 -15  387.41   94.50
 -16  38 -16  -35.34   63.92
 -15  39 -17  156.12   78.52
 -14  40 -18   46.90   78.60
 -13  41 -19   33.92   77.44
  -9  11 -45  348.96   87.47
 -10  10 -44  969.43  106.29
 -11   9 -43  475.92   82.09
 -12   8 -42   53.20   61.00
 -13   7 -41  448.07   81.09
 -14   6 -40  426.75   73.99
 -15   5 -39   29.16   52.97
 -16   4 -38   27.70   55.20
 -17   3 -37   35.49   47.79
 -18   2 -36  910.84   81.17
 -19   1 -35  630.03   68.19
 -20   0 -34   88.20   46.56
 -21  -1 -33  615.28   62.38
 -22  -2 -32  375.58   51.28
 -23  -3 -31  -28.20   34.27
 -24  -4 -30    6.57   28.62
 -26  28  -8    3.15   50.82
 -25  29  -9  565.19   83.21
 -24  30 -10  601.84   89.74
 -23  31 -11   96.92   65.57
 -22  32 -12  -24.32   69.15
 -21  33 -13   97.34   75.75
 -20  34 -14 1009.95  115.90
 -19  35 -15  657.19   96.80
 -18  36 -16  125.62   78.21
 -17  37 -17  398.01   81.63
 -16  38 -18  194.53   83.09
 -15  39 -19   72.45   92.08
 -14  40 -20  -39.41   88.81
  -9   9 -45  398.74   81.71
 -10   8 -44    6.95   56.20
 -11   7 -43  394.09   80.40
 -12   6 -42  690.11   89.39
 -13   5 -41  242.13   69.61
 -14   4 -40   43.87   54.55
 -15   3 -39   -8.95   53.40
 -16   2 -38  401.16   68.84
 -17   1 -37  303.36   58.43
 -18   0 -36   54.55   45.87
 -19  -1 -35  647.01   66.00
 -20  -2 -34 1286.61   80.75
 -21  -3 -33  294.18   46.79
 -22  -4 -32   10.68   32.84
 -23  -5 -31   -1.11   27.16
 -27  27  -9  463.20   76.79
 -26  28 -10  824.18   91.00
 -25  29 -11  258.38   70.72
 -24  30 -12 -111.44   75.98
 -23  31 -13  -32.19   76.25
 -22  32 -14  203.94   69.72
 -21  33 -15  290.22   72.68
 -20  34 -16   12.22   76.64
 -19  35 -17  492.78   98.96
 -18  36 -18  800.02  108.06
 -17  37 -19  219.27   87.97
 -16  38 -20   34.96   84.13
 -15  39 -21   58.93   91.70
  -8   8 -46   -6.99   63.19
  -9   7 -45  350.69   81.13
 -10   6 -44  666.68   88.62
 -11   5 -43  262.06   67.34
 -12   4 -42   76.68   61.58
 -13   3 -41  -44.18   56.43
 -14   2 -40  175.82   59.47
 -15   1 -39  202.48   57.47
 -16   0 -38   72.03   47.98
 -17  -1 -37  346.04   59.93
 -18  -2 -36  899.63   75.48
 -19  -3 -35  366.93   52.90
 -20  -4 -34   -5.57   31.81
 -21  -5 -33  -11.68   30.96
 -22  -6 -32   88.78   33.34
 -28  26 -10 1168.03  107.56
 -27  27 -11  434.77   79.71
 -26  28 -12   13.48   54.39
 -25  29 -13  129.30   58.58
 -24  30 -14   -4.30   53.70
 -23  31 -15   39.80   55.39
 -22  32 -16  -59.62   70.14
 -21  33 -17  506.80   97.27
 -20  34 -18  930.59  108.79
 -19  35 -19  406.35   97.50
 -18  36 -20 -106.75   66.30
 -17  37 -21   16.02   78.67
 -16  38 -22 -192.38   96.30
  -8   6 -46  160.57   66.50
  -9   5 -45  156.58   58.16
 -10   4 -44 -132.15   59.54
 -11   3 -43  -46.90   52.32
 -12   2 -42   64.57   55.47
 -13   1 -41  109.33   53.28
 -14   0 -40   11.49   46.29
 -15  -1 -39  150.16   52.97
 -16  -2 -38  363.32   57.78
 -17  -3 -37  193.84   46.25
 -18  -4 -36   32.65   37.15
 -19  -5 -35  101.68   37.07
 -20  -6 -34  -14.25   29.96
 -29  25 -11  337.39   66.42
 -28  26 -12   -5.99   60.77
 -27  27 -13   89.58   72.14
 -26  28 -14   12.10   66.50
 -25  29 -15 -123.39   78.71
 -24  30 -16  108.87   74.72
 -23  31 -17  105.79   75.83
 -22  32 -18  506.99   97.65
 -21  33 -19  296.75   84.05
 -20  34 -20 -122.58   81.67
 -19  35 -21  144.63   80.67
 -18  36 -22  160.03   75.95
 -17  37 -23   49.32   90.00
  -8   4 -46   11.06   57.85
  -9   3 -45   92.77   61.77
 -10   2 -44    0.27   50.40
 -11   1 -43   51.97   52.70
 -12   0 -42  -16.83   50.67
 -13  -1 -41   57.81   46.44
 -14  -2 -40  108.44   47.40
 -15  -3 -39   42.45   42.14
 -16  -4 -38  -35.46   36.88
 -17  -5 -37   36.07   35.15
 -18  -6 -36   20.17   31.50
 -30  24 -12  -52.24   62.54
 -29  25 -13   33.19   61.73
 -28  26 -14   63.54   53.36
 -27  27 -15   81.90   59.39
 -26  28 -16    7.76   60.62
 -25  29 -17  -56.62   63.08
 -24  30 -18   51.24   56.66
 -23  31 -19  142.09   79.63
 -22  32 -20    0.04   77.79
 -21  33 -21   46.52   62.50
 -20  34 -22  -72.68   90.77
 -19  35 -23   95.58   80.79
 -18  36 -24    9.07   64.73
  -8   2 -46   55.85   58.93
  -9   1 -45   90.93   56.70
 -10   0 -44  -23.93   52.40
 -11  -1 -43  -24.01   46.87
 -12  -2 -42   47.63   49.32
 -13  -3 -41  -35.69   44.21
 -14  -4 -40   45.29   40.07
 -15  -5 -39  120.62   44.10
 -30  24 -14  -26.08   50.51
 -29  25 -15   51.17   65.57
 -28  26 -16  -26.28   65.15
 -27  27 -17   56.78   73.33
 -26  28 -18   71.87   80.98
 -25  29 -19   32.23   73.56
 -24  30 -20 -101.64   80.36
 -23  31 -21  -60.81   56.01
 -22  32 -22   52.17   76.06
 -21  33 -23   35.38   61.16
 -20  34 -24   35.00   83.86
 -19  35 -25  150.70   97.53
  -8   0 -46  -63.23   55.05
  -9  -1 -45  -89.39   53.13
 -10  -2 -44  219.50   61.46
 -11  -3 -43  -64.46   47.60
 -12  -4 -42  -36.92   42.03
 -31  23 -15   17.25   58.24
 -30  24 -16   18.55   61.42
 -29  25 -17  -44.21   55.78
 -28  26 -18  -60.69   57.31
 -27  27 -19   54.66   58.47
 -26  28 -20   82.25   64.54
 -25  29 -21  162.65   81.05
 -24  30 -22  374.58   98.38
 -23  31 -23  237.63   77.52
 -22  32 -24   75.33   86.16
 -21  33 -25  -52.47   67.96
 -20  34 -26   81.78   88.28
  -8  -2 -46  -30.77   53.66
 -32  22 -16  -35.76   57.12
 -31  23 -17  169.79   55.78
 -30  24 -18  -95.73   64.88
 -29  25 -19  115.82   71.45
 -28  26 -20  -42.14   68.61
 -27  27 -21  340.93   83.86
 -26  28 -22  662.03   98.11
 -25  29 -23  406.04   95.19
 -24  30 -24   26.58   75.41
 -23  31 -25  122.62   69.84
 -22  32 -26  322.49  105.83
 -32  22 -18  589.16   81.25
 -31  23 -19  -17.40   66.30
 -30  24 -20   89.54   75.91
 -29  25 -21   76.33   81.32
 -28  26 -22  891.18  117.05
 -27  27 -23  515.52  100.91
 -26  28 -24  -10.76   66.03
 -25  29 -25  369.89   87.89
 -24  30 -26  318.88   92.92
 -23  31 -27   39.45   70.64
 -33  21 -19  259.60   68.84
 -32  22 -20   25.12   67.26
 -31  23 -21   56.47   66.19
 -30  24 -22  440.65   87.39
 -29  25 -23  553.97  100.15
 -28  26 -24   30.62   73.76
 -27  27 -25  350.30   96.34
 -26  28 -26  623.93  100.18
 -25  29 -27  308.01   91.16
 -34  20 -20   -0.61   58.08
 -33  21 -21  142.59   76.41
 -32  22 -22  -27.62   65.07
 -31  23 -23  165.68   68.95
 -30  24 -24   23.93   66.65
 -29  25 -25  410.84   93.96
 -28  26 -26  483.52   96.80
 -27  27 -27  253.73   83.17
 -26  28 -28   -9.30   64.27
 -28  26 -28 -129.88   87.47
 -29  25 -27  235.67   88.62
 -30  24 -26  386.99   88.93
 -31  23 -25  160.92   72.83
 -32  22 -24  -10.95   62.92
 -33  21 -23   69.18   66.99
 -34  20 -22   54.24   61.69
 -26  26 -30  -60.73   64.08
 -27  25 -29  295.71   86.39
 -28  24 -28  351.61   95.88
 -29  23 -27   73.03   74.49
 -30  22 -26   -5.30   70.30
 -31  21 -25  -24.59   69.15
 -32  20 -24  250.19   73.10
 -33  19 -23  175.71   65.80
 -34  18 -22  -38.38   61.54
 -25  25 -31   23.78   74.22
 -26  24 -30  434.70   88.24
 -27  23 -29  143.82   81.32
 -28  22 -28  112.17   83.36
 -29  21 -27  -51.82   74.45
 -30  20 -26 -101.22   71.03
 -31  19 -25   71.30   61.96
 -32  18 -24   29.19   55.36
 -33  17 -23  240.47   68.61
 -10  46   4  -11.14   58.58
 -23  25 -33   26.93   67.23
 -24  24 -32   99.72   79.13
 -25  23 -31   51.74   65.15
 -26  22 -30  -10.76   70.30
 -27  21 -29  167.33   72.56
 -28  20 -28  150.51   81.86
 -29  19 -27   35.57   63.92
 -30  18 -26   29.50   53.51
 -31  17 -25  117.62   69.22
 -32  16 -24  167.53   56.35
 -33  15 -23  245.12   69.22
 -11  45   3  -39.57   60.20
 -10  46   2    4.76   60.35
 -22  24 -34  166.14   64.65
 -23  23 -33 -114.59   85.51
 -24  22 -32   11.99   64.23
 -25  21 -31  -12.37   58.70
 -26  20 -30  -28.77   63.38
 -27  19 -29   14.10   64.88
 -28  18 -28  -83.24   61.42
 -29  17 -27  -24.09   61.89
 -30  16 -26  236.21   68.38
 -31  15 -25   71.95   54.70
 -32  14 -24   -5.15   50.05
 -33  13 -23  -15.17   53.74
 -13  43   3   57.39   55.82
 -12  44   2   33.61   62.08
 -11  45   1   90.12   60.81
 -10  46   0  188.04   66.61
 -21  23 -35  152.04   80.90
 -22  22 -34   70.18   76.71
 -23  21 -33  -23.86   73.99
 -24  20 -32  -65.65   68.84
 -25  19 -31  -26.39   61.12
 -26  18 -30   10.30   53.63
 -27  17 -29  -29.62   63.46
 -28  16 -28  293.99   79.90
 -29  15 -27   22.66   54.43
 -30  14 -26   -9.64   61.04
 -31  13 -25   24.66   47.10
 -32  12 -24  -42.83   45.21
 -14  42   2   48.36   65.46
 -13  43   1   77.25   61.23
 -12  44   0  186.50   66.30
 -11  45  -1   36.42   64.84
 -10  46  -2  -62.42   73.37
 -20  22 -36   18.21   74.91
 -21  21 -35  -32.88   68.42
 -22  20 -34   -2.84   72.33
 -23  19 -33  173.79   77.56
 -24  18 -32  -25.89   60.16
 -25  17 -31   87.24   53.09
 -26  16 -30  216.47   68.34
 -27  15 -29   22.43   63.08
 -28  14 -28  -13.29   55.39
 -29  13 -27  -65.07   56.74
 -30  12 -26   75.48   59.66
 -31  11 -25   48.13   49.98
 -32  10 -24   47.48   46.25
 -16  40   2  -16.17   55.12
 -15  41   1   37.19   56.74
 -14  42   0  161.15   59.24
 -13  43  -1   20.36   57.05
 -12  44  -2  -31.96   72.45
 -11  45  -3  -47.56   61.66
 -10  46  -4   -3.80   70.41
 -18  22 -38   55.93   70.57
 -19  21 -37   65.30   76.60
 -20  20 -36   38.72   61.46
 -21  19 -35   35.99   74.26
 -22  18 -34   52.97   64.50
 -23  17 -33  296.14   77.71
 -24  16 -32  367.89   76.52
 -25  15 -31  131.15   70.07
 -26  14 -30   -4.76   57.70
 -27  13 -29   69.45   58.97
 -28  12 -28   53.78   51.94
 -29  11 -27  171.25   62.69
 -30  10 -26  -50.05   53.24
 -31   9 -25  295.56   58.66
 -17  39   1  177.13   62.88
 -16  40   0  225.03   69.34
 -15  41  -1   77.48   65.30
 -14  42  -2    6.65   67.03
 -13  43  -3  -17.44   63.69
 -12  44  -4  -30.92   66.80
 -11  45  -5   29.23   69.26
 -10  46  -6   -3.57   67.23
 -17  21 -39  -62.12   80.44
 -18  20 -38  -21.51   75.48
 -19  19 -37   -2.65   68.80
 -20  18 -36 -123.66   80.75
 -21  17 -35  121.31   74.14
 -22  16 -34  583.59   91.54
 -23  15 -33   49.94   64.50
 -24  14 -32   89.24   64.65
 -25  13 -31   36.80   55.39
 -26  12 -30   16.63   57.01
 -27  11 -29   -2.50   53.55
 -28  10 -28   32.84   50.55
 -29   9 -27  184.43   57.93
 -30   8 -26  554.51   73.49
 -31   7 -25   86.82   43.83
 -18  38   0  227.41   63.58
 -17  39  -1   14.90   57.62
 -16  40  -2  -43.75   59.54
 -15  41  -3   46.60   51.01
 -14  42  -4  -17.40   68.61
 -13  43  -5  119.12   75.83
 -12  44  -6  -43.25   66.15
 -11  45  -7  170.94   81.98
 -17  19 -39 -130.38   72.53
 -18  18 -38  -49.09   74.64
 -19  17 -37  375.69   87.93
 -20  16 -36  535.65   91.31
 -21  15 -35  138.91   67.38
 -22  14 -34   50.63   62.85
 -23  13 -33  -57.78   63.04
 -24  12 -32   -6.30   56.85
 -25  11 -31   50.86   57.35
 -26  10 -30   29.58   50.63
 -27   9 -29   73.72   46.98
 -28   8 -28  354.72   65.84
 -29   7 -27   53.47   49.06
 -30   6 -26   20.51   41.18
 -19  37  -1  214.66   66.15
 -18  38  -2 -107.79   65.07
 -17  39  -3   11.68   65.11
 -16  40  -4  132.72   76.94
 -15  41  -5   61.35   64.54
 -14  42  -6  -43.72   68.22
 -13  43  -7  240.40   84.67
 -12  44  -8  395.75   90.04
 -11  45  -9  255.11   81.90
 -16  18 -40   55.28   68.07
 -17  17 -39  140.06   74.56
 -18  16 -38  222.65   73.83
 -19  15 -37  163.38   76.33
 -20  14 -36  177.32   71.49
 -21  13 -35   29.39   63.15
 -22  12 -34   57.39   61.19
 -23  11 -33   -1.19   53.43
 -24  10 -32   99.61   56.81
 -25   9 -31  305.97   62.46
 -26   8 -30  559.66   74.10
 -27   7 -29  163.03   58.58
 -28   6 -28  -40.80   46.67
 -29   5 -27   87.93   43.91
 -20  36  -2  -25.01   47.90
 -19  37  -3   21.93   50.75
 -18  38  -4   -1.69   47.17
 -17  39  -5  100.18   59.39
 -16  40  -6    4.80   76.60
 -15  41  -7  122.89   72.64
 -14  42  -8  537.84   94.69
 -13  43  -9  200.68   80.44
 -12  44 -10  -78.21   84.63
 -15  17 -41  117.47   78.37
 -16  16 -40  181.24   75.45
 -17  15 -39   33.65   57.31
 -18  14 -38  -83.32   71.91
 -19  13 -37   25.20   62.15
 -20  12 -36  -70.53   62.73
 -21  11 -35   75.64   63.00
 -22  10 -34  -36.19   50.28
 -23   9 -33  188.15   60.54
 -24   8 -32  389.25   69.18
 -25   7 -31  108.64   49.55
 -26   6 -30   31.27   48.52
 -27   5 -29   48.79   46.90
 -28   4 -28   21.17   40.30
 -29   3 -27   33.07   36.38
 -22  34  -2  -62.73   56.51
 -21  35  -3  152.58   61.66
 -20  36  -4  -78.60   68.34
 -19  37  -5 -105.75   70.45
 -18  38  -6 -101.53   67.92
 -17  39  -7  187.50   69.30
 -16  40  -8  457.09   97.07
 -15  41  -9  212.93   77.87
 -14  42 -10   29.08   75.60
 -13  43 -11   76.52   62.38
 -12  44 -12  107.68   79.36
 -14  16 -42  -28.73   75.56
 -15  15 -41  131.84   73.37
 -16  14 -40   57.74   66.07
 -17  13 -39    1.19   65.73
 -18  12 -38   59.58   67.92
 -19  11 -37  -46.64   60.50
 -20  10 -36  -31.38   59.04
 -21   9 -35   84.51   53.01
 -22   8 -34  360.44   69.76
 -23   7 -33  125.65   55.59
 -24   6 -32   28.77   45.67
 -25   5 -31   30.54   46.64
 -26   4 -30  110.29   53.51
 -27   3 -29   76.02   43.79
 -28   2 -28  -26.85   37.34
 -23  33  -3  -79.29   61.69
 -22  34  -4   48.40   64.88
 -21  35  -5    9.87   64.34
 -20  36  -6  -82.67   70.22
 -19  37  -7  172.83   78.02
 -18  38  -8  131.92   63.35
 -17  39  -9  110.17   73.18
 -16  40 -10   96.50   83.05
 -15  41 -11  -41.26   65.69
 -14  42 -12   55.05   78.52
 -13  43 -13   12.37   74.83
 -13  15 -43   46.33   70.41
 -14  14 -42   37.11   60.69
 -15  13 -41    5.88   68.22
 -16  12 -40   -2.04   57.05
 -17  11 -39  115.32   66.73
 -18  10 -38 -127.00   61.42
 -19   9 -37  181.32   65.42
 -20   8 -36  295.60   69.03
 -21   7 -35   29.73   53.13
 -22   6 -34  -60.04   51.28
 -23   5 -33    9.22   47.67
 -24   4 -32  -54.43   47.36
 -25   3 -31   32.92   42.79
 -26   2 -30   -2.50   40.10
 -27   1 -29  123.04   40.91
 -24  32  -4  -35.42   56.55
 -23  33  -5   59.58   62.73
 -22  34  -6  -33.88   67.38
 -21  35  -7   58.81   70.91
 -20  36  -8  146.21   73.49
 -19  37  -9   95.77   79.17
 -18  38 -10   61.85   56.89
 -17  39 -11  198.41   81.40
 -16  40 -12   -8.34   69.61
 -15  41 -13  245.35   88.89
 -14  42 -14  -27.54   69.41
 -13  43 -15   40.64   66.57
 -13  13 -43  -45.33   69.41
 -14  12 -42  -22.78   65.84
 -15  11 -41  -15.44   56.70
 -16  10 -40   -5.30   60.00
 -17   9 -39  117.39   65.30
 -18   8 -38  128.77   64.73
 -19   7 -37   66.23   56.01
 -20   6 -36  -35.73   49.21
 -21   5 -35   11.72   46.60
 -22   4 -34  -33.23   45.18
 -23   3 -33  130.46   46.94
 -24   2 -32   21.36   44.21
 -25   1 -31   34.27   40.30
 -26   0 -30  145.71   41.91
 -27  -1 -29  119.24   35.38
 -25  31  -5  165.99   66.26
 -24  32  -6 -111.09   68.11
 -23  33  -7  -74.29   71.26
 -22  34  -8  230.37   81.17
 -21  35  -9  188.65   78.86
 -20  36 -10  -71.91   67.99
 -19  37 -11   93.88   66.00
 -18  38 -12   37.95   75.71
 -17  39 -13  -80.25   82.74
 -16  40 -14   -6.68   73.60
 -15  41 -15  109.40   66.99
 -14  42 -16  -58.97   78.75
 -12  12 -44   54.74   68.11
 -13  11 -43   84.43   67.46
 -14  10 -42  -88.24   68.99
 -15   9 -41   81.82   58.24
 -16   8 -40  281.62   70.41
 -17   7 -39   77.67   57.81
 -18   6 -38   -5.57   51.01
 -19   5 -37   89.24   55.43
 -20   4 -36  151.97   58.66
 -21   3 -35  110.63   46.40
 -22   2 -34   54.59   46.25
 -23   1 -33  180.24   49.75
 -24   0 -32  357.14   53.24
 -25  -1 -31   70.72   36.88
 -26  -2 -30   25.55   34.65
 -26  30  -6    7.49   60.54
 -25  31  -7  111.98   66.88
 -24  32  -8  470.35   87.24
 -23  33  -9  190.30   75.91
 -22  34 -10   38.84   70.76
 -21  35 -11   15.33   68.34
 -20  36 -12   28.77   56.85
 -19  37 -13   58.20   71.99
 -18  38 -14  -45.64   71.18
 -17  39 -15   36.61   72.56
 -16  40 -16  225.95   77.79
 -15  41 -17  106.25   91.08
 -12  10 -44   50.09   63.27
 -13   9 -43  215.16   77.10
 -14   8 -42  394.55   76.29
 -15   7 -41  216.70   69.34
 -16   6 -40  101.18   61.92
 -17   5 -39   23.24   48.09
 -18   4 -38   40.22   56.58
 -19   3 -37   85.20   52.63
 -20   2 -36  -61.54   48.29
 -21   1 -35  307.28   57.20
 -22   0 -34  653.51   67.26
 -23  -1 -33  171.79   43.91
 -24  -2 -32   65.65   36.30
 -25  -3 -31   53.20   32.61
 -27  29  -7  159.92   58.39
 -26  30  -8  493.59   77.83
 -25  31  -9  190.19   77.79
 -24  32 -10  -72.18   71.76
 -23  33 -11   93.15   66.76
 -22  34 -12   33.07   74.10
 -21  35 -13   84.67   66.19
 -20  36 -14  -59.12   81.40
 -19  37 -15  106.18   69.80
 -18  38 -16  283.77   85.20
 -17  39 -17   40.41   62.65
 -16  40 -18   81.71   86.66
 -11   9 -45  201.14   73.87
 -12   8 -44  470.96   90.85
 -13   7 -43  231.98   69.76
 -14   6 -42  132.76   60.20
 -15   5 -41   52.59   57.78
 -16   4 -40   23.32   50.98
 -17   3 -39   16.13   47.52
 -18   2 -38  -48.63   49.06
 -19   1 -37  177.94   50.51
 -20   0 -36  567.73   64.15
 -21  -1 -35  376.54   57.70
 -22  -2 -34  -12.41   35.96
 -23  -3 -33   13.75   32.31
 -24  -4 -32   30.69   34.80
 -27  29  -9   91.35   49.06
 -26  30 -10 -120.74   65.42
 -25  31 -11   32.23   60.50
 -24  32 -12  -46.52   67.23
 -23  33 -13  -88.35   57.85
 -22  34 -14  -15.17   62.35
 -21  35 -15  231.41   89.47
 -20  36 -16  515.71   96.73
 -19  37 -17  285.42   89.28
 -18  38 -18  128.27   70.49
 -17  39 -19  119.51   87.20
 -11   7 -45  134.95   68.72
 -12   6 -44   15.10   64.50
 -13   5 -43   34.30   53.47
 -14   4 -42   26.12   52.94
 -15   3 -41  -29.92   50.59
 -16   2 -40   64.69   54.86
 -17   1 -39  156.08   53.47
 -18   0 -38  201.52   52.40
 -19  -1 -37  239.44   52.05
 -20  -2 -36  -23.70   40.91
 -21  -3 -35   34.80   35.07
 -22  -4 -34   11.56   33.07
 -23  -5 -33  -22.17   31.92
 -28  28 -10   76.79   64.31
 -27  29 -11   57.08   58.74
 -26  30 -12  -58.51   58.89
 -25  31 -13   30.77   60.04
 -24  32 -14   92.89   67.65
 -23  33 -15  223.07   87.55
 -22  34 -16  541.03   96.07
 -21  35 -17  284.38   86.13
 -20  36 -18 -149.47   87.70
 -19  37 -19   87.47   67.84
 -18  38 -20  144.94   84.67
 -17  39 -21  -35.80   83.51
 -10   6 -46  -22.28   62.73
 -11   5 -45   64.73   64.84
 -12   4 -44   48.94   55.36
 -13   3 -43   -7.99   55.62
 -14   2 -42  -51.94   50.86
 -15   1 -41  155.35   55.74
 -16   0 -40  245.58   58.16
 -17  -1 -39   60.08   46.71
 -18  -2 -38   10.53   38.34
 -19  -3 -37  -31.62   36.57
 -20  -4 -36  -24.51   34.00
 -29  27 -11  -23.51   56.55
 -28  28 -12  160.84   70.57
 -27  29 -13  -61.69   66.03
 -26  30 -14  -49.48   71.30
 -25  31 -15  -51.05   77.14
 -24  32 -16  307.66   88.81
 -23  33 -17  265.37   73.29
 -22  34 -18   56.32   77.14
 -21  35 -19  210.43   79.44
 -20  36 -20  197.64   90.08
 -19  37 -21   44.41   63.84
 -18  38 -22   58.51   80.17
 -10   4 -46   66.03   63.73
 -11   3 -45   97.92   58.12
 -12   2 -44   79.71   59.73
 -13   1 -43   -4.84   52.70
 -14   0 -42  303.90   63.23
 -15  -1 -41  165.41   54.97
 -16  -2 -40   33.19   43.33
 -17  -3 -39  -16.56   38.61
 -30  26 -12   88.62   61.42
 -29  27 -13   72.64   49.44
 -28  28 -14  139.98   62.38
 -27  29 -15  244.05   65.77
 -26  30 -16  201.75   66.07
 -25  31 -17   33.88   60.08
 -24  32 -18  196.80   89.12
 -23  33 -19   51.90   72.26
 -22  34 -20   62.00   70.61
 -21  35 -21  -18.44   80.79
 -20  36 -22   75.64   80.71
 -10   2 -46   13.52   56.62
 -11   1 -45  -27.81   56.32
 -12   0 -44  138.37   56.62
 -13  -1 -43   81.63   49.59
 -14  -2 -42  -45.18   47.44
 -31  25 -13   -5.69   54.66
 -30  26 -14   23.93   60.89
 -29  27 -15  248.66   78.56
 -28  28 -16  173.86   71.26
 -27  29 -17   70.64   70.61
 -26  30 -18   64.42   78.40
 -25  31 -19 -192.07   81.36
 -24  32 -20   25.78   68.68
 -23  33 -21   61.96   78.48
 -22  34 -22  -59.66   61.50
 -21  35 -23   68.65   85.43
 -10   0 -46  152.89   57.47
 -31  25 -15   52.67   56.97
 -30  26 -16  220.46   68.22
 -29  27 -17   43.18   49.79
 -28  28 -18  -97.03   59.24
 -27  29 -19  -81.55   67.19
 -26  30 -20   46.37   73.68
 -25  31 -21   -8.60   77.44
 -24  32 -22    0.58   59.35
 -23  33 -23   24.55   79.90
 -22  34 -24   66.11   61.27
 -32  24 -16  396.71   70.38
 -31  25 -17   10.72   64.00
 -30  26 -18    9.68   70.07
 -29  27 -19  111.40   78.90
 -28  28 -20  278.66   88.51
 -27  29 -21   92.35   66.65
 -26  30 -22  -64.19   71.41
 -25  31 -23  104.03   83.67
 -24  32 -24  155.19   67.34
 -23  33 -25  209.74   92.46
 -33  23 -17  274.01   69.26
 -32  24 -18   93.88   71.99
 -31  25 -19   -2.96   64.88
 -30  26 -20 -101.38   74.95
 -29  27 -21  196.22   87.20
 -28  28 -22  -70.22   83.05
 -27  29 -23  351.15   92.85
 -26  30 -24  352.30   90.50
 -25  31 -25  108.60   87.47
 -33  23 -19  -26.12   62.35
 -32  24 -20   35.19   64.38
 -31  25 -21  -18.55   60.89
 -30  26 -22   56.39   71.53
 -29  27 -23  116.74   74.98
 -28  28 -24  439.12  103.83
 -27  29 -25  100.07   69.41
 -26  30 -26   79.56   82.63
 -34  22 -20   38.76   63.38
 -33  23 -21    0.54   56.93
 -32  24 -22   91.66   64.69
 -31  25 -23   85.09   60.81
 -30  26 -24  462.55   90.47
 -29  27 -25  282.77   83.74
 -28  28 -26  -83.78   84.24
 -34  22 -22  -47.36   54.28
 -33  23 -23  -80.32   53.97
 -32  24 -24  185.93   65.34
 -31  25 -25   58.04   61.58
 -30  26 -26   19.40   64.77
 -33  23 -25   65.80   59.04
 -34  22 -24   65.23   54.86
 -35  21 -23  -66.99   59.47
 -31  23 -27   83.40   71.60
 -32  22 -26  111.36   73.53
 -33  21 -25   59.66   67.15
 -34  20 -24  138.45   75.91
 -35  19 -23  -53.17   64.08
 -29  23 -29  -15.87   75.18
 -30  22 -28  147.05   77.87
 -31  21 -27  -74.10   75.95
 -32  20 -26  -58.08   72.45
 -33  19 -25  -11.18   60.12
 -34  18 -24   85.82   50.59
 -27  23 -31  -14.98   64.23
 -28  22 -30  150.05   80.52
 -29  21 -29  141.90   74.22
 -30  20 -28   -6.42   66.34
 -31  19 -27  128.15   66.57
 -32  18 -26  258.07   68.68
 -33  17 -25  290.68   81.09
 -34  16 -24   47.48   49.06
 -25  23 -33  130.69   84.86
 -26  22 -32  155.62   74.79
 -27  21 -31  -20.17   66.57
 -28  20 -30  -66.11   62.42
 -29  19 -29  108.37   56.05
 -30  18 -28  509.07   85.24
 -31  17 -27  265.60   78.13
 -32  16 -26   82.32   61.69
 -33  15 -25  154.12   62.58
 -34  14 -24   22.17   49.44
 -24  22 -34   51.44   75.10
 -25  21 -33  -73.64   70.95
 -26  20 -32   15.67   63.38
 -27  19 -31   77.44   60.16
 -28  18 -30  391.71   80.56
 -29  17 -29  494.47   91.20
 -30  16 -28  -65.04   65.19
 -31  15 -27  294.91   65.57
 -32  14 -26  157.31   64.23
 -33  13 -25   20.21   53.51
 -14  44   2  346.77   70.14
 -13  45   1  164.45   68.95
 -23  21 -35  -34.88   67.53
 -24  20 -34  164.38   87.24
 -25  19 -33   44.18   72.37
 -26  18 -32  193.07   71.95
 -27  17 -31  196.34   79.71
 -28  16 -30   31.69   64.27
 -29  15 -29  188.65   61.81
 -30  14 -28  459.63   80.94
 -31  13 -27    1.38   50.75
 -32  12 -26   27.66   54.51
 -33  11 -25    3.88   50.25
 -15  43   1  247.93   75.02
 -14  44   0    2.19   64.92
 -13  45  -1  254.30   72.30
 -21  21 -37 -207.63   92.35
 -22  20 -36   83.21   59.85
 -23  19 -35   59.93   77.87
 -24  18 -34  163.30   81.71
 -25  17 -33  246.12   81.25
 -26  16 -32   87.09   66.69
 -27  15 -31  358.68   77.60
 -28  14 -30  284.34   62.92
 -29  13 -29  -88.66   63.88
 -30  12 -28  -16.63   58.20
 -31  11 -27  -22.66   47.60
 -32  10 -26  166.53   54.63
 -17  41   1  130.65   66.50
 -16  42   0   65.23   68.49
 -15  43  -1  223.11   67.80
 -14  44  -2  246.12   74.91
 -13  45  -3   79.44   66.19
 -20  20 -38  -79.79   73.53
 -21  19 -37  -68.92   70.26
 -22  18 -36   89.31   70.41
 -23  17 -35  251.81   81.17
 -24  16 -34    2.34   65.07
 -25  15 -33   17.25   60.89
 -26  14 -32   73.56   61.92
 -27  13 -31   62.19   58.12
 -28  12 -30  -92.73   59.58
 -29  11 -29  -81.63   60.08
 -30  10 -28  111.48   60.85
 -31   9 -27  -29.96   59.54
 -32   8 -26    7.11   43.87
 -18  40   0   -5.76   53.05
 -17  41  -1   58.39   57.70
 -16  42  -2  126.77   66.73
 -15  43  -3   26.31   67.26
 -14  44  -4 -106.02   68.38
 -13  45  -5   18.98   75.22
 -19  19 -39  -22.93   61.08
 -20  18 -38  198.03   80.48
 -21  17 -37  -27.54   64.88
 -22  16 -36  -27.08   62.73
 -23  15 -35   89.20   64.38
 -24  14 -34  146.17   67.11
 -25  13 -33   40.03   55.55
 -26  12 -32   93.35   60.00
 -27  11 -31   60.46   61.08
 -28  10 -30  -22.78   56.58
 -29   9 -29  -38.34   49.32
 -30   8 -28   12.48   47.71
 -31   7 -27   37.34   43.79
 -19  39  -1  133.03   60.96
 -18  40  -2   78.56   73.29
 -17  41  -3  -59.66   56.51
 -16  42  -4  -46.52   64.19
 -15  43  -5   61.19   75.68
 -14  44  -6 -137.64   69.26
 -13  45  -7   32.96   78.33
 -18  18 -40  155.08   84.67
 -19  17 -39   59.20   71.80
 -20  16 -38   -5.61   66.42
 -21  15 -37    6.95   56.47
 -22  14 -36   -2.77   56.35
 -23  13 -35  -88.66   60.85
 -24  12 -34  -67.76   56.66
 -25  11 -33   69.80   60.54
 -26  10 -32   94.88   57.58
 -27   9 -31  163.80   55.36
 -28   8 -30   17.36   52.13
 -29   7 -29   19.94   46.79
 -30   6 -28   32.31   46.44
 -20  38  -2 -105.14   64.27
 -19  39  -3  139.02   74.52
 -18  40  -4   86.55   67.61
 -17  41  -5   76.68   60.66
 -16  42  -6   56.70   64.15
 -15  43  -7   84.20   73.64
 -14  44  -8   15.25   69.53
 -18  16 -40  -56.70   64.88
 -19  15 -39   30.77   69.49
 -20  14 -38 -105.79   63.88
 -21  13 -37   -2.92   55.05
 -22  12 -36  -11.99   59.50
 -23  11 -35   46.75   57.66
 -24  10 -34  372.50   68.95
 -25   9 -33   80.25   54.47
 -26   8 -32   17.06   49.36
 -27   7 -31   75.68   49.59
 -28   6 -30   35.38   47.79
 -29   5 -29  -15.56   45.25
 -30   4 -28   23.55   42.37
 -22  36  -2   39.87   46.60
 -21  37  -3   -2.46   45.98
 -20  38  -4   39.49   57.08
 -19  39  -5  239.32   80.21
 -18  40  -6  464.51   93.65
 -17  41  -7  150.66   75.60
 -16  42  -8  -89.62   74.37
 -15  43  -9  -74.64   73.60
 -14  44 -10  -53.01   79.90
 -17  15 -41   35.11   62.88
 -18  14 -40   50.71   73.83
 -19  13 -39  -45.98   61.62
 -20  12 -38  -57.51   56.09
 -21  11 -37  -24.16   61.42
 -22  10 -36  426.21   77.94
 -23   9 -35  224.84   61.77
 -24   8 -34   -8.80   54.74
 -25   7 -33   67.69   52.13
 -26   6 -32  101.57   51.74
 -27   5 -31   22.78   47.21
 -28   4 -30    7.41   41.99
 -29   3 -29  187.50   49.48
 -23  35  -3  -16.94   59.58
 -22  36  -4   20.24   59.58
 -21  37  -5  192.57   65.77
 -20  38  -6  400.28   74.95
 -19  39  -7  419.98   89.74
 -18  40  -8   96.11   73.53
 -17  41  -9  100.11   64.38
 -16  42 -10   10.37   76.29
 -15  43 -11  -16.29   63.35
 -16  14 -42  152.08   71.95
 -17  13 -41   11.52   61.39
 -18  12 -40   56.09   62.23
 -19  11 -39   26.35   66.42
 -20  10 -38  397.55   77.94
 -21   9 -37  316.30   73.83
 -22   8 -36  -72.18   56.58
 -23   7 -35  276.78   59.04
 -24   6 -34  148.16   56.39
 -25   5 -33    4.00   48.94
 -26   4 -32   18.55   45.79
 -27   3 -31   51.86   43.18
 -28   2 -30  634.84   65.07
 -29   1 -29  388.87   50.63
 -24  34  -4   68.19   59.89
 -23  35  -5   18.71   61.39
 -22  36  -6  370.47   79.02
 -21  37  -7  334.70   79.02
 -20  38  -8  -20.05   53.51
 -19  39  -9  127.31   82.28
 -18  40 -10  271.47   85.89
 -17  41 -11   71.03   77.10
 -16  42 -12   12.98   80.29
 -15  43 -13   25.89   80.02
 -15  13 -43   21.93   67.30
 -16  12 -42    4.80   57.78
 -17  11 -41  114.67   68.11
 -18  10 -40  200.98   69.61
 -19   9 -39  287.30   73.91
 -20   8 -38   37.68   57.08
 -21   7 -37  446.61   75.71
 -22   6 -36  445.99   69.26
 -23   5 -35   55.09   48.56
 -24   4 -34  -91.77   48.13
 -25   3 -33   49.44   48.25
 -26   2 -32  319.88   53.47
 -27   1 -31  197.80   46.40
 -28   0 -30   -6.57   33.73
 -25  33  -5   27.77   59.47
 -24  34  -6  255.38   74.60
 -23  35  -7  192.92   75.22
 -22  36  -8   53.66   68.88
 -21  37  -9  304.13   71.91
 -20  38 -10  491.05   98.19
 -19  39 -11  134.45   76.79
 -18  40 -12   40.37   70.61
 -17  41 -13   -3.57   79.67
 -16  42 -14  230.41   96.61
 -15  11 -43   44.33   70.57
 -16  10 -42  145.59   64.46
 -17   9 -41  205.52   70.49
 -18   8 -40  -70.87   59.58
 -19   7 -39  338.93   71.07
 -20   6 -38  511.18   74.56
 -21   5 -37  308.01   64.46
 -22   4 -36   40.57   50.63
 -23   3 -35  -34.80   45.71
 -24   2 -34  203.06   48.98
 -25   1 -33  166.33   48.75
 -26   0 -32   82.32   38.26
 -27  -1 -31  228.95   43.68
 -26  32  -6   40.30   59.73
 -25  33  -7  278.85   77.52
 -24  34  -8  -16.02   65.07
 -23  35  -9  105.72   69.22
 -22  36 -10  294.79   75.02
 -21  37 -11   98.73   75.48
 -20  38 -12  -31.46   74.75
 -19  39 -13  -99.22   60.73
 -18  40 -14   97.50   84.90
 -17  41 -15   57.81   75.18
 -14  10 -44   76.60   70.14
 -15   9 -43   68.49   57.12
 -16   8 -42  -65.46   66.84
 -17   7 -41  140.67   66.30
 -18   6 -40  443.15   77.60
 -19   5 -39  147.70   60.20
 -20   4 -38   30.04   48.90
 -21   3 -37   75.29   50.17
 -22   2 -36    4.46   44.45
 -23   1 -35   69.57   43.52
 -24   0 -34   30.85   37.07
 -25  -1 -33  179.93   47.60
 -26  -2 -32  268.59   43.60
 -27  31  -7   37.65   53.28
 -26  32  -8  -38.99   59.77
 -25  33  -9   88.70   64.65
 -24  34 -10  313.08   75.68
 -23  35 -11  117.01   60.23
 -22  36 -12  -36.49   80.48
 -21  37 -13 -175.98   87.55
 -20  38 -14   33.65   55.59
 -19  39 -15   39.80   80.90
 -18  40 -16    9.03   73.10
 -14   8 -44 -196.87   72.14
 -15   7 -43   19.25   55.82
 -16   6 -42  117.01   61.69
 -17   5 -41  122.16   59.73
 -18   4 -40  -37.92   53.05
 -19   3 -39   12.95   52.70
 -20   2 -38   34.57   48.48
 -21   1 -37   17.17   43.83
 -22   0 -36   69.57   44.83
 -23  -1 -35   71.87   39.61
 -24  -2 -34  151.54   44.91
 -25  -3 -33   47.83   31.23
 -27  31  -9  -28.85   49.36
 -26  32 -10   77.02   58.35
 -25  33 -11   53.17   47.56
 -24  34 -12  -76.18   65.00
 -23  35 -13 -141.94   77.33
 -22  36 -14  149.01   83.44
 -21  37 -15  -38.15   64.04
 -20  38 -16    8.60   77.71
 -19  39 -17  -93.85   76.94
 -18  40 -18  140.64   76.79
 -13   7 -45   62.19   65.34
 -14   6 -44   98.46   62.42
 -15   5 -43   17.06   55.55
 -16   4 -42  -78.06   53.20
 -17   3 -41   14.79   50.02
 -18   2 -40  -20.17   48.40
 -19   1 -39   26.54   47.83
 -20   0 -38  -10.26   45.29
 -21  -1 -37   88.74   42.76
 -22  -2 -36   92.73   39.11
 -23  -3 -35   64.81   36.72
 -28  30 -10  -84.36   64.46
 -27  31 -11   12.29   64.92
 -26  32 -12  -13.45   66.26
 -25  33 -13  124.96   71.83
 -24  34 -14  101.91   77.75
 -23  35 -15  114.47   66.99
 -22  36 -16  -93.88   79.63
 -21  37 -17  112.40   79.83
 -20  38 -18  157.04   90.04
 -19  39 -19   97.65   71.30
 -13   5 -45  -34.61   60.16
 -14   4 -44   17.86   57.62
 -15   3 -43   18.17   51.28
 -16   2 -42  145.97   58.66
 -17   1 -41   21.97   48.56
 -18   0 -40    9.45   48.29
 -19  -1 -39   44.79   43.33
 -20  -2 -38   22.05   38.64
 -29  29 -11   81.59   64.77
 -28  30 -12  129.84   74.79
 -27  31 -13  238.13   81.71
 -26  32 -14  152.89   78.94
 -25  33 -15   66.03   66.23
 -24  34 -16   53.36   67.99
 -23  35 -17   65.69   79.94
 -22  36 -18   -6.76   60.31
 -21  37 -19   20.71   82.21
 -20  38 -20  -25.97   68.30
 -13   3 -45  120.05   61.46
 -14   2 -44  394.82   71.45
 -15   1 -43  134.60   55.43
 -16   0 -42   39.37   51.55
 -17  -1 -41  -46.71   49.02
 -30  28 -12   -6.72   46.37
 -29  29 -13   93.42   56.85
 -28  30 -14  474.11   80.75
 -27  31 -15  273.09   69.26
 -26  32 -16  -31.65   75.22
 -25  33 -17   93.69   77.71
 -24  34 -18    0.65   70.84
 -23  35 -19 -134.49   86.82
 -22  36 -20 -115.13   77.98
 -21  37 -21  -44.25   82.09
 -13   1 -45  197.41   60.08
 -31  27 -13  205.06   75.95
 -30  28 -14  388.64   85.70
 -29  29 -15  334.97   86.55
 -28  30 -16   67.34   74.72
 -27  31 -17  303.55   87.35
 -26  32 -18  110.17   71.26
 -25  33 -19   28.43   75.83
 -24  34 -20   86.89   83.28
 -23  35 -21  -87.24   76.44
 -31  27 -15  282.12   65.38
 -30  28 -16 -125.73   63.96
 -29  29 -17  251.81   67.23
 -28  30 -18  434.24   88.08
 -27  31 -19   50.55   72.18
 -26  32 -20   75.06   80.13
 -25  33 -21 -124.89   67.49
 -24  34 -22    0.65   85.32
 -32  26 -16   85.24   68.45
 -31  27 -17  182.66   77.33
 -30  28 -18  437.08   88.89
 -29  29 -19  156.88   83.67
 -28  30 -20  -17.06   65.69
 -27  31 -21  139.06   77.48
 -26  32 -22 -127.46   86.47
 -25  33 -23   99.30   70.91
 -33  25 -17  217.39   79.79
 -32  26 -18  283.92   71.14
 -31  27 -19  302.97   86.85
 -30  28 -20  110.21   71.53
 -29  29 -21   -6.15   79.21
 -28  30 -22   14.25   76.75
 -27  31 -23   47.56   70.26
 -33  25 -19   -7.95   49.79
 -32  26 -20  -18.67   57.01
 -31  27 -21   27.66   52.74
 -30  28 -22 -104.41   70.99
 -29  29 -23 -178.55   86.70
 -34  24 -20   34.04   57.70
 -33  25 -21  -72.26   62.23
 -32  26 -22   45.83   63.00
 -31  27 -23  101.88   67.61
 -35  23 -21  130.03   69.26
 -34  24 -22  -24.70   63.81
 -33  25 -23  113.36   70.68
 -34  20 -26   44.10   72.64
 -35  19 -25  330.94   71.07
 -31  21 -29   -2.07   72.99
 -32  20 -28  218.42   80.63
 -33  19 -27   27.39   59.16
 -34  18 -26   23.36   55.70
 -35  17 -25   86.32   58.77
 -29  21 -31   14.21   60.39
 -30  20 -30  465.24   91.35
 -31  19 -29  174.17   61.39
 -32  18 -28  -40.57   66.50
 -33  17 -27  290.60   78.17
 -34  16 -26  383.61   74.49
 -28  20 -32  267.79   76.37
 -29  19 -31  259.95   71.80
 -30  18 -30  -56.47   73.72
 -31  17 -29  509.38   88.24
 -32  16 -28 1041.45  101.84
 -33  15 -27  139.60   63.73
 -34  14 -26   49.79   57.89
 -26  20 -34  -23.20   73.41
 -27  19 -33  160.84   79.40
 -28  18 -32  -42.76   72.49
 -29  17 -31  716.89  100.07
 -30  16 -30 1209.67  115.01
 -31  15 -29  489.51   80.02
 -32  14 -28   87.89   62.42
 -33  13 -27   54.39   54.70
 -34  12 -26   38.11   44.45
 -15  45   1  298.94   70.11
 -25  19 -35  -82.71   72.95
 -26  18 -34  -33.27   68.34
 -27  17 -33  261.10   76.98
 -28  16 -32 1123.58  112.86
 -29  15 -31  444.34   82.01
 -30  14 -30  -43.75   64.77
 -31  13 -29  115.20   54.05
 -32  12 -28    8.60   54.05
 -33  11 -27  107.48   58.35
 -16  44   0  663.65   93.19
 -15  45  -1  446.61   86.28
 -24  18 -36  -17.17   62.58
 -25  17 -35   31.23   55.55
 -26  16 -34  202.60   68.45
 -27  15 -33  236.29   66.84
 -28  14 -32   43.41   61.50
 -29  13 -31  129.38   59.16
 -30  12 -30  291.14   71.18
 -31  11 -29   11.56   50.75
 -32  10 -28   34.15   50.63
 -33   9 -27   23.97   44.21
 -18  42   0  145.71   68.68
 -17  43  -1  142.98   63.27
 -16  44  -2   61.92   62.54
 -22  18 -38  -74.22   74.22
 -23  17 -37    1.57   66.19
 -24  16 -36  -46.06   60.81
 -25  15 -35  -54.55   60.73
 -26  14 -34   -0.35   60.96
 -27  13 -33  266.63   77.10
 -28  12 -32  142.06   57.66
 -29  11 -31  130.34   58.54
 -30  10 -30   64.96   58.54
 -31   9 -29  -32.54   53.32
 -32   8 -28   17.63   49.36
 -19  41  -1   21.90   55.82
 -18  42  -2   36.38   63.61
 -17  43  -3   86.13   69.72
 -16  44  -4  153.81   66.15
 -21  17 -39   22.51   67.49
 -22  16 -38  138.68   71.03
 -23  15 -37    5.49   66.03
 -24  14 -36  -57.43   70.53
 -25  13 -35    7.53   61.92
 -26  12 -34   -3.65   59.81
 -27  11 -33   51.28   60.16
 -28  10 -32  -77.98   56.51
 -29   9 -31   92.46   55.28
 -30   8 -30   91.70   54.93
 -31   7 -29   88.47   49.06
 -20  40  -2  -27.66   60.46
 -19  41  -3  -84.32   68.11
 -18  42  -4  -49.13   65.19
 -17  43  -5  -13.06   70.95
 -16  44  -6   69.57   61.16
 -21  15 -39  -50.82   78.94
 -22  14 -38   82.05   68.92
 -23  13 -37   17.59   66.07
 -24  12 -36  190.57   70.45
 -25  11 -35  197.07   65.11
 -26  10 -34  -35.49   55.43
 -27   9 -33   28.47   50.36
 -28   8 -32   46.44   53.01
 -29   7 -31   68.19   49.29
 -30   6 -30   30.89   47.94
 -31   5 -29  194.26   50.05
 -21  39  -3  132.49   68.26
 -20  40  -4  393.33   90.77
 -19  41  -5  252.84   73.53
 -18  42  -6   28.85   69.61
 -17  43  -7  -97.46   80.48
 -20  14 -40   19.40   57.70
 -21  13 -39  145.40   71.99
 -22  12 -38  413.34   79.21
 -23  11 -37  229.14   65.42
 -24  10 -36   25.78   55.66
 -25   9 -35  353.11   73.37
 -26   8 -34  202.67   63.42
 -27   7 -33   88.78   55.62
 -28   6 -32   45.64   53.86
 -29   5 -31  125.50   49.13
 -30   4 -30  635.41   68.53
 -22  38  -4  544.22   85.51
 -21  39  -5  454.44   91.12
 -20  40  -6   95.46   79.48
 -19  41  -7  285.65   78.06
 -18  42  -8  384.72   93.19
 -17  43  -9   58.01   72.07
 -19  13 -41    7.03   67.65
 -20  12 -40  172.71   66.07
 -21  11 -39  120.31   62.54
 -22  10 -38   78.52   59.04
 -23   9 -37  519.67   80.63
 -24   8 -36  780.23   86.62
 -25   7 -35  193.99   58.24
 -26   6 -34   36.34   52.67
 -27   5 -33  -40.91   49.48
 -28   4 -32  332.78   58.70
 -29   3 -31  444.80   63.69
 -30   2 -30   42.33   39.61
 -24  36  -4  123.04   60.62
 -23  37  -5  304.40   70.91
 -22  38  -6   -1.46   56.12
 -21  39  -7  699.53  104.56
 -20  40  -8  920.18  109.87
 -19  41  -9  255.69   77.87
 -18  42 -10    3.80   80.02
 -18  12 -42  -13.83   67.07
 -19  11 -41  164.72   77.33
 -20  10 -40   38.95   56.20
 -21   9 -39  413.19   79.02
 -22   8 -38 1475.38  115.74
 -23   7 -37  601.99   82.48
 -24   6 -36  -31.85   50.02
 -25   5 -35   95.23   51.90
 -26   4 -34   96.77   48.17
 -27   3 -33   84.82   48.40
 -28   2 -32   22.51   37.53
 -29   1 -31  627.88   62.62
 -25  35  -5   10.41   60.08
 -24  36  -6   -0.81   56.32
 -23  37  -7  709.17   93.12
 -22  38  -8 1359.14  124.27
 -21  39  -9  684.47  111.86
 -20  40 -10  -48.25   65.42
 -19  41 -11  144.78   86.36
 -18  42 -12   54.01   67.30
 -18  10 -42    8.18   71.14
 -19   9 -41  131.34   63.19
 -20   8 -40 1006.27   99.26
 -21   7 -39  592.81   84.28
 -22   6 -38  -10.26   51.13
 -23   5 -37  335.74   67.53
 -24   4 -36  171.33   55.93
 -25   3 -35   57.81   47.10
 -26   2 -34   73.72   45.18
 -27   1 -33  288.91   51.63
 -28   0 -32  789.88   69.03
 -26  34  -6   57.43   59.47
 -25  35  -7  283.81   73.10
 -24  36  -8 1036.27  107.45
 -23  37  -9  482.75   87.78
 -22  38 -10  -63.92   74.68
 -21  39 -11  232.98   81.09
 -20  40 -12  207.86   81.36
 -19  41 -13  -46.94   75.68
 -17   9 -43   38.34   58.01
 -18   8 -42  394.67   79.79
 -19   7 -41  282.61   71.64
 -20   6 -40   58.58   58.16
 -21   5 -39  426.78   70.30
 -22   4 -38  576.29   73.79
 -23   3 -37  146.32   49.17
 -24   2 -36   90.31   47.98
 -25   1 -35   95.88   47.10
 -26   0 -34  265.94   52.21
 -27  -1 -33  285.65   48.09
 -27  33  -7  -48.33   58.97
 -26  34  -8  246.20   67.69
 -25  35  -9  482.95   81.48
 -24  36 -10  -34.80   67.57
 -23  37 -11  317.07   89.58
 -22  38 -12  214.97   79.44
 -21  39 -13   28.73   75.25
 -20  40 -14   87.43   76.83
 -17   7 -43   86.24   57.70
 -18   6 -42   -4.19   53.01
 -19   5 -41   92.81   54.13
 -20   4 -40  172.60   61.58
 -21   3 -39   64.34   52.67
 -22   2 -38  -20.67   44.45
 -23   1 -37   39.61   43.22
 -24   0 -36  -16.56   39.84
 -25  -1 -35    6.68   39.37
 -27  33  -9   -1.34   51.05
 -26  34 -10   42.87   66.00
 -25  35 -11  -64.69   74.45
 -24  36 -12  138.75   83.21
 -23  37 -13  132.57   74.68
 -22  38 -14  112.86   87.09
 -21  39 -15 -102.76   82.67
 -16   6 -44  -54.66   56.55
 -17   5 -43   50.51   61.69
 -18   4 -42   44.56   51.94
 -19   3 -41  110.98   55.39
 -20   2 -40   71.30   51.71
 -21   1 -39   41.60   42.03
 -22   0 -38  -14.56   41.22
 -28  32 -10  -25.08   64.27
 -27  33 -11  123.96   76.21
 -26  34 -12  220.69   83.74
 -25  35 -13  -20.86   73.18
 -24  36 -14  207.98   73.87
 -23  37 -15  121.01   88.47
 -22  38 -16  -72.37   74.45
 -21  39 -17  -26.66   85.05
 -16   4 -44  106.98   59.27
 -17   3 -43  100.68   55.97
 -18   2 -42  -26.16   48.56
 -19   1 -41  -50.75   50.86
 -29  31 -11  -77.21   71.03
 -28  32 -12  -28.81   70.03
 -27  33 -13   47.25   68.99
 -26  34 -14  -83.21   59.47
 -25  35 -15  133.11   77.17
 -24  36 -16  -33.80   78.75
 -23  37 -17   -4.34   61.35
 -22  38 -18  171.21   87.70
 -30  30 -12  259.60   64.73
 -29  31 -13  393.56   81.59
 -28  32 -14   60.62   57.39
 -27  33 -15  204.52   80.52
 -26  34 -16  192.57   80.06
 -25  35 -17   85.51   68.65
 -24  36 -18  -26.16   77.33
 -31  29 -13   93.04   63.23
 -30  30 -14  -23.78   73.03
 -29  31 -15  536.15   93.69
 -28  32 -16  985.98  116.01
 -27  33 -17  285.27   82.13
 -26  34 -18   29.62   68.03
 -25  35 -19  -92.43   87.24
 -32  28 -14   71.34   60.39
 -31  29 -15  569.88   92.00
 -30  30 -16 1322.30  123.96
 -29  31 -17  645.86   91.46
 -28  32 -18   11.29   75.60
 -27  33 -19  240.21   89.77
 -26  34 -20   27.50   62.00
 -32  28 -16 1032.92  117.24
 -31  29 -17  698.14  104.22
 -30  30 -18  -50.90   81.67
 -29  31 -19  399.51   89.47
 -28  32 -20  330.75   86.51
 -33  27 -17  283.84   71.22
 -32  28 -18   50.75   59.50
 -31  29 -19  312.85   79.56
 -30  30 -20  461.93   97.27
 -29  31 -21  182.05   88.74
 -34  26 -18   -4.84   62.42
 -33  27 -19  -35.53   64.46
 -32  28 -20  154.08   77.02
 -31  29 -21  103.99   61.31
 -34  26 -20   52.59   72.26
 -35  17 -27  231.98   70.87
 -32  18 -30 1620.05  131.76
 -33  17 -29  627.19   92.23
 -34  16 -28   15.17   54.82
 -35  15 -27   73.83   56.09
 -30  18 -32 1386.41  128.57
 -31  17 -31  959.94  110.44
 -32  16 -30   72.68   53.93
 -33  15 -29  583.48   85.70
 -34  14 -28  389.94   73.29
 -29  17 -33  673.94   95.92
 -30  16 -32   57.54   60.20
 -31  15 -31  697.07   93.50
 -32  14 -30 1174.33  109.60
 -33  13 -29  307.78   69.15
 -34  12 -28  -46.21   49.98
 -27  17 -35  100.57   59.43
 -28  16 -34  125.42   64.42
 -29  15 -33  458.05   82.51
 -30  14 -32  980.14  106.18
 -31  13 -31  412.03   73.72
 -32  12 -30   63.73   59.81
 -33  11 -29  -44.83   55.51
 -26  16 -36  -90.77   78.60
 -27  15 -35  187.81   73.18
 -28  14 -34  400.78   85.24
 -29  13 -33  247.24   66.84
 -30  12 -32   11.37   57.62
 -31  11 -31  194.07   64.46
 -32  10 -30  172.40   57.31
 -33   9 -29  -31.42   52.59
 -19  43  -1  117.82   66.42
 -25  15 -37    5.49   66.80
 -26  14 -36  -14.75   66.57
 -27  13 -35   14.29   62.54
 -28  12 -34   17.36   59.16
 -29  11 -33  151.28   62.81
 -30  10 -32  148.55   63.84
 -31   9 -31  120.31   55.24
 -32   8 -30  -12.18   46.29
 -20  42  -2   98.46   69.41
 -19  43  -3   48.75   67.34
 -24  14 -38   77.44   63.31
 -25  13 -37   -9.53   56.01
 -26  12 -36  -78.25   64.96
 -27  11 -35  108.98   65.00
 -28  10 -34   33.57   57.08
 -29   9 -33   -7.49   51.13
 -30   8 -32   28.23   48.25
 -31   7 -31  177.13   59.93
 -32   6 -30  361.25   61.50
 -21  41  -3   56.74   61.58
 -20  42  -4 -107.91   62.85
 -19  43  -5  185.04   91.93
 -23  13 -39  235.10   74.22
 -24  12 -38   65.73   59.04
 -25  11 -37  243.47   75.68
 -26  10 -36  434.39   78.79
 -27   9 -35  151.81   59.43
 -28   8 -34    9.53   54.82
 -29   7 -33   12.56   47.86
 -30   6 -32  358.87   63.69
 -31   5 -31  394.48   60.85
 -22  40  -4   23.51   69.22
 -21  41  -5  444.30   80.71
 -20  42  -6  547.06   89.20
 -22  12 -40  107.14   71.68
 -23  11 -39  584.74   90.39
 -24  10 -38 1350.65  115.47
 -25   9 -37  417.49   70.87
 -26   8 -36   14.60   54.59
 -27   7 -35   13.21   52.28
 -28   6 -34   22.89   49.21
 -29   5 -33   93.92   52.78
 -30   4 -32    1.69   44.98
 -23  39  -5  616.67   92.77
 -22  40  -6 1566.42  134.45
 -21  41  -7  668.30   96.46
 -20  42  -8  101.41   76.98
 -21  11 -41  298.71   76.56
 -22  10 -40 1226.00  112.25
 -23   9 -39  755.30   89.74
 -24   8 -38   43.72   58.77
 -25   7 -37  639.91   80.98
 -26   6 -36  465.20   72.41
 -27   5 -35  -39.68   49.36
 -28   4 -34  -36.80   50.25
 -29   3 -33  406.27   60.16
 -30   2 -32 1458.63   87.62
 -25  37  -5  364.44   72.45
 -24  38  -6 1640.60  128.61
 -23  39  -7 1043.49  118.35
 -22  40  -8   44.75   67.80
 -21  41  -9  555.66   92.08
 -21   9 -41  553.32   86.70
 -22   8 -40  -28.54   59.43
 -23   7 -39 1111.67  100.26
 -24   6 -38 1492.55  113.28
 -25   5 -37  394.98   69.76
 -26   4 -36  -68.88   49.94
 -27   3 -35  -29.23   47.25
 -28   2 -34  552.05   64.50
 -29   1 -33  525.74   59.85
 -26  36  -6  432.43   75.68
 -25  37  -7  621.20   86.28
 -24  38  -8 -200.56   86.43
 -23  39  -9  676.98  101.68
 -22  40 -10 1233.26  120.20
 -21  41 -11  337.36   94.92
 -20   8 -42   99.65   67.46
 -21   7 -41  492.70   82.13
 -22   6 -40 1537.42  112.09
 -23   5 -39  714.93   82.51
 -24   4 -38  -15.14   48.56
 -25   3 -37   24.43   47.36
 -26   2 -36   50.44   44.37
 -27   1 -35   46.48   40.26
 -27  35  -7    2.04   50.32
 -26  36  -8   -1.88   54.74
 -25  37  -9  580.90   96.11
 -24  38 -10 1299.83  129.76
 -23  39 -11  526.16   87.89
 -22  40 -12  166.72   85.89
 -20   6 -42  653.28   85.28
 -21   5 -41  306.12   68.95
 -22   4 -40  -10.49   49.90
 -23   3 -39  277.58   62.62
 -24   2 -38  221.19   56.81
 -27  35  -9   17.59   60.69
 -26  36 -10  561.54   95.73
 -25  37 -11   89.51   73.41
 -24  38 -12   53.59   62.73
 -23  39 -13  177.36   86.55
 -19   5 -43   -3.92   55.12
 -20   4 -42  -56.70   54.55
 -21   3 -41   63.08   53.36
 -28  34 -10  138.14   73.64
 -27  35 -11   -2.50   75.10
 -26  36 -12  -56.81   70.95
 -25  37 -13    8.95   65.07
 -24  38 -14   40.49   78.60
 -29  33 -11   96.19   73.33
 -28  34 -12  -15.67   64.96
 -27  35 -13  184.08   70.11
 -26  36 -14  -82.48   80.98
 -25  37 -15   20.17   79.44
 -30  32 -12   64.15   59.70
 -29  33 -13  283.81   74.10
 -28  34 -14  311.00   85.97
 -27  35 -15  124.50   85.24
 -26  36 -16  -21.36   66.26
 -31  31 -13  618.97   93.46
 -30  32 -14 1112.14  119.20
 -29  33 -15  516.98  103.26
 -28  34 -16   93.27   74.33
 -27  35 -17   16.75   69.34
 -32  30 -14 1244.86  116.70
 -31  31 -15  857.06  106.33
 -30  32 -16   25.74   61.04
 -29  33 -17  551.40  101.15
 -32  30 -16   13.68   71.99
 -31  31 -17 1019.33  119.85
 -30  32 -18 1565.23  143.06
 -33  29 -17  562.23   86.97
 -32  30 -18 1390.56  125.15
 -34  14 -30  -27.54   59.81
 -35  13 -29  160.42   61.81
 -32  14 -32   59.27   62.96
 -33  13 -31  522.44   82.40
 -34  12 -30  178.36   56.74
 -30  14 -34   13.29   56.09
 -31  13 -33  353.84   80.79
 -32  12 -32  590.85   76.52
 -33  11 -31  159.57   62.31
 -34  10 -30  -25.39   49.13
 -29  13 -35  194.45   74.10
 -30  12 -34  221.77   72.80
 -31  11 -33  190.65   66.53
 -32  10 -32  -65.65   51.17
 -33   9 -31  174.21   60.66
 -28  12 -36  -22.74   59.85
 -29  11 -35   31.88   55.82
 -30  10 -34  -84.67   58.54
 -31   9 -33  307.35   72.49
 -32   8 -32  314.73   67.15
 -33   7 -31   54.13   46.87
 -27  11 -37  145.32   66.15
 -28  10 -36  101.07   64.11
 -29   9 -35  104.79   60.00
 -30   8 -34  -23.78   52.55
 -31   7 -33  160.38   57.78
 -32   6 -32   84.17   48.56
 -26  10 -38   42.18   58.97
 -27   9 -37  331.90   72.26
 -28   8 -36  165.60   66.07
 -29   7 -35    4.96   52.67
 -30   6 -34   35.80   50.90
 -31   5 -33  413.61   66.73
 -23  41  -5  690.04   97.73
 -25   9 -39  799.17   90.85
 -26   8 -38 1097.50  101.41
 -27   7 -37  242.74   62.85
 -28   6 -36  105.95   54.47
 -29   5 -35  164.26   75.60
 -30   4 -34  586.74   71.34
 -31   3 -33  676.55   69.88
 -24  40  -6  -84.40   78.17
 -24   8 -40 1729.69  122.35
 -25   7 -39  877.73   90.39
 -26   6 -38 -147.97   59.04
 -27   5 -37  222.00   63.27
 -28   4 -36   -3.50   48.21
 -29   3 -35  203.90   54.82
 -25  39  -7 1258.19  125.81
 -24  40  -8 2316.77  161.57
 -24   6 -40  -46.75   54.97
 -25   5 -39  630.03   81.86
 -26   4 -38  517.67   71.87
 -26  38  -8 1451.95  131.11
 -25  39  -9  986.67  115.67
 -23   5 -41  669.03   85.09
 -27  37  -9  325.64   89.47
 -26  38 -10  102.91   76.21
 -28  36 -10    0.42   71.22
 -27  37 -11  177.51   75.45
 -29  35 -11   11.68   67.07
 -28  36 -12  -83.82   55.20
 -30  34 -12  278.50   70.07
 -29  35 -13   96.38   67.65
 -31  33 -13  350.88   88.28
 -30  34 -14   91.43   83.86
 -32  32 -14  -26.51   69.30
 -32   8 -34  -37.34   50.28
 -33   7 -33   79.83   47.40
 -31   7 -35   82.36   55.01
 -32   6 -34  225.72   57.39
 -30   6 -36   -3.65   49.71
 -31   5 -35  200.33   58.43
   0   0   0    0.00    0.00


_computing_structure_solution     'SHELXT 2014/5 (Sheldrick, 2014)'
_computing_structure_solution     'SHELXT 2014/5 (Sheldrick, 2014)'
;
_shelx_hkl_checksum              17011
_shelx_fab_checksum              90260
_shelx_fab_file
;
    1    1    5   -822.47      0.00
    1    3    3     -4.85      0.00
    2    2    4     21.13      0.00
    0    2    6   -115.55      0.00
    1    3    7   -203.51      0.00
    1    3    5     52.28      0.00
    2    2    8    287.56      0.00
    1    1    7     57.77      0.00
    3    3    3    185.55      0.00
    2    4    4    -10.23      0.00
    1    5    5   -292.92      0.00
    2    4    6   -248.37      0.00
    3    3    5    320.21      0.00
    1    3    9     36.61      0.00
    2    4   10     94.16      0.00
    2    2    6    104.93      0.00
    0    4    4    610.16      0.00
    0    4    8   -116.91      0.00
    1    5    9   -124.78      0.00
    1    5    7    -86.22      0.00
    3    3   11    -83.14      0.00
    2    2   10    199.24      0.00
    1    1    9    252.60      0.00
    0    0    8    -43.00      0.00
    4    4    4    474.66      0.00
    3    5    5    147.98      0.00
    2    6    6    197.72      0.00
    1    7    7     -4.17      0.00
    1    7    9     67.18      0.00
    2    6    8     13.61      0.00
    3    5    7    -27.25      0.00
    4    4    6     92.75      0.00
    0    2   10   -215.24      0.00
    1    3   11      9.80      0.00
    2    4   12     -6.30      0.00
    3    5   13     -3.85      0.00
    2    4    8    -56.94      0.00
    3    3    7    -18.45      0.00
    1    5   11    -76.76      0.00
    2    6   12     72.92      0.00
    0    6   10     46.78      0.00
    1    7   11     80.80      0.00
    2    8   12      3.45      0.00
    1    9   11     -3.01      0.00
    5    5   15     72.08      0.00
    4    4   14     13.70      0.00
    3    3   13    -61.63      0.00
    2    2   12     39.05      0.00
    1    1   11     86.46      0.00
    5    5    5    166.22      0.00
    4    6    6   -234.96      0.00
    3    7    7      6.86      0.00
    2    8    8    -30.24      0.00
    1    9    9     43.06      0.00
    0   10   10   -150.89      0.00
    2    8   10     45.78      0.00
    3    7    9    -27.37      0.00
    4    6    8     67.23      0.00
    5    5    7    -82.92      0.00
    1    3   13    -25.82      0.00
    2    4   14      6.97      0.00
    3    5   15    -35.03      0.00
    4    6   16      7.70      0.00
    5    7   17     -6.85      0.00
    6    8   18     -4.00      0.00
    2    6   10     53.23      0.00
    3    5    9     56.20      0.00
    4    4    8     20.31      0.00
    0    4   12   -139.41      0.00
    1    5   13     24.10      0.00
    2    6   14     16.55      0.00
    3    7   15      9.32      0.00
    4    8   16    -15.01      0.00
    3    3    9     64.66      0.00
    0    6    6   -182.68      0.00
    1    7   13    122.19      0.00
    2    8   14    -40.26      0.00
    3    9   15     13.32      0.00
    0    8   12     -9.60      0.00
    1    9   13    -44.19      0.00
    2   10   14    -34.52      0.00
    3   11   15    -19.95      0.00
    1   11   13     17.27      0.00
    2   12   14    -33.43      0.00
    7    7   19    -37.98      0.00
    6    6   18      0.79      0.00
    5    5   17    -27.34      0.00
    4    4   16     -8.61      0.00
    3    3   15    -58.96      0.00
    2    2   14     63.70      0.00
    1    1   13    272.92      0.00
    0    0   12     68.34      0.00
    6    6    6     -1.35      0.00
    5    7    7     39.43      0.00
    4    8    8     55.53      0.00
    3    9    9     -0.42      0.00
    2   10   10    -15.75      0.00
    1   11   11     85.07      0.00
    0   12   12    109.26      0.00
    1   13   13    -31.05      0.00
    2   10   12      9.51      0.00
    3    9   11      3.09      0.00
    4    8   10    -41.43      0.00
    5    7    9     95.38      0.00
    6    6    8     44.08      0.00
    0    2   14     18.62      0.00
    1    3   15     23.04      0.00
    2    4   16     24.30      0.00
    3    5   17    -14.15      0.00
    4    6   18     40.71      0.00
    5    7   19    -21.24      0.00
    6    8   20    -25.81      0.00
    7    9   21      3.90      0.00
    8   10   22     -4.71      0.00
    9   11   23     -0.97      0.00
   10   12   24      3.00      0.00
   18   20   32    -34.54      0.00
   19   21   33    -11.53      0.00
   20   22   34     12.31      0.00
   21   23   35     -2.77      0.00
    3    7   11     -3.39      0.00
    4    6   10    -17.74      0.00
    5    5    9    -12.70      0.00
    1    5   15     50.05      0.00
    2    6   16     -8.10      0.00
    3    7   17    -30.84      0.00
    4    8   18     17.36      0.00
    5    9   19    -44.70      0.00
    6   10   20    -11.50      0.00
    7   11   21      5.74      0.00
    8   12   22     36.41      0.00
   18   22   32    -13.85      0.00
   19   23   33    -50.33      0.00
   20   24   34   -139.95      0.00
    3    5   11     -6.03      0.00
    4    4   10    -34.92      0.00
    0    6   14     72.46      0.00
    1    7   15      0.24      0.00
    2    8   16    -43.83      0.00
    3    9   17    -13.63      0.00
    4   10   18    -33.22      0.00
    5   11   19    -13.00      0.00
    6   12   20     20.57      0.00
    7   13   21     45.03      0.00
   18   24   32    119.36      0.00
   19   25   33    104.87      0.00
   20   26   34     18.41      0.00
    1    9   15    -26.69      0.00
    2   10   16    -16.31      0.00
    3   11   17    -35.82      0.00
    4   12   18    -24.38      0.00
    5   13   19    -57.07      0.00
   18   26   32      2.64      0.00
   19   27   33     20.94      0.00
    0   10   14    -67.91      0.00
    1   11   15     -4.30      0.00
    2   12   16     23.90      0.00
    3   13   17     27.95      0.00
    4   14   18    -11.54      0.00
   18   28   32     79.35      0.00
    1   13   15    -53.40      0.00
    2   14   16     -6.86      0.00
    3   15   17     12.40      0.00
    4   16   18    -25.07      0.00
   17   29   31     -7.51      0.00
   18   30   32     -6.51      0.00
   21   21   35      6.14      0.00
   20   20   34    -30.19      0.00
   19   19   33      0.19      0.00
   18   18   32     -7.56      0.00
   17   17   31     55.18      0.00
   16   16   30    -84.78      0.00
   12   12   26     48.24      0.00
   11   11   25     -6.43      0.00
   10   10   24     -0.35      0.00
    9    9   23     10.90      0.00
    8    8   22     65.04      0.00
    7    7   21     35.07      0.00
    6    6   20    -47.86      0.00
    5    5   19    -19.93      0.00
    4    4   18     44.36      0.00
    3    3   17    -54.48      0.00
    2    2   16    -18.58      0.00
    1    1   15     18.23      0.00
    7    7    7     13.20      0.00
    6    8    8    -44.64      0.00
    5    9    9    -80.65      0.00
    4   10   10    -22.22      0.00
    3   11   11      5.30      0.00
    2   12   12     43.32      0.00
    0   14   14   -178.20      0.00
    1   15   15     -1.70      0.00
    2   16   16      3.51      0.00
    3   17   17     13.15      0.00
   16   30   30      6.96      0.00
   17   31   31     -6.71      0.00
   16   30   32     79.13      0.00
    2   16   18      2.27      0.00
    1   15   17      9.63      0.00
    3   11   13    -10.84      0.00
    4   10   12     12.33      0.00
    5    9   11     -4.72      0.00
    6    8   10      4.52      0.00
    7    7    9     24.51      0.00
    1    3   17     -0.36      0.00
    2    4   18    -15.49      0.00
    3    5   19    -34.99      0.00
    4    6   20    -22.55      0.00
    5    7   21    -12.90      0.00
    6    8   22     28.09      0.00
    7    9   23     15.15      0.00
    8   10   24      4.07      0.00
    9   11   25    -16.05      0.00
   10   12   26     -6.33      0.00
   11   13   27      2.35      0.00
   12   14   28    -45.12      0.00
   13   15   29     22.27      0.00
   14   16   30      9.75      0.00
   15   17   31     10.00      0.00
   16   18   32    -82.45      0.00
   17   19   33      9.81      0.00
   18   20   34    -18.19      0.00
   19   21   35    -13.02      0.00
   20   22   36     -8.90      0.00
    0   12   16      5.28      0.00
    3    9   13     -2.29      0.00
    4    8   12    -10.11      0.00
    5    7   11    -11.65      0.00
    6    6   10     52.02      0.00
    0    4   16    -39.49      0.00
    1    5   17     14.10      0.00
    2    6   18      6.60      0.00
    3    7   19    -60.17      0.00
    4    8   20    -41.18      0.00
    5    9   21      7.32      0.00
    6   10   22     30.49      0.00
    7   11   23    -31.50      0.00
    8   12   24     -6.77      0.00
    9   13   25    -13.47      0.00
   10   14   26    -21.72      0.00
   11   15   27      8.74      0.00
   12   16   28     -6.33      0.00
   13   17   29    -14.85      0.00
   14   18   30     13.59      0.00
   15   19   31     11.13      0.00
   16   20   32    -36.14      0.00
   17   21   33     -3.14      0.00
   18   22   34     89.86      0.00
   19   23   35      3.47      0.00
    3    7   13     -4.70      0.00
    4    6   12     27.14      0.00
    5    5   11    -59.94      0.00
    1    7   17     -0.08      0.00
    2    8   18     -6.79      0.00
    3    9   19     15.76      0.00
    4   10   20     14.32      0.00
    5   11   21    -35.15      0.00
    6   12   22     -9.57      0.00
    7   13   23     13.52      0.00
    8   14   24    -16.67      0.00
    9   15   25    -12.26      0.00
   10   16   26      1.61      0.00
   11   17   27     43.76      0.00
   12   18   28      4.37      0.00
   13   19   29     22.97      0.00
   14   20   30    -17.29      0.00
   15   21   31    -25.05      0.00
   16   22   32     -9.73      0.00
   17   23   33     12.24      0.00
   18   24   34     69.07      0.00
   19   25   35    182.30      0.00
    0    8   16    -21.83      0.00
    4    4   12    -35.13      0.00
    0    8    8    163.06      0.00
    1    9   17    -17.63      0.00
    2   10   18    -12.72      0.00
    3   11   19      1.48      0.00
    4   12   20    -24.56      0.00
    5   13   21     30.24      0.00
    6   14   22     31.12      0.00
    7   15   23     23.05      0.00
    8   16   24     12.83      0.00
    9   17   25     20.58      0.00
   10   18   26     12.15      0.00
   11   19   27    -19.84      0.00
   12   20   28     30.00      0.00
   13   21   29     61.04      0.00
   14   22   30      7.05      0.00
   15   23   31     -5.13      0.00
   16   24   32      6.05      0.00
   17   25   33    -42.11      0.00
   18   26   34   -104.17      0.00
    1   11   17     12.26      0.00
    2   12   18    -13.36      0.00
    3   13   19      6.03      0.00
    4   14   20    -15.61      0.00
    5   15   21     11.86      0.00
    6   16   22    -13.32      0.00
    7   17   23     15.14      0.00
    8   18   24     16.14      0.00
    9   19   25    -13.18      0.00
   10   20   26      8.92      0.00
   11   21   27     34.58      0.00
   12   22   28    -81.73      0.00
   13   23   29    -12.61      0.00
   14   24   30    -46.17      0.00
   15   25   31     -3.74      0.00
   16   26   32     97.29      0.00
   17   27   33     -5.29      0.00
    1   13   17    -57.99      0.00
    2   14   18    -48.32      0.00
    3   15   19     -7.94      0.00
    4   16   20     19.17      0.00
    5   17   21     -0.33      0.00
    6   18   22    -31.62      0.00
    7   19   23    -29.76      0.00
    8   20   24     14.26      0.00
    9   21   25     26.04      0.00
   10   22   26    -24.88      0.00
   11   23   27     26.42      0.00
   12   24   28     11.94      0.00
   13   25   29    -15.29      0.00
   14   26   30    -11.83      0.00
   15   27   31    -17.04      0.00
   16   28   32     -8.62      0.00
   17   29   33    -28.55      0.00
    3   17   19     12.82      0.00
    4   18   20     18.03      0.00
    5   19   21     98.42      0.00
    6   20   22    -13.30      0.00
    7   21   23     17.93      0.00
    8   22   24      4.16      0.00
    9   23   25    -28.11      0.00
   10   24   26      7.95      0.00
   11   25   27     44.22      0.00
   12   26   28     62.04      0.00
   13   27   29    -30.92      0.00
   14   28   30     -4.57      0.00
   15   29   31     22.86      0.00
   21   21   37     73.41      0.00
   20   20   36     42.82      0.00
   19   19   35     -9.99      0.00
   18   18   34     27.78      0.00
   17   17   33      8.74      0.00
   16   16   32     10.96      0.00
   15   15   31     22.83      0.00
   14   14   30   -101.90      0.00
   13   13   29     -5.62      0.00
   12   12   28     29.50      0.00
   11   11   27    -15.81      0.00
   10   10   26      8.35      0.00
    9    9   25    -14.69      0.00
    8    8   24    -21.02      0.00
    7    7   23     49.98      0.00
    6    6   22     -4.85      0.00
    5    5   21    -29.82      0.00
    4    4   20     59.70      0.00
    3    3   19     39.59      0.00
    2    2   18     15.11      0.00
    1    1   17     -9.69      0.00
    0    0   16     69.11      0.00
    8    8    8    -54.81      0.00
    7    9    9    -10.97      0.00
    6   10   10     21.70      0.00
    5   11   11     83.21      0.00
    4   12   12     33.33      0.00
    3   13   13    -16.88      0.00
    2   14   14    -22.03      0.00
    0   16   16     52.38      0.00
    1   17   17      5.79      0.00
    2   18   18    -11.19      0.00
    3   19   19    -24.95      0.00
    4   20   20     25.63      0.00
    5   21   21    -44.42      0.00
    6   22   22    -57.05      0.00
    7   23   23    -14.72      0.00
    8   24   24     -1.84      0.00
    9   25   25    -34.98      0.00
   10   26   26    -10.13      0.00
   11   27   27     -7.41      0.00
   12   28   28     49.43      0.00
   13   29   29      4.26      0.00
   14   30   30    -54.09      0.00
   15   31   31    -14.61      0.00
   14   30   32     10.13      0.00
   13   29   31    -39.51      0.00
   12   28   30    -38.24      0.00
   11   27   29    -64.90      0.00
   10   26   28     33.82      0.00
    9   25   27      8.24      0.00
    8   24   26     57.08      0.00
    7   23   25     21.77      0.00
    6   22   24    -33.68      0.00
    5   21   23     -8.42      0.00
    4   20   22    -12.42      0.00
    3   19   21    -21.02      0.00
    2   18   20      4.05      0.00
    1   17   19    -13.18      0.00
    3   13   15    -13.60      0.00
    4   12   14     14.36      0.00
    5   11   13     -7.24      0.00
    6   10   12      0.92      0.00
    7    9   11    -15.78      0.00
    8    8   10    -15.29      0.00
    0    2   18     40.79      0.00
    1    3   19     18.45      0.00
    2    4   20    -21.79      0.00
    3    5   21     -0.59      0.00
    4    6   22     17.87      0.00
    5    7   23    -28.78      0.00
    6    8   24    -66.49      0.00
    7    9   25     -1.20      0.00
    8   10   26      0.44      0.00
    9   11   27     -2.10      0.00
   10   12   28      5.84      0.00
   11   13   29    -33.04      0.00
   12   14   30    -13.57      0.00
   13   15   31     19.42      0.00
   14   16   32    -68.10      0.00
   15   17   33    -38.92      0.00
   16   18   34    -13.96      0.00
   17   19   35    -26.08      0.00
   18   20   36     -4.60      0.00
   19   21   37     11.46      0.00
   15   29   33     -3.76      0.00
    2   16   20     45.04      0.00
    1   15   19     44.95      0.00
    0   14   18    -43.14      0.00
    4   10   14     -7.57      0.00
    5    9   13    -56.43      0.00
    6    8   12    -73.68      0.00
    7    7   11    143.68      0.00
    1    5   19     47.44      0.00
    2    6   20      1.75      0.00
    3    7   21     -1.45      0.00
    4    8   22      5.82      0.00
    5    9   23      0.61      0.00
    6   10   24    -14.69      0.00
    7   11   25    -20.44      0.00
    8   12   26     26.69      0.00
    9   13   27      6.44      0.00
   10   14   28     28.13      0.00
   11   15   29     54.94      0.00
   12   16   30    -66.46      0.00
   13   17   31    -25.60      0.00
   14   18   32     17.00      0.00
   15   19   33    -14.34      0.00
   16   20   34     18.04      0.00
   17   21   35     -2.15      0.00
   18   22   36    -11.07      0.00
    4    8   14    -29.48      0.00
    5    7   13     49.17      0.00
    6    6   12    123.51      0.00
    0    6   18      3.01      0.00
    1    7   19     24.55      0.00
    2    8   20     14.00      0.00
    3    9   21     -4.15      0.00
    4   10   22      0.11      0.00
    5   11   23     -2.05      0.00
    6   12   24     50.75      0.00
    7   13   25     32.72      0.00
    8   14   26    -19.94      0.00
    9   15   27     -7.49      0.00
   10   16   28    -48.49      0.00
   11   17   29    -12.40      0.00
   12   18   30    -27.13      0.00
   13   19   31      2.17      0.00
   14   20   32     14.44      0.00
   15   21   33     18.10      0.00
   16   22   34     -0.09      0.00
   17   23   35    -36.19      0.00
   18   24   36     33.16      0.00
    4    6   14      4.96      0.00
    5    5   13     32.65      0.00
    1    9   19     -6.36      0.00
    2   10   20     16.66      0.00
    3   11   21     32.61      0.00
    4   12   22     29.68      0.00
    5   13   23     15.42      0.00
    6   14   24     -3.35      0.00
    7   15   25      9.55      0.00
    8   16   26    -16.57      0.00
    9   17   27    -11.59      0.00
   10   18   28     35.94      0.00
   11   19   29    -18.45      0.00
   12   20   30    -95.36      0.00
   13   21   31      7.17      0.00
   14   22   32     22.70      0.00
   15   23   33     57.51      0.00
   16   24   34    -31.44      0.00
   17   25   35    -86.78      0.00
    0   10   18      4.44      0.00
    1   11   19     -2.02      0.00
    2   12   20    -32.37      0.00
    3   13   21     -1.45      0.00
    4   14   22    -35.84      0.00
    5   15   23    -23.62      0.00
    6   16   24    -31.65      0.00
    7   17   25    -20.11      0.00
    8   18   26     10.62      0.00
    9   19   27     -3.24      0.00
   10   20   28    -39.13      0.00
   11   21   29     34.71      0.00
   12   22   30    -28.53      0.00
   13   23   31     11.29      0.00
   14   24   32    -90.12      0.00
   15   25   33    -69.30      0.00
   16   26   34      0.32      0.00
   17   27   35     16.65      0.00
    1   13   19    -35.15      0.00
    2   14   20     18.60      0.00
    3   15   21      6.12      0.00
    4   16   22    -15.04      0.00
    5   17   23    -21.19      0.00
    6   18   24     -0.57      0.00
    7   19   25    -18.77      0.00
    8   20   26    -54.81      0.00
    9   21   27     10.60      0.00
   10   22   28      3.99      0.00
   11   23   29     -1.00      0.00
   12   24   30      0.99      0.00
   13   25   31    -18.45      0.00
   14   26   32    -30.52      0.00
   15   27   33     -5.43      0.00
   16   28   34     84.29      0.00
    3   17   21     14.75      0.00
    4   18   22    -25.53      0.00
    5   19   23      2.45      0.00
    6   20   24     22.56      0.00
    7   21   25     19.04      0.00
    8   22   26     34.36      0.00
    9   23   27    -15.25      0.00
   10   24   28    -51.76      0.00
   11   25   29     -0.16      0.00
   12   26   30     -5.86      0.00
   13   27   31     95.02      0.00
   14   28   32     90.61      0.00
   20   20   38     10.06      0.00
   19   19   37     40.33      0.00
   18   18   36     -6.21      0.00
   17   17   35     -5.47      0.00
   16   16   34    -68.97      0.00
   15   15   33     53.03      0.00
   14   14   32     19.74      0.00
   13   13   31    -11.14      0.00
   12   12   30      6.25      0.00
   11   11   29    -27.92      0.00
   10   10   28     13.23      0.00
    9    9   27     -7.53      0.00
    8    8   26     10.51      0.00
    7    7   25     46.36      0.00
    6    6   24     11.59      0.00
    5    5   23      2.39      0.00
    4    4   22    -15.40      0.00
    3    3   21      8.05      0.00
    2    2   20     -2.46      0.00
    1    1   19     14.26      0.00
    9    9    9    -11.55      0.00
    8   10   10    -14.75      0.00
    7   11   11     18.98      0.00
    6   12   12    -39.35      0.00
    5   13   13    -47.41      0.00
    4   14   14    -36.11      0.00
    3   15   15     11.43      0.00
    0   18   18    -78.18      0.00
    1   19   19     18.72      0.00
    2   20   20    -45.32      0.00
    3   21   21    -32.67      0.00
    4   22   22     -1.41      0.00
    5   23   23     62.41      0.00
    6   24   24     14.50      0.00
    7   25   25     -5.95      0.00
    8   26   26      1.73      0.00
    9   27   27      1.56      0.00
   10   28   28      8.02      0.00
   11   29   29     -4.52      0.00
   12   30   30    -56.85      0.00
   13   31   31     25.28      0.00
   14   32   32     67.89      0.00
   13   31   33      1.41      0.00
   12   30   32    -60.33      0.00
   11   29   31    -33.59      0.00
   10   28   30     16.33      0.00
    9   27   29    -23.92      0.00
    8   26   28     12.37      0.00
    7   25   27     53.30      0.00
    6   24   26     -7.65      0.00
    5   23   25    -16.93      0.00
    4   22   24     43.32      0.00
    3   21   23      5.32      0.00
    2   20   22     16.90      0.00
    1   19   21      9.88      0.00
    4   14   16     49.49      0.00
    5   13   15    -65.93      0.00
    6   12   14    -46.56      0.00
    7   11   13    -31.70      0.00
    8   10   12    -16.08      0.00
    9    9   11    -22.79      0.00
    1    3   21    -60.59      0.00
    2    4   22    -46.92      0.00
    3    5   23     -2.09      0.00
    4    6   24    -41.40      0.00
    5    7   25     -8.40      0.00
    6    8   26     22.40      0.00
    7    9   27     -4.10      0.00
    8   10   28     42.15      0.00
    9   11   29     -2.54      0.00
   10   12   30     10.05      0.00
   11   13   31     22.42      0.00
   12   14   32     -0.15      0.00
   13   15   33     45.53      0.00
   14   16   34    -25.71      0.00
   15   17   35     26.75      0.00
   16   18   36     75.33      0.00
   17   19   37     16.81      0.00
   18   20   38   -103.01      0.00
   14   30   34    -85.62      0.00
   13   29   33    -46.95      0.00
   12   28   32    -14.77      0.00
   11   27   31     92.17      0.00
   10   26   30     78.43      0.00
    9   25   29     29.37      0.00
    8   24   28      6.08      0.00
    7   23   27     10.35      0.00
    6   22   26     61.35      0.00
    5   21   25    -25.43      0.00
    4   20   24     18.53      0.00
    3   19   23    -17.23      0.00
    2   18   22     30.13      0.00
    1   17   21     -8.54      0.00
    0   16   20     28.72      0.00
    4   12   16     -3.04      0.00
    5   11   15     15.72      0.00
    6   10   14     -3.20      0.00
    7    9   13    -44.06      0.00
    8    8   12    -50.10      0.00
    0    4   20     54.74      0.00
    1    5   21      8.95      0.00
    2    6   22    -50.36      0.00
    3    7   23      3.73      0.00
    4    8   24     -1.17      0.00
    5    9   25     29.60      0.00
    6   10   26     53.95      0.00
    7   11   27      5.76      0.00
    8   12   28     -9.71      0.00
    9   13   29     22.07      0.00
   10   14   30    -33.79      0.00
   11   15   31     -2.97      0.00
   12   16   32      3.07      0.00
   13   17   33     11.27      0.00
   14   18   34     62.58      0.00
   15   19   35    -33.10      0.00
   16   20   36    -13.13      0.00
   17   21   37    -16.27      0.00
   18   22   38    -51.83      0.00
   14   28   34      2.26      0.00
    2   16   22     11.85      0.00
    1   15   21      0.87      0.00
    4   10   16     82.28      0.00
    5    9   15    -41.60      0.00
    6    8   14    -65.78      0.00
    7    7   13    -58.49      0.00
    1    7   21    -66.26      0.00
    2    8   22      8.82      0.00
    3    9   23      2.31      0.00
    4   10   24    -42.80      0.00
    5   11   25    -40.78      0.00
    6   12   26      5.18      0.00
    7   13   27    -26.28      0.00
    8   14   28     -3.79      0.00
    9   15   29      8.03      0.00
   10   16   30      1.64      0.00
   11   17   31     33.22      0.00
   12   18   32     22.98      0.00
   13   19   33      8.19      0.00
   14   20   34    -18.74      0.00
   15   21   35     -5.64      0.00
   16   22   36     78.02      0.00
   17   23   37     59.82      0.00
    5    7   15     -6.75      0.00
    6    6   14     59.62      0.00
    0    8   20    -70.24      0.00
    1    9   21     -0.51      0.00
    2   10   22     12.31      0.00
    3   11   23      8.69      0.00
    4   12   24    -38.26      0.00
    5   13   25     -4.36      0.00
    6   14   26     39.43      0.00
    7   15   27    -11.45      0.00
    8   16   28     15.60      0.00
    9   17   29     -0.35      0.00
   10   18   30    -35.67      0.00
   11   19   31    -12.80      0.00
   12   20   32      7.72      0.00
   13   21   33    -30.31      0.00
   14   22   34    -29.52      0.00
   15   23   35     12.07      0.00
   16   24   36      4.65      0.00
   16   26   36     53.62      0.00
    2   12   22      7.11      0.00
    1   11   21      0.12      0.00
    3   13   23     40.93      0.00
    4   14   24     14.14      0.00
    5   15   25      6.02      0.00
    6   16   26     -6.48      0.00
    7   17   27     20.28      0.00
    8   18   28     29.50      0.00
    9   19   29     55.94      0.00
   10   20   30     83.43      0.00
   11   21   31    -15.48      0.00
   12   22   32    -22.12      0.00
   13   23   33     86.62      0.00
   14   24   34    -52.12      0.00
   15   25   35     46.03      0.00
    0   12   20    -33.75      0.00
    1   13   21     42.06      0.00
    2   14   22     36.90      0.00
    3   15   23     -8.55      0.00
    4   16   24     21.81      0.00
    5   17   25     -1.99      0.00
    6   18   26    -13.22      0.00
    7   19   27    -12.86      0.00
    8   20   28    -12.86      0.00
    9   21   29    -32.30      0.00
   10   22   30     49.59      0.00
   11   23   31    100.56      0.00
   12   24   32    -17.39      0.00
   13   25   33    111.48      0.00
   14   26   34     31.51      0.00
   15   27   35     10.81      0.00
    3   17   23     22.16      0.00
    4   18   24     49.88      0.00
    5   19   25     26.68      0.00
    6   20   26    -40.68      0.00
    7   21   27      4.97      0.00
    8   22   28     32.04      0.00
    9   23   29      2.19      0.00
   10   24   30    -10.72      0.00
   11   25   31    -10.55      0.00
   12   26   32    -49.10      0.00
   13   27   33     46.87      0.00
   19   19   39     90.79      0.00
   18   18   38     52.45      0.00
   17   17   37     -1.56      0.00
   16   16   36     31.78      0.00
   15   15   35     18.15      0.00
   14   14   34   -103.06      0.00
   13   13   33    -23.48      0.00
   12   12   32    -35.97      0.00
   11   11   31    -22.79      0.00
   10   10   30     16.83      0.00
    9    9   29    -42.26      0.00
    8    8   28    -21.20      0.00
    7    7   27     57.39      0.00
    6    6   26     38.07      0.00
    5    5   25     -0.49      0.00
    4    4   24    -20.89      0.00
    3    3   23     48.68      0.00
    2    2   22    -49.48      0.00
    1    1   21    -59.92      0.00
    0    0   20     -1.93      0.00
   10   10   10     87.98      0.00
    9   11   11     12.13      0.00
    8   12   12    -99.54      0.00
    7   13   13    -60.10      0.00
    6   14   14     -6.65      0.00
    5   15   15     42.55      0.00
    4   16   16     -5.38      0.00
    0   20   20    100.14      0.00
    1   21   21      7.80      0.00
    2   22   22     40.85      0.00
    3   23   23      9.35      0.00
    4   24   24     -9.22      0.00
    5   25   25    -12.90      0.00
    6   26   26     11.96      0.00
    7   27   27    -40.51      0.00
    8   28   28     -1.51      0.00
    9   29   29     13.20      0.00
   10   30   30     42.41      0.00
   11   31   31     72.79      0.00
   12   32   32      9.99      0.00
   11   31   33      7.75      0.00
   10   30   32     10.12      0.00
    9   29   31    -18.98      0.00
    8   28   30    -25.23      0.00
    7   27   29    -30.00      0.00
    6   26   28     36.58      0.00
    5   25   27    -16.66      0.00
    4   24   26     -9.77      0.00
    3   23   25    -17.34      0.00
    2   22   24     -0.96      0.00
    1   21   23     18.22      0.00
    5   15   17      5.42      0.00
    6   14   16     18.69      0.00
    7   13   15     13.22      0.00
    8   12   14      2.20      0.00
    9   11   13    -35.46      0.00
   10   10   12    -12.29      0.00
    0    2   22    -47.55      0.00
    1    3   23    -53.53      0.00
    2    4   24     10.97      0.00
    3    5   25     18.75      0.00
    4    6   26    -35.47      0.00
    5    7   27     14.06      0.00
    6    8   28    -22.11      0.00
    7    9   29    -43.79      0.00
    8   10   30     16.45      0.00
    9   11   31     -6.23      0.00
   10   12   32     20.91      0.00
   11   13   33      0.48      0.00
   12   14   34     17.37      0.00
   13   15   35     14.52      0.00
   14   16   36    -32.07      0.00
   15   17   37    -11.24      0.00
   16   18   38    -19.75      0.00
   17   19   39    -41.34      0.00
   12   30   34     37.00      0.00
   11   29   33     60.72      0.00
   10   28   32    -40.02      0.00
    9   27   31      1.57      0.00
    8   26   30    -11.72      0.00
    7   25   29    -14.51      0.00
    6   24   28    -83.73      0.00
    5   23   27     11.84      0.00
    4   22   26     -3.79      0.00
    3   21   25    -19.34      0.00
    2   20   24    -19.93      0.00
    1   19   23    -13.73      0.00
    0   18   22     17.56      0.00
    5   13   17    -15.38      0.00
    6   12   16    -41.35      0.00
    7   11   15    -43.79      0.00
    8   10   14      3.33      0.00
    9    9   13     29.65      0.00
    1    5   23      0.51      0.00
    2    6   24     -4.21      0.00
    3    7   25    -16.26      0.00
    4    8   26    -71.59      0.00
    5    9   27      4.74      0.00
    6   10   28    -11.95      0.00
    7   11   29     -1.75      0.00
    8   12   30      4.53      0.00
    9   13   31    -45.36      0.00
   10   14   32    -13.99      0.00
   11   15   33     13.37      0.00
   12   16   34    -80.03      0.00
   13   17   35    -30.68      0.00
   14   18   36     -4.74      0.00
   15   19   37     17.97      0.00
   16   20   38     75.85      0.00
   17   21   39     25.73      0.00
   13   29   35      6.85      0.00
   12   28   34     26.97      0.00
   11   27   33    -29.19      0.00
   10   26   32     -7.85      0.00
    9   25   31      3.99      0.00
    8   24   30    -32.97      0.00
    7   23   29    -12.43      0.00
    6   22   28     20.02      0.00
    5   21   27    -19.71      0.00
    4   20   26     21.23      0.00
    3   19   25    -16.07      0.00
    2   18   24     -4.29      0.00
    1   17   23    -23.00      0.00
    5   11   17     26.18      0.00
    6   10   16     -6.95      0.00
    7    9   15     14.79      0.00
    8    8   14     -0.97      0.00
    0    6   22    -29.05      0.00
    1    7   23     27.20      0.00
    2    8   24     -2.43      0.00
    3    9   25      9.91      0.00
    4   10   26     -4.80      0.00
    5   11   27     20.82      0.00
    6   12   28     -4.34      0.00
    7   13   29    -21.40      0.00
    8   14   30     -1.73      0.00
    9   15   31    -33.40      0.00
   10   16   32    -37.06      0.00
   11   17   33    -55.07      0.00
   12   18   34    -15.00      0.00
   13   19   35    -46.42      0.00
   14   20   36    -94.94      0.00
   15   21   37    -48.65      0.00
   16   22   38     10.82      0.00
   13   27   35    -84.71      0.00
   12   26   34    -62.77      0.00
    2   16   24     10.64      0.00
    1   15   23     -2.28      0.00
    0   14   22     20.30      0.00
    5    9   17      3.56      0.00
    6    8   16      4.47      0.00
    7    7   15    -46.37      0.00
    1    9   23     -0.17      0.00
    2   10   24    -21.32      0.00
    3   11   25     -4.11      0.00
    4   12   26     28.81      0.00
    5   13   27     -0.19      0.00
    6   14   28    -38.53      0.00
    7   15   29      2.35      0.00
    8   16   30    -44.83      0.00
    9   17   31     -2.27      0.00
   10   18   32     26.92      0.00
   11   19   33    -45.06      0.00
   12   20   34    -72.63      0.00
   13   21   35     22.37      0.00
   14   22   36     76.54      0.00
   15   23   37    -18.68      0.00
   14   26   36     26.62      0.00
   13   25   35     28.36      0.00
    2   14   24    -25.99      0.00
    1   13   23      1.10      0.00
    6    6   16      8.63      0.00
    0   10   22     41.95      0.00
    1   11   23      3.68      0.00
    2   12   24    -45.98      0.00
    3   13   25    -18.14      0.00
    4   14   26     27.16      0.00
    5   15   27      1.59      0.00
    6   16   28    -11.84      0.00
    7   17   29     -2.98      0.00
    8   18   30    -34.98      0.00
    9   19   31    -38.15      0.00
   10   20   32     93.18      0.00
   11   21   33     76.44      0.00
   12   22   34    -48.06      0.00
   13   23   35    -55.37      0.00
   14   24   36   -111.36      0.00
   15   25   37     37.84      0.00
    3   15   25    -14.79      0.00
    4   16   26     34.46      0.00
    5   17   27      3.22      0.00
    6   18   28     -0.70      0.00
    7   19   29     14.05      0.00
    8   20   30    -24.82      0.00
    9   21   31    -52.99      0.00
   10   22   32    -24.87      0.00
   11   23   33     23.53      0.00
   12   24   34     -5.26      0.00
    3   17   25    -19.81      0.00
    4   18   26     -2.40      0.00
    5   19   27      4.98      0.00
    6   20   28      3.40      0.00
    7   21   29     32.78      0.00
    8   22   30     19.25      0.00
    9   23   31     48.83      0.00
   10   24   32    -54.44      0.00
   11   25   33     43.27      0.00
   18   18   40   -112.91      0.00
   17   17   39    -27.99      0.00
   16   16   38    -61.95      0.00
   15   15   37    -28.62      0.00
   14   14   36     -1.25      0.00
   13   13   35     58.90      0.00
   12   12   34    -55.35      0.00
   11   11   33    -18.85      0.00
   10   10   32    -18.63      0.00
    9    9   31    -41.76      0.00
    8    8   30     54.10      0.00
    7    7   29    -12.95      0.00
    6    6   28    -32.81      0.00
    5    5   27    -30.31      0.00
    4    4   26    -23.48      0.00
    3    3   25    -14.18      0.00
    2    2   24     -6.68      0.00
    1    1   23      2.58      0.00
   11   11   11    -36.87      0.00
   10   12   12    -37.48      0.00
    9   13   13     59.59      0.00
    8   14   14     54.33      0.00
    7   15   15     -3.13      0.00
    6   16   16    -32.13      0.00
    5   17   17      2.09      0.00
    4   18   18     -5.59      0.00
    0   22   22    -63.89      0.00
    1   23   23    -39.03      0.00
    2   24   24      2.69      0.00
    3   25   25     64.71      0.00
    4   26   26     18.48      0.00
    5   27   27     -4.73      0.00
    6   28   28    -51.89      0.00
    7   29   29     58.74      0.00
    8   30   30     36.41      0.00
    9   31   31     23.09      0.00
   10   32   32    -12.21      0.00
    9   31   33      9.87      0.00
    8   30   32    -77.95      0.00
    7   29   31    -11.23      0.00
    6   28   30     45.56      0.00
    5   27   29     13.36      0.00
    4   26   28    115.71      0.00
    3   25   27     35.20      0.00
    2   24   26    -29.61      0.00
    1   23   25      6.20      0.00
    5   17   19    -42.02      0.00
    6   16   18    -10.23      0.00
    7   15   17      4.83      0.00
    8   14   16     17.74      0.00
    9   13   15     12.02      0.00
   10   12   14    -21.48      0.00
   11   11   13    -30.45      0.00
    1    3   25     30.88      0.00
    2    4   26     -4.34      0.00
    3    5   27    -29.85      0.00
    4    6   28    -45.72      0.00
    5    7   29     17.47      0.00
    6    8   30    -31.08      0.00
    7    9   31    -37.51      0.00
    8   10   32     53.51      0.00
    9   11   33     -1.06      0.00
   10   12   34     -8.76      0.00
   11   13   35     -7.90      0.00
   12   14   36    -40.06      0.00
   13   15   37    -23.53      0.00
   14   16   38     -9.38      0.00
   15   17   39     39.48      0.00
   16   18   40     28.69      0.00
   10   30   34    -18.05      0.00
    9   29   33     19.63      0.00
    8   28   32     50.29      0.00
    7   27   31     -4.33      0.00
    6   26   30     49.59      0.00
    5   25   29     14.63      0.00
    4   24   28    -33.69      0.00
    3   23   27    -15.50      0.00
    2   22   26     -2.08      0.00
    1   21   25    -64.72      0.00
    0   20   24      5.15      0.00
    5   15   19     41.62      0.00
    6   14   18     -5.02      0.00
    7   13   17    -36.25      0.00
    8   12   16      3.82      0.00
    9   11   15     16.94      0.00
   10   10   14     41.40      0.00
    0    4   24     26.87      0.00
    1    5   25    -30.21      0.00
    2    6   26    -14.29      0.00
    3    7   27     39.83      0.00
    4    8   28     -4.64      0.00
    5    9   29     22.86      0.00
    6   10   30     36.90      0.00
    7   11   31    -32.05      0.00
    8   12   32     -1.18      0.00
    9   13   33     12.99      0.00
   10   14   34    -29.35      0.00
   11   15   35    -13.47      0.00
   12   16   36    -22.96      0.00
   13   17   37    -14.09      0.00
   14   18   38    -55.36      0.00
   15   19   39    -27.74      0.00
   11   29   35    -54.29      0.00
   10   28   34    -77.01      0.00
    9   27   33    -40.81      0.00
    8   26   32    -68.04      0.00
    7   25   31      9.81      0.00
    6   24   30     17.17      0.00
    5   23   29     12.90      0.00
    4   22   28      8.43      0.00
    3   21   27     -1.49      0.00
    2   20   26     10.61      0.00
    1   19   25    -25.18      0.00
    6   12   18    -31.06      0.00
    7   11   17    -22.97      0.00
    8   10   16     14.67      0.00
    9    9   15      7.72      0.00
    1    7   25    -28.48      0.00
    2    8   26     26.51      0.00
    3    9   27     -4.75      0.00
    4   10   28    -37.34      0.00
    5   11   29     30.97      0.00
    6   12   30    -44.72      0.00
    7   13   31    -23.55      0.00
    8   14   32     30.11      0.00
    9   15   33     35.06      0.00
   10   16   34      7.82      0.00
   11   17   35     -7.24      0.00
   12   18   36     84.12      0.00
   13   19   37     52.92      0.00
   14   20   38    -10.74      0.00
   15   21   39    -58.40      0.00
   12   28   36    -43.65      0.00
   11   27   35    -18.56      0.00
   10   26   34     45.76      0.00
    9   25   33     27.73      0.00
    8   24   32    -43.97      0.00
    7   23   31     68.62      0.00
    6   22   30     -0.72      0.00
    5   21   29     37.32      0.00
    4   20   28     12.59      0.00
    3   19   27     -7.79      0.00
    2   18   26     17.61      0.00
    1   17   25    -14.85      0.00
    0   16   24     10.19      0.00
    6   10   18     24.87      0.00
    7    9   17      0.31      0.00
    8    8   16    -42.28      0.00
    0    8   24     -9.53      0.00
    1    9   25     17.68      0.00
    2   10   26     44.25      0.00
    3   11   27      7.00      0.00
    4   12   28      6.99      0.00
    5   13   29     35.51      0.00
    6   14   30     24.87      0.00
    7   15   31      4.38      0.00
    8   16   32      9.12      0.00
    9   17   33     18.09      0.00
   10   18   34     36.06      0.00
   11   19   35     19.38      0.00
   12   20   36    -40.75      0.00
   13   21   37    -15.88      0.00
   14   22   38     84.64      0.00
   12   26   36     62.45      0.00
   11   25   35      1.57      0.00
   10   24   34     -5.84      0.00
    9   23   33     14.78      0.00
    4   18   28     33.94      0.00
    3   17   27     19.27      0.00
    2   16   26      6.14      0.00
    1   15   25     -2.47      0.00
    7    7   17    -60.79      0.00
    1   11   25    -19.70      0.00
    2   12   26     23.57      0.00
    3   13   27     -8.88      0.00
    4   14   28     12.40      0.00
    5   15   29    -16.03      0.00
    6   16   30      0.39      0.00
    7   17   31     15.46      0.00
    8   18   32      6.23      0.00
    9   19   33    -37.83      0.00
   10   20   34     -4.57      0.00
   11   21   35      8.19      0.00
   12   22   36     79.19      0.00
   13   23   37    -28.23      0.00
   14   24   38     -5.07      0.00
   13   25   37     -2.90      0.00
   12   24   36    -33.77      0.00
   11   23   35     26.64      0.00
   10   22   34     -4.77      0.00
    9   21   33    -50.23      0.00
    8   20   32    -39.42      0.00
    7   19   31    -30.45      0.00
    6   18   30    -22.95      0.00
    5   17   29     -0.69      0.00
    4   16   28     -4.09      0.00
    3   15   27    -65.78      0.00
    2   14   26    -40.36      0.00
    1   13   25     14.48      0.00
    0   12   24     -7.21      0.00
    5   19   29    -42.43      0.00
    6   20   30     42.02      0.00
    7   21   31      3.77      0.00
    8   22   32    -22.24      0.00
   16   16   40     40.40      0.00
   15   15   39     36.13      0.00
   14   14   38     42.99      0.00
   13   13   37     25.79      0.00
   12   12   36    -10.91      0.00
   11   11   35    -35.14      0.00
   10   10   34    -50.63      0.00
    9    9   33    -15.96      0.00
    8    8   32     -3.85      0.00
    7    7   31      1.95      0.00
    6    6   30     14.32      0.00
    5    5   29      7.31      0.00
    4    4   28     28.29      0.00
    3    3   27     30.50      0.00
    2    2   26    -55.44      0.00
    1    1   25    -30.76      0.00
    0    0   24    -42.70      0.00
   12   12   12    -67.56      0.00
   11   13   13    -22.48      0.00
   10   14   14      5.03      0.00
    9   15   15     24.53      0.00
    8   16   16    -14.76      0.00
    7   17   17      9.67      0.00
    6   18   18     18.73      0.00
    5   19   19     11.06      0.00
    0   24   24     46.61      0.00
    1   25   25     38.74      0.00
    2   26   26     44.92      0.00
    3   27   27    -48.79      0.00
    4   28   28     63.14      0.00
    5   29   29    -46.72      0.00
    6   30   30    -53.04      0.00
    7   31   31    -11.15      0.00
    8   32   32     42.29      0.00
    8   32   34     18.79      0.00
    7   31   33     -6.20      0.00
    6   30   32     -2.80      0.00
    5   29   31     43.17      0.00
    4   28   30     -6.38      0.00
    3   27   29    -58.29      0.00
    2   26   28    -10.37      0.00
    1   25   27    -35.42      0.00
    6   18   20    -15.46      0.00
    7   17   19      3.07      0.00
    8   16   18    -11.25      0.00
    9   15   17     -1.40      0.00
   10   14   16    -12.02      0.00
   11   13   15    -11.37      0.00
   12   12   14      1.86      0.00
    0    2   26    -71.13      0.00
    1    3   27    -17.31      0.00
    2    4   28    -15.41      0.00
    3    5   29    -27.21      0.00
    4    6   30    -41.84      0.00
    5    7   31     24.33      0.00
    6    8   32      5.14      0.00
    7    9   33    -16.37      0.00
    8   10   34     16.86      0.00
    9   11   35      0.06      0.00
   10   12   36      1.88      0.00
   11   13   37     -3.21      0.00
   12   14   38      0.86      0.00
   13   15   39    -40.12      0.00
   14   16   40    -48.47      0.00
   15   17   41      8.66      0.00
    8   30   34      3.17      0.00
    7   29   33    -57.58      0.00
    6   28   32   -123.92      0.00
    5   27   31     27.84      0.00
    4   26   30     39.44      0.00
    3   25   29    -28.55      0.00
    2   24   28     68.73      0.00
    1   23   27     54.32      0.00
    0   22   26    -16.52      0.00
    6   16   20     14.00      0.00
    7   15   19     28.46      0.00
    8   14   18    -12.77      0.00
    9   13   17     48.76      0.00
   10   12   16    -27.90      0.00
   11   11   15    -16.68      0.00
    1    5   27    -12.80      0.00
    2    6   28     35.29      0.00
    3    7   29     23.97      0.00
    4    8   30    -25.19      0.00
    5    9   31     22.34      0.00
    6   10   32     35.09      0.00
    7   11   33    -19.95      0.00
    8   12   34    -25.10      0.00
    9   13   35    -18.51      0.00
   10   14   36    -36.78      0.00
   11   15   37      2.90      0.00
   12   16   38    -57.35      0.00
   13   17   39     20.88      0.00
   14   18   40    -10.82      0.00
    9   29   35    -63.85      0.00
    8   28   34     86.55      0.00
    7   27   33     44.39      0.00
    6   26   32     33.54      0.00
    5   25   31     31.57      0.00
    4   24   30    -39.41      0.00
    3   23   29     15.64      0.00
    2   22   28     13.46      0.00
    1   21   27      9.89      0.00
    6   14   20     22.70      0.00
    7   13   19     47.03      0.00
    8   12   18     -1.80      0.00
    9   11   17      3.80      0.00
   10   10   16     11.40      0.00
    0    6   26    -53.73      0.00
    1    7   27     15.37      0.00
    2    8   28     27.94      0.00
    3    9   29    -29.98      0.00
    4   10   30    -84.05      0.00
    5   11   31    -17.84      0.00
    6   12   32     20.78      0.00
    7   13   33    -18.42      0.00
    8   14   34     21.22      0.00
    9   15   35     10.82      0.00
   10   16   36    -13.16      0.00
   11   17   37     -9.64      0.00
   12   18   38    -13.21      0.00
   13   19   39     18.63      0.00
   14   20   40    -77.93      0.00
   10   28   36     89.41      0.00
    9   27   35     -2.65      0.00
    8   26   34      1.29      0.00
    7   25   33     12.91      0.00
    6   24   32    -71.25      0.00
    5   23   31     50.49      0.00
    4   22   30    -33.75      0.00
    3   21   29      5.63      0.00
    2   20   28    -17.71      0.00
    1   19   27    -52.21      0.00
    0   18   26     -6.52      0.00
    7   11   19     -9.45      0.00
    8   10   18     -6.56      0.00
    9    9   17     -7.21      0.00
    1    9   27    -19.76      0.00
    2   10   28     23.15      0.00
    3   11   29      8.28      0.00
    4   12   30     23.80      0.00
    5   13   31     23.81      0.00
    6   14   32    -11.74      0.00
    7   15   33      7.87      0.00
    8   16   34    -85.27      0.00
    9   17   35    -35.93      0.00
   10   18   36     38.48      0.00
   11   19   37     16.69      0.00
   12   20   38     -4.19      0.00
   13   21   39     -4.45      0.00
   11   27   37     39.91      0.00
   10   26   36     15.92      0.00
    9   25   35    -31.26      0.00
    8   24   34    -22.43      0.00
    7   23   33     11.98      0.00
    6   22   32      0.02      0.00
    5   21   31     10.58      0.00
    4   20   30    -46.52      0.00
    3   19   29     -3.12      0.00
    2   18   28     -0.81      0.00
    1   17   27      8.15      0.00
    7    9   19     -1.99      0.00
    8    8   18     28.01      0.00
    0   10   26     -2.16      0.00
    1   11   27    -30.01      0.00
    2   12   28    -10.98      0.00
    3   13   29      0.50      0.00
    4   14   30     -6.93      0.00
    5   15   31      8.71      0.00
    6   16   32     -5.17      0.00
    7   17   33     38.02      0.00
    8   18   34     14.17      0.00
    9   19   35     20.69      0.00
   10   20   36    -14.01      0.00
   11   21   37    -39.09      0.00
   12   22   38     59.26      0.00
   13   23   39     43.44      0.00
   11   25   37     15.07      0.00
   10   24   36    -83.18      0.00
    9   23   35     13.54      0.00
    8   22   34     -9.94      0.00
    7   21   33     59.84      0.00
    6   20   32     15.42      0.00
    5   19   31    -16.46      0.00
    4   18   30     -1.42      0.00
    3   17   29      7.70      0.00
    2   16   28    -12.55      0.00
    1   15   27     12.52      0.00
    0   14   26     12.05      0.00
    1   13   27     44.42      0.00
    2   14   28    -11.18      0.00
    3   15   29      4.63      0.00
    4   16   30    -24.78      0.00
    5   17   31    -31.40      0.00
    6   18   32    -14.85      0.00
    7   19   33     41.42      0.00
    8   20   34      6.96      0.00
    9   21   35    -19.14      0.00
   10   22   36     -9.99      0.00
   11   23   37     -0.18      0.00
   12   24   38     -5.98      0.00
   15   15   41    -14.92      0.00
   14   14   40     37.79      0.00
   13   13   39     66.83      0.00
   12   12   38     58.43      0.00
   11   11   37     16.73      0.00
   10   10   36      7.00      0.00
    9    9   35     13.71      0.00
    8    8   34      4.14      0.00
    7    7   33     -4.30      0.00
    6    6   32     64.53      0.00
    5    5   31     36.19      0.00
    4    4   30     32.45      0.00
    3    3   29     13.90      0.00
    2    2   28    -34.17      0.00
    1    1   27    -47.65      0.00
   13   13   13     40.48      0.00
   12   14   14     56.49      0.00
   11   15   15     -5.71      0.00
   10   16   16      9.68      0.00
    9   17   17      0.64      0.00
    8   18   18     24.33      0.00
    7   19   19     32.46      0.00
    6   20   20    -20.60      0.00
    0   26   26   -114.82      0.00
    1   27   27    -76.32      0.00
    2   28   28    -59.42      0.00
    3   29   29    -25.59      0.00
    4   30   30      3.86      0.00
    5   31   31     54.87      0.00
    6   32   32    -72.16      0.00
    7   33   33    -15.70      0.00
    6   32   34     -4.05      0.00
    5   31   33    -33.16      0.00
    4   30   32   -113.96      0.00
    3   29   31    -17.75      0.00
    2   28   30      5.94      0.00
    1   27   29     20.48      0.00
    7   19   21    -14.31      0.00
    8   18   20     15.15      0.00
    9   17   19     13.04      0.00
   10   16   18    -17.64      0.00
   11   15   17     -1.09      0.00
   12   14   16    -23.11      0.00
   13   13   15     50.01      0.00
    1    3   29     -2.61      0.00
    2    4   30    -11.90      0.00
    3    5   31     -3.10      0.00
    4    6   32    -41.61      0.00
    5    7   33    -38.21      0.00
    6    8   34    -52.85      0.00
    7    9   35     22.33      0.00
    8   10   36     -7.75      0.00
    9   11   37    -24.95      0.00
   10   12   38      2.55      0.00
   11   13   39    -38.59      0.00
   12   14   40    -71.18      0.00
   13   15   41   -115.62      0.00
   14   16   42     20.81      0.00
    7   31   35     23.62      0.00
    6   30   34     94.09      0.00
    5   29   33     39.95      0.00
    4   28   32     12.01      0.00
    3   27   31    -11.46      0.00
    2   26   30     86.23      0.00
    1   25   29     27.36      0.00
    0   24   28     48.15      0.00
    7   17   21     24.52      0.00
    8   16   20    -22.08      0.00
    9   15   19    -24.28      0.00
   10   14   18     12.37      0.00
   11   13   17     36.76      0.00
   12   12   16    -12.29      0.00
    0    4   28    -28.33      0.00
    1    5   29    -10.42      0.00
    2    6   30    -18.54      0.00
    3    7   31     11.81      0.00
    4    8   32      7.29      0.00
    5    9   33    -15.75      0.00
    6   10   34      8.21      0.00
    7   11   35      0.19      0.00
    8   12   36     13.89      0.00
    9   13   37    -19.64      0.00
   10   14   38    -67.37      0.00
   11   15   39     -9.09      0.00
   12   16   40    -20.76      0.00
   13   17   41    -21.11      0.00
    7   29   35   -100.01      0.00
    6   28   34     -6.36      0.00
    5   27   33     41.80      0.00
    4   26   32    -38.21      0.00
    3   25   31      1.50      0.00
    2   24   30     17.64      0.00
    1   23   29    -48.25      0.00
    7   15   21    -19.96      0.00
    8   14   20     22.58      0.00
    9   13   19     17.45      0.00
   10   12   18    -14.02      0.00
   11   11   17    -17.95      0.00
    1    7   29    -40.81      0.00
    2    8   30     -6.90      0.00
    3    9   31     13.86      0.00
    4   10   32     27.75      0.00
    5   11   33    -42.13      0.00
    6   12   34    -84.82      0.00
    7   13   35     20.64      0.00
    8   14   36    -28.72      0.00
    9   15   37     64.70      0.00
   10   16   38     25.13      0.00
   11   17   39    136.76      0.00
   12   18   40     88.63      0.00
   13   19   41    -28.84      0.00
    8   28   36     -9.41      0.00
    7   27   35    -81.38      0.00
    6   26   34    -64.30      0.00
    5   25   33    -32.93      0.00
    4   24   32    -56.90      0.00
    3   23   31     10.36      0.00
    2   22   30     29.08      0.00
    1   21   29     11.06      0.00
    0   20   28    -31.72      0.00
    8   12   20     25.63      0.00
    9   11   19      8.92      0.00
   10   10   18    -54.31      0.00
    0    8   28     48.06      0.00
    1    9   29    -28.66      0.00
    2   10   30     42.41      0.00
    3   11   31    -35.99      0.00
    4   12   32     12.08      0.00
    5   13   33      3.47      0.00
    6   14   34    -20.15      0.00
    7   15   35     26.11      0.00
    8   16   36   -111.90      0.00
    9   17   37    -87.52      0.00
   10   18   38    -71.53      0.00
   11   19   39    -33.66      0.00
   12   20   40    -10.85      0.00
    9   27   37      8.84      0.00
    8   26   36     42.73      0.00
    7   25   35     39.36      0.00
    6   24   34     64.44      0.00
    5   23   33     17.61      0.00
    4   22   32    -47.51      0.00
    3   21   31     -8.67      0.00
    2   20   30      9.94      0.00
    1   19   29     -0.38      0.00
    8   10   20     27.00      0.00
    9    9   19    -17.55      0.00
    1   11   29    -44.72      0.00
    2   12   30     23.33      0.00
    3   13   31    -12.07      0.00
    4   14   32    -29.92      0.00
    5   15   33     14.61      0.00
    6   16   34      5.61      0.00
    7   17   35     36.68      0.00
    8   18   36     43.17      0.00
    9   19   37    -43.77      0.00
   10   20   38     13.74      0.00
   11   21   39     -8.66      0.00
   12   22   40   -110.03      0.00
   10   26   38    -69.21      0.00
    9   25   37      9.50      0.00
    8   24   36    -26.13      0.00
    7   23   35     22.98      0.00
    6   22   34    -22.23      0.00
    5   21   33     -9.55      0.00
    4   20   32     -5.34      0.00
    3   19   31     -5.65      0.00
    2   18   30    -30.93      0.00
    1   17   29     -9.41      0.00
    0   16   28      5.61      0.00
    8    8   20     35.19      0.00
    0   12   28     81.06      0.00
    1   13   29    -48.71      0.00
    2   14   30    -84.63      0.00
    3   15   31     -1.23      0.00
    4   16   32     10.06      0.00
    5   17   33     -0.11      0.00
    6   18   34    -50.09      0.00
    7   19   35    -21.12      0.00
    8   20   36    -35.84      0.00
    9   21   37     -8.55      0.00
   10   22   38     53.73      0.00
   11   23   39     47.57      0.00
   10   24   38     -1.49      0.00
    9   23   37     -8.98      0.00
    8   22   36      5.44      0.00
    7   21   35    -58.91      0.00
    6   20   34     34.37      0.00
    5   19   33      5.82      0.00
    4   18   32     30.05      0.00
    3   17   31     26.18      0.00
    2   16   30      7.17      0.00
    1   15   29     12.15      0.00
   14   14   42     50.55      0.00
   13   13   41     56.11      0.00
   12   12   40     38.75      0.00
   11   11   39    -47.66      0.00
   10   10   38    -25.10      0.00
    9    9   37     12.71      0.00
    8    8   36     32.13      0.00
    7    7   35      0.21      0.00
    6    6   34     54.83      0.00
    5    5   33     -3.60      0.00
    4    4   32    -25.88      0.00
    3    3   31    -56.59      0.00
    2    2   30    -30.02      0.00
    1    1   29     -8.13      0.00
    0    0   28    -52.49      0.00
   14   14   14     12.17      0.00
   13   15   15      6.78      0.00
   12   16   16    -61.65      0.00
   11   17   17     42.81      0.00
   10   18   18    -10.79      0.00
    9   19   19     37.16      0.00
    8   20   20    -30.32      0.00
    7   21   21     -9.88      0.00
    0   28   28    109.30      0.00
    1   29   29     31.63      0.00
    2   30   30    132.81      0.00
    3   31   31     85.16      0.00
    4   32   32     61.45      0.00
    5   33   33     22.46      0.00
    4   32   34    -84.03      0.00
    3   31   33     20.11      0.00
    2   30   32     -7.91      0.00
    1   29   31    -15.67      0.00
    8   20   22      8.20      0.00
    9   19   21     17.62      0.00
   10   18   20     -1.87      0.00
   11   17   19     12.47      0.00
   12   16   18    -23.05      0.00
   13   15   17    -11.73      0.00
   14   14   16     -4.11      0.00
    0    2   30     45.69      0.00
    1    3   31     30.80      0.00
    2    4   32    -17.41      0.00
    3    5   33     10.92      0.00
    4    6   34      3.76      0.00
    5    7   35    -38.47      0.00
    6    8   36      7.02      0.00
    7    9   37      4.98      0.00
    8   10   38     -3.20      0.00
    9   11   39    -18.87      0.00
   10   12   40     32.82      0.00
   11   13   41     23.58      0.00
   12   14   42     65.12      0.00
   13   15   43      0.71      0.00
    5   31   35     -0.34      0.00
    4   30   34    -16.21      0.00
    3   29   33     42.70      0.00
    2   28   32     43.13      0.00
    1   27   31     15.80      0.00
    0   26   30     20.48      0.00
    8   18   22    -17.18      0.00
    9   17   21     -2.89      0.00
   10   16   20     -8.37      0.00
   11   15   19     27.31      0.00
   12   14   18     40.92      0.00
   13   13   17      6.24      0.00
    1    5   31     -0.09      0.00
    2    6   32     15.50      0.00
    3    7   33      1.23      0.00
    4    8   34     -4.88      0.00
    5    9   35    -34.85      0.00
    6   10   36     -6.28      0.00
    7   11   37      5.66      0.00
    8   12   38     38.14      0.00
    9   13   39     57.45      0.00
   10   14   40    -11.30      0.00
   11   15   41    -23.99      0.00
   12   16   42     75.16      0.00
    6   30   36     53.39      0.00
    5   29   35      6.40      0.00
    4   28   34     17.89      0.00
    3   27   33    -19.91      0.00
    2   26   32    -11.58      0.00
    1   25   31    -31.05      0.00
    8   16   22    -41.92      0.00
    9   15   21     -7.87      0.00
   10   14   20     30.29      0.00
   11   13   19     17.70      0.00
   12   12   18    -33.61      0.00
    0    6   30     -7.25      0.00
    1    7   31     34.12      0.00
    2    8   32    -22.62      0.00
    3    9   33    -17.69      0.00
    4   10   34     39.99      0.00
    5   11   35      3.05      0.00
    6   12   36     40.80      0.00
    7   13   37     36.08      0.00
    8   14   38     12.63      0.00
    9   15   39     54.10      0.00
   10   16   40     -6.11      0.00
   11   17   41      1.11      0.00
   12   18   42    -23.48      0.00
    6   28   36     81.70      0.00
    5   27   35     23.75      0.00
    4   26   34    105.88      0.00
    3   25   33     54.94      0.00
    2   24   32    -20.62      0.00
    1   23   31      9.59      0.00
    0   22   30     23.53      0.00
    8   14   22    -29.25      0.00
    9   13   21     -4.10      0.00
   10   12   20     -4.83      0.00
   11   11   19    -28.95      0.00
    1    9   31    -33.22      0.00
    2   10   32     19.53      0.00
    3   11   33      4.94      0.00
    4   12   34     41.76      0.00
    5   13   35     -0.69      0.00
    6   14   36      9.35      0.00
    7   15   37     51.22      0.00
    8   16   38    -49.92      0.00
    9   17   39     -5.89      0.00
   10   18   40     -2.24      0.00
   11   19   41      7.80      0.00
    7   27   37    -34.15      0.00
    6   26   36    -14.02      0.00
    5   25   35    -18.86      0.00
    4   24   34    -15.95      0.00
    3   23   33     25.35      0.00
    2   22   32     18.90      0.00
    1   21   31    -27.46      0.00
    9   11   21      8.10      0.00
   10   10   20    -11.71      0.00
    0   10   30    -23.99      0.00
    1   11   31    -19.99      0.00
    2   12   32    -39.80      0.00
    3   13   33    -14.52      0.00
    4   14   34      1.98      0.00
    5   15   35      3.80      0.00
    6   16   36    -36.15      0.00
    7   17   37     14.28      0.00
    8   18   38     38.99      0.00
    9   19   39     -4.06      0.00
   10   20   40   -106.35      0.00
   11   21   41     -9.85      0.00
    8   26   38      6.67      0.00
    7   25   37     -0.74      0.00
    6   24   36      5.37      0.00
    5   23   35      9.30      0.00
    4   22   34     25.63      0.00
    3   21   33     35.23      0.00
    2   20   32     61.51      0.00
    1   19   31     26.30      0.00
    0   18   30    -43.88      0.00
    9    9   21    -39.95      0.00
    1   13   31     25.70      0.00
    2   14   32     -1.64      0.00
    3   15   33     20.46      0.00
    4   16   34    -37.32      0.00
    5   17   35    -11.12      0.00
    6   18   36      1.31      0.00
    7   19   37    -11.95      0.00
    8   20   38     70.13      0.00
    9   21   39     37.84      0.00
   10   22   40     18.26      0.00
    9   25   39     -1.68      0.00
    8   24   38    -29.76      0.00
    7   23   37    -23.48      0.00
    6   22   36      1.40      0.00
    5   21   35     38.86      0.00
    4   20   34     11.92      0.00
    3   19   33     -3.33      0.00
    2   18   32      2.04      0.00
    1   17   31      4.41      0.00
    0   14   30    -17.67      0.00
    1   15   31     11.70      0.00
    2   16   32    -56.48      0.00
    3   17   33     12.14      0.00
    4   18   34    -13.57      0.00
    5   19   35    -30.37      0.00
    6   20   36    -22.25      0.00
    7   21   37    -62.63      0.00
    8   22   38    -19.39      0.00
    9   23   39     19.68      0.00
   13   13   43    -74.98      0.00
   12   12   42    -28.45      0.00
   11   11   41    -48.57      0.00
   10   10   40    -30.91      0.00
    9    9   39    -12.31      0.00
    8    8   38    -11.08      0.00
    7    7   37      1.52      0.00
    6    6   36      8.51      0.00
    5    5   35    -12.77      0.00
    4    4   34    -53.26      0.00
    3    3   33    -39.45      0.00
    2    2   32     25.32      0.00
    1    1   31     -6.47      0.00
   15   15   15     -4.33      0.00
   14   16   16     29.22      0.00
   13   17   17    -10.75      0.00
   12   18   18     21.20      0.00
   11   19   19     21.15      0.00
   10   20   20      4.88      0.00
    9   21   21     37.18      0.00
    8   22   22    -13.88      0.00
    0   30   30    -36.82      0.00
    1   31   31    -95.62      0.00
    2   32   32   -116.73      0.00
    3   33   33     27.16      0.00
    2   32   34     21.25      0.00
    1   31   33     12.28      0.00
    9   21   23     10.62      0.00
   10   20   22     -2.93      0.00
   11   19   21     30.43      0.00
   12   18   20    -32.28      0.00
   13   17   19      6.78      0.00
   14   16   18     -1.21      0.00
   15   15   17      2.69      0.00
    1    3   33    -23.90      0.00
    2    4   34      3.53      0.00
    3    5   35    -24.40      0.00
    4    6   36    -20.57      0.00
    5    7   37     24.96      0.00
    6    8   38    -27.28      0.00
    7    9   39      0.71      0.00
    8   10   40     33.46      0.00
    9   11   41     19.84      0.00
   10   12   42     28.51      0.00
   11   13   43    -36.33      0.00
    3   31   35     54.83      0.00
    2   30   34     96.92      0.00
    1   29   33    -19.84      0.00
    0   28   32     45.61      0.00
    9   19   23    -10.00      0.00
   10   18   22      4.23      0.00
   11   17   21    -19.76      0.00
   12   16   20    -13.05      0.00
   13   15   19     -3.29      0.00
   14   14   18     70.82      0.00
    0    4   32      3.10      0.00
    1    5   33     18.41      0.00
    2    6   34     17.36      0.00
    3    7   35     20.01      0.00
    4    8   36    -10.74      0.00
    5    9   37      0.18      0.00
    6   10   38    -30.09      0.00
    7   11   39    -25.10      0.00
    8   12   40      0.30      0.00
    9   13   41    -13.95      0.00
   10   14   42     53.80      0.00
   11   15   43    -42.30      0.00
    4   30   36    -83.83      0.00
    3   29   35    -47.95      0.00
    2   28   34      0.81      0.00
    1   27   33    -14.93      0.00
    9   17   23     -7.92      0.00
   10   16   22      1.41      0.00
   11   15   21     14.29      0.00
   12   14   20      0.30      0.00
   13   13   19     -0.85      0.00
    1    7   33     10.69      0.00
    2    8   34     -3.09      0.00
    3    9   35     45.49      0.00
    4   10   36     17.93      0.00
    5   11   37     -1.58      0.00
    6   12   38    -20.04      0.00
    7   13   39     13.22      0.00
    8   14   40    -74.64      0.00
    9   15   41    -60.87      0.00
   10   16   42    -15.31      0.00
    5   29   37    -88.41      0.00
    4   28   36     -4.12      0.00
    3   27   35   -105.16      0.00
    2   26   34    -17.23      0.00
    1   25   33     18.60      0.00
    0   24   32     36.71      0.00
    9   15   23     22.52      0.00
   10   14   22     21.82      0.00
   11   13   21    -16.43      0.00
   12   12   20     55.32      0.00
    0    8   32     37.38      0.00
    1    9   33    -32.78      0.00
    2   10   34     19.13      0.00
    3   11   35    -20.39      0.00
    4   12   36    -13.26      0.00
    5   13   37    -66.29      0.00
    6   14   38    -80.29      0.00
    7   15   39     54.15      0.00
    8   16   40    -47.38      0.00
    9   17   41    -32.43      0.00
   10   18   42    -78.31      0.00
    5   27   37     -2.20      0.00
    4   26   36     26.90      0.00
    3   25   35    -74.94      0.00
    2   24   34     -4.96      0.00
    1   23   33     11.24      0.00
    9   13   23    -10.81      0.00
   10   12   22      0.92      0.00
   11   11   21      4.08      0.00
    1   11   33     29.31      0.00
    2   12   34    -21.82      0.00
    3   13   35    -21.75      0.00
    4   14   36      2.21      0.00
    5   15   37     73.56      0.00
    6   16   38     -5.27      0.00
    7   17   39     38.32      0.00
    8   18   40     92.61      0.00
    9   19   41     41.42      0.00
    6   26   38     11.88      0.00
    5   25   37    -19.25      0.00
    4   24   36     -4.60      0.00
    3   23   35    -19.94      0.00
    2   22   34     52.57      0.00
    1   21   33     20.57      0.00
    0   20   32      7.91      0.00
   10   10   22    -21.29      0.00
    0   12   32     -0.56      0.00
    1   13   33     -9.60      0.00
    2   14   34     70.31      0.00
    3   15   35     23.06      0.00
    4   16   36    -33.64      0.00
    5   17   37    -46.27      0.00
    6   18   38     -2.35      0.00
    7   19   39    -69.61      0.00
    8   20   40    -25.55      0.00
    9   21   41     39.34      0.00
    7   25   39     27.89      0.00
    6   24   38    -16.57      0.00
    5   23   37     48.06      0.00
    4   22   36     57.18      0.00
    3   21   35    -26.90      0.00
    2   20   34      8.28      0.00
    1   19   33    -47.83      0.00
    1   15   33     -0.61      0.00
    2   16   34    -13.58      0.00
    3   17   35      0.95      0.00
    4   18   36     29.33      0.00
    5   19   37     41.56      0.00
    6   20   38     18.00      0.00
    7   21   39    -75.60      0.00
    8   22   40    -32.84      0.00
    8   24   40     17.84      0.00
    7   23   39     42.53      0.00
    6   22   38     73.81      0.00
    5   21   37    -41.36      0.00
    4   20   36    -36.38      0.00
    3   19   35    -42.98      0.00
    2   18   34    -11.10      0.00
    1   17   33      0.41      0.00
    0   16   32     36.95      0.00
   12   12   44     18.02      0.00
   11   11   43     -0.73      0.00
   10   10   42    -18.02      0.00
    9    9   41    -55.44      0.00
    8    8   40     38.09      0.00
    7    7   39    -25.90      0.00
    6    6   38     -5.83      0.00
    5    5   37      6.94      0.00
    4    4   36      3.52      0.00
    3    3   35     67.14      0.00
    2    2   34     71.36      0.00
    1    1   33     -0.25      0.00
    0    0   32   -112.69      0.00
   16   16   16     13.61      0.00
   15   17   17    -20.03      0.00
   14   18   18     22.01      0.00
   13   19   19     42.32      0.00
   12   20   20    -55.87      0.00
   11   21   21    -48.63      0.00
   10   22   22     29.06      0.00
    9   23   23      1.29      0.00
    0   32   32      6.97      0.00
    1   33   33     27.60      0.00
   10   22   24     11.02      0.00
   11   21   23     -3.14      0.00
   12   20   22     12.83      0.00
   13   19   21    -29.38      0.00
   14   18   20      0.38      0.00
   15   17   19    -10.70      0.00
   16   16   18     26.09      0.00
    0    2   34     33.05      0.00
    1    3   35    -50.90      0.00
    2    4   36    -47.16      0.00
    3    5   37     17.37      0.00
    4    6   38      8.70      0.00
    5    7   39      0.75      0.00
    6    8   40     92.95      0.00
    7    9   41     34.00      0.00
    8   10   42      5.34      0.00
    9   11   43     17.50      0.00
   10   12   44    -25.49      0.00
    1   31   35     -4.23      0.00
    0   30   34    -22.63      0.00
   10   20   24    -19.39      0.00
   11   19   23    -13.32      0.00
   12   18   22    -18.32      0.00
   13   17   21     32.17      0.00
   14   16   20     37.76      0.00
   15   15   19     -0.51      0.00
    1    5   35      3.33      0.00
    2    6   36     26.78      0.00
    3    7   37     13.49      0.00
    4    8   38     -1.67      0.00
    5    9   39     17.01      0.00
    6   10   40      3.58      0.00
    7   11   41     -6.29      0.00
    8   12   42     73.49      0.00
    9   13   43     26.93      0.00
   10   14   44     30.09      0.00
    2   30   36     -7.11      0.00
    1   29   35     -2.70      0.00
   10   18   24     34.16      0.00
   11   17   23     12.24      0.00
   12   16   22     39.16      0.00
   13   15   21    -42.35      0.00
   14   14   20    -65.64      0.00
    0    6   34      9.58      0.00
    1    7   35    -35.20      0.00
    2    8   36     -4.30      0.00
    3    9   37    -46.09      0.00
    4   10   38    -16.29      0.00
    5   11   39     23.33      0.00
    6   12   40     80.34      0.00
    7   13   41    -27.95      0.00
    8   14   42     -4.79      0.00
    9   15   43      0.14      0.00
    3   29   37    -42.04      0.00
    2   28   36     76.81      0.00
    1   27   35     10.58      0.00
    0   26   34     28.67      0.00
   10   16   24      6.94      0.00
   11   15   23    -23.87      0.00
   12   14   22    -34.75      0.00
   13   13   21     29.96      0.00
    1    9   35    -15.35      0.00
    2   10   36     36.53      0.00
    3   11   37     35.81      0.00
    4   12   38     -9.97      0.00
    5   13   39    -35.74      0.00
    6   14   40     11.25      0.00
    7   15   41    -22.37      0.00
    8   16   42      2.96      0.00
    9   17   43    -10.65      0.00
    4   28   38    141.86      0.00
    3   27   37      9.38      0.00
    2   26   36     86.16      0.00
    1   25   35     58.77      0.00
   10   14   24      6.83      0.00
   11   13   23     11.75      0.00
   12   12   22     29.83      0.00
    0   10   34     14.18      0.00
    1   11   35    -27.94      0.00
    2   12   36    -67.71      0.00
    3   13   37     -8.67      0.00
    4   14   38     90.14      0.00
    5   15   39     14.37      0.00
    6   16   40    -42.61      0.00
    7   17   41    -18.90      0.00
    8   18   42     42.26      0.00
    4   26   38     18.66      0.00
    3   25   37    -10.85      0.00
    2   24   36    -23.94      0.00
    1   23   35    -34.56      0.00
    0   22   34      4.58      0.00
   11   11   23     15.06      0.00
    1   13   35     -6.63      0.00
    2   14   36     26.72      0.00
    3   15   37    -28.12      0.00
    4   16   38    -81.31      0.00
    5   17   39    -18.59      0.00
    6   18   40     12.54      0.00
    7   19   41    -59.54      0.00
    8   20   42    -78.76      0.00
    5   25   39      2.23      0.00
    4   24   38    -58.98      0.00
    3   23   37    -59.95      0.00
    2   22   36    -27.04      0.00
    1   21   35    -23.46      0.00
    0   14   34     -0.94      0.00
    1   15   35    -19.84      0.00
    2   16   36    -14.17      0.00
    3   17   37     50.67      0.00
    4   18   38     50.43      0.00
    5   19   39    -27.26      0.00
    6   20   40     55.05      0.00
    7   21   41      9.33      0.00
    6   24   40    -54.47      0.00
    5   23   39     19.18      0.00
    4   22   38      5.58      0.00
    3   21   37    -38.58      0.00
    2   20   36     19.08      0.00
    1   19   35     22.01      0.00
    0   18   34     20.31      0.00
    1   17   35     16.39      0.00
    2   18   36     19.00      0.00
    3   19   37      0.33      0.00
    4   20   38     79.11      0.00
    5   21   39      1.95      0.00
    6   22   40     -5.58      0.00
   10   10   44      0.37      0.00
    9    9   43      3.72      0.00
    8    8   42    -28.77      0.00
    7    7   41     -7.96      0.00
    6    6   40     -1.12      0.00
    5    5   39     -1.92      0.00
    4    4   38    -37.97      0.00
    3    3   37     44.21      0.00
    2    2   36     21.39      0.00
    1    1   35    -15.90      0.00
   17   17   17     23.58      0.00
   16   18   18      2.74      0.00
   15   19   19    -36.46      0.00
   14   20   20     -6.04      0.00
   13   21   21     61.26      0.00
   12   22   22      9.78      0.00
   11   23   23     28.06      0.00
   10   24   24     -3.01      0.00
   11   23   25     23.59      0.00
   12   22   24     -5.31      0.00
   13   21   23     -6.46      0.00
   14   20   22     63.43      0.00
   15   19   21     46.46      0.00
   16   18   20    -28.86      0.00
   17   17   19     50.56      0.00
    1    3   37      7.95      0.00
    2    4   38    -17.04      0.00
    3    5   39    -51.89      0.00
    4    6   40    -38.00      0.00
    5    7   41    -36.22      0.00
    6    8   42     -6.85      0.00
    7    9   43     14.88      0.00
    8   10   44     43.70      0.00
    9   11   45     -3.10      0.00
   11   21   25     24.61      0.00
   12   20   24     37.53      0.00
   13   19   23    -30.87      0.00
   14   18   22     -3.56      0.00
   15   17   21     22.35      0.00
   16   16   20      4.89      0.00
    0    4   36    -38.74      0.00
    1    5   37    -34.16      0.00
    2    6   38      0.42      0.00
    3    7   39     -9.25      0.00
    4    8   40    -30.03      0.00
    5    9   41     14.15      0.00
    6   10   42     11.07      0.00
    7   11   43      3.18      0.00
    8   12   44      3.84      0.00
   11   19   25    -13.81      0.00
   12   18   24     26.44      0.00
   13   17   23     -6.82      0.00
   14   16   22     43.22      0.00
   15   15   21    -24.30      0.00
    1    7   37     -2.46      0.00
    2    8   38     17.01      0.00
    3    9   39    -14.61      0.00
    4   10   40    -69.04      0.00
    5   11   41    -18.45      0.00
    6   12   42    -15.06      0.00
    7   13   43    -57.78      0.00
    8   14   44    -24.85      0.00
    1   29   37    -72.48      0.00
    0   28   36     -1.99      0.00
   11   17   25      8.48      0.00
   12   16   24     -8.04      0.00
   13   15   23     -5.95      0.00
   14   14   22     38.65      0.00
    0    8   36    -61.44      0.00
    1    9   37    -43.13      0.00
    2   10   38     29.04      0.00
    3   11   39     17.13      0.00
    4   12   40      8.18      0.00
    5   13   41     53.46      0.00
    6   14   42     76.67      0.00
    7   15   43     -9.34      0.00
    2   28   38     78.06      0.00
    1   27   37     19.19      0.00
   11   15   25      0.54      0.00
   12   14   24    -26.43      0.00
   13   13   23     16.90      0.00
    1   11   37      4.42      0.00
    2   12   38    -27.01      0.00
    3   13   39     27.44      0.00
    4   14   40      2.94      0.00
    5   15   41     34.38      0.00
    6   16   42     35.42      0.00
    7   17   43    -14.32      0.00
    2   26   38    -85.89      0.00
    1   25   37    -46.26      0.00
    0   24   36    -17.47      0.00
   11   13   25     14.59      0.00
   12   12   24     60.84      0.00
    0   12   36    -38.95      0.00
    1   13   37     12.78      0.00
    2   14   38    -87.53      0.00
    3   15   39     -0.46      0.00
    4   16   40     22.91      0.00
    5   17   41    -27.45      0.00
    6   18   42    -78.97      0.00
    3   25   39      5.55      0.00
    2   24   38     21.97      0.00
    1   23   37    102.87      0.00
    1   15   37     59.75      0.00
    2   16   38      6.83      0.00
    3   17   39     47.91      0.00
    4   18   40     25.35      0.00
    5   19   41     -7.01      0.00
    6   20   42    -26.50      0.00
    4   24   40     -9.23      0.00
    3   23   39     33.03      0.00
    2   22   38     23.53      0.00
    1   21   37    -45.75      0.00
    0   20   36     -2.20      0.00
    0   16   36     18.46      0.00
    1   17   37    -12.01      0.00
    2   18   38    -43.40      0.00
    3   19   39    -13.11      0.00
    4   20   40     27.24      0.00
    5   21   41    -20.14      0.00
    5   23   41     -3.11      0.00
    4   22   40    -10.82      0.00
    3   21   39    -62.70      0.00
    2   20   38      5.43      0.00
    1   19   37     15.30      0.00
    9    9   45    -44.31      0.00
    8    8   44      4.78      0.00
    7    7   43    -43.94      0.00
    6    6   42     51.20      0.00
    5    5   41     36.27      0.00
    4    4   40    -25.15      0.00
    3    3   39     -2.58      0.00
    2    2   38     88.69      0.00
    1    1   37     43.33      0.00
    0    0   36    -29.69      0.00
   18   18   18    -46.62      0.00
   17   19   19     36.58      0.00
   16   20   20     35.16      0.00
   15   21   21      2.11      0.00
   14   22   22    -43.11      0.00
   13   23   23    -28.63      0.00
   12   24   24     22.19      0.00
   11   25   25     61.12      0.00
   12   24   26      1.10      0.00
   13   23   25     32.17      0.00
   14   22   24     13.84      0.00
   15   21   23    -25.16      0.00
   16   20   22     43.35      0.00
   17   19   21    -19.64      0.00
   18   18   20    -15.33      0.00
    0    2   38    -28.48      0.00
    1    3   39    -19.11      0.00
    2    4   40     45.01      0.00
    3    5   41     29.74      0.00
    4    6   42    -23.44      0.00
    5    7   43      8.45      0.00
    6    8   44     91.31      0.00
    7    9   45    -34.36      0.00
   12   22   26     50.33      0.00
   13   21   25      1.99      0.00
   14   20   24      4.56      0.00
   15   19   23     17.13      0.00
   16   18   22      7.89      0.00
   17   17   21     48.86      0.00
    1    5   39      5.48      0.00
    2    6   40      5.11      0.00
    3    7   41     -9.18      0.00
    4    8   42    -43.17      0.00
    5    9   43     -5.89      0.00
    6   10   44     -0.79      0.00
    7   11   45     20.54      0.00
   12   20   26    -10.78      0.00
   13   19   25    -28.19      0.00
   14   18   24     -6.32      0.00
   15   17   23     16.19      0.00
   16   16   22     -3.54      0.00
    0    6   38     66.86      0.00
    1    7   39     -4.86      0.00
    2    8   40     50.58      0.00
    3    9   41      7.74      0.00
    4   10   42      3.66      0.00
    5   11   43    -15.25      0.00
    6   12   44    -70.63      0.00
    7   13   45    -47.76      0.00
   12   18   26      5.35      0.00
   13   17   25     -1.51      0.00
   14   16   24     -5.96      0.00
   15   15   23     -6.18      0.00
    1    9   39    -39.57      0.00
    2   10   40      2.01      0.00
    3   11   41      4.30      0.00
    4   12   42     24.40      0.00
    5   13   43     44.41      0.00
    6   14   44     -5.36      0.00
   12   16   26     -4.23      0.00
   13   15   25    -32.77      0.00
   14   14   24    -33.64      0.00
    0   10   38    106.21      0.00
    1   11   39     42.91      0.00
    2   12   40     67.67      0.00
    3   13   41     -9.79      0.00
    4   14   42     -2.68      0.00
    5   15   43    -48.61      0.00
    6   16   44    123.19      0.00
    1   27   39     31.46      0.00
    0   26   38     -1.18      0.00
   12   14   26    -23.51      0.00
   13   13   25     46.32      0.00
    1   13   39     33.09      0.00
    2   14   40     20.38      0.00
    3   15   41     -6.39      0.00
    4   16   42     29.77      0.00
    5   17   43    -51.43      0.00
    1   25   39     25.95      0.00
    0   14   38     28.69      0.00
    1   15   39     10.05      0.00
    2   16   40    -32.15      0.00
    3   17   41    -22.11      0.00
    4   18   42     41.86      0.00
    5   19   43     16.72      0.00
    2   24   40    -21.14      0.00
    1   23   39    -16.04      0.00
    0   22   38    -13.89      0.00
    1   17   39     56.50      0.00
    2   18   40    -27.29      0.00
    3   19   41    -15.83      0.00
    4   20   42     59.43      0.00
    3   23   41    -17.63      0.00
    2   22   40    -35.10      0.00
    1   21   39     46.61      0.00
    0   18   38     13.14      0.00
    1   19   39     -1.80      0.00
    2   20   40     41.62      0.00
    3   21   41     59.00      0.00
    8    8   46     48.58      0.00
    7    7   45    -23.34      0.00
    6    6   44     18.36      0.00
    5    5   43    -11.99      0.00
    4    4   42   -134.56      0.00
    3    3   41     -6.86      0.00
    2    2   40     40.63      0.00
    1    1   39     31.29      0.00
   19   19   19      1.01      0.00
   18   20   20     17.69      0.00
   17   21   21    -20.43      0.00
   16   22   22     41.73      0.00
   15   23   23    -20.81      0.00
   14   24   24    -11.15      0.00
   13   25   25     12.80      0.00
   12   26   26      3.27      0.00
   13   25   27      8.43      0.00
   14   24   26      9.78      0.00
   15   23   25    -48.27      0.00
   16   22   24     28.76      0.00
   17   21   23     -1.87      0.00
   18   20   22     20.99      0.00
   19   19   21     22.82      0.00
    1    3   41    -11.44      0.00
    2    4   42    -21.34      0.00
    3    5   43     28.31      0.00
    4    6   44     61.55      0.00
    5    7   45     18.27      0.00
    6    8   46     16.61      0.00
   13   23   27     36.08      0.00
   14   22   26    -52.22      0.00
   15   21   25     23.41      0.00
   16   20   24     78.45      0.00
   17   19   23    -35.33      0.00
   18   18   22    -23.97      0.00
    0    4   40    -77.40      0.00
    1    5   41    -42.74      0.00
    2    6   42    -21.09      0.00
    3    7   43    -11.67      0.00
    4    8   44      9.97      0.00
    5    9   45      0.25      0.00
    6   10   46     67.32      0.00
   13   21   27     36.39      0.00
   14   20   26     87.91      0.00
   15   19   25    -35.43      0.00
   16   18   24    -53.56      0.00
   17   17   23     74.37      0.00
    1    7   41     -6.34      0.00
    2    8   42     20.85      0.00
    3    9   43     -2.80      0.00
    4   10   44     30.38      0.00
    5   11   45     17.75      0.00
   13   19   27    -26.08      0.00
   14   18   26    -41.76      0.00
   15   17   25     22.84      0.00
   16   16   24    -15.01      0.00
    0    8   40    -58.14      0.00
    1    9   41     55.09      0.00
    2   10   42     -9.85      0.00
    3   11   43     36.28      0.00
    4   12   44     64.09      0.00
    5   13   45    150.05      0.00
   13   17   27      7.31      0.00
   14   16   26      9.12      0.00
   15   15   25      1.83      0.00
    1   11   41      9.09      0.00
    2   12   42    -31.35      0.00
    3   13   43    -27.88      0.00
    4   14   44     29.87      0.00
   13   15   27     43.04      0.00
   14   14   26    -27.43      0.00
    0   12   40    -65.11      0.00
    1   13   41     43.86      0.00
    2   14   42    -64.69      0.00
    3   15   43    -33.67      0.00
    4   16   44    -18.12      0.00
   13   13   27    -10.85      0.00
    1   15   41     38.40      0.00
    2   16   42      4.94      0.00
    3   17   43     43.44      0.00
    0   24   40    -29.11      0.00
    0   16   40     55.44      0.00
    1   17   41     28.75      0.00
    2   18   42    -71.45      0.00
    3   19   43     38.47      0.00
    1   23   41     44.97      0.00
    1   19   41      0.65      0.00
    2   20   42   -127.84      0.00
    2   22   42    -71.05      0.00
    1   21   41    -75.79      0.00
    0   20   40    -98.62      0.00
    6    6   46   -105.91      0.00
    5    5   45    -67.74      0.00
    4    4   44     -3.83      0.00
    3    3   43     48.99      0.00
    2    2   42     78.93      0.00
    1    1   41    -23.43      0.00
    0    0   40    -93.47      0.00
   20   20   20     32.16      0.00
   19   21   21     15.93      0.00
   18   22   22    -78.03      0.00
   17   23   23      3.19      0.00
   16   24   24      7.07      0.00
   15   25   25     70.01      0.00
   14   26   26    -57.08      0.00
   13   27   27    -26.58      0.00
   14   26   28     -0.78      0.00
   15   25   27     25.36      0.00
   16   24   26    -67.78      0.00
   17   23   25     57.10      0.00
   18   22   24     -7.34      0.00
   19   21   23      4.96      0.00
   20   20   22     29.84      0.00
    0    2   42    -34.75      0.00
    1    3   43     -7.95      0.00
    2    4   44    -43.05      0.00
    3    5   45    -46.35      0.00
    4    6   46    -46.29      0.00
   14   24   28     30.47      0.00
   15   23   27      5.67      0.00
   16   22   26     19.42      0.00
   17   21   25      8.32      0.00
   18   20   24    -14.97      0.00
   19   19   23     47.29      0.00
    1    5   43    -14.73      0.00
    2    6   44      5.59      0.00
    3    7   45    -26.45      0.00
    4    8   46     24.31      0.00
   14   22   28    -53.17      0.00
   15   21   27     24.83      0.00
   16   20   26    -32.05      0.00
   17   19   25    -44.65      0.00
   18   18   24     31.98      0.00
    0    6   42     -3.51      0.00
    1    7   43     -8.94      0.00
    2    8   44    -33.94      0.00
    3    9   45     -7.75      0.00
    4   10   46     54.20      0.00
   14   20   28    -34.12      0.00
   15   19   27      8.18      0.00
   16   18   26     15.05      0.00
   17   17   25     27.86      0.00
    1    9   43      7.31      0.00
    2   10   44    -44.63      0.00
    3   11   45    -92.61      0.00
   14   18   28     27.50      0.00
   15   17   27     20.05      0.00
   16   16   26      7.51      0.00
    0   10   42    -30.58      0.00
    1   11   43    -21.19      0.00
    2   12   44     67.75      0.00
    3   13   45    -22.20      0.00
   14   16   28    -27.66      0.00
   15   15   27     21.93      0.00
    1   13   43      0.61      0.00
    2   14   44      1.98      0.00
   14   14   28    -12.44      0.00
    0   14   42     21.13      0.00
    1   15   43    -14.31      0.00
    2   16   44    107.57      0.00
    1   17   43      3.59      0.00
    0   18   42     57.85      0.00
    1   19   43     23.81      0.00
    0   22   42     21.27      0.00
    4    4   46    -23.25      0.00
    3    3   45     -8.57      0.00
    2    2   44    -38.44      0.00
    1    1   43    -46.82      0.00
   21   21   21   -104.42      0.00
   20   22   22    -19.83      0.00
   19   23   23    -65.74      0.00
   18   24   24     -1.79      0.00
   17   25   25     58.23      0.00
   16   26   26     -9.39      0.00
   15   27   27     24.21      0.00
   14   28   28    104.68      0.00
   15   27   29     43.05      0.00
   16   26   28    -76.12      0.00
   17   25   27     36.69      0.00
   18   24   26      2.87      0.00
   19   23   25    -49.93      0.00
   20   22   24     59.79      0.00
   21   21   23    -14.13      0.00
    1    3   45     13.86      0.00
    2    4   46     -5.13      0.00
    3    5   47     12.30      0.00
   15   25   29      2.92      0.00
   16   24   28    -39.29      0.00
   17   23   27     19.34      0.00
   18   22   26    -33.24      0.00
   19   21   25     27.66      0.00
   20   20   24     -5.89      0.00
    0    4   44     21.78      0.00
    1    5   45      7.75      0.00
    2    6   46     18.21      0.00
   15   23   29     22.99      0.00
   16   22   28     18.39      0.00
   17   21   27    -29.70      0.00
   18   20   26     -1.38      0.00
   19   19   25    -40.08      0.00
    1    7   45    -47.81      0.00
    2    8   46     12.12      0.00
   15   21   29     22.81      0.00
   16   20   28     -6.80      0.00
   17   19   27    -31.43      0.00
   18   18   26     22.62      0.00
    0    8   44     29.43      0.00
    1    9   45     63.48      0.00
    2   10   46     43.24      0.00
   15   19   29    -40.88      0.00
   16   18   28    -54.18      0.00
   17   17   27     32.38      0.00
    1   11   45     -9.77      0.00
   15   17   29      6.30      0.00
   16   16   28      0.31      0.00
    0   12   44     36.67      0.00
    1   13   45    -13.08      0.00
   15   15   29    -35.05      0.00
    1   15   45     18.65      0.00
    0   16   44     17.51      0.00
    3    3   47     13.77      0.00
    2    2   46    -28.98      0.00
    1    1   45     -9.06      0.00
    0    0   44     34.32      0.00
   22   22   22    -18.15      0.00
   21   23   23    -56.17      0.00
   20   24   24    -21.10      0.00
   19   25   25    -44.93      0.00
   18   26   26    -59.75      0.00
   17   27   27    131.44      0.00
   16   28   28      3.71      0.00
   15   29   29    -26.23      0.00
   16   28   30     67.84      0.00
   17   27   29    -41.61      0.00
   18   26   28    -70.43      0.00
   19   25   27     -1.47      0.00
   20   24   26    -70.27      0.00
   21   23   25     -4.23      0.00
   22   22   24     18.35      0.00
    0    2   46    -42.34      0.00
    1    3   47     33.65      0.00
   16   26   30      6.05      0.00
   17   25   29     46.29      0.00
   18   24   28     23.55      0.00
   19   23   27     38.41      0.00
   20   22   26     -5.35      0.00
   21   21   25    -54.34      0.00
    1    5   47    -56.53      0.00
   16   24   30     45.40      0.00
   17   23   29     16.79      0.00
   18   22   28    -40.49      0.00
   19   21   27    -19.51      0.00
   20   20   26   -144.35      0.00
    0    6   46     22.14      0.00
   16   22   30     36.45      0.00
   17   21   29    -68.98      0.00
   18   20   28     -7.43      0.00
   19   19   27    134.82      0.00
   16   20   30     14.18      0.00
   17   19   29    -24.76      0.00
   18   18   28      8.73      0.00
    0   10   46     24.88      0.00
   16   18   30     -1.08      0.00
   17   17   29     10.16      0.00
    1    1   47      6.60      0.00
   23   23   23    -15.15      0.00
   22   24   24    -11.88      0.00
   21   25   25     20.11      0.00
   20   26   26    -29.28      0.00
   19   27   27     59.78      0.00
   18   28   28    104.63      0.00
   17   29   29     14.83      0.00
   18   28   30     30.78      0.00
   19   27   29    -45.71      0.00
   20   26   28    -26.97      0.00
   21   25   27    -46.22      0.00
   22   24   26    -16.43      0.00
   23   23   25    -35.22      0.00
   17   27   31    -50.42      0.00
   18   26   30     10.61      0.00
   19   25   29     10.07      0.00
   20   24   28    -28.57      0.00
   21   23   27     48.53      0.00
   22   22   26    -33.11      0.00
   17   25   31    -10.84      0.00
   18   24   30    -22.74      0.00
   19   23   29     25.86      0.00
   20   22   28    -63.44      0.00
   21   21   27    -24.78      0.00
   17   23   31     -8.04      0.00
   18   22   30    -16.34      0.00
   19   21   29     37.22      0.00
   20   20   28    -64.74      0.00
   17   21   31     28.19      0.00
   18   20   30      3.63      0.00
   19   19   29    -22.16      0.00
   17   19   31    -18.48      0.00
   18   18   30     38.50      0.00
   24   24   24    -62.34      0.00
   23   25   25     22.92      0.00
   22   26   26     17.50      0.00
   21   27   27     -9.60      0.00
   20   28   28    110.43      0.00
   19   29   29    -55.30      0.00
   18   30   30     -4.39      0.00
   19   29   31    -23.64      0.00
   20   28   30     21.03      0.00
   21   27   29     10.32      0.00
   22   26   28     -9.22      0.00
   23   25   27    -26.13      0.00
   24   24   26   -110.14      0.00
   19   27   31    -16.31      0.00
   20   26   30    100.90      0.00
   21   25   29    -39.71      0.00
   22   24   28    133.55      0.00
   23   23   27    -39.39      0.00
   19   25   31     -4.57      0.00
   20   24   30    -64.10      0.00
   21   23   29    -28.90      0.00
   22   22   28     30.95      0.00
   19   23   31    -13.79      0.00
   20   22   30      7.94      0.00
   21   21   29     -6.57      0.00
   19   21   31      8.36      0.00
   20   20   30    -52.58      0.00
   19   19   31     10.81      0.00
   25   25   25     65.41      0.00
   24   26   26      2.58      0.00
   23   27   27     48.35      0.00
   22   28   28    -42.96      0.00
   21   29   29    125.17      0.00
   20   30   30     46.29      0.00
   21   29   31     52.45      0.00
   22   28   30    -40.05      0.00
   23   27   29     42.96      0.00
   24   26   28     10.49      0.00
   25   25   27    -30.23      0.00
   20   28   32     26.99      0.00
   21   27   31    -18.09      0.00
   22   26   30    -58.66      0.00
   23   25   29     22.98      0.00
   24   24   28    -45.14      0.00
   20   26   32    -12.02      0.00
   21   25   31    -19.21      0.00
   22   24   30     25.29      0.00
   23   23   29     -5.62      0.00
   20   24   32   -114.95      0.00
   21   23   31     63.39      0.00
   22   22   30    -97.08      0.00
   20   22   32     -6.99      0.00
   21   21   31     76.68      0.00
   20   20   32   -108.88      0.00
   26   26   26    -21.42      0.00
   25   27   27    -16.77      0.00
   24   28   28     20.07      0.00
   23   29   29     27.83      0.00
   25   27   29      2.94      0.00
   26   26   28     42.53      0.00
   23   27   31      0.86      0.00
   24   26   30     15.27      0.00
   25   25   29    -76.51      0.00
   22   26   32    -61.10      0.00
   23   25   31     -7.35      0.00
   24   24   30      8.02      0.00
   21   25   33     23.27      0.00
   22   24   32     67.06      0.00
   23   23   31    -27.08      0.00
   21   23   33     60.62      0.00
   22   22   32    -13.89      0.00
   21   21   33      5.40      0.00
   27   27   27    -71.67      0.00
   26   28   28     56.74      0.00
   26   26   30    -94.38      0.00
   25   25   31     43.49      0.00
   23   25   33    -20.91      0.00
   24   24   32     -3.18      0.00
   22   24   34     55.18      0.00
   23   23   33     31.65      0.00
   22   22   34      6.62      0.00
    1    1    1   2250.57      0.00
    0    2    2   -493.92      0.00
    2    2    2    -24.17      0.00
    1    1    3   -145.82      0.00
    0    0    4   1076.02      0.00
   28   28   28     33.55      0.00
   27   27   29      6.35      0.00
   25   29   29     31.22      0.00
   27   29   29      2.49      0.00
   29   29   29    -55.06      0.00
   24   28   30     -3.04      0.00
   26   28   30    -48.32      0.00
   28   28   30    -12.61      0.00
   22   30   30    -33.49      0.00
   24   30   30     51.69      0.00
   26   30   30      3.12      0.00
   28   30   30     42.49      0.00
   30   30   30    -32.81      0.00
   25   27   31     -3.71      0.00
   27   27   31     62.48      0.00
   23   29   31     -9.06      0.00
   25   29   31      8.60      0.00
   27   29   31    -46.70      0.00
   29   29   31    -36.45      0.00
   19   31   31    -16.00      0.00
   21   31   31    -50.11      0.00
   23   31   31    -47.33      0.00
   25   31   31     34.82      0.00
   27   31   31     32.11      0.00
   24   26   32      8.27      0.00
   26   26   32    -14.40      0.00
   22   28   32     48.24      0.00
   24   28   32    -28.48      0.00
   26   28   32      8.71      0.00
   28   28   32     81.12      0.00
   20   30   32     12.51      0.00
   22   30   32    -11.04      0.00
   24   30   32    -36.65      0.00
   26   30   32    -42.76      0.00
   28   30   32    -10.13      0.00
   16   32   32    -64.47      0.00
   18   32   32     44.81      0.00
   20   32   32     -6.57      0.00
   22   32   32     37.71      0.00
   24   32   32    -20.81      0.00
   25   25   33     -0.91      0.00
   21   27   33     31.38      0.00
   23   27   33      9.79      0.00
   25   27   33     21.69      0.00
   27   27   33     33.40      0.00
   19   29   33      7.78      0.00
   21   29   33     53.72      0.00
   23   29   33     53.54      0.00
   25   29   33      8.76      0.00
   27   29   33    -20.19      0.00
   15   31   33      5.53      0.00
   17   31   33     38.69      0.00
   19   31   33     -8.91      0.00
   21   31   33    -10.93      0.00
   23   31   33      7.95      0.00
   25   31   33     24.38      0.00
    9   33   33   -152.15      0.00
   11   33   33     28.79      0.00
   13   33   33    -27.19      0.00
   15   33   33     -0.17      0.00
   17   33   33      3.10      0.00
   19   33   33     17.58      0.00
   21   33   33     -6.97      0.00
   23   33   33     -6.84      0.00
   24   24   34     38.39      0.00
   22   26   34     -5.30      0.00
   24   26   34      8.70      0.00
   26   26   34      1.47      0.00
   18   28   34    -13.57      0.00
   20   28   34     -1.05      0.00
   22   28   34     34.74      0.00
   24   28   34      5.28      0.00
   26   28   34    -19.50      0.00
   16   30   34      6.74      0.00
   18   30   34    -10.98      0.00
   20   30   34     22.50      0.00
   22   30   34    -16.17      0.00
   24   30   34     11.99      0.00
   10   32   34     -5.90      0.00
   12   32   34     14.33      0.00
   14   32   34    -15.08      0.00
   16   32   34     18.62      0.00
   18   32   34      5.02      0.00
   20   32   34     25.18      0.00
   22   32   34     14.71      0.00
    0   34   34    -69.98      0.00
    2   34   34    105.41      0.00
    4   34   34     14.29      0.00
    6   34   34     16.65      0.00
    8   34   34      1.84      0.00
   10   34   34    -63.12      0.00
   12   34   34     10.12      0.00
   14   34   34    -12.61      0.00
   16   34   34     -5.32      0.00
   18   34   34    -30.55      0.00
   20   34   34      5.36      0.00
   23   23   35      0.61      0.00
   21   25   35    -15.20      0.00
   23   25   35     -7.61      0.00
   25   25   35      0.27      0.00
   19   27   35      5.45      0.00
   21   27   35    -36.39      0.00
   23   27   35    -22.90      0.00
   25   27   35    -33.72      0.00
   27   27   35     50.27      0.00
   15   29   35     48.11      0.00
   17   29   35     25.81      0.00
   19   29   35    -14.42      0.00
   21   29   35    -18.79      0.00
   23   29   35     10.13      0.00
   25   29   35     -0.59      0.00
    9   31   35      1.14      0.00
   11   31   35    -34.73      0.00
   13   31   35     27.49      0.00
   15   31   35      0.59      0.00
   17   31   35     -6.44      0.00
   19   31   35     31.80      0.00
   21   31   35     -8.78      0.00
   23   31   35      3.40      0.00
    1   33   35    -14.49      0.00
    3   33   35     55.79      0.00
    5   33   35    -47.92      0.00
    7   33   35     37.35      0.00
    9   33   35    -14.96      0.00
   11   33   35     -4.20      0.00
   13   33   35     11.39      0.00
   15   33   35     16.59      0.00
   17   33   35      0.42      0.00
   19   33   35      9.52      0.00
    1   35   35    -59.53      0.00
    3   35   35    -72.02      0.00
    5   35   35     -3.97      0.00
    7   35   35      3.45      0.00
    9   35   35    -25.80      0.00
   11   35   35     27.34      0.00
   13   35   35     -9.51      0.00
   15   35   35    -20.40      0.00
   22   22   36     25.12      0.00
   20   24   36    -37.06      0.00
   22   24   36     26.75      0.00
   24   24   36     28.13      0.00
   18   26   36    -92.85      0.00
   20   26   36     50.31      0.00
   22   26   36    -13.23      0.00
   24   26   36     14.23      0.00
   26   26   36    -24.15      0.00
   14   28   36    -68.04      0.00
   16   28   36    -37.54      0.00
   18   28   36     55.56      0.00
   20   28   36     15.03      0.00
   22   28   36     46.85      0.00
   24   28   36    -13.68      0.00
    8   30   36    -18.54      0.00
   10   30   36     17.87      0.00
   12   30   36      9.71      0.00
   14   30   36    -38.97      0.00
   16   30   36     -0.66      0.00
   18   30   36     -1.56      0.00
   20   30   36    -24.11      0.00
   22   30   36    -34.92      0.00
    0   32   36      4.63      0.00
    2   32   36     -2.66      0.00
    4   32   36      1.68      0.00
    6   32   36    -22.84      0.00
    8   32   36     20.68      0.00
   10   32   36     50.08      0.00
   12   32   36      4.97      0.00
   14   32   36     20.66      0.00
   16   32   36      2.08      0.00
   18   32   36     17.80      0.00
    2   34   36     33.28      0.00
    4   34   36    -20.61      0.00
    6   34   36     14.02      0.00
    8   34   36     -6.01      0.00
   10   34   36      6.60      0.00
   12   34   36    -32.64      0.00
   14   34   36     12.60      0.00
   16   34   36     13.24      0.00
    0   36   36    124.71      0.00
    2   36   36     -5.18      0.00
    4   36   36    -25.04      0.00
    6   36   36    -90.17      0.00
    8   36   36     36.01      0.00
   10   36   36    -19.16      0.00
   19   23   37     22.11      0.00
   21   23   37    -70.63      0.00
   23   23   37     -6.74      0.00
   17   25   37     16.65      0.00
   19   25   37     45.97      0.00
   21   25   37      6.17      0.00
   23   25   37    -45.07      0.00
   25   25   37     26.83      0.00
   13   27   37     67.89      0.00
   15   27   37     19.16      0.00
   17   27   37    -11.16      0.00
   19   27   37    -33.12      0.00
   21   27   37      7.53      0.00
   23   27   37     10.52      0.00
    7   29   37     28.26      0.00
    9   29   37    -81.74      0.00
   11   29   37     42.35      0.00
   13   29   37    -38.60      0.00
   15   29   37     59.56      0.00
   17   29   37     -6.26      0.00
   19   29   37    -12.53      0.00
   21   29   37     42.70      0.00
    1   31   37    -29.21      0.00
    3   31   37      0.25      0.00
    5   31   37    -39.94      0.00
    7   31   37    -10.51      0.00
    9   31   37     18.91      0.00
   11   31   37    -28.23      0.00
   13   31   37      8.58      0.00
   15   31   37    -39.19      0.00
   17   31   37    -28.41      0.00
   19   31   37     19.61      0.00
    1   33   37     24.33      0.00
    3   33   37     25.06      0.00
    5   33   37      1.77      0.00
    7   33   37     -9.07      0.00
    9   33   37    -34.02      0.00
   11   33   37     10.78      0.00
   13   33   37      7.37      0.00
   15   33   37    -27.47      0.00
    1   35   37    -62.64      0.00
    3   35   37      8.49      0.00
    5   35   37     16.75      0.00
    7   35   37     21.60      0.00
    9   35   37    -13.63      0.00
   11   35   37     11.63      0.00
   20   22   38    -66.37      0.00
   22   22   38     47.68      0.00
   16   24   38    -64.51      0.00
   18   24   38    -30.85      0.00
   20   24   38      2.06      0.00
   22   24   38     -7.95      0.00
   24   24   38    -19.84      0.00
   12   26   38      0.63      0.00
   14   26   38    -18.58      0.00
   16   26   38     25.60      0.00
   18   26   38    -24.33      0.00
   20   26   38     19.94      0.00
   22   26   38    -18.98      0.00
   24   26   38     -4.01      0.00
    6   28   38     10.73      0.00
    8   28   38    -29.33      0.00
   10   28   38    -17.47      0.00
   12   28   38     27.67      0.00
   14   28   38     14.48      0.00
   16   28   38      3.54      0.00
   18   28   38    -16.65      0.00
   20   28   38     -4.41      0.00
   22   28   38     -3.69      0.00
    0   30   38      3.79      0.00
    2   30   38    -20.00      0.00
    4   30   38     -3.43      0.00
    6   30   38     -2.46      0.00
    8   30   38     31.72      0.00
   10   30   38    -15.80      0.00
   12   30   38    -11.67      0.00
   14   30   38    -17.07      0.00
   16   30   38     62.17      0.00
   18   30   38     21.65      0.00
    2   32   38     -0.84      0.00
    4   32   38     19.26      0.00
    6   32   38     13.85      0.00
    8   32   38      3.42      0.00
   10   32   38    -20.05      0.00
   12   32   38      3.25      0.00
   14   32   38    -40.39      0.00
    0   34   38    -28.81      0.00
    2   34   38     14.68      0.00
    4   34   38     -7.87      0.00
    6   34   38     31.88      0.00
    8   34   38      3.37      0.00
   10   34   38     25.84      0.00
   19   21   39     13.83      0.00
   21   21   39     44.41      0.00
   15   23   39     37.15      0.00
   17   23   39      8.81      0.00
   19   23   39     -5.47      0.00
   21   23   39      4.94      0.00
   23   23   39    -20.29      0.00
   11   25   39     16.18      0.00
   13   25   39    -65.12      0.00
   15   25   39     31.49      0.00
   17   25   39    -21.87      0.00
   19   25   39     29.60      0.00
   21   25   39    -20.63      0.00
   23   25   39     35.38      0.00
    3   27   39   -115.01      0.00
    5   27   39    -27.11      0.00
    7   27   39    -13.33      0.00
    9   27   39     56.08      0.00
   11   27   39    -34.24      0.00
   13   27   39    -43.14      0.00
   15   27   39    -18.09      0.00
   17   27   39    -12.03      0.00
   19   27   39      4.89      0.00
   21   27   39      9.25      0.00
    1   29   39     20.06      0.00
    3   29   39    -23.25      0.00
    5   29   39     31.41      0.00
    7   29   39      5.32      0.00
    9   29   39    -50.87      0.00
   11   29   39     68.56      0.00
   13   29   39    -15.67      0.00
   15   29   39     48.91      0.00
   17   29   39    -17.67      0.00
    1   31   39      1.12      0.00
    3   31   39    -19.83      0.00
    5   31   39     14.97      0.00
    7   31   39     -4.87      0.00
    9   31   39    -17.87      0.00
   11   31   39     17.75      0.00
   13   31   39    -17.52      0.00
   15   31   39     -5.12      0.00
    1   33   39     40.24      0.00
    3   33   39     20.03      0.00
    5   33   39    -27.86      0.00
    7   33   39      0.05      0.00
    9   33   39    -33.15      0.00
   16   20   40      7.67      0.00
   18   20   40    -26.17      0.00
   20   20   40     24.86      0.00
   14   22   40    -20.22      0.00
   16   22   40     24.56      0.00
   18   22   40    -24.29      0.00
   20   22   40      5.00      0.00
   22   22   40      3.97      0.00
   10   24   40    -21.04      0.00
   12   24   40     17.87      0.00
   14   24   40    -18.97      0.00
   16   24   40     -2.43      0.00
   18   24   40    -26.17      0.00
   20   24   40     22.58      0.00
   22   24   40     34.72      0.00
    2   26   40     34.38      0.00
    4   26   40     36.61      0.00
    6   26   40     15.44      0.00
    8   26   40      7.69      0.00
   10   26   40    -31.79      0.00
   12   26   40    -21.42      0.00
   14   26   40    -21.78      0.00
   16   26   40     13.69      0.00
   18   26   40     21.00      0.00
   20   26   40      8.92      0.00
    0   28   40    -45.94      0.00
    2   28   40     37.56      0.00
    4   28   40     -8.43      0.00
    6   28   40     36.01      0.00
    8   28   40    -42.82      0.00
   10   28   40     35.56      0.00
   12   28   40     -6.21      0.00
   14   28   40     -5.77      0.00
   16   28   40    -19.53      0.00
   18   28   40    -32.04      0.00
    2   30   40     16.43      0.00
    4   30   40     -1.34      0.00
    6   30   40     -6.79      0.00
    8   30   40      4.79      0.00
   10   30   40    -15.28      0.00
   12   30   40     41.46      0.00
   14   30   40    -20.09      0.00
    0   32   40     17.43      0.00
    2   32   40     23.85      0.00
    4   32   40    -10.98      0.00
    6   32   40     81.18      0.00
    8   32   40      3.57      0.00
   17   17   41     58.60      0.00
   15   19   41     30.82      0.00
   17   19   41     51.71      0.00
   19   19   41     17.98      0.00
   13   21   41    106.47      0.00
   15   21   41     24.74      0.00
   17   21   41      0.94      0.00
   19   21   41     47.50      0.00
   21   21   41     31.08      0.00
    7   23   41      6.62      0.00
    9   23   41    -62.03      0.00
   11   23   41     32.81      0.00
   13   23   41    -77.62      0.00
   15   23   41     16.61      0.00
   17   23   41     -3.77      0.00
   19   23   41     39.79      0.00
   21   23   41    -32.85      0.00
    1   25   41    -22.78      0.00
    3   25   41    -20.75      0.00
    5   25   41     11.38      0.00
    7   25   41    -77.33      0.00
    9   25   41     30.28      0.00
   11   25   41     60.97      0.00
   13   25   41     24.76      0.00
   15   25   41      0.56      0.00
   17   25   41     10.43      0.00
   19   25   41     -9.08      0.00
    1   27   41     46.43      0.00
    3   27   41     20.85      0.00
    5   27   41      5.43      0.00
    7   27   41     17.20      0.00
    9   27   41    -15.88      0.00
   11   27   41      7.18      0.00
   13   27   41    -47.58      0.00
   15   27   41     -0.93      0.00
   17   27   41      0.78      0.00
    1   29   41    -15.98      0.00
    3   29   41    -37.54      0.00
    5   29   41     -5.75      0.00
    7   29   41     10.78      0.00
    9   29   41     11.50      0.00
   11   29   41      6.30      0.00
   13   29   41    -24.81      0.00
    1   31   41      7.52      0.00
    3   31   41    -14.42      0.00
    5   31   41     10.43      0.00
    7   31   41    -22.48      0.00
   16   16   42     21.39      0.00
   14   18   42    -47.87      0.00
   16   18   42    -11.74      0.00
   18   18   42    -38.48      0.00
   10   20   42      5.43      0.00
   12   20   42     -2.18      0.00
   14   20   42    -37.58      0.00
   16   20   42     57.81      0.00
   18   20   42    -25.28      0.00
   20   20   42     21.86      0.00
    4   22   42     27.06      0.00
    6   22   42    -10.74      0.00
    8   22   42     10.24      0.00
   10   22   42     20.75      0.00
   12   22   42    -34.08      0.00
   14   22   42     14.29      0.00
   16   22   42     -3.01      0.00
   18   22   42    -18.78      0.00
   20   22   42    -18.39      0.00
    2   24   42     -0.23      0.00
    4   24   42     24.82      0.00
    6   24   42    -14.27      0.00
    8   24   42    -24.91      0.00
   10   24   42     -3.43      0.00
   12   24   42    -22.64      0.00
   14   24   42    -18.07      0.00
   16   24   42     20.51      0.00
   18   24   42    -62.80      0.00
    0   26   42     -4.43      0.00
    2   26   42    -21.75      0.00
    4   26   42     -1.26      0.00
    6   26   42     38.74      0.00
    8   26   42    -35.71      0.00
   10   26   42     30.75      0.00
   12   26   42     44.68      0.00
   14   26   42     36.76      0.00
   16   26   42    -17.33      0.00
    2   28   42    -16.23      0.00
    4   28   42     38.97      0.00
    6   28   42     25.07      0.00
    8   28   42     -6.00      0.00
   10   28   42    -24.94      0.00
   12   28   42    -16.35      0.00
    0   30   42    -34.28      0.00
    2   30   42     -6.54      0.00
    4   30   42     -0.36      0.00
    6   30   42      0.49      0.00
   15   15   43    -54.88      0.00
   11   17   43     -7.54      0.00
   13   17   43     59.89      0.00
   15   17   43     42.89      0.00
   17   17   43      4.81      0.00
    7   19   43   -108.71      0.00
    9   19   43     86.52      0.00
   11   19   43    -10.79      0.00
   13   19   43      8.02      0.00
   15   19   43     -8.69      0.00
   17   19   43     -9.09      0.00
   19   19   43    -27.76      0.00
    1   21   43     83.23      0.00
    3   21   43    -47.03      0.00
    5   21   43     47.83      0.00
    7   21   43     37.46      0.00
    9   21   43    -76.29      0.00
   11   21   43     28.27      0.00
   13   21   43     39.07      0.00
   15   21   43     -2.45      0.00
   17   21   43    -14.35      0.00
   19   21   43    -37.19      0.00
    1   23   43      6.49      0.00
    3   23   43    -41.87      0.00
    5   23   43     10.91      0.00
    7   23   43     22.46      0.00
    9   23   43     31.56      0.00
   11   23   43      2.47      0.00
   13   23   43      6.10      0.00
   15   23   43     15.02      0.00
   17   23   43      5.57      0.00
    1   25   43    -23.81      0.00
    3   25   43    -13.76      0.00
    5   25   43     12.96      0.00
    7   25   43     50.20      0.00
    9   25   43     17.77      0.00
   11   25   43    -15.95      0.00
   13   25   43    -14.04      0.00
   15   25   43    -16.04      0.00
    1   27   43     47.15      0.00
    3   27   43      5.58      0.00
    5   27   43     -0.71      0.00
    7   27   43     -9.38      0.00
    9   27   43     -3.07      0.00
   11   27   43     10.71      0.00
    1   29   43     15.29      0.00
    3   29   43    -36.57      0.00
    5   29   43     -6.37      0.00
   12   14   44     -5.17      0.00
   14   14   44     14.24      0.00
    8   16   44    -18.37      0.00
   10   16   44     29.05      0.00
   12   16   44    -27.63      0.00
   14   16   44    -20.44      0.00
   16   16   44    -63.89      0.00
    2   18   44    -81.79      0.00
    4   18   44     58.27      0.00
    6   18   44      8.79      0.00
    8   18   44      1.50      0.00
   10   18   44     23.31      0.00
   12   18   44    -62.95      0.00
   14   18   44     -6.67      0.00
   16   18   44    -21.06      0.00
   18   18   44    -37.37      0.00
    0   20   44     -5.63      0.00
    2   20   44     23.28      0.00
    4   20   44    -13.18      0.00
    6   20   44     47.53      0.00
    8   20   44      1.28      0.00
   10   20   44     50.02      0.00
   12   20   44      7.77      0.00
   14   20   44     -4.52      0.00
   16   20   44    -13.31      0.00
   18   20   44     13.66      0.00
    2   22   44     20.83      0.00
    4   22   44    -10.43      0.00
    6   22   44    -23.89      0.00
    8   22   44     35.55      0.00
   10   22   44      4.40      0.00
   12   22   44     -1.26      0.00
   14   22   44     13.77      0.00
   16   22   44     19.09      0.00
    0   24   44      5.80      0.00
    2   24   44     29.17      0.00
    4   24   44    -14.05      0.00
    6   24   44    -39.97      0.00
    8   24   44     14.67      0.00
   10   24   44     -8.96      0.00
   12   24   44     -0.13      0.00
   14   24   44     -9.44      0.00
    2   26   44     -5.24      0.00
    4   26   44     -7.49      0.00
    6   26   44     11.42      0.00
    8   26   44    -26.30      0.00
   10   26   44     14.97      0.00
   11   11   45     62.68      0.00
    9   13   45     20.03      0.00
   11   13   45    -43.11      0.00
   13   13   45    -16.75      0.00
    3   15   45    -27.57      0.00
    5   15   45     38.06      0.00
    7   15   45    -49.16      0.00
    9   15   45      2.16      0.00
   11   15   45     -2.02      0.00
   13   15   45     -4.13      0.00
   15   15   45     54.67      0.00
    1   17   45    -11.79      0.00
    3   17   45     12.66      0.00
    5   17   45    -79.71      0.00
    7   17   45     65.87      0.00
    9   17   45     15.78      0.00
   11   17   45     39.08      0.00
   13   17   45     49.15      0.00
   15   17   45     35.05      0.00
   17   17   45     11.11      0.00
    1   19   45    -43.78      0.00
    3   19   45    -13.60      0.00
    5   19   45     24.76      0.00
    7   19   45     37.89      0.00
    9   19   45    -28.08      0.00
   11   19   45     -0.34      0.00
   13   19   45    -38.22      0.00
   15   19   45    -11.96      0.00
   17   19   45      5.47      0.00
    1   21   45      7.40      0.00
    3   21   45    -12.11      0.00
    5   21   45      0.16      0.00
    7   21   45    -12.05      0.00
    9   21   45     -5.81      0.00
   11   21   45     13.23      0.00
   13   21   45    -39.04      0.00
   15   21   45     23.95      0.00
    1   23   45    -28.14      0.00
    3   23   45     12.60      0.00
    5   23   45     -1.23      0.00
    7   23   45    -37.74      0.00
    9   23   45     15.01      0.00
   11   23   45     -3.57      0.00
    1   25   45     21.78      0.00
    3   25   45    -11.27      0.00
    5   25   45     -1.42      0.00
    7   25   45     -9.28      0.00
    8   10   46    -11.46      0.00
   10   10   46     20.28      0.00
    2   12   46     44.57      0.00
    4   12   46    -36.30      0.00
    6   12   46    -28.21      0.00
    8   12   46     35.62      0.00
   10   12   46    -10.86      0.00
   12   12   46     44.15      0.00
    0   14   46      0.38      0.00
    2   14   46    -58.11      0.00
    4   14   46    -57.91      0.00
    6   14   46     44.28      0.00
    8   14   46     10.05      0.00
   10   14   46     31.58      0.00
   12   14   46    -21.64      0.00
   14   14   46    -59.14      0.00
    2   16   46     30.49      0.00
    4   16   46     11.27      0.00
    6   16   46     14.13      0.00
    8   16   46    -20.91      0.00
   10   16   46     21.00      0.00
   12   16   46    -42.53      0.00
   14   16   46     -7.00      0.00
   16   16   46     17.26      0.00
    0   18   46     11.16      0.00
    2   18   46    -11.90      0.00
    4   18   46    -29.58      0.00
    6   18   46   -104.49      0.00
    8   18   46    -25.20      0.00
   10   18   46    -16.93      0.00
   12   18   46    -32.88      0.00
   14   18   46      4.45      0.00
   16   18   46      5.26      0.00
    2   20   46     -1.76      0.00
    4   20   46     58.42      0.00
    6   20   46    -28.79      0.00
    8   20   46     -2.14      0.00
   10   20   46    -16.24      0.00
   12   20   46    -22.03      0.00
   14   20   46     38.40      0.00
    0   22   46      3.45      0.00
    2   22   46    -19.41      0.00
    4   22   46    -20.69      0.00
    6   22   46     13.95      0.00
    8   22   46     -5.87      0.00
   10   22   46    -13.45      0.00
    2   24   46     -9.88      0.00
    4   24   46     24.12      0.00
    5    5   47    118.19      0.00
    1    7   47    -10.34      0.00
    3    7   47    -26.17      0.00
    5    7   47     33.15      0.00
    7    7   47    -32.21      0.00
    1    9   47     -8.05      0.00
    3    9   47    -74.75      0.00
    5    9   47     19.68      0.00
    7    9   47    -42.25      0.00
    9    9   47     25.42      0.00
    1   11   47    -38.43      0.00
    3   11   47     -9.28      0.00
    5   11   47     23.73      0.00
    7   11   47     10.63      0.00
    9   11   47     37.05      0.00
   11   11   47      3.81      0.00
    1   13   47     29.36      0.00
    3   13   47     49.93      0.00
    5   13   47      4.50      0.00
    7   13   47    -42.66      0.00
    9   13   47    -22.90      0.00
   11   13   47     -8.80      0.00
   13   13   47     -1.42      0.00
    1   15   47    -26.57      0.00
    3   15   47     26.86      0.00
    5   15   47      2.88      0.00
    7   15   47    -21.52      0.00
    9   15   47      5.03      0.00
   11   15   47     13.60      0.00
   13   15   47     30.77      0.00
   15   15   47      3.96      0.00
    1   17   47     -2.51      0.00
    3   17   47     47.41      0.00
    5   17   47     19.87      0.00
    7   17   47     11.53      0.00
    9   17   47    -13.22      0.00
   11   17   47     13.75      0.00
   13   17   47    -28.19      0.00
    1   19   47    -56.34      0.00
    3   19   47     11.94      0.00
    5   19   47    -28.79      0.00
    7   19   47     14.32      0.00
    9   19   47     15.33      0.00
   11   19   47     35.43      0.00
    1   21   47     -5.18      0.00
    3   21   47     -2.69      0.00
    5   21   47     17.62      0.00
    7   21   47    -27.77      0.00
    0    0    0      0.00      0.00
# SQUEEZE RESULTS (Version = 110516)
# Note: Data are Listed for all Voids in the P1 Unit Cell
# i.e. Centre of Gravity, Solvent Accessible Volume,
# Recovered number of Electrons in the Void and
# Details about the Squeezed Material
loop_
  _platon_squeeze_void_nr
  _platon_squeeze_void_average_x
  _platon_squeeze_void_average_y
  _platon_squeeze_void_average_z
  _platon_squeeze_void_volume
  _platon_squeeze_void_count_electrons
  _platon_squeeze_void_content
   1  0.000  0.000  0.000       166        27 ' '
   2  0.249 -0.072 -0.062     37333      8853 ' '
   3  0.250  0.000  0.250       166        27 ' '
   4  0.500  0.000  0.500       167        27 ' '
   5  0.750  0.000  0.750       166        27 ' '
   6  0.250  0.250  0.000       166        27 ' '
   7  0.000  0.250  0.250       167        27 ' '
   8  0.750  0.250  0.500       166        27 ' '
   9  0.500  0.250  0.750       167        27 ' '
  10  0.750  0.500  0.250       166        27 ' '
  11  1.000  0.500  0.500       167        27 ' '
  12  0.250  0.500  0.750       166        27 ' '
  13  0.500  0.500  1.000       167        27 ' '
  14  0.750  0.750  0.000       166        27 ' '
  15  0.500  0.750  0.250       167        27 ' '
  16  0.250  0.750  0.500       166        27 ' '
  17  0.000  0.750  0.750       167        27 ' '
# Missing Reflections Below sin(th)/lambda = 0.25
loop_
  _platon_missing_refln_index_h
  _platon_missing_refln_index_k
  _platon_missing_refln_index_l
  _platon_missing_refln_theta
    1    1    1     0.885
    0    2    2     1.445
    2    2    2     1.769
    1    1    3     1.694
    0    0    4     2.043
_platon_squeeze_void_probe_radius                  1.20
_platon_squeeze_details
)
TITL 2016ncs0460_a.res in Fd-3m
CELL   39.8670   39.8670   39.8670     90.00     90.00     90.00
SPGR Fd-3m
# Solvent Accessible Volume =     40010
# Note: Atoms in Void as Cxxx and Qxxx all others
C101 0.799 0.448 0.448 !       3.88 eA-3
Q102 0.051 0.192 0.207 !       2.78 eA-3
C103 0.689 0.189 0.189 !       2.47 eA-3
C104 0.984 0.266 0.266 !       2.43 eA-3
C105 0.228 0.025 0.225 !       2.12 eA-3
C106 0.728 0.025 0.725 !       2.12 eA-3
Q107 0.875 0.211 0.375 !       2.00 eA-3
C108 0.506 0.288 0.139 !       1.95 eA-3
C109 0.413 0.335 0.415 !       1.95 eA-3
C110 0.636 0.114 0.114 !       1.90 eA-3
C111 0.825 0.093 0.157 !       1.87 eA-3
C112 0.385 0.269 0.269 !       1.82 eA-3
Q113 0.827 0.084 0.328 !       1.76 eA-3
C114 0.595 0.116 0.116 !       1.76 eA-3
C115 0.095 0.116 0.616 !       1.76 eA-3
C116 0.595 0.616 0.616 !       1.76 eA-3
C117 0.905 0.384 0.884 !       1.76 eA-3
C118 0.405 0.884 0.884 !       1.76 eA-3
C119 0.212 0.208 0.228 !       1.73 eA-3
C120 0.975 0.296 0.296 !       1.69 eA-3
C121 0.673 0.174 0.141 !       1.63 eA-3
C122 0.712 0.040 0.210 !       1.55 eA-3
C123 0.281 0.282 0.968 !       1.52 eA-3
C124 0.414 0.414 0.383 !       1.48 eA-3
Q125 0.195 0.054 0.251 !       1.46 eA-3
C126 0.565 0.375 0.375 !       1.45 eA-3
C127 0.414 0.055 0.914 !       1.41 eA-3
C128 0.914 0.555 0.914 !       1.41 eA-3
C129 0.914 0.055 0.414 !       1.41 eA-3
C130 0.717 0.530 0.720 !       1.41 eA-3
C131 0.717 0.030 0.220 !       1.41 eA-3
C132 0.783 0.470 0.780 !       1.41 eA-3
C133 0.992 0.462 0.257 !       1.39 eA-3
C134 1.000 0.438 0.248 !       1.36 eA-3
Q135 0.928 0.318 0.432 !       1.36 eA-3
C136 0.506 0.249 0.289 !       1.34 eA-3
C137 0.515 0.238 0.094 !       1.33 eA-3
C138 0.946 0.009 0.444 !       1.32 eA-3
C139 0.875 0.375 0.898 !       1.31 eA-3
C140 0.616 0.225 0.084 !       1.31 eA-3
C141 0.522 0.361 0.486 !       1.31 eA-3
C142 0.093 0.204 0.657 !       1.30 eA-3
C143 0.593 0.204 0.157 !       1.30 eA-3
C144 0.593 0.704 0.657 !       1.30 eA-3
C145 0.907 0.296 0.843 !       1.30 eA-3
C146 0.642 0.314 0.139 !       1.30 eA-3
Q147 0.528 0.362 0.223 !       1.29 eA-3
C148 0.907 0.072 0.485 !       1.28 eA-3
C149 0.702 0.014 0.206 !       1.28 eA-3
Q150 0.938 0.436 0.196 !       1.28 eA-3
C151 0.773 0.023 0.274 !       1.25 eA-3
C152 0.860 0.093 0.257 !       1.25 eA-3
C153 0.506 0.188 0.188 !       1.24 eA-3
C154 0.985 0.461 0.485 !       1.24 eA-3
C155 0.530 0.281 0.249 !       1.22 eA-3
C156 0.381 0.367 0.298 !       1.21 eA-3
C157 0.602 0.078 0.105 !       1.21 eA-3
C158 0.483 0.469 0.328 !       1.21 eA-3
C159 0.248 0.492 0.266 !       1.19 eA-3
C160 0.024 0.266 0.266 !       1.19 eA-3
C161 0.367 0.367 0.477 !       1.19 eA-3
Q162 0.686 0.350 0.189 !       1.17 eA-3
C163 0.634 0.827 0.615 !       1.17 eA-3
C164 0.134 0.327 0.615 !       1.17 eA-3
C165 0.634 0.327 0.115 !       1.17 eA-3
C166 0.244 0.243 0.354 !       1.17 eA-3
C167 0.151 0.424 0.115 !       1.16 eA-3
C168 0.438 0.148 0.032 !       1.16 eA-3
C169 0.343 0.408 0.485 !       1.15 eA-3
C170 0.554 0.305 0.249 !       1.15 eA-3
C171 0.658 0.094 0.123 !       1.15 eA-3
C172 0.747 0.125 0.125 !       1.15 eA-3
C173 0.304 0.422 0.323 !       1.13 eA-3
C174 0.320 0.289 0.384 !       1.11 eA-3
Q175 0.234 0.017 0.305 !       1.11 eA-3
C176 0.523 0.126 0.341 !       1.10 eA-3
C177 0.468 0.300 0.321 !       1.10 eA-3
C178 0.977 0.484 0.266 !       1.10 eA-3
C179 0.368 0.429 0.372 !       1.09 eA-3
C180 0.430 0.428 0.477 !       1.09 eA-3
C181 0.555 0.056 0.086 !       1.09 eA-3
C182 0.682 0.319 0.109 !       1.09 eA-3
C183 0.766 0.485 0.038 !       1.09 eA-3
C184 0.054 0.048 0.240 !       1.07 eA-3
C185 0.555 0.055 0.055 !       1.07 eA-3
C186 0.978 0.478 0.978 !       1.06 eA-3
C187 0.264 0.460 0.264 !       1.06 eA-3
C188 0.279 0.277 0.357 !       1.06 eA-3
C189 0.664 0.062 0.088 !       1.06 eA-3
C190 0.632 0.027 0.322 !       1.06 eA-3
C191 0.132 0.527 0.322 !       1.06 eA-3
C192 0.368 0.973 0.678 !       1.06 eA-3
C193 0.926 0.226 0.631 !       1.06 eA-3
C194 0.574 0.881 0.976 !       1.06 eA-3
C195 0.574 0.976 0.881 !       1.06 eA-3
C196 0.992 0.031 0.219 !       1.06 eA-3
C197 0.382 0.681 0.770 !       1.06 eA-3
C198 0.676 0.366 0.978 !       1.06 eA-3
Q199 0.446 0.361 0.861 !       1.05 eA-3
)
;
_shelx_shelxl_version_number     2014/7
_olex2_submission_special_instructions 'No special instructions were received'
_oxdiff_exptl_absorpt_empirical_details
;
Empirical correction (ABSPACK) includes:
- Absorption correction using spherical harmonics
- Frame scaling
;
_oxdiff_exptl_absorpt_empirical_full_max 1.110
_oxdiff_exptl_absorpt_empirical_full_min 0.806
loop_
_space_group_symop_operation_xyz
'x, y, z'
'-x+3/4, -y+1/4, z+1/2'
'-x+1/4, y+1/2, -z+3/4'
'x+1/2, -y+3/4, -z+1/4'
'z, x, y'
'z+1/2, -x+3/4, -y+1/4'
'-z+3/4, -x+1/4, y+1/2'
'-z+1/4, x+1/2, -y+3/4'
'y, z, x'
'-y+1/4, z+1/2, -x+3/4'
'y+1/2, -z+3/4, -x+1/4'
'-y+3/4, -z+1/4, x+1/2'
'y+3/4, x+1/4, -z+1/2'
'-y, -x, -z'
'y+1/4, -x+1/2, z+3/4'
'-y+1/2, x+3/4, z+1/4'
'x+3/4, z+1/4, -y+1/2'
'-x+1/2, z+3/4, y+1/4'
'-x, -z, -y'
'x+1/4, -z+1/2, y+3/4'
'z+3/4, y+1/4, -x+1/2'
'z+1/4, -y+1/2, x+3/4'
'-z+1/2, y+3/4, x+1/4'
'-z, -y, -x'
'x, y+1/2, z+1/2'
'-x+3/4, -y+3/4, z+1'
'-x+1/4, y+1, -z+5/4'
'x+1/2, -y+5/4, -z+3/4'
'z, x+1/2, y+1/2'
'z+1/2, -x+5/4, -y+3/4'
'-z+3/4, -x+3/4, y+1'
'-z+1/4, x+1, -y+5/4'
'y, z+1/2, x+1/2'
'-y+1/4, z+1, -x+5/4'
'y+1/2, -z+5/4, -x+3/4'
'-y+3/4, -z+3/4, x+1'
'y+3/4, x+3/4, -z+1'
'-y, -x+1/2, -z+1/2'
'y+1/4, -x+1, z+5/4'
'-y+1/2, x+5/4, z+3/4'
'x+3/4, z+3/4, -y+1'
'-x+1/2, z+5/4, y+3/4'
'-x, -z+1/2, -y+1/2'
'x+1/4, -z+1, y+5/4'
'z+3/4, y+3/4, -x+1'
'z+1/4, -y+1, x+5/4'
'-z+1/2, y+5/4, x+3/4'
'-z, -y+1/2, -x+1/2'
'x+1/2, y, z+1/2'
'-x+5/4, -y+1/4, z+1'
'-x+3/4, y+1/2, -z+5/4'
'x+1, -y+3/4, -z+3/4'
'z+1/2, x, y+1/2'
'z+1, -x+3/4, -y+3/4'
'-z+5/4, -x+1/4, y+1'
'-z+3/4, x+1/2, -y+5/4'
'y+1/2, z, x+1/2'
'-y+3/4, z+1/2, -x+5/4'
'y+1, -z+3/4, -x+3/4'
'-y+5/4, -z+1/4, x+1'
'y+5/4, x+1/4, -z+1'
'-y+1/2, -x, -z+1/2'
'y+3/4, -x+1/2, z+5/4'
'-y+1, x+3/4, z+3/4'
'x+5/4, z+1/4, -y+1'
'-x+1, z+3/4, y+3/4'
'-x+1/2, -z, -y+1/2'
'x+3/4, -z+1/2, y+5/4'
'z+5/4, y+1/4, -x+1'
'z+3/4, -y+1/2, x+5/4'
'-z+1, y+3/4, x+3/4'
'-z+1/2, -y, -x+1/2'
'x+1/2, y+1/2, z'
'-x+5/4, -y+3/4, z+1/2'
'-x+3/4, y+1, -z+3/4'
'x+1, -y+5/4, -z+1/4'
'z+1/2, x+1/2, y'
'z+1, -x+5/4, -y+1/4'
'-z+5/4, -x+3/4, y+1/2'
'-z+3/4, x+1, -y+3/4'
'y+1/2, z+1/2, x'
'-y+3/4, z+1, -x+3/4'
'y+1, -z+5/4, -x+1/4'
'-y+5/4, -z+3/4, x+1/2'
'y+5/4, x+3/4, -z+1/2'
'-y+1/2, -x+1/2, -z'
'y+3/4, -x+1, z+3/4'
'-y+1, x+5/4, z+1/4'
'x+5/4, z+3/4, -y+1/2'
'-x+1, z+5/4, y+1/4'
'-x+1/2, -z+1/2, -y'
'x+3/4, -z+1, y+3/4'
'z+5/4, y+3/4, -x+1/2'
'z+3/4, -y+1, x+3/4'
'-z+1, y+5/4, x+1/4'
'-z+1/2, -y+1/2, -x'
'-x, -y, -z'
'x-3/4, y-1/4, -z-1/2'
'x-1/4, -y-1/2, z-3/4'
'-x-1/2, y-3/4, z-1/4'
'-z, -x, -y'
'-z-1/2, x-3/4, y-1/4'
'z-3/4, x-1/4, -y-1/2'
'z-1/4, -x-1/2, y-3/4'
'-y, -z, -x'
'y-1/4, -z-1/2, x-3/4'
'-y-1/2, z-3/4, x-1/4'
'y-3/4, z-1/4, -x-1/2'
'-y-3/4, -x-1/4, z-1/2'
'y, x, z'
'-y-1/4, x-1/2, -z-3/4'
'y-1/2, -x-3/4, -z-1/4'
'-x-3/4, -z-1/4, y-1/2'
'x-1/2, -z-3/4, -y-1/4'
'x, z, y'
'-x-1/4, z-1/2, -y-3/4'
'-z-3/4, -y-1/4, x-1/2'
'-z-1/4, y-1/2, -x-3/4'
'z-1/2, -y-3/4, -x-1/4'
'z, y, x'
'-x, -y+1/2, -z+1/2'
'x-3/4, y+1/4, -z'
'x-1/4, -y, z-1/4'
'-x-1/2, y-1/4, z+1/4'
'-z, -x+1/2, -y+1/2'
'-z-1/2, x-1/4, y+1/4'
'z-3/4, x+1/4, -y'
'z-1/4, -x, y-1/4'
'-y, -z+1/2, -x+1/2'
'y-1/4, -z, x-1/4'
'-y-1/2, z-1/4, x+1/4'
'y-3/4, z+1/4, -x'
'-y-3/4, -x+1/4, z'
'y, x+1/2, z+1/2'
'-y-1/4, x, -z-1/4'
'y-1/2, -x-1/4, -z+1/4'
'-x-3/4, -z+1/4, y'
'x-1/2, -z-1/4, -y+1/4'
'x, z+1/2, y+1/2'
'-x-1/4, z, -y-1/4'
'-z-3/4, -y+1/4, x'
'-z-1/4, y, -x-1/4'
'z-1/2, -y-1/4, -x+1/4'
'z, y+1/2, x+1/2'
'-x+1/2, -y, -z+1/2'
'x-1/4, y-1/4, -z'
'x+1/4, -y-1/2, z-1/4'
'-x, y-3/4, z+1/4'
'-z+1/2, -x, -y+1/2'
'-z, x-3/4, y+1/4'
'z-1/4, x-1/4, -y'
'z+1/4, -x-1/2, y-1/4'
'-y+1/2, -z, -x+1/2'
'y+1/4, -z-1/2, x-1/4'
'-y, z-3/4, x+1/4'
'y-1/4, z-1/4, -x'
'-y-1/4, -x-1/4, z'
'y+1/2, x, z+1/2'
'-y+1/4, x-1/2, -z-1/4'
'y, -x-3/4, -z+1/4'
'-x-1/4, -z-1/4, y'
'x, -z-3/4, -y+1/4'
'x+1/2, z, y+1/2'
'-x+1/4, z-1/2, -y-1/4'
'-z-1/4, -y-1/4, x'
'-z+1/4, y-1/2, -x-1/4'
'z, -y-3/4, -x+1/4'
'z+1/2, y, x+1/2'
'-x+1/2, -y+1/2, -z'
'x-1/4, y+1/4, -z-1/2'
'x+1/4, -y, z-3/4'
'-x, y-1/4, z-1/4'
'-z+1/2, -x+1/2, -y'
'-z, x-1/4, y-1/4'
'z-1/4, x+1/4, -y-1/2'
'z+1/4, -x, y-3/4'
'-y+1/2, -z+1/2, -x'
'y+1/4, -z, x-3/4'
'-y, z-1/4, x-1/4'
'y-1/4, z+1/4, -x-1/2'
'-y-1/4, -x+1/4, z-1/2'
'y+1/2, x+1/2, z'
'-y+1/4, x, -z-3/4'
'y, -x-1/4, -z-1/4'
'-x-1/4, -z+1/4, y-1/2'
'x, -z-1/4, -y-1/4'
'x+1/2, z+1/2, y'
'-x+1/4, z, -y-3/4'
'-z-1/4, -y+1/4, x-1/2'
'-z+1/4, y, -x-3/4'
'z, -y-1/4, -x-1/4'
'z+1/2, y+1/2, x'
loop_
_atom_site_label
_atom_site_type_symbol
_atom_site_fract_x
_atom_site_fract_y
_atom_site_fract_z
_atom_site_U_iso_or_equiv
_atom_site_adp_type
_atom_site_occupancy
_atom_site_site_symmetry_order
_atom_site_calc_flag
_atom_site_refinement_flags_posn
_atom_site_refinement_flags_adp
_atom_site_refinement_flags_occupancy
_atom_site_disorder_assembly
_atom_site_disorder_group
Hf1 Hf 0.43669(2) 0.8750 0.3750 0.01183(17) Uani 1 4 d S T P . .
S1 S 0.68696(18) 0.68696(18) 0.3487(3) 0.140(4) Uani 0.5 2 d S T P A 1
O1 O 0.46412(10) 0.82699(10) 0.37483(12) 0.0312(10) Uani 1 1 d . . . . .
O2 O 0.40456(19) 0.84544(19) 0.34544(19) 0.043(4) Uani 1 6 d S T P . .
O3 O 0.4076(2) 0.9076(2) 0.3424(2) 0.054(4) Uani 1 6 d S T P . .
N1 N 0.6467(5) 0.6925(5) 0.3472(6) 0.126(8) Uani 0.5 1 d . . . A 1
C1 C 0.45350(15) 0.79650(15) 0.3722(3) 0.033(2) Uani 1 2 d S T P . .
C2 C 0.48006(16) 0.76994(16) 0.3675(3) 0.041(3) Uani 1 2 d S T P . .
C3 C 0.4701(2) 0.73653(18) 0.3650(3) 0.072(3) Uani 1 1 d . . . . .
H3 H 0.4476 0.7306 0.3672 0.086 Uiso 1 1 calc R . . . .
C4 C 0.49434(19) 0.7125(2) 0.3592(3) 0.086(4) Uani 1 1 d . . . . .
H4 H 0.4884 0.6900 0.3571 0.104 Uiso 1 1 calc R . . . .
C5 C 0.52782(18) 0.72218(18) 0.3564(4) 0.080(5) Uani 1 2 d S T P . .
C6 C 0.5530(2) 0.6970(2) 0.3489(6) 0.126(8) Uani 1 2 d S T P . .
C7 C 0.5742(2) 0.6758(2) 0.3452(5) 0.102(6) Uani 1 2 d S T P . .
C8 C 0.5999(2) 0.6501(2) 0.3407(5) 0.103(7) Uani 1 2 d S T P A .
C9 C 0.6322(2) 0.6572(2) 0.3410(3) 0.108(4) Uani 1 1 d . . . . .
H9 H 0.6388 0.6796 0.3412 0.130 Uiso 0.5 1 calc R . . A 2
loop_
_atom_site_aniso_label
_atom_site_aniso_U_11
_atom_site_aniso_U_22
_atom_site_aniso_U_33
_atom_site_aniso_U_23
_atom_site_aniso_U_13
_atom_site_aniso_U_12
Hf1 0.0098(2) 0.01285(19) 0.01285(19) 0.0000(2) 0.000 0.000
S1 0.081(4) 0.081(4) 0.258(14) 0.018(6) 0.018(6) 0.009(5)
O1 0.029(2) 0.026(2) 0.039(2) 0.013(2) 0.010(2) 0.0152(19)
O2 0.043(4) 0.043(4) 0.043(4) 0.033(4) -0.033(4) -0.033(4)
O3 0.054(4) 0.054(4) 0.054(4) -0.047(5) -0.047(5) 0.047(5)
N1 0.076(14) 0.123(17) 0.18(2) -0.006(17) -0.002(14) 0.050(13)
C1 0.028(3) 0.028(3) 0.043(6) 0.007(3) -0.007(3) 0.005(4)
C2 0.027(3) 0.027(3) 0.068(8) -0.001(3) 0.001(3) 0.004(4)
C3 0.047(5) 0.024(4) 0.144(10) -0.015(5) 0.021(6) 0.006(4)
C4 0.035(5) 0.031(4) 0.193(12) -0.015(6) 0.012(6) 0.018(4)
C5 0.039(4) 0.039(4) 0.163(15) -0.011(5) 0.011(5) 0.027(6)
C6 0.049(6) 0.049(6) 0.28(3) 0.007(7) -0.007(7) 0.030(7)
C7 0.056(6) 0.056(6) 0.193(18) 0.013(7) -0.013(7) 0.025(7)
C8 0.036(4) 0.036(4) 0.24(2) -0.021(7) 0.021(7) 0.004(6)
C9 0.075(8) 0.063(7) 0.187(13) 0.022(7) 0.031(8) 0.054(6)
loop_
_atom_type_symbol
_atom_type_description
_atom_type_scat_dispersion_real
_atom_type_scat_dispersion_imag
_atom_type_scat_source
C C 0.0033 0.0016 'International Tables Vol C Tables 4.2.6.8 and 6.1.1.4'
H H 0.0000 0.0000 'International Tables Vol C Tables 4.2.6.8 and 6.1.1.4'
Hf Hf -0.5830 6.1852 'International Tables Vol C Tables 4.2.6.8 and 6.1.1.4'
N N 0.0061 0.0033 'International Tables Vol C Tables 4.2.6.8 and 6.1.1.4'
O O 0.0106 0.0060 'International Tables Vol C Tables 4.2.6.8 and 6.1.1.4'
S S 0.1246 0.1234 'International Tables Vol C Tables 4.2.6.8 and 6.1.1.4'
loop_
_geom_angle_atom_site_label_1
_geom_angle_atom_site_label_2
_geom_angle_atom_site_label_3
_geom_angle
_geom_angle_site_symmetry_1
_geom_angle_site_symmetry_3
Hf1 Hf1 Hf1 60.0 29_554 81_455
Hf1 Hf1 Hf1 90.0 10_655 81_455
Hf1 Hf1 Hf1 60.0 78_456 81_455
Hf1 Hf1 Hf1 90.0 78_456 29_554
Hf1 Hf1 Hf1 60.0 10_655 29_554
Hf1 Hf1 Hf1 60.0 78_456 10_655
O1 Hf1 Hf1 74.75(11) . 78_456
O1 Hf1 Hf1 74.74(11) 52_465 29_554
O1 Hf1 Hf1 110.41(12) 52_465 81_455
O1 Hf1 Hf1 164.74(11) 52_465 78_456
O1 Hf1 Hf1 110.67(11) 139_554 29_554
O1 Hf1 Hf1 110.67(11) 162_576 78_456
O1 Hf1 Hf1 164.74(11) 139_554 81_455
O1 Hf1 Hf1 110.41(13) 139_554 78_456
O1 Hf1 Hf1 110.41(12) 162_576 29_554
O1 Hf1 Hf1 110.41(13) . 10_655
O1 Hf1 Hf1 110.67(11) . 81_455
O1 Hf1 Hf1 110.67(11) 52_465 10_655
O1 Hf1 Hf1 74.74(11) 162_576 81_455
O1 Hf1 Hf1 164.74(11) 162_576 10_655
O1 Hf1 Hf1 74.74(11) 139_554 10_655
O1 Hf1 Hf1 164.75(11) . 29_554
O1 Hf1 O1 76.1(3) . 162_576
O1 Hf1 O1 76.1(3) 52_465 139_554
O1 Hf1 O1 75.4(2) . 139_554
O1 Hf1 O1 75.4(2) 52_465 162_576
O1 Hf1 O1 120.5(2) 162_576 139_554
O1 Hf1 O1 120.5(2) . 52_465
O2 Hf1 Hf1 34.17(15) . 78_456
O2 Hf1 Hf1 88.0(3) 52_465 78_456
O2 Hf1 Hf1 88.0(3) . 81_455
O2 Hf1 Hf1 34.17(15) 52_465 29_554
O2 Hf1 Hf1 34.17(15) 52_465 81_455
O2 Hf1 Hf1 88.0(3) . 29_554
O2 Hf1 Hf1 34.17(16) . 10_655
O2 Hf1 Hf1 88.0(3) 52_465 10_655
O2 Hf1 O1 79.3(3) 52_465 162_576
O2 Hf1 O1 142.26(12) . 52_465
O2 Hf1 O1 79.3(3) . .
O2 Hf1 O1 142.26(12) . 162_576
O2 Hf1 O1 142.26(12) 52_465 .
O2 Hf1 O1 79.3(3) 52_465 52_465
O2 Hf1 O1 79.3(3) . 139_554
O2 Hf1 O1 142.26(12) 52_465 139_554
O2 Hf1 O2 104.9(7) 52_465 .
O2 Hf1 O3 71.0(2) . .
O2 Hf1 O3 71.0(2) . 52_465
O2 Hf1 O3 71.0(2) 52_465 .
O2 Hf1 O3 71.0(2) 52_465 52_465
O3 Hf1 Hf1 36.9(2) . 10_655
O3 Hf1 Hf1 92.6(3) . 78_456
O3 Hf1 Hf1 36.9(2) . 29_554
O3 Hf1 Hf1 92.6(3) . 81_455
O3 Hf1 Hf1 36.9(2) 52_465 78_456
O3 Hf1 Hf1 36.9(2) 52_465 81_455
O3 Hf1 Hf1 92.6(3) 52_465 29_554
O3 Hf1 Hf1 92.6(3) 52_465 10_655
O3 Hf1 O1 75.4(3) . 52_465
O3 Hf1 O1 141.46(14) 52_465 52_465
O3 Hf1 O1 141.46(14) . 162_576
O3 Hf1 O1 75.4(3) 52_465 162_576
O3 Hf1 O1 141.46(14) . .
O3 Hf1 O1 75.4(3) . 139_554
O3 Hf1 O1 141.46(14) 52_465 139_554
O3 Hf1 O1 75.4(3) 52_465 .
O3 Hf1 O3 115.5(7) . 52_465
N1 S1 N1 105.7(17) 110 .
C1 O1 Hf1 130.9(4) . .
Hf1 O2 Hf1 111.7(3) . 78_456
Hf1 O2 Hf1 111.7(3) 10_655 78_456
Hf1 O2 Hf1 111.7(3) . 10_655
Hf1 O3 Hf1 106.3(4) . 10_655
Hf1 O3 Hf1 106.3(4) . 29_554
Hf1 O3 Hf1 106.3(4) 10_655 29_554
C9 N1 S1 104.6(12) . .
O1 C1 O1 127.7(8) 133_765 .
O1 C1 C2 116.1(4) . .
O1 C1 C2 116.1(4) 133_765 .
C3 C2 C1 118.6(5) 133_765 .
C3 C2 C1 118.6(5) . .
C3 C2 C3 122.7(10) . 133_765
C2 C3 H3 120.8 . .
C4 C3 C2 118.4(8) . .
C4 C3 H3 120.8 . .
C3 C4 H4 120.3 . .
C3 C4 C5 119.4(8) . .
C5 C4 H4 120.3 . .
C4 C5 C4 121.7(10) . 133_765
C4 C5 C6 119.1(5) . .
C4 C5 C6 119.1(5) 133_765 .
C7 C6 C5 175(2) . .
C6 C7 C8 180(2) . .
C9 C8 C7 122.2(7) . .
C9 C8 C7 122.2(7) 133_765 .
C9 C8 C9 114.9(13) 133_765 .
C8 C9 N1 124.4(10) . .
C8 C9 C9 122.5(7) . 110
C8 C9 H9 118.7 . .
C9 C9 N1 112.4(7) 110 .
C9 C9 H9 118.7 110 .
loop_
_geom_bond_atom_site_label_1
_geom_bond_atom_site_label_2
_geom_bond_distance
_geom_bond_site_symmetry_2
Hf1 Hf1 3.4780(6) 10_655
Hf1 Hf1 3.4780(6) 81_455
Hf1 Hf1 3.4780(6) 29_554
Hf1 Hf1 3.4780(6) 78_456
Hf1 O1 2.204(4) .
Hf1 O1 2.204(4) 139_554
Hf1 O1 2.204(4) 52_465
Hf1 O1 2.204(4) 162_576
Hf1 O2 2.102(4) 52_465
Hf1 O2 2.102(4) .
Hf1 O3 2.173(6) 52_465
Hf1 O3 2.173(6) .
S1 N1 1.620(18) 110
S1 N1 1.620(18) .
O1 C1 1.291(6) .
O2 Hf1 2.102(4) 78_456
O2 Hf1 2.102(4) 10_655
O3 Hf1 2.173(6) 29_554
O3 Hf1 2.173(6) 10_655
N1 C9 1.54(2) .
C1 O1 1.291(6) 133_765
C1 C2 1.510(12) .
C2 C3 1.394(8) 133_765
C2 C3 1.394(8) .
C3 H3 0.9300 .
C3 C4 1.382(10) .
C4 H4 0.9300 .
C4 C5 1.394(9) .
C5 C4 1.394(9) 133_765
C5 C6 1.451(16) .
C6 C7 1.202(17) .
C7 C8 1.463(17) .
C8 C9 1.319(11) 133_765
C8 C9 1.319(11) .
C9 C9 1.410(15) 110
C9 H9 0.9300 .
loop_
_geom_torsion_atom_site_label_1
_geom_torsion_atom_site_label_2
_geom_torsion_atom_site_label_3
_geom_torsion_atom_site_label_4
_geom_torsion
_geom_torsion_site_symmetry_1
_geom_torsion_site_symmetry_4
Hf1 O1 C1 O1 -13.3(17) . 133_765
Hf1 O1 C1 C2 170.5(6) . .
S1 N1 C9 C8 174.5(16) . .
S1 N1 C9 C9 4.1(16) . 110
O1 C1 C2 C3 -2.4(15) . 133_765
O1 C1 C2 C3 2.4(15) 133_765 .
O1 C1 C2 C3 -179.1(10) 133_765 133_765
O1 C1 C2 C3 179.1(10) . .
N1 S1 N1 C9 -6(2) 110 .
C1 C2 C3 C4 177.1(10) . .
C2 C3 C4 C5 0.8(18) . .
C3 C2 C3 C4 -1(2) 133_765 .
C3 C4 C5 C4 0(2) . 133_765
C3 C4 C5 C6 -177.4(15) . .
C7 C8 C9 N1 2(3) . .
C7 C8 C9 C9 171.5(13) . 110
C9 C8 C9 N1 -168.3(13) 133_765 .
C9 C8 C9 C9 1(2) 133_765 110
