#------------------------------------------------------------------------------
#$Date: 2017-06-05 03:21:22 +0300 (Mon, 05 Jun 2017) $
#$Revision: 197420 $
#$URL: file:///home/coder/svn-repositories/cod/cif/4/12/59/4125918.cif $
#------------------------------------------------------------------------------
#
# This file is available in the Crystallography Open Database (COD),
# http://www.crystallography.net/
#
# All data on this site have been placed in the public domain by the
# contributors.
#
data_4125918
loop_
_publ_author_name
'Bezuidenhout, Charl X.'
'Smith, Vincent J.'
'Esterhuysen, Catharine'
'Barbour, Leonard J.'
_publ_section_title
;
 Solvent- and Pressure-Induced Phase Changes in Two 3D Copper
 Glutarate-Based Metal-Organic Frameworks via Glutarate (+gauche &#x21C4;
 -gauche) Conformational Isomerism.
;
_journal_issue                   16
_journal_name_full               'Journal of the American Chemical Society'
_journal_page_first              5923
_journal_page_last               5929
_journal_paper_doi               10.1021/jacs.7b01764
_journal_volume                  139
_journal_year                    2017
_chemical_formula_moiety         '0.5(C88 H96 Cu8 N8 O32)'
_chemical_formula_sum            'C44 H48 Cu4 N4 O16'
_chemical_formula_weight         1143.02
_chemical_name_systematic        '[Cu2glu2Bpa]n_XH2O'
_space_group_crystal_system      monoclinic
_space_group_IT_number           15
_space_group_name_Hall           '-C 2yc'
_space_group_name_H-M_alt        'C 1 2/c 1'
_symmetry_space_group_name_Hall  '-C 2yc'
_symmetry_space_group_name_H-M   'C 1 2/c 1'
_atom_sites_solution_hydrogens   geom
_audit_creation_date             2017-03-28
_audit_creation_method
;
Olex2 1.2
(compiled 2017.03.02 svn.r3394 for OlexSys, GUI svn.r5324)
;
_cell_angle_alpha                90
_cell_angle_beta                 90.476(4)
_cell_angle_gamma                90
_cell_formula_units_Z            2
_cell_length_a                   23.720(9)
_cell_length_b                   11.800(4)
_cell_length_c                   9.239(4)
_cell_measurement_reflns_used    860
_cell_measurement_temperature    100(2)
_cell_measurement_theta_max      21.70
_cell_measurement_theta_min      2.92
_cell_volume                     2585.9(17)
_computing_cell_refinement       'SAINT v8.27A (Bruker, 2012)'
_computing_data_reduction        'SAINT v8.27A (Bruker, 2012)'
_computing_molecular_graphics    'Olex2 (Dolomanov et al., 2009)'
_computing_publication_material  'Olex2 (Dolomanov et al., 2009)'
_computing_structure_refinement  'ShelXL (Sheldrick, 2015)'
_diffrn_ambient_temperature      100.15
_diffrn_measured_fraction_theta_full 0.996
_diffrn_measured_fraction_theta_max 0.991
_diffrn_measurement_device_type  'Bruker APEX-II CCD'
_diffrn_measurement_method       '\f and \w scans'
_diffrn_radiation_monochromator  graphite
_diffrn_radiation_type           MoK\a
_diffrn_radiation_wavelength     0.71073
_diffrn_reflns_av_R_equivalents  0.0726
_diffrn_reflns_av_unetI/netI     0.0977
_diffrn_reflns_Laue_measured_fraction_full 0.996
_diffrn_reflns_Laue_measured_fraction_max 0.991
_diffrn_reflns_limit_h_max       22
_diffrn_reflns_limit_h_min       -30
_diffrn_reflns_limit_k_max       13
_diffrn_reflns_limit_k_min       -15
_diffrn_reflns_limit_l_max       11
_diffrn_reflns_limit_l_min       -11
_diffrn_reflns_number            7007
_diffrn_reflns_point_group_measured_fraction_full 0.996
_diffrn_reflns_point_group_measured_fraction_max 0.991
_diffrn_reflns_theta_full        26.000
_diffrn_reflns_theta_max         26.989
_diffrn_reflns_theta_min         1.717
_diffrn_standards_number         0
_exptl_absorpt_coefficient_mu    1.690
_exptl_absorpt_correction_T_max  0.894
_exptl_absorpt_correction_T_min  0.757
_exptl_absorpt_correction_type   multi-scan
_exptl_absorpt_process_details
;
SADABS-2008/1 (Bruker,2008) was used for absorption correction.
wR2(int) was 0.1116 before and 0.0398 after correction.
The Ratio of minimum to maximum transmission is 0.7623.
The \l/2 correction factor is 0.00001.
;
_exptl_crystal_colour            'clear greenish green'
_exptl_crystal_colour_lustre     clear
_exptl_crystal_colour_modifier   greenish
_exptl_crystal_colour_primary    green
_exptl_crystal_density_diffrn    1.468
_exptl_crystal_description       block
_exptl_crystal_F_000             1168
_exptl_crystal_size_max          0.173
_exptl_crystal_size_mid          0.096
_exptl_crystal_size_min          0.067
_refine_diff_density_max         0.504
_refine_diff_density_min         -0.643
_refine_diff_density_rms         0.107
_refine_ls_extinction_method     none
_refine_ls_goodness_of_fit_ref   0.949
_refine_ls_hydrogen_treatment    constr
_refine_ls_matrix_type           full
_refine_ls_number_parameters     154
_refine_ls_number_reflns         2793
_refine_ls_number_restraints     0
_refine_ls_restrained_S_all      0.949
_refine_ls_R_factor_all          0.0875
_refine_ls_R_factor_gt           0.0482
_refine_ls_shift/su_max          0.001
_refine_ls_shift/su_mean         0.000
_refine_ls_structure_factor_coef Fsqd
_refine_ls_weighting_details
'w=1/[\s^2^(Fo^2^)+(0.0318P)^2^] where P=(Fo^2^+2Fc^2^)/3'
_refine_ls_weighting_scheme      calc
_refine_ls_wR_factor_gt          0.0808
_refine_ls_wR_factor_ref         0.0910
_reflns_Friedel_coverage         0.000
_reflns_number_gt                1810
_reflns_number_total             2793
_reflns_threshold_expression     'I > 2\s(I)'
_iucr_refine_instructions_details
;
TITL solve1 in C2/c
    1a_prime.res
    created by SHELXL-2016/6 at 18:52:49 on 28-Mar-2017
CELL 0.71073 23.7199 11.7998 9.2387 90 90.476 90
ZERR 2 0.0088 0.0044 0.0035 0 0.004 0
LATT 7
SYMM -X,+Y,0.5-Z
SFAC C H Cu N O
UNIT 88 96 8 8 32

L.S. 20
PLAN  3
SIZE 0.067 0.096 0.173
TEMP -173
GRID
MORE -1
BOND $H
CONF
ABIN
fmap
acta 52
MERG 2
OMIT 1 1 0
OMIT 2 2 1
REM <olex2.extras>
REM <HklSrc "%.\\1a_prime.hkl">
REM </olex2.extras>

WGHT    0.031800
FVAR       0.06476
CU1   3    0.705370    0.272854    0.920404    11.00000    0.01520    0.01349 =
         0.01513    0.00153   -0.00273    0.00208
O1    5    0.662477    0.274319    1.102382    11.00000    0.02009    0.03419 =
         0.01865    0.00833    0.00157    0.00628
O3    5    0.759974    0.250143    0.763277    11.00000    0.01685    0.03605 =
         0.01465   -0.00402    0.00008    0.00171
O4    5    0.735190    0.426720    0.953964    11.00000    0.02482    0.01566 =
         0.02387   -0.00060   -0.01258    0.00138
N1    4    0.640167    0.330737    0.773791    11.00000    0.01686    0.01436 =
         0.01440    0.00178   -0.00180    0.00238
C1    1    0.687527    0.257970    1.222559    11.00000    0.01968    0.00718 =
         0.02301   -0.00045   -0.00088    0.00255
O2    5    0.687335    0.110153    0.913778    11.00000    0.02531    0.01212 =
         0.03435    0.00102   -0.01247   -0.00247
C6    1    0.597796    0.266120    0.728407    11.00000    0.02109    0.01654 =
         0.01770    0.00340    0.00183   -0.00170
AFIX  43
H6    2    0.595096    0.191515    0.766378    11.00000   -1.20000
AFIX   0
C5    1    0.720958    0.042541    0.979332    11.00000    0.01848    0.01902 =
         0.01065   -0.00038    0.00318   -0.00022
C8    1    0.561411    0.408312    0.571465    11.00000    0.01324    0.02199 =
         0.00802   -0.00207   -0.00091    0.00742
C7    1    0.557247    0.300709    0.629073    11.00000    0.01469    0.02311 =
         0.02111   -0.00009    0.00095   -0.00347
AFIX  43
H7    2    0.527320    0.251606    0.601287    11.00000   -1.20000
AFIX   0
C2    1    0.652118    0.241106    1.355427    11.00000    0.01832    0.02096 =
         0.01793    0.00207    0.00460    0.00446
AFIX  23
H2A   2    0.612770    0.264473    1.334916    11.00000   -1.20000
H2B   2    0.666892    0.288556    1.435563    11.00000   -1.20000
AFIX   0
C10   1    0.644369    0.433957    0.715115    11.00000    0.01582    0.01881 =
         0.01988    0.00100   -0.00277    0.00089
AFIX  43
H10   2    0.674978    0.480815    0.744337    11.00000   -1.20000
AFIX   0
C4    1    0.708601   -0.081803    0.973491    11.00000    0.03025    0.01034 =
         0.02256    0.00105   -0.00838    0.00005
AFIX  23
H4A   2    0.708237   -0.111189    1.073849    11.00000   -1.20000
H4B   2    0.739955   -0.119749    0.922641    11.00000   -1.20000
AFIX   0
C9    1    0.606194    0.476286    0.613408    11.00000    0.02055    0.01370 =
         0.01761    0.00164   -0.00382    0.00296
AFIX  43
H9    2    0.610773    0.549977    0.573796    11.00000   -1.20000
AFIX   0
C3    1    0.653564    0.115918    1.399702    11.00000    0.02047    0.01684 =
         0.01986    0.00490   -0.00212   -0.00070
AFIX  23
H3A   2    0.621954    0.100700    1.466251    11.00000   -1.20000
H3B   2    0.647914    0.068462    1.312412    11.00000   -1.20000
AFIX   0
C11   1    0.518001    0.454442    0.463898    11.00000    0.01881    0.02695 =
         0.01333    0.00020   -0.00273    0.00775
AFIX  23
H11A  2    0.493513    0.391986    0.429217    11.00000   -1.20000
H11B  2    0.537502    0.487176    0.379296    11.00000   -1.20000
AFIX   0
HKLF 4




REM  solve1 in C2/c
REM R1 =  0.0482 for    1810 Fo > 4sig(Fo)  and  0.0875 for all    2793 data
REM    154 parameters refined using      0 restraints

END  
     
WGHT      0.0319      0.0000 

REM Highest difference peak  0.504,  deepest hole -0.643,  1-sigma level  0.107
Q1    1   0.7001  0.2748  1.0533  11.00000  0.05    0.50
Q2    1   0.7427  0.2223  0.9423  11.00000  0.05    0.49
Q3    1   0.7062  0.4226  0.7616  11.00000  0.05    0.44

  REM The information below was added by Olex2.
  REM
  REM R1 = 0.0482 for 1810 Fo > 4sig(Fo) and 0.0875 for all 7218 data
  REM n/a parameters refined using n/a restraints
  REM Highest difference peak 0.50, deepest hole -0.64
  REM Mean Shift 0, Max Shift 0.001.

  REM +++ Tabular Listing of Refinement Information +++
  REM R1_all = 0.0875
  REM R1_gt = 0.0482
  REM wR_ref = 0.0910
  REM GOOF = 0.949
  REM Shift_max = 0.001
  REM Shift_mean = 0
  REM Reflections_all = 7218
  REM Reflections_gt = 1810
  REM Parameters = n/a
  REM Hole = -0.64
  REM Peak = 0.50
  REM Flack = n/a

  
;
_cod_data_source_file            1a_prime.cif
_cod_data_source_block           1a_prime
_cod_depositor_comments
'Adding full bibliography for 4125916--4125921.cif.'
_cod_original_cell_volume        2585.7(17)
_cod_database_code               4125918
_shelx_shelxl_version_number     2016/6
_shelx_space_group_comment
;
The symmetry employed for this shelxl refinement is uniquely defined
by the following loop, which should always be used as a source of
symmetry information in preference to the above space-group names.
They are only intended as comments.
;
_shelx_estimated_absorpt_t_max   0.895
_shelx_estimated_absorpt_t_min   0.759
_olex2_refinement_description
;
1. Fixed Uiso
 At 1.2 times of:
  All C(H) groups, All C(H,H) groups
2.a Secondary CH2 refined with riding coordinates:
 C2(H2A,H2B), C4(H4A,H4B), C3(H3A,H3B), C11(H11A,H11B)
2.b Aromatic/amide H refined with riding coordinates:
 C6(H6), C7(H7), C10(H10), C9(H9)
;
_shelx_fab_file
;
-29 1 1 -0.0497 0.0000
-29 3 1 1.8129 0.0000
-29 3 2 -0.1064 0.0000
-28 2 1 2.5545 0.0000
-28 2 2 -0.9908 0.0000
-28 2 3 -6.6201 0.0000
-28 2 4 0.6008 0.0000
-28 4 1 -5.5872 0.0000
-28 4 2 3.5322 0.0000
-28 4 3 -1.3636 0.0000
-27 1 1 -3.1217 0.0000
-27 1 2 4.6891 0.0000
-27 1 3 2.3887 0.0000
-27 1 4 1.8643 0.0000
-27 1 5 0.9720 0.0000
-27 3 1 -0.0170 0.0000
-27 3 2 0.6992 0.0000
-27 3 3 5.5442 0.0000
-27 3 4 -3.3514 0.0000
-27 5 1 3.4870 0.0000
-27 5 2 -8.7754 0.0000
-27 5 3 -0.2453 0.0000
-26 0 2 -7.5157 0.0000
-26 0 4 -3.3796 0.0000
-26 0 6 -4.0266 0.0000
-26 2 1 7.0694 0.0000
-26 2 2 -2.0236 0.0000
-26 2 3 -4.8321 0.0000
-26 2 4 -0.9819 0.0000
-26 2 5 3.3619 0.0000
-26 4 1 -3.9329 0.0000
-26 4 2 3.7249 0.0000
-26 4 3 0.2326 0.0000
-26 4 4 3.6091 0.0000
-26 4 5 2.3279 0.0000
-26 6 1 -0.9058 0.0000
-26 6 2 7.5900 0.0000
-26 6 3 -2.1136 0.0000
-25 1 1 -6.4703 0.0000
-25 1 2 3.8941 0.0000
-25 1 3 -1.0030 0.0000
-25 1 4 4.3561 0.0000
-25 1 5 -2.0598 0.0000
-25 1 6 1.4172 0.0000
-25 3 1 -4.0951 0.0000
-25 3 2 2.0975 0.0000
-25 3 3 2.4860 0.0000
-25 3 4 -3.4237 0.0000
-25 3 5 -6.1952 0.0000
-25 3 6 1.9557 0.0000
-25 5 1 2.1247 0.0000
-25 5 2 -7.9327 0.0000
-25 5 3 -0.9831 0.0000
-25 5 4 0.5216 0.0000
-25 5 5 -0.7503 0.0000
-25 7 1 2.0597 0.0000
-25 7 2 -3.0293 0.0000
-25 7 3 4.6963 0.0000
-24 0 2 -3.7437 0.0000
-24 0 4 -3.3915 0.0000
-24 0 6 1.8637 0.0000
-24 2 1 10.4087 0.0000
-24 2 2 -1.9967 0.0000
-24 2 3 0.4505 0.0000
-24 2 4 -2.1030 0.0000
-24 2 5 6.5189 0.0000
-24 2 6 -0.0747 0.0000
-24 2 7 1.3349 0.0000
-24 4 1 0.5368 0.0000
-24 4 2 0.6476 0.0000
-24 4 3 2.2083 0.0000
-24 4 4 3.3131 0.0000
-24 4 5 3.3187 0.0000
-24 4 6 -5.1274 0.0000
-24 6 1 -2.6769 0.0000
-24 6 2 4.2312 0.0000
-24 6 3 -4.1583 0.0000
-24 6 4 -3.4092 0.0000
-24 6 5 1.0726 0.0000
-24 8 1 1.7794 0.0000
-24 8 2 2.2331 0.0000
-24 8 3 -5.1411 0.0000
-23 1 1 -7.5550 0.0000
-23 1 2 0.2638 0.0000
-23 1 3 -4.3405 0.0000
-23 1 4 2.2527 0.0000
-23 1 5 -3.2477 0.0000
-23 1 6 -4.1171 0.0000
-23 1 7 0.9750 0.0000
-23 3 1 -7.3494 0.0000
-23 3 2 4.0091 0.0000
-23 3 3 -1.0240 0.0000
-23 3 4 -1.7113 0.0000
-23 3 5 -6.8418 0.0000
-23 3 6 2.7179 0.0000
-23 3 7 -1.5662 0.0000
-23 5 1 -0.2703 0.0000
-23 5 2 -0.7589 0.0000
-23 5 3 0.1380 0.0000
-23 5 4 2.1396 0.0000
-23 5 5 0.7542 0.0000
-23 5 6 6.5419 0.0000
-23 7 1 4.6380 0.0000
-23 7 2 -2.3340 0.0000
-23 7 3 6.3808 0.0000
-23 7 4 2.0765 0.0000
-23 7 5 -2.4266 0.0000
-23 9 1 -7.3175 0.0000
-23 9 2 -0.6586 0.0000
-22 0 2 2.5412 0.0000
-22 0 4 2.2087 0.0000
-22 0 6 8.8567 0.0000
-22 0 8 -1.3956 0.0000
-22 2 1 9.8720 0.0000
-22 2 2 -1.4924 0.0000
-22 2 3 3.4207 0.0000
-22 2 4 -1.1373 0.0000
-22 2 5 4.9967 0.0000
-22 2 6 1.7775 0.0000
-22 2 7 1.4359 0.0000
-22 2 8 4.6474 0.0000
-22 4 1 4.2128 0.0000
-22 4 2 -5.2739 0.0000
-22 4 3 0.9267 0.0000
-22 4 4 0.6183 0.0000
-22 4 5 2.0614 0.0000
-22 4 6 -8.4649 0.0000
-22 4 7 -1.7848 0.0000
-22 6 1 -2.9398 0.0000
-22 6 2 -2.7184 0.0000
-22 6 3 -4.4960 0.0000
-22 6 4 -4.4015 0.0000
-22 6 5 0.1102 0.0000
-22 6 6 -2.1948 0.0000
-22 8 1 1.1881 0.0000
-22 8 2 6.1776 0.0000
-22 8 3 -6.3306 0.0000
-22 8 4 -1.2199 0.0000
-22 8 5 0.5055 0.0000
-22 10 1 4.6123 0.0000
-21 1 1 -5.3318 0.0000
-21 1 2 -3.5060 0.0000
-21 1 3 -3.5887 0.0000
-21 1 4 -3.4188 0.0000
-21 1 5 -1.1845 0.0000
-21 1 6 -7.1262 0.0000
-21 1 7 1.4740 0.0000
-21 1 8 -1.0649 0.0000
-21 3 1 -7.0025 0.0000
-21 3 2 6.6625 0.0000
-21 3 3 -0.0303 0.0000
-21 3 4 0.4433 0.0000
-21 3 5 -3.4228 0.0000
-21 3 6 3.9257 0.0000
-21 3 7 -0.5803 0.0000
-21 3 8 -1.6769 0.0000
-21 5 1 -2.1793 0.0000
-21 5 2 8.1008 0.0000
-21 5 3 2.5297 0.0000
-21 5 4 3.1755 0.0000
-21 5 5 1.0910 0.0000
-21 5 6 8.9316 0.0000
-21 5 7 0.2497 0.0000
-21 7 1 3.0838 0.0000
-21 7 2 -1.8277 0.0000
-21 7 3 3.4338 0.0000
-21 7 4 2.9542 0.0000
-21 7 5 -1.4455 0.0000
-21 7 6 0.8702 0.0000
-21 9 1 -6.0462 0.0000
-21 9 2 -4.5199 0.0000
-21 9 3 6.9491 0.0000
-21 9 4 0.5897 0.0000
-20 0 2 7.0346 0.0000
-20 0 4 8.4651 0.0000
-20 0 6 9.4341 0.0000
-20 0 8 -4.1931 0.0000
-20 2 1 4.8240 0.0000
-20 2 2 -1.7905 0.0000
-20 2 3 -0.1652 0.0000
-20 2 4 1.6847 0.0000
-20 2 5 -0.3261 0.0000
-20 2 6 0.6070 0.0000
-20 2 7 1.2166 0.0000
-20 2 8 3.6098 0.0000
-20 4 1 4.4550 0.0000
-20 4 2 -11.0895 0.0000
-20 4 3 -3.3114 0.0000
-20 4 4 -1.8034 0.0000
-20 4 5 1.3554 0.0000
-20 4 6 -9.9180 0.0000
-20 4 7 -3.0157 0.0000
-20 4 8 1.6760 0.0000
-20 6 1 0.8809 0.0000
-20 6 2 -7.2439 0.0000
-20 6 3 -1.9682 0.0000
-20 6 4 -3.4560 0.0000
-20 6 5 0.5898 0.0000
-20 6 6 -3.4190 0.0000
-20 6 7 2.1471 0.0000
-20 8 1 2.2939 0.0000
-20 8 2 9.1342 0.0000
-20 8 3 -3.8567 0.0000
-20 8 4 -3.5139 0.0000
-20 8 5 -1.1039 0.0000
-20 8 6 -4.0530 0.0000
-20 10 1 2.7675 0.0000
-20 10 2 -1.6130 0.0000
-20 10 3 -3.5037 0.0000
-19 1 1 -0.0803 0.0000
-19 1 2 -4.5438 0.0000
-19 1 3 1.9362 0.0000
-19 1 4 -7.9495 0.0000
-19 1 5 1.9895 0.0000
-19 1 6 -3.4464 0.0000
-19 1 7 1.4243 0.0000
-19 1 8 0.4804 0.0000
-19 1 9 0.3885 0.0000
-19 3 1 -2.3595 0.0000
-19 3 2 9.0217 0.0000
-19 3 3 5.5927 0.0000
-19 3 4 0.4051 0.0000
-19 3 5 0.7909 0.0000
-19 3 6 4.8924 0.0000
-19 3 7 0.4448 0.0000
-19 3 8 -0.3399 0.0000
-19 5 1 -3.5698 0.0000
-19 5 2 12.4045 0.0000
-19 5 3 3.3177 0.0000
-19 5 4 2.4981 0.0000
-19 5 5 -2.0773 0.0000
-19 5 6 9.0412 0.0000
-19 5 7 0.2998 0.0000
-19 5 8 -5.6679 0.0000
-19 7 1 -4.7913 0.0000
-19 7 2 -1.4461 0.0000
-19 7 3 -1.6096 0.0000
-19 7 4 3.5203 0.0000
-19 7 5 -0.0428 0.0000
-19 7 6 3.6435 0.0000
-19 7 7 0.9020 0.0000
-19 9 1 -2.4943 0.0000
-19 9 2 -6.8087 0.0000
-19 9 3 7.1021 0.0000
-19 9 4 2.0063 0.0000
-19 9 5 0.1545 0.0000
-19 11 1 0.8199 0.0000
-19 11 2 4.2153 0.0000
-19 11 3 -0.9315 0.0000
-18 0 2 6.3891 0.0000
-18 0 4 9.4331 0.0000
-18 0 6 2.3057 0.0000
-18 0 8 -4.7813 0.0000
-18 2 1 -3.8717 0.0000
-18 2 2 -2.8578 0.0000
-18 2 3 -8.4365 0.0000
-18 2 4 5.1819 0.0000
-18 2 5 -5.1180 0.0000
-18 2 6 -3.3449 0.0000
-18 2 7 1.1044 0.0000
-18 2 8 2.6157 0.0000
-18 2 9 -5.4023 0.0000
-18 4 1 1.6597 0.0000
-18 4 2 -13.1177 0.0000
-18 4 3 -6.9494 0.0000
-18 4 4 -0.8866 0.0000
-18 4 5 2.6714 0.0000
-18 4 6 -7.6542 0.0000
-18 4 7 -4.1566 0.0000
-18 4 8 2.2515 0.0000
-18 4 9 0.1543 0.0000
-18 6 1 8.3745 0.0000
-18 6 2 -6.7260 0.0000
-18 6 3 1.8708 0.0000
-18 6 4 -2.3933 0.0000
-18 6 5 3.2097 0.0000
-18 6 6 -4.8595 0.0000
-18 6 7 1.0303 0.0000
-18 6 8 4.1005 0.0000
-18 8 1 5.6432 0.0000
-18 8 2 6.6252 0.0000
-18 8 3 -0.7611 0.0000
-18 8 4 -5.0884 0.0000
-18 8 5 -2.5910 0.0000
-18 8 6 -6.1420 0.0000
-18 8 7 -0.0535 0.0000
-18 10 1 -1.0432 0.0000
-18 10 2 -0.2564 0.0000
-18 10 3 -6.3383 0.0000
-18 10 4 3.0079 0.0000
-18 10 5 3.6276 0.0000
-18 12 1 -1.4037 0.0000
-17 1 1 6.9309 0.0000
-17 1 2 -1.4194 0.0000
-17 1 3 8.6968 0.0000
-17 1 4 -7.7605 0.0000
-17 1 5 3.3718 0.0000
-17 1 6 4.5260 0.0000
-17 1 7 0.5902 0.0000
-17 1 8 0.1507 0.0000
-17 1 9 1.8041 0.0000
-17 3 1 5.0702 0.0000
-17 3 2 8.8906 0.0000
-17 3 3 11.9533 0.0000
-17 3 4 -3.4627 0.0000
-17 3 5 3.1894 0.0000
-17 3 6 3.8369 0.0000
-17 3 7 1.3262 0.0000
-17 3 8 -0.7156 0.0000
-17 3 9 5.1392 0.0000
-17 5 1 -5.0265 0.0000
-17 5 2 10.1692 0.0000
-17 5 3 1.5817 0.0000
-17 5 4 0.0305 0.0000
-17 5 5 -6.3694 0.0000
-17 5 6 5.8498 0.0000
-17 5 7 2.2711 0.0000
-17 5 8 -6.5735 0.0000
-17 5 9 -2.0238 0.0000
-17 7 1 -14.7474 0.0000
-17 7 2 0.9459 0.0000
-17 7 3 -4.3140 0.0000
-17 7 4 4.1389 0.0000
-17 7 5 -0.5013 0.0000
-17 7 6 6.2887 0.0000
-17 7 7 1.5978 0.0000
-17 7 8 -1.7804 0.0000
-17 9 1 1.4119 0.0000
-17 9 2 -4.3964 0.0000
-17 9 3 6.0794 0.0000
-17 9 4 2.1791 0.0000
-17 9 5 -0.4477 0.0000
-17 9 6 3.1910 0.0000
-17 11 1 1.3312 0.0000
-17 11 2 5.3918 0.0000
-17 11 3 4.2019 0.0000
-17 11 4 -3.5501 0.0000
-16 0 2 -1.0119 0.0000
-16 0 4 3.5906 0.0000
-16 0 6 -7.2038 0.0000
-16 0 8 -2.5413 0.0000
-16 2 1 -13.5935 0.0000
-16 2 2 -4.2706 0.0000
-16 2 3 -15.6139 0.0000
-16 2 4 7.8759 0.0000
-16 2 5 -6.2143 0.0000
-16 2 6 -6.9696 0.0000
-16 2 7 1.9042 0.0000
-16 2 8 2.8324 0.0000
-16 2 9 -6.2486 0.0000
-16 4 1 -1.7329 0.0000
-16 4 2 -9.7151 0.0000
-16 4 3 -8.2691 0.0000
-16 4 4 4.6796 0.0000
-16 4 5 3.7348 0.0000
-16 4 6 -1.4607 0.0000
-16 4 7 -5.4659 0.0000
-16 4 8 4.1663 0.0000
-16 4 9 1.2446 0.0000
-16 6 1 15.2090 0.0000
-16 6 2 -3.6841 0.0000
-16 6 3 4.1736 0.0000
-16 6 4 -1.5662 0.0000
-16 6 5 5.9548 0.0000
-16 6 6 -4.2549 0.0000
-16 6 7 -2.2129 0.0000
-16 6 8 4.2510 0.0000
-16 8 1 8.5660 0.0000
-16 8 2 -1.5095 0.0000
-16 8 3 0.8452 0.0000
-16 8 4 -4.1004 0.0000
-16 8 5 -1.4246 0.0000
-16 8 6 -6.7035 0.0000
-16 8 7 1.7267 0.0000
-16 10 1 -4.9641 0.0000
-16 10 2 0.7432 0.0000
-16 10 3 -8.6908 0.0000
-16 10 4 2.3240 0.0000
-16 10 5 4.5828 0.0000
-16 10 6 -1.9274 0.0000
-16 12 1 0.0030 0.0000
-16 12 2 -7.5260 0.0000
-16 12 3 -3.1483 0.0000
-15 1 1 12.8755 0.0000
-15 1 2 6.7792 0.0000
-15 1 3 12.0606 0.0000
-15 1 4 -3.0080 0.0000
-15 1 5 1.7449 0.0000
-15 1 6 11.2063 0.0000
-15 1 7 -1.4095 0.0000
-15 1 8 -1.2478 0.0000
-15 1 9 2.4404 0.0000
-15 1 10 2.9457 0.0000
-15 3 1 11.7831 0.0000
-15 3 2 5.5324 0.0000
-15 3 3 15.3389 0.0000
-15 3 4 -9.9877 0.0000
-15 3 5 3.1059 0.0000
-15 3 6 0.7975 0.0000
-15 3 7 0.6389 0.0000
-15 3 8 -2.5651 0.0000
-15 3 9 3.4392 0.0000
-15 3 10 0.4330 0.0000
-15 5 1 -6.6066 0.0000
-15 5 2 3.9177 0.0000
-15 5 3 -0.1967 0.0000
-15 5 4 -5.1158 0.0000
-15 5 5 -7.2540 0.0000
-15 5 6 -0.3495 0.0000
-15 5 7 5.4112 0.0000
-15 5 8 -6.8634 0.0000
-15 5 9 -3.6781 0.0000
-15 7 1 -19.7941 0.0000
-15 7 2 5.2913 0.0000
-15 7 3 -3.6969 0.0000
-15 7 4 3.2986 0.0000
-15 7 5 -2.8632 0.0000
-15 7 6 6.4324 0.0000
-15 7 7 2.6678 0.0000
-15 7 8 -3.0186 0.0000
-15 9 1 3.5064 0.0000
-15 9 2 0.7734 0.0000
-15 9 3 3.8110 0.0000
-15 9 4 0.3279 0.0000
-15 9 5 -1.3289 0.0000
-15 9 6 3.3740 0.0000
-15 9 7 -4.9561 0.0000
-15 11 1 2.2271 0.0000
-15 11 2 3.5926 0.0000
-15 11 3 8.9296 0.0000
-15 11 4 -2.0101 0.0000
-15 11 5 -4.7483 0.0000
-15 13 1 -1.4208 0.0000
-14 0 2 -15.4915 0.0000
-14 0 4 -5.2197 0.0000
-14 0 6 -12.9260 0.0000
-14 0 8 -0.0687 0.0000
-14 0 10 -3.9056 0.0000
-14 2 1 -19.4333 0.0000
-14 2 2 -7.1685 0.0000
-14 2 3 -16.5733 0.0000
-14 2 4 8.7492 0.0000
-14 2 5 -2.7394 0.0000
-14 2 6 -8.2467 0.0000
-14 2 7 4.6492 0.0000
-14 2 8 2.8757 0.0000
-14 2 9 -4.2201 0.0000
-14 2 10 -1.6816 0.0000
-14 4 1 -3.0146 0.0000
-14 4 2 -2.1240 0.0000
-14 4 3 -8.3083 0.0000
-14 4 4 13.4263 0.0000
-14 4 5 3.0985 0.0000
-14 4 6 4.9265 0.0000
-14 4 7 -5.1309 0.0000
-14 4 8 5.8732 0.0000
-14 4 9 2.5380 0.0000
-14 4 10 -1.1909 0.0000
-14 6 1 17.3633 0.0000
-14 6 2 -0.9539 0.0000
-14 6 3 3.4435 0.0000
-14 6 4 1.5132 0.0000
-14 6 5 5.6245 0.0000
-14 6 6 -0.9730 0.0000
-14 6 7 -5.8373 0.0000
-14 6 8 3.6112 0.0000
-14 6 9 3.0121 0.0000
-14 8 1 8.7833 0.0000
-14 8 2 -9.5629 0.0000
-14 8 3 1.5744 0.0000
-14 8 4 -0.9125 0.0000
-14 8 5 1.3209 0.0000
-14 8 6 -6.5614 0.0000
-14 8 7 1.8885 0.0000
-14 8 8 4.5034 0.0000
-14 10 1 -6.2037 0.0000
-14 10 2 1.5640 0.0000
-14 10 3 -8.3328 0.0000
-14 10 4 1.3757 0.0000
-14 10 5 3.6129 0.0000
-14 10 6 -3.3244 0.0000
-14 12 1 1.1509 0.0000
-14 12 2 -5.9509 0.0000
-14 12 3 -5.2313 0.0000
-14 12 4 0.4063 0.0000
-13 1 1 13.7242 0.0000
-13 1 2 20.2392 0.0000
-13 1 3 9.4282 0.0000
-13 1 4 2.5252 0.0000
-13 1 5 -2.3203 0.0000
-13 1 6 13.1079 0.0000
-13 1 7 -4.2922 0.0000
-13 1 8 -1.2917 0.0000
-13 1 9 1.8161 0.0000
-13 1 10 3.1615 0.0000
-13 3 1 13.2366 0.0000
-13 3 2 0.9370 0.0000
-13 3 3 13.5459 0.0000
-13 3 4 -15.8259 0.0000
-13 3 5 -0.0807 0.0000
-13 3 6 -1.0003 0.0000
-13 3 7 -2.4601 0.0000
-13 3 8 -3.3887 0.0000
-13 3 9 0.1200 0.0000
-13 3 10 1.6569 0.0000
-13 5 1 -8.0386 0.0000
-13 5 2 -3.2013 0.0000
-13 5 3 0.7603 0.0000
-13 5 4 -12.7562 0.0000
-13 5 5 -3.8659 0.0000
-13 5 6 -5.1698 0.0000
-13 5 7 7.0363 0.0000
-13 5 8 -5.6887 0.0000
-13 5 9 -2.7461 0.0000
-13 7 1 -17.2538 0.0000
-13 7 2 8.3805 0.0000
-13 7 3 -1.2118 0.0000
-13 7 4 0.2016 0.0000
-13 7 5 -3.5202 0.0000
-13 7 6 4.7479 0.0000
-13 7 7 4.1196 0.0000
-13 7 8 -3.0354 0.0000
-13 7 9 -1.8417 0.0000
-13 9 1 2.4095 0.0000
-13 9 2 4.7385 0.0000
-13 9 3 0.8136 0.0000
-13 9 4 -1.4472 0.0000
-13 9 5 -1.3031 0.0000
-13 9 6 5.3309 0.0000
-13 9 7 -3.0624 0.0000
-13 9 8 -3.4997 0.0000
-13 11 1 2.5838 0.0000
-13 11 2 0.4781 0.0000
-13 11 3 9.4586 0.0000
-13 11 4 0.2359 0.0000
-13 11 5 -4.2739 0.0000
-13 11 6 3.7792 0.0000
-13 13 1 -2.6694 0.0000
-13 13 2 3.5418 0.0000
-13 13 3 -0.3205 0.0000
-12 0 2 -34.3806 0.0000
-12 0 4 -10.4122 0.0000
-12 0 6 -12.7831 0.0000
-12 0 8 0.0757 0.0000
-12 0 10 -3.7235 0.0000
-12 2 1 -15.7786 0.0000
-12 2 2 -12.9498 0.0000
-12 2 3 -9.1347 0.0000
-12 2 4 8.2716 0.0000
-12 2 5 4.2132 0.0000
-12 2 6 -7.9771 0.0000
-12 2 7 8.0872 0.0000
-12 2 8 1.0534 0.0000
-12 2 9 -0.6803 0.0000
-12 2 10 -1.7606 0.0000
-12 4 1 -0.8290 0.0000
-12 4 2 6.5154 0.0000
-12 4 3 -7.7188 0.0000
-12 4 4 20.7371 0.0000
-12 4 5 2.6609 0.0000
-12 4 6 5.6338 0.0000
-12 4 7 -2.5680 0.0000
-12 4 8 5.3410 0.0000
-12 4 9 2.0617 0.0000
-12 4 10 -2.9973 0.0000
-12 6 1 14.4385 0.0000
-12 6 2 0.9010 0.0000
-12 6 3 -0.6134 0.0000
-12 6 4 6.9648 0.0000
-12 6 5 1.2724 0.0000
-12 6 6 1.2974 0.0000
-12 6 7 -7.7162 0.0000
-12 6 8 2.1102 0.0000
-12 6 9 0.7952 0.0000
-12 8 1 6.4168 0.0000
-12 8 2 -12.5810 0.0000
-12 8 3 1.0303 0.0000
-12 8 4 1.5008 0.0000
-12 8 5 1.9930 0.0000
-12 8 6 -6.9538 0.0000
-12 8 7 0.0692 0.0000
-12 8 8 4.2140 0.0000
-12 10 1 -3.6825 0.0000
-12 10 2 1.0390 0.0000
-12 10 3 -5.0304 0.0000
-12 10 4 0.2575 0.0000
-12 10 5 1.4188 0.0000
-12 10 6 -5.8662 0.0000
-12 10 7 0.3665 0.0000
-12 12 1 1.0580 0.0000
-12 12 2 -3.1109 0.0000
-12 12 3 -4.3148 0.0000
-12 12 4 -1.6685 0.0000
-12 12 5 4.2729 0.0000
-11 1 1 6.2044 0.0000
-11 1 2 35.4746 0.0000
-11 1 3 1.0730 0.0000
-11 1 4 3.9400 0.0000
-11 1 5 -7.0620 0.0000
-11 1 6 10.9275 0.0000
-11 1 7 -6.4337 0.0000
-11 1 8 0.8348 0.0000
-11 1 9 0.4418 0.0000
-11 1 10 2.0217 0.0000
-11 1 11 -2.5147 0.0000
-11 3 1 6.0412 0.0000
-11 3 2 -1.6532 0.0000
-11 3 3 5.6441 0.0000
-11 3 4 -17.5959 0.0000
-11 3 5 -5.9646 0.0000
-11 3 6 1.5404 0.0000
-11 3 7 -5.5582 0.0000
-11 3 8 -1.8509 0.0000
-11 3 9 -2.6413 0.0000
-11 3 10 3.6821 0.0000
-11 5 1 -8.1281 0.0000
-11 5 2 -8.6876 0.0000
-11 5 3 4.9689 0.0000
-11 5 4 -18.5163 0.0000
-11 5 5 0.3154 0.0000
-11 5 6 -3.7398 0.0000
-11 5 7 6.2316 0.0000
-11 5 8 -3.4898 0.0000
-11 5 9 1.1380 0.0000
-11 5 10 1.7914 0.0000
-11 7 1 -9.6462 0.0000
-11 7 2 8.6048 0.0000
-11 7 3 3.3060 0.0000
-11 7 4 -2.9146 0.0000
-11 7 5 -0.1631 0.0000
-11 7 6 3.5762 0.0000
-11 7 7 4.9925 0.0000
-11 7 8 -2.2998 0.0000
-11 7 9 1.1922 0.0000
-11 9 1 -0.5185 0.0000
-11 9 2 6.3988 0.0000
-11 9 3 -0.7477 0.0000
-11 9 4 -1.5868 0.0000
-11 9 5 -0.7323 0.0000
-11 9 6 7.9465 0.0000
-11 9 7 -0.2743 0.0000
-11 9 8 -4.2901 0.0000
-11 11 1 1.6968 0.0000
-11 11 2 -0.2785 0.0000
-11 11 3 5.2593 0.0000
-11 11 4 1.8191 0.0000
-11 11 5 -2.3976 0.0000
-11 11 6 4.9662 0.0000
-11 13 1 -1.7653 0.0000
-11 13 2 3.4086 0.0000
-11 13 3 -0.9135 0.0000
-11 13 4 2.7871 0.0000
-10 0 2 -49.5125 0.0000
-10 0 4 -7.2077 0.0000
-10 0 6 -8.9547 0.0000
-10 0 8 -1.4674 0.0000
-10 0 10 -1.5598 0.0000
-10 2 1 0.4964 0.0000
-10 2 2 -20.2668 0.0000
-10 2 3 5.3065 0.0000
-10 2 4 7.7994 0.0000
-10 2 5 11.5730 0.0000
-10 2 6 -7.8340 0.0000
-10 2 7 9.1801 0.0000
-10 2 8 -1.9357 0.0000
-10 2 9 2.5514 0.0000
-10 2 10 -1.7685 0.0000
-10 2 11 -0.1561 0.0000
-10 4 1 3.7876 0.0000
-10 4 2 11.4969 0.0000
-10 4 3 -5.8085 0.0000
-10 4 4 21.1596 0.0000
-10 4 5 4.1919 0.0000
-10 4 6 -0.7163 0.0000
-10 4 7 0.0523 0.0000
-10 4 8 3.0311 0.0000
-10 4 9 0.7771 0.0000
-10 4 10 -5.0189 0.0000
-10 6 1 7.5392 0.0000
-10 6 2 1.2922 0.0000
-10 6 3 -7.8797 0.0000
-10 6 4 10.5797 0.0000
-10 6 5 -3.9650 0.0000
-10 6 6 -0.1102 0.0000
-10 6 7 -7.1680 0.0000
-10 6 8 1.5987 0.0000
-10 6 9 -3.9779 0.0000
-10 6 10 -0.6048 0.0000
-10 8 1 2.5057 0.0000
-10 8 2 -11.2896 0.0000
-10 8 3 -2.3863 0.0000
-10 8 4 1.8845 0.0000
-10 8 5 0.2483 0.0000
-10 8 6 -6.4099 0.0000
-10 8 7 -1.6911 0.0000
-10 8 8 3.7660 0.0000
-10 8 9 -2.5903 0.0000
-10 10 1 0.6286 0.0000
-10 10 2 -1.3499 0.0000
-10 10 3 -0.5671 0.0000
-10 10 4 0.2283 0.0000
-10 10 5 0.9172 0.0000
-10 10 6 -8.2171 0.0000
-10 10 7 -0.2766 0.0000
-10 12 1 0.1205 0.0000
-10 12 2 -2.2206 0.0000
-10 12 3 -1.1107 0.0000
-10 12 4 -3.6342 0.0000
-10 12 5 2.2743 0.0000
-10 12 6 -3.0958 0.0000
-10 14 1 -1.3880 0.0000
-9 1 1 -9.8312 0.0000
-9 1 2 44.0080 0.0000
-9 1 3 -10.1643 0.0000
-9 1 4 -1.1363 0.0000
-9 1 5 -10.3741 0.0000
-9 1 6 7.0506 0.0000
-9 1 7 -6.3997 0.0000
-9 1 8 2.6893 0.0000
-9 1 9 -0.7714 0.0000
-9 1 10 -0.2214 0.0000
-9 1 11 -0.8570 0.0000
-9 3 1 -9.8513 0.0000
-9 3 2 0.8166 0.0000
-9 3 3 -6.6701 0.0000
-9 3 4 -13.8748 0.0000
-9 3 5 -11.7372 0.0000
-9 3 6 7.1968 0.0000
-9 3 7 -5.7202 0.0000
-9 3 8 0.4905 0.0000
-9 3 9 -4.4955 0.0000
-9 3 10 5.0501 0.0000
-9 3 11 1.7072 0.0000
-9 5 1 -4.5062 0.0000
-9 5 2 -9.1208 0.0000
-9 5 3 10.6577 0.0000
-9 5 4 -17.2197 0.0000
-9 5 5 1.6322 0.0000
-9 5 6 2.4676 0.0000
-9 5 7 4.2040 0.0000
-9 5 8 -2.0809 0.0000
-9 5 9 3.7366 0.0000
-9 5 10 2.5715 0.0000
-9 7 1 -0.4852 0.0000
-9 7 2 7.7580 0.0000
-9 7 3 10.2156 0.0000
-9 7 4 -4.2618 0.0000
-9 7 5 4.0824 0.0000
-9 7 6 2.5871 0.0000
-9 7 7 4.3369 0.0000
-9 7 8 -2.8620 0.0000
-9 7 9 5.5697 0.0000
-9 9 1 -2.6065 0.0000
-9 9 2 6.3293 0.0000
-9 9 3 -0.1630 0.0000
-9 9 4 -2.0807 0.0000
-9 9 5 -1.6224 0.0000
-9 9 6 7.6097 0.0000
-9 9 7 1.4045 0.0000
-9 9 8 -5.4781 0.0000
-9 11 1 -0.4261 0.0000
-9 11 2 1.5012 0.0000
-9 11 3 -0.7468 0.0000
-9 11 4 1.8827 0.0000
-9 11 5 -1.4332 0.0000
-9 11 6 7.0692 0.0000
-9 11 7 -1.0610 0.0000
-9 13 1 0.2672 0.0000
-9 13 2 3.5980 0.0000
-9 13 3 -1.0901 0.0000
-9 13 4 4.1563 0.0000
-8 0 2 -49.3110 0.0000
-8 0 4 4.4586 0.0000
-8 0 6 -3.6661 0.0000
-8 0 8 -1.1451 0.0000
-8 0 10 1.6582 0.0000
-8 2 1 26.6065 0.0000
-8 2 2 -25.2155 0.0000
-8 2 3 21.1486 0.0000
-8 2 4 8.0955 0.0000
-8 2 5 15.7887 0.0000
-8 2 6 -7.5229 0.0000
-8 2 7 6.6376 0.0000
-8 2 8 -3.2019 0.0000
-8 2 9 3.9991 0.0000
-8 2 10 -0.8044 0.0000
-8 2 11 -2.7627 0.0000
-8 4 1 8.5370 0.0000
-8 4 2 7.0757 0.0000
-8 4 3 -2.3999 0.0000
-8 4 4 13.2328 0.0000
-8 4 5 6.7619 0.0000
-8 4 6 -8.7644 0.0000
-8 4 7 1.1065 0.0000
-8 4 8 0.8839 0.0000
-8 4 9 1.5157 0.0000
-8 4 10 -5.3635 0.0000
-8 6 1 -2.4650 0.0000
-8 6 2 -1.1389 0.0000
-8 6 3 -16.0964 0.0000
-8 6 4 9.6459 0.0000
-8 6 5 -5.5450 0.0000
-8 6 6 -2.6870 0.0000
-8 6 7 -4.9370 0.0000
-8 6 8 2.8564 0.0000
-8 6 9 -6.3313 0.0000
-8 6 10 -1.0577 0.0000
-8 8 1 -1.4387 0.0000
-8 8 2 -8.3022 0.0000
-8 8 3 -7.2985 0.0000
-8 8 4 3.0805 0.0000
-8 8 5 -0.8926 0.0000
-8 8 6 -2.6131 0.0000
-8 8 7 -2.3084 0.0000
-8 8 8 3.9685 0.0000
-8 8 9 -4.7611 0.0000
-8 10 1 4.3909 0.0000
-8 10 2 -3.0312 0.0000
-8 10 3 3.0466 0.0000
-8 10 4 1.8532 0.0000
-8 10 5 2.9188 0.0000
-8 10 6 -8.6183 0.0000
-8 10 7 -0.5948 0.0000
-8 10 8 6.4101 0.0000
-8 12 1 -0.2724 0.0000
-8 12 2 -2.5766 0.0000
-8 12 3 1.7275 0.0000
-8 12 4 -4.7963 0.0000
-8 12 5 0.6520 0.0000
-8 12 6 -5.4054 0.0000
-8 14 1 -1.8934 0.0000
-8 14 2 -2.9386 0.0000
-7 1 1 -29.1003 0.0000
-7 1 2 37.2895 0.0000
-7 1 3 -18.9967 0.0000
-7 1 4 -11.3997 0.0000
-7 1 5 -10.6640 0.0000
-7 1 6 2.0664 0.0000
-7 1 7 -4.1563 0.0000
-7 1 8 1.2170 0.0000
-7 1 9 -0.5996 0.0000
-7 1 10 -2.5498 0.0000
-7 1 11 2.2870 0.0000
-7 3 1 -29.5958 0.0000
-7 3 2 10.4156 0.0000
-7 3 3 -17.7350 0.0000
-7 3 4 -6.3193 0.0000
-7 3 5 -14.1417 0.0000
-7 3 6 11.4787 0.0000
-7 3 7 -2.8896 0.0000
-7 3 8 1.1696 0.0000
-7 3 9 -4.9986 0.0000
-7 3 10 3.3618 0.0000
-7 3 11 3.1340 0.0000
-7 5 1 2.8497 0.0000
-7 5 2 -1.1756 0.0000
-7 5 3 14.5394 0.0000
-7 5 4 -9.2829 0.0000
-7 5 5 -0.5179 0.0000
-7 5 6 7.4571 0.0000
-7 5 7 1.9561 0.0000
-7 5 8 -1.5347 0.0000
-7 5 9 1.4369 0.0000
-7 5 10 2.8843 0.0000
-7 7 1 7.2378 0.0000
-7 7 2 6.8644 0.0000
-7 7 3 16.3294 0.0000
-7 7 4 -5.4970 0.0000
-7 7 5 4.6883 0.0000
-7 7 6 0.3987 0.0000
-7 7 7 2.5683 0.0000
-7 7 8 -3.6931 0.0000
-7 7 9 7.3702 0.0000
-7 7 10 0.3538 0.0000
-7 9 1 -3.4496 0.0000
-7 9 2 3.8423 0.0000
-7 9 3 0.8514 0.0000
-7 9 4 -4.9500 0.0000
-7 9 5 -3.1951 0.0000
-7 9 6 3.2684 0.0000
-7 9 7 2.9426 0.0000
-7 9 8 -5.2053 0.0000
-7 11 1 -3.2490 0.0000
-7 11 2 2.8030 0.0000
-7 11 3 -4.2611 0.0000
-7 11 4 1.8956 0.0000
-7 11 5 -2.0672 0.0000
-7 11 6 9.2543 0.0000
-7 11 7 -0.7851 0.0000
-7 13 1 1.6187 0.0000
-7 13 2 2.3084 0.0000
-7 13 3 -0.3192 0.0000
-7 13 4 4.3870 0.0000
-7 13 5 -0.3424 0.0000
-6 0 2 -27.9394 0.0000
-6 0 4 20.7694 0.0000
-6 0 6 2.7646 0.0000
-6 0 8 2.4276 0.0000
-6 0 10 3.1169 0.0000
-6 2 1 51.1271 0.0000
-6 2 2 -25.0841 0.0000
-6 2 3 29.1392 0.0000
-6 2 4 9.3567 0.0000
-6 2 5 14.5493 0.0000
-6 2 6 -5.3218 0.0000
-6 2 7 1.4210 0.0000
-6 2 8 -1.1499 0.0000
-6 2 9 2.3356 0.0000
-6 2 10 1.4200 0.0000
-6 2 11 -6.0132 0.0000
-6 4 1 12.1950 0.0000
-6 4 2 -9.6259 0.0000
-6 4 3 1.0194 0.0000
-6 4 4 1.4217 0.0000
-6 4 5 8.2212 0.0000
-6 4 6 -12.8946 0.0000
-6 4 7 0.9917 0.0000
-6 4 8 -0.0636 0.0000
-6 4 9 3.6283 0.0000
-6 4 10 -2.1523 0.0000
-6 4 11 -1.1570 0.0000
-6 6 1 -11.9668 0.0000
-6 6 2 -6.1044 0.0000
-6 6 3 -20.2931 0.0000
-6 6 4 6.4471 0.0000
-6 6 5 -2.2510 0.0000
-6 6 6 -3.5826 0.0000
-6 6 7 -2.1321 0.0000
-6 6 8 3.3158 0.0000
-6 6 9 -3.6728 0.0000
-6 6 10 -2.3834 0.0000
-6 8 1 -3.0262 0.0000
-6 8 2 -3.7328 0.0000
-6 8 3 -9.8301 0.0000
-6 8 4 7.3322 0.0000
-6 8 5 -0.5861 0.0000
-6 8 6 2.6261 0.0000
-6 8 7 -2.5610 0.0000
-6 8 8 2.1473 0.0000
-6 8 9 -4.9677 0.0000
-6 10 1 6.6404 0.0000
-6 10 2 -1.6882 0.0000
-6 10 3 3.7921 0.0000
-6 10 4 3.0093 0.0000
-6 10 5 4.1906 0.0000
-6 10 6 -6.4136 0.0000
-6 10 7 -2.6847 0.0000
-6 10 8 4.2553 0.0000
-6 12 1 0.5167 0.0000
-6 12 2 -2.5280 0.0000
-6 12 3 1.9861 0.0000
-6 12 4 -5.7492 0.0000
-6 12 5 1.2123 0.0000
-6 12 6 -7.6020 0.0000
-6 14 1 -1.3774 0.0000
-6 14 3 -0.5973 0.0000
-5 1 1 -40.4210 0.0000
-5 1 2 15.7634 0.0000
-5 1 3 -18.9428 0.0000
-5 1 4 -23.2285 0.0000
-5 1 5 -6.9735 0.0000
-5 1 6 -3.7113 0.0000
-5 1 7 -0.4099 0.0000
-5 1 8 -2.4750 0.0000
-5 1 9 1.1796 0.0000
-5 1 10 -2.6918 0.0000
-5 1 11 4.6935 0.0000
-5 3 1 -43.0896 0.0000
-5 3 2 26.0085 0.0000
-5 3 3 -19.8384 0.0000
-5 3 4 0.8886 0.0000
-5 3 5 -11.5174 0.0000
-5 3 6 11.7479 0.0000
-5 3 7 1.4726 0.0000
-5 3 8 -0.6389 0.0000
-5 3 9 -2.7835 0.0000
-5 3 10 -1.5951 0.0000
-5 3 11 5.1878 0.0000
-5 5 1 8.2708 0.0000
-5 5 2 14.2192 0.0000
-5 5 3 13.5787 0.0000
-5 5 4 -0.3094 0.0000
-5 5 5 -4.0187 0.0000
-5 5 6 8.7561 0.0000
-5 5 7 -0.1778 0.0000
-5 5 8 -0.6048 0.0000
-5 5 9 -3.2947 0.0000
-5 5 10 1.2871 0.0000
-5 7 1 10.0296 0.0000
-5 7 2 4.5863 0.0000
-5 7 3 17.0203 0.0000
-5 7 4 -8.1955 0.0000
-5 7 5 1.4480 0.0000
-5 7 6 -1.2308 0.0000
-5 7 7 0.7175 0.0000
-5 7 8 -1.6037 0.0000
-5 7 9 5.3345 0.0000
-5 7 10 1.1626 0.0000
-5 9 1 -4.1253 0.0000
-5 9 2 -1.0401 0.0000
-5 9 3 1.6273 0.0000
-5 9 4 -8.2795 0.0000
-5 9 5 -2.0432 0.0000
-5 9 6 -1.8451 0.0000
-5 9 7 4.9399 0.0000
-5 9 8 -0.9667 0.0000
-5 9 9 1.8412 0.0000
-5 11 1 -5.0724 0.0000
-5 11 2 2.6065 0.0000
-5 11 3 -2.9963 0.0000
-5 11 4 3.0852 0.0000
-5 11 5 -3.4593 0.0000
-5 11 6 8.8327 0.0000
-5 11 7 1.3430 0.0000
-5 13 1 1.3784 0.0000
-5 13 2 0.3739 0.0000
-5 13 3 1.0657 0.0000
-5 13 4 4.5906 0.0000
-5 13 5 -2.0324 0.0000
-4 0 2 4.9749 0.0000
-4 0 4 35.2927 0.0000
-4 0 6 7.9385 0.0000
-4 0 8 5.4159 0.0000
-4 0 10 0.6877 0.0000
-4 2 1 56.7602 0.0000
-4 2 2 -21.2511 0.0000
-4 2 3 21.0397 0.0000
-4 2 4 11.6912 0.0000
-4 2 5 7.1848 0.0000
-4 2 6 -1.6950 0.0000
-4 2 7 -4.7977 0.0000
-4 2 8 2.3043 0.0000
-4 2 9 -1.1681 0.0000
-4 2 10 3.1793 0.0000
-4 2 11 -6.8351 0.0000
-4 4 1 14.5690 0.0000
-4 4 2 -33.2077 0.0000
-4 4 3 2.1504 0.0000
-4 4 4 -7.4809 0.0000
-4 4 5 7.2138 0.0000
-4 4 6 -12.6787 0.0000
-4 4 7 0.2178 0.0000
-4 4 8 0.5485 0.0000
-4 4 9 3.6215 0.0000
-4 4 10 3.8555 0.0000
-4 4 11 -4.2427 0.0000
-4 6 1 -13.8103 0.0000
-4 6 2 -11.2983 0.0000
-4 6 3 -16.7272 0.0000
-4 6 4 4.1263 0.0000
-4 6 5 3.2508 0.0000
-4 6 6 -3.9600 0.0000
-4 6 7 0.4640 0.0000
-4 6 8 1.3084 0.0000
-4 6 9 0.8731 0.0000
-4 6 10 -2.5560 0.0000
-4 8 1 -1.0560 0.0000
-4 8 2 2.2261 0.0000
-4 8 3 -8.5591 0.0000
-4 8 4 11.9903 0.0000
-4 8 5 -0.5344 0.0000
-4 8 6 4.6546 0.0000
-4 8 7 -2.6654 0.0000
-4 8 8 -3.1202 0.0000
-4 8 9 -2.9951 0.0000
-4 10 1 6.1838 0.0000
-4 10 2 0.8781 0.0000
-4 10 3 0.6505 0.0000
-4 10 4 2.2574 0.0000
-4 10 5 2.7004 0.0000
-4 10 6 -1.9420 0.0000
-4 10 7 -4.9323 0.0000
-4 10 8 -1.2557 0.0000
-4 12 1 1.5983 0.0000
-4 12 2 -2.3817 0.0000
-4 12 3 0.4555 0.0000
-4 12 4 -5.9238 0.0000
-4 12 5 3.8450 0.0000
-4 12 6 -7.1142 0.0000
-4 14 1 -0.3696 0.0000
-4 14 2 1.2336 0.0000
-4 14 3 -2.5849 0.0000
-3 1 1 -32.5676 0.0000
-3 1 2 -7.2373 0.0000
-3 1 3 -6.8644 0.0000
-3 1 4 -31.3330 0.0000
-3 1 5 0.2893 0.0000
-3 1 6 -6.5614 0.0000
-3 1 7 3.3751 0.0000
-3 1 8 -4.1696 0.0000
-3 1 9 2.2989 0.0000
-3 1 10 -0.2472 0.0000
-3 1 11 3.9509 0.0000
-3 3 1 -39.3010 0.0000
-3 3 2 41.0096 0.0000
-3 3 3 -9.0054 0.0000
-3 3 4 3.3895 0.0000
-3 3 5 -4.2175 0.0000
-3 3 6 9.1174 0.0000
-3 3 7 5.8322 0.0000
-3 3 8 -3.8728 0.0000
-3 3 9 0.9305 0.0000
-3 3 10 -6.1460 0.0000
-3 3 11 5.1561 0.0000
-3 5 1 4.7443 0.0000
-3 5 2 30.0439 0.0000
-3 5 3 7.4707 0.0000
-3 5 4 4.7843 0.0000
-3 5 5 -6.7384 0.0000
-3 5 6 8.3832 0.0000
-3 5 7 -1.6886 0.0000
-3 5 8 0.1201 0.0000
-3 5 9 -5.3868 0.0000
-3 5 10 -2.2945 0.0000
-3 5 11 5.0042 0.0000
-3 7 1 5.5571 0.0000
-3 7 2 1.2048 0.0000
-3 7 3 11.3028 0.0000
-3 7 4 -10.3975 0.0000
-3 7 5 -2.9667 0.0000
-3 7 6 0.2410 0.0000
-3 7 7 -0.7650 0.0000
-3 7 8 2.8049 0.0000
-3 7 9 2.1934 0.0000
-3 7 10 0.9038 0.0000
-3 9 1 -3.9813 0.0000
-3 9 2 -5.1771 0.0000
-3 9 3 3.2240 0.0000
-3 9 4 -9.1444 0.0000
-3 9 5 1.7258 0.0000
-3 9 6 -4.6191 0.0000
-3 9 7 5.4824 0.0000
-3 9 8 5.1418 0.0000
-3 9 9 0.3626 0.0000
-3 11 1 -3.7888 0.0000
-3 11 2 2.3765 0.0000
-3 11 3 0.8006 0.0000
-3 11 4 3.0968 0.0000
-3 11 5 -5.3723 0.0000
-3 11 6 4.5176 0.0000
-3 11 7 2.5274 0.0000
-3 13 1 -0.4732 0.0000
-3 13 3 1.8775 0.0000
-3 13 4 5.1644 0.0000
-3 13 5 -3.5789 0.0000
-2 0 2 26.8732 0.0000
-2 0 4 39.8975 0.0000
-2 0 6 6.4318 0.0000
-2 0 8 4.5143 0.0000
-2 0 10 -2.7264 0.0000
-2 2 1 33.0791 0.0000
-2 2 2 -17.7004 0.0000
-2 2 3 -2.2075 0.0000
-2 2 4 14.4232 0.0000
-2 2 5 -3.9753 0.0000
-2 2 6 0.2272 0.0000
-2 2 7 -9.1300 0.0000
-2 2 8 4.4167 0.0000
-2 2 9 -2.2735 0.0000
-2 2 10 2.7723 0.0000
-2 2 11 -3.9103 0.0000
-2 4 1 14.5250 0.0000
-2 4 2 -50.3670 0.0000
-2 4 3 0.1632 0.0000
-2 4 4 -8.9645 0.0000
-2 4 5 4.0865 0.0000
-2 4 6 -10.0151 0.0000
-2 4 7 -0.9974 0.0000
-2 4 8 2.6920 0.0000
-2 4 9 0.8898 0.0000
-2 4 10 8.1201 0.0000
-2 4 11 -4.9330 0.0000
-2 6 1 -3.9700 0.0000
-2 6 2 -14.7291 0.0000
-2 6 3 -6.6432 0.0000
-2 6 4 3.0344 0.0000
-2 6 5 8.2847 0.0000
-2 6 6 -5.2970 0.0000
-2 6 7 2.2662 0.0000
-2 6 8 -0.8273 0.0000
-2 6 9 3.0492 0.0000
-2 6 10 -0.7851 0.0000
-2 8 1 2.8174 0.0000
-2 8 2 6.1851 0.0000
-2 8 3 -5.2111 0.0000
-2 8 4 12.7969 0.0000
-2 8 5 -0.4563 0.0000
-2 8 6 2.4191 0.0000
-2 8 7 -2.1674 0.0000
-2 8 8 -7.9325 0.0000
-2 8 9 -0.8169 0.0000
-2 10 1 2.1868 0.0000
-2 10 2 1.5267 0.0000
-2 10 3 -4.2072 0.0000
-2 10 4 2.1031 0.0000
-2 10 5 0.9099 0.0000
-2 10 6 3.6115 0.0000
-2 10 7 -4.2639 0.0000
-2 10 8 -5.7520 0.0000
-2 12 1 1.8911 0.0000
-2 12 3 -0.2301 0.0000
-2 12 4 -4.1064 0.0000
-2 12 5 6.2794 0.0000
-2 12 6 -4.5890 0.0000
-2 12 7 0.3046 0.0000
-2 14 1 1.4475 0.0000
-2 14 2 -0.4886 0.0000
-2 14 3 -3.7993 0.0000
-2 14 4 -3.5034 0.0000
-1 1 1 -5.3620 0.0000
-1 1 2 -14.5875 0.0000
-1 1 3 11.8947 0.0000
-1 1 4 -30.2929 0.0000
-1 1 5 7.6680 0.0000
-1 1 6 -2.6253 0.0000
-1 1 7 4.7417 0.0000
-1 1 8 -3.0911 0.0000
-1 1 9 0.5377 0.0000
-1 1 10 1.6191 0.0000
-1 1 11 1.2931 0.0000
-1 3 1 -16.0896 0.0000
-1 3 2 45.8673 0.0000
-1 3 3 9.4906 0.0000
-1 3 4 -0.7236 0.0000
-1 3 5 4.6529 0.0000
-1 3 6 5.4467 0.0000
-1 3 7 7.8485 0.0000
-1 3 8 -6.5569 0.0000
-1 3 9 2.6360 0.0000
-1 3 10 -5.9065 0.0000
-1 3 11 2.6505 0.0000
-1 5 1 -7.3424 0.0000
-1 5 2 37.1110 0.0000
-1 5 3 -1.0333 0.0000
-1 5 4 4.5712 0.0000
-1 5 5 -8.2502 0.0000
-1 5 6 7.1805 0.0000
-1 5 7 -1.9027 0.0000
-1 5 8 -0.7058 0.0000
-1 5 9 -3.8603 0.0000
-1 5 10 -4.7103 0.0000
-1 5 11 4.3341 0.0000
-1 7 1 -4.3056 0.0000
-1 7 2 0.0295 0.0000
-1 7 3 2.2870 0.0000
-1 7 4 -9.3204 0.0000
-1 7 5 -7.0916 0.0000
-1 7 6 3.4433 0.0000
-1 7 7 -1.5381 0.0000
-1 7 8 5.2951 0.0000
-1 7 9 0.6235 0.0000
-1 7 10 -0.4179 0.0000
-1 9 1 -2.1134 0.0000
-1 9 2 -5.2639 0.0000
-1 9 3 5.1770 0.0000
-1 9 4 -7.7513 0.0000
-1 9 5 3.6781 0.0000
-1 9 6 -5.3476 0.0000
-1 9 7 3.9068 0.0000
-1 9 8 7.2321 0.0000
-1 9 9 -1.0823 0.0000
-1 11 1 0.0287 0.0000
-1 11 2 2.4603 0.0000
-1 11 3 3.0730 0.0000
-1 11 4 -0.7987 0.0000
-1 11 5 -6.8810 0.0000
-1 11 6 -1.0119 0.0000
-1 11 7 1.3057 0.0000
-1 11 8 5.7317 0.0000
-1 13 2 1.6119 0.0000
-1 13 3 1.9979 0.0000
-1 13 4 6.4160 0.0000
-1 13 5 -2.8707 0.0000
0 0 2 20.5750 0.0000
0 0 4 29.8439 0.0000
0 0 6 -2.4625 0.0000
0 0 8 2.5525 0.0000
0 0 10 -2.4690 0.0000
0 2 0 44.9519 0.0000
0 2 1 -9.9037 0.0000
0 2 2 -16.6334 0.0000
0 2 3 -27.1724 0.0000
0 2 4 15.9365 0.0000
0 2 5 -12.6441 0.0000
0 2 6 -1.0491 0.0000
0 2 7 -8.4970 0.0000
0 2 8 4.7394 0.0000
0 2 9 0.5273 0.0000
0 2 10 0.4417 0.0000
0 2 11 -1.1755 0.0000
0 4 0 -20.8143 0.0000
0 4 1 10.4566 0.0000
0 4 2 -49.2374 0.0000
0 4 3 -2.7628 0.0000
0 4 4 -2.5745 0.0000
0 4 5 0.6036 0.0000
0 4 6 -5.2766 0.0000
0 4 7 -2.0320 0.0000
0 4 8 4.6380 0.0000
0 4 9 -1.7843 0.0000
0 4 10 6.7414 0.0000
0 4 11 -2.4123 0.0000
0 6 0 5.3786 0.0000
0 6 1 12.2088 0.0000
0 6 2 -15.6965 0.0000
0 6 3 4.7756 0.0000
0 6 4 2.4015 0.0000
0 6 5 11.6513 0.0000
0 6 6 -5.9649 0.0000
0 6 7 2.5011 0.0000
0 6 8 -0.5691 0.0000
0 6 9 2.6876 0.0000
0 6 10 0.2999 0.0000
0 8 0 15.9042 0.0000
0 8 1 6.3330 0.0000
0 8 2 4.6474 0.0000
0 8 3 -1.3734 0.0000
0 8 4 8.8286 0.0000
0 8 5 1.5102 0.0000
0 8 6 -0.5744 0.0000
0 8 7 -1.6789 0.0000
0 8 8 -7.8161 0.0000
0 8 9 0.3407 0.0000
0 10 0 8.7250 0.0000
0 10 1 -2.6596 0.0000
0 10 2 0.1488 0.0000
0 10 3 -7.1742 0.0000
0 10 4 4.9660 0.0000
0 10 5 0.9808 0.0000
0 10 6 8.2155 0.0000
0 10 7 -1.8497 0.0000
0 10 8 -4.5995 0.0000
0 12 0 1.1192 0.0000
0 12 1 1.3106 0.0000
0 12 2 -2.3194 0.0000
0 12 3 0.1476 0.0000
0 12 4 -1.5276 0.0000
0 12 5 5.2986 0.0000
0 12 6 -3.0877 0.0000
0 12 7 0.9888 0.0000
0 14 1 3.3832 0.0000
0 14 2 -3.7007 0.0000
0 14 3 -4.3031 0.0000
0 14 4 -6.2862 0.0000
1 1 1 25.9019 0.0000
1 1 2 -1.0963 0.0000
1 1 3 25.2170 0.0000
1 1 4 -19.3553 0.0000
1 1 5 9.9863 0.0000
1 1 6 5.2895 0.0000
1 1 7 2.7203 0.0000
1 1 8 -2.4664 0.0000
1 1 9 -2.4909 0.0000
1 1 10 0.9556 0.0000
1 1 11 0.5325 0.0000
1 3 0 1.8254 0.0000
1 3 1 14.0594 0.0000
1 3 2 35.7408 0.0000
1 3 3 23.3622 0.0000
1 3 4 -9.4529 0.0000
1 3 5 10.1462 0.0000
1 3 6 1.5477 0.0000
1 3 7 6.1035 0.0000
1 3 8 -6.6354 0.0000
1 3 9 1.6554 0.0000
1 3 10 -0.8328 0.0000
1 3 11 1.0017 0.0000
1 5 0 8.7968 0.0000
1 5 1 -18.9655 0.0000
1 5 2 31.0777 0.0000
1 5 3 -8.0846 0.0000
1 5 4 -0.0402 0.0000
1 5 5 -8.2908 0.0000
1 5 6 3.9620 0.0000
1 5 7 -0.4109 0.0000
1 5 8 -2.2266 0.0000
1 5 9 -1.8325 0.0000
1 5 10 -3.5355 0.0000
1 5 11 0.7177 0.0000
1 7 0 -13.1962 0.0000
1 7 1 -14.0842 0.0000
1 7 2 3.1835 0.0000
1 7 3 -5.7014 0.0000
1 7 4 -5.0578 0.0000
1 7 5 -9.8005 0.0000
1 7 6 4.9202 0.0000
1 7 7 -1.0590 0.0000
1 7 8 3.9354 0.0000
1 7 9 0.1956 0.0000
1 7 10 -0.1412 0.0000
1 9 0 -13.3774 0.0000
1 9 1 -0.4942 0.0000
1 9 2 -1.4700 0.0000
1 9 3 5.4986 0.0000
1 9 4 -5.5213 0.0000
1 9 5 1.6076 0.0000
1 9 6 -5.5021 0.0000
1 9 7 2.3956 0.0000
1 9 8 3.0920 0.0000
1 9 9 -1.9079 0.0000
1 11 0 -3.9374 0.0000
1 11 1 2.7888 0.0000
1 11 2 2.0391 0.0000
1 11 3 3.4889 0.0000
1 11 4 -6.4869 0.0000
1 11 5 -5.2569 0.0000
1 11 6 -4.3885 0.0000
1 11 7 0.3078 0.0000
1 11 8 3.5386 0.0000
1 13 1 -3.6043 0.0000
1 13 2 2.8785 0.0000
1 13 3 2.5801 0.0000
1 13 4 8.4939 0.0000
1 13 5 -0.2078 0.0000
1 15 0 -0.9027 0.0000
2 0 0 104.0550 0.0000
2 0 2 -8.9976 0.0000
2 0 4 10.2109 0.0000
2 0 6 -10.9011 0.0000
2 0 8 3.1771 0.0000
2 0 10 0.4444 0.0000
2 2 0 40.9838 0.0000
2 2 2 -16.6414 0.0000
2 2 3 -37.2854 0.0000
2 2 4 14.9386 0.0000
2 2 5 -12.9657 0.0000
2 2 6 -3.4605 0.0000
2 2 7 -3.8193 0.0000
2 2 8 3.8386 0.0000
2 2 9 3.4723 0.0000
2 2 10 -2.3242 0.0000
2 2 11 -2.2819 0.0000
2 4 0 -9.6841 0.0000
2 4 1 3.2435 0.0000
2 4 2 -30.1043 0.0000
2 4 3 -3.5983 0.0000
2 4 4 8.1450 0.0000
2 4 5 -1.8889 0.0000
2 4 6 0.6552 0.0000
2 4 7 -2.5630 0.0000
2 4 8 4.0230 0.0000
2 4 9 -2.2928 0.0000
2 4 10 1.6638 0.0000
2 4 11 0.7366 0.0000
2 6 0 6.4672 0.0000
2 6 1 23.7867 0.0000
2 6 2 -14.1982 0.0000
2 6 3 11.7610 0.0000
2 6 4 2.3666 0.0000
2 6 5 11.3781 0.0000
2 6 6 -4.3174 0.0000
2 6 7 0.7511 0.0000
2 6 8 1.5671 0.0000
2 6 9 2.1943 0.0000
2 6 10 -1.3312 0.0000
2 8 0 12.8678 0.0000
2 8 1 8.7990 0.0000
2 8 2 -1.8106 0.0000
2 8 3 1.9736 0.0000
2 8 4 2.3356 0.0000
2 8 5 4.4501 0.0000
2 8 6 -1.6059 0.0000
2 8 7 -1.8369 0.0000
2 8 8 -3.7074 0.0000
2 8 9 1.2418 0.0000
2 10 0 7.5427 0.0000
2 10 1 -3.8095 0.0000
2 10 2 -1.5375 0.0000
2 10 3 -7.4719 0.0000
2 10 4 8.2702 0.0000
2 10 5 1.3887 0.0000
2 10 6 10.1236 0.0000
2 10 7 -1.1138 0.0000
2 10 8 1.2883 0.0000
2 12 0 2.0663 0.0000
2 12 1 0.2623 0.0000
2 12 2 -1.6137 0.0000
2 12 3 -0.9344 0.0000
2 12 4 -0.4667 0.0000
2 12 5 0.3549 0.0000
2 12 6 -2.5819 0.0000
2 12 7 0.7435 0.0000
2 14 0 -1.5270 0.0000
2 14 1 3.5960 0.0000
2 14 2 -4.3601 0.0000
2 14 3 -3.8505 0.0000
2 14 4 -7.8768 0.0000
3 1 0 -65.8344 0.0000
3 1 1 41.4961 0.0000
3 1 2 21.7578 0.0000
3 1 3 24.2037 0.0000
3 1 4 -4.8588 0.0000
3 1 5 5.5680 0.0000
3 1 6 9.9184 0.0000
3 1 7 -0.1279 0.0000
3 1 8 -3.0968 0.0000
3 1 9 -3.3805 0.0000
3 1 10 -0.1517 0.0000
3 1 11 2.2888 0.0000
3 3 0 -12.1483 0.0000
3 3 1 32.3767 0.0000
3 3 2 16.2153 0.0000
3 3 3 23.8994 0.0000
3 3 4 -17.4502 0.0000
3 3 5 9.5303 0.0000
3 3 6 -1.2158 0.0000
3 3 7 2.5086 0.0000
3 3 8 -3.5832 0.0000
3 3 9 0.0535 0.0000
3 3 10 4.2333 0.0000
3 3 11 1.2402 0.0000
3 5 0 -3.3696 0.0000
3 5 1 -21.4369 0.0000
3 5 2 16.2294 0.0000
3 5 3 -10.3819 0.0000
3 5 4 -6.6621 0.0000
3 5 5 -5.3677 0.0000
3 5 6 -0.2700 0.0000
3 5 7 2.1806 0.0000
3 5 8 -2.8567 0.0000
3 5 9 -1.7721 0.0000
3 5 10 -0.3665 0.0000
3 5 11 -2.3418 0.0000
3 7 0 -9.6309 0.0000
3 7 1 -18.6537 0.0000
3 7 2 8.7344 0.0000
3 7 3 -8.7977 0.0000
3 7 4 -0.2861 0.0000
3 7 5 -8.5273 0.0000
3 7 6 3.7880 0.0000
3 7 7 0.4255 0.0000
3 7 8 0.5741 0.0000
3 7 9 -0.0249 0.0000
3 7 10 2.6751 0.0000
3 9 0 -8.3865 0.0000
3 9 1 -1.5500 0.0000
3 9 2 3.6948 0.0000
3 9 3 3.8367 0.0000
3 9 4 -2.4085 0.0000
3 9 5 -1.9890 0.0000
3 9 6 -4.9506 0.0000
3 9 7 1.8746 0.0000
3 9 8 -2.6395 0.0000
3 9 9 -2.8617 0.0000
3 11 0 -4.5830 0.0000
3 11 1 2.2052 0.0000
3 11 2 1.4463 0.0000
3 11 3 4.7214 0.0000
3 11 4 -9.1243 0.0000
3 11 5 -0.1628 0.0000
3 11 6 -5.6722 0.0000
3 11 7 1.6674 0.0000
3 13 0 0.4920 0.0000
3 13 1 -1.7007 0.0000
3 13 2 1.9100 0.0000
3 13 3 3.4026 0.0000
3 13 4 9.3272 0.0000
3 13 5 1.6685 0.0000
4 0 0 51.5957 0.0000
4 0 2 -39.8271 0.0000
4 0 4 -6.5858 0.0000
4 0 6 -11.5646 0.0000
4 0 8 4.4598 0.0000
4 0 10 1.6039 0.0000
4 2 0 31.6332 0.0000
4 2 1 -52.2128 0.0000
4 2 2 -15.8326 0.0000
4 2 3 -27.4830 0.0000
4 2 4 11.3152 0.0000
4 2 5 -5.6610 0.0000
4 2 6 -4.7443 0.0000
4 2 7 0.1518 0.0000
4 2 8 1.7697 0.0000
4 2 9 3.6842 0.0000
4 2 10 -3.4155 0.0000
4 2 11 -4.4602 0.0000
4 4 0 14.6906 0.0000
4 4 1 -3.1243 0.0000
4 4 2 -5.8591 0.0000
4 4 3 -2.1782 0.0000
4 4 4 17.1076 0.0000
4 4 5 -3.2906 0.0000
4 4 6 4.2706 0.0000
4 4 7 -2.5331 0.0000
4 4 8 1.2885 0.0000
4 4 9 -0.3887 0.0000
4 4 10 -2.0125 0.0000
4 4 11 2.9791 0.0000
4 6 0 9.3777 0.0000
4 6 1 24.1811 0.0000
4 6 2 -10.8958 0.0000
4 6 3 10.7416 0.0000
4 6 4 3.3758 0.0000
4 6 5 5.4662 0.0000
4 6 6 -1.7079 0.0000
4 6 7 -1.9186 0.0000
4 6 8 3.9052 0.0000
4 6 9 2.0279 0.0000
4 6 10 -4.8335 0.0000
4 8 0 5.8432 0.0000
4 8 1 9.8052 0.0000
4 8 2 -9.1606 0.0000
4 8 3 3.1902 0.0000
4 8 4 -3.1976 0.0000
4 8 5 5.3003 0.0000
4 8 6 -1.3058 0.0000
4 8 7 -1.8038 0.0000
4 8 8 0.1735 0.0000
4 8 9 1.7067 0.0000
4 10 0 4.3482 0.0000
4 10 1 -0.5738 0.0000
4 10 2 -3.0339 0.0000
4 10 3 -6.4844 0.0000
4 10 4 7.8172 0.0000
4 10 5 0.9518 0.0000
4 10 6 8.9963 0.0000
4 10 7 -1.7683 0.0000
4 10 8 5.8910 0.0000
4 12 0 3.5482 0.0000
4 12 1 -0.7369 0.0000
4 12 2 -0.6513 0.0000
4 12 3 -3.6913 0.0000
4 12 4 -0.3827 0.0000
4 12 5 -4.3793 0.0000
4 12 6 -0.1100 0.0000
4 14 0 -3.4001 0.0000
4 14 1 2.2504 0.0000
4 14 2 -0.4720 0.0000
4 14 3 -1.5130 0.0000
4 14 4 -6.6917 0.0000
5 1 0 -24.9720 0.0000
5 1 1 33.9167 0.0000
5 1 2 37.9206 0.0000
5 1 3 11.1567 0.0000
5 1 4 4.7857 0.0000
5 1 5 -1.4580 0.0000
5 1 6 8.4126 0.0000
5 1 7 -0.7626 0.0000
5 1 8 -2.6917 0.0000
5 1 9 -1.8671 0.0000
5 1 10 -0.5246 0.0000
5 1 11 3.1360 0.0000
5 3 0 -28.6739 0.0000
5 3 1 29.5021 0.0000
5 3 2 -0.3898 0.0000
5 3 3 13.3771 0.0000
5 3 4 -19.4127 0.0000
5 3 5 4.3581 0.0000
5 3 6 -1.1298 0.0000
5 3 7 -0.0391 0.0000
5 3 8 0.1112 0.0000
5 3 9 -1.7229 0.0000
5 3 10 4.7265 0.0000
5 3 11 0.5966 0.0000
5 5 0 -18.5860 0.0000
5 5 1 -14.6700 0.0000
5 5 2 1.8085 0.0000
5 5 3 -6.7323 0.0000
5 5 4 -11.9341 0.0000
5 5 5 0.5671 0.0000
5 5 6 -2.0396 0.0000
5 5 7 3.7701 0.0000
5 5 8 -2.6476 0.0000
5 5 9 -3.0421 0.0000
5 5 10 2.9775 0.0000
5 7 0 -5.5896 0.0000
5 7 1 -16.3172 0.0000
5 7 2 12.7004 0.0000
5 7 3 -5.3208 0.0000
5 7 4 1.8361 0.0000
5 7 5 -2.4408 0.0000
5 7 6 1.7970 0.0000
5 7 7 1.9309 0.0000
5 7 8 -2.4927 0.0000
5 7 9 1.2003 0.0000
5 7 10 6.2312 0.0000
5 9 0 -1.0888 0.0000
5 9 1 -4.2411 0.0000
5 9 2 7.8095 0.0000
5 9 3 1.5366 0.0000
5 9 4 0.7518 0.0000
5 9 5 -4.3757 0.0000
5 9 6 -2.7372 0.0000
5 9 7 0.6657 0.0000
5 9 8 -4.5095 0.0000
5 9 9 -3.4544 0.0000
5 11 0 -4.3513 0.0000
5 11 1 -0.2845 0.0000
5 11 2 1.4861 0.0000
5 11 3 6.4461 0.0000
5 11 4 -7.2430 0.0000
5 11 5 3.7603 0.0000
5 11 6 -6.4420 0.0000
5 11 7 3.4145 0.0000
5 13 0 0.0782 0.0000
5 13 1 0.4668 0.0000
5 13 2 -1.8044 0.0000
5 13 3 2.3598 0.0000
5 13 4 6.3657 0.0000
5 13 5 0.7985 0.0000
6 0 0 3.4816 0.0000
6 0 2 -53.5284 0.0000
6 0 4 -11.4536 0.0000
6 0 6 -6.1668 0.0000
6 0 8 3.6437 0.0000
6 0 10 1.1125 0.0000
6 2 0 21.6097 0.0000
6 2 1 -31.1243 0.0000
6 2 2 -14.7127 0.0000
6 2 3 -7.4606 0.0000
6 2 4 6.2838 0.0000
6 2 5 2.9872 0.0000
6 2 6 -4.5382 0.0000
6 2 7 0.7673 0.0000
6 2 8 -0.2098 0.0000
6 2 9 2.7913 0.0000
6 2 10 -0.8775 0.0000
6 2 11 -3.3744 0.0000
6 4 0 34.1439 0.0000
6 4 1 -4.7736 0.0000
6 4 2 9.3263 0.0000
6 4 3 -0.6633 0.0000
6 4 4 19.4592 0.0000
6 4 5 -3.2147 0.0000
6 4 6 2.9817 0.0000
6 4 7 -1.4667 0.0000
6 4 8 -0.5640 0.0000
6 4 9 2.6351 0.0000
6 4 10 -3.0232 0.0000
6 4 11 4.1045 0.0000
6 6 0 12.7021 0.0000
6 6 1 15.6824 0.0000
6 6 2 -6.9981 0.0000
6 6 3 2.8881 0.0000
6 6 4 5.1107 0.0000
6 6 5 -3.8102 0.0000
6 6 6 -0.5952 0.0000
6 6 7 -3.5203 0.0000
6 6 8 4.9748 0.0000
6 6 9 0.5807 0.0000
6 6 10 -9.2205 0.0000
6 8 0 -1.3064 0.0000
6 8 1 8.3179 0.0000
6 8 2 -12.9168 0.0000
6 8 3 1.4833 0.0000
6 8 4 -4.1419 0.0000
6 8 5 3.3827 0.0000
6 8 6 -1.3359 0.0000
6 8 7 -1.1015 0.0000
6 8 8 1.8847 0.0000
6 8 9 -0.0215 0.0000
6 10 0 0.5591 0.0000
6 10 1 3.4537 0.0000
6 10 2 -4.4300 0.0000
6 10 3 -4.3633 0.0000
6 10 4 4.0250 0.0000
6 10 5 1.1658 0.0000
6 10 6 5.4103 0.0000
6 10 7 -0.8958 0.0000
6 10 8 5.1473 0.0000
6 12 0 3.8615 0.0000
6 12 1 -0.5794 0.0000
6 12 2 0.7913 0.0000
6 12 3 -4.5989 0.0000
6 12 4 0.5823 0.0000
6 12 5 -4.2426 0.0000
6 12 6 4.1349 0.0000
6 14 0 -2.8340 0.0000
6 14 1 1.7516 0.0000
6 14 2 5.4560 0.0000
6 14 3 1.9841 0.0000
7 1 0 3.0938 0.0000
7 1 1 12.2843 0.0000
7 1 2 40.1903 0.0000
7 1 3 -3.7142 0.0000
7 1 4 5.7545 0.0000
7 1 5 -5.6784 0.0000
7 1 6 4.0792 0.0000
7 1 7 0.3640 0.0000
7 1 8 -1.5149 0.0000
7 1 9 -0.1481 0.0000
7 1 10 -2.0761 0.0000
7 1 11 1.2652 0.0000
7 3 0 -35.5376 0.0000
7 3 1 11.5660 0.0000
7 3 2 -5.6964 0.0000
7 3 3 0.6500 0.0000
7 3 4 -14.5561 0.0000
7 3 5 -1.9832 0.0000
7 3 6 0.9031 0.0000
7 3 7 -0.7931 0.0000
7 3 8 1.0197 0.0000
7 3 9 -3.6626 0.0000
7 3 10 1.1165 0.0000
7 3 11 -1.2242 0.0000
7 5 0 -27.0597 0.0000
7 5 1 -5.4426 0.0000
7 5 2 -5.6332 0.0000
7 5 3 0.1999 0.0000
7 5 4 -13.1901 0.0000
7 5 5 5.9628 0.0000
7 5 6 0.1698 0.0000
7 5 7 2.7757 0.0000
7 5 8 -1.8875 0.0000
7 5 9 -3.0285 0.0000
7 5 10 7.2464 0.0000
7 7 0 -3.1601 0.0000
7 7 1 -8.9669 0.0000
7 7 2 12.2768 0.0000
7 7 3 1.9028 0.0000
7 7 4 -0.0188 0.0000
7 7 5 4.5848 0.0000
7 7 6 0.6854 0.0000
7 7 7 3.0932 0.0000
7 7 8 -3.9165 0.0000
7 7 9 4.2926 0.0000
7 7 10 8.8210 0.0000
7 9 0 5.0807 0.0000
7 9 1 -5.8453 0.0000
7 9 2 8.8570 0.0000
7 9 3 -0.2473 0.0000
7 9 4 1.1165 0.0000
7 9 5 -5.0895 0.0000
7 9 6 1.1746 0.0000
7 9 7 -1.6272 0.0000
7 9 8 -2.6029 0.0000
7 9 9 -2.1906 0.0000
7 11 0 -2.9775 0.0000
7 11 1 -2.2900 0.0000
7 11 2 1.9006 0.0000
7 11 3 5.6129 0.0000
7 11 4 -3.3815 0.0000
7 11 5 2.6869 0.0000
7 11 6 -6.0665 0.0000
7 11 7 2.9397 0.0000
7 13 0 -1.6134 0.0000
7 13 1 -0.4031 0.0000
7 13 2 -5.8602 0.0000
7 13 3 -0.9375 0.0000
7 13 4 1.2235 0.0000
7 13 5 -1.7082 0.0000
8 0 0 -19.2038 0.0000
8 0 2 -47.3768 0.0000
8 0 4 -4.9052 0.0000
8 0 6 -1.1231 0.0000
8 0 8 2.6777 0.0000
8 0 10 1.6315 0.0000
8 2 0 13.6074 0.0000
8 2 1 -0.7550 0.0000
8 2 2 -14.1216 0.0000
8 2 3 9.2087 0.0000
8 2 4 2.3269 0.0000
8 2 5 7.8318 0.0000
8 2 6 -2.8830 0.0000
8 2 7 -0.2305 0.0000
8 2 8 -0.0806 0.0000
8 2 9 2.0960 0.0000
8 2 10 4.1833 0.0000
8 2 11 -0.2657 0.0000
8 4 0 37.7665 0.0000
8 4 1 -1.3703 0.0000
8 4 2 11.0778 0.0000
8 4 3 0.0639 0.0000
8 4 4 15.0162 0.0000
8 4 5 -1.1057 0.0000
8 4 6 -1.1018 0.0000
8 4 7 0.0875 0.0000
8 4 8 -0.0471 0.0000
8 4 9 3.5612 0.0000
8 4 10 -3.8428 0.0000
8 6 0 14.3389 0.0000
8 6 1 4.8840 0.0000
8 6 2 -3.6165 0.0000
8 6 3 -5.8138 0.0000
8 6 4 6.1966 0.0000
8 6 5 -10.3713 0.0000
8 6 6 -1.5092 0.0000
8 6 7 -3.3171 0.0000
8 6 8 3.3331 0.0000
8 6 9 -2.1782 0.0000
8 6 10 -13.4159 0.0000
8 8 0 -6.0091 0.0000
8 8 1 4.4574 0.0000
8 8 2 -10.6828 0.0000
8 8 3 -1.5138 0.0000
8 8 4 0.0767 0.0000
8 8 5 1.0196 0.0000
8 8 6 -2.4518 0.0000
8 8 7 -0.9098 0.0000
8 8 8 2.4900 0.0000
8 8 9 -3.1530 0.0000
8 10 0 -1.7943 0.0000
8 10 1 5.3361 0.0000
8 10 2 -5.1104 0.0000
8 10 3 -1.5442 0.0000
8 10 4 0.7370 0.0000
8 10 5 2.3942 0.0000
8 10 6 0.1727 0.0000
8 10 7 1.6951 0.0000
8 10 8 1.2784 0.0000
8 12 0 3.0981 0.0000
8 12 1 1.5293 0.0000
8 12 2 2.0664 0.0000
8 12 3 -2.2586 0.0000
8 12 4 1.8056 0.0000
8 12 5 0.0605 0.0000
8 12 6 6.0848 0.0000
8 14 0 1.3214 0.0000
8 14 1 2.8942 0.0000
8 14 2 7.8783 0.0000
9 1 0 11.3573 0.0000
9 1 1 -8.1253 0.0000
9 1 2 31.1115 0.0000
9 1 3 -12.0367 0.0000
9 1 4 0.0595 0.0000
9 1 5 -5.6265 0.0000
9 1 6 0.6778 0.0000
9 1 7 0.6522 0.0000
9 1 8 -1.7809 0.0000
9 1 9 1.0876 0.0000
9 1 10 -4.3328 0.0000
9 1 11 -1.2291 0.0000
9 3 0 -29.8066 0.0000
9 3 1 -7.7432 0.0000
9 3 2 -1.5347 0.0000
9 3 3 -7.6510 0.0000
9 3 4 -7.0893 0.0000
9 3 5 -6.6222 0.0000
9 3 6 1.8068 0.0000
9 3 7 -0.1682 0.0000
9 3 8 -0.9102 0.0000
9 3 9 -3.4426 0.0000
9 3 10 -2.4840 0.0000
9 5 0 -25.8613 0.0000
9 5 1 0.6457 0.0000
9 5 2 -5.6815 0.0000
9 5 3 5.4780 0.0000
9 5 4 -10.0502 0.0000
9 5 5 7.4119 0.0000
9 5 6 3.6314 0.0000
9 5 7 0.5678 0.0000
9 5 8 -0.3467 0.0000
9 5 9 -0.1566 0.0000
9 5 10 11.3592 0.0000
9 7 0 -2.1747 0.0000
9 7 1 -0.2369 0.0000
9 7 2 7.8092 0.0000
9 7 3 7.1375 0.0000
9 7 4 -3.4707 0.0000
9 7 5 7.4885 0.0000
9 7 6 0.8775 0.0000
9 7 7 4.0815 0.0000
9 7 8 -3.1476 0.0000
9 7 9 5.9260 0.0000
9 9 0 7.5424 0.0000
9 9 1 -5.6336 0.0000
9 9 2 6.3311 0.0000
9 9 3 -0.2659 0.0000
9 9 4 -1.5851 0.0000
9 9 5 -4.3913 0.0000
9 9 6 5.6853 0.0000
9 9 7 -3.0330 0.0000
9 9 8 -0.8186 0.0000
9 11 0 -1.2685 0.0000
9 11 1 -2.8510 0.0000
9 11 2 2.3080 0.0000
9 11 3 2.9353 0.0000
9 11 4 -0.1554 0.0000
9 11 5 -0.9992 0.0000
9 11 6 -3.1253 0.0000
9 11 7 0.8965 0.0000
9 13 0 -4.1319 0.0000
9 13 1 -4.1513 0.0000
9 13 2 -6.0944 0.0000
9 13 3 -3.3948 0.0000
9 13 4 -1.8172 0.0000
10 0 0 -17.4850 0.0000
10 0 2 -29.5303 0.0000
10 0 4 6.0214 0.0000
10 0 6 0.4063 0.0000
10 0 8 3.4694 0.0000
10 0 10 1.6857 0.0000
10 2 0 8.2983 0.0000
10 2 1 20.4955 0.0000
10 2 2 -12.6831 0.0000
10 2 3 15.8436 0.0000
10 2 4 1.3953 0.0000
10 2 5 8.2193 0.0000
10 2 6 -0.3040 0.0000
10 2 7 -0.4604 0.0000
10 2 8 1.1582 0.0000
10 2 9 0.4484 0.0000
10 2 10 7.2290 0.0000
10 4 0 28.2196 0.0000
10 4 1 3.6068 0.0000
10 4 2 4.6228 0.0000
10 4 3 0.6088 0.0000
10 4 4 7.5178 0.0000
10 4 5 1.5474 0.0000
10 4 6 -3.5506 0.0000
10 4 7 0.2622 0.0000
10 4 8 1.5725 0.0000
10 4 9 0.4858 0.0000
10 4 10 -4.7530 0.0000
10 6 0 13.1294 0.0000
10 6 1 -3.6938 0.0000
10 6 2 -1.8451 0.0000
10 6 3 -9.6215 0.0000
10 6 4 5.2057 0.0000
10 6 5 -10.6565 0.0000
10 6 6 -2.4555 0.0000
10 6 7 -2.3285 0.0000
10 6 8 -0.3907 0.0000
10 6 9 -3.7652 0.0000
10 6 10 -13.9112 0.0000
10 8 0 -6.6009 0.0000
10 8 1 0.2817 0.0000
10 8 2 -4.4322 0.0000
10 8 3 -3.7090 0.0000
10 8 4 4.7168 0.0000
10 8 5 0.2329 0.0000
10 8 6 -4.2560 0.0000
10 8 7 -1.7950 0.0000
10 8 8 3.1158 0.0000
10 8 9 -3.8333 0.0000
10 10 0 -1.9842 0.0000
10 10 1 4.7512 0.0000
10 10 2 -5.1146 0.0000
10 10 3 -1.0273 0.0000
10 10 4 -0.5184 0.0000
10 10 5 2.7206 0.0000
10 10 6 -5.2028 0.0000
10 10 7 3.4489 0.0000
10 12 0 1.2984 0.0000
10 12 1 4.2616 0.0000
10 12 2 1.7603 0.0000
10 12 3 -0.3939 0.0000
10 12 4 1.8058 0.0000
10 12 5 3.6964 0.0000
10 14 0 5.7859 0.0000
10 14 1 3.8182 0.0000
11 1 0 5.7090 0.0000
11 1 1 -17.8687 0.0000
11 1 2 16.9266 0.0000
11 1 3 -12.4076 0.0000
11 1 4 -7.1788 0.0000
11 1 5 -3.4791 0.0000
11 1 6 -0.4262 0.0000
11 1 7 -0.8251 0.0000
11 1 8 -2.4681 0.0000
11 1 9 2.1894 0.0000
11 1 10 -3.6655 0.0000
11 3 0 -17.6420 0.0000
11 3 1 -18.1464 0.0000
11 3 2 4.6505 0.0000
11 3 3 -9.8471 0.0000
11 3 4 -1.4477 0.0000
11 3 5 -7.8511 0.0000
11 3 6 0.8457 0.0000
11 3 7 1.0981 0.0000
11 3 8 -2.3416 0.0000
11 3 9 -0.5730 0.0000
11 3 10 -3.5185 0.0000
11 5 0 -18.3222 0.0000
11 5 1 3.3400 0.0000
11 5 2 -1.2250 0.0000
11 5 3 6.7127 0.0000
11 5 4 -4.6314 0.0000
11 5 5 5.5503 0.0000
11 5 6 4.2292 0.0000
11 5 7 -0.4917 0.0000
11 5 8 0.8193 0.0000
11 5 9 3.6508 0.0000
11 5 10 10.8936 0.0000
11 7 0 -2.4711 0.0000
11 7 1 6.3878 0.0000
11 7 2 2.8434 0.0000
11 7 3 7.4090 0.0000
11 7 4 -4.6558 0.0000
11 7 5 5.3533 0.0000
11 7 6 1.3542 0.0000
11 7 7 4.5162 0.0000
11 7 8 -1.2216 0.0000
11 7 9 3.1544 0.0000
11 9 0 5.2293 0.0000
11 9 1 -4.4325 0.0000
11 9 2 3.0681 0.0000
11 9 3 2.5619 0.0000
11 9 4 -3.2322 0.0000
11 9 5 -2.8922 0.0000
11 9 6 8.9541 0.0000
11 9 7 -2.5255 0.0000
11 9 8 -1.0045 0.0000
11 11 0 0.9914 0.0000
11 11 1 -1.8321 0.0000
11 11 2 2.7973 0.0000
11 11 3 2.4812 0.0000
11 11 4 1.5208 0.0000
11 11 5 -2.9091 0.0000
11 11 6 1.2346 0.0000
11 13 0 -4.6568 0.0000
11 13 1 -7.3117 0.0000
11 13 2 -1.9825 0.0000
11 13 3 -2.2767 0.0000
11 13 4 -2.0634 0.0000
12 0 0 -3.5476 0.0000
12 0 2 -10.2923 0.0000
12 0 4 14.0536 0.0000
12 0 6 -0.7159 0.0000
12 0 8 3.8934 0.0000
12 0 10 -0.9393 0.0000
12 2 0 5.8617 0.0000
12 2 1 25.7292 0.0000
12 2 2 -9.1214 0.0000
12 2 3 13.7078 0.0000
12 2 4 2.4552 0.0000
12 2 5 6.1315 0.0000
12 2 6 0.9250 0.0000
12 2 7 0.6315 0.0000
12 2 8 0.4963 0.0000
12 2 9 -1.3333 0.0000
12 2 10 5.7411 0.0000
12 4 0 14.4257 0.0000
12 4 1 6.0032 0.0000
12 4 2 -3.2444 0.0000
12 4 3 0.7339 0.0000
12 4 4 0.9415 0.0000
12 4 5 2.5225 0.0000
12 4 6 -2.8330 0.0000
12 4 7 -0.7018 0.0000
12 4 8 2.8476 0.0000
12 4 9 -3.1548 0.0000
12 4 10 -3.4755 0.0000
12 6 0 9.3803 0.0000
12 6 1 -8.6996 0.0000
12 6 2 -2.6003 0.0000
12 6 3 -8.1765 0.0000
12 6 4 2.7875 0.0000
12 6 5 -6.4291 0.0000
12 6 6 -1.1934 0.0000
12 6 7 -1.6357 0.0000
12 6 8 -2.8953 0.0000
12 6 9 -2.6400 0.0000
12 8 0 -2.0117 0.0000
12 8 1 -1.9440 0.0000
12 8 2 0.4025 0.0000
12 8 3 -4.8514 0.0000
12 8 4 4.8368 0.0000
12 8 5 0.9235 0.0000
12 8 6 -5.3355 0.0000
12 8 7 -2.5324 0.0000
12 8 8 3.4484 0.0000
12 10 0 -1.2362 0.0000
12 10 1 2.5086 0.0000
12 10 2 -5.5734 0.0000
12 10 3 -4.0991 0.0000
12 10 4 -1.2110 0.0000
12 10 5 1.8619 0.0000
12 10 6 -8.4785 0.0000
12 10 7 3.0018 0.0000
12 12 0 -1.9630 0.0000
12 12 1 5.3310 0.0000
12 12 2 0.6227 0.0000
12 12 3 -1.8118 0.0000
12 12 4 1.3788 0.0000
12 12 5 4.0766 0.0000
13 1 0 -4.7828 0.0000
13 1 1 -16.8023 0.0000
13 1 2 4.1485 0.0000
13 1 3 -8.2151 0.0000
13 1 4 -11.2019 0.0000
13 1 5 -1.3764 0.0000
13 1 6 0.6325 0.0000
13 1 7 -2.6864 0.0000
13 1 8 -1.4557 0.0000
13 1 9 2.1799 0.0000
13 1 10 -0.2596 0.0000
13 3 0 -6.4012 0.0000
13 3 1 -17.6615 0.0000
13 3 2 8.1439 0.0000
13 3 3 -7.2286 0.0000
13 3 4 1.5113 0.0000
13 3 5 -6.2045 0.0000
13 3 6 0.6368 0.0000
13 3 7 1.1017 0.0000
13 3 8 -1.4744 0.0000
13 3 9 0.8702 0.0000
13 3 10 -2.9070 0.0000
13 5 0 -8.5588 0.0000
13 5 1 4.5985 0.0000
13 5 2 4.8401 0.0000
13 5 3 5.3928 0.0000
13 5 4 -0.1668 0.0000
13 5 5 2.5683 0.0000
13 5 6 1.2494 0.0000
13 5 7 -0.4643 0.0000
13 5 8 0.0626 0.0000
13 5 9 4.8477 0.0000
13 7 0 -4.1074 0.0000
13 7 1 8.4087 0.0000
13 7 2 0.8109 0.0000
13 7 3 4.8758 0.0000
13 7 4 -3.2907 0.0000
13 7 5 1.2047 0.0000
13 7 6 1.0416 0.0000
13 7 7 4.0666 0.0000
13 7 8 0.0770 0.0000
13 7 9 -1.5190 0.0000
13 9 0 -0.5529 0.0000
13 9 1 -2.9142 0.0000
13 9 2 2.6012 0.0000
13 9 3 6.7591 0.0000
13 9 4 -1.3536 0.0000
13 9 5 -1.8769 0.0000
13 9 6 9.2308 0.0000
13 9 7 -1.1336 0.0000
13 11 0 4.0776 0.0000
13 11 1 -0.2546 0.0000
13 11 2 2.7163 0.0000
13 11 3 4.1133 0.0000
13 11 4 1.7237 0.0000
13 11 5 -2.7000 0.0000
13 11 6 4.1816 0.0000
13 13 0 -1.9061 0.0000
13 13 1 -7.4284 0.0000
13 13 2 1.6100 0.0000
13 13 3 0.9030 0.0000
14 0 0 10.8986 0.0000
14 0 2 2.5588 0.0000
14 0 4 16.0600 0.0000
14 0 6 -2.4183 0.0000
14 0 8 2.8185 0.0000
14 0 10 -3.1444 0.0000
14 2 0 5.5791 0.0000
14 2 1 19.1125 0.0000
14 2 2 -5.0680 0.0000
14 2 3 7.4269 0.0000
14 2 4 2.7586 0.0000
14 2 5 3.4200 0.0000
14 2 6 -0.7474 0.0000
14 2 7 2.2513 0.0000
14 2 8 -1.5428 0.0000
14 2 9 -0.5756 0.0000
14 2 10 2.4468 0.0000
14 4 0 2.4968 0.0000
14 4 1 4.8456 0.0000
14 4 2 -9.1387 0.0000
14 4 3 -0.0949 0.0000
14 4 4 -2.8358 0.0000
14 4 5 2.3029 0.0000
14 4 6 -1.4165 0.0000
14 4 7 -0.2246 0.0000
14 4 8 3.3503 0.0000
14 4 9 -2.7403 0.0000
14 6 0 3.8811 0.0000
14 6 1 -9.4183 0.0000
14 6 2 -5.0587 0.0000
14 6 3 -4.7583 0.0000
14 6 4 1.3944 0.0000
14 6 5 -0.9906 0.0000
14 6 6 1.3135 0.0000
14 6 7 -1.6618 0.0000
14 6 8 -2.4938 0.0000
14 6 9 -0.5451 0.0000
14 8 0 5.7984 0.0000
14 8 1 -1.2507 0.0000
14 8 2 0.7950 0.0000
14 8 3 -5.6967 0.0000
14 8 4 1.8423 0.0000
14 8 5 1.7790 0.0000
14 8 6 -4.7402 0.0000
14 8 7 -2.2183 0.0000
14 8 8 2.6950 0.0000
14 10 0 -1.1148 0.0000
14 10 1 0.4492 0.0000
14 10 2 -6.0965 0.0000
14 10 3 -6.7545 0.0000
14 10 4 -1.8568 0.0000
14 10 5 1.5549 0.0000
14 10 6 -8.2480 0.0000
14 12 0 -5.1977 0.0000
14 12 1 4.8412 0.0000
14 12 2 1.0367 0.0000
14 12 3 -3.5789 0.0000
14 12 4 1.5612 0.0000
15 1 0 -13.1103 0.0000
15 1 1 -10.3988 0.0000
15 1 2 -2.6705 0.0000
15 1 3 -3.2054 0.0000
15 1 4 -10.7283 0.0000
15 1 5 0.5511 0.0000
15 1 6 2.3570 0.0000
15 1 7 -3.1129 0.0000
15 1 8 -0.3859 0.0000
15 1 9 0.4166 0.0000
15 1 10 1.3989 0.0000
15 3 0 0.9030 0.0000
15 3 1 -10.9673 0.0000
15 3 2 8.9298 0.0000
15 3 3 -2.4048 0.0000
15 3 4 2.8720 0.0000
15 3 5 -3.8383 0.0000
15 3 6 2.7308 0.0000
15 3 7 -0.8315 0.0000
15 3 8 -0.1520 0.0000
15 3 9 -1.2284 0.0000
15 5 0 0.9986 0.0000
15 5 1 4.4623 0.0000
15 5 2 9.9132 0.0000
15 5 3 3.1196 0.0000
15 5 4 1.5713 0.0000
15 5 5 -0.8927 0.0000
15 5 6 -1.5099 0.0000
15 5 7 -0.3655 0.0000
15 5 8 -1.3968 0.0000
15 5 9 2.9811 0.0000
15 7 0 -5.6564 0.0000
15 7 1 4.9672 0.0000
15 7 2 1.1516 0.0000
15 7 3 2.6581 0.0000
15 7 4 -2.3829 0.0000
15 7 5 -2.1395 0.0000
15 7 6 0.9332 0.0000
15 7 7 3.4013 0.0000
15 7 8 0.3980 0.0000
15 9 0 -6.0202 0.0000
15 9 1 -1.7901 0.0000
15 9 2 3.8726 0.0000
15 9 3 8.9212 0.0000
15 9 4 0.8992 0.0000
15 9 5 -1.7136 0.0000
15 9 6 6.4861 0.0000
15 9 7 -0.0576 0.0000
15 11 0 6.5862 0.0000
15 11 1 -0.8617 0.0000
15 11 2 0.9134 0.0000
15 11 3 3.3619 0.0000
15 11 4 1.1303 0.0000
15 11 5 -2.2570 0.0000
15 13 0 1.4762 0.0000
16 0 0 18.9492 0.0000
16 0 2 6.7309 0.0000
16 0 4 13.6105 0.0000
16 0 6 -3.0866 0.0000
16 0 8 2.3633 0.0000
16 2 0 5.6703 0.0000
16 2 1 9.0290 0.0000
16 2 2 -2.8227 0.0000
16 2 3 0.8584 0.0000
16 2 4 1.6446 0.0000
16 2 5 0.4593 0.0000
16 2 6 -3.3176 0.0000
16 2 7 2.5521 0.0000
16 2 8 -1.5705 0.0000
16 2 9 1.8626 0.0000
16 4 0 -5.7011 0.0000
16 4 1 2.5407 0.0000
16 4 2 -11.9539 0.0000
16 4 3 -1.1251 0.0000
16 4 4 -3.7324 0.0000
16 4 5 2.3549 0.0000
16 4 6 -1.9873 0.0000
16 4 7 1.4948 0.0000
16 4 8 2.7906 0.0000
16 4 9 0.4300 0.0000
16 6 0 -1.9698 0.0000
16 6 1 -5.3186 0.0000
16 6 2 -6.5089 0.0000
16 6 3 -0.9405 0.0000
16 6 4 1.6584 0.0000
16 6 5 3.7374 0.0000
16 6 6 1.4445 0.0000
16 6 7 -2.7142 0.0000
16 6 8 -1.1794 0.0000
16 8 0 11.6240 0.0000
16 8 1 1.7006 0.0000
16 8 2 -0.4464 0.0000
16 8 3 -6.0855 0.0000
16 8 4 0.4962 0.0000
16 8 5 1.9366 0.0000
16 8 6 -3.4732 0.0000
16 8 7 -1.1891 0.0000
16 10 0 -1.9758 0.0000
16 10 1 0.7805 0.0000
16 10 2 -3.9529 0.0000
16 10 3 -5.2865 0.0000
16 10 4 -1.1338 0.0000
16 10 5 1.8185 0.0000
16 10 6 -5.2485 0.0000
16 12 0 -5.9905 0.0000
16 12 1 4.9656 0.0000
16 12 2 2.6915 0.0000
16 12 3 -2.0675 0.0000
17 1 0 -15.8982 0.0000
17 1 1 -4.0601 0.0000
17 1 2 -3.5083 0.0000
17 1 3 0.9723 0.0000
17 1 4 -7.8363 0.0000
17 1 5 2.9845 0.0000
17 1 6 2.8907 0.0000
17 1 7 -1.4870 0.0000
17 1 8 -1.2536 0.0000
17 1 9 -1.4538 0.0000
17 3 0 4.5357 0.0000
17 3 1 -3.8023 0.0000
17 3 2 8.0093 0.0000
17 3 3 2.3091 0.0000
17 3 4 2.7525 0.0000
17 3 5 -1.4721 0.0000
17 3 6 5.2303 0.0000
17 3 7 -1.7850 0.0000
17 3 8 -0.1420 0.0000
17 3 9 -3.0966 0.0000
17 5 0 7.9033 0.0000
17 5 1 1.9630 0.0000
17 5 2 11.6029 0.0000
17 5 3 -0.1880 0.0000
17 5 4 1.4001 0.0000
17 5 5 -3.7005 0.0000
17 5 6 -0.6669 0.0000
17 5 7 0.5476 0.0000
17 5 8 -1.1836 0.0000
17 7 0 -5.3865 0.0000
17 7 1 -2.1541 0.0000
17 7 2 0.8452 0.0000
17 7 3 0.6604 0.0000
17 7 4 -2.6249 0.0000
17 7 5 -4.0342 0.0000
17 7 6 2.5897 0.0000
17 7 7 3.0306 0.0000
17 7 8 0.2949 0.0000
17 9 0 -7.6827 0.0000
17 9 1 -1.4256 0.0000
17 9 2 2.4310 0.0000
17 9 3 7.7789 0.0000
17 9 4 0.0983 0.0000
17 9 5 -1.4638 0.0000
17 9 6 2.8216 0.0000
17 11 0 6.9506 0.0000
17 11 1 -4.7046 0.0000
17 11 2 -2.3464 0.0000
17 11 3 -0.3036 0.0000
17 11 4 0.5791 0.0000
18 0 0 19.1556 0.0000
18 0 2 5.1963 0.0000
18 0 4 9.4023 0.0000
18 0 6 -2.7308 0.0000
18 0 8 2.6970 0.0000
18 2 0 4.9530 0.0000
18 2 1 0.9009 0.0000
18 2 2 -2.3300 0.0000
18 2 3 -4.4731 0.0000
18 2 4 0.6615 0.0000
18 2 5 -2.8687 0.0000
18 2 6 -3.9016 0.0000
18 2 7 0.2991 0.0000
18 2 8 0.3846 0.0000
18 2 9 2.4887 0.0000
18 4 0 -9.3420 0.0000
18 4 1 0.9379 0.0000
18 4 2 -10.8972 0.0000
18 4 3 -1.6962 0.0000
18 4 4 -2.3555 0.0000
18 4 5 1.5014 0.0000
18 4 6 -4.0740 0.0000
18 4 7 1.2199 0.0000
18 4 8 1.2264 0.0000
18 6 0 -5.2964 0.0000
18 6 1 1.8822 0.0000
18 6 2 -5.1620 0.0000
18 6 3 3.8469 0.0000
18 6 4 1.5208 0.0000
18 6 5 6.1867 0.0000
18 6 6 -1.4345 0.0000
18 6 7 -4.2892 0.0000
18 6 8 -0.6264 0.0000
18 8 0 11.8417 0.0000
18 8 1 4.8278 0.0000
18 8 2 0.1493 0.0000
18 8 3 -4.9138 0.0000
18 8 4 1.2264 0.0000
18 8 5 1.7951 0.0000
18 8 6 -2.8411 0.0000
18 8 7 0.2035 0.0000
18 10 0 -2.7794 0.0000
18 10 1 2.8697 0.0000
18 10 2 1.9725 0.0000
18 10 3 -1.9741 0.0000
18 10 4 1.0176 0.0000
18 10 5 1.1600 0.0000
18 12 0 -4.5273 0.0000
18 12 1 5.8972 0.0000
19 1 0 -13.4816 0.0000
19 1 1 0.4051 0.0000
19 1 2 -1.2589 0.0000
19 1 3 4.1411 0.0000
19 1 4 -4.4685 0.0000
19 1 5 5.1283 0.0000
19 1 6 2.1314 0.0000
19 1 7 0.8318 0.0000
19 1 8 -1.9718 0.0000
19 1 9 -1.8181 0.0000
19 3 0 4.9348 0.0000
19 3 1 1.8018 0.0000
19 3 2 5.4878 0.0000
19 3 3 5.9448 0.0000
19 3 4 0.9495 0.0000
19 3 5 1.4176 0.0000
19 3 6 5.8467 0.0000
19 3 7 0.3453 0.0000
19 3 8 -0.4709 0.0000
19 5 0 9.1436 0.0000
19 5 1 -1.6608 0.0000
19 5 2 8.8658 0.0000
19 5 3 -3.7731 0.0000
19 5 4 0.6382 0.0000
19 5 5 -3.3599 0.0000
19 5 6 2.0335 0.0000
19 5 7 2.4686 0.0000
19 5 8 0.2251 0.0000
19 7 0 -3.9732 0.0000
19 7 1 -8.9262 0.0000
19 7 2 -0.5230 0.0000
19 7 3 -2.6091 0.0000
19 7 4 -1.5906 0.0000
19 7 5 -4.6451 0.0000
19 7 6 4.4441 0.0000
19 7 7 2.3036 0.0000
19 9 0 -5.7315 0.0000
19 9 1 -0.9150 0.0000
19 9 2 -2.1500 0.0000
19 9 3 4.9864 0.0000
19 9 4 -1.9836 0.0000
19 9 5 -0.9628 0.0000
19 11 0 5.2534 0.0000
19 11 1 -8.1193 0.0000
19 11 2 -5.1890 0.0000
19 11 3 -2.1722 0.0000
20 0 0 13.7144 0.0000
20 0 2 1.2002 0.0000
20 0 4 4.5081 0.0000
20 0 6 -2.1696 0.0000
20 0 8 1.5980 0.0000
20 2 0 3.6895 0.0000
20 2 1 -4.7223 0.0000
20 2 2 -2.4863 0.0000
20 2 3 -7.8162 0.0000
20 2 4 0.5159 0.0000
20 2 5 -4.9162 0.0000
20 2 6 -2.4808 0.0000
20 2 7 -2.5865 0.0000
20 2 8 0.9954 0.0000
20 4 0 -7.5137 0.0000
20 4 1 -0.7721 0.0000
20 4 2 -6.0382 0.0000
20 4 3 -2.2849 0.0000
20 4 4 0.2532 0.0000
20 4 5 -1.3762 0.0000
20 4 6 -5.2067 0.0000
20 4 7 -1.0429 0.0000
20 4 8 -0.3034 0.0000
20 6 0 -3.4670 0.0000
20 6 1 8.0106 0.0000
20 6 2 -1.9414 0.0000
20 6 3 8.4302 0.0000
20 6 4 0.1530 0.0000
20 6 5 5.2063 0.0000
20 6 6 -3.2267 0.0000
20 6 7 -4.5098 0.0000
20 8 0 7.9057 0.0000
20 8 1 6.0117 0.0000
20 8 2 0.9163 0.0000
20 8 3 -1.9079 0.0000
20 8 4 0.6908 0.0000
20 8 5 1.9958 0.0000
20 8 6 -2.2663 0.0000
20 10 0 -2.0149 0.0000
20 10 1 3.3444 0.0000
20 10 2 7.9841 0.0000
20 10 3 -0.7199 0.0000
20 10 4 2.4550 0.0000
21 1 0 -7.9245 0.0000
21 1 1 3.5359 0.0000
21 1 2 2.3002 0.0000
21 1 3 5.5653 0.0000
21 1 4 -1.3043 0.0000
21 1 5 4.8378 0.0000
21 1 6 0.8238 0.0000
21 1 7 1.7330 0.0000
21 1 8 -0.6166 0.0000
21 3 0 2.1155 0.0000
21 3 1 6.1481 0.0000
21 3 2 1.9764 0.0000
21 3 3 7.4933 0.0000
21 3 4 -1.2696 0.0000
21 3 5 3.3110 0.0000
21 3 6 4.7178 0.0000
21 3 7 2.7521 0.0000
21 3 8 0.1099 0.0000
21 5 0 3.9537 0.0000
21 5 1 -3.4740 0.0000
21 5 2 2.8645 0.0000
21 5 3 -5.3413 0.0000
21 5 4 -0.5715 0.0000
21 5 5 -0.1604 0.0000
21 5 6 2.6766 0.0000
21 5 7 2.9594 0.0000
21 7 0 -3.4914 0.0000
21 7 1 -11.5961 0.0000
21 7 2 -0.4958 0.0000
21 7 3 -5.8689 0.0000
21 7 4 1.1433 0.0000
21 7 5 -3.7812 0.0000
21 7 6 3.4910 0.0000
21 9 0 -3.1836 0.0000
21 9 1 0.4355 0.0000
21 9 2 -4.6269 0.0000
21 9 3 2.0972 0.0000
21 9 4 -1.8772 0.0000
22 0 0 5.4867 0.0000
22 0 2 -4.1121 0.0000
22 0 4 0.3132 0.0000
22 0 6 -0.7495 0.0000
22 2 0 2.6065 0.0000
22 2 1 -7.8347 0.0000
22 2 2 -2.9669 0.0000
22 2 3 -7.5588 0.0000
22 2 4 0.6736 0.0000
22 2 5 -3.3958 0.0000
22 2 6 -0.6611 0.0000
22 2 7 -3.1714 0.0000
22 4 0 -1.0371 0.0000
22 4 1 -3.0702 0.0000
22 4 2 0.3704 0.0000
22 4 3 -2.6997 0.0000
22 4 4 2.3173 0.0000
22 4 5 -3.5528 0.0000
22 4 6 -4.4023 0.0000
22 4 7 -1.6601 0.0000
22 6 0 2.4224 0.0000
22 6 1 9.4341 0.0000
22 6 2 1.1252 0.0000
22 6 3 9.5176 0.0000
22 6 4 -0.6875 0.0000
22 6 5 2.1367 0.0000
22 6 6 -1.5093 0.0000
22 8 0 3.5746 0.0000
22 8 1 4.8083 0.0000
22 8 2 -1.4726 0.0000
22 8 3 1.1015 0.0000
22 8 4 -1.5989 0.0000
22 8 5 2.0280 0.0000
22 10 0 0.4267 0.0000
22 10 1 1.1236 0.0000
22 10 2 9.0735 0.0000
23 1 0 -1.4418 0.0000
23 1 1 4.8213 0.0000
23 1 2 5.9605 0.0000
23 1 3 4.1145 0.0000
23 1 4 0.3219 0.0000
23 1 5 1.7840 0.0000
23 1 6 -1.1900 0.0000
23 1 7 1.0591 0.0000
23 3 0 -2.9440 0.0000
23 3 1 7.5929 0.0000
23 3 2 -0.8233 0.0000
23 3 3 5.6391 0.0000
23 3 4 -2.0674 0.0000
23 3 5 2.0628 0.0000
23 3 6 3.1998 0.0000
23 3 7 2.4340 0.0000
23 5 0 -3.9214 0.0000
23 5 1 -2.3981 0.0000
23 5 2 -3.2196 0.0000
23 5 3 -4.0225 0.0000
23 5 4 -1.7753 0.0000
23 5 5 1.9016 0.0000
23 5 6 1.1020 0.0000
23 7 0 -4.0965 0.0000
23 7 1 -9.0489 0.0000
23 7 2 1.5470 0.0000
23 7 3 -5.8676 0.0000
23 7 4 2.9178 0.0000
23 7 5 -1.7250 0.0000
23 9 0 -1.8368 0.0000
23 9 1 1.5317 0.0000
23 9 2 -1.9009 0.0000
24 0 0 -2.3285 0.0000
24 0 2 -8.3613 0.0000
24 0 4 -0.7340 0.0000
24 0 6 2.0926 0.0000
24 2 0 2.1620 0.0000
24 2 1 -6.3738 0.0000
24 2 2 -3.0911 0.0000
24 2 3 -3.5364 0.0000
24 2 4 0.9495 0.0000
24 2 5 0.4723 0.0000
24 2 6 0.7662 0.0000
24 4 0 6.1903 0.0000
24 4 1 -3.9236 0.0000
24 4 2 4.5037 0.0000
24 4 3 -1.9627 0.0000
24 4 4 2.1801 0.0000
24 4 5 -2.2958 0.0000
24 4 6 -2.8298 0.0000
24 6 0 7.4609 0.0000
24 6 1 6.0095 0.0000
24 6 2 2.7439 0.0000
24 6 3 6.0991 0.0000
24 6 4 -0.2489 0.0000
24 6 5 0.0115 0.0000
24 8 0 0.7633 0.0000
24 8 1 2.2770 0.0000
24 8 2 -5.2880 0.0000
24 8 3 1.7717 0.0000
25 1 0 3.1154 0.0000
25 1 1 3.0400 0.0000
25 1 2 6.8632 0.0000
25 1 3 0.6864 0.0000
25 1 4 -0.4326 0.0000
25 1 5 -1.2473 0.0000
25 1 6 -3.1831 0.0000
25 3 0 -7.4854 0.0000
25 3 1 4.0210 0.0000
25 3 2 -1.6080 0.0000
25 3 3 1.7543 0.0000
25 3 4 -1.0780 0.0000
25 3 5 -0.7435 0.0000
25 3 6 1.9182 0.0000
25 5 0 -8.3721 0.0000
25 5 1 -0.3171 0.0000
25 5 2 -5.7980 0.0000
25 5 3 -1.5413 0.0000
25 5 4 -1.6486 0.0000
25 5 5 0.7251 0.0000
25 7 0 -4.0326 0.0000
25 7 1 -3.3313 0.0000
25 7 2 3.0393 0.0000
25 7 3 -2.3959 0.0000
26 0 0 -5.7028 0.0000
26 0 2 -7.9286 0.0000
26 0 4 0.8583 0.0000
26 2 0 2.4135 0.0000
26 2 1 -0.4905 0.0000
26 2 2 -1.6941 0.0000
26 2 3 0.6921 0.0000
26 2 4 1.0263 0.0000
26 2 5 2.6410 0.0000
26 4 0 9.0704 0.0000
26 4 1 -1.9303 0.0000
26 4 2 4.0470 0.0000
26 4 3 -0.6862 0.0000
26 4 4 0.2622 0.0000
26 4 5 0.4625 0.0000
26 6 0 7.5742 0.0000
26 6 1 1.1461 0.0000
26 6 2 2.5522 0.0000
26 6 3 1.4689 0.0000
27 1 0 3.3401 0.0000
27 1 1 -0.4005 0.0000
27 1 2 3.6072 0.0000
27 1 3 -1.8915 0.0000
27 1 4 -1.3410 0.0000
27 1 5 -1.8735 0.0000
27 3 0 -8.3611 0.0000
27 3 1 -1.9515 0.0000
27 3 2 -0.6212 0.0000
27 3 3 -0.3029 0.0000
27 3 4 0.4939 0.0000
27 5 0 -6.3079 0.0000
27 5 1 0.4371 0.0000
27 5 2 -4.0446 0.0000
27 5 3 0.1349 0.0000
28 0 0 -3.1655 0.0000
28 0 2 -3.4357 0.0000
28 0 4 1.3178 0.0000
28 2 0 2.6297 0.0000
28 2 1 4.5943 0.0000
28 2 2 0.5620 0.0000
28 2 3 1.6511 0.0000
28 2 4 0.0699 0.0000
28 4 0 5.8400 0.0000
28 4 1 0.8642 0.0000
28 4 2 0.7911 0.0000
29 1 0 0.4535 0.0000
29 1 1 -1.9914 0.0000
29 1 2 -0.5134 0.0000
29 1 3 -2.2714 0.0000
29 3 0 -5.0599 0.0000
29 3 1 -4.6084 0.0000
29 3 2 0.7860 0.0000
30 0 0 1.2145 0.0000
30 2 0 1.7679 0.0000
0 0 0 0.0 0.0
;
_olex2_submission_special_instructions 'No special instructions were received'
loop_
_space_group_symop_operation_xyz
'x, y, z'
'-x, y, -z+1/2'
'x+1/2, y+1/2, z'
'-x+1/2, y+1/2, -z+1/2'
'-x, -y, -z'
'x, -y, z-1/2'
'-x+1/2, -y+1/2, -z'
'x+1/2, -y+1/2, z-1/2'
loop_
_atom_site_label
_atom_site_type_symbol
_atom_site_fract_x
_atom_site_fract_y
_atom_site_fract_z
_atom_site_U_iso_or_equiv
_atom_site_adp_type
_atom_site_occupancy
_atom_site_site_symmetry_order
_atom_site_calc_flag
_atom_site_refinement_flags_posn
Cu1 Cu 0.70537(2) 0.27285(4) 0.92040(5) 0.01462(14) Uani 1 1 d .
O1 O 0.66248(10) 0.2743(2) 1.1024(3) 0.0243(6) Uani 1 1 d .
O3 O 0.75997(10) 0.2501(2) 0.7633(3) 0.0225(7) Uani 1 1 d .
O4 O 0.73519(11) 0.4267(2) 0.9540(3) 0.0215(7) Uani 1 1 d .
N1 N 0.64017(12) 0.3307(3) 0.7738(3) 0.0152(7) Uani 1 1 d .
C1 C 0.68753(16) 0.2580(3) 1.2226(4) 0.0166(9) Uani 1 1 d .
O2 O 0.68734(11) 0.1102(2) 0.9138(3) 0.0240(7) Uani 1 1 d .
C6 C 0.59780(15) 0.2661(3) 0.7284(4) 0.0184(9) Uani 1 1 d .
H6 H 0.595096 0.191515 0.766378 0.022 Uiso 1 1 calc R
C5 C 0.72096(16) 0.0425(3) 0.9793(4) 0.0160(9) Uani 1 1 d .
C8 C 0.56141(15) 0.4083(3) 0.5715(4) 0.0144(9) Uani 1 1 d .
C7 C 0.55725(16) 0.3007(3) 0.6291(4) 0.0196(9) Uani 1 1 d .
H7 H 0.527320 0.251606 0.601287 0.024 Uiso 1 1 calc R
C2 C 0.65212(16) 0.2411(3) 1.3554(4) 0.0190(9) Uani 1 1 d .
H2A H 0.612770 0.264473 1.334916 0.023 Uiso 1 1 calc R
H2B H 0.666892 0.288556 1.435563 0.023 Uiso 1 1 calc R
C10 C 0.64437(16) 0.4340(3) 0.7151(4) 0.0182(9) Uani 1 1 d .
H10 H 0.674978 0.480815 0.744337 0.022 Uiso 1 1 calc R
C4 C 0.70860(17) -0.0818(3) 0.9735(4) 0.0211(10) Uani 1 1 d .
H4A H 0.708237 -0.111189 1.073849 0.025 Uiso 1 1 calc R
H4B H 0.739955 -0.119749 0.922641 0.025 Uiso 1 1 calc R
C9 C 0.60619(15) 0.4763(3) 0.6134(4) 0.0173(9) Uani 1 1 d .
H9 H 0.610773 0.549977 0.573796 0.021 Uiso 1 1 calc R
C3 C 0.65356(16) 0.1159(3) 1.3997(4) 0.0191(9) Uani 1 1 d .
H3A H 0.621954 0.100700 1.466251 0.023 Uiso 1 1 calc R
H3B H 0.647914 0.068462 1.312412 0.023 Uiso 1 1 calc R
C11 C 0.51800(16) 0.4544(3) 0.4639(4) 0.0197(9) Uani 1 1 d .
H11A H 0.493513 0.391986 0.429217 0.024 Uiso 1 1 calc R
H11B H 0.537502 0.487176 0.379296 0.024 Uiso 1 1 calc R
loop_
_atom_site_aniso_label
_atom_site_aniso_U_11
_atom_site_aniso_U_22
_atom_site_aniso_U_33
_atom_site_aniso_U_23
_atom_site_aniso_U_13
_atom_site_aniso_U_12
Cu1 0.0152(2) 0.0135(2) 0.0151(2) 0.0015(2) -0.00273(17) 0.0021(2)
O1 0.0201(15) 0.0342(17) 0.0187(14) 0.0083(14) 0.0016(12) 0.0063(14)
O3 0.0168(14) 0.036(2) 0.0147(14) -0.0040(12) 0.0001(11) 0.0017(12)
O4 0.0248(17) 0.0157(16) 0.0239(16) -0.0006(12) -0.0126(13) 0.0014(12)
N1 0.0169(18) 0.0144(18) 0.0144(17) 0.0018(14) -0.0018(14) 0.0024(14)
C1 0.020(2) 0.007(2) 0.023(2) -0.0004(16) -0.0009(17) 0.0025(16)
O2 0.0253(16) 0.0121(15) 0.0344(18) 0.0010(13) -0.0125(14) -0.0025(12)
C6 0.021(2) 0.017(2) 0.018(2) 0.0034(18) 0.0018(17) -0.0017(18)
C5 0.018(2) 0.019(2) 0.011(2) -0.0004(17) 0.0032(17) -0.0002(18)
C8 0.013(2) 0.022(2) 0.0080(19) -0.0021(16) -0.0009(16) 0.0074(17)
C7 0.015(2) 0.023(3) 0.021(2) -0.0001(18) 0.0010(17) -0.0035(17)
C2 0.018(2) 0.021(3) 0.018(2) 0.0021(17) 0.0046(16) 0.0045(17)
C10 0.016(2) 0.019(2) 0.020(2) 0.0010(18) -0.0028(17) 0.0009(17)
C4 0.030(2) 0.010(2) 0.023(2) 0.0010(17) -0.0084(19) 0.0000(17)
C9 0.021(2) 0.014(2) 0.018(2) 0.0016(17) -0.0038(17) 0.0030(17)
C3 0.020(2) 0.017(2) 0.020(2) 0.0049(18) -0.0021(17) -0.0007(17)
C11 0.019(2) 0.027(3) 0.013(2) 0.0002(18) -0.0027(17) 0.0077(18)
loop_
_atom_type_symbol
_atom_type_description
_atom_type_scat_dispersion_real
_atom_type_scat_dispersion_imag
_atom_type_scat_source
C C 0.0033 0.0016 'International Tables Vol C Tables 4.2.6.8 and 6.1.1.4'
H H 0.0000 0.0000 'International Tables Vol C Tables 4.2.6.8 and 6.1.1.4'
Cu Cu 0.3201 1.2651 'International Tables Vol C Tables 4.2.6.8 and 6.1.1.4'
N N 0.0061 0.0033 'International Tables Vol C Tables 4.2.6.8 and 6.1.1.4'
O O 0.0106 0.0060 'International Tables Vol C Tables 4.2.6.8 and 6.1.1.4'
loop_
_geom_angle_atom_site_label_1
_geom_angle_atom_site_label_2
_geom_angle_atom_site_label_3
_geom_angle
_geom_angle_site_symmetry_1
_geom_angle_site_symmetry_3
O1 Cu1 Cu1 86.77(8) . 7_657
O1 Cu1 N1 99.22(11) . .
O3 Cu1 Cu1 81.54(8) . 7_657
O3 Cu1 O1 167.25(11) . .
O3 Cu1 O4 90.23(11) . .
O3 Cu1 N1 93.02(11) . .
O4 Cu1 Cu1 79.30(8) . 7_657
O4 Cu1 O1 92.57(12) . .
O4 Cu1 N1 93.53(11) . .
N1 Cu1 Cu1 170.92(9) . 7_657
O2 Cu1 Cu1 89.49(8) . 7_657
O2 Cu1 O1 85.50(12) . .
O2 Cu1 O3 89.34(11) . .
O2 Cu1 O4 168.73(10) . .
O2 Cu1 N1 97.74(11) . .
C1 O1 Cu1 120.2(2) . .
C1 O3 Cu1 126.2(3) 7_657 .
C5 O4 Cu1 129.5(2) 7_657 .
C6 N1 Cu1 123.6(3) . .
C6 N1 C10 117.0(3) . .
C10 N1 Cu1 119.2(2) . .
O1 C1 C2 118.2(3) . .
O3 C1 O1 124.0(4) 7_657 .
O3 C1 C2 117.7(3) 7_657 .
C5 O2 Cu1 117.4(2) . .
N1 C6 H6 118.0 . .
N1 C6 C7 124.1(4) . .
C7 C6 H6 118.0 . .
O4 C5 O2 124.2(4) 7_657 .
O4 C5 C4 117.5(3) 7_657 .
O2 C5 C4 118.3(3) . .
C7 C8 C9 118.8(3) . .
C7 C8 C11 122.0(3) . .
C9 C8 C11 119.2(4) . .
C6 C7 H7 120.8 . .
C8 C7 C6 118.3(4) . .
C8 C7 H7 120.8 . .
C1 C2 H2A 109.8 . .
C1 C2 H2B 109.8 . .
C1 C2 C3 109.5(3) . .
H2A C2 H2B 108.2 . .
C3 C2 H2A 109.8 . .
C3 C2 H2B 109.8 . .
N1 C10 H10 118.3 . .
N1 C10 C9 123.4(4) . .
C9 C10 H10 118.3 . .
C5 C4 H4A 108.2 . .
C5 C4 H4B 108.2 . .
C5 C4 C3 116.3(3) . 6
H4A C4 H4B 107.4 . .
C3 C4 H4A 108.2 6 .
C3 C4 H4B 108.2 6 .
C8 C9 C10 118.3(4) . .
C8 C9 H9 120.8 . .
C10 C9 H9 120.8 . .
C2 C3 H3A 109.0 . .
C2 C3 H3B 109.0 . .
C4 C3 C2 113.1(3) 6_556 .
C4 C3 H3A 109.0 6_556 .
C4 C3 H3B 109.0 6_556 .
H3A C3 H3B 107.8 . .
C8 C11 C11 110.1(4) . 5_666
C8 C11 H11A 109.6 . .
C8 C11 H11B 109.6 . .
C11 C11 H11A 109.6 5_666 .
C11 C11 H11B 109.6 5_666 .
H11A C11 H11B 108.2 . .
loop_
_geom_bond_atom_site_label_1
_geom_bond_atom_site_label_2
_geom_bond_distance
_geom_bond_site_symmetry_2
Cu1 Cu1 2.6239(11) 7_657
Cu1 O1 1.972(3) .
Cu1 O3 1.972(3) .
Cu1 O4 1.972(3) .
Cu1 N1 2.158(3) .
Cu1 O2 1.968(3) .
O1 C1 1.270(4) .
O3 C1 1.255(4) 7_657
O4 C5 1.258(4) 7_657
N1 C6 1.327(5) .
N1 C10 1.337(5) .
C1 C2 1.506(5) .
O2 C5 1.277(4) .
C6 H6 0.9500 .
C6 C7 1.385(5) .
C5 C4 1.497(5) .
C8 C7 1.381(5) .
C8 C9 1.384(5) .
C8 C11 1.526(5) .
C7 H7 0.9500 .
C2 H2A 0.9900 .
C2 H2B 0.9900 .
C2 C3 1.533(5) .
C10 H10 0.9500 .
C10 C9 1.392(5) .
C4 H4A 0.9900 .
C4 H4B 0.9900 .
C4 C3 1.522(5) 6
C9 H9 0.9500 .
C3 H3A 0.9900 .
C3 H3B 0.9900 .
C11 C11 1.530(7) 5_666
C11 H11A 0.9900 .
C11 H11B 0.9900 .
loop_
_geom_torsion_atom_site_label_1
_geom_torsion_atom_site_label_2
_geom_torsion_atom_site_label_3
_geom_torsion_atom_site_label_4
_geom_torsion
_geom_torsion_site_symmetry_1
_geom_torsion_site_symmetry_4
Cu1 O1 C1 O3 6.3(5) . 7_657
Cu1 O1 C1 C2 -170.3(2) . .
Cu1 N1 C6 C7 -176.8(3) . .
Cu1 N1 C10 C9 176.3(3) . .
Cu1 O2 C5 O4 -0.7(5) . 7_657
Cu1 O2 C5 C4 -178.9(3) . .
O1 C1 C2 C3 106.2(4) . .
O3 C1 C2 C3 -70.7(4) 7_657 .
O4 C5 C4 C3 176.6(3) 7_657 6
N1 C6 C7 C8 1.1(6) . .
N1 C10 C9 C8 0.4(6) . .
C1 C2 C3 C4 75.8(4) . 6_556
O2 C5 C4 C3 -5.1(5) . 6
C6 N1 C10 C9 1.6(5) . .
C7 C8 C9 C10 -1.7(5) . .
C7 C8 C11 C11 108.6(5) . 5_666
C10 N1 C6 C7 -2.4(5) . .
C9 C8 C7 C6 1.0(5) . .
C9 C8 C11 C11 -71.0(5) . 5_666
C11 C8 C7 C6 -178.7(3) . .
C11 C8 C9 C10 178.0(3) . .
loop_
_refln_index_h
_refln_index_k
_refln_index_l
_refln_F_squared_meas
_refln_F_squared_sigma
-2 0 0 426.05 1.99
-2 0 0 412.32 2.23
-4 0 0 37.52 1.09
-4 0 0 38.05 0.97
-6 0 0 28.84 1.15
-6 0 0 26.71 1.21
-8 0 0 56.99 1.67
-8 0 0 57.29 1.83
-10 0 0 13.46 1.28
-10 0 0 13.53 1.15
-12 0 0 50.07 1.88
-12 0 0 51.07 2.14
-14 0 0 63.45 2.24
-14 0 0 64.32 2.57
-16 0 0 2.31 1.06
-16 0 0 3.9 1.02
-18 0 0 0.39 1.02
-18 0 0 -0.09 0.86
-20 0 0 88.43 3.16
-20 0 0 89.75 3.64
-22 0 0 40.62 2.99
-24 0 0 0.89 1.58
-26 0 0 9.73 2.29
-28 0 0 0.94 1.8
-30 0 0 2.87 2.28
-1 -1 0 11.87 0.49
-1 1 0 11.71 0.48
-3 -1 0 0.34 0.35
3 -1 0 0.14 0.31
-3 -1 0 0.47 0.28
-3 1 0 0.05 0.34
-5 -1 0 45.39 1.19
-5 -1 0 46.3 1.36
5 -1 0 47.58 1.36
-5 1 0 43.2 1.41
-7 -1 0 10.95 0.96
-7 -1 0 9.5 0.94
-7 1 0 9.42 1.07
-9 -1 0 4.69 0.85
-9 -1 0 4.08 0.85
-9 1 0 4.87 0.91
-11 -1 0 5.75 0.92
-11 -1 0 6.85 1.04
-11 1 0 5.37 1.05
-13 -1 0 2.22 0.85
-13 -1 0 1.09 0.76
-13 1 0 1.24 0.81
-13 1 0 0.3 0.65
-15 -1 0 0.52 0.8
-15 -1 0 0.81 0.89
-15 1 0 0.76 0.78
-15 1 0 1 0.91
-17 -1 0 -1.84 0.76
-17 -1 0 0.1 0.91
-17 1 0 -0.37 0.76
-17 1 0 -0.15 0.84
-19 -1 0 1.51 1.1
-19 -1 0 0.28 0.95
-19 1 0 2.02 1.19
-21 -1 0 1.17 1.13
-21 -1 0 2.23 1.27
-21 1 0 0.23 1.12
-23 -1 0 5.47 1.54
-23 -1 0 9.29 1.96
-23 1 0 10.24 2.04
-25 -1 0 1.71 1.55
-25 1 0 0.82 1.65
-27 -1 0 3.26 1.84
-27 1 0 1.31 1.81
-29 1 0 2.94 2.23
0 2 0 234.69 2.12
2 -2 0 280.64 2.76
-2 -2 0 276.82 2.69
-2 2 0 275.76 2.72
4 -2 0 7.67 0.76
-4 -2 0 7.15 0.76
-4 2 0 6.69 0.84
-6 -2 0 6.4 0.85
-6 -2 0 5.85 0.68
6 -2 0 7.59 0.86
-6 2 0 5.26 0.87
8 -2 0 106.08 2.45
-8 -2 0 107.33 2.52
-8 -2 0 109.56 2.14
-8 2 0 106 2.67
-10 -2 0 19.52 1.48
-10 -2 0 17.86 1.2
-10 2 0 17.31 1.44
-12 -2 0 20.92 1.61
-12 -2 0 24.74 1.51
-12 2 0 25.44 1.8
-14 -2 0 13.45 1.49
-14 -2 0 13.48 1.48
-14 2 0 13.46 1.72
-16 -2 0 1.3 1.02
-16 -2 0 1.86 1.01
-16 2 0 2.36 1.16
-18 -2 0 12.83 1.74
-18 -2 0 12.58 1.75
-18 2 0 14.97 2.11
-20 -2 0 50.63 2.82
-20 -2 0 55.11 2.92
-20 2 0 43.28 3.01
-22 -2 0 35.72 2.62
-22 -2 0 34.47 2.62
-22 2 0 34.79 3.29
-24 -2 0 24.06 2.49
-24 -2 0 24.66 2.72
-24 2 0 26.21 3.17
-26 2 0 3.06 1.82
-28 2 0 3.51 2.07
-30 2 0 5.02 2.52
-1 -3 0 1.45 0.55
1 3 0 1.23 0.49
-1 3 0 1.44 0.52
3 -3 0 12.79 0.97
-3 -3 0 14.69 1.06
-3 3 0 12.89 1.07
-5 -3 0 41.99 1.59
5 -3 0 41.79 1.48
-5 3 0 38.77 1.59
-7 -3 0 11.18 0.84
-7 -3 0 11.28 1.15
7 -3 0 12.4 1.16
-7 3 0 10.71 1.22
-9 -3 0 6.66 1.06
9 -3 0 5.21 0.92
-9 -3 0 6.26 0.81
-9 3 0 3.61 0.96
-11 -3 0 6.56 0.96
-11 -3 0 4.44 1.01
11 -3 0 4.02 0.94
-11 3 0 5.51 1.18
-13 -3 0 -0.08 0.73
-13 -3 0 0.12 0.69
-13 3 0 -0.57 0.83
-15 -3 0 24.11 1.97
-15 -3 0 23.69 1.68
-15 3 0 22.95 2.33
-17 -3 0 9.84 1.46
-17 -3 0 8.48 1.46
-17 3 0 9.43 1.82
-19 -3 0 6.26 1.54
-19 -3 0 7.69 1.55
-19 3 0 7.32 1.66
-21 -3 0 1.16 1.37
-21 -3 0 0.87 1.27
-21 3 0 0.94 1.51
-23 -3 0 2.54 1.47
-23 3 0 3.31 1.54
-25 -3 0 0.15 1.39
-25 3 0 1.29 1.41
-27 3 0 1.18 1.92
-29 3 0 1.12 2.2
0 4 0 244.25 3.09
-2 -4 0 93.25 2.16
-2 4 0 95.57 2.19
-4 -4 0 18.64 1.29
4 -4 0 21.54 1.31
-4 4 0 19.93 1.33
-6 -4 0 1.82 0.77
6 -4 0 0.54 0.64
-6 4 0 3.01 0.89
-8 -4 0 -0.87 0.61
8 -4 0 0.79 0.67
-8 4 0 1.27 0.77
-10 -4 0 97.7 2.97
10 -4 0 101.92 2.84
-10 4 0 100.62 3.12
-12 -4 0 11.79 1.17
12 -4 0 10.96 1.43
-12 -4 0 9.86 1.41
-12 4 0 13.33 1.69
-14 -4 0 3.28 1.11
-14 -4 0 3.69 0.94
14 -4 0 2.14 1.01
-14 4 0 1.24 0.99
-16 -4 0 17.95 1.69
-16 -4 0 18.42 1.96
-16 4 0 16.9 2.09
-18 -4 0 2.21 1.04
-18 -4 0 0.74 1.05
-18 4 0 2.54 1.26
-20 -4 0 13.88 2.06
-20 4 0 20.61 2.62
-22 -4 0 26.66 2.73
-22 4 0 37.22 3.59
-24 -4 0 14.99 2.34
-24 4 0 15.76 2.79
-26 -4 0 0.11 1.63
-26 4 0 4.24 2.12
-28 4 0 -1.59 2.13
-1 -5 0 68.05 1.98
1 5 0 68.67 1.87
-1 5 0 68.34 2.06
-3 -5 0 176.47 3.26
-3 5 0 167.67 3.24
-5 -5 0 61.53 2.21
5 -5 0 67.52 2.29
-5 5 0 64.51 2.27
-7 -5 0 49.26 2.14
7 -5 0 53.17 2.12
-7 5 0 51.65 2.29
9 -5 0 0 0.75
-9 -5 0 0.09 0.78
-9 5 0 -0.07 0.74
11 -5 0 0.9 0.85
-11 -5 0 1.01 0.92
-11 5 0 2.85 1.15
-13 -5 0 34.8 2.31
13 -5 0 34.26 2.17
-13 5 0 34.05 2.34
15 -5 0 20.56 2.09
-15 -5 0 16.13 1.94
-15 5 0 18.57 2.21
-17 -5 0 26.56 2.51
-17 5 0 25.64 2.69
-19 -5 0 27.02 2.6
-19 5 0 22.76 2.58
-21 -5 0 0.09 1.45
-21 5 0 0.47 1.51
-23 -5 0 1.47 1.68
-23 5 0 0.26 1.62
-25 -5 0 1.23 1.68
-25 5 0 3.01 2.08
-27 -5 0 6.05 2.09
-27 5 0 8.03 2.64
0 -6 0 369 4.56
0 6 0 374.89 4.69
-2 -6 0 181.81 3.47
-2 6 0 184.77 3.57
-4 -6 0 28.43 1.75
4 -6 0 27.95 1.82
-4 6 0 31.76 1.78
-6 -6 0 0.18 0.73
6 -6 0 -1.13 0.65
-6 6 0 -0.09 0.66
-8 -6 0 31.57 2.04
8 -6 0 32.75 1.91
-8 6 0 30.23 2.03
10 -6 0 7.48 1.38
-10 -6 0 9.29 1.39
-10 6 0 10.79 1.7
12 -6 0 9.6 1.59
-12 -6 0 8.42 1.49
-12 6 0 5.87 1.47
-14 -6 0 6.12 1.47
14 -6 0 7.08 1.44
-14 6 0 6.27 1.56
-16 -6 0 -1.21 1.07
16 -6 0 0.29 1.24
-16 6 0 1.01 1.17
-18 -6 0 2.73 1.43
-18 6 0 3.95 1.68
-20 -6 0 21.68 2.66
-20 6 0 15.26 2.57
-22 -6 0 19.15 2.69
-22 6 0 15.22 2.8
-24 -6 0 0.81 1.64
-24 6 0 1.99 2
-26 -6 0 4.58 2.21
-26 6 0 3.62 2.41
1 -7 0 40.42 1.78
-1 -7 0 41.44 1.93
-1 7 0 40.33 1.95
1 7 0 39.09 1.81
-3 -7 0 38.54 1.5
-3 -7 0 41.37 2.02
-3 7 0 36.34 1.99
-5 -7 0 71.3 2.68
5 -7 0 69.42 2.78
-5 7 0 65.09 2.63
-7 -7 0 45.17 2.37
7 -7 0 44.9 2.39
-7 7 0 50.55 2.53
9 -7 0 3.01 1.14
-9 -7 0 3.95 1.11
-9 7 0 5.67 1.34
-11 -7 0 0.77 0.95
11 -7 0 -1.82 0.9
-11 7 0 -0.04 0.97
-13 -7 0 -0.13 1.02
13 -7 0 0.24 1.19
-13 7 0 2.49 1.32
-15 -7 0 16.17 2.18
15 -7 0 15.84 2.06
-15 7 0 16.13 2.33
-17 -7 0 6.17 1.88
-17 7 0 7.39 2.12
-19 -7 0 16.43 2.56
-19 7 0 14.4 2.6
-21 -7 0 0.18 1.62
-21 7 0 0.14 1.68
-23 -7 0 5.03 2.27
-23 7 0 3.94 2.27
-25 -7 0 5.53 2.42
-25 7 0 6.75 2.6
0 -8 0 33.32 1.92
0 8 0 36.27 1.95
-2 -8 0 16.91 1.68
2 -8 0 16.05 1.48
-2 8 0 12.97 1.54
-4 -8 0 0.39 0.87
4 -8 0 0.14 0.87
-4 8 0 -1.84 0.69
6 -8 0 5.46 1.27
-6 -8 0 5.78 1.28
-6 8 0 5.92 1.29
8 -8 0 15.89 1.92
-8 -8 0 13.73 1.83
-8 8 0 19.3 2.18
-10 -8 0 12.03 1.76
10 -8 0 13.9 1.88
-10 8 0 12.95 1.94
12 -8 0 -0.89 1.07
-12 -8 0 -0.47 1.06
-12 8 0 0.18 1.18
14 -8 0 4.77 1.61
-14 -8 0 1.56 1.38
-14 8 0 0.63 1.38
-16 -8 0 -0.99 1.37
-16 8 0 2.43 1.63
-18 -8 0 3.55 1.86
-18 8 0 0.84 1.56
-20 -8 0 10.71 2.47
-20 8 0 13.72 2.66
-22 -8 0 6.2 2.39
-22 8 0 2.22 2.08
-24 -8 0 2.59 2.5
-24 8 0 -0.18 2.16
1 -9 0 -0.55 0.76
-1 -9 0 0.11 0.88
-1 9 0 0.78 0.91
1 9 0 -0.09 0.86
-3 -9 0 18.31 1.94
3 -9 0 17.93 1.7
-3 9 0 18.47 1.94
-5 -9 0 30.26 2.22
5 -9 0 28.72 2.3
-5 9 0 29.8 2.34
-7 -9 0 85.59 3.5
7 -9 0 82.19 3.54
-7 9 0 83.17 3.52
9 -9 0 22.92 2.5
-9 -9 0 21.46 2.29
-9 9 0 25.41 2.66
-11 -9 0 2.89 1.44
11 -9 0 1.38 1.41
-11 9 0 4.09 1.5
-13 -9 0 13.62 2.25
13 -9 0 13.36 2.06
-13 9 0 12.86 2.38
-15 -9 0 8.42 2.07
-15 9 0 6.1 2.02
-17 -9 0 21.07 2.95
-17 9 0 15.72 2.76
-19 -9 0 29.59 3.45
-19 9 0 31.27 3.69
-21 -9 0 15.22 2.95
-21 9 0 13.14 2.92
-23 -9 0 0.68 2.33
-23 9 0 -0.87 2.06
0 -10 0 6.58 1.37
2 -10 0 7.67 1.35
-2 -10 0 5.94 1.37
-2 10 0 6.7 1.61
-4 -10 0 -0.08 1.12
4 -10 0 1.71 1.06
4 -10 0 -0.25 1
-4 10 0 0.01 1.08
6 -10 0 -1.42 0.98
-6 -10 0 -0.59 1.09
-6 10 0 -0.7 1.13
8 -10 0 9.81 1.95
-8 -10 0 11.73 2.11
-8 10 0 5.66 1.67
-10 -10 0 2.16 1.52
10 -10 0 1.34 1.2
-10 10 0 0.89 1.42
-12 -10 0 0.31 1.35
12 -10 0 -0.61 1.26
-12 10 0 -1.47 1.44
-14 -10 0 1 1.77
-14 10 0 1.74 1.72
-16 -10 0 4.96 2.07
-16 10 0 4.71 2.22
-18 -10 0 3.22 2.03
-18 10 0 1.44 2.02
-20 -10 0 0.87 2.21
-20 10 0 1.38 1.98
-22 -10 0 -0.26 2.5
-22 10 0 0.2 2.31
-1 -11 0 5.75 1.36
1 -11 0 5.73 1.32
-3 -11 0 28.79 2.55
3 -11 0 25.23 2.79
5 -11 0 46.31 3.24
-5 -11 0 52.88 3.14
-7 -11 0 25.93 2.76
7 -11 0 23.68 2.77
-7 11 0 21.06 2.61
9 -11 0 13.47 2.19
-9 -11 0 15.44 2.48
-9 11 0 12.74 2.3
-11 -11 0 4.55 1.9
11 -11 0 7.04 1.88
-11 11 0 4.22 1.85
-13 -11 0 16.63 2.71
-13 11 0 16.27 2.88
-15 -11 0 14.91 2.81
-15 11 0 10.27 2.72
-17 -11 0 35.25 3.92
-17 11 0 40.96 4.42
-19 -11 0 11.25 2.92
-19 11 0 11.91 2.89
0 -12 0 0.95 1.27
2 -12 0 1.31 1.39
-2 -12 0 -0.73 1.24
4 -12 0 1.95 1.56
-4 -12 0 -2.4 1.34
-6 -12 0 0.62 1.51
6 -12 0 0.23 1.3
-8 -12 0 3.36 1.72
8 -12 0 1.63 1.45
-10 -12 0 3.29 1.84
-10 12 0 -0.07 1.78
-12 -12 0 1.25 1.96
-12 12 0 2.39 1.93
-14 -12 0 1.67 2.2
-14 12 0 0.41 2.13
-16 -12 0 -3.49 2.03
-16 12 0 -1.62 2.09
-18 12 0 4.51 2.69
-3 -13 0 35.2 3.22
3 -13 0 32.47 3.53
5 -13 0 21.47 3.04
-5 -13 0 28.37 3.03
7 -13 0 20.84 3.18
-7 -13 0 18.99 2.71
-9 -13 0 5.52 2.26
-11 -13 0 -0.97 1.89
-13 -13 0 3.48 2.49
-15 -13 0 5.54 2.62
-15 13 0 7.64 2.85
2 -14 0 0.78 1.74
-4 -14 0 0.52 1.83
4 -14 0 1.17 1.93
-6 -14 0 2.82 1.95
6 -14 0 1.1 1.8
-8 -14 0 1.27 2.17
-10 -14 0 5.1 2.5
1 -15 0 3.5 2.35
-1 -15 0 0.75 1.96
-28 0 1 1.85 2.13
-26 0 1 0.49 1.55
-24 0 1 1.68 1.48
-22 0 1 -0.36 1.18
-22 0 1 0.61 1.3
-20 0 1 0.21 1.1
-20 0 1 -0.2 1.07
-18 0 1 0.16 1.04
-18 0 1 0.49 0.99
-16 0 1 -0.78 0.8
-16 0 1 0.25 0.85
-14 0 1 -0.52 0.67
-14 0 1 0.1 0.76
-12 0 1 1.19 0.7
-12 0 1 -0.76 0.62
-10 0 1 0.11 0.63
-10 0 1 1.11 0.69
-8 0 1 -0.79 0.56
-8 0 1 -0.04 0.55
-6 0 1 -0.06 0.47
-6 0 1 -0.22 0.54
-4 0 1 -0.08 0.36
-4 0 1 0.46 0.46
-2 0 1 -1.2 0.34
-2 0 1 -0.69 0.32
0 0 1 -0.34 0.23
0 0 1 -0.28 0.24
0 0 -1 -0.2 0.2
2 0 1 -0.4 0.39
-2 0 -1 -0.59 0.28
-4 0 -1 -0.8 0.4
-6 0 -1 0.62 0.54
-8 0 -1 -0.61 0.59
-10 0 -1 -0.98 0.55
-10 0 -1 -0.75 0.54
-12 0 -1 0.05 0.74
-12 0 -1 -0.57 0.54
-14 0 -1 -0.08 0.74
-16 0 -1 0.22 0.76
-16 0 -1 0.44 0.87
-18 0 -1 0.69 1.03
-18 0 -1 0.46 0.85
-20 0 -1 -0.73 1.05
-22 0 -1 0.02 1.25
-24 0 -1 0.24 1.37
-26 0 -1 -1.7 1.46
-28 0 -1 0.39 1.92
-30 0 -1 2.36 2.03
-29 1 1 1.42 2.29
-27 1 1 3.17 1.91
-25 -1 1 3.32 1.64
-25 1 1 3.7 1.77
-23 -1 1 11.87 1.96
-23 -1 1 12.17 2.05
-23 1 1 14.04 2.38
-21 -1 1 6.67 1.62
-21 -1 1 9.16 1.71
-21 1 1 9.3 1.82
-21 1 1 11.33 1.67
-19 -1 1 1.44 1.16
-19 -1 1 -0.94 0.89
-19 1 1 -0.36 0.94
-19 1 1 -0.46 1.05
-17 -1 1 22.66 2.13
-17 -1 1 20.11 1.96
-17 1 1 25.61 2.35
-17 1 1 25.49 1.9
-15 -1 1 63.02 2.58
-15 -1 1 65.42 2.57
-15 1 1 67.51 2.75
-15 1 1 69.7 2.5
-13 -1 1 91.78 2.8
-13 -1 1 93 2.71
-13 1 1 90.11 2.59
-13 1 1 90.98 2.91
-11 -1 1 63.04 2.25
-11 -1 1 62.04 2.05
-11 1 1 63.11 2.06
-11 1 1 63.05 2.26
-9 -1 1 16.01 1.13
-9 -1 1 16.12 1.32
-9 1 1 17.46 1.22
-9 1 1 17.06 1.28
-7 -1 1 1.82 0.72
-7 -1 1 3.79 0.66
-7 1 1 2.18 0.72
-7 1 1 3.69 0.72
-5 -1 1 3.12 0.49
-5 -1 1 2.8 0.69
-5 1 1 2.78 0.61
-5 1 1 2.16 0.65
-3 -1 1 170.12 2.22
-3 1 1 165.91 2.12
-3 1 1 169.83 2.29
-1 -1 1 348.6 2.56
-1 1 1 354.32 2.98
-1 1 1 349.21 2.79
1 -1 1 91.5 1.56
-1 -1 -1 91.66 1.4
-1 1 -1 93.91 1.31
3 -1 1 131.93 2.22
-3 -1 -1 126.82 1.84
-3 1 -1 130.73 1.96
5 -1 1 9.46 1.06
-5 -1 -1 8.28 0.79
-5 -1 -1 9.61 0.87
-5 1 -1 9.11 0.96
-7 -1 -1 147.38 2.41
7 -1 1 145.07 3.09
-7 -1 -1 144.07 2.57
-7 1 -1 143.42 2.86
-9 -1 -1 199.81 3.07
-9 -1 -1 201.92 3.37
-9 1 -1 199.79 3.69
-11 -1 -1 77.22 2.21
-11 -1 -1 76.13 2.45
-11 1 -1 74.65 2.64
-13 -1 -1 2.38 0.84
-13 -1 -1 1.12 0.74
-13 1 -1 1.99 0.97
-15 -1 -1 25.35 1.92
-15 -1 -1 23.16 1.66
-15 1 -1 22.1 2.16
-17 -1 -1 34.57 2.04
-17 -1 -1 28.22 2.21
-17 1 -1 27.79 2.22
-19 -1 -1 46.45 2.76
-19 -1 -1 47.84 2.54
-19 1 -1 46.22 2.86
-21 -1 -1 16.55 2.22
-21 -1 -1 10.72 1.63
-21 1 -1 13.74 2.12
-23 -1 -1 30.25 2.96
-23 1 -1 33.02 3.25
-25 -1 -1 23.03 2.81
-25 1 -1 26.24 3.13
-27 -1 -1 4.11 1.82
-27 1 -1 4.02 2.01
-29 -1 -1 13.28 2.72
-29 1 -1 12.03 2.87
-28 2 1 2.54 2.13
-26 -2 1 1.5 1.6
-26 2 1 3.44 1.86
-24 -2 1 9.45 1.8
-24 2 1 9.34 2.23
-22 -2 1 5.36 1.56
-22 -2 1 3.81 1.52
-22 2 1 1.77 1.52
-20 -2 1 9.17 1.61
-20 -2 1 8.18 1.64
-20 2 1 7.39 1.68
-18 -2 1 15.98 1.96
-18 -2 1 10.61 1.63
-18 2 1 15.48 1.66
-18 2 1 15.55 2.09
-16 -2 1 3.07 1.11
-16 -2 1 1.12 0.97
-16 2 1 3.07 1.1
-16 2 1 2.37 0.93
-14 -2 1 51.9 2.05
-14 -2 1 49.18 2.41
-14 2 1 51.65 2.02
-14 2 1 49.52 2.43
-12 -2 1 12.32 1.2
-12 -2 1 11.37 1.43
-12 2 1 10.15 1.08
-12 2 1 14.66 1.6
-10 -2 1 -0.71 0.68
-10 -2 1 0.32 0.49
-10 2 1 0.42 0.64
-10 2 1 0.48 0.63
-8 -2 1 7.42 0.77
-8 -2 1 4.99 0.96
-8 2 1 9.14 1.22
-8 2 1 6.88 0.92
-6 -2 1 14.06 1.2
-6 2 1 14.38 1.2
-6 2 1 14.19 1.08
-4 -2 1 228.14 3
-4 2 1 228.06 3.18
-4 2 1 229.03 2.71
-2 -2 1 4.89 0.66
-2 2 1 5.11 0.74
0 -2 1 90.45 1.43
0 2 1 94.03 1.85
-2 -2 -1 0.71 0.41
2 -2 1 0.08 0.49
-2 2 -1 1.2 0.5
-4 -2 -1 53.17 1.41
4 -2 1 51.02 1.75
-4 2 -1 53.04 1.65
6 -2 1 1.91 0.79
-6 -2 -1 2.64 0.67
-6 -2 -1 2.42 0.69
-6 2 -1 1.25 0.71
-8 -2 -1 29.79 1.4
8 -2 1 33.4 1.76
-8 -2 -1 32.08 1.49
-8 2 -1 29.38 1.66
-10 -2 -1 94.49 2.47
-10 -2 -1 95.65 2.51
10 -2 1 91.13 2.88
-10 2 -1 92.09 2.83
-12 -2 -1 1.52 0.76
-12 -2 -1 0.96 0.74
-12 2 -1 0.75 0.79
-14 -2 -1 0.43 0.78
-14 -2 -1 2.49 0.91
-14 2 -1 1.83 1.04
-16 -2 -1 9.61 1.36
-16 -2 -1 10.82 1.53
-16 2 -1 10.36 1.62
-18 -2 -1 7.66 1.4
-18 -2 -1 8.14 1.55
-18 2 -1 6.53 1.57
-20 -2 -1 4.38 1.47
-20 -2 -1 3.88 1.36
-20 2 -1 4.09 1.45
-22 -2 -1 1.29 1.32
-22 -2 -1 1.07 1.31
-22 2 -1 -0.79 1.29
-24 -2 -1 5.85 1.74
-24 2 -1 2.06 1.6
-26 -2 -1 8.17 2.07
-26 2 -1 9.44 2.42
-28 2 -1 0.48 2.02
-29 3 1 1.02 2.38
-27 -3 1 16.14 2.46
-27 3 1 20.13 3.17
-25 -3 1 10.27 2.09
-25 3 1 15.11 2.79
-23 -3 1 18.42 2.32
-23 3 1 24.06 3.08
-21 -3 1 13.01 1.97
-21 3 1 10.45 2.16
-19 -3 1 1.46 1.17
-19 -3 1 1.51 1.2
-19 3 1 3.32 1.41
-17 -3 1 21.51 2.18
-17 -3 1 22.3 1.81
-17 3 1 26.36 2.5
-15 -3 1 89.97 2.64
-15 -3 1 94.24 3.4
-15 3 1 92.94 3.48
-13 -3 1 89.14 3.12
-13 -3 1 99.39 2.45
-13 3 1 97.16 3.34
-11 -3 1 90.71 2.91
-11 3 1 96.45 3.13
-9 -3 1 6.16 1.07
-9 3 1 5.83 1.14
-7 -3 1 0.35 0.7
-7 3 1 0.39 0.54
-7 3 1 -0.12 0.65
-5 -3 1 19.03 1.34
-5 3 1 19.36 1.36
-5 3 1 15.61 1.14
-3 -3 1 -0.53 0.52
-3 3 1 -0.44 0.58
-1 -3 1 62.89 1.54
-1 3 1 64.91 1.81
-1 -3 -1 80.58 1.74
1 -3 1 80.42 2.1
-1 3 -1 81.62 1.58
-3 -3 -1 65.64 1.54
3 -3 1 67.37 2.01
-3 3 -1 67.31 1.77
-5 -3 -1 8.62 0.85
5 -3 1 9.24 1.16
-5 3 -1 8.19 1.06
7 -3 1 123.12 3
-7 -3 -1 117.93 2.69
-7 -3 -1 121.28 2.37
-7 3 -1 118.96 2.9
9 -3 1 124.21 3.22
-9 -3 -1 121.96 2.57
-9 -3 -1 121.13 2.89
-9 3 -1 124.36 3.22
-11 -3 -1 59.56 2.12
11 -3 1 61.73 2.56
-11 -3 -1 61.72 2.34
-11 3 -1 59.26 2.53
-13 -3 -1 5.54 1.04
13 -3 1 6 1.4
-13 -3 -1 5.05 1.1
-13 3 -1 5.07 1.21
-15 -3 -1 5.48 1.17
-15 -3 -1 4.97 1.25
-15 3 -1 3.79 1.19
-17 -3 -1 32.81 2.15
-17 -3 -1 24.45 2.18
-17 3 -1 27.98 2.32
-19 -3 -1 58.32 2.96
-19 -3 -1 52.17 2.89
-19 3 -1 56.16 3.21
-21 -3 -1 92.32 3.72
-21 -3 -1 91.23 3.66
-21 3 -1 91.11 4.29
-23 -3 -1 63.74 3.44
-23 -3 -1 63.53 3.47
-23 3 -1 62.39 3.89
-25 3 -1 11.29 2.43
-27 3 -1 0.58 1.86
-29 3 -1 5.51 2.36
-28 -4 1 4.55 1.93
-28 4 1 5.77 2.59
-26 -4 1 0.18 1.56
-26 4 1 0.65 2.03
-24 -4 1 -0.83 1.33
-24 4 1 1.8 1.81
-22 -4 1 0.43 1.45
-22 4 1 1.11 1.57
-20 -4 1 19.21 2.39
-20 4 1 20.38 2.67
-18 -4 1 12.98 1.97
-18 4 1 16.96 2.43
-16 -4 1 24.61 2.37
-16 4 1 21.36 2.39
-14 -4 1 -0.35 0.93
-14 4 1 0.72 0.93
-12 -4 1 1.35 0.95
-12 4 1 0.08 0.87
-10 -4 1 14.85 1.58
-10 4 1 12.96 1.63
-8 -4 1 5.71 1.05
-8 4 1 5.21 1.11
-6 -4 1 30.26 1.69
6 -4 -1 28.98 1.35
-6 4 1 26.14 1.66
-4 -4 1 4.22 0.83
-4 4 1 3.34 0.9
-2 -4 1 32.55 1.4
-2 4 1 33.98 1.59
0 -4 1 9.88 0.9
0 4 1 8.8 1.08
-2 -4 -1 26.4 1.16
2 -4 1 26.91 1.59
-2 4 -1 25.76 1.2
4 -4 1 46.22 1.94
-4 -4 -1 39.74 1.38
-4 4 -1 42.76 1.7
-6 -4 -1 23.67 1.21
6 -4 1 25.04 1.65
-6 -4 -1 24.37 1.54
-6 4 -1 22.92 1.52
-8 -4 -1 1.68 0.76
-8 -4 -1 1.51 0.61
8 -4 1 2.67 0.95
-8 4 -1 0.28 0.71
-10 -4 -1 5.29 0.92
-10 -4 -1 5.56 1.07
10 -4 1 7.76 1.33
-10 4 -1 6.56 1.2
12 -4 1 36.68 2.29
-12 -4 -1 32.94 1.73
-12 -4 -1 35.67 2.08
-12 4 -1 37.42 2.24
-14 -4 -1 19.85 1.59
14 -4 1 19.84 2.11
-14 -4 -1 19.94 1.92
-14 4 -1 21.12 2.17
-16 -4 -1 17.1 1.78
-16 -4 -1 18.43 1.98
-16 4 -1 19.99 2.29
-18 -4 -1 3.02 1.26
-18 -4 -1 -0.7 1.06
-18 4 -1 5.82 1.69
-20 -4 -1 2.14 1.29
-20 -4 -1 3.09 1.47
-20 4 -1 2.88 1.48
-22 -4 -1 -1.01 1.21
-22 4 -1 0.88 1.55
-24 -4 -1 1.63 1.52
-24 4 -1 -0.66 1.64
-26 -4 -1 1.8 1.74
-26 4 -1 3.85 2.14
-28 4 -1 2.43 2.17
-27 -5 1 3.05 2.06
-27 5 1 1.16 2.08
-25 -5 1 0.34 1.63
-25 5 1 7.01 2.24
-23 -5 1 11.26 2.35
-23 5 1 9.6 2.46
-21 -5 1 1.52 1.55
-21 5 1 3.12 1.73
-19 -5 1 2.99 1.43
-19 5 1 4.47 1.72
-17 -5 1 20.46 2.3
-17 5 1 21.02 2.62
-15 -5 1 20.99 2.21
-15 5 1 23.51 2.57
-13 -5 1 42.05 2.54
-13 5 1 44.65 2.67
11 -5 -1 18.95 1.47
-11 -5 1 18.11 1.89
-11 5 1 22.87 2.23
-9 -5 1 0.8 0.84
9 -5 -1 0.44 0.68
-9 5 1 -0.43 0.7
7 -5 -1 18.78 1.3
-7 -5 1 19.06 1.71
-7 5 1 19.71 1.81
-5 -5 1 0.91 0.74
5 -5 -1 2.77 0.77
-5 5 1 4.15 1
-3 -5 1 84.49 2.36
-3 5 1 84.89 2.57
-1 -5 1 94.62 2.25
-1 5 1 100.62 2.61
1 -5 1 56.43 1.64
-1 5 -1 57.34 1.69
-3 -5 -1 130.7 2.49
3 -5 1 131.99 3.28
-3 5 -1 127.72 2.7
-5 -5 -1 2.6 0.88
5 -5 1 4.14 1.01
-5 -5 -1 2.16 0.61
-5 5 -1 3.24 0.8
-7 -5 -1 24.59 1.7
7 -5 1 20.19 1.68
-7 -5 -1 21.58 1.24
-7 5 -1 25.3 1.71
9 -5 1 70.97 2.82
-9 -5 -1 69.11 2.6
-9 -5 -1 71.35 2.08
-9 5 -1 69.64 2.78
11 -5 1 7.91 1.41
-11 -5 -1 6.74 1.26
-11 -5 -1 6.83 1.04
-11 5 -1 4.97 1.2
-13 -5 -1 8.63 1.52
-13 -5 -1 7.2 1.16
13 -5 1 5.91 1.41
-13 5 -1 8.62 1.66
-15 -5 -1 -0.61 1.01
15 -5 1 0.08 1.04
-15 -5 -1 0.79 0.9
-15 5 -1 0.51 1.12
-17 -5 -1 4.9 1.26
-17 -5 -1 2.75 1.3
17 -5 1 4.3 1.67
-17 5 -1 4.33 1.61
-19 -5 -1 33.25 2.73
-19 5 -1 26.71 2.94
-21 -5 -1 11.31 1.99
-21 5 -1 11.81 2.23
-23 -5 -1 15.68 2.32
-23 5 -1 17.84 2.78
-25 -5 -1 5.22 1.9
-25 5 -1 5.26 2.15
-27 -5 -1 3.17 1.98
-27 5 -1 2.97 2.12
-26 -6 1 3.53 2.48
-26 6 1 0.3 2.26
-24 -6 1 3.15 2.13
-24 6 1 -0.21 1.92
-22 -6 1 2 1.82
-22 6 1 2.13 1.88
-20 -6 1 14.44 2.31
-20 6 1 10.37 2.27
-18 -6 1 21 2.55
-18 6 1 19.62 2.78
-16 -6 1 5.55 1.53
-16 6 1 7.55 1.81
-14 -6 1 15.74 2.04
-14 6 1 12.54 2.07
-12 -6 1 6.4 1.38
12 -6 -1 9.19 1.36
-12 6 1 8.62 1.56
10 -6 -1 5.37 1.16
-10 -6 1 5.02 1.25
-10 6 1 4.78 1.27
-8 -6 1 37.03 2.2
8 -6 -1 37.06 1.88
-8 6 1 35.94 2.2
-6 -6 1 37.13 2.03
6 -6 -1 33.91 1.81
-6 6 1 34.97 2.06
-4 -6 1 56.43 2.23
-4 6 1 54.56 2.36
-2 -6 1 0.7 0.61
-2 6 1 0.59 0.73
0 -6 1 24.84 1.38
0 6 -1 25.15 1.31
0 6 1 25.14 1.62
2 -6 1 52.13 2.4
-2 -6 -1 51.06 1.84
-2 6 -1 52.72 1.88
-4 -6 -1 58.75 2.26
-4 -6 -1 58.44 1.84
4 -6 1 55.2 2.5
-4 6 -1 56.27 2.18
-6 -6 -1 75.86 2.13
6 -6 1 77.56 2.87
-6 -6 -1 72.04 2.65
-6 6 -1 78.5 2.66
-8 -6 -1 5.07 0.84
-8 -6 -1 1.33 0.89
8 -6 1 5.45 1.21
-8 6 -1 4.05 1.08
-10 -6 -1 27.03 1.53
10 -6 1 25.25 2.37
-10 -6 -1 21.01 1.92
-10 6 -1 26.48 2.02
-12 -6 -1 22.38 1.54
-12 -6 -1 22.97 2.12
12 -6 1 25.65 2.4
-12 6 -1 24.09 2.34
14 -6 1 52.29 2.96
-14 -6 -1 50.96 2.32
-14 -6 -1 48.27 2.77
-14 6 -1 46.29 2.88
-16 -6 -1 8.39 1.66
16 -6 1 12.1 2.02
-16 6 -1 8.57 1.78
18 -6 1 -0.17 1.31
-18 -6 -1 4.72 1.58
-18 6 -1 4.35 1.63
-20 -6 -1 1.82 1.45
-20 6 -1 1.92 1.58
-22 -6 -1 3.17 1.65
-22 6 -1 -0.58 1.5
-24 -6 -1 6.29 2
-24 6 -1 2.13 1.96
-26 -6 -1 20 3.04
-26 6 -1 18.7 3.27
-25 -7 1 5.65 2.53
-25 7 1 3.53 1.95
-23 -7 1 -0.47 2
-23 7 1 2.29 2.13
-21 -7 1 1.95 1.75
-21 7 1 2.23 1.82
-19 -7 1 1.3 1.58
-19 7 1 0.93 1.66
-17 -7 1 1.75 1.45
-17 7 1 -0.5 1.39
-15 -7 1 -0.65 1.04
-15 7 1 1.57 1.39
-13 -7 1 15 2.04
-13 7 1 12.52 2.09
-11 -7 1 46.72 2.74
11 -7 -1 50.4 2.56
-11 7 1 49.72 2.92
9 -7 -1 7.44 1.32
-9 -7 1 4.61 1.28
-9 7 1 5.63 1.39
7 -7 -1 0.86 0.81
-7 -7 1 -0.75 0.8
-7 7 1 1.31 1
-5 -7 1 6.75 1.26
-5 7 1 9.65 1.5
-3 -7 1 0.33 0.7
-3 7 1 0.61 0.85
-1 -7 1 5.28 0.96
-1 7 1 4.33 1.12
1 -7 1 42.13 1.76
-1 7 -1 39.57 1.8
-3 -7 -1 11.9 1.21
3 -7 1 12.98 1.79
-3 7 -1 13.39 1.4
-5 -7 -1 1.07 0.84
-5 -7 -1 0.08 0.53
5 -7 1 1.33 0.88
-5 7 -1 -0.05 0.74
-7 -7 -1 61.86 2.05
7 -7 1 65.95 2.93
-7 -7 -1 61.61 2.67
-7 7 -1 68.54 2.87
-9 -7 -1 37.14 1.74
-9 -7 -1 36.06 2.28
9 -7 1 40.11 2.6
-9 7 -1 37.79 2.41
-11 -7 -1 5.5 1.37
11 -7 1 5.43 1.61
-11 7 -1 4.37 1.34
-13 -7 -1 6.47 1.52
13 -7 1 7.25 1.72
-13 7 -1 7 1.64
15 -7 1 9.97 1.88
-15 -7 -1 6.73 1.75
-15 7 -1 8.46 1.87
-17 -7 -1 13.76 2.22
17 -7 1 12.38 2.15
-17 7 -1 11.84 2.19
-19 -7 -1 4.06 1.76
-19 7 -1 6.27 1.91
-21 -7 -1 20.67 2.88
-21 7 -1 18.05 2.79
-23 -7 -1 3.24 2.17
-23 7 -1 4.52 2.08
-25 -7 -1 1.55 2.18
-25 7 -1 0.11 1.97
-24 -8 1 -3.85 2.24
-24 8 1 0 1.93
-22 -8 1 9.22 2.61
-22 8 1 8.58 2.63
-20 -8 1 27.07 3.36
-20 8 1 33.86 3.76
-18 -8 1 28.06 3.27
-18 8 1 29.51 3.45
-16 -8 1 16.67 2.57
-16 8 1 12.46 2.33
-14 -8 1 7.1 1.66
-14 8 1 6.37 1.84
-12 -8 1 1.28 1.21
-12 8 1 2.78 1.47
10 -8 -1 54.88 2.64
-10 -8 1 47.05 2.89
-10 8 1 48.88 3.07
8 -8 -1 56.77 2.78
-8 -8 1 54.59 2.85
-8 8 1 56.41 3.04
6 -8 -1 23.49 1.99
-6 -8 1 22.03 2.07
-6 8 1 26.1 2.17
-4 -8 1 29.83 2.02
-4 8 1 30.53 2.19
-2 -8 1 12.36 1.47
-2 8 1 13.85 1.67
0 -8 1 12.76 1.37
0 8 1 12.85 1.56
0 8 -1 10.97 1.28
-2 -8 -1 36.55 1.89
2 -8 1 37.92 1.84
2 -8 1 35.43 2.45
-2 -8 -1 36.9 2.11
-2 8 -1 41.42 2.03
-4 -8 -1 145.54 3.19
4 -8 1 148.78 4.42
-4 -8 -1 141.76 3.8
-4 8 -1 150.27 3.78
6 -8 1 62.46 3.1
-6 -8 -1 62.02 2.8
-6 -8 -1 62.73 2.17
-6 8 -1 65.59 2.81
8 -8 1 12.86 1.84
-8 -8 -1 11.67 1.68
-8 8 -1 14.34 1.84
-10 -8 -1 4.86 1.32
10 -8 1 3.8 1.49
-10 8 -1 4.8 1.49
-12 -8 -1 14.06 2.06
12 -8 1 19.31 2.52
-12 8 -1 16.01 2.3
-14 -8 -1 9.63 1.95
14 -8 1 13.71 2.3
-14 8 -1 12.31 2.16
-16 -8 -1 36.21 3.26
16 -8 1 34.42 2.91
-16 8 -1 30.88 3.31
-18 -8 -1 30.1 3.29
-18 8 -1 35.99 3.72
-20 -8 -1 0.42 1.91
-20 8 -1 1.71 1.87
-22 -8 -1 0.01 1.94
-22 8 -1 -0.68 1.88
-24 -8 -1 10.02 2.67
-24 8 -1 10.59 2.76
-23 -9 1 3.16 2.57
-23 9 1 0.61 2.16
-21 -9 1 -2.08 2.01
-21 9 1 0.13 1.83
-19 -9 1 2.28 2
-19 9 1 1.43 1.81
-17 -9 1 -0.22 1.77
-17 9 1 2.28 1.93
-15 -9 1 -2.14 1.37
-15 9 1 0.21 1.66
-13 -9 1 32.52 3.12
-13 9 1 35.13 3.41
-11 -9 1 9.96 1.92
-11 9 1 10.65 2.16
-9 -9 1 -0.91 1.15
9 -9 -1 0.56 1.12
-9 9 1 1.44 1.46
-7 -9 1 4.27 1.4
7 -9 -1 1.6 1.18
-7 9 1 1.86 1.26
-5 -9 1 -0.43 0.94
5 -9 -1 1.67 1.07
-5 9 1 -1.09 1.03
-3 -9 1 -0.35 0.86
-3 9 1 0.57 1.1
-1 -9 1 1 0.92
-1 9 1 1.78 1.06
1 -9 1 7.09 1.23
-1 -9 -1 8.13 1.4
-3 -9 -1 5 1.09
3 -9 1 2.85 1.26
-3 -9 -1 4.35 1.28
-3 9 -1 4.21 1.22
5 -9 1 1.57 1.14
-5 -9 -1 2.37 1.11
-5 9 -1 4.56 1.25
-7 -9 -1 7.61 1.55
7 -9 1 6.34 1.61
-7 9 -1 6.6 1.54
9 -9 1 34.01 2.64
-9 -9 -1 32.04 2.56
-9 9 -1 30.75 2.54
-11 -9 -1 1.89 1.31
11 -9 1 0.49 1.35
-11 9 -1 0.99 1.38
13 -9 1 6.39 1.88
-13 -9 -1 5.27 1.75
-13 9 -1 9.07 2.05
15 -9 1 1.4 1.46
-15 -9 -1 3.2 1.77
-15 9 -1 -0.14 1.53
-17 -9 -1 3.66 1.97
-17 9 -1 0.88 1.86
-19 -9 -1 3.97 2.24
-19 9 -1 1.69 2.06
-21 -9 -1 10.71 2.72
-21 9 -1 6.71 2.41
-23 -9 -1 2.15 2.55
-23 9 -1 1.28 2.25
-22 -10 1 11.2 3.22
-22 10 1 11.53 3.46
-20 -10 1 27.12 3.59
-20 10 1 18.91 3.47
-18 -10 1 14.73 2.83
-18 10 1 14.99 2.85
-16 -10 1 10.94 2.56
-16 10 1 11.96 2.57
-14 -10 1 6.62 2.08
-14 10 1 4.05 2.04
-12 -10 1 4.04 1.9
-12 10 1 5.64 2.07
-10 -10 1 15.21 2.31
-10 10 1 15.77 2.47
8 -10 -1 9.25 1.8
-8 -10 1 10.2 1.95
-8 10 1 10.57 2.02
-6 -10 1 3.83 1.46
6 -10 -1 5.49 1.63
-6 10 1 1.82 1.52
-4 -10 1 13.56 1.84
-4 10 1 13.04 1.95
-2 -10 1 3.52 1.2
-2 10 1 0.83 1.2
0 -10 -1 1.66 1.04
0 -10 1 1.8 1.02
-2 -10 -1 12.82 1.81
2 -10 1 19.01 2.45
2 -10 1 15.43 1.74
-4 -10 -1 33.71 2.53
4 -10 1 36.41 2.82
-6 -10 -1 31.11 2.74
6 -10 1 31.15 3.05
-6 10 -1 32.48 2.54
8 -10 1 1.04 1.26
-8 -10 -1 0.98 1.44
-8 10 -1 1.46 1.26
-10 -10 -1 17.16 2.37
10 -10 1 22.01 2.71
-10 10 -1 17.17 2.48
12 -10 1 8.22 2.1
-12 -10 -1 3.93 1.76
-12 10 -1 7.5 1.93
14 -10 1 13.7 2.48
-14 -10 -1 17.35 2.64
-14 10 -1 10.53 2.22
-16 -10 -1 47.07 3.78
-16 10 -1 46.75 3.84
-18 -10 -1 32.79 3.79
-18 10 -1 24.54 3.52
-20 -10 -1 4.33 2.38
-20 10 -1 4.41 2.54
-22 -10 -1 4.55 2.67
-22 10 -1 5.31 2.82
-19 -11 1 2.5 2.4
-19 11 1 -1.72 2.13
-17 -11 1 2.81 2.54
-17 11 1 4.32 2.46
-15 -11 1 -0.43 1.83
-15 11 1 0.43 1.91
-13 -11 1 5.45 1.98
-13 11 1 5.32 2.13
-11 -11 1 5.56 2.07
-11 11 1 4.2 2.13
-9 -11 1 3.67 1.82
-9 11 1 3.45 1.71
7 -11 -1 2.12 1.37
-7 -11 1 -0.87 1.39
-7 11 1 3.88 1.5
5 -11 -1 1.71 1.32
-5 -11 1 1.72 1.24
-5 11 1 -0.5 1.34
-3 -11 1 0.07 1.08
3 -11 -1 -0.68 0.96
-3 11 1 -1.19 1.26
1 -11 -1 1.23 1.08
-1 -11 1 0.35 1.04
-1 -11 -1 -0.97 1.02
1 -11 1 0.11 1.28
3 -11 1 1.3 1.3
-3 -11 -1 -0.35 1.15
-5 -11 -1 4.12 1.66
5 -11 1 1.82 1.43
-7 -11 -1 10.98 2.07
7 -11 1 12.58 2.36
-9 -11 -1 1.02 1.69
9 -11 1 2.08 1.39
-9 11 -1 1.82 1.52
11 -11 1 -0.93 1.4
-11 -11 -1 -2.35 1.5
-11 11 -1 0.05 1.63
-13 -11 -1 -0.5 1.71
13 -11 1 0.78 1.7
-13 11 -1 3.79 1.99
-15 -11 -1 2.41 2.12
-15 11 -1 1.55 1.87
-17 -11 -1 3.64 2.52
-17 11 -1 3.48 2.17
-19 -11 -1 1.06 2.07
-19 11 -1 1.89 2.27
-18 12 1 18.08 3.63
-16 -12 1 1.27 2.38
-16 12 1 1.41 2.3
-14 -12 1 0.38 2.1
-14 12 1 -0.57 2.07
-12 -12 1 2.12 1.81
-12 12 1 1.04 1.81
-10 -12 1 9.12 2.33
-10 12 1 9.21 2.34
-8 -12 1 19.91 2.76
-8 12 1 23.73 3.12
-6 -12 1 30.33 3.02
6 -12 -1 28.68 3.18
-4 -12 1 9.05 1.99
4 -12 -1 9.29 2
-2 -12 1 3.06 1.42
2 -12 -1 2.11 1.37
0 -12 -1 8.07 1.78
2 -12 1 40.31 3.34
-2 -12 -1 39.51 2.98
4 -12 1 28.71 3.29
-4 -12 -1 34.12 3.03
6 -12 1 19.78 2.72
-6 -12 -1 26.77 2.92
-8 -12 -1 9.27 2.13
8 -12 1 8.9 2.19
-10 -12 -1 3.85 2.01
10 -12 1 2.66 1.65
-12 -12 -1 6.79 2.25
12 -12 1 7.49 2.24
-12 12 -1 7.38 2.24
-14 -12 -1 32.78 3.69
-14 12 -1 25.51 3.57
-16 -12 -1 8.63 2.66
-16 12 -1 11.82 2.99
-18 12 -1 2.02 2.51
-15 -13 1 0.77 2.52
-15 13 1 2.52 2.29
-13 -13 1 3.7 2.47
-13 13 1 2.42 2.36
-11 -13 1 1.14 2.2
-11 13 1 1.35 2
-9 -13 1 3.26 2.07
-7 -13 1 3.54 2.04
5 -13 -1 5.28 1.92
-5 -13 1 1.97 1.84
3 -13 -1 0.13 1.4
-1 -13 -1 3.83 1.71
1 -13 1 6.24 1.92
3 -13 1 -0.68 1.44
-3 -13 -1 -1.08 1.52
5 -13 1 1.91 1.63
-5 -13 -1 0.58 1.67
-7 -13 -1 -0.86 1.87
7 -13 1 1.83 1.77
-9 -13 -1 -0.4 1.95
9 -13 1 1.77 1.74
11 -13 1 -0.15 1.62
-11 -13 -1 3.17 2.19
-13 -13 -1 -1.14 2.25
-10 -14 1 17.32 3.29
-8 -14 1 4.61 2.34
-6 -14 1 15.61 2.85
4 -14 -1 10.99 2.46
2 -14 -1 -3.58 1.44
0 -14 1 4.66 1.94
-2 -14 -1 9.6 2.4
2 -14 1 12.91 2.65
-4 -14 -1 14.96 2.74
4 -14 1 9.87 2.37
-6 -14 -1 25.28 3.22
6 -14 1 23.11 3.39
-8 -14 -1 3 2.07
8 -14 1 4.17 2.15
-10 -14 -1 -0.63 2.2
-26 0 2 26.9 3.19
-24 0 2 28.89 2.7
-24 0 2 26.38 2.99
-22 0 2 17.96 2.19
-22 0 2 19.4 2.41
-20 0 2 0.95 1.19
-20 0 2 -1.53 0.99
-18 0 2 68.36 3.11
-18 0 2 70.02 3.08
-16 0 2 133.26 3.81
-16 0 2 133.79 3.81
-14 0 2 56.4 2.49
-14 0 2 54.56 2.4
-12 0 2 124.41 3.14
-12 0 2 122.46 3.25
-10 0 2 -0.29 0.58
-10 0 2 1.47 0.77
-8 0 2 17.76 1.24
-8 0 2 17.19 1.45
-6 0 2 135.72 2.68
-6 0 2 142.13 2.56
-4 0 2 971.22 6.32
-4 0 2 1000 5.99
2 0 -2 82.83 1.61
-2 0 2 84.18 1.85
0 0 2 108.03 1.9
0 0 2 108.86 1.9
0 0 -2 111.03 1.86
2 0 2 6.17 0.89
-2 0 -2 5.42 0.72
2 0 2 3.66 0.61
-4 0 -2 74.52 1.89
-6 0 -2 69.92 1.99
-8 0 -2 285.05 4.19
-10 0 -2 161.59 3.51
-12 0 -2 38.73 2.06
-14 0 -2 2.59 1.09
-16 0 -2 64.43 2.93
-18 0 -2 10.44 1.76
-20 0 -2 1.05 1.23
-22 0 -2 36.83 2.98
-24 0 -2 0.13 1.53
-26 0 -2 1.78 1.72
-28 0 -2 13.69 2.6
-27 1 2 2.98 2.1
-25 -1 2 -0.91 1.3
-25 1 2 -1.17 1.48
-23 -1 2 -0.09 1.36
-23 -1 2 2.48 1.47
-23 1 2 -0.06 1.41
-21 -1 2 0.06 1.28
-21 -1 2 0.88 1.23
-21 1 2 -0.27 1.09
-21 1 2 -0.66 1.2
-19 -1 2 -0.62 1
-19 -1 2 0.75 1.16
-19 1 2 -0.58 0.98
-19 1 2 -0.31 1.05
-17 -1 2 0.24 1.01
-17 -1 2 0.44 0.98
-17 1 2 -0.12 0.95
-17 1 2 2.26 1.1
-15 -1 2 7.15 1.28
-15 -1 2 8.45 1.46
-15 1 2 6.49 1.23
-15 1 2 4.78 1.29
-13 -1 2 3.27 0.92
-13 -1 2 1.53 0.94
-13 1 2 2.3 0.91
-13 1 2 0.86 0.75
-11 -1 2 3.86 0.95
-11 -1 2 3.42 0.86
-11 1 2 1.35 0.8
-11 1 2 4.52 1.03
-9 -1 2 2.93 0.7
-9 -1 2 4.9 0.98
-9 1 2 2.36 0.78
-9 1 2 2.49 0.75
-7 -1 2 8.63 0.89
-7 -1 2 5.46 0.94
-7 1 2 7.44 1.04
-7 1 2 7.51 1.03
-5 -1 2 14.63 1.24
-5 -1 2 13.36 0.89
-5 1 2 13.99 1.16
-5 1 2 14.83 1.21
-3 -1 2 176.83 2.66
-3 1 2 176.77 2.83
3 1 -2 175.95 1.96
-3 1 2 178.24 2.82
-1 -1 2 20.73 1.04
1 -1 -2 23.12 1.07
-1 -1 2 21.76 1.04
1 1 -2 23.32 0.9
-1 1 2 20.7 1.13
1 -1 2 27.87 1.03
-1 -1 -2 28.98 1.15
1 -1 2 28.38 1.32
-1 1 -2 28.03 1.07
3 -1 2 19.07 1.28
-3 -1 -2 16.8 1.06
-3 1 -2 16.76 1.04
5 -1 2 33.49 1.71
-5 -1 -2 32.67 1.44
-5 1 -2 31.8 1.44
7 -1 2 -1.91 0.61
-7 -1 -2 -0.48 0.54
-7 1 -2 0.85 0.67
-9 -1 -2 22.05 1.29
-9 -1 -2 21.19 1.46
-9 1 -2 20.27 1.5
-11 -1 -2 16.96 1.58
-11 -1 -2 15.85 1.29
-11 1 -2 14.59 1.55
-13 -1 -2 0.75 0.78
-13 -1 -2 0.69 0.64
-13 1 -2 -0.16 0.83
-15 -1 -2 -0.54 0.9
-15 -1 -2 -0.05 0.7
-15 1 -2 -0.52 0.79
-17 -1 -2 7.05 1.27
-17 -1 -2 10.03 1.69
-17 1 -2 9.91 1.67
-19 -1 -2 0.06 1.04
-19 -1 -2 -0.68 0.87
-19 1 -2 2.74 1.29
-21 -1 -2 1.69 1.38
-21 1 -2 6.21 1.69
-23 -1 -2 7.53 1.91
-23 1 -2 6.59 1.96
-25 -1 -2 9.79 2.14
-25 1 -2 9.19 2.11
-27 -1 -2 4.22 1.92
-27 1 -2 2.61 1.93
-29 -1 -2 1.52 1.95
-29 1 -2 -0.41 2.09
-28 2 2 5.41 2.41
-26 -2 2 4.28 1.73
-26 2 2 5.12 2.02
-24 -2 2 37.64 3.38
-24 2 2 43.11 3.97
-22 -2 2 10.75 2.05
-22 2 2 10.73 2.01
-20 -2 2 -0.68 1.13
-20 -2 2 1.04 1.2
-20 2 2 0.76 1.32
-20 2 2 0.56 1.12
-18 -2 2 38.78 2.3
-18 -2 2 43.22 2.65
-18 2 2 33.73 2.4
-18 2 2 38.32 2.67
-16 -2 2 68.57 2.58
-16 -2 2 71.33 3.06
-16 2 2 70.4 2.83
-16 2 2 69.25 3.15
-14 -2 2 125.29 3.7
-14 -2 2 124 3.02
-14 2 2 122.58 3.35
-14 2 2 122.46 3.74
-12 -2 2 40.6 1.67
-12 -2 2 41.13 2.22
-12 2 2 43.42 2.25
-12 2 2 42.45 1.98
-10 -2 2 0.96 0.81
-10 2 2 0.19 0.71
-10 2 2 0.89 0.72
-8 -2 2 9.87 1.3
-8 2 2 12.29 1.24
-8 2 2 10.93 1.36
-6 -2 2 23.41 1.47
-6 2 2 20.51 1.45
-6 2 2 23.12 1.43
-4 -2 2 32.81 1.5
-4 2 2 33.09 1.5
-4 2 2 30.59 1.56
-2 -2 2 14.62 1.03
-2 2 2 15.55 1.19
-2 2 2 17.25 1.18
0 -2 -2 51.91 1.56
0 -2 2 53.36 1.38
0 -2 2 49.93 1.7
0 2 -2 53.32 1.25
-2 -2 -2 39.34 1.4
2 -2 2 35.89 1.61
-2 2 -2 39.14 1.33
-4 -2 -2 79.59 2.02
4 -2 2 80.44 2.37
-4 2 -2 82.08 2.05
6 -2 2 108.1 2.93
-6 -2 -2 114.4 2.53
-6 2 -2 112.35 2.67
8 -2 2 200.06 4.17
-8 -2 -2 198.42 3.52
-8 2 -2 198.6 3.81
10 -2 2 66.02 2.72
-10 -2 -2 66.12 2.14
-10 -2 -2 63.24 2.26
-10 2 -2 63.11 2.48
-12 -2 -2 7.85 1.1
-12 -2 -2 7.68 1.21
-12 2 -2 5.1 1.1
-14 -2 -2 1.89 0.88
-14 -2 -2 1.69 1.03
-14 2 -2 3.94 1.17
-16 -2 -2 37.08 2.35
-16 -2 -2 39.53 2.14
-16 2 -2 41.48 2.56
-18 -2 -2 55.6 2.67
-18 -2 -2 54.24 2.89
-18 2 -2 56.8 3.08
-20 -2 -2 38.7 2.74
-20 -2 -2 36.6 2.47
-20 2 -2 33.55 2.77
-22 -2 -2 14.95 2.23
-22 2 -2 13.07 2.25
-24 -2 -2 5.36 1.88
-24 2 -2 6.93 2.05
-26 -2 -2 2.02 1.72
-26 2 -2 2.5 1.72
-28 -2 -2 5.55 2.11
-28 2 -2 12.55 2.73
-29 3 2 0.18 2.32
-27 -3 2 0.65 1.89
-27 3 2 1.06 1.98
-25 -3 2 -0.28 1.62
-25 3 2 -0.97 1.72
-23 -3 2 3.75 1.67
-23 3 2 5.21 1.97
-21 -3 2 10.31 1.89
-21 3 2 9.06 2.01
-19 -3 2 12.43 2.01
-19 3 2 9.65 1.59
-19 3 2 9.13 1.78
-17 -3 2 1.89 1.21
-17 3 2 1.4 0.98
-17 3 2 0.02 1.15
-15 -3 2 1.63 0.83
-15 -3 2 1.75 1.11
-15 3 2 2.01 0.95
-15 3 2 3.3 1.24
-13 -3 2 4.42 1.15
-13 3 2 6.71 1.16
-13 3 2 6.08 1.26
-11 -3 2 36.69 2.12
-11 3 2 35.84 1.91
-11 3 2 36.85 2.14
-9 -3 2 19.81 1.73
-9 3 2 18.69 1.47
-9 3 2 19.93 1.8
-7 -3 2 3.98 0.95
-7 3 2 4.54 1.01
-7 3 2 5.87 0.93
-5 -3 2 3.54 0.88
-5 3 2 2.95 0.82
-5 3 2 3.1 0.9
-3 -3 2 0.9 0.65
-3 3 2 1.25 0.71
-1 -3 2 47.35 1.49
-1 -3 2 47.52 1.82
-1 3 2 45.74 1.87
-1 -3 -2 5.87 0.85
1 -3 2 8.03 1.07
-1 3 -2 6.65 0.76
-3 -3 -2 24.48 1.27
3 -3 2 22.24 1.48
-3 3 -2 23.67 1.29
-5 -3 -2 7.26 0.95
5 -3 2 10.74 1.39
-5 3 -2 10.17 1.16
-7 -3 -2 70.03 2.15
7 -3 2 71.29 2.64
-7 3 -2 69.34 2.37
9 -3 2 4.81 1.13
-9 -3 -2 2.92 0.84
-9 -3 -2 2.55 0.87
-9 3 -2 4.16 1.07
11 -3 2 32.15 2.18
-11 -3 -2 34.14 1.81
-11 -3 -2 31.28 1.8
-11 3 -2 33.49 2.07
-13 -3 -2 16.02 1.57
-13 -3 -2 13.91 1.5
13 -3 2 15.42 1.98
-13 3 -2 17.2 1.91
-15 -3 -2 3.64 1.05
-15 -3 -2 3.7 1.06
-15 3 -2 4.29 1.19
-17 -3 -2 4.03 1.14
-17 -3 -2 7.25 1.47
-17 3 -2 1.6 1.13
-19 -3 -2 -0.26 0.98
-19 -3 -2 1.48 1.21
-19 3 -2 2.26 1.26
-21 -3 -2 -0.19 1.33
-21 -3 -2 1.06 1.08
-21 3 -2 1 1.34
-23 -3 -2 -0.56 1.23
-23 -3 -2 0.21 1.42
-23 3 -2 4.83 1.66
-25 -3 -2 2.37 1.71
-25 3 -2 4.41 1.94
-27 3 -2 3.13 2.03
-29 3 -2 -0.25 2.02
-28 -4 2 8.25 2.51
-28 4 2 10.32 2.89
-26 -4 2 11.49 2.34
-26 4 2 8.77 2.46
-24 -4 2 8.82 2.17
-24 4 2 15.86 2.66
-22 -4 2 6.6 1.84
-22 4 2 3.73 1.79
-20 -4 2 8.6 1.9
-20 4 2 6.46 1.83
-18 -4 2 9.65 1.8
-18 4 2 8.7 1.9
-16 -4 2 92.8 3.65
-16 4 2 95.43 3.2
-16 4 2 96.41 3.88
-14 -4 2 91.82 3.49
-14 4 2 89.61 2.92
-14 4 2 86.51 3.5
-12 -4 2 25.3 2.07
-12 4 2 21.73 1.6
-12 4 2 21.62 2.15
-10 -4 2 -1.45 0.73
-10 4 2 0.53 0.82
-10 4 2 -1.04 0.6
-8 -4 2 19.38 1.78
-8 4 2 19.8 1.51
-8 4 2 20.4 1.9
-6 -4 2 25.28 1.7
-6 4 2 22.24 1.51
-6 4 2 24.18 1.71
-4 -4 2 1.9 0.73
-4 4 2 0.86 0.77
-2 -4 2 3.36 0.75
-2 4 2 3.17 0.9
0 -4 -2 33.87 1.63
0 -4 2 31.66 1.76
0 -4 2 30.59 1.31
-2 -4 -2 7.2 0.96
2 -4 2 7.46 1.16
-2 4 -2 7.21 0.87
4 -4 2 9.55 1.29
-4 -4 -2 8.67 1.04
-4 4 -2 9.62 1.12
-6 -4 -2 141.23 2.95
6 -4 2 140.98 3.7
-6 4 -2 140.39 3.23
8 -4 2 40.94 2.26
-8 -4 -2 42.49 1.84
-8 4 -2 46.77 2.16
10 -4 2 52.46 2.64
-10 -4 -2 55.91 2.33
-10 -4 -2 54.93 2.2
-10 4 -2 51.9 2.44
-12 -4 -2 44.03 2.06
-12 -4 -2 44.87 2.23
12 -4 2 40.87 2.56
-12 4 -2 41.58 2.4
-14 -4 -2 -0.26 0.81
-14 -4 -2 -0.06 0.87
14 -4 2 0.5 0.99
-14 4 -2 -0.78 1
-16 -4 -2 8.27 1.56
-16 -4 -2 10.23 1.62
16 -4 2 11.55 2.03
-16 4 -2 11.67 1.84
-18 -4 -2 34.02 2.45
-18 -4 -2 29.14 2.37
-18 4 -2 26.01 2.7
-20 -4 -2 10.46 1.78
-20 -4 -2 13.33 1.97
-20 4 -2 14.58 2.29
-22 -4 -2 13.47 2.11
-22 -4 -2 17.87 2.31
-22 4 -2 21.53 2.95
-24 -4 -2 3.85 1.69
-24 4 -2 6.81 2.11
-26 4 -2 4.2 2.25
-28 4 -2 5.3 2.44
-27 -5 2 1.82 2.07
-27 5 2 1.98 2.53
-25 -5 2 -1.38 1.85
-25 5 2 1.19 1.88
-23 -5 2 1.61 1.82
-23 5 2 4.73 2.11
-21 -5 2 10.79 2.19
-21 5 2 11.02 2.3
-19 -5 2 43.66 3.22
-19 5 2 35.26 3.44
-17 -5 2 31.52 2.89
-17 5 2 24.5 2.78
-15 -5 2 -0.11 1.09
-15 5 2 -1.57 0.94
-13 -5 2 5.22 1.33
-13 5 2 4.33 1.33
-11 -5 2 26.68 2.34
-11 5 2 25.81 2.08
-11 5 2 22.5 1.84
-9 -5 2 29.92 2
-9 5 2 31.62 1.82
-9 5 2 33.36 2.18
-7 -5 2 49.11 2.26
-7 5 2 46.52 2.43
-5 -5 2 49.87 2.12
-5 5 2 51.38 2.34
-3 -5 2 4.96 0.95
-3 5 2 4.66 1.08
-1 -5 2 11.25 1.11
-1 5 2 12.5 1.43
1 -5 2 78.53 2.74
-1 -5 -2 78.1 2.35
-1 5 -2 78.11 1.92
-3 -5 -2 70.3 2.14
3 -5 2 67.86 2.68
-3 5 -2 69.9 2.09
-5 -5 -2 26.98 1.49
5 -5 2 22.93 1.82
-5 5 -2 24.44 1.54
7 -5 2 3.71 1.18
-7 -5 -2 2.81 0.82
-7 5 -2 2.25 0.9
-9 -5 -2 16.14 1.62
-9 -5 -2 15.12 1.46
9 -5 2 16.09 1.98
-9 5 -2 14.89 1.72
-11 -5 -2 41.73 2.1
11 -5 2 42.59 2.65
-11 -5 -2 43.79 2.32
-11 5 -2 44.98 2.51
-13 -5 -2 49.83 2.57
13 -5 2 46.69 2.91
-13 -5 -2 51.1 2.31
-13 5 -2 49.01 2.75
15 -5 2 32.63 2.64
-15 -5 -2 34.45 2.19
-15 -5 -2 30.14 2.33
-15 5 -2 26.99 2.65
-17 -5 -2 -0.4 1.08
17 -5 2 1.05 1.4
-17 -5 -2 3.13 1.24
-17 5 -2 0.73 1.19
-19 -5 -2 0.59 1.13
-19 -5 -2 1.55 1.36
-19 5 -2 -0.6 1.28
-21 -5 -2 0.37 1.25
-21 5 -2 0.86 1.46
-23 -5 -2 8.59 2
-23 5 -2 7.06 2.26
-25 -5 -2 7.59 2
-25 5 -2 8.01 2.53
-27 5 -2 4.97 2.33
-26 -6 2 9.97 2.85
-26 6 2 9.26 2.86
-24 -6 2 9.74 2.57
-24 6 2 7.27 2.49
-22 -6 2 4.41 2.05
-22 6 2 3.05 2.06
-20 -6 2 2.74 1.85
-20 6 2 -1 1.47
-18 -6 2 12.94 2.19
-18 6 2 14.83 2.47
-16 -6 2 11.56 1.98
-16 6 2 9.33 1.93
-14 -6 2 50.52 3.11
-14 6 2 50 3.09
-12 -6 2 31.52 2.4
-12 6 2 29.39 2.43
-10 -6 2 0.09 0.91
-10 6 2 0.4 0.97
-8 -6 2 5.08 1.24
-8 6 2 4.51 1.19
-6 -6 2 13.27 1.56
-6 6 2 12.27 1.63
-4 -6 2 84.85 2.71
-4 6 2 80.07 2.92
-2 -6 2 30.32 1.67
-2 6 2 29.66 1.92
0 -6 2 33.38 1.57
2 -6 2 2.42 1.04
-2 -6 -2 2.02 0.77
-2 6 -2 1.98 0.67
4 -6 2 14.25 1.76
-4 -6 -2 12.45 1.32
-4 6 -2 12.82 1.34
-6 -6 -2 47.81 2.02
6 -6 2 45.25 2.52
-6 6 -2 51.28 2.28
-8 -6 -2 58.01 2.22
-8 -6 -2 59.12 2.56
8 -6 2 54.52 2.88
-8 6 -2 61.22 2.69
-10 -6 -2 21.76 2.01
-10 -6 -2 26.2 1.75
10 -6 2 22.85 2.37
-10 6 -2 22.63 2.16
-12 -6 -2 8.22 1.36
12 -6 2 6.16 1.56
-12 -6 -2 5.67 1.32
-12 6 -2 10.3 1.81
-14 -6 -2 2.52 1.08
14 -6 2 3.6 1.42
-14 -6 -2 3.91 1.21
-14 6 -2 3.39 1.37
-16 -6 -2 10.35 1.8
16 -6 2 7.63 1.81
-16 -6 -2 10.41 1.58
-16 6 -2 8.77 1.92
-18 -6 -2 7.55 1.81
18 -6 2 12.84 2.28
-18 6 -2 8.58 2.13
-20 -6 -2 5.15 1.7
-20 6 -2 8.74 2.14
-22 -6 -2 0.68 1.52
-22 6 -2 3.73 1.97
-24 -6 -2 1.35 1.63
-24 6 -2 1.06 1.85
-26 -6 -2 -0.63 1.7
-26 6 -2 2.77 2.15
-25 -7 2 0.24 2.34
-25 7 2 0.9 2.27
-23 -7 2 7.66 2.48
-23 7 2 2.89 2.17
-21 -7 2 16.08 2.83
-21 7 2 13.32 2.57
-19 -7 2 10.03 2.31
-19 7 2 10.19 2.32
-17 -7 2 3.49 1.77
-17 7 2 -0.03 1.43
-15 -7 2 0.12 1.34
-15 7 2 0.38 1.44
-13 -7 2 6.95 1.6
-13 7 2 5.85 1.69
-11 -7 2 76.96 3.35
-11 7 2 75.7 3.55
-9 -7 2 26.11 2.35
-9 7 2 25.16 2.61
-7 -7 2 10.67 1.57
7 -7 -2 9.84 1.35
-7 7 2 10.79 1.73
-5 -7 2 3.6 1.07
-5 7 2 3.08 1.06
-3 -7 2 16.83 1.64
-3 7 2 16.54 1.89
-1 -7 2 16.46 1.51
-1 7 2 13.24 1.72
1 -7 2 34.69 2.3
-1 -7 -2 35.46 1.95
-1 7 -2 33.19 1.58
3 -7 2 80.91 3.28
-3 -7 -2 87.27 2.69
-3 7 -2 78.15 2.49
5 -7 2 31.58 2.31
-5 -7 -2 32.62 1.76
-5 7 -2 30.77 1.86
-7 -7 -2 13.39 1.67
7 -7 2 16.21 2
-7 -7 -2 15.42 1.5
-7 7 -2 15.27 1.7
9 -7 2 14.61 2.12
-9 -7 -2 9.44 1.51
-9 -7 -2 11.89 1.42
-9 7 -2 11.76 1.73
-11 -7 -2 33.81 2.04
-11 -7 -2 37.98 2.45
11 -7 2 36.93 2.77
-11 7 -2 40.18 2.65
-13 -7 -2 9.36 1.65
13 -7 2 9.92 1.89
-13 -7 -2 8.6 1.4
-13 7 -2 7.44 1.65
15 -7 2 12.88 2.2
-15 -7 -2 13.06 2.04
-15 7 -2 13.64 2.26
-17 -7 -2 0.39 1.35
17 -7 2 -0.69 1.41
-17 7 -2 -1.21 1.33
19 -7 2 0.4 1.55
-19 -7 -2 2.12 1.51
-19 7 -2 3.2 1.79
21 -7 2 2.53 1.84
-21 -7 -2 3.19 1.85
-21 7 -2 3.12 1.84
-23 -7 -2 19.48 2.9
-23 7 -2 17.21 2.95
-25 -7 -2 9.21 2.6
-25 7 -2 7.05 2.46
-24 -8 2 1.47 2.28
-24 8 2 6.4 2.5
-22 -8 2 2.85 2.36
-22 8 2 -0.47 2.06
-20 -8 2 3.19 2.2
-20 8 2 -0.17 1.78
-18 -8 2 5.47 2.18
-18 8 2 3.05 1.95
-16 -8 2 12.93 2.39
-16 8 2 12.24 2.39
-14 -8 2 23.92 2.72
-14 8 2 19.21 2.68
-12 -8 2 8.61 1.79
-12 8 2 6.45 1.93
-10 -8 2 1.1 1.26
-10 8 2 1 1.31
8 -8 -2 6.47 1.33
-8 -8 2 5.07 1.43
-8 8 2 7.64 1.63
-6 -8 2 -0.08 0.89
-6 8 2 0.1 0.95
-4 -8 2 -0.46 0.88
-4 8 2 0.21 0.93
-2 -8 2 1.71 0.97
-2 8 2 3.62 1.21
0 -8 2 0.72 0.79
2 -8 2 12.8 1.93
-2 -8 -2 12.91 1.52
-2 8 -2 16.36 1.55
-4 -8 -2 51.29 2.26
4 -8 2 50.46 2.91
-4 8 -2 50.8 2.37
-6 -8 -2 26.79 2.29
-6 -8 -2 26.5 1.76
6 -8 2 22.9 2.44
-6 8 -2 21.62 2.06
-8 -8 -2 6.47 1.38
8 -8 2 4.04 1.43
-8 -8 -2 5.81 1.23
-8 8 -2 5.29 1.42
-10 -8 -2 1.73 1.1
10 -8 2 1.64 1.2
-10 -8 -2 2.33 1.01
-10 8 -2 1.34 1.25
-12 -8 -2 8.92 1.58
12 -8 2 8.25 1.94
-12 8 -2 10.9 2.01
-14 -8 -2 1.6 1.32
14 -8 2 0.68 1.4
-14 8 -2 1.88 1.45
-16 -8 -2 7.65 1.9
16 -8 2 4.94 2
-16 8 -2 7.35 1.97
-18 -8 -2 13.17 2.36
18 -8 2 12.92 2.56
-18 8 -2 13.41 2.59
20 -8 2 4.16 1.91
-20 -8 -2 8.73 2.24
-20 8 -2 6.79 2.27
-22 -8 -2 0.06 1.82
-22 8 -2 -0.12 1.8
-24 -8 -2 1.08 2.18
-24 8 -2 1.2 2.17
-23 -9 2 16.27 3.27
-23 9 2 17.72 3.73
-21 -9 2 9.57 2.8
-21 9 2 12.55 2.93
-19 -9 2 20.89 3.26
-19 9 2 18.62 3.09
-17 -9 2 18.46 2.88
-17 9 2 14.17 2.7
-15 -9 2 1.98 1.58
-15 9 2 4.8 1.91
-13 -9 2 34.6 3.21
-13 9 2 25.6 3.12
-11 -9 2 69.69 3.73
-11 9 2 74.9 4.01
-9 -9 2 46.08 3.02
-9 9 2 45.32 3.18
-7 -9 2 4.83 1.47
7 -9 -2 4.98 1.45
-7 9 2 4.17 1.48
-5 -9 2 0.32 0.99
-5 9 2 -0.69 1.04
-3 -9 2 -0.93 0.86
-3 9 2 0.23 1.12
-1 -9 2 1.79 1.02
1 -9 2 4.38 1.35
-1 -9 -2 7.75 1.36
3 -9 2 62.73 3.4
-3 -9 -2 63.19 2.67
5 -9 2 32.45 2.72
-5 -9 -2 36.58 2.49
-5 -9 -2 32.24 2.04
-5 9 -2 35.27 2.31
-7 -9 -2 1.95 1.2
7 -9 2 0.9 1.24
-7 9 -2 2.67 1.3
-9 -9 -2 10.47 1.86
9 -9 2 8.01 1.83
-9 9 -2 11.32 1.95
-11 -9 -2 14.74 2.16
11 -9 2 15.28 2.48
-11 9 -2 13.32 2.13
13 -9 2 33.69 3.38
-13 -9 -2 29.05 2.89
-13 9 -2 32.68 3.21
15 -9 2 32.07 3.35
-15 -9 -2 41.47 3.63
-15 9 -2 41.84 3.82
17 -9 2 10.81 2.36
-17 -9 -2 15.05 2.47
-17 9 -2 10.92 2.44
-19 -9 -2 3.21 1.91
-19 9 -2 1.19 1.98
-21 -9 -2 -1.6 1.83
-21 9 -2 0.08 1.99
-23 -9 -2 9.26 2.93
-23 9 -2 7.27 2.79
-20 -10 2 9.88 3.03
-20 10 2 5.58 2.55
-18 -10 2 -1.94 1.97
-18 10 2 3.89 2.25
-16 -10 2 2.33 2.01
-16 10 2 2.71 2
-14 -10 2 1.51 1.7
-14 10 2 -0.03 1.81
-12 -10 2 -1.32 1.49
-12 10 2 -0.09 1.52
-10 -10 2 0.47 1.59
-10 10 2 0.24 1.49
-8 -10 2 -0.37 1.31
-8 10 2 0.46 1.46
-6 -10 2 2 1.36
6 -10 -2 -0.02 1.05
-6 10 2 1.61 1.37
-4 -10 2 -0.29 1.12
-4 10 2 -0.98 1.19
-2 -10 2 0.51 1.01
0 -10 2 2.25 1.34
0 -10 -2 4.48 1.34
0 -10 2 5.54 1.38
-2 -10 -2 3.84 1.3
2 -10 2 1.35 1.29
4 -10 2 10.15 2.03
-4 -10 -2 7.62 1.64
6 -10 2 1.69 1.44
-6 -10 -2 2.59 1.43
-8 -10 -2 0.37 1.35
8 -10 2 -0.06 1.36
-8 10 -2 1.24 1.19
-10 -10 -2 2.35 1.57
10 -10 2 2.2 1.65
-10 10 -2 5.77 1.79
12 -10 2 1.91 1.71
-12 -10 -2 4.27 1.69
-12 10 -2 4.33 1.9
14 -10 2 -0.02 1.49
-14 -10 -2 -0.53 1.64
-14 10 -2 2.43 1.86
-16 -10 -2 2.7 1.97
16 -10 2 1.6 1.89
-16 10 -2 -0.23 1.7
-18 -10 -2 0.5 1.86
-18 10 -2 1.08 2.11
-20 -10 -2 -1.02 2.13
-20 10 -2 -0.59 1.98
-22 10 -2 3.24 2.57
-19 -11 2 6.72 2.62
-19 11 2 3.93 2.63
-17 -11 2 19.99 3.46
-17 11 2 21.4 3.45
-15 -11 2 1.44 2.02
-15 11 2 3.24 2.07
-13 -11 2 8.05 2.11
-13 11 2 4.12 2.14
-11 -11 2 26.26 3.13
-11 11 2 23.62 3.16
-9 -11 2 33.37 3.23
-9 11 2 36.36 3.59
-7 -11 2 12.66 2.14
-7 11 2 13.61 2.31
-5 -11 2 0.58 1.37
-5 11 2 -0.32 1.27
-3 -11 2 1.14 1.21
-3 11 2 0.1 1.53
-1 -11 2 12.81 1.95
-1 -11 2 11.9 2.27
1 -11 -2 9.7 1.81
1 -11 2 18.32 2.63
-1 -11 -2 18.05 2.24
3 -11 2 25.93 3.01
-3 -11 -2 29.21 2.71
-5 -11 -2 38.66 3.02
5 -11 2 35.81 3.52
-7 -11 -2 0.7 1.49
7 -11 2 0.1 1.27
-9 -11 -2 9.37 2.14
9 -11 2 7.25 1.85
11 -11 2 19.39 2.94
-11 -11 -2 22.02 2.81
-11 11 -2 19.77 2.79
-13 -11 -2 42.07 3.84
13 -11 2 34.14 3.75
-13 11 -2 37.37 3.68
15 -11 2 15.75 2.86
-15 -11 -2 14.02 2.83
-15 11 -2 17.05 2.88
-17 -11 -2 4.38 2.35
-17 11 -2 4.62 2.42
-19 -11 -2 0.11 2.24
-19 11 -2 4.06 2.52
-16 -12 2 -0.44 2.35
-16 12 2 -0.47 2.3
-14 -12 2 1.28 1.96
-14 12 2 1.77 2.21
-12 -12 2 -0.89 1.77
-12 12 2 -1.2 1.8
-10 -12 2 -1.56 1.82
-10 12 2 -3.27 1.52
-8 -12 2 3.74 2.03
-8 12 2 0.16 1.79
-6 -12 2 3.45 1.64
-6 12 2 -0.97 1.55
-4 -12 2 0.1 1.35
-4 12 2 -2.23 1.65
0 -12 -2 7.54 1.85
0 -12 2 5.47 1.92
-2 -12 -2 1.82 1.53
2 -12 2 0.57 1.52
4 -12 2 0.96 1.37
-4 -12 -2 -1.82 1.4
6 -12 2 2.35 1.66
-6 -12 -2 0.22 1.66
8 -12 2 0.39 1.42
-8 -12 -2 0.97 1.73
10 -12 2 1.32 1.8
-10 -12 -2 0.36 1.67
-12 -12 -2 1.05 1.76
12 -12 2 2.08 2
-14 -12 -2 2.34 2.2
14 -12 2 1.25 2
-16 -12 -2 1.38 2.27
-16 12 -2 1.93 2.29
-13 -13 2 6.09 2.53
-13 13 2 6.43 2.77
-11 -13 2 15.44 2.83
-11 13 2 17.02 3.12
-9 -13 2 13.4 2.88
-9 13 2 17.72 3.02
-7 -13 2 13.75 2.62
-5 -13 2 1.58 1.83
1 -13 -2 15.96 2.41
-1 -13 2 22.13 3.29
1 -13 2 18.78 2.96
-1 -13 -2 20.36 2.76
-3 -13 -2 32.67 3.26
3 -13 2 16.77 2.84
5 -13 2 9.81 2.3
-5 -13 -2 19.48 2.77
7 -13 2 4.2 1.91
-7 -13 -2 1.83 1.99
9 -13 2 3.24 2.01
-9 -13 -2 7.32 2.28
11 -13 2 2.88 2.15
-11 -13 -2 11.26 2.75
-13 -13 -2 8.95 2.73
13 -13 2 5.7 2.76
-8 -14 2 2.89 2.28
-4 -14 2 2.54 2.21
-2 -14 2 1.92 2.04
0 -14 2 -1.22 1.72
-2 -14 -2 4.33 2.19
2 -14 2 4.75 2.3
-4 -14 -2 0.64 1.99
4 -14 2 0.01 1.9
6 -14 2 0.5 1.87
-6 -14 -2 2.93 2.15
8 -14 2 1.81 2.12
-8 -14 -2 4.31 2.53
-24 0 3 2.45 1.63
-24 0 3 0.3 1.41
-22 0 3 1.35 1.31
-22 0 3 0.71 1.32
-20 0 3 0.45 1.2
-20 0 3 0.2 1.11
-18 0 3 -0.33 1.05
-18 0 3 1.76 1.15
-16 0 3 -0.07 1
-16 0 3 0.46 0.98
-14 0 3 0.26 0.82
-14 0 3 0 0.85
-12 0 3 1.33 0.84
-12 0 3 -0.19 0.7
-10 0 3 -0.75 0.62
-10 0 3 0.33 0.78
-8 0 3 0.4 0.62
-8 0 3 -0.58 0.62
-6 0 3 1 0.75
-6 0 3 -0.3 0.55
-4 0 3 -1.05 0.57
-2 0 3 0.02 0.48
-2 0 3 0.04 0.58
2 0 -3 1.06 0.52
0 0 3 -0.22 0.55
0 0 3 -0.51 0.59
0 0 -3 -0.69 0.48
2 0 3 -0.03 0.51
2 0 3 -0.44 0.68
-2 0 -3 -0.17 0.54
-4 0 -3 -0.77 0.54
4 0 3 -0.15 0.77
-6 0 -3 -0.33 0.57
-8 0 -3 -0.37 0.53
-10 0 -3 -0.71 0.67
-12 0 -3 -0.06 0.71
-14 0 -3 1.05 0.84
-16 0 -3 -1.01 0.93
-18 0 -3 0.34 1.09
-20 0 -3 -0.01 1.19
-22 0 -3 1.59 1.51
-24 0 -3 1.56 1.59
-26 0 -3 1.85 1.72
-28 0 -3 1.63 1.92
-27 -1 3 15.35 2.61
-27 1 3 9.18 2.5
-25 -1 3 6.14 2.04
-25 1 3 6.23 2.12
-23 -1 3 1.38 1.55
-23 1 3 2.18 1.6
-23 1 3 0.97 1.45
-21 -1 3 0.22 1.31
-21 -1 3 2.41 1.3
-21 1 3 2.19 1.44
-21 1 3 0.26 1.24
-19 -1 3 0.14 1.08
-19 -1 3 3.1 1.39
-19 1 3 2.19 1.23
-19 1 3 3.12 1.43
-17 -1 3 21.41 2.12
-17 -1 3 23.74 2.29
-17 1 3 21.75 2.2
-17 1 3 17.84 2.09
-15 -1 3 69.56 2.67
-15 -1 3 65.74 2.99
-15 1 3 66.24 2.93
-15 1 3 71.69 2.99
-13 -1 3 82.02 2.65
-13 -1 3 80.39 3.05
-13 1 3 78.16 2.97
-13 1 3 82.22 2.99
-11 -1 3 3.91 1.06
-11 -1 3 4.7 0.97
-11 1 3 3.3 0.94
-11 1 3 1.32 0.96
-9 -1 3 70.2 2.12
-9 -1 3 69.16 2.55
-9 1 3 73.61 2.5
-9 1 3 73.95 2.53
-7 -1 3 348.32 4.92
-7 -1 3 342.42 4.08
-7 1 3 345.38 4.87
-7 1 3 333.91 4.82
-5 -1 3 289.94 4.2
-5 -1 3 297.96 3.37
-5 1 3 307.25 4.4
-5 1 3 303.31 4.36
-3 -1 3 2.89 0.66
3 -1 -3 2.46 0.73
-3 -1 3 2.62 0.77
3 1 -3 3.17 0.59
-3 1 3 4.05 0.89
-1 -1 3 1.74 0.7
-1 -1 3 2.11 0.7
1 -1 -3 0.03 0.51
-1 1 3 1.74 0.67
1 1 -3 0.05 0.5
1 -1 3 5.96 1
-1 -1 -3 3.65 0.76
1 -1 3 4.48 0.77
-1 1 -3 4.97 0.79
1 1 3 3.44 0.82
-3 -1 -3 61.68 1.99
3 -1 3 65.64 2.28
-3 1 -3 65.88 1.93
-5 -1 -3 206.03 3.57
5 -1 3 205.89 4.09
-5 1 -3 205.09 3.5
-7 -1 -3 325.08 4.74
7 -1 3 328.54 5.51
-7 1 -3 325.26 4.75
-9 -1 -3 55.93 2.23
-9 1 -3 57.98 2.32
-11 -1 -3 1.2 0.72
-11 -1 -3 0.69 0.78
-11 1 -3 0.16 0.67
-13 -1 -3 29.78 2.01
-13 -1 -3 26.74 1.59
-13 1 -3 25.42 1.95
-15 -1 -3 59.43 2.77
-15 -1 -3 53.2 2.18
-15 1 -3 60.41 2.89
-17 -1 -3 0.81 0.91
-17 -1 -3 1.03 0.96
-17 1 -3 0.91 1.17
-19 -1 -3 5.73 1.56
-19 1 -3 4.28 1.53
-21 -1 -3 4.55 1.6
-21 1 -3 5.43 1.75
-23 -1 -3 7.61 2.06
-23 1 -3 8.07 2.01
-25 -1 -3 10.93 2.28
-25 1 -3 13.15 2.5
-27 -1 -3 16.95 2.91
-27 1 -3 19.99 3.05
-29 -1 -3 9.59 2.65
-29 1 -3 12.81 2.73
-28 -2 3 -1.13 1.69
-28 2 3 0.54 1.93
-26 -2 3 2.04 1.75
-26 2 3 -1.02 1.66
-24 -2 3 0.63 1.48
-24 2 3 1.07 1.77
-22 -2 3 6.83 1.72
-22 2 3 6.94 1.95
-22 2 3 8.01 1.69
-20 -2 3 2.72 1.48
-20 2 3 2.44 1.5
-20 2 3 3.75 1.4
-18 -2 3 7.54 1.72
-18 2 3 2.88 1.22
-18 2 3 5.85 1.59
-16 -2 3 1.41 0.94
-16 -2 3 -1.34 1
-16 2 3 -0.42 0.87
-16 2 3 -1.36 0.9
-14 -2 3 3.68 0.97
-14 -2 3 3.72 1.28
-14 2 3 4.07 1.16
-14 2 3 1.92 1.08
-12 -2 3 2.67 0.84
-12 -2 3 1.23 1.02
-12 2 3 3.4 1.02
-12 2 3 2.28 1.03
-10 -2 3 -0.57 0.76
-10 2 3 -0.21 0.76
-10 2 3 0.68 0.73
-8 -2 3 41.4 2.07
-8 2 3 37.59 2
-8 2 3 39.87 2.02
-6 -2 3 33.8 1.8
-6 2 3 35.09 1.82
-6 2 3 35.94 1.85
-4 -2 3 7.95 1
-4 -2 3 6.43 0.99
-4 2 3 7.97 1.14
-4 2 3 7.2 1.06
-2 -2 3 1.23 0.69
-2 -2 3 1.59 0.67
2 -2 -3 0.2 0.63
2 2 -3 1.48 0.5
-2 2 3 1.78 0.82
0 -2 3 17.56 1.31
0 -2 3 17.73 1.14
0 -2 -3 17.25 1.24
0 2 -3 17.23 1.05
2 -2 3 -0.54 0.62
-2 -2 -3 0.26 0.56
-2 2 -3 0.3 0.52
4 -2 3 36.23 1.95
-4 -2 -3 37.96 1.71
-4 2 -3 40.03 1.68
-6 -2 -3 54.64 2.06
6 -2 3 52.51 2.37
-6 2 -3 48.92 1.98
-8 -2 -3 0.01 0.65
8 -2 3 0.88 0.81
-8 2 -3 0.26 0.66
10 -2 3 1.38 1.03
-10 -2 -3 1.65 0.84
-10 2 -3 3.91 1.07
-12 -2 -3 7.07 1.25
-12 -2 -3 6.29 1.08
12 -2 3 9.89 1.74
-12 2 -3 10.29 1.53
-14 -2 -3 7.93 1.38
-14 -2 -3 6.91 1.15
-14 2 -3 6.19 1.36
-16 -2 -3 -0.38 0.82
-16 -2 -3 -0.92 0.88
-16 2 -3 -0.8 0.92
-18 -2 -3 6.93 1.36
-18 -2 -3 5.82 1.53
-18 2 -3 7.78 1.69
-20 -2 -3 7.96 1.68
-20 -2 -3 6.78 1.64
-20 2 -3 6.41 1.77
-22 -2 -3 9.84 2.01
-22 2 -3 13.2 2.33
-24 -2 -3 3.94 1.69
-24 2 -3 4.49 1.96
-26 -2 -3 0.94 1.76
-26 2 -3 0.95 1.85
-28 -2 -3 2.07 2.02
-28 2 -3 1.96 2.09
-27 -3 3 16.92 2.93
-27 3 3 15.65 2.93
-25 -3 3 20.39 3.06
-25 3 3 16.94 2.84
-23 -3 3 3.65 1.89
-23 3 3 3.51 1.78
-21 -3 3 1.54 1.51
-21 3 3 0.38 1.24
-21 3 3 -0.33 1.33
-19 -3 3 7.9 1.8
-19 3 3 9.17 1.63
-19 3 3 9.17 1.92
-17 -3 3 35.51 2.67
-17 3 3 39.15 2.48
-17 3 3 40.14 2.78
-15 -3 3 91.14 3.56
-15 3 3 86.39 3.6
-15 3 3 87.1 3.25
-13 -3 3 17.97 1.94
-13 3 3 17.88 1.85
-13 3 3 16.45 1.99
-11 -3 3 0.76 0.83
-11 3 3 -0.43 0.86
-11 3 3 -0.01 0.74
-9 -3 3 19.21 1.78
-9 3 3 17.75 1.84
-9 3 3 17.34 1.62
-7 -3 3 27.35 1.74
-7 3 3 27.29 1.84
-7 3 3 23.69 1.66
-5 -3 3 109.44 2.83
-5 3 3 113.3 2.99
-5 3 3 110.43 3.11
-3 -3 3 4.92 0.92
-3 -3 3 3.23 0.89
-3 3 3 5.96 1.02
-3 3 3 8.07 1.24
-1 -3 3 0.19 0.54
-1 -3 3 -0.76 0.64
1 -3 -3 -0.28 0.61
1 -3 3 20.36 1.5
-1 -3 -3 21.13 1.4
-1 3 -3 21.04 1.15
-3 -3 -3 46.98 1.93
3 -3 3 49.19 2.25
-3 3 -3 46.49 1.73
5 -3 3 145.06 3.68
-5 -3 -3 148.23 3.22
-5 3 -3 141.86 3.07
7 -3 3 74.48 2.92
-7 -3 -3 74.93 2.47
-7 3 -3 69.21 2.46
-9 -3 -3 68.77 2.48
9 -3 3 69.17 3.03
-9 3 -3 67.75 2.64
-11 -3 -3 38.39 1.98
11 -3 3 33.15 2.39
-11 -3 -3 36.7 2.04
-11 3 -3 32.6 2.14
-13 -3 -3 7.55 1.36
-13 -3 -3 7.51 1.26
13 -3 3 6.91 1.58
-13 3 -3 8.15 1.5
-15 -3 -3 43.72 2.33
-15 -3 -3 50.11 2.57
-15 3 -3 39.51 2.65
-17 -3 -3 65.72 2.9
-17 -3 -3 62.65 3.07
-17 3 -3 64.81 3.4
-19 -3 -3 22.39 2.25
-19 -3 -3 18.03 2.27
-19 3 -3 16.95 2.39
-21 -3 -3 8.47 1.8
-21 -3 -3 9.18 1.76
-21 3 -3 9.07 2.12
-23 -3 -3 -0.08 1.39
-23 3 -3 -0.79 1.58
-25 -3 -3 5.69 2.07
-25 3 -3 4.31 2.11
-27 -3 -3 6.43 2.19
-27 3 -3 4.26 2.26
-28 -4 3 -0.32 2.16
-28 4 3 -1.78 2.24
-26 -4 3 4.79 2.28
-26 4 3 -2.02 1.89
-24 -4 3 8.06 2.4
-24 4 3 6.57 2.35
-22 -4 3 5.38 1.96
-22 4 3 7.19 2.09
-20 -4 3 12.25 2.24
-20 4 3 14.16 2.34
-18 -4 3 3.6 1.53
-18 4 3 0.31 1.23
-18 4 3 3.82 1.57
-16 -4 3 0.7 1.2
-16 4 3 0.31 1.08
-16 4 3 2.85 1.34
-14 -4 3 4.26 1.36
-14 4 3 5.16 1.28
-14 4 3 3.17 1.32
-12 -4 3 25.33 2.29
-12 4 3 23.45 1.85
-12 4 3 27.51 2.49
-10 -4 3 28.04 2.08
-10 4 3 27.63 2.13
-10 4 3 30.71 1.96
-8 -4 3 24.38 1.86
-8 4 3 22.22 1.75
-8 4 3 22.78 1.9
-6 -4 3 31.74 1.85
-6 4 3 26.29 1.89
-6 4 3 26.48 1.82
-4 -4 3 55.84 2.16
-4 4 3 55.18 2.4
-2 -4 3 20.38 1.55
-2 -4 3 18.18 1.31
0 -4 3 6.73 1.17
0 -4 -3 6.85 1.03
0 -4 3 6.73 0.86
0 4 -3 8.38 0.89
2 -4 3 1.89 0.95
-2 -4 -3 3.96 0.87
-2 4 -3 2.06 0.65
-4 -4 -3 1.33 0.71
4 -4 3 1.37 0.89
-4 4 -3 0.75 0.62
6 -4 3 -0.57 0.77
-6 -4 -3 0.53 0.73
-6 4 -3 0.93 0.76
8 -4 3 25.02 2.05
-8 -4 -3 19.53 1.58
-8 4 -3 25.7 1.79
-10 -4 -3 47.17 2.26
10 -4 3 50.01 2.8
-10 4 -3 44.68 2.41
-12 -4 -3 43.9 2.3
12 -4 3 39.51 2.7
-12 -4 -3 47.4 2.36
-12 4 -3 42.48 2.5
-14 -4 -3 15.33 1.8
14 -4 3 14.66 2.1
-14 -4 -3 14.82 1.77
-14 4 -3 20.39 2.25
-16 -4 -3 0.74 0.99
16 -4 3 0.45 1.26
-16 -4 -3 1.24 1.05
-16 4 -3 -0.05 1.06
-18 -4 -3 5.95 1.42
-18 -4 -3 6.01 1.48
-18 4 -3 6.24 1.79
-20 -4 -3 -0.51 1.33
-20 -4 -3 0.22 1.14
-20 4 -3 0.94 1.25
-22 -4 -3 5.61 1.79
-22 -4 -3 4.63 1.56
-22 4 -3 6.25 1.96
-24 -4 -3 1.86 1.57
-24 4 -3 1.29 1.83
-26 4 -3 3 2.02
-27 -5 3 4.32 2.8
-27 5 3 14.63 3.23
-25 -5 3 2.76 2.3
-25 5 3 2.81 2.32
-23 -5 3 1.84 1.89
-23 5 3 -1.04 1.7
-21 -5 3 0.25 1.42
-21 5 3 -1.58 1.41
-19 -5 3 -1.09 1.44
-19 5 3 0.46 1.42
-17 -5 3 13.78 2.2
-17 5 3 17.1 2.42
-17 5 3 19.05 2.03
-15 -5 3 32.4 2.79
-15 5 3 30.94 3.01
-15 5 3 32.36 2.38
-13 -5 3 13.52 1.91
-13 5 3 13.43 2.09
-13 5 3 14.72 1.8
-11 -5 3 16.06 1.92
-11 5 3 16.8 1.85
-11 5 3 19.7 2.31
-9 -5 3 40.83 2.37
-9 5 3 40.83 2.26
-9 5 3 39.34 2.46
-7 -5 3 153.6 3.82
-7 5 3 149.68 4.12
-5 -5 3 28.95 1.87
-5 5 3 29.03 2.03
-3 -5 3 34.76 1.78
-3 5 3 37.31 2.14
-1 -5 3 23.05 1.39
1 -5 -3 22.42 1.69
-1 -5 3 24.47 1.89
-1 -5 -3 2.31 0.84
1 -5 3 1.47 0.9
-1 5 -3 0.97 0.61
-3 -5 -3 36.66 1.93
3 -5 3 33.14 2.12
-3 5 -3 33.99 1.65
5 -5 3 80.2 3.19
-5 -5 -3 88.14 2.78
-5 5 -3 90.37 2.72
7 -5 3 46 2.65
-7 -5 -3 45.23 2.13
-7 5 -3 42.45 2.16
-9 -5 -3 18.62 1.8
9 -5 3 21.03 2.28
-9 5 -3 17.07 1.85
-11 -5 -3 7.83 1.36
-11 -5 -3 7.56 1.3
11 -5 3 10.8 1.87
-11 5 -3 7.22 1.43
-13 -5 -3 1.38 1.04
-13 -5 -3 2.69 1.02
13 -5 3 -0.63 1.12
-13 5 -3 0.38 0.98
-15 -5 -3 8.91 1.59
-15 -5 -3 9.01 1.56
15 -5 3 10.17 2.01
-15 5 -3 12.48 1.98
-17 -5 -3 0.98 1.12
-17 -5 -3 1.77 1.18
17 -5 3 0.23 1.4
-17 5 -3 1.11 1.16
-19 -5 -3 4.61 1.5
-19 -5 -3 4.43 1.53
-19 5 -3 4.23 1.69
-21 -5 -3 2.02 1.47
-21 -5 -3 0.9 1.36
-21 5 -3 0.88 1.48
-23 -5 -3 5.57 1.76
-23 5 -3 1.98 1.65
-25 5 -3 10.97 2.75
-27 5 -3 5.79 2.47
-26 -6 3 2.14 2.41
-26 6 3 1.72 2.31
-24 -6 3 5.14 2.38
-24 6 3 0.41 2.31
-22 -6 3 0.81 2.07
-22 6 3 1.17 1.99
-20 -6 3 8.66 2.19
-20 6 3 7.46 2.31
-18 -6 3 5.73 1.9
-18 6 3 3.17 1.72
-16 -6 3 -0.08 1.39
-16 6 3 -0.85 1.27
-14 -6 3 -0.47 1.1
-14 6 3 -1.81 1.07
-14 6 3 0.15 1.1
-12 -6 3 47.45 2.87
-12 6 3 47.43 3.01
-12 6 3 48.94 2.63
-10 -6 3 61.58 3.01
-10 6 3 60.4 3.14
-8 -6 3 28.31 2.19
-8 6 3 29.19 2.59
-6 -6 3 0.41 0.93
-6 6 3 0.42 0.86
-4 -6 3 49.7 2.3
-4 6 3 50.57 2.56
-2 -6 3 28.34 1.72
-2 -6 3 30.73 2.15
0 -6 -3 29.87 1.9
0 -6 3 28.59 2.09
-2 -6 -3 63.36 2.49
2 -6 3 70.5 3.07
-2 6 -3 66.4 2.12
-4 -6 -3 6.81 1.19
4 -6 3 7.11 1.44
-4 6 -3 7.69 1.14
6 -6 3 1.7 1.1
-6 -6 -3 0.45 0.83
-6 6 -3 3.4 1.01
8 -6 3 25.34 2.63
-8 -6 -3 16.53 1.67
-8 6 -3 22.75 2.11
-10 -6 -3 95.01 3.15
10 -6 3 94.63 3.93
-10 -6 -3 88.03 3.21
-10 6 -3 91.59 3.45
-12 -6 -3 38.83 2.47
-12 -6 -3 35.37 2.25
12 -6 3 34.65 2.8
-12 6 -3 36.23 2.57
-14 -6 -3 16.86 2.09
14 -6 3 14.45 2.3
-14 -6 -3 15.95 1.94
-14 6 -3 13.47 2.1
-16 -6 -3 4.02 1.44
-16 -6 -3 5.38 1.4
16 -6 3 3.25 1.66
-16 6 -3 4.34 1.5
-18 -6 -3 0.2 1.41
-18 -6 -3 2 1.32
18 -6 3 1.32 1.62
-18 6 -3 3.19 1.65
-20 -6 -3 8.91 1.93
20 -6 3 5.14 1.99
-20 6 -3 7.86 2.04
-22 -6 -3 16.32 2.49
-22 6 -3 14.85 2.68
-24 -6 -3 6.41 1.95
-24 6 -3 3.71 2.1
-26 6 -3 5.04 2.51
-25 -7 3 1.49 2.2
-25 7 3 3.5 2.44
-23 -7 3 -0.82 2.13
-23 7 3 0.44 2.01
-21 -7 3 3.71 2.12
-21 7 3 0.66 1.9
-19 -7 3 10.24 2.32
-19 7 3 4.92 2.12
-17 -7 3 -1.38 1.46
-17 7 3 1.89 1.72
-15 -7 3 41.78 3.17
-15 7 3 38.63 3.73
-13 -7 3 7.62 1.84
-13 7 3 3.98 1.64
-11 -7 3 -0.33 1.2
-11 7 3 0.94 1.27
-9 -7 3 17.15 2.13
-9 7 3 17.8 2.27
-7 -7 3 11.95 1.71
-7 7 3 9.68 1.73
-5 -7 3 43.1 2.39
-5 7 3 42.91 2.62
-3 -7 3 2.61 0.96
-3 7 3 2.93 1.12
1 -7 -3 0.6 0.93
-1 -7 3 2.03 0.85
-1 -7 3 1.49 1.08
-1 -7 -3 8.13 1.31
1 -7 3 5.9 1.45
-3 -7 -3 34.47 2.03
3 -7 3 35.83 2.46
-3 7 -3 35.16 1.85
5 -7 3 86.34 3.59
-5 -7 -3 80.96 2.94
-5 7 -3 82.3 2.84
-7 -7 -3 28.68 2.01
7 -7 3 30.18 2.54
-7 7 -3 28.42 2.06
9 -7 3 0.19 1.08
-9 -7 -3 -0.09 0.93
-9 7 -3 3.19 1.19
11 -7 3 0.32 1.14
-11 -7 -3 0.85 1.09
-11 -7 -3 0.2 0.97
-11 7 -3 0.35 1.03
-13 -7 -3 15.93 1.94
13 -7 3 10.96 2.21
-13 -7 -3 16.73 2.16
-13 7 -3 16.23 2.29
-15 -7 -3 13.27 1.78
-15 -7 -3 13.71 2.04
15 -7 3 12.72 2.38
-15 7 -3 12.55 2.25
-17 -7 -3 2.57 1.5
17 -7 3 2.22 1.69
-17 7 -3 5.08 1.97
19 -7 3 -0.43 1.52
-19 -7 -3 1.42 1.55
-19 7 -3 2.23 1.75
21 -7 3 1.19 1.88
-21 -7 -3 -1.86 1.46
-21 7 -3 -1.27 1.76
-23 -7 -3 1.78 1.85
-23 7 -3 4.78 2.27
-25 -7 -3 0.04 2.09
-25 7 -3 3.08 2.24
-24 -8 3 12.73 3.14
-24 8 3 6.96 2.88
-22 -8 3 15.89 3.07
-22 8 3 19.84 3.32
-20 -8 3 8.15 2.38
-20 8 3 8.09 2.49
-18 -8 3 1.92 1.71
-18 8 3 1.12 1.93
-16 -8 3 -0.6 1.53
-16 8 3 1.88 1.68
-14 -8 3 37.33 3.4
-14 8 3 35.88 3.5
-12 -8 3 49.79 3.34
-12 8 3 51.66 3.48
-10 -8 3 29.5 2.73
-10 8 3 27.34 2.88
-8 -8 3 35.94 2.64
-8 8 3 35.12 2.76
-6 -8 3 1.17 1.17
-6 8 3 5.87 1.56
-4 -8 3 12.39 1.73
-4 8 3 12.45 1.91
-2 -8 3 29.26 2.48
-2 -8 3 30.49 2.08
0 -8 3 65.64 3.27
0 -8 -3 63.07 2.84
0 -8 3 60.62 2.43
-2 -8 -3 37.93 2.32
2 -8 3 37.75 2.68
4 -8 3 35.24 2.66
-4 -8 -3 29.11 2.09
-4 8 -3 34.33 2.01
-6 -8 -3 4.41 1.24
6 -8 3 5 1.5
-6 8 -3 5.84 1.23
8 -8 3 6.23 1.69
-8 -8 -3 3.8 1.2
-8 8 -3 3.3 1.25
-10 -8 -3 1.95 1.12
10 -8 3 3.73 1.48
-10 -8 -3 2.52 1.29
-10 8 -3 1.53 1.21
-12 -8 -3 46.47 2.66
-12 -8 -3 46.9 3.03
12 -8 3 48.19 3.44
-12 8 -3 47.33 3.22
14 -8 3 38.19 3.74
-14 -8 -3 41 3.07
-14 8 -3 42.5 3.33
-16 -8 -3 5.32 1.69
16 -8 3 2.78 1.79
-16 8 -3 -1.37 1.52
18 -8 3 1.37 1.79
-18 -8 -3 1.91 1.7
-18 8 -3 6.4 2.06
-20 -8 -3 7.94 2.27
20 -8 3 5.82 2.27
-20 8 -3 9.96 2.55
22 -8 3 12.37 2.82
-22 -8 -3 12.89 2.78
-22 8 -3 12.62 2.57
-24 -8 -3 3.73 2.41
-24 8 -3 1.29 2.13
-21 -9 3 1.36 2.3
-21 9 3 -0.55 2.12
-19 -9 3 2.23 2.18
-19 9 3 -0.51 2.15
-17 -9 3 11.54 2.54
-17 9 3 8.51 2.37
-15 -9 3 6.7 2.28
-15 9 3 6.52 2.19
-13 -9 3 8.99 2.19
-13 9 3 6.73 2.01
-11 -9 3 3.17 1.67
-11 9 3 2.32 1.66
-9 -9 3 2 1.46
-9 9 3 2.78 1.59
-7 -9 3 6.63 1.67
-7 9 3 2.1 1.5
-5 -9 3 2.76 1.24
-5 9 3 -0.17 1.27
-3 -9 3 5.99 1.41
1 -9 -3 -0.95 0.97
-1 -9 3 0.53 1.03
-1 -9 3 0.35 1.05
1 -9 3 0.04 1.09
-1 -9 -3 2.86 1.09
3 -9 3 12.55 2.11
-3 -9 -3 12.85 1.7
-5 -9 -3 15.96 1.84
5 -9 3 13.65 2.3
-7 -9 -3 2.33 1.16
7 -9 3 2.94 1.38
-7 9 -3 1.93 1.18
-9 -9 -3 15.43 2.11
9 -9 3 11.71 2.29
-9 -9 -3 11.27 1.68
-9 9 -3 14.16 2.01
-11 -9 -3 1.81 1.49
11 -9 3 -0.25 1.36
-11 9 -3 0.92 1.36
13 -9 3 3.24 1.69
-13 -9 -3 1.76 1.59
-13 9 -3 5.17 1.62
-15 -9 -3 4.17 1.62
15 -9 3 -1.37 1.51
-15 9 -3 1.36 1.65
-17 -9 -3 2.43 1.87
17 -9 3 -0.18 1.71
-17 9 -3 3.88 1.83
-19 -9 -3 0.34 1.78
19 -9 3 -0.71 1.86
-19 9 -3 -0.23 1.88
-21 -9 -3 2.84 2.17
21 -9 3 -0.91 2.06
-21 9 -3 -0.23 2
-20 -10 3 18.74 3.43
-20 10 3 21.83 3.81
-18 -10 3 1.92 2.36
-18 10 3 2.62 2.25
-16 -10 3 1.29 2.07
-16 10 3 -1.97 1.81
-14 -10 3 14 2.65
-14 10 3 17.94 3.08
-12 -10 3 20.86 2.81
-12 10 3 12.9 2.56
-10 -10 3 13.99 2.42
-10 10 3 11.42 2.39
-8 -10 3 5.25 1.71
-8 10 3 8.71 2.08
-6 -10 3 -0.8 1.16
-6 10 3 -0.51 1.32
-4 -10 3 5.94 1.43
-4 10 3 2.26 1.54
-2 -10 3 17.17 2.52
2 -10 -3 22.71 2.43
-2 -10 3 20.8 2.07
0 -10 3 24.08 2.83
0 -10 -3 30.95 2.49
2 -10 3 11.83 2.11
-2 -10 -3 14.03 1.95
-4 -10 -3 1.2 1.04
4 -10 3 1.31 1.3
-6 -10 -3 8.25 1.6
6 -10 3 10.08 2.13
-6 -10 -3 8.78 1.86
-8 -10 -3 3.94 1.54
8 -10 3 5.57 1.86
-10 -10 -3 29.05 2.92
10 -10 3 22.46 2.98
-10 10 -3 31.58 3.1
12 -10 3 55.94 4.1
-12 -10 -3 62.61 3.82
-12 10 -3 57.98 3.73
-14 -10 -3 36.78 3.55
14 -10 3 29.07 3.53
-14 10 -3 42.42 3.99
-16 -10 -3 -0.46 1.77
16 -10 3 1.75 1.98
-16 10 -3 2.67 1.95
-18 -10 -3 3.66 2.14
18 -10 3 2.77 2.21
-18 10 -3 6.73 2.47
-20 -10 -3 23.29 3.57
-20 10 -3 12.35 2.8
-19 -11 3 5.03 3.07
-19 11 3 5.34 2.62
-17 -11 3 -1.54 2.27
-17 11 3 1.52 2.22
-15 -11 3 -1.31 2.04
-15 11 3 0.19 1.92
-13 -11 3 2.06 2.07
-13 11 3 4.55 2.23
-11 -11 3 -2.46 1.58
-11 11 3 0.34 1.69
-9 -11 3 2.34 1.67
-9 11 3 -1.07 1.61
-7 -11 3 1.56 1.51
-7 11 3 1.39 1.72
-5 -11 3 0.4 1.29
-5 11 3 1.01 1.57
-3 -11 3 0.82 1.26
-3 -11 3 0.12 1.36
-1 -11 3 1.74 1.46
1 -11 -3 2.42 1.26
-1 -11 -3 1.34 1.28
1 -11 3 0.07 1.35
3 -11 3 2.56 1.6
5 -11 3 4.3 1.75
-5 -11 -3 4.11 1.73
7 -11 3 -0.76 1.19
-7 -11 -3 2.33 1.57
9 -11 3 -0.56 1.39
-9 -11 -3 0.76 1.65
11 -11 3 1.38 1.97
-11 -11 -3 -1.27 1.61
-13 -11 -3 1.76 1.86
13 -11 3 2.42 1.89
15 -11 3 3.32 2.05
-15 -11 -3 5.42 2.22
-15 11 -3 3.95 2.23
17 -11 3 0.41 2.23
-17 -11 -3 0.81 2.1
-17 11 -3 2.16 2.37
-19 11 -3 4.39 2.71
-16 -12 3 -0.58 2.35
-16 12 3 -0.62 2.24
-14 -12 3 3.15 2.38
-14 12 3 4.19 2.43
-12 -12 3 26.6 3.42
-12 12 3 30.98 3.9
-10 -12 3 29.52 3.41
-10 12 3 30.66 3.59
-8 -12 3 19.73 2.88
-8 12 3 11.74 2.73
-6 -12 3 1.94 1.6
-6 12 3 1.17 1.79
-4 -12 3 15.16 2.71
-2 -12 3 32.61 3.61
2 -12 -3 36.97 2.94
0 -12 3 13.12 2.68
2 -12 3 28.95 3.52
4 -12 3 12.56 2.53
-4 -12 -3 16.55 2.54
6 -12 3 0.94 1.65
-6 -12 -3 -1.75 1.43
-8 -12 -3 8.68 2.27
8 -12 3 8.07 2.16
-10 -12 -3 21.72 3.02
10 -12 3 17.86 3.03
-12 -12 -3 17.98 2.96
12 -12 3 13.53 3.08
-14 -12 -3 3.42 2.23
14 -12 3 -0.04 2.02
-16 -12 -3 0.03 2.4
16 -12 3 -0.06 2.32
-13 -13 3 3.81 2.53
-13 13 3 0.55 2.35
-11 -13 3 3.01 2.27
-11 13 3 3.25 2.18
-9 -13 3 3.1 2.07
-9 13 3 0.7 2.03
-7 -13 3 3.65 2.07
-7 13 3 -2.59 1.83
-5 -13 3 2.52 2.15
-3 -13 3 1.37 1.94
-1 -13 3 -0.37 1.65
1 -13 3 -0.56 1.58
-1 -13 -3 2.81 1.82
3 -13 3 2.57 1.9
-3 -13 -3 1.1 1.74
-5 -13 -3 0.92 1.85
5 -13 3 -1.65 1.61
-7 -13 -3 3.36 2.13
7 -13 3 1.38 1.7
9 -13 3 2.08 2.06
-9 -13 -3 3.01 2.18
-11 -13 -3 4.16 2.39
11 -13 3 2.88 2.33
13 -13 3 2.62 2.45
-6 -14 3 0.07 2.04
-4 -14 3 6 2.49
-2 -14 3 5.94 2.43
0 -14 3 13.07 2.82
0 -14 -3 16.32 2.75
2 -14 3 7.97 2.73
-2 -14 -3 10.59 2.56
-4 -14 -3 5.24 2.37
4 -14 3 6.26 2.38
-6 -14 -3 0.8 2.35
6 -14 3 0.55 1.96
-26 0 4 6.58 2.04
-24 0 4 1.92 1.48
-22 0 4 17.27 2.43
-22 0 4 21.07 2.78
-20 0 4 14.23 2.14
-20 0 4 11.62 2.06
-18 0 4 5.35 1.68
-18 0 4 3.43 1.42
-16 0 4 19.01 2.1
-16 0 4 22 2.28
-14 0 4 2.6 1.13
-14 0 4 0.39 0.94
-12 0 4 2.84 1.01
-12 0 4 3.55 1.12
-10 0 4 49.68 2.5
-10 0 4 48.5 2.14
-8 0 4 307.11 5.2
-8 0 4 301.85 4.79
-6 0 4 302.34 4.94
4 0 -4 407.26 4.83
-4 0 4 405.7 5.45
-2 0 4 29.64 1.42
2 0 -4 31.61 1.55
-2 0 4 28.57 1.68
0 0 4 -0.65 0.59
0 0 4 0.37 0.64
0 0 -4 -1.02 0.51
2 0 4 38.53 1.96
2 0 4 41.25 1.79
-2 0 -4 42.78 1.81
4 0 4 112.31 3.31
-4 0 -4 111.06 2.87
-6 0 -4 73.63 2.49
-8 0 -4 6.24 1.1
-10 0 -4 15.79 1.71
-12 0 -4 40.36 2.28
-14 0 -4 13.28 1.69
-16 0 -4 65.13 3.16
-18 0 -4 34.24 2.74
-20 0 -4 4.46 1.64
-22 0 -4 24.49 2.9
-24 0 -4 18.41 2.8
-26 0 -4 7.92 2.28
-28 0 -4 2.82 2.1
-27 -1 4 -1.24 1.7
-25 -1 4 0.14 1.46
-25 1 4 -0.08 1.48
-23 -1 4 1.41 1.62
-23 1 4 -1.09 1.41
-23 1 4 0.35 1.46
-21 -1 4 0.22 1.41
-21 1 4 0.95 1.47
-21 1 4 4.05 1.55
-19 -1 4 5.54 1.68
-19 -1 4 5.97 1.57
-19 1 4 3.8 1.65
-19 1 4 4.94 1.6
-17 -1 4 5.31 1.51
-17 -1 4 1.83 1.26
-17 1 4 2.38 1.2
-17 1 4 2.23 1.32
-15 -1 4 3.76 1.23
-15 -1 4 1.87 1.17
-15 1 4 4.24 1.26
-15 1 4 2.3 1.11
-13 -1 4 0.49 0.83
-13 -1 4 -0.5 0.79
-13 1 4 0.61 0.96
-13 1 4 0.39 0.95
-11 -1 4 -0.36 0.66
-11 -1 4 -0.34 0.77
-11 1 4 -1 0.75
-11 1 4 -0.12 0.83
-9 -1 4 24.99 1.87
-9 -1 4 26.1 1.56
-9 1 4 27.43 1.92
-9 1 4 25.41 1.8
-7 -1 4 25.38 1.8
-7 1 4 25.75 1.82
-7 1 4 26.93 1.76
7 1 -4 24.78 1.4
-5 -1 4 4.86 0.82
-5 -1 4 5.27 1.08
5 -1 -4 5.54 0.98
-5 1 4 6.25 1.17
5 1 -4 4.37 0.76
3 -1 -4 -0.19 0.56
-3 -1 4 0.09 0.64
-3 -1 4 0.36 0.57
-3 1 4 0.23 0.67
3 1 -4 -0.6 0.47
-1 -1 4 2.84 0.81
1 -1 -4 1.73 0.76
-1 -1 4 2.74 0.84
1 1 -4 2.25 0.73
-1 1 4 3.17 0.87
1 -1 4 1.35 0.7
-1 -1 -4 3.05 0.83
1 -1 4 3.71 0.92
-1 1 -4 1.85 0.73
1 1 4 1.37 0.77
-3 -1 -4 13.57 1.36
3 -1 4 13.68 1.59
3 -1 4 13.68 1.2
-3 1 -4 11.56 1.31
-5 -1 -4 7.53 1.18
5 -1 4 11.37 1.58
-5 1 -4 8.24 1.19
7 -1 4 14.21 1.78
-7 -1 -4 13.45 1.48
-7 1 -4 17.15 1.63
9 -1 4 0 0.94
-9 -1 -4 -0.87 0.67
-9 1 -4 -0.37 0.63
-11 -1 -4 -1.05 0.62
-11 1 -4 -0.29 0.71
-13 -1 -4 4.48 1.23
-13 -1 -4 3.53 0.92
-13 1 -4 5.93 1.3
-15 -1 -4 1.36 1.01
-15 1 -4 0.72 1
-17 -1 -4 0.23 1.06
-17 1 -4 0.07 1.1
-19 -1 -4 14.32 2.09
-19 1 -4 16.64 2.34
-21 -1 -4 5.16 1.73
-21 1 -4 2.55 1.55
-23 -1 -4 3.64 1.62
-23 1 -4 2.06 1.69
-25 -1 -4 1.77 1.8
-25 1 -4 -2.55 1.56
-27 -1 -4 2.84 2.03
-27 1 -4 0.57 1.93
-28 -2 4 19.02 3.07
-26 -2 4 5.01 2.22
-26 2 4 3.46 2.16
-24 -2 4 -1.02 1.4
-24 2 4 -1.47 1.54
-24 2 4 0.76 1.44
-22 -2 4 7.69 2.11
-22 2 4 12.5 2.07
-22 2 4 8.59 2.09
-20 -2 4 12.62 2.21
-20 2 4 11.61 2.28
-20 2 4 12.25 1.99
-18 -2 4 4.7 1.69
-18 2 4 13.16 2.06
-18 2 4 7.02 1.58
-16 -2 4 6.52 1.57
-16 2 4 4.77 1.41
-16 2 4 3.59 1.43
-14 -2 4 0.54 0.8
-14 -2 4 0.52 1.18
-14 2 4 -0.13 0.99
-14 2 4 -0.56 0.97
-12 -2 4 -0.31 0.67
-12 -2 4 -0.72 0.87
-12 2 4 0.02 0.94
-12 2 4 1.39 0.9
-10 -2 4 2.17 0.98
-10 -2 4 1.86 0.72
-10 2 4 1.33 0.88
-10 2 4 0.76 0.9
-8 -2 4 159.59 3.91
-8 2 4 166.22 4.01
8 2 -4 165.94 2.84
-8 2 4 161.82 4.01
-6 -2 4 205.04 3.54
-6 -2 4 211.89 4.16
6 2 -4 201.72 2.95
-6 2 4 198.25 4.16
-6 2 4 208.74 4.35
4 -2 -4 4.95 1.06
-4 -2 4 3.98 0.87
-4 -2 4 4.93 0.96
4 2 -4 4.8 0.73
-4 2 4 4.7 1.06
-2 -2 4 0.98 0.68
2 -2 -4 0.67 0.66
-2 -2 4 1.91 0.75
-2 2 4 1.35 0.82
2 2 -4 1.41 0.58
0 -2 4 40.46 2.02
0 -2 4 43.71 1.77
0 -2 -4 36.86 1.83
0 2 -4 40.87 1.61
0 2 4 41.47 2
2 -2 4 29.46 1.46
2 -2 4 26.59 1.78
-2 -2 -4 28.58 1.65
-2 2 -4 29.16 1.51
4 -2 4 69.22 2.72
-4 -2 -4 70.23 2.47
-4 2 -4 68.85 2.27
6 -2 4 9.17 1.61
-6 -2 -4 9.06 1.27
-6 2 -4 8.59 1.21
8 -2 4 24.4 2.3
-8 -2 -4 20.89 1.69
-8 2 -4 22.16 1.66
10 -2 4 -0.42 0.83
-10 -2 -4 -0.21 0.74
-10 2 -4 -0.73 0.65
12 -2 4 53.08 3.12
-12 -2 -4 55.14 2.59
-12 2 -4 48.16 2.55
-14 -2 -4 184.55 4.04
-14 -2 -4 177.57 4.65
-14 2 -4 184.72 4.96
-16 -2 -4 57.71 2.55
-16 -2 -4 55.03 2.98
-16 2 -4 57.95 3.17
-18 -2 -4 30.56 2.52
-18 -2 -4 35.83 2.28
-18 2 -4 39.55 2.94
-20 -2 -4 3.21 1.59
-20 2 -4 4.83 1.67
-22 -2 -4 10.91 2.14
-22 2 -4 11.75 2.28
-24 -2 -4 23.32 2.89
-24 2 -4 14.33 2.45
-26 -2 -4 14.68 2.67
-26 2 -4 12.52 2.69
-28 -2 -4 6.29 2.38
-28 2 -4 4.91 2.31
-27 -3 4 8.18 2.6
-27 3 4 3.86 2.48
-25 -3 4 5.55 2.25
-25 3 4 0.05 1.84
-23 -3 4 2.68 1.85
-23 3 4 2.95 2.03
-21 -3 4 0.87 1.56
-21 3 4 -0.67 1.33
-21 3 4 -0.62 1.47
-19 -3 4 0.68 1.28
-19 3 4 1.27 1.27
-19 3 4 -1.68 1.3
-17 -3 4 -0.07 1.19
-17 3 4 0.67 1.23
-17 3 4 2.64 1.45
-15 -3 4 2.1 1.29
-15 3 4 2.16 1.33
-15 3 4 1.79 1.24
-13 -3 4 18.72 2.14
-13 3 4 19.86 2.27
-13 3 4 13.1 1.77
-11 -3 4 8.96 1.53
-11 3 4 10.72 1.7
-11 3 4 11.36 1.59
-9 -3 4 44.39 2.41
-9 3 4 51.07 2.38
-9 3 4 48.33 2.51
-7 -3 4 11.35 1.5
-7 3 4 10.7 1.52
-7 3 4 7.81 1.29
-5 -3 4 26.82 1.79
-5 -3 4 23.17 1.57
-5 3 4 22 1.99
-5 3 4 23.93 1.92
3 -3 -4 0.15 0.77
-3 -3 4 -0.72 0.58
-3 -3 4 0.12 0.62
-3 3 4 1.51 0.83
-1 -3 4 2.53 0.88
1 -3 -4 1.67 0.83
-1 -3 4 1.64 0.71
1 3 -4 2.76 0.65
1 -3 4 6.31 0.92
1 -3 4 7.94 1.39
-1 -3 -4 7.07 1.15
-1 3 -4 8.17 0.97
-3 -3 -4 15.65 1.56
3 -3 4 16.62 1.82
-3 3 -4 15.37 1.26
-5 -3 -4 0.97 0.82
5 -3 4 -0.5 0.77
-5 3 -4 1.52 0.71
7 -3 4 8.85 1.53
-7 -3 -4 5.06 1.12
-7 3 -4 5.85 1.11
-9 -3 -4 10.31 1.53
9 -3 4 6.76 1.53
-9 3 -4 9.93 1.44
-11 -3 -4 17.4 1.88
11 -3 4 17.75 2.32
-11 3 -4 15.08 1.87
-13 -3 -4 7.9 1.39
13 -3 4 7.06 1.74
-13 -3 -4 6.88 1.28
-13 3 -4 6.19 1.4
-15 -3 -4 0.9 0.96
-15 -3 -4 1.71 1.07
-15 3 -4 0.14 1.01
-17 -3 -4 1.45 1.23
-17 -3 -4 3.05 1.15
-17 3 -4 2.5 1.43
-19 -3 -4 -0.2 1.21
-19 -3 -4 3.16 1.29
-19 3 -4 4.78 1.59
-21 -3 -4 11.72 2.19
-21 3 -4 11.01 2.16
-23 -3 -4 8.9 2.26
-23 3 -4 4.91 1.73
-25 -3 -4 2.43 1.71
-25 3 -4 -0.81 1.59
-27 -3 -4 3.74 2.22
-27 3 -4 2.9 2.22
-26 -4 4 -0.3 2
-26 4 4 2.83 2.38
-24 -4 4 3.82 2.2
-24 4 4 -0.39 1.87
-22 -4 4 7.87 2.38
-22 4 4 7.11 2.4
-20 -4 4 16.7 2.57
-20 4 4 18.28 2.42
-20 4 4 16.97 2.82
-18 -4 4 3.39 1.67
-18 4 4 2.6 1.6
-18 4 4 7.37 1.66
-16 -4 4 6.4 1.78
-16 4 4 7.91 1.63
-16 4 4 8.99 1.89
-14 -4 4 4.56 1.49
-14 4 4 5.39 1.65
-14 4 4 5.02 1.34
-12 -4 4 14.31 1.89
-12 4 4 11.59 1.7
-12 4 4 14.23 1.97
-10 -4 4 7.97 1.46
-10 4 4 8.18 1.63
-10 4 4 7.82 1.44
-8 -4 4 80.79 3.11
-8 4 4 82.79 3.07
-8 4 4 82.85 3.25
-6 -4 4 102.2 3.1
-6 -4 4 99.21 3.19
-6 4 4 95.58 3.25
-6 4 4 102.2 3.48
-4 -4 4 24.23 1.72
-4 -4 4 23.48 1.7
-2 -4 4 7.76 1.29
-2 -4 4 8.46 1.18
2 -4 -4 9.52 1.44
0 -4 4 3.7 1.05
0 -4 -4 5.75 1.2
0 -4 4 4.86 0.88
0 4 -4 4.36 0.78
2 -4 4 14.7 1.84
-2 -4 -4 14.11 1.54
-2 4 -4 10.48 1.13
4 -4 4 -0.45 0.88
-4 -4 -4 -0.5 0.67
-4 4 -4 0.81 0.68
6 -4 4 56.37 2.81
-6 -4 -4 56.84 2.47
-6 4 -4 53.57 2.31
8 -4 4 17.22 2.13
-8 -4 -4 21.72 2.02
-8 4 -4 21.86 2.01
10 -4 4 2.3 1.12
-10 -4 -4 4.64 1.2
-10 4 -4 4.92 1.27
-12 -4 -4 26.81 2.37
12 -4 4 27.84 2.84
-12 4 -4 26.77 2.23
-14 -4 -4 62.97 3
-14 -4 -4 68.24 2.96
14 -4 4 71.05 3.8
-14 4 -4 72.85 3.43
-16 -4 -4 56.72 3.01
-16 -4 -4 50.69 2.75
16 -4 4 49.86 3.58
-16 4 -4 57.25 3.35
-18 -4 -4 20.73 2.16
-18 -4 -4 17.37 2.3
-18 4 -4 21.84 2.72
-20 -4 -4 0.92 1.19
-20 -4 -4 1.71 1.45
-20 4 -4 -0.14 1.39
-22 -4 -4 4.8 1.88
-22 4 -4 9.56 2.17
-24 -4 -4 11.61 2.36
-24 4 -4 4.5 2.04
-26 -4 -4 13.02 2.62
-26 4 -4 9.41 2.43
-25 -5 4 3.87 2.35
-25 5 4 7.79 2.78
-23 -5 4 15.98 2.99
-23 5 4 9.22 2.51
-21 -5 4 12.64 2.79
-21 5 4 6.79 2.44
-19 -5 4 3.35 1.72
-19 5 4 0.16 1.25
-19 5 4 1.86 1.75
-17 -5 4 -0.91 1.39
-17 5 4 -0.78 1.1
-17 5 4 0.26 1.39
-15 -5 4 4.76 1.57
-15 5 4 0.65 1.4
-15 5 4 5.68 1.5
-13 -5 4 11.68 1.77
-13 5 4 13.5 1.85
-13 5 4 14.7 2.24
-11 -5 4 33.48 2.44
-11 5 4 36.35 2.64
-11 5 4 31.97 2.4
-9 -5 4 35.34 2.3
-9 5 4 32.73 2.38
-9 5 4 33.76 2.36
-7 -5 4 9.23 1.46
-7 5 4 5.01 1.34
-7 5 4 8.18 1.48
-5 -5 4 19.91 1.84
-5 -5 4 20.87 2.06
-5 5 4 15.89 1.97
-3 -5 4 34.89 1.96
3 -5 -4 36.8 2.25
-3 -5 4 36.65 2.24
1 -5 -4 72.29 2.8
-1 -5 4 71.73 2.95
-1 -5 4 70.85 2.35
-1 -5 -4 17.06 1.8
1 -5 4 13.84 1.8
-1 5 -4 13.01 1.24
3 -5 4 0.26 0.94
-3 -5 -4 0.87 0.77
-3 5 -4 -0.4 0.62
-5 -5 -4 3.9 1.15
5 -5 4 2.67 1.19
-5 5 -4 7.36 1.17
-7 -5 -4 35.55 2.22
7 -5 4 33.89 2.46
-7 5 -4 34.86 2.1
9 -5 4 47.37 2.9
-9 -5 -4 55.08 2.63
-9 5 -4 55.86 2.72
11 -5 4 27.75 2.8
-11 -5 -4 29.5 2.19
-11 5 -4 31.25 2.4
-13 -5 -4 16.78 1.9
13 -5 4 17 2.57
-13 -5 -4 14.34 1.93
-13 5 -4 17.37 2.21
-15 -5 -4 1.96 1.25
15 -5 4 -1.27 1.38
-15 -5 -4 1.64 1.21
-15 5 -4 1.16 1.19
-17 -5 -4 2.06 1.25
-17 -5 -4 1.98 1.33
17 -5 4 2 1.71
-17 5 -4 0.05 1.2
-19 -5 -4 14.02 2.21
-19 -5 -4 14.41 2.1
-19 5 -4 15 2.49
-21 -5 -4 14.11 2.17
-21 -5 -4 17.36 2.41
-21 5 -4 11.61 2.31
-23 -5 -4 2.13 1.85
-23 -5 -4 1.7 1.51
-23 5 -4 3.25 2.02
-25 5 -4 0.98 1.96
-24 -6 4 -2.05 2.3
-24 6 4 -2.96 2.01
-22 -6 4 0.01 2.11
-22 6 4 1.07 2.07
-20 -6 4 -0.04 1.68
-20 6 4 0.33 1.67
-18 -6 4 9.5 2.17
-18 6 4 10.38 2.36
-16 -6 4 7.93 1.92
-16 6 4 4.89 1.6
-16 6 4 2.8 1.65
-14 -6 4 1.23 1.5
-14 6 4 1.64 1.25
-14 6 4 2.67 1.4
-12 -6 4 -0.03 1.23
-12 6 4 -0.14 1.14
-12 6 4 -0.04 1.1
-10 -6 4 16.08 2.04
-10 6 4 13.81 2.11
-8 -6 4 44.62 2.61
-8 6 4 46.55 2.86
-6 -6 4 97.93 3.37
-6 6 4 94.75 3.7
-4 -6 4 84.2 2.92
-4 -6 4 81.15 3.3
2 -6 -4 18.09 2
-2 -6 4 20.19 2.18
-2 -6 4 17.95 1.61
0 -6 4 0.43 0.96
0 -6 -4 0.95 0.88
0 -6 4 0.47 0.66
-2 -6 -4 26.07 1.95
2 -6 4 25.09 2.43
-2 6 -4 23.66 1.52
4 -6 4 31.07 2.33
-4 -6 -4 34.19 2.22
-4 6 -4 34.26 1.94
6 -6 4 0.54 1.11
-6 -6 -4 1.11 0.93
-6 6 -4 1.35 0.86
8 -6 4 15.95 2.23
-8 -6 -4 17.18 1.98
-8 6 -4 15.83 1.86
10 -6 4 8.53 1.89
-10 -6 -4 10.64 1.62
-10 6 -4 10.51 1.71
-12 -6 -4 8.74 1.55
-12 -6 -4 9.65 1.6
12 -6 4 6.93 1.83
-12 6 -4 8.75 1.73
-14 -6 -4 32.18 2.49
14 -6 4 26.63 3.16
-14 -6 -4 30.23 2.72
-14 6 -4 32.61 3.01
-16 -6 -4 17.36 2.11
-16 -6 -4 22.36 2.45
16 -6 4 20.07 2.79
-16 6 -4 24.97 2.9
-18 -6 -4 4.79 1.48
18 -6 4 3.52 1.89
-18 -6 -4 2.99 1.38
-18 6 -4 5.89 1.95
20 -6 4 1.82 1.89
-20 -6 -4 1.55 1.53
-20 -6 -4 -0.85 1.52
-20 6 -4 1.01 1.58
-22 -6 -4 5.08 1.75
-22 6 -4 5.6 2.24
-24 -6 -4 2.9 1.73
-24 6 -4 5.83 2.19
-23 -7 4 2.97 2.44
-23 7 4 -0.37 2.07
-21 -7 4 7.25 2.31
-21 7 4 -1.27 2.02
-19 -7 4 3.07 1.86
-19 7 4 -1.93 1.66
-17 -7 4 -2.33 1.52
-17 7 4 1.01 1.63
-15 -7 4 21.16 2.87
-15 7 4 25.46 3.21
-13 -7 4 10.29 2.05
-13 7 4 14.04 2.37
-11 -7 4 9.57 1.86
-11 7 4 14.46 2.31
-9 -7 4 9.72 1.78
-9 7 4 7.93 1.76
-7 -7 4 5.43 1.41
-7 7 4 4.22 1.39
-5 -7 4 14.25 1.75
-5 -7 4 13.36 1.89
-5 7 4 11.37 1.91
-3 -7 4 58.96 3.07
-3 -7 4 63.93 2.69
3 -7 -4 61.7 3.06
1 -7 -4 67.08 3
-1 -7 4 66.86 3.25
-1 -7 4 61.69 2.44
-1 -7 -4 50.02 2.67
1 -7 4 49.28 2.93
-3 -7 -4 5.34 1.32
3 -7 4 2.98 1.23
-3 7 -4 3.28 1.02
-5 -7 -4 11.59 1.62
5 -7 4 10.82 1.94
-5 7 -4 14.81 1.68
7 -7 4 11.56 2.06
-7 -7 -4 17.54 2
-7 7 -4 15.05 1.85
-9 -7 -4 3.58 1.32
9 -7 4 3.48 1.49
-9 7 -4 4.94 1.41
-11 -7 -4 35.15 2.49
11 -7 4 32.57 3.31
-11 7 -4 36.92 2.69
-13 -7 -4 9.35 1.74
13 -7 4 7.3 2.04
-13 -7 -4 6.46 1.57
-13 7 -4 4.7 1.56
-15 -7 -4 1.32 1.24
15 -7 4 -1.23 1.4
-15 -7 -4 -0.53 1.1
-15 7 -4 0.38 1.42
17 -7 4 6.05 1.94
-17 -7 -4 6.47 1.76
-17 -7 -4 5.59 1.79
-17 7 -4 8.65 2.02
-19 -7 -4 30.78 3.05
19 -7 4 23.88 3.39
-19 7 -4 29.65 3.33
21 -7 4 22.31 3.49
-21 -7 -4 21.48 2.83
-21 7 -4 22.39 3.16
-23 -7 -4 7.48 2.1
-23 7 -4 -1.02 1.99
-22 -8 4 1.61 2.29
-22 8 4 1.58 2.31
-20 -8 4 0.03 2.15
-20 8 4 3.95 2.29
-18 -8 4 0.54 1.96
-18 8 4 6.82 2.37
-16 -8 4 -2.22 1.65
-16 8 4 -0.65 1.59
-14 -8 4 -2.76 1.38
-14 8 4 -0.3 1.42
-12 -8 4 -1.19 1.32
-12 8 4 0.01 1.53
-10 -8 4 1.44 1.23
-10 8 4 0.67 1.49
-8 -8 4 2.3 1.36
-8 8 4 2.59 1.35
-6 -8 4 19.49 2.12
-6 8 4 22.36 2.48
-4 -8 4 19.82 2.07
-4 -8 4 18.44 2.38
2 -8 -4 0.38 1.13
-2 -8 4 1.1 0.96
-2 -8 4 1.48 1.24
0 -8 4 9.85 1.82
0 -8 -4 8.09 1.55
2 -8 4 15.71 2.33
-2 -8 -4 19.34 2.13
-4 -8 -4 3.71 1.23
4 -8 4 2.77 1.4
-6 -8 -4 -0.5 1.09
6 -8 4 -0.59 1.11
-6 8 -4 1.48 1.08
8 -8 4 4.82 1.72
-8 -8 -4 4.47 1.37
-8 8 -4 7.72 1.6
10 -8 4 1.41 1.48
-10 -8 -4 -0.15 1.19
-10 8 -4 1.91 1.27
-12 -8 -4 16.66 2.28
12 -8 4 15.17 2.63
-12 -8 -4 18.86 2.17
-12 8 -4 16.58 2.35
14 -8 4 31.03 3.5
-14 -8 -4 32.69 2.67
-14 -8 -4 33.56 3.07
-14 8 -4 28.78 3.09
-16 -8 -4 17.53 2.39
16 -8 4 21.19 3.06
-16 8 -4 14.26 2.5
-18 -8 -4 -0.02 1.6
18 -8 4 1.4 1.88
-18 8 -4 2.1 1.88
20 -8 4 1.96 1.94
-20 -8 -4 -1.04 1.86
-20 8 -4 -0.84 1.71
-22 -8 -4 -0.43 1.89
22 -8 4 -0.7 1.96
-22 8 -4 0.32 2.17
-21 -9 4 0.36 2.46
-21 9 4 4.23 2.86
-19 -9 4 0.57 2.23
-19 9 4 2.5 2.38
-17 -9 4 2.97 2.08
-17 9 4 8.22 2.68
-15 -9 4 16.83 2.73
-15 9 4 18.38 2.99
-13 -9 4 25.42 3.01
-13 9 4 31.02 3.64
-11 -9 4 19.66 2.51
-11 9 4 17.13 2.65
-9 -9 4 18.24 2.49
-9 9 4 18.92 2.77
-7 -9 4 -0.11 1.17
-7 9 4 2.48 1.46
-5 -9 4 9.64 1.64
-5 -9 4 11.1 2.15
3 -9 -4 12.86 2.03
-3 -9 4 23.51 2.82
-3 -9 4 20.92 2
-1 -9 4 38.39 3.11
-1 -9 4 38.73 2.29
1 -9 -4 34.65 2.65
1 -9 4 6.9 1.79
-1 -9 -4 9.13 1.71
-3 -9 -4 5.91 1.51
3 -9 4 9.24 2.03
5 -9 4 -0.33 1.07
-5 -9 -4 0.08 1.16
-7 -9 -4 3.11 1.3
7 -9 4 1.1 1.47
9 -9 4 33.38 3.7
-9 -9 -4 34.37 2.57
-9 9 -4 33.97 2.76
-11 -9 -4 46.43 3.25
11 -9 4 55.25 3.93
-11 -9 -4 51.25 3.01
-11 9 -4 51.33 3.32
13 -9 4 22.65 3.17
-13 -9 -4 27.38 3.01
-13 9 -4 23.48 2.86
15 -9 4 1.69 1.79
-15 -9 -4 -0.12 1.6
-15 9 -4 0.01 1.61
-17 -9 -4 2.47 1.9
17 -9 4 1.57 1.89
-17 9 -4 2.07 1.92
-19 -9 -4 19.66 3.1
19 -9 4 12.59 2.98
-19 9 -4 18.5 3.11
21 -9 4 8.39 2.73
-21 -9 -4 9.42 2.65
-21 9 -4 13.36 2.91
-18 -10 4 -0.14 2.18
-18 10 4 1.81 2.21
-16 -10 4 -0.13 1.91
-16 10 4 -1.19 1.78
-14 -10 4 -0.1 1.82
-14 10 4 0.42 1.76
-12 -10 4 -0.27 1.72
-12 10 4 -2.09 1.51
-10 -10 4 0.83 1.48
-10 10 4 3.6 1.77
-8 -10 4 2.16 1.51
-8 10 4 -1.19 1.46
-6 -10 4 4.64 1.82
-6 -10 4 4.36 1.6
-6 10 4 3.46 1.84
-4 -10 4 1.91 1.15
4 -10 -4 -1.2 1.13
-4 -10 4 -1.69 1.29
2 -10 -4 0.4 1.17
-2 -10 4 1.85 1.5
0 -10 -4 6.24 1.71
0 -10 4 11.21 2.23
-2 -10 -4 0.99 1.24
2 -10 4 1.26 1.36
-4 -10 -4 2.44 1.33
4 -10 4 3.86 1.59
6 -10 4 -0.66 1.42
-6 -10 -4 -0.68 1.19
8 -10 4 -0.36 1.32
-8 -10 -4 2.74 1.41
-10 -10 -4 -0.02 1.55
10 -10 4 -0.16 1.53
-12 -10 -4 1.77 1.73
12 -10 4 1.92 1.72
-12 10 -4 2.62 1.9
14 -10 4 4.08 2.13
-14 -10 -4 1.37 1.83
-14 10 -4 3.73 1.92
-16 -10 -4 -0.76 1.66
16 -10 4 3.92 2.2
-16 10 -4 5.93 2.2
-18 -10 -4 2.28 2.07
18 -10 4 0.83 2.21
-18 10 -4 0.24 1.97
-20 -10 -4 -1.62 2.19
20 -10 4 -0.41 2.39
-20 10 -4 -0.65 2.04
-17 -11 4 -1.75 2.16
-17 11 4 -0.75 2.36
-15 -11 4 10.21 2.77
-15 11 4 6.8 2.31
-13 -11 4 18.06 3
-13 11 4 17.14 3.19
-11 -11 4 15.97 2.67
-11 11 4 12.37 2.82
-9 -11 4 7.26 2.02
-9 11 4 6.92 2.28
-7 -11 4 3.06 1.6
-7 11 4 -2.26 1.53
-5 -11 4 9 2.37
-5 -11 4 12.42 2.04
-3 -11 4 21.16 2.96
3 -11 -4 17.93 2.35
1 -11 -4 30.7 2.91
-1 -11 4 25.58 3.22
-1 -11 -4 33.98 2.8
1 -11 4 25.58 3.21
3 -11 4 1.48 1.61
-3 -11 -4 1.22 1.3
-5 -11 -4 -1.3 1.34
5 -11 4 1.58 1.66
-7 -11 -4 21.18 2.9
7 -11 4 17.25 2.83
-9 -11 -4 28.53 3.18
9 -11 4 19.82 3
-11 -11 -4 33.92 3.53
11 -11 4 32.17 3.86
-13 -11 -4 16.09 2.85
13 -11 4 11.57 2.8
15 -11 4 0.57 2.14
-15 -11 -4 -0.15 2.08
-17 -11 -4 5.59 2.4
17 -11 4 6.06 2.57
-17 11 -4 6.49 2.5
-14 -12 4 1.29 2.41
-14 12 4 -1.53 2.19
-12 -12 4 2.19 2.07
-12 12 4 2.72 2.15
-10 -12 4 -0.05 1.91
-10 12 4 2.05 2.12
-8 -12 4 -2.21 1.64
-8 12 4 0.41 2.06
-6 -12 4 -0.91 1.67
4 -12 -4 -0.29 1.5
-4 -12 4 2.12 1.79
2 -12 -4 1.48 1.43
-2 -12 4 0.83 1.73
0 -12 4 5.27 2.12
0 -12 -4 3.45 1.57
2 -12 4 1.77 1.83
4 -12 4 0.79 1.7
6 -12 4 0.17 1.58
-6 -12 -4 1.62 1.84
8 -12 4 1.45 1.88
-8 -12 -4 1.66 1.75
-10 -12 -4 0.05 2.05
10 -12 4 1.08 1.89
12 -12 4 1.38 2.1
-12 -12 -4 -1.7 1.97
14 -12 4 1.61 2.49
-14 -12 -4 1.49 2.21
-11 -13 4 11.51 2.59
-11 13 4 11.38 2.97
-9 -13 4 6.75 2.58
-9 -13 4 6.63 2.3
-7 -13 4 -1.23 1.91
5 -13 -4 3.85 1.91
-5 -13 4 2.11 2.22
-3 -13 4 19.92 3.33
3 -13 -4 13.87 2.52
-1 -13 4 21.35 3.27
1 -13 4 23.53 3.57
3 -13 4 -0.57 1.77
5 -13 4 6.96 2.44
-5 -13 -4 2.71 2.28
-7 -13 -4 2.85 2.14
7 -13 4 1.97 2.07
-9 -13 -4 12.36 2.93
9 -13 4 5.34 2.58
11 -13 4 4.11 2.65
-2 -14 4 -1.61 2.2
0 -14 4 3.09 2.45
2 -14 4 1.92 2.28
-2 -14 -4 -0.41 2.36
-4 -14 -4 9.73 2.79
4 -14 4 4.98 2.73
-26 0 5 0.15 1.73
-24 0 5 3.5 1.81
-22 0 5 3.17 1.9
-20 0 5 -0.31 1.54
-18 0 5 1.15 1.42
-18 0 5 1.21 1.3
-16 0 5 0.8 1.15
-16 0 5 0.3 1.22
-14 0 5 1.79 1.14
-14 0 5 -0.11 1
-12 0 5 -0.19 0.95
-12 0 5 -1.04 0.82
-10 0 5 -0.76 0.78
-10 0 5 0.55 0.87
8 0 -5 -0.6 0.66
-8 0 5 0.42 0.78
-6 0 5 0.56 0.82
6 0 -5 -0.31 0.58
-4 0 5 -0.82 0.74
4 0 -5 0.53 0.61
-2 0 5 -0.56 0.65
2 0 -5 -0.61 0.54
-2 0 5 0.16 0.72
0 0 5 0.1 0.73
0 0 -5 0.63 0.67
0 0 5 0.2 0.7
2 0 5 0.74 0.73
2 0 5 -0.58 0.77
-2 0 -5 0.52 0.72
4 0 5 0.2 0.96
-4 0 -5 0 0.68
-6 0 -5 0.95 0.75
-8 0 -5 -0.5 0.66
-10 0 -5 -0.43 0.75
-12 0 -5 -0.94 0.82
-14 0 -5 -0.71 0.9
-16 0 -5 0.62 1.08
-18 0 -5 1.42 1.43
-20 0 -5 -0.28 1.33
-22 0 -5 2.11 1.61
-24 0 -5 -0.43 1.79
-26 0 -5 0.6 1.98
-27 -1 5 1.74 2.36
-25 -1 5 4.81 2.34
-25 1 5 5.65 2.04
-23 -1 5 16.47 2.76
-23 1 5 15.76 2.61
-21 -1 5 14.92 2.63
-21 1 5 15.98 2.37
-21 1 5 14.47 2.28
-19 -1 5 33.46 3.31
-19 1 5 32.85 3.1
-19 1 5 29.75 2.93
-17 -1 5 24.19 2.72
-17 1 5 19.94 2.42
-17 1 5 21.46 2.46
-15 -1 5 -0.11 1.02
-15 -1 5 -0.79 0.99
-15 1 5 1.86 1.21
-15 1 5 -0.44 0.97
-13 -1 5 5.28 1.2
-13 -1 5 5.01 1.4
-13 1 5 6.01 1.44
-13 1 5 5.27 1.36
-11 -1 5 57.23 2.91
-11 1 5 54.69 2.84
-11 1 5 57.64 2.8
-9 -1 5 97.6 3.51
9 1 -5 104.01 2.86
-9 1 5 99.14 3.45
-9 1 5 101.18 3.41
-7 -1 5 26.61 1.97
7 -1 -5 29.97 1.92
-7 1 5 26.71 2.03
7 1 -5 31.03 1.63
-5 -1 5 22.65 1.5
-5 -1 5 22.22 1.81
5 -1 -5 24.01 1.65
5 1 -5 25.78 1.52
-5 1 5 25.55 1.93
-3 -1 5 3.87 0.97
3 -1 -5 4.54 1.01
-3 -1 5 5.04 1.15
3 1 -5 6.02 0.98
-3 1 5 3.04 0.96
-1 -1 5 22.87 1.63
1 -1 -5 20.68 1.58
-1 -1 5 20.95 1.78
1 1 -5 21.15 1.47
-1 1 5 21.84 1.91
-1 -1 -5 93.34 2.96
1 -1 5 94.74 2.71
1 -1 5 96.06 3.06
-1 1 -5 95.99 2.77
1 1 5 94.13 3.01
3 -1 5 158.2 3.44
-3 -1 -5 157.4 3.78
3 -1 5 157.99 4.07
-3 1 -5 156.38 3.6
-5 -1 -5 5.26 1.09
5 -1 5 6.38 1.44
-5 1 -5 5.03 1.12
-7 -1 -5 1.88 0.93
7 -1 5 2.14 1.07
-7 1 -5 1.26 0.81
-9 -1 -5 18.76 1.95
-9 1 -5 20.34 1.98
-11 -1 -5 47.3 2.55
-11 1 -5 50.33 2.61
-13 -1 -5 20.26 2.11
-13 1 -5 19.25 2.15
-15 -1 -5 42.77 2.74
-15 1 -5 43.68 2.77
-17 -1 -5 42.11 2.93
-17 1 -5 42.53 2.97
-19 -1 -5 -0.34 1.24
-19 1 -5 -1 1.34
-21 -1 -5 6.89 1.91
-21 1 -5 13.46 2.32
-23 -1 -5 33.04 3.35
-23 1 -5 27.1 3.29
-25 -1 -5 9.12 2.38
-25 1 -5 17.57 3.08
-27 -1 -5 3.76 2.28
-27 1 -5 4.28 2.33
-26 -2 5 6.9 2.75
-24 -2 5 0.05 1.98
-24 2 5 1.29 1.58
-24 2 5 1.68 1.97
-22 -2 5 -0.94 1.68
-22 2 5 0.63 1.54
-22 2 5 0.56 1.66
-20 -2 5 1.99 1.85
-20 2 5 -1.78 1.36
-20 2 5 0.48 1.36
-18 -2 5 3.41 1.49
-18 2 5 4.82 1.5
-18 2 5 3.4 1.63
-16 -2 5 1.26 1.29
-16 2 5 0.67 1.28
-16 2 5 3.65 1.52
-14 -2 5 -2.03 0.89
-14 2 5 -0.59 1.01
-14 2 5 -0.87 1.01
-12 -2 5 1 0.96
-12 2 5 2.07 1.23
-12 2 5 1.72 1.07
-10 -2 5 7.84 1.44
10 2 -5 6.8 0.99
-10 2 5 9.23 1.57
-10 2 5 7.75 1.55
-8 -2 5 -0.04 0.59
-8 -2 5 0.06 0.88
-8 2 5 3.01 1.11
8 2 -5 0.11 0.53
-8 2 5 0.92 0.89
6 -2 -5 6.97 1.29
-6 -2 5 4.84 1.2
-6 -2 5 6.96 1.06
-6 2 5 6.18 1.19
6 2 -5 5.43 0.87
4 -2 -5 3.88 0.97
-4 -2 5 3.89 0.99
-4 -2 5 6.84 1.15
4 2 -5 6.28 0.96
-4 2 5 5.47 1.17
2 -2 -5 10.24 1.34
-2 -2 5 13.44 1.64
-2 -2 5 9.83 1.3
-2 2 5 11.84 1.58
2 2 -5 12.32 1.22
0 -2 5 20.1 1.68
0 -2 5 20.81 1.58
0 -2 -5 24.11 1.7
0 2 -5 20.13 1.44
0 2 5 20.79 1.88
-2 -2 -5 4.85 1.22
2 -2 5 5.94 1.03
2 -2 5 5.4 1.18
-2 2 -5 6.08 1.04
4 -2 5 1.64 0.99
-4 -2 -5 1.85 0.88
-4 2 -5 1.48 0.79
-6 -2 -5 5.59 1.2
6 -2 5 7.13 1.53
-6 2 -5 4.5 1.03
8 -2 5 -0.19 0.95
-8 -2 -5 0.28 0.79
-8 2 -5 -0.13 0.72
10 -2 5 -1.43 0.96
-10 -2 -5 -0.5 0.69
-10 2 -5 0.82 0.82
-12 -2 -5 9.42 1.66
-12 2 -5 7.04 1.36
-14 -2 -5 16.4 2.08
-14 2 -5 14.41 2.01
-16 -2 -5 1.32 1.19
-16 -2 -5 0.07 0.94
-16 2 -5 -0.97 1.19
-18 -2 -5 11.97 2.15
-18 2 -5 8.62 1.82
-20 -2 -5 7.7 1.93
-20 2 -5 7.84 1.83
-22 -2 -5 1.07 1.6
-22 2 -5 0.85 1.54
-24 -2 -5 -0.8 1.61
-24 2 -5 3.15 1.96
-26 -2 -5 -1.22 1.83
-26 2 -5 0.99 1.93
-25 -3 5 2.03 2.32
-25 3 5 4.18 2.28
-23 -3 5 17.24 2.93
-23 3 5 12.91 2.47
-23 3 5 18.57 2.99
-21 -3 5 43.4 4.04
-21 3 5 43.47 4
-21 3 5 39.75 3.57
-19 -3 5 30.58 3.34
-19 3 5 25.23 2.82
-19 3 5 34.77 3.51
-17 -3 5 10.69 2.04
-17 3 5 13.49 2.17
-17 3 5 8.72 1.98
-15 -3 5 0.02 1.25
-15 3 5 0.57 1.18
-15 3 5 -0.39 1.1
-13 -3 5 -0.27 1.13
-13 3 5 -0.13 0.99
-13 3 5 2.72 1.26
-11 -3 5 2.12 1.11
-11 3 5 4.3 1.39
-11 3 5 1.79 0.98
-9 -3 5 48.13 2.21
-9 -3 5 43.62 2.55
-9 3 5 46.21 2.62
-9 3 5 50.15 2.63
-7 -3 5 3.63 0.99
-7 -3 5 4.35 1.16
-7 3 5 5.15 1.25
-5 -3 5 0.76 0.84
-5 -3 5 3.04 1.02
5 -3 -5 1 0.85
-5 3 5 2.49 1.07
-3 -3 5 1.38 0.85
-3 -3 5 -0.22 0.76
3 -3 -5 1.68 0.81
3 3 -5 1.04 0.62
-3 3 5 0.72 0.83
-1 -3 5 15.07 1.48
-1 -3 5 18.2 1.94
1 -3 -5 16.45 1.75
1 3 -5 12.98 1.29
-1 -3 -5 68.28 2.69
1 -3 5 64.67 2.82
1 -3 5 66.51 2.31
-1 3 -5 72.77 2.37
-3 -3 -5 24.44 2.19
3 -3 5 22.17 2.25
-3 3 -5 21.53 1.53
-5 -3 -5 10.56 1.57
5 -3 5 13.8 1.86
-5 3 -5 14.64 1.6
7 -3 5 0.16 0.94
-7 -3 -5 -0.13 0.8
-7 3 -5 0.99 0.79
-9 -3 -5 1.92 1.01
9 -3 5 3.16 1.21
-9 3 -5 2.03 1.02
-11 -3 -5 32.6 2.31
11 -3 5 27.08 2.8
-11 3 -5 34.66 2.34
-13 -3 -5 55.4 2.95
13 -3 5 60.36 3.65
-13 3 -5 60.92 3.15
-15 -3 -5 50.57 2.65
-15 -3 -5 53.84 3.03
-15 3 -5 49.56 3.11
-17 -3 -5 109.97 4.24
-17 -3 -5 101.81 3.6
-17 3 -5 102.71 4.42
-19 -3 -5 22.45 2.67
-19 3 -5 20.54 2.83
-21 -3 -5 1.67 1.46
-21 3 -5 5.17 1.93
-23 -3 -5 12.19 2.44
-23 3 -5 19.95 3.05
-25 -3 -5 12.49 2.52
-25 3 -5 18.79 3.08
-26 -4 5 11.31 3.04
-26 4 5 5.16 2.7
-24 -4 5 6.79 2.43
-24 4 5 6.13 2.35
-22 -4 5 1.15 2
-22 4 5 0.31 1.81
-22 4 5 -1.54 1.37
-20 -4 5 7.91 2.37
-20 4 5 2.64 1.47
-20 4 5 3.28 1.79
-18 -4 5 3.16 1.74
-18 4 5 1.49 1.59
-18 4 5 3.31 1.57
-16 -4 5 6.65 1.95
-16 4 5 7.1 1.87
-16 4 5 9.21 1.81
-14 -4 5 8.44 1.86
-14 4 5 10.81 1.85
-14 4 5 8.85 1.89
-12 -4 5 23.76 2.45
-12 4 5 23.63 2.59
-12 4 5 23.66 2.4
-10 -4 5 30.68 2.69
-10 4 5 30.86 2.83
-10 4 5 30.11 2.4
-8 -4 5 22.79 2.05
-8 -4 5 18.04 1.95
-8 4 5 17.21 2.02
-8 4 5 20.45 2.23
-6 -4 5 2.13 0.9
-6 -4 5 1.67 1
-6 4 5 -0.35 0.81
4 -4 -5 16.11 1.88
-4 -4 5 18.28 1.76
-4 -4 5 12.49 1.68
-4 4 5 17.09 1.96
-2 -4 5 7.41 1.41
-2 -4 5 6.96 1.21
2 -4 -5 6.39 1.28
2 4 -5 7.26 0.9
0 -4 5 3.43 1
0 -4 5 4.37 1.26
0 -4 -5 3.33 1.06
0 4 -5 2.05 0.77
2 -4 5 0.06 0.98
-2 -4 -5 1.51 0.94
-2 4 -5 0.27 0.64
4 -4 5 17.84 2.12
-4 -4 -5 15.79 1.88
-4 4 -5 16.12 1.64
-6 -4 -5 45.29 2.5
6 -4 5 44.05 2.75
-6 4 -5 41.61 2.21
-8 -4 -5 20.09 2.04
8 -4 5 21.28 2.44
-8 4 -5 21.89 2.08
10 -4 5 17.02 2.34
-10 -4 -5 15.77 2
-10 4 -5 20.32 2.19
12 -4 5 -0.9 1.09
-12 -4 -5 0.68 1.03
-12 4 -5 0.07 1.06
14 -4 5 -0.24 1.13
-14 -4 -5 -0.03 1.06
-14 4 -5 1.55 1.28
-16 -4 -5 0.11 1.1
-16 -4 -5 -1.14 1.17
16 -4 5 -2.52 1.18
-16 4 -5 -0.21 1.33
-18 -4 -5 12.68 1.89
-18 -4 -5 12.5 2.18
-18 4 -5 16.06 2.55
-20 -4 -5 8.54 1.98
-20 -4 -5 7 1.7
-20 4 -5 7.35 2.1
-22 -4 -5 6.01 1.98
-22 4 -5 5.61 2.09
-24 -4 -5 -0.74 1.79
-24 4 -5 1.77 1.91
-26 -4 -5 3.71 2.04
-25 -5 5 2.13 2.65
-25 5 5 -0.3 2.34
-23 -5 5 10.99 2.76
-23 5 5 6.51 2.52
-21 -5 5 17.24 2.87
-21 5 5 21.51 3.36
-19 -5 5 45.64 3.73
-19 5 5 41.92 3.26
-19 5 5 46 4.15
-17 -5 5 9.18 2.07
-17 5 5 5.79 1.8
-17 5 5 4.16 1.84
-15 -5 5 5.35 1.85
-15 5 5 2.73 1.59
-15 5 5 6.06 1.69
-13 -5 5 21.33 2.51
-13 5 5 15.82 2.34
-13 5 5 15.62 2.06
-11 -5 5 16.77 2.17
-11 5 5 16.91 2.37
-11 5 5 12.5 1.88
-9 -5 5 11.07 1.74
-9 -5 5 8.84 1.64
-9 5 5 6.64 1.69
-9 5 5 12.69 1.95
-7 -5 5 37.59 2.35
-7 -5 5 39.36 2.46
-7 5 5 42.21 2.77
-7 5 5 39.81 2.67
5 -5 -5 18.16 2.12
-5 -5 5 20.78 2.12
-5 -5 5 25.8 2.23
-3 -5 5 5.61 1.33
-3 -5 5 4.52 1.18
3 -5 -5 3.03 1.1
-1 -5 5 13.39 1.79
1 -5 -5 15.35 1.87
-1 -5 5 15.61 1.56
1 -5 5 44.2 2.66
-1 -5 -5 37.8 2.36
-1 5 -5 42.89 1.88
-3 -5 -5 18.59 2.05
3 -5 5 16.51 2.13
-3 5 -5 19.71 1.74
5 -5 5 -0.48 1.03
-5 -5 -5 -1.61 0.79
-5 5 -5 0.86 0.88
7 -5 5 0.12 1.14
-7 -5 -5 2.35 1.2
-7 5 -5 0.74 0.93
-9 -5 -5 0.87 0.95
9 -5 5 0.75 1.13
-9 5 -5 -0.55 0.87
-11 -5 -5 1.63 1.23
11 -5 5 1.9 1.32
-11 5 -5 3.47 1.35
-13 -5 -5 17.5 2.25
13 -5 5 10.34 2.22
-13 5 -5 21.69 2.57
-15 -5 -5 32.19 2.52
-15 -5 -5 34.49 2.74
15 -5 5 31.48 3.46
-15 5 -5 35.24 3.31
17 -5 5 8.72 2.21
-17 -5 -5 6.12 1.66
-17 -5 -5 5.46 1.71
-17 5 -5 7.57 1.95
-19 -5 -5 0.26 1.36
-19 -5 -5 -0.87 1.16
-19 5 -5 1.78 1.56
-21 -5 -5 10.61 2.02
-21 -5 -5 11.71 2.4
-21 5 -5 8.06 2.23
-23 -5 -5 5.99 2.05
-23 5 -5 13.65 2.89
-25 -5 -5 9.82 2.47
-25 5 -5 15.89 3.12
-24 -6 5 7.36 2.96
-24 6 5 4.96 2.8
-22 -6 5 0.32 2.11
-22 6 5 -0.81 2.05
-20 -6 5 -0.08 1.96
-20 6 5 -0.35 1.8
-18 -6 5 0.95 1.9
-18 6 5 -0.19 1.75
-18 6 5 0.32 1.56
-16 -6 5 26.09 3.17
-16 6 5 20.01 2.59
-16 6 5 22.67 3
-14 -6 5 2.91 1.69
-14 6 5 5.04 1.75
-14 6 5 4.87 1.6
-12 -6 5 10.6 2.05
-12 6 5 9.92 1.8
-12 6 5 7.88 1.9
-10 -6 5 2.43 1.33
-10 6 5 5.71 1.64
-8 -6 5 1.37 1.24
-8 -6 5 3.53 1.35
-8 6 5 2.36 1.24
-6 -6 5 24.75 2.55
-6 -6 5 22.77 2.26
-4 -6 5 43.98 2.45
4 -6 -5 41.65 2.67
-4 -6 5 47.32 2.78
2 -6 -5 77.02 3.28
-2 -6 5 66.93 2.67
-2 -6 5 65.52 3.2
0 -6 -5 3.82 1.19
0 -6 5 0.42 1.13
2 -6 5 2.87 1.29
-2 -6 -5 3.93 1.25
-2 6 -5 1.77 0.92
4 -6 5 27.2 2.83
-4 -6 -5 28.62 2.26
-4 6 -5 27.74 1.93
6 -6 5 43.5 3.03
-6 -6 -5 42.6 2.63
-6 6 -5 35.7 2.28
8 -6 5 22.27 2.7
-8 -6 -5 25.68 2.47
-8 6 -5 23.47 2.25
10 -6 5 24.69 2.94
-10 -6 -5 27.52 2.58
-10 6 -5 26.77 2.63
-12 -6 -5 -0.93 1.1
12 -6 5 1.29 1.43
-12 6 -5 0.02 1.29
-14 -6 -5 -0.25 1.22
14 -6 5 0.24 1.51
-14 -6 -5 2.32 1.44
-14 6 -5 -0.2 1.29
-16 -6 -5 9.54 1.8
-16 -6 -5 5.64 1.71
16 -6 5 5.5 1.94
-16 6 -5 7.75 1.98
-18 -6 -5 17.79 2.58
18 -6 5 14.3 2.9
-18 -6 -5 17.03 2.37
-18 6 -5 20.09 2.76
-20 -6 -5 8.86 1.92
-20 -6 -5 9.38 2.19
-20 6 -5 13.3 2.58
-22 -6 -5 4.18 1.93
-22 -6 -5 6.08 2
-22 6 -5 3.96 2.16
-24 6 -5 4.01 2.28
-23 -7 5 0.05 2.55
-23 7 5 2.32 2.55
-21 -7 5 2.06 2.41
-21 7 5 4.99 2.63
-19 -7 5 16 3.04
-19 7 5 8.22 2.49
-17 -7 5 -0.97 1.81
-17 7 5 -1.77 1.65
-17 7 5 1.09 1.61
-15 -7 5 0.77 1.64
-15 7 5 -2.4 1.33
-13 -7 5 0.74 1.54
-13 7 5 2.87 1.67
-11 -7 5 7.61 1.77
-11 7 5 5.95 1.77
-9 -7 5 14.83 2.15
-9 -7 5 11.67 2.08
-9 7 5 15.27 2.38
-7 -7 5 2.76 1.35
-7 -7 5 1.62 1.33
5 -7 -5 1.5 1.16
-5 -7 5 1.11 1.17
-5 -7 5 1.98 1.35
-3 -7 5 1.36 1.07
-3 -7 5 1.1 1.27
3 -7 -5 0.44 1.04
-1 -7 5 7.19 1.28
-1 -7 5 6.65 1.66
1 -7 -5 6.85 1.53
-1 -7 -5 41.17 2.63
1 -7 5 34.5 2.7
3 -7 5 4.8 1.61
-3 -7 -5 9.06 1.69
5 -7 5 -0.18 1.19
-5 -7 -5 0.22 1.12
-5 7 -5 2.26 1.06
7 -7 5 -0.84 1.17
-7 -7 -5 0.52 1.13
-7 7 -5 1.09 0.97
9 -7 5 11.75 2.25
-9 -7 -5 15.39 2.15
-9 7 -5 10.15 1.81
-11 -7 -5 34.63 2.75
11 -7 5 32 3.51
-11 7 -5 36.78 2.81
13 -7 5 12.71 2.36
-13 -7 -5 15.59 2.26
-13 7 -5 12.24 2.11
15 -7 5 2.2 1.79
-15 -7 -5 4.19 1.6
-15 -7 -5 6.3 1.79
-15 7 -5 3.6 1.66
-17 -7 -5 6.34 1.76
17 -7 5 6.2 2.11
-17 -7 -5 5.63 1.64
-17 7 -5 11.35 2.33
19 -7 5 -3.64 1.48
-19 -7 -5 2.02 1.53
-19 -7 -5 1.47 1.5
-19 7 -5 1.5 1.82
21 -7 5 -1.55 1.92
-21 -7 -5 1.27 1.52
-21 7 -5 0.44 1.85
-23 -7 -5 6.29 2.06
-23 7 -5 5.77 2.39
-22 8 5 6.21 2.93
-20 -8 5 -1.67 2.22
-20 8 5 2.54 2.21
-18 -8 5 28.86 3.65
-18 8 5 18.49 3.24
-16 -8 5 26.92 3.28
-16 8 5 16.03 2.85
-14 -8 5 12.95 2.36
-14 8 5 10.53 2.41
-12 -8 5 9.62 2.2
-12 8 5 8.71 2.08
-10 -8 5 9.76 1.95
-10 8 5 7.15 2.11
-8 -8 5 -0.37 1.26
-8 -8 5 0.36 1.29
-8 8 5 0.3 1.43
-6 -8 5 7.53 1.57
-6 -8 5 9.75 2.01
4 -8 -5 51.24 3.22
-4 -8 5 53.39 2.84
-4 -8 5 47.62 3.31
-2 -8 5 42.21 2.53
-2 -8 5 46.99 3.22
2 -8 -5 41.07 2.82
0 -8 -5 31.43 2.57
0 -8 5 34.55 3.3
2 -8 5 -0.88 1.19
-2 -8 -5 0.96 1.14
-4 -8 -5 1.72 1.27
4 -8 5 -1.12 1.26
-6 -8 -5 -0.79 1.1
6 -8 5 0.22 1.26
8 -8 5 18.09 2.78
-8 -8 -5 16.31 2.3
-8 8 -5 14.88 1.97
10 -8 5 31.04 3.43
-10 -8 -5 33.23 3.02
-10 8 -5 31.04 2.83
-12 -8 -5 5.61 1.72
12 -8 5 8.7 2.31
-12 8 -5 7.93 1.98
-14 -8 -5 6.25 1.82
14 -8 5 1.43 1.67
-14 -8 -5 0.93 1.4
-14 8 -5 0.05 1.63
-16 -8 -5 4.55 1.63
-16 -8 -5 1.7 1.65
16 -8 5 1.01 1.79
-16 8 -5 3.32 1.72
-18 -8 -5 22.12 2.98
18 -8 5 12.92 2.85
-18 8 -5 20.54 2.89
-20 -8 -5 9.5 2.43
20 -8 5 13.62 3.08
-20 8 -5 12.68 2.78
-22 -8 -5 6.05 2.49
22 -8 5 2.38 2.34
-22 8 -5 6.94 2.61
-19 -9 5 5.92 2.6
-19 9 5 2.39 2.3
-17 -9 5 5.76 2.34
-17 9 5 1.64 1.94
-15 -9 5 0.12 1.75
-15 9 5 1.56 1.8
-13 -9 5 -0.71 1.6
-13 9 5 0.07 1.73
-11 -9 5 1.47 1.52
-11 9 5 -1.03 1.49
-9 -9 5 0.7 1.73
-9 -9 5 0.96 1.37
-9 9 5 2.2 1.67
-7 -9 5 -0.8 1.46
-7 -9 5 4.71 1.54
-5 -9 5 1.68 1.52
5 -9 -5 -3.21 1.09
-5 -9 5 0.91 1.14
-3 -9 5 1.89 1.57
3 -9 -5 3.93 1.56
-3 -9 5 2.07 1.18
1 -9 -5 -0.34 1.11
-1 -9 5 2.24 1.59
-1 -9 -5 0.86 1.29
1 -9 5 -0.73 1.24
-3 -9 -5 -0.79 1.06
3 -9 5 0.59 1.32
5 -9 5 2.04 1.5
-5 -9 -5 3.49 1.39
-7 -9 -5 0.2 1.28
7 -9 5 0.34 1.46
9 -9 5 -0.77 1.46
-9 -9 -5 -0.11 1.32
-11 -9 -5 0.78 1.43
11 -9 5 -0.92 1.53
-11 9 -5 -0.91 1.36
13 -9 5 3.87 2.03
-13 -9 -5 1.28 1.68
-13 -9 -5 2.2 1.63
-13 9 -5 1.02 1.63
-15 -9 -5 1.91 1.97
15 -9 5 2.29 2.01
-15 9 -5 3.54 2.07
-17 -9 -5 3.56 2.2
17 -9 5 4.85 2.36
-17 9 -5 0.76 1.94
-19 -9 -5 5.51 2.41
19 -9 5 4.14 2.47
-19 9 -5 5.91 2.33
-18 -10 5 6.47 2.55
-18 10 5 8.98 2.99
-16 -10 5 23.34 3.37
-16 10 5 15.53 3.12
-14 -10 5 3.79 2.11
-14 10 5 4.6 2.09
-12 -10 5 -1.14 1.73
-12 10 5 0.7 1.94
-10 -10 5 4.58 1.97
-10 -10 5 0.76 1.83
-10 10 5 4.1 1.94
-8 -10 5 -0.82 1.52
-8 -10 5 1.47 1.81
-6 -10 5 15.86 2.24
6 -10 -5 15.06 2.41
-6 -10 5 20.48 2.87
4 -10 -5 23.11 2.79
-4 -10 5 31.02 3.54
-2 -10 5 16.13 2.56
2 -10 -5 13.18 2.11
0 -10 5 -0.18 1.61
0 -10 -5 1.68 1.3
-2 -10 -5 4.13 1.73
2 -10 5 1.67 1.58
-4 -10 -5 9.61 2.01
4 -10 5 12.04 2.27
-6 -10 -5 20.73 2.65
6 -10 5 22.1 3.18
-8 -10 -5 25.59 2.72
8 -10 5 21.76 3.25
-10 -10 -5 24.62 2.87
10 -10 5 23.08 3.31
-12 -10 -5 12.68 2.61
12 -10 5 9.87 2.7
14 -10 5 -0.5 1.85
-14 -10 -5 -1.18 1.81
-16 -10 -5 9.95 2.62
16 -10 5 8.5 2.6
-16 10 -5 7.06 2.36
-18 -10 -5 21.83 3.41
18 -10 5 18.76 3.63
-18 10 -5 18.05 3.18
-15 -11 5 4.6 2.36
-15 11 5 2.76 2.34
-13 -11 5 -1.75 2.02
-13 11 5 1.83 2.21
-11 -11 5 -0.61 1.88
-11 -11 5 3.3 2.28
-11 11 5 1.55 1.97
-9 -11 5 1.13 1.83
-9 -11 5 1.92 1.76
-7 -11 5 2.44 1.63
7 -11 -5 0.66 1.54
-7 -11 5 2.53 1.94
5 -11 -5 3.14 1.74
-5 -11 5 2.23 1.85
3 -11 -5 3.1 1.48
-3 -11 5 5.39 2.13
1 -11 -5 -0.63 1.3
-1 -11 5 0.07 1.82
1 -11 5 0.15 1.64
-1 -11 -5 1.79 1.45
-3 -11 -5 1.81 1.36
3 -11 5 2.53 1.74
5 -11 5 3.07 1.91
-5 -11 -5 0.86 1.41
-7 -11 -5 -0.83 1.38
7 -11 5 -0.61 1.79
-9 -11 -5 0.18 1.8
9 -11 5 0.24 1.66
-11 -11 -5 2.2 1.95
11 -11 5 3.48 2.25
13 -11 5 -0.21 2.1
-13 -11 -5 -0.04 2.13
-15 -11 -5 2.09 2.26
15 -11 5 -1.47 1.97
-12 -12 5 5.81 2.57
-12 -12 5 5.81 2.56
-12 12 5 8.51 2.94
-10 -12 5 3.31 2.22
-10 -12 5 1.23 2.29
8 -12 -5 1.9 1.81
-8 -12 5 2 1.96
-6 -12 5 6.69 2.42
6 -12 -5 11.19 2.44
-4 -12 5 16.11 3.01
4 -12 -5 17.06 2.68
2 -12 -5 30.71 3.32
-2 -12 5 37.01 4.35
0 -12 -5 12.32 2.35
0 -12 5 6.77 2.23
2 -12 5 2.42 1.99
-2 -12 -5 3.51 1.69
4 -12 5 4.6 2.17
6 -12 5 4.61 2.39
-8 -12 -5 14.37 2.89
8 -12 5 16.14 3.25
10 -12 5 10.7 2.85
-10 -12 -5 9.67 2.58
-12 -12 -5 -0.5 2.24
12 -12 5 0.47 2.18
-7 -13 5 -0.57 2.16
7 -13 -5 1.86 2.14
5 -13 -5 1.3 1.92
-5 -13 5 1.5 2.15
-3 -13 5 4.33 2.43
3 -13 -5 0.98 1.88
1 -13 -5 6.4 1.99
-1 -13 5 2.54 2.07
1 -13 5 0.32 2.02
3 -13 5 0.04 2.02
5 -13 5 0.06 2.19
7 -13 5 2.32 2.42
-7 -13 -5 3.6 2.3
-26 0 6 -0.52 2.22
-24 0 6 8.4 2.83
-22 0 6 38.14 4.07
-20 0 6 47.71 4.12
-18 0 6 4.71 1.81
-16 0 6 -0.03 1.36
-16 0 6 0.22 1.2
-14 0 6 10.3 1.85
-14 0 6 11.78 1.87
-12 0 6 9.84 1.85
-10 0 6 86.61 3.64
10 0 -6 84.02 3.1
8 0 -6 50.84 2.41
-8 0 6 56.41 2.92
6 0 -6 20.23 1.66
-6 0 6 21.14 2.2
-4 0 6 -0.38 0.85
4 0 -6 0.15 0.76
-2 0 6 62.98 2.51
2 0 -6 65.61 2.62
-2 0 6 65.64 2.76
0 0 -6 257.45 4.96
0 0 6 251.67 5.05
0 0 6 257.29 5.05
-2 0 -6 109.33 3.4
2 0 6 108.69 3.66
2 0 6 117.6 3.54
-4 0 -6 13.38 1.63
-6 0 -6 3.4 1.11
-8 0 -6 10.78 1.67
-10 0 -6 5.78 1.35
-12 0 -6 17.68 2.15
-14 0 -6 5.73 1.48
-16 0 -6 0.54 1.18
-18 0 -6 8.3 1.98
-20 0 -6 11.23 2.37
-22 0 -6 13.19 2.47
-24 0 -6 1.42 1.94
-25 -1 6 -0.58 2.24
-25 1 6 4.54 2.17
-23 -1 6 3.32 2.22
-23 1 6 1.48 1.99
-21 -1 6 1.25 1.94
-21 1 6 0.62 1.58
-19 -1 6 1.46 1.76
-19 1 6 2.38 1.56
-19 1 6 3.86 1.78
-17 -1 6 0.72 1.58
-17 1 6 -0.59 1.2
-17 1 6 3.5 1.7
-15 -1 6 -0.68 1.28
-15 1 6 -0.87 1.09
-15 1 6 -0.18 1.23
-13 -1 6 2.03 1.24
-13 1 6 3.16 1.48
13 1 -6 2.91 1.22
-13 1 6 2.04 1.3
-11 -1 6 5.35 1.49
11 1 -6 2.52 0.92
-11 1 6 5.22 1.51
9 -1 -6 7.01 1.4
-9 -1 6 4.22 1.29
-9 1 6 4.8 1.39
9 1 -6 6.47 1.17
7 -1 -6 9.3 1.44
-7 -1 6 6.64 1.43
7 1 -6 9.64 1.3
-7 1 6 5.77 1.42
-5 -1 6 0.35 0.8
5 -1 -6 0.81 0.78
-5 -1 6 0.7 0.82
5 1 -6 0.52 0.71
-5 1 6 -0.28 0.82
3 -1 -6 -0.13 0.74
-3 -1 6 0.21 0.94
-3 -1 6 0.69 0.81
-3 1 6 -0.24 0.79
3 1 -6 -1.22 0.64
-1 -1 6 7.89 1.43
-1 -1 6 4.19 1.14
1 -1 -6 6.75 1.28
1 1 -6 6.38 1.18
-1 1 6 7.44 1.41
-1 -1 -6 -0.98 0.74
1 -1 6 0.23 0.79
1 -1 6 -0.19 0.96
-1 1 -6 1.01 0.77
1 1 6 -0.01 0.89
-3 -1 -6 2.53 1.06
3 -1 6 2.9 1.28
3 -1 6 5.91 1.21
-3 1 -6 5.32 1.15
5 -1 6 1.91 1.23
-5 -1 -6 2.84 1.01
-5 1 -6 0.73 0.79
7 -1 6 2.67 1.34
-7 -1 -6 2.7 1.04
-7 1 -6 2.55 1.05
-9 -1 -6 0.65 0.86
-9 1 -6 -0.5 0.79
-11 -1 -6 4.33 1.26
-11 1 -6 5.04 1.35
-13 -1 -6 1.99 1.12
-13 1 -6 2.42 1.28
-15 -1 -6 1.04 1.21
-15 1 -6 0.44 1.23
-17 -1 -6 1.4 1.42
-17 1 -6 1.6 1.35
-19 -1 -6 0.52 1.47
-19 1 -6 2.02 1.71
-21 -1 -6 2.12 1.64
-21 1 -6 3.58 1.8
-23 -1 -6 0.66 1.84
-23 1 -6 1.59 1.88
-25 -1 -6 3.43 2.16
-25 1 -6 -0.32 1.97
-24 -2 6 9.35 3.09
-24 2 6 15.39 2.84
-22 -2 6 29.49 3.78
-22 2 6 25.63 3.18
-22 2 6 20.47 3.08
-20 -2 6 18.29 2.82
-20 2 6 13.52 2.49
-20 2 6 17.73 2.72
-18 -2 6 9.8 2.28
-18 2 6 7.32 2.01
-18 2 6 5.52 1.86
-16 -2 6 0.12 1.48
-16 2 6 -0.92 1.33
-16 2 6 2.06 1.54
-14 -2 6 -0.42 1.39
-14 2 6 1.79 1.42
-14 2 6 -0.26 1.21
-12 -2 6 57.99 3.36
-12 2 6 57.71 3.28
-12 2 6 51.03 3.04
-10 -2 6 12.99 1.99
-10 2 6 18.61 2.2
8 -2 -6 1.03 0.9
-8 -2 6 1.93 0.96
-8 -2 6 1.66 1.06
8 2 -6 1.82 0.78
-8 2 6 2.9 1.13
6 -2 -6 0.34 0.89
-6 -2 6 -0.48 0.89
-6 -2 6 -0.85 0.72
6 2 -6 0.24 0.6
-6 2 6 0.02 0.85
-4 -2 6 25.15 2.15
-4 -2 6 25.88 2.31
4 -2 -6 25.5 1.95
4 2 -6 21.62 1.57
-4 2 6 24.66 2.33
-2 -2 6 90.32 3.2
2 -2 -6 90.48 3.28
-2 -2 6 94.03 3.22
2 2 -6 94.08 2.86
-2 2 6 91.58 3.47
0 -2 6 119.12 3.77
0 -2 6 117.94 3.45
0 -2 -6 119.68 3.71
0 2 -6 120.14 3.27
0 2 6 120.82 3.84
-2 -2 -6 84.97 3.2
2 -2 6 82.2 3.33
2 -2 6 87.46 2.87
-2 2 -6 89.82 2.98
4 -2 6 25.56 2.58
-4 -2 -6 25.62 2.33
4 -2 6 21.54 1.73
-4 2 -6 19.96 1.93
6 -2 6 0.11 1.01
-6 -2 -6 1.64 0.91
-6 2 -6 0.89 0.86
8 -2 6 50.68 3.17
-8 -2 -6 51.47 2.74
-8 2 -6 52.01 2.71
10 -2 6 77.2 4.01
-10 -2 -6 73.51 3.3
-10 2 -6 73.55 3.25
-12 -2 -6 12.27 1.91
-12 2 -6 9.3 1.71
-14 -2 -6 44.07 2.9
-14 2 -6 39.3 2.85
-16 -2 -6 12.97 2.1
-16 2 -6 12.1 2.27
-18 -2 -6 2.43 1.45
-18 2 -6 0.46 1.47
-20 -2 -6 13.77 2.35
-20 2 -6 8.51 2.1
-22 -2 -6 8.54 2.24
-22 2 -6 10.51 2.44
-24 -2 -6 13.98 2.9
-24 2 -6 15.46 3.01
-25 -3 6 1.27 2.5
-25 3 6 3.99 2.48
-23 -3 6 -0.38 2.12
-23 3 6 -0.47 1.73
-23 3 6 -1.26 1.97
-21 -3 6 2.35 2.26
-21 3 6 -1.15 1.64
-21 3 6 0.66 1.75
-19 -3 6 4.91 2.15
-19 3 6 3.36 1.9
-19 3 6 3.08 1.86
-17 -3 6 10.88 2.23
-17 3 6 5.03 1.83
-17 3 6 5.36 1.9
-15 -3 6 10.56 2.1
-15 3 6 14.55 2.36
-15 3 6 13.77 2.33
-13 -3 6 14.52 2.17
-13 3 6 12.26 2.02
-13 3 6 8.74 1.81
-11 -3 6 4.53 1.47
-11 3 6 3.89 1.45
-11 3 6 1.53 1.11
-9 -3 6 4.25 1.42
-9 -3 6 4.13 1.2
-9 3 6 5.34 1.38
-7 -3 6 0.65 0.9
-7 -3 6 1.97 1.19
7 -3 -6 2.4 1
-7 3 6 0 1.04
-5 -3 6 5.22 1.28
5 -3 -6 1.97 1.03
-5 -3 6 2.49 1.18
5 3 -6 3.83 0.93
-5 3 6 2.73 1.12
-3 -3 6 0.57 1.02
-3 -3 6 1.78 1.02
3 -3 -6 1.58 1.05
-3 3 6 2.71 1.15
3 3 -6 4.21 0.9
1 -3 -6 10.46 1.59
-1 -3 6 13.26 1.84
-1 -3 6 14.79 1.7
1 3 -6 11.54 1.37
1 -3 6 -0.43 1.05
-1 -3 -6 2.27 1.07
1 -3 6 0.85 0.84
-1 3 -6 -0.02 0.68
-3 -3 -6 2.76 1.13
3 -3 6 2.76 1.2
-3 3 -6 2.8 0.97
-5 -3 -6 11.61 1.73
5 -3 6 15.56 2.17
-5 3 -6 15.66 1.78
7 -3 6 11.58 2.11
-7 -3 -6 11.65 1.77
-7 3 -6 9.88 1.54
9 -3 6 2.97 1.46
-9 -3 -6 0.71 1
-9 3 -6 0.2 1.01
11 -3 6 1.76 1.48
-11 -3 -6 -0.06 0.99
-11 3 -6 1.97 1.18
13 -3 6 6.68 2.11
-13 -3 -6 3.95 1.41
-13 3 -6 5.14 1.55
-15 -3 -6 2.44 1.52
-15 3 -6 3.78 1.62
-17 -3 -6 3.54 1.53
-17 3 -6 3.63 1.59
-19 -3 -6 9.41 2.19
-19 3 -6 8.97 2.23
-21 -3 -6 1.19 1.69
-21 3 -6 -0.7 1.59
-23 -3 -6 -1.81 1.61
-23 3 -6 1.06 1.93
-25 -3 -6 1.32 2.1
-24 -4 6 12.71 3.15
-24 4 6 12.11 3.06
-22 -4 6 17.89 3.13
-22 4 6 6.43 2.31
-22 4 6 9.34 2.26
-20 -4 6 34.26 3.76
-20 4 6 30.04 3.43
-20 4 6 26.4 3.11
-18 -4 6 4.5 1.9
-18 4 6 0.28 1.39
-18 4 6 -0.64 1.5
-16 -4 6 1.86 1.52
-16 4 6 2.88 1.5
-16 4 6 -0.73 1.33
-14 -4 6 0.16 1.25
-14 4 6 0.29 1.27
-14 4 6 -0.18 1.34
-12 -4 6 16.81 2.21
-12 4 6 16.7 2.35
-12 4 6 18.29 2.33
-10 -4 6 32.78 2.3
-10 -4 6 35.36 2.71
-10 4 6 35.18 2.75
-8 -4 6 3.04 1.18
-8 -4 6 3.02 1.17
8 -4 -6 1.16 1.13
-8 4 6 1.81 1.23
6 -4 -6 0.28 0.92
-6 -4 6 -0.13 0.94
-6 -4 6 0.26 0.96
-6 4 6 1.9 1.19
-4 -4 6 28.08 2.41
-4 -4 6 23.55 2.27
4 -4 -6 23.94 2.35
-4 4 6 20.37 2.3
-2 -4 6 28.54 2.06
-2 -4 6 27.18 2.25
2 -4 -6 25.02 2.43
2 4 -6 23.71 1.63
0 -4 6 47.33 2.87
0 -4 6 41.22 2.28
0 -4 -6 44.67 2.59
0 4 -6 46.38 2.1
-2 -4 -6 41.83 2.55
2 -4 6 41.51 2.7
-2 4 -6 44.01 2.19
4 -4 6 7.13 1.59
-4 -4 -6 7.31 1.51
-4 4 -6 6.51 1.21
-6 -4 -6 2.72 1.21
6 -4 6 4.05 1.56
-6 4 -6 2.23 1.08
-8 -4 -6 11.58 1.85
8 -4 6 8.91 1.98
-8 4 -6 7.02 1.45
-10 -4 -6 39.49 2.73
10 -4 6 45.24 3.3
-10 4 -6 44.36 2.73
-12 -4 -6 18.18 2.31
12 -4 6 14.04 2.53
-12 4 -6 21.15 2.47
-14 -4 -6 3.4 1.42
14 -4 6 2.56 1.75
-14 4 -6 5.48 1.73
-16 -4 -6 3.01 1.62
-16 -4 -6 1.47 1.31
16 -4 6 2.93 1.7
-16 4 -6 5.91 1.76
-18 -4 -6 0.09 1.19
-18 -4 -6 0.32 1.46
-18 4 -6 -0.23 1.48
-20 -4 -6 1.37 1.61
-20 4 -6 1.04 1.85
-22 -4 -6 12.34 2.5
-22 4 -6 8.14 2.35
-24 -4 -6 16.98 3.03
-24 4 -6 16.57 3
-23 -5 6 5.82 2.71
-23 5 6 -0.38 2.19
-21 -5 6 0.37 2.04
-21 5 6 0.96 1.99
-21 5 6 -0.48 1.62
-19 -5 6 5.98 2.26
-19 5 6 2.47 1.65
-19 5 6 4.89 1.99
-17 -5 6 24.02 3.2
-17 5 6 15.35 2.53
-17 5 6 15.51 2.73
-15 -5 6 1.47 1.69
-15 5 6 3.62 1.84
-15 5 6 2.36 1.57
-13 -5 6 13.79 2.32
-13 5 6 17.46 2.63
-13 5 6 9.54 1.94
-11 -5 6 1.31 1.08
-11 -5 6 0.58 1.36
-11 5 6 0.06 1.14
-11 5 6 0.65 1.22
-9 -5 6 3.79 1.25
-9 -5 6 2.02 1.38
-9 5 6 1.52 1.3
-7 -5 6 4.81 1.35
-7 -5 6 1.91 1.17
7 -5 -6 0.22 1.14
-7 5 6 -0.02 1.1
5 -5 -6 18.53 2.26
-5 -5 6 20.52 2.31
-5 -5 6 19.43 2.06
3 -5 -6 26.57 2.62
-3 -5 6 28.39 2.33
-3 -5 6 27.62 2.16
1 -5 -6 11.37 1.85
-1 -5 6 10.09 1.92
-1 -5 6 13.45 1.7
1 -5 6 -0.01 1.04
1 -5 6 0.16 0.81
-1 -5 -6 1.62 1.14
-1 5 -6 0.33 0.75
3 -5 6 75.48 3.73
-3 -5 -6 77.61 3.44
-3 5 -6 73.65 2.82
-5 -5 -6 41.4 2.72
5 -5 6 42.62 3.04
-5 5 -6 43.74 2.4
-7 -5 -6 18.88 2.27
7 -5 6 14.35 2.38
-7 5 -6 18.75 2.07
-9 -5 -6 5.23 1.49
9 -5 6 8.51 1.92
-9 5 -6 5.38 1.55
-11 -5 -6 -2.43 1.07
11 -5 6 1.45 1.56
-11 5 -6 0.96 1.28
-13 -5 -6 -1.17 1.24
13 -5 6 0.07 1.39
-13 5 -6 -1.03 1.13
15 -5 6 2.97 1.83
-15 -5 -6 3.61 1.53
-15 5 -6 2.99 1.65
17 -5 6 10.77 2.6
-17 -5 -6 15.5 2.45
-17 -5 -6 13.48 2.07
-17 5 -6 14.36 2.5
-19 -5 -6 3.88 1.72
-19 -5 -6 3.02 1.56
-19 5 -6 4.61 1.94
-21 -5 -6 2.72 1.99
-21 5 -6 5.95 2.19
-23 -5 -6 0.44 1.91
-23 5 -6 0.26 1.84
-22 -6 6 23.1 3.75
-22 6 6 18.81 3.37
-20 -6 6 7.89 2.66
-20 6 6 8.57 2.67
-20 6 6 7.07 2.34
-18 -6 6 -0.03 1.99
-18 6 6 -0.08 1.67
-18 6 6 1.8 1.75
-16 -6 6 2.87 1.94
-16 6 6 -0.82 1.66
-16 6 6 -1.13 1.42
-14 -6 6 2.04 1.66
-14 6 6 4.5 1.79
-14 6 6 2.73 1.8
-12 -6 6 0.89 1.38
-12 -6 6 3.21 1.66
-12 6 6 0.96 1.37
-12 6 6 1.14 1.44
-10 -6 6 13 1.98
-10 -6 6 18.79 2.44
8 -6 -6 26.71 2.94
-8 -6 6 30.28 2.57
-8 -6 6 25.89 2.61
6 -6 -6 2.53 1.33
-6 -6 6 2.69 1.36
-6 -6 6 2.37 1.24
-4 -6 6 2.26 1.3
-4 -6 6 3.87 1.95
4 -6 -6 4.92 1.41
2 -6 -6 55.06 3.14
-2 -6 6 51.8 3.12
-2 -6 6 59.8 2.79
0 -6 -6 45.41 2.88
0 -6 6 41.15 2.37
0 -6 6 42.64 3.01
2 -6 6 5.97 1.77
-2 -6 -6 5.72 1.5
4 -6 6 16.35 2.35
-4 -6 -6 12.12 2.01
-4 6 -6 15.42 1.87
6 -6 6 5.52 1.68
-6 -6 -6 9.78 1.84
-6 6 -6 11.63 1.65
8 -6 6 2.37 1.58
-8 -6 -6 5.02 1.65
-8 6 -6 3.45 1.36
10 -6 6 4.63 1.71
-10 -6 -6 6.52 1.75
-10 6 -6 5.45 1.6
-12 -6 -6 6.6 1.83
12 -6 6 8.67 2.15
-12 6 -6 7.13 1.86
14 -6 6 3.08 1.93
-14 -6 -6 1.38 1.52
-14 6 -6 0.48 1.46
-16 -6 -6 0.87 1.25
-16 -6 -6 0.73 1.5
16 -6 6 0.37 1.65
-16 6 -6 1.92 1.67
-18 -6 -6 1.1 1.59
18 -6 6 1.91 2.03
-18 -6 -6 2.21 1.56
-18 6 -6 3.66 1.94
-20 -6 -6 1.73 1.81
-20 -6 -6 -0.68 1.5
-20 6 -6 3.19 2.01
-22 -6 -6 2.91 2.01
-22 6 -6 -1.01 1.96
-21 -7 6 3.59 2.56
-21 7 6 0.23 2.23
-19 -7 6 26.79 3.7
-19 7 6 22.51 3.43
-17 -7 6 16.86 2.93
-17 7 6 15.97 3.04
-17 7 6 11.22 2.29
-15 -7 6 14.4 2.62
-15 7 6 13.58 2.83
-13 -7 6 1.64 1.62
-13 -7 6 0 1.61
-13 7 6 0.64 1.67
-11 -7 6 0.74 1.41
-11 -7 6 -0.29 1.4
-11 7 6 -0.19 1.44
-9 -7 6 8.48 1.88
-9 -7 6 5.36 1.68
7 -7 -6 17.99 2.54
-7 -7 6 18.4 2.31
-7 -7 6 20.06 2.61
-5 -7 6 48.2 2.92
-5 -7 6 57.61 3.41
5 -7 -6 57.7 3.39
-3 -7 6 51.35 2.73
-3 -7 6 50.37 3.2
3 -7 -6 50.11 3.22
-1 -7 6 12.26 1.67
1 -7 -6 9.68 1.84
-1 -7 6 10.05 2.07
1 -7 6 10.99 2.17
-1 -7 -6 6.5 1.68
3 -7 6 13.72 2.42
-3 -7 -6 14.41 2.21
-5 -7 -6 17.86 2.36
5 -7 6 17.62 2.7
7 -7 6 39.1 3.73
-7 -7 -6 33.75 3.08
-7 7 -6 35.91 2.64
-9 -7 -6 3.81 1.74
9 -7 6 6.72 1.98
-9 7 -6 2.75 1.36
-11 -7 -6 1.22 1.45
11 -7 6 0.85 1.6
-11 7 -6 0.23 1.28
13 -7 6 5.64 2
-13 -7 -6 3.15 1.58
-13 7 -6 4.53 1.75
15 -7 6 14.59 2.81
-15 -7 -6 19.81 2.81
-15 -7 -6 20.22 2.62
-15 7 -6 17.33 2.62
-17 -7 -6 11.83 2.16
17 -7 6 11.76 2.77
-17 -7 -6 19.63 2.83
-17 7 -6 13.01 2.45
-19 -7 -6 8.93 2.24
19 -7 6 4.77 2.52
-19 -7 -6 10.57 2.43
-19 7 -6 9.8 2.54
-21 -7 -6 5.69 2.24
-21 -7 -6 2.75 1.8
-21 7 -6 1.3 1.96
-20 -8 6 6.16 2.66
-20 8 6 4.52 2.56
-18 -8 6 0.3 2.19
-18 8 6 1.04 2.31
-16 -8 6 3.43 2.17
-16 8 6 1.02 2.04
-14 -8 6 -0.34 1.56
-14 -8 6 0.36 1.8
-14 8 6 0.42 1.69
-12 -8 6 -1 1.52
-12 -8 6 -0.43 1.55
-12 8 6 -1.39 1.6
-10 -8 6 3.65 1.77
-10 -8 6 8.39 1.98
8 -8 -6 3.72 1.62
-8 -8 6 4.09 1.56
-8 -8 6 3.87 1.9
6 -8 -6 -0.02 1.31
-6 -8 6 3.29 1.66
-6 -8 6 2.59 1.41
-4 -8 6 9.74 1.59
4 -8 -6 5.57 1.54
-4 -8 6 5.38 1.78
-2 -8 6 29.62 3.12
2 -8 -6 26.29 2.83
0 -8 -6 25.32 2.72
0 -8 6 28.73 3.12
2 -8 6 2.49 1.54
-2 -8 -6 2.75 1.53
-4 -8 -6 2.2 1.31
4 -8 6 0.52 1.5
6 -8 6 6.56 2.15
-6 -8 -6 3.22 1.54
8 -8 6 8.03 2.15
-8 -8 -6 4.57 1.74
10 -8 6 17.73 2.9
-10 -8 -6 10.08 2.05
-10 8 -6 18.3 2.68
12 -8 6 3.75 2.03
-12 -8 -6 4.37 1.86
-12 8 -6 4.29 1.76
-14 -8 -6 3.46 1.81
14 -8 6 1.83 2
-14 -8 -6 1.48 1.54
-14 8 -6 2.44 1.77
-16 -8 -6 1.49 1.77
16 -8 6 -3.16 1.69
-16 -8 -6 1.5 1.77
-16 8 -6 0.86 1.82
-18 -8 -6 -0.91 1.54
18 -8 6 -0.34 1.88
-18 -8 -6 -0.87 1.89
-18 8 -6 2.16 2.06
20 -8 6 2.72 2.67
-20 -8 -6 1.59 2.18
-20 8 -6 1.95 2.31
-17 -9 6 20.69 3.44
-17 9 6 17.95 3.33
-15 -9 6 11.06 2.66
-15 -9 6 12.73 2.76
-15 9 6 13.58 2.95
-13 -9 6 12.52 2.48
-13 -9 6 8 2.41
-13 9 6 12.21 2.67
-11 -9 6 -0.73 1.71
-11 -9 6 -2.08 1.56
-9 -9 6 0.18 1.57
-9 -9 6 1.74 1.68
7 -9 -6 13.18 2.41
-7 -9 6 13.51 2.49
-7 -9 6 16.78 2.4
-5 -9 6 13.21 2.06
5 -9 -6 6.53 1.79
-5 -9 6 8.79 2.26
-3 -9 6 8.97 2.18
3 -9 -6 5.5 1.75
1 -9 -6 6.92 1.89
-1 -9 6 10.48 2.26
-1 -9 -6 1.38 1.42
1 -9 6 1.53 1.55
3 -9 6 4.32 1.9
-3 -9 -6 5.49 1.8
5 -9 6 28.68 3.53
-5 -9 -6 27.58 3.06
7 -9 6 23.97 3.35
-7 -9 -6 31.23 3.13
-9 -9 -6 12.09 2.43
9 -9 6 2.7 1.82
-11 -9 -6 0.04 1.45
11 -9 6 -0.4 1.75
-13 -9 -6 5.76 2.02
13 -9 6 2.95 1.94
-13 -9 -6 1.81 1.77
-15 -9 -6 11.54 2.53
15 -9 6 3.54 2.25
-15 -9 -6 2.4 2.01
-15 9 -6 6.41 2.05
17 -9 6 3.28 2.68
-17 -9 -6 9.47 2.67
-17 9 -6 6.97 2.29
-16 -10 6 1.02 2.49
-16 -10 6 -0.71 2.28
-16 10 6 -0.82 2.18
-14 -10 6 -1 1.87
-14 -10 6 0.17 2.25
-14 10 6 -1.62 1.75
-12 -10 6 1.4 1.98
-12 -10 6 0.37 2.08
-10 -10 6 2.97 1.93
-10 -10 6 0.84 1.91
-8 -10 6 -0.2 1.42
8 -10 -6 -1 1.51
-8 -10 6 -0.38 1.69
6 -10 -6 -0.42 1.27
-6 -10 6 2.68 1.93
4 -10 -6 -0.83 1.26
-4 -10 6 1.28 1.86
-2 -10 6 1.07 1.82
2 -10 -6 1.78 1.54
0 -10 6 1.09 1.64
0 -10 -6 3.08 1.56
2 -10 6 2 1.77
-2 -10 -6 0.87 1.4
4 -10 6 1.43 1.8
-4 -10 -6 2.78 1.59
6 -10 6 0.49 1.88
-6 -10 -6 1.94 1.57
-8 -10 -6 1.43 1.71
8 -10 6 0.22 1.8
10 -10 6 3.48 2.12
-10 -10 -6 -1.15 1.56
12 -10 6 1.27 2.07
-12 -10 -6 0.9 1.79
-12 -10 -6 0.52 1.89
-14 -10 -6 1.78 2.14
14 -10 6 3.18 2.34
-16 -10 -6 3.83 2.56
16 -10 6 1.23 2.22
-13 -11 6 2.35 2.37
-13 -11 6 2.76 2.49
-11 -11 6 1.71 1.97
-11 -11 6 3.64 2.14
-9 -11 6 7.02 2.43
9 -11 -6 2.89 1.86
-9 -11 6 8.23 2.47
7 -11 -6 5.66 2
-7 -11 6 1.03 1.77
5 -11 -6 23.49 3.07
-5 -11 6 21.24 3.16
3 -11 -6 14.86 2.64
-3 -11 6 16.64 3
1 -11 -6 0.96 1.59
-1 -11 6 4.86 2.17
1 -11 6 0.87 1.79
-1 -11 -6 2.7 1.57
3 -11 6 13.14 2.86
-3 -11 -6 19.87 2.87
-5 -11 -6 14.71 2.7
5 -11 6 24.18 3.69
7 -11 6 23.14 3.85
-7 -11 -6 25.06 3.09
-9 -11 -6 9.3 2.46
9 -11 6 5.12 2.5
11 -11 6 -0.42 2.21
-11 -11 -6 2.59 2.11
-13 -11 -6 0.64 2.13
13 -11 6 0.1 2.29
-10 -12 6 0.56 2.1
10 -12 -6 -2.5 1.75
8 -12 -6 2.89 1.83
-8 -12 6 0.48 2.18
6 -12 -6 5.53 2.05
-6 -12 6 4.34 2.42
4 -12 -6 2.88 2.11
-4 -12 6 0.62 1.97
-2 -12 6 -1.67 1.92
2 -12 -6 0.45 1.58
0 -12 6 0.98 1.96
0 -12 -6 -0.74 1.63
-2 -12 -6 2.65 1.74
2 -12 6 5.81 2.3
4 -12 6 -1.08 1.95
-4 -12 -6 2.03 1.89
6 -12 6 0.7 2.29
8 -12 6 -1.66 2.16
-24 0 7 1.78 2.71
-22 0 7 1.81 2.23
-20 0 7 0.51 2.09
-18 0 7 -2.51 1.56
-16 0 7 -0.89 1.56
-14 0 7 -2.25 1.31
14 0 -7 2.38 1.3
-12 0 7 1.23 1.33
12 0 -7 -0.32 0.93
-10 0 7 -1.06 1.12
10 0 -7 1.22 1.06
8 0 -7 0.53 0.87
-8 0 7 1.63 1.21
6 0 -7 0.98 0.91
-6 0 7 1.19 1.06
4 0 -7 1.44 0.98
-4 0 7 -0.13 0.93
2 0 -7 0.52 0.86
-2 0 7 0.76 0.97
-2 0 7 -0.6 0.89
0 0 7 -0.38 0.96
0 0 7 1.18 1.08
0 0 -7 -0.89 0.8
2 0 7 -0.52 0.96
-2 0 -7 -0.82 0.9
-4 0 -7 1.31 0.93
-6 0 -7 1.07 1.03
-8 0 -7 -0.51 0.99
-10 0 -7 -0.44 0.97
-12 0 -7 -0.34 1.2
-14 0 -7 1.39 1.28
-16 0 -7 -1.81 1.16
-18 0 -7 -1.18 1.4
-20 0 -7 -0.73 1.63
-22 0 -7 1.53 1.92
-24 0 -7 -0.17 2.07
-23 -1 7 7.25 2.93
-23 1 7 7.06 2.73
-21 -1 7 9.15 2.67
-21 1 7 14.54 2.84
-19 -1 7 1.33 1.91
-19 1 7 2.95 1.93
-17 -1 7 0.49 1.76
-17 1 7 1.97 1.81
-15 -1 7 34.44 3.51
-15 1 7 26.33 3.11
13 -1 -7 70.86 3.47
-13 -1 7 65.21 3.86
-13 1 7 63.32 3.84
-11 -1 7 31.32 3.04
11 -1 -7 29.04 2.38
-11 1 7 29.36 2.93
9 -1 -7 4.79 1.36
-9 -1 7 5.82 1.51
9 1 -7 4.69 1.27
-9 1 7 6.46 1.68
-7 -1 7 0.2 1.16
7 -1 -7 0.13 0.86
7 1 -7 0.68 0.86
-7 1 7 -0.43 0.98
5 -1 -7 1.24 0.99
-5 -1 7 3.37 1.37
5 1 -7 2.15 0.98
-5 1 7 2.4 1.13
-3 -1 7 33.86 2.29
3 -1 -7 37.5 2.49
-3 -1 7 35 2.5
-3 1 7 38.12 2.63
3 1 -7 39.59 2.32
-1 -1 7 127.43 3.96
1 -1 -7 133.99 4.2
-1 -1 7 131.8 4.04
1 1 -7 133.14 3.85
-1 1 7 138.1 4.39
1 -1 7 62.52 3.16
-1 -1 -7 65.87 3.03
1 -1 7 62 2.94
-1 1 -7 61.64 2.78
1 1 7 65.39 3.17
3 -1 7 34.37 2.61
3 -1 7 30.81 2.26
-3 -1 -7 31.97 2.35
-3 1 -7 27.85 2.17
5 -1 7 0.9 1.31
-5 -1 -7 0.1 0.97
-5 1 -7 -0.17 0.92
-7 -1 -7 46.66 2.78
-7 1 -7 36.73 2.53
-9 -1 -7 37.45 2.72
-9 1 -7 41.97 2.69
-11 -1 -7 20.58 2.4
-11 1 -7 20.33 2.48
-13 -1 -7 3.2 1.47
-13 1 -7 2.69 1.44
-15 -1 -7 4.98 1.71
-15 1 -7 3.25 1.54
-17 -1 -7 18.65 2.63
-17 1 -7 26.53 3.05
-19 -1 -7 32.15 3.66
-19 1 -7 33.51 3.47
-21 -1 -7 17.64 2.91
-21 1 -7 18.52 2.92
-23 -1 -7 18.15 3.07
-23 1 -7 9.78 2.47
-24 -2 7 2.37 2.63
-24 2 7 1.01 2.51
-22 -2 7 2.14 2.33
-22 2 7 -4.69 2.07
-20 -2 7 3.59 2.43
-20 2 7 -0.11 1.64
-20 2 7 4.44 2.38
-18 -2 7 1.23 1.95
-18 2 7 2.6 2.08
-18 2 7 1.52 1.8
-16 -2 7 2.67 1.7
-16 2 7 0.16 1.62
-14 -2 7 2.3 1.71
-14 2 7 1.97 1.64
-12 -2 7 -0.91 1.36
12 -2 -7 -0.13 1.16
-12 2 7 0.41 1.22
10 -2 -7 4.29 1.33
-10 -2 7 2.62 1.4
-10 2 7 3.83 1.5
8 -2 -7 0.71 1.02
-8 -2 7 0.18 1.16
-8 2 7 -0.55 0.99
-6 -2 7 4.41 1.47
6 -2 -7 3.06 1.18
-6 2 7 2.29 1.24
6 2 -7 3.89 1.16
-4 -2 7 9.87 1.77
-4 -2 7 8.32 1.57
4 -2 -7 10.26 1.68
4 2 -7 10.26 1.43
-4 2 7 10.33 1.91
-2 -2 7 3.78 1.29
-2 -2 7 1.41 1.02
2 -2 -7 1.33 1.06
-2 2 7 3.59 1.4
2 2 -7 2.21 1.05
0 -2 -7 0.36 1.04
0 -2 7 -0.33 1.08
0 -2 7 0.37 0.94
0 2 -7 0.85 0.81
-2 -2 -7 2.02 1.17
2 -2 7 -0.22 0.94
2 -2 7 -0.45 1.07
-2 2 -7 0.74 0.92
4 -2 7 -1.43 1.1
-4 -2 -7 1.34 1.15
4 -2 7 0.06 0.94
-4 2 -7 0.48 0.91
-6 -2 -7 1.13 1.08
6 -2 7 -0.75 1.14
-6 2 -7 0.31 0.94
-8 -2 -7 3.37 1.34
8 -2 7 7.16 1.99
-8 2 -7 6.4 1.58
10 -2 7 6.75 2.05
-10 -2 -7 6.18 1.64
-10 2 -7 5.86 1.56
-12 -2 -7 -0.59 1.09
-12 2 -7 -0.01 1.26
-14 -2 -7 2.66 1.44
-14 2 -7 3.77 1.63
-16 -2 -7 5.25 1.84
-16 2 -7 3.35 1.71
-18 -2 -7 4.65 1.75
-18 2 -7 3.05 1.83
-20 -2 -7 -0.12 1.62
-20 2 -7 -1.4 1.63
-22 -2 -7 1.02 1.8
-22 2 -7 -0.22 1.89
-23 -3 7 1.73 2.83
-23 3 7 5.87 2.33
-23 3 7 4.35 2.5
-21 -3 7 14.84 3.24
-21 3 7 15.91 2.88
-21 3 7 8.91 2.59
-19 -3 7 -0.54 1.97
-19 3 7 -0.45 1.68
-19 3 7 2.82 1.99
-17 -3 7 3.37 2.11
-17 3 7 2.8 1.9
-17 3 7 2.78 1.77
-15 -3 7 11.76 2.41
-15 3 7 14.89 2.54
-13 -3 7 34.1 3.45
-13 3 7 39.31 3.19
-11 -3 7 1.24 1.52
11 -3 -7 2.55 1.41
-11 3 7 1.63 1.39
-9 -3 7 0.58 1.19
9 -3 -7 -1.39 0.95
-9 3 7 1.11 1.27
-7 -3 7 -0.37 1.12
7 -3 -7 0.19 1.08
-7 3 7 0.78 1.18
-5 -3 7 -1.09 1.02
5 -3 -7 0.62 1.15
-5 -3 7 2.92 1.31
-5 3 7 1.5 1.26
3 -3 -7 21.72 2.32
-3 -3 7 19.78 2.15
-3 -3 7 23.24 2.43
3 3 -7 21.61 1.97
-3 3 7 21.98 2.49
-1 -3 7 60.38 2.95
-1 -3 7 51.99 3.01
1 -3 -7 57.15 3.12
1 3 -7 57.14 2.57
-1 -3 -7 70.16 3.44
1 -3 7 72.76 3
1 -3 7 72.09 3.45
-1 3 -7 70.57 2.93
-3 -3 -7 6.34 1.65
3 -3 7 6.39 1.37
3 -3 7 6.95 1.79
-3 3 -7 4.24 1.19
5 -3 7 -0.04 1.4
-5 -3 -7 0.18 0.97
-5 3 -7 0.31 0.93
7 -3 7 37.51 3.5
-7 -3 -7 34.47 2.6
-7 3 -7 30.81 2.43
-9 -3 -7 18.92 2.36
9 -3 7 22.13 2.91
-9 3 -7 18.57 2.18
11 -3 7 13.88 2.72
-11 -3 -7 21.43 2.7
-11 3 -7 24.43 2.71
-13 -3 -7 41.96 3.11
-13 3 -7 43.66 3.16
-15 -3 -7 1.15 1.43
-15 3 -7 3.61 1.62
-17 -3 -7 2.95 1.77
-17 3 -7 5.38 1.97
-19 -3 -7 16.67 2.66
-19 3 -7 13.01 2.49
-21 -3 -7 22.09 3.11
-21 3 -7 20.36 3.12
-23 -3 -7 5.79 2.39
-23 3 -7 7.17 2.57
-22 -4 7 -1.83 2.26
-22 4 7 -0.75 2.14
-22 4 7 1.82 2.11
-20 -4 7 11.89 2.92
-20 4 7 6.79 2.2
-20 4 7 8.41 2.55
-18 -4 7 8.03 2.62
-18 4 7 4.4 2.01
-18 4 7 6.05 2.24
-16 -4 7 24.46 3.31
-16 4 7 13.54 2.65
-16 4 7 24.49 3.15
-14 -4 7 5.8 2.11
-14 4 7 3.65 1.8
-12 -4 7 3.48 1.88
12 -4 -7 6.24 1.83
-12 4 7 1.64 1.5
10 -4 -7 -0.18 1.26
-10 -4 7 0.46 1.39
-10 4 7 -0.01 1.29
-8 -4 7 6.23 1.77
8 -4 -7 5.01 1.52
-8 4 7 4.03 1.71
6 -4 -7 2.54 1.34
-6 -4 7 6.39 1.7
-6 -4 7 3.78 1.44
-6 4 7 3.77 1.5
4 -4 -7 5.18 1.53
-4 -4 7 4.63 1.59
-4 -4 7 3.15 1.28
-2 -4 7 3.25 1.39
-2 -4 7 2.01 1.47
2 -4 -7 5.23 1.5
0 -4 -7 2.69 1.34
0 -4 7 2.4 1.25
0 -4 7 4.03 1.47
0 4 -7 1.62 1.04
2 -4 7 39.23 2.94
-2 -4 -7 32.94 2.68
2 -4 7 34.51 2.32
-2 4 -7 29.15 2.09
-4 -4 -7 18.03 2.22
4 -4 7 20.72 2.74
-4 4 -7 17.2 2.02
-6 -4 -7 26.81 2.77
6 -4 7 27.83 3.19
-6 4 -7 23.37 2.32
-8 -4 -7 0.37 1.09
8 -4 7 -0.89 1.31
-8 4 -7 1.37 1.14
-10 -4 -7 2.01 1.35
10 -4 7 -0.66 1.47
-10 4 -7 -0.78 1.14
-12 -4 -7 -0.66 1.32
12 -4 7 1.09 1.67
-12 4 -7 1.23 1.33
-14 -4 -7 25.96 2.87
14 -4 7 26.16 3.49
-14 4 -7 28.57 3.09
-16 -4 -7 9.48 2.12
-16 4 -7 11.08 2.3
-18 -4 -7 0.3 1.69
-18 4 -7 3.81 1.9
-20 -4 -7 0.28 1.67
-20 4 -7 -0.06 1.8
-22 -4 -7 -0.52 1.87
-22 4 -7 1.24 2.06
-21 -5 7 9.58 2.81
-21 5 7 5.67 2.22
-21 5 7 2.72 2.3
-19 -5 7 4.37 2.44
-19 5 7 -0.59 1.85
-19 5 7 -3.14 1.74
-17 -5 7 4.17 2.29
-17 5 7 2.88 1.92
-17 5 7 6.74 2.13
-15 -5 7 5.96 2.2
-15 5 7 3.42 1.83
-15 5 7 8.19 2.34
-13 -5 7 13.24 2.46
-13 5 7 14.96 2.62
-11 -5 7 27.79 3.04
11 -5 -7 28.79 3.06
-11 5 7 31.25 3.29
-9 -5 7 1.95 1.51
9 -5 -7 4.32 1.65
-9 5 7 1.07 1.39
-7 -5 7 2.33 1.49
7 -5 -7 4.41 1.46
-7 -5 7 4.4 1.48
-5 -5 7 1.6 1.33
-5 -5 7 1.17 1.32
5 -5 -7 2.47 1.41
-3 -5 7 16.64 1.97
3 -5 -7 12.34 2.01
-3 -5 7 19.47 2.43
-1 -5 7 36.69 3
1 -5 -7 47.86 3
-1 -5 7 37.2 2.48
1 -5 7 15.78 2.37
-1 -5 -7 16.26 2.28
1 -5 7 14.51 1.75
3 -5 7 28.67 3.09
-3 -5 -7 23.15 2.61
-3 5 -7 27.92 2.16
5 -5 7 0.71 1.43
-5 -5 -7 -0.34 1.08
-5 5 -7 -1.53 1
-7 -5 -7 5.33 1.64
7 -5 7 5.39 1.89
-7 5 -7 5.92 1.51
-9 -5 -7 25.99 2.82
9 -5 7 19.21 3
-9 5 -7 26.87 2.66
-11 -5 -7 5.41 1.87
11 -5 7 2.61 1.85
-11 5 -7 3.11 1.61
13 -5 7 0.32 1.5
-13 -5 -7 0.44 1.48
-13 5 -7 0.16 1.39
15 -5 7 3.86 2.2
-15 -5 -7 3.17 1.67
-15 5 -7 1.72 1.59
-17 -5 -7 6.59 2.09
-17 -5 -7 8.93 1.85
17 -5 7 9.46 2.87
-17 5 -7 11.18 2.52
-19 -5 -7 18.78 2.85
-19 5 -7 15.62 2.8
-21 -5 -7 18.31 3.03
-21 5 -7 24.73 3.48
-20 -6 7 6.32 2.73
-20 6 7 5.23 2.62
-20 6 7 6 2.35
-18 -6 7 2.9 2.43
-18 6 7 2.14 1.95
-18 6 7 3.34 2.16
-16 -6 7 9.29 2.48
-16 6 7 5.79 2.39
-16 6 7 3.21 1.89
-14 -6 7 10.77 2.32
-14 6 7 11.48 2.24
-12 -6 7 5.81 1.88
-12 6 7 3.95 1.88
10 -6 -7 13.87 2.31
-10 -6 7 14.15 2.29
8 -6 -7 26.87 2.95
-8 -6 7 24 2.63
-8 -6 7 22.83 2.7
-6 -6 7 23.67 2.66
-6 -6 7 27.61 2.7
6 -6 -7 25.41 2.85
-4 -6 7 5.12 1.51
4 -6 -7 6.88 1.83
-4 -6 7 2.69 1.46
-2 -6 7 4.23 1.34
2 -6 -7 6.03 1.66
-2 -6 7 6.18 1.91
0 -6 7 10.73 2.17
0 -6 -7 9.27 1.79
2 -6 7 7.45 2.09
-2 -6 -7 5.42 1.6
-4 -6 -7 33.81 3.18
4 -6 7 34.58 3.46
-6 -6 -7 59.95 3.56
6 -6 7 61 4.01
-6 6 -7 52.54 3.01
8 -6 7 9.12 2.35
-8 -6 -7 10.74 2.12
-8 6 -7 10.81 1.87
10 -6 7 9 2.44
-10 -6 -7 4.91 1.81
-10 6 -7 4.98 1.62
-12 -6 -7 13.05 2.42
12 -6 7 9.87 2.58
-12 6 -7 11.96 2.26
-14 -6 -7 18.82 2.8
14 -6 7 20.66 3.48
-14 6 -7 18.42 2.72
16 -6 7 8.07 2.8
-16 -6 -7 5.08 1.87
-16 6 -7 4.56 2.03
-18 -6 -7 1.33 1.75
-18 -6 -7 0.23 1.53
18 -6 7 4.24 2.43
-18 6 -7 7.04 2.31
-20 -6 -7 3.18 2.04
-20 6 -7 9.79 2.48
-19 -7 7 4.17 2.59
-19 7 7 -0.47 2.08
-19 7 7 -0.5 1.89
-17 -7 7 0.61 2.02
-17 7 7 1.22 2.03
-17 7 7 2.68 2.09
-15 -7 7 5.31 2.25
-15 7 7 6.75 2.52
-13 -7 7 8.64 2.26
11 -7 -7 8.27 2.18
-11 -7 7 5.33 1.91
9 -7 -7 2.41 1.47
-9 -7 7 6 1.81
-9 -7 7 2.85 1.6
7 -7 -7 0.06 1.28
-7 -7 7 -0.68 1.35
-7 -7 7 0.75 1.49
-5 -7 7 2.25 1.4
-5 -7 7 0.62 1.55
5 -7 -7 0.99 1.37
-3 -7 7 33.66 3.39
-3 -7 7 24.52 2.4
3 -7 -7 26.76 2.95
-1 -7 7 13.89 2.53
1 -7 -7 10.76 2.17
1 -7 7 30.61 3.47
-1 -7 -7 27.07 2.92
-3 -7 -7 17.86 2.53
3 -7 7 16.13 2.71
5 -7 7 4.43 1.83
-5 -7 -7 0.65 1.37
7 -7 7 26.38 3.42
-7 -7 -7 28.53 3.25
9 -7 7 11.1 2.5
-9 -7 -7 11.47 2.24
-9 7 -7 13.7 2.5
-11 -7 -7 9.15 2.16
11 -7 7 7.2 2.22
-11 7 -7 6.4 1.98
-13 -7 -7 -0.2 1.66
13 -7 7 1.76 1.96
-13 7 -7 0.62 1.56
15 -7 7 1.49 2.15
-15 -7 -7 -1.35 1.69
-15 7 -7 0.93 1.71
-17 -7 -7 1.21 1.86
-17 -7 -7 2.72 1.81
17 -7 7 9.71 2.86
-17 7 -7 4.8 2.21
-19 -7 -7 2.73 1.8
19 -7 7 3.83 2.56
-19 -7 -7 1.75 2.02
-19 7 -7 7.11 2.65
-18 -8 7 11.29 2.97
-18 8 7 9.86 2.89
-16 -8 7 8.93 2.67
-16 8 7 7.49 2.78
-14 -8 7 4.93 2.44
12 -8 -7 -1.86 1.42
-12 -8 7 1.16 1.81
-10 -8 7 6.85 2.01
-10 -8 7 2.86 1.97
10 -8 -7 2.1 1.71
-8 -8 7 21.82 2.78
-8 -8 7 14.28 2.56
8 -8 -7 18.88 2.74
6 -8 -7 14.54 2.4
-6 -8 7 19.66 3.04
-6 -8 7 17.03 2.28
-4 -8 7 11.67 2.09
4 -8 -7 11.15 2.21
-4 -8 7 12.17 2.4
2 -8 -7 4.02 1.59
-2 -8 7 -1.24 1.39
0 -8 -7 2.45 1.51
0 -8 7 3.27 1.8
-2 -8 -7 -0.41 1.27
2 -8 7 -0.18 1.67
-4 -8 -7 19.31 2.85
4 -8 7 20.54 3.16
6 -8 7 21.57 3.1
-6 -8 -7 22.36 2.8
-8 -8 -7 2.13 1.67
8 -8 7 1.91 1.96
-10 -8 -7 -0.83 1.61
10 -8 7 0.87 1.85
-12 -8 -7 4.72 1.99
12 -8 7 5.03 2.26
14 -8 7 14.33 3.27
-14 -8 -7 10.95 2.43
-14 8 -7 12.7 2.6
-16 -8 -7 6 2.3
-16 -8 -7 8.74 2.37
16 -8 7 -0.41 2.31
-16 8 -7 4.67 2.15
18 -8 7 1.11 2.46
-18 -8 -7 -0.09 1.76
-18 -8 -7 2.16 2.25
-18 8 -7 6.44 2.5
-15 -9 7 0.83 2.33
-13 -9 7 0.7 2.04
-11 -9 7 0.97 1.93
-11 -9 7 0.23 1.81
11 -9 -7 0.58 1.78
-9 -9 7 1.88 1.8
9 -9 -7 -0.65 1.52
-9 -9 7 1.39 1.83
-7 -9 7 1.17 1.62
-7 -9 7 5.92 1.86
7 -9 -7 0.54 1.67
-5 -9 7 1.45 1.7
5 -9 -7 0.3 1.38
3 -9 -7 0.75 1.35
-3 -9 7 -1.55 1.49
1 -9 -7 5.66 1.9
-1 -9 7 2.28 1.8
1 -9 7 -0.21 1.8
-1 -9 -7 1.83 1.54
-3 -9 -7 4.53 1.82
3 -9 7 -0.1 1.81
5 -9 7 -0.25 1.88
-5 -9 -7 -1.24 1.54
7 -9 7 2.28 1.96
-7 -9 -7 -0.37 1.51
9 -9 7 4.49 2.3
-9 -9 -7 -0.34 1.7
-11 -9 -7 0.59 1.78
11 -9 7 -1.42 1.95
-13 -9 -7 0.91 1.96
13 -9 7 -0.93 1.65
-15 -9 -7 0.35 1.99
-15 -9 -7 2.62 2.25
15 -9 7 -0.11 2.25
-12 -10 7 0.1 1.99
12 -10 -7 0.71 1.81
-12 -10 7 -0.27 2.04
-10 -10 7 9.15 2.44
-10 -10 7 7.5 2.44
10 -10 -7 6.68 2.36
-8 -10 7 9.03 2.66
8 -10 -7 6.92 2.25
6 -10 -7 4.18 1.89
-6 -10 7 9.56 2.52
-4 -10 7 11.8 2.71
4 -10 -7 6.96 2.24
-2 -10 7 -0.39 1.59
2 -10 -7 -0.35 1.39
0 -10 7 7.17 2.37
0 -10 -7 6.12 1.86
2 -10 7 18.75 3.09
-2 -10 -7 13.16 2.6
4 -10 7 29.44 3.93
-4 -10 -7 31.77 3.66
6 -10 7 32.5 4.22
-6 -10 -7 37.3 3.72
8 -10 7 11.17 3
-8 -10 -7 10.14 2.64
-10 -10 -7 3.38 2.15
10 -10 7 1.04 2.36
-12 -10 -7 7.46 2.35
12 -10 7 5.8 2.85
-9 -11 7 1.19 2.27
9 -11 -7 -0.92 1.81
-7 -11 7 3.01 2.22
7 -11 -7 1.95 1.95
5 -11 -7 -1.82 1.79
-5 -11 7 1.83 2.13
-3 -11 7 2 2
3 -11 -7 3.92 2.02
-1 -11 7 3.74 1.93
1 -11 -7 0.02 1.71
1 -11 7 0.78 2
-1 -11 -7 0.98 1.61
-3 -11 -7 0.94 1.7
3 -11 7 0.64 2.24
5 -11 7 -2.06 1.87
-5 -11 -7 -1.63 1.74
-7 -11 -7 -0.85 1.81
7 -11 7 1.4 2.31
9 -11 7 5.36 2.66
-9 -11 -7 0.28 2.13
2 -12 -7 -0.43 1.98
-2 -12 7 -0.4 2.08
0 -12 7 -0.01 2.29
0 -12 -7 2.26 2.02
-2 -12 -7 4.79 2.3
-22 0 8 -1.26 2.53
-20 0 8 0.44 2.34
-18 0 8 8.84 2.8
-16 0 8 12.66 2.91
-14 0 8 62.48 4.32
-12 0 8 22.98 3.06
-10 0 8 13.33 2.54
10 0 -8 12.55 1.86
8 0 -8 1.01 1.07
-8 0 8 -1.4 1.25
6 0 -8 5.08 1.45
-6 0 8 9.33 1.93
-4 0 8 34.29 3.04
4 0 -8 33.31 2.56
2 0 -8 5.93 1.48
-2 0 8 8.69 1.89
0 0 -8 3.28 1.26
0 0 8 5.34 1.52
-2 0 -8 7.59 1.61
2 0 8 9.66 1.86
-4 0 -8 1.18 1.2
-6 0 -8 9.45 1.73
-8 0 -8 25.48 2.8
-10 0 -8 9.32 1.93
-12 0 -8 5.59 1.76
-14 0 -8 7.7 1.92
-16 0 -8 34.33 3.61
-18 0 -8 28.26 3.47
-20 0 -8 2.7 1.97
-21 -1 8 3.36 2.61
-21 1 8 0.1 2.59
-19 -1 8 -0.69 2.18
-19 1 8 -2.75 2.19
-17 -1 8 0.87 1.96
-17 1 8 2.02 2.21
-15 -1 8 -0.67 1.84
-15 1 8 -0.28 1.81
-13 -1 8 9.58 2.28
13 -1 -8 7.92 1.78
-13 1 8 8.02 2.28
11 -1 -8 5.12 1.57
-11 -1 8 3.98 1.87
-11 1 8 5.57 1.79
9 -1 -8 2.75 1.28
-9 -1 8 3.57 1.74
-9 1 8 4.6 1.66
7 -1 -8 0.69 1.1
-7 -1 8 0.34 1.32
-7 1 8 1.29 1.38
7 1 -8 1.72 1.03
5 -1 -8 1.03 1.24
-5 -1 8 0.95 1.35
-5 1 8 1.03 1.36
5 1 -8 1.7 1.02
-3 -1 8 4.16 1.45
3 -1 -8 3.2 1.33
-3 1 8 5.45 1.8
3 1 -8 3.18 1.28
1 -1 -8 0.44 1.06
-1 -1 8 1.63 1.38
-1 -1 8 0.93 1.24
1 1 -8 1.16 1.19
-1 1 8 2.24 1.36
-1 -1 -8 0.94 1.1
1 -1 8 -0.76 1.16
1 -1 8 1.42 1.35
-1 1 -8 -1.36 0.84
3 -1 8 3.3 1.41
3 -1 8 2.72 1.58
-3 -1 -8 1.92 1.27
-3 1 -8 4.59 1.45
-5 -1 -8 5.01 1.49
-5 1 -8 4.39 1.41
-7 -1 -8 2.21 1.34
-7 1 -8 2.32 1.23
-9 -1 -8 1.72 1.44
-9 1 -8 2.45 1.33
-11 -1 -8 1.14 1.27
-11 1 -8 0.06 1.3
-13 -1 -8 0.37 1.38
-13 1 -8 4.69 1.78
-15 -1 -8 2.55 1.72
-15 1 -8 4.28 1.87
-17 -1 -8 -0.35 1.59
-17 1 -8 -0.97 1.56
-19 -1 -8 2.39 1.75
-19 1 -8 1.21 1.62
-21 -1 -8 -0.77 1.84
-21 1 -8 0.92 1.84
-22 2 8 -0.26 2.51
-20 -2 8 4.3 2.42
-20 2 8 0.63 2.4
-18 -2 8 6.31 2.73
-18 2 8 7.4 2.61
16 -2 -8 29.52 3.13
-16 -2 8 32.78 3.95
-16 2 8 26.84 3.53
14 -2 -8 20.87 2.49
-14 -2 8 41.26 4.04
-14 2 8 30.89 3.48
-12 -2 8 20.12 2.96
12 -2 -8 20.3 2.5
-12 2 8 16.93 2.68
-10 -2 8 5.74 1.91
10 -2 -8 4.72 1.57
-10 2 8 2.45 1.7
-8 -2 8 2.23 1.39
8 -2 -8 1.01 1.18
-8 2 8 0.05 1.46
-6 -2 8 22.83 2.75
6 -2 -8 16.1 2.21
-6 2 8 19.95 2.53
4 -2 -8 22.55 2.49
-4 -2 8 19.23 2.38
4 2 -8 18.34 1.98
-4 2 8 22.84 2.75
-2 -2 8 21.41 2.37
-2 -2 8 24.74 2.58
2 -2 -8 16.78 2.15
-2 2 8 17.33 2.32
2 2 -8 24.1 2.33
0 -2 -8 3.64 1.4
0 -2 8 2.09 1.39
0 -2 8 3.13 1.27
0 2 -8 3.31 1.21
2 -2 8 -0.55 1.14
-2 -2 -8 1.13 1.14
2 -2 8 0.83 1.41
-2 2 -8 0.67 1.1
4 -2 8 1.89 1.23
-4 -2 -8 1.62 1.43
4 -2 8 1.49 1.39
-4 2 -8 2.3 1.17
-6 -2 -8 35.11 2.79
6 -2 8 38.08 3.71
-6 2 -8 37.85 2.73
8 -2 8 48.57 4.33
-8 -2 -8 48.57 3.18
-8 2 -8 44 2.87
-10 -2 -8 102.31 4.5
-10 2 -8 88.32 4.14
-12 -2 -8 22.16 2.78
-12 2 -8 16.65 2.45
-14 -2 -8 1.67 1.57
-14 2 -8 1.46 1.52
-16 -2 -8 6.64 2.12
-16 2 -8 12.56 2.41
-18 -2 -8 10.73 2.47
-18 2 -8 19.3 3.08
-20 -2 -8 17.51 2.94
-20 2 -8 22.24 3.28
-21 -3 8 2.64 2.87
-21 3 8 5.75 2.72
-19 -3 8 7.65 2.73
-19 3 8 9.25 2.74
-17 -3 8 6.73 2.52
17 -3 -8 6.29 1.87
-17 3 8 7.6 2.29
-15 -3 8 1.39 2.03
15 -3 -8 -0.78 1.34
-15 3 8 -0.35 1.85
13 -3 -8 0.5 1.23
-13 -3 8 -0.21 1.93
-13 3 8 -1.15 1.77
-11 -3 8 0.99 1.5
11 -3 -8 3.18 1.4
-11 3 8 3.18 1.88
-9 -3 8 3.87 1.78
9 -3 -8 5.34 1.6
-9 3 8 1.67 1.63
7 -3 -8 0.92 1.18
-7 -3 8 1.2 1.36
-7 3 8 2.37 1.59
-5 -3 8 1.34 1.28
5 -3 -8 0.49 1.2
-5 3 8 -0.2 1.31
-3 -3 8 -0.04 1.35
-3 -3 8 2.69 1.42
3 -3 -8 2.64 1.33
-3 3 8 1.24 1.31
-1 -3 8 2.67 1.34
-1 -3 8 2.1 1.47
1 -3 -8 1.12 1.2
1 3 -8 6.04 1.42
1 -3 8 1.78 1.51
-1 -3 -8 0.4 1.24
1 -3 8 2.77 1.16
-1 3 -8 2.12 1.14
3 -3 8 0.75 1.07
-3 -3 -8 0.63 1.19
3 -3 8 0.36 1.42
-3 3 -8 1.47 1.09
-5 -3 -8 0.36 1.27
5 -3 8 0.86 1.54
-5 3 -8 1.13 1.04
7 -3 8 -0.42 1.48
-7 -3 -8 2.21 1.48
-7 3 -8 1.7 1.4
9 -3 8 1.81 1.86
-9 -3 -8 2.88 1.45
-9 3 -8 3.82 1.59
-11 -3 -8 6.3 1.95
11 -3 8 9.53 2.52
-11 3 -8 6.39 1.89
-13 -3 -8 8.34 2.04
-13 3 -8 9.1 2.05
-15 -3 -8 2.35 1.81
-15 3 -8 5.6 1.79
-17 -3 -8 0.87 1.7
-17 3 -8 2.09 1.87
-19 -3 -8 0.08 1.73
-19 3 -8 -0.6 1.69
-21 -3 -8 3.65 2.14
-21 3 -8 2.61 2.35
-20 -4 8 4.8 2.96
-20 4 8 0.9 2.55
-18 -4 8 2.82 2.38
-18 4 8 -0.36 2.39
16 -4 -8 15.54 2.58
-16 -4 8 21.54 3.39
-16 4 8 21.75 3.43
-14 -4 8 39.56 3.91
14 -4 -8 31.74 3.37
-14 4 8 41.91 4.21
-12 -4 8 14.99 2.59
12 -4 -8 17.2 2.46
-12 4 8 16.64 2.99
10 -4 -8 3.35 1.41
-10 -4 8 1.66 1.78
-10 4 8 2.58 1.82
8 -4 -8 1.01 1.4
-8 -4 8 3.66 1.66
-8 4 8 3.29 1.79
6 -4 -8 3.36 1.47
-6 -4 8 6.03 1.71
-6 4 8 9.94 2.17
-4 -4 8 4.28 1.6
-4 -4 8 7.75 1.76
4 -4 -8 8.55 1.85
-2 -4 8 -0.02 1.35
2 -4 -8 1.99 1.27
-2 -4 8 0.49 1.26
0 -4 -8 -0.68 1.19
0 -4 8 0.7 1.38
0 -4 8 1.77 1.25
-2 -4 -8 11.74 2.1
2 -4 8 15.24 2.53
-2 4 -8 11.27 1.79
4 -4 8 1.18 1.54
-4 -4 -8 -1.28 1.14
-4 4 -8 0.44 1.1
6 -4 8 35.95 3.84
-6 -4 -8 25.68 2.84
-6 4 -8 38.34 2.72
8 -4 8 30.94 3.69
-8 -4 -8 35.85 3.39
-8 4 -8 36.39 3.29
-10 -4 -8 16.34 2.46
10 -4 8 21.47 3.23
-10 4 -8 26.8 2.87
12 -4 8 16.72 3.2
-12 -4 -8 10.45 2.39
-12 4 -8 15.08 2.42
14 -4 8 2.28 2.23
-14 -4 -8 1.44 1.7
-14 4 -8 1.73 1.76
-16 -4 -8 6.03 2.13
-16 4 -8 3.13 1.95
-18 -4 -8 13.91 2.56
-18 4 -8 16.31 2.93
-20 -4 -8 10.84 2.62
-20 4 -8 8.21 2.52
-19 -5 8 5.03 2.87
-19 5 8 11.07 3.18
-17 -5 8 6.23 2.61
-17 5 8 9.02 2.85
-15 -5 8 -2.12 2.11
15 -5 -8 0.13 1.77
-15 5 8 2.51 2.24
13 -5 -8 1.38 1.61
-13 -5 8 4.26 2.27
-13 5 8 9.27 2.38
11 -5 -8 -1.48 1.27
-11 -5 8 -0.21 1.72
-11 5 8 0.43 1.8
-9 -5 8 8.72 2.15
9 -5 -8 14.49 2.32
-9 5 8 10.52 2.48
7 -5 -8 8.32 1.98
-7 -5 8 8.09 2.01
5 -5 -8 10.21 2.09
-5 -5 8 6.06 1.96
-5 -5 8 12.55 2.2
3 -5 -8 0.53 1.19
-3 -5 8 -0.76 1.47
-3 -5 8 0.97 1.28
1 -5 -8 23.02 2.88
-1 -5 8 25.23 2.86
-1 -5 8 26.25 2.57
-1 -5 -8 7.28 1.95
1 -5 8 8.8 2.15
-3 -5 -8 14.45 2.34
3 -5 8 13.84 2.56
5 -5 8 11.25 2.58
-5 -5 -8 11.32 2.17
-5 5 -8 15.87 2.1
-7 -5 -8 -1.27 1.19
7 -5 8 -1.47 1.5
-7 5 -8 0.39 1.41
-9 -5 -8 2.01 1.53
9 -5 8 0.81 1.69
-9 5 -8 1.25 1.47
11 -5 8 1.18 1.97
-11 -5 -8 2.41 1.86
-11 5 -8 2.76 1.71
13 -5 8 22.37 3.67
-13 -5 -8 20.18 2.84
-13 5 -8 26.19 3.04
-15 -5 -8 7.05 2.1
15 -5 8 14.75 3.1
-15 5 -8 2.97 1.97
-17 -5 -8 2.15 1.98
-17 5 -8 6.15 2.35
-19 -5 -8 -0.08 2.02
-19 5 -8 1.97 1.96
-18 -6 8 0.79 2.52
-18 6 8 3.23 2.61
16 -6 -8 0.79 1.74
-16 -6 8 -0.37 2.2
-16 6 8 1.88 2.45
14 -6 -8 12.11 2.49
-14 -6 8 16.45 2.96
-14 6 8 16.14 2.96
-12 -6 8 20.51 3.11
12 -6 -8 10.99 2.29
10 -6 -8 0.24 1.43
-10 -6 8 3.13 1.9
-8 -6 8 0.93 1.74
8 -6 -8 -0.35 1.38
-6 -6 8 5.43 1.94
-6 -6 8 7.08 1.84
6 -6 -8 7.12 1.92
4 -6 -8 2.51 1.53
-4 -6 8 6.24 1.77
-4 -6 8 1.66 1.71
-2 -6 8 0.25 1.7
2 -6 -8 -1.21 1.17
0 -6 -8 6.22 1.83
0 -6 8 10.16 2.28
2 -6 8 2.18 1.84
-2 -6 -8 8.43 2.15
-4 -6 -8 -1.03 1.3
4 -6 8 1.3 1.67
6 -6 8 7.42 2.3
-6 -6 -8 7.39 2.22
8 -6 8 17.12 2.93
-8 -6 -8 12.82 2.44
10 -6 8 4.29 2.4
-10 -6 -8 4.22 1.84
-10 6 -8 1.84 1.62
12 -6 8 0.25 2.05
-12 -6 -8 -2.27 1.59
-12 6 -8 0.48 1.62
-14 -6 -8 -0.22 1.73
14 -6 8 2.97 2.29
-14 6 -8 3.44 1.88
-16 -6 -8 5.63 2.19
16 -6 8 2.75 2.53
-16 6 -8 5.91 2.3
-18 -6 -8 1.33 1.94
-18 6 -8 7.05 2.47
-17 -7 8 4.27 2.65
-15 -7 8 -0.73 2.15
15 -7 -8 -2.06 1.67
13 -7 -8 5.57 1.97
-13 -7 8 4.6 2.32
11 -7 -8 13.61 2.72
-11 -7 8 24.65 3.2
-9 -7 8 33.12 3.37
9 -7 -8 28.51 3.35
-7 -7 8 19.71 2.78
7 -7 -8 13.31 2.49
-7 -7 8 18.1 2.68
-5 -7 8 1.88 1.65
-5 -7 8 3.04 1.84
5 -7 -8 0.41 1.54
3 -7 -8 0.3 1.47
-3 -7 8 2.24 1.9
-1 -7 8 0.13 1.67
1 -7 -8 0.55 1.37
1 -7 8 9.94 2.51
-1 -7 -8 11.63 2.17
3 -7 8 29.2 3.59
-3 -7 -8 21.1 2.87
-5 -7 -8 12.82 2.48
5 -7 8 16.76 2.91
7 -7 8 1.87 1.87
-7 -7 -8 4.63 1.91
9 -7 8 1.25 2.03
-9 -7 -8 1.69 1.76
-11 -7 -8 8.29 2.5
11 -7 8 10.09 2.94
-13 -7 -8 16.54 2.97
13 -7 8 14.07 3.29
-13 7 -8 16.32 2.87
15 -7 8 10.58 3.1
-15 -7 -8 8.06 2.55
-15 7 -8 11.18 2.55
-17 -7 -8 8.2 2.28
-17 -7 -8 5.84 2.45
-17 7 -8 8.52 2.48
-14 -8 8 6.22 2.48
14 -8 -8 1.68 1.9
-12 -8 8 4.02 2.07
12 -8 -8 4.21 1.85
10 -8 -8 -2.59 1.37
-10 -8 8 -0.6 1.75
8 -8 -8 2.44 1.8
-8 -8 8 -0.22 1.71
-8 -8 8 0.67 1.76
6 -8 -8 1.98 1.64
-6 -8 8 4.87 2
-6 -8 8 4.19 1.9
-4 -8 8 4.11 2.09
4 -8 -8 4.1 1.81
2 -8 -8 -0.19 1.41
-2 -8 8 -0.61 1.77
0 -8 -8 -0.5 1.4
0 -8 8 -0.52 1.89
-2 -8 -8 0.5 1.54
2 -8 8 3.53 2.23
-4 -8 -8 4.83 2.02
4 -8 8 5.82 2.28
6 -8 8 12.12 2.9
-6 -8 -8 5.1 2.13
-8 -8 -8 6.91 2.36
8 -8 8 10.1 2.8
10 -8 8 4.63 2.31
-10 -8 -8 4.8 2.24
-12 -8 -8 7.34 2.6
12 -8 8 2.38 2.64
14 -8 8 0.99 2.37
-14 -8 -8 -0.54 2.1
-13 -9 8 6.37 2.57
-11 -9 8 9.66 2.52
11 -9 -8 16.18 2.81
9 -9 -8 5.74 2.16
-9 -9 8 10.65 2.54
-9 -9 8 6.77 2.39
-7 -9 8 5.58 2.19
7 -9 -8 4.24 1.97
5 -9 -8 3.4 1.68
-5 -9 8 -0.72 1.74
3 -9 -8 -3 1.56
-3 -9 8 0.57 1.93
1 -9 -8 2.12 1.59
-1 -9 8 -0.28 1.86
-1 -9 -8 3.63 1.96
1 -9 8 1.94 2.22
-3 -9 -8 13.96 2.81
3 -9 8 14.51 3.07
5 -9 8 21.18 3.43
-5 -9 -8 12.76 2.58
-7 -9 -8 2.56 1.99
7 -9 8 3.45 2.39
9 -9 8 -0.37 2.14
-9 -9 -8 0.44 2.07
-11 -9 -8 7 2.46
11 -9 8 5.94 2.83
-8 -10 8 2.97 2.2
8 -10 -8 2.07 1.92
-6 -10 8 2.89 2.16
6 -10 -8 -0.83 1.62
-4 -10 8 3.21 2.33
4 -10 -8 3.02 1.89
2 -10 -8 2.67 1.89
-2 -10 8 1.53 2.16
0 -10 -8 0.65 1.68
0 -10 8 4.67 2.46
2 -10 8 -0.9 2.15
-2 -10 -8 0.46 1.84
-4 -10 -8 1.28 1.77
4 -10 8 2.22 2.39
-6 -10 -8 -1.22 1.82
6 -10 8 1.62 2.26
8 -10 8 1.28 2.54
-8 -10 -8 -0.95 2.14
1 -11 -8 0.96 1.96
-1 -11 8 0 2.35
1 -11 8 7.1 3.05
-1 -11 -8 5.69 2.12
-18 0 9 -1.03 2.48
-16 0 9 0.99 2.27
-14 0 9 -0.98 1.99
-12 0 9 1.79 1.95
-10 0 9 1.16 1.9
8 0 -9 0.12 1.17
-8 0 9 0.32 1.54
-6 0 9 0.91 1.57
6 0 -9 0.48 1.31
-4 0 9 -0.83 1.56
4 0 -9 -0.92 1.1
2 0 -9 -0.52 1.23
-2 0 9 0.65 1.46
0 0 9 0.01 1.44
0 0 -9 0.86 1.31
-2 0 -9 -1.13 1.02
-4 0 -9 -0.31 1.22
-6 0 -9 1.38 1.36
-8 0 -9 -0.32 1.28
-10 0 -9 0.25 1.44
-12 0 -9 0.66 1.6
-14 0 -9 -1.03 1.45
-16 0 -9 -0.63 1.69
-18 0 -9 3.05 1.97
-19 -1 9 6.13 3.09
-19 1 9 2.37 2.89
-17 -1 9 22.94 3.79
-17 1 9 23.39 3.59
-15 -1 9 17.1 3.42
-15 1 9 19.59 3.35
-13 -1 9 4.05 2.49
-13 1 9 10.04 2.52
-11 -1 9 -1.01 1.81
11 -1 -9 3.09 1.56
-11 1 9 1.3 1.99
9 -1 -9 3.96 1.52
-9 -1 9 1.99 1.86
-9 1 9 3.71 1.89
7 -1 -9 30.59 3.05
-7 -1 9 34.03 3.48
-7 1 9 28 3.32
-5 -1 9 52.76 3.57
5 -1 -9 50.02 3.34
-5 1 9 48.44 3.66
5 1 -9 51.27 3.1
-3 -1 9 13.4 2.34
3 -1 -9 15.64 2.27
-3 1 9 14.31 2.56
3 1 -9 13.08 2
1 -1 -9 1.35 1.23
-1 -1 9 1.8 1.57
-1 1 9 3.33 1.72
1 1 -9 1.87 1.21
-1 -1 -9 4.22 1.52
1 -1 9 1.53 1.56
-1 1 -9 2.49 1.38
-3 -1 -9 17.49 2.41
-3 1 -9 22.54 2.66
-5 -1 -9 30.01 3.08
-5 1 -9 24.64 2.72
-7 -1 -9 17.26 2.5
-7 1 -9 18.95 2.45
-9 -1 -9 16.85 2.6
-9 1 -9 22.41 2.81
-11 -1 -9 4.01 1.71
-11 1 -9 3.2 1.69
-13 -1 -9 1.98 1.74
-13 1 -9 3.13 1.81
-15 -1 -9 15.78 2.88
-15 1 -9 10.5 2.4
-17 -1 -9 8.91 2.55
-17 1 -9 8.29 2.37
-19 1 -9 3.92 2.34
-18 -2 9 0.84 2.54
-18 2 9 -0.17 2.39
-16 -2 9 5.67 2.5
-16 2 9 1.22 2.29
14 -2 -9 1.68 1.68
-14 -2 9 1.18 2.14
-14 2 9 0.55 2.25
12 -2 -9 2.32 1.4
-12 -2 9 0.39 1.96
-12 2 9 -1.35 1.92
-10 -2 9 0.68 2
10 -2 -9 0.84 1.37
-10 2 9 2.31 2.07
8 -2 -9 5.78 1.64
-8 -2 9 1.78 1.75
-8 2 9 0.95 1.83
-6 -2 9 0.75 1.54
6 -2 -9 1.41 1.34
-6 2 9 0.99 1.68
-4 -2 9 1.93 1.55
4 -2 -9 -0.41 1.16
-4 2 9 1.62 1.61
2 -2 -9 0.65 1.28
-2 -2 9 0.62 1.33
-2 2 9 0.32 1.69
2 2 -9 0.28 1.18
0 -2 9 1.05 1.5
0 -2 -9 -0.57 1.27
0 2 -9 2.15 1.3
-2 -2 -9 0.53 1.24
2 -2 9 1.01 1.35
2 -2 9 1.78 1.67
-2 2 -9 2.17 1.4
-4 -2 -9 0.85 1.15
4 -2 9 2.23 1.78
-4 2 -9 1.49 1.32
-6 -2 -9 0.65 1.31
6 -2 9 1.03 1.79
-6 2 -9 0.31 1.23
-8 -2 -9 5.49 1.9
-8 2 -9 1.38 1.33
-10 -2 -9 -0.72 1.38
-10 2 -9 -1.36 1.31
-12 -2 -9 4.35 1.74
-12 2 -9 1.58 1.69
-14 -2 -9 2.91 1.88
-14 2 -9 4.46 2.06
-16 -2 -9 -0.21 1.74
-16 2 -9 0.37 1.73
-18 -2 -9 -0.62 1.82
-18 2 -9 -2.02 1.69
-17 -3 9 16.39 3.38
17 -3 -9 8.21 2.28
-17 3 9 17.43 3.45
-15 -3 9 9.06 2.8
15 -3 -9 2.61 1.68
-15 3 9 3.74 2.64
13 -3 -9 -0.04 1.42
-13 -3 9 8.1 2.61
-13 3 9 2.63 2.29
11 -3 -9 0.57 1.36
-11 -3 9 1.58 2.03
-11 3 9 0.45 2.05
9 -3 -9 2.55 1.49
-9 -3 9 2.22 1.79
-9 3 9 7.58 2.37
-7 -3 9 8.61 2.17
7 -3 -9 11.3 2.06
-7 3 9 12.58 2.63
-5 -3 9 39.78 3.59
5 -3 -9 40.12 3.19
-5 3 9 47.54 3.88
-3 -3 9 11.21 2.09
3 -3 -9 12.49 2.12
-1 -3 9 3.51 1.57
1 -3 -9 2.54 1.57
-1 -3 9 3.25 1.83
-1 -3 -9 2.13 1.46
1 -3 9 4.17 1.67
1 -3 9 -0.44 1.5
-1 3 -9 1.88 1.4
3 -3 9 30.49 3.49
-3 -3 -9 23.91 2.8
-3 3 -9 18.84 2.31
-5 -3 -9 7.26 1.86
5 -3 9 5.61 2.09
-5 3 -9 9.39 1.88
-7 -3 -9 9.15 1.89
7 -3 9 18.44 3.13
-7 3 -9 18.96 2.62
9 -3 9 42.32 4.47
-9 -3 -9 43.13 3.93
-9 3 -9 42.94 3.69
-11 -3 -9 17.06 2.67
-11 3 -9 24.56 3.09
-13 -3 -9 -0.42 1.84
-13 3 -9 3.92 1.8
-15 -3 -9 1.01 1.75
-15 3 -9 3.7 1.86
-17 -3 -9 10.59 2.59
-17 3 -9 12.27 2.73
18 -4 -9 2 1.67
-18 4 9 2.13 2.85
-16 -4 9 -1.52 2.33
16 -4 -9 -3.35 1.33
-16 4 9 5.15 2.75
-14 -4 9 1.19 2.22
14 -4 -9 -0.05 1.52
-14 4 9 -2.27 2.17
-12 -4 9 0.4 2
12 -4 -9 2.07 1.71
-12 4 9 3.21 2.28
-10 -4 9 8.06 2.36
10 -4 -9 6.19 1.84
-10 4 9 7.79 2.46
-8 -4 9 6.16 2
8 -4 -9 6.75 1.77
-8 4 9 2.77 2.03
6 -4 -9 2.01 1.4
-6 -4 9 3.33 1.94
-4 -4 9 3.7 1.74
4 -4 -9 6.74 1.79
2 -4 -9 21.86 2.75
-2 -4 9 19.07 2.49
-2 -4 9 15.05 2.62
0 -4 -9 2.01 1.56
0 -4 9 3.94 1.91
2 -4 9 7.19 2.28
-2 -4 -9 5.26 1.87
-4 -4 -9 -0.48 1.26
4 -4 9 -0.49 2.12
-4 4 -9 -0.67 1.35
6 -4 9 1.61 2.09
-6 -4 -9 1.9 1.54
-6 4 -9 2.28 1.39
8 -4 9 2.22 2.05
-8 -4 -9 4.71 1.9
-8 4 -9 1.19 1.59
10 -4 9 20.72 3.63
-10 -4 -9 19.63 3
-10 4 -9 21.57 2.84
12 -4 9 13.63 3.33
-12 -4 -9 15.65 2.9
-12 4 -9 11.23 2.39
-14 -4 -9 5.63 2.12
-14 4 -9 5.37 2.13
-16 -4 -9 -0.02 1.81
-16 4 -9 5.31 2.22
17 -5 -9 11.37 2.65
-17 5 9 10.16 3.3
-15 -5 9 6.65 2.76
15 -5 -9 5.7 2.08
-15 5 9 14.08 3.32
-13 -5 9 -1.09 2
13 -5 -9 9.2 2.2
-13 5 9 2.37 2.35
11 -5 -9 -1.34 1.39
-11 -5 9 0.9 1.94
-11 5 9 -1.2 2.13
9 -5 -9 2.77 1.61
-9 -5 9 5.57 2.3
7 -5 -9 10.6 2.29
-7 -5 9 14.87 2.51
-5 -5 9 4.8 1.91
5 -5 -9 12.87 2.47
-3 -5 9 1.56 1.84
-3 -5 9 3.38 1.81
3 -5 -9 2.96 1.63
-1 -5 9 2.41 2.01
1 -5 -9 2.69 1.65
1 -5 9 2.81 1.85
-1 -5 -9 -0.15 1.44
-3 -5 -9 10.16 2.24
3 -5 9 16.33 2.93
-5 -5 -9 18.54 2.79
5 -5 9 14.35 2.83
7 -5 9 -2.85 1.76
-7 -5 -9 -0.94 1.44
-9 -5 -9 4.42 2.03
9 -5 9 2.52 2.12
-9 5 -9 2.19 1.65
-11 -5 -9 2.17 2.07
11 -5 9 1.23 2.29
-11 5 -9 3.03 1.82
-13 -5 -9 2.79 1.98
13 -5 9 2.67 2.4
-13 5 -9 -0.59 1.68
-15 -5 -9 5.57 2.24
-15 5 -9 7.19 2.3
14 -6 -9 1.23 1.88
-14 -6 9 4.99 2.47
-14 6 9 -0.34 2.55
12 -6 -9 12.47 2.67
-12 -6 9 10.11 2.68
-10 -6 9 21.4 3.23
10 -6 -9 16.47 2.74
-8 -6 9 16.14 2.67
8 -6 -9 11.11 2.51
6 -6 -9 1.97 1.69
-6 -6 9 1.46 1.72
4 -6 -9 4.15 1.83
-4 -6 9 5.35 2.13
-4 -6 9 10.35 2.41
-2 -6 9 3.66 2.09
2 -6 -9 2.26 1.83
0 -6 9 16.44 2.81
0 -6 -9 11.9 2.55
2 -6 9 20.27 3.01
-2 -6 -9 17.56 2.75
-4 -6 -9 6.49 2.11
4 -6 9 10.67 2.64
-6 -6 -9 0.62 1.69
6 -6 9 0.39 2.09
8 -6 9 -1.45 2
-8 -6 -9 0.95 1.91
-10 -6 -9 16.59 3.08
10 -6 9 10.92 2.98
-12 -6 -9 7.56 2.58
12 -6 9 7.36 2.84
-12 6 -9 9.27 2.28
14 -6 9 4.17 2.96
-14 -6 -9 5.39 2.48
-14 6 -9 9.19 2.54
-13 -7 9 -0.31 2.47
13 -7 -9 1.52 1.78
-11 -7 9 1.76 2.23
11 -7 -9 -0.62 1.7
9 -7 -9 2.65 1.9
-9 -7 9 1.33 1.97
7 -7 -9 12.41 2.48
-7 -7 9 13.43 2.67
5 -7 -9 1.64 1.83
-3 -7 9 6.51 2.21
3 -7 -9 9.55 2.46
-1 -7 9 5.24 2
1 -7 -9 1.5 1.73
1 -7 9 1.24 1.97
-1 -7 -9 -2.21 1.7
3 -7 9 12.49 2.92
-3 -7 -9 4.27 1.98
-5 -7 -9 10.34 2.63
5 -7 9 16.73 3.31
7 -7 9 12.37 3.03
-7 -7 -9 11.84 2.89
-9 -7 -9 -1.74 1.62
9 -7 9 -1.12 2.01
11 -7 9 2.33 2.47
-11 -7 -9 3.07 2.29
13 -7 9 0.39 2.7
-13 -7 -9 -3.2 1.9
-10 -8 9 14.7 2.89
10 -8 -9 12.29 2.76
8 -8 -9 5.51 2.22
6 -8 -9 2.03 1.82
-4 -8 9 0.78 2.13
4 -8 -9 0.9 1.54
2 -8 -9 8.62 2.23
-2 -8 9 1.64 2.23
0 -8 9 5.06 2.43
0 -8 -9 3.87 1.79
-2 -8 -9 5.76 2.28
2 -8 9 4.62 2.46
-4 -8 -9 2.2 2.06
4 -8 9 1.84 2.26
-6 -8 -9 -0.29 1.83
6 -8 9 -1.31 1.91
8 -8 9 2.8 2.52
-8 -8 -9 2.21 2.25
10 -8 9 5.33 3.05
-10 -8 -9 4.01 2.27
5 -9 -9 2.34 2
-5 -9 9 -2.26 2.03
3 -9 -9 1.95 1.8
-3 -9 9 1.38 2.27
-1 -9 9 -0.29 2.19
1 -9 -9 -1.16 1.77
-1 -9 -9 1.24 2.09
1 -9 9 -1.27 2.19
-3 -9 -9 3.56 2.3
3 -9 9 3.92 2.47
-5 -9 -9 0.45 1.94
5 -9 9 2.32 2.69
-7 -9 -9 -2.97 2.03
7 -9 9 1.9 2.5
-14 0 10 9.77 2.88
-12 0 10 -1.61 2.09
-10 0 10 3.84 1.99
-8 0 10 33 3.87
6 0 -10 28.01 2.95
-6 0 10 33.6 3.56
4 0 -10 28.72 3.09
-4 0 10 29.31 3.6
2 0 -10 1.68 1.54
-2 0 10 3.57 1.86
0 0 -10 2.18 1.38
0 0 10 3.57 1.93
-2 0 -10 18.44 2.57
-4 0 -10 9.5 2.06
-6 0 -10 4 1.93
-8 0 -10 3.33 1.77
-10 0 -10 5.39 2.15
-12 0 -10 13.34 2.67
-14 0 -10 12.79 2.69
-15 -1 10 -0.03 2.5
-15 1 10 2.19 2.65
-13 -1 10 0.44 2.42
-13 1 10 5.88 2.71
-11 -1 10 1.42 2.18
-11 1 10 0.72 2.2
-9 -1 10 1.84 2.09
9 -1 -10 0.45 1.29
-9 1 10 -1.47 2.06
-7 -1 10 2.73 1.98
7 -1 -10 -2.82 1.41
-7 1 10 2.7 2.09
5 -1 -10 0.24 1.34
-5 -1 10 5.22 2.2
-5 1 10 1.97 2.15
-3 -1 10 2.39 1.8
3 -1 -10 1.59 1.5
3 1 -10 2.38 1.37
-3 1 10 0.67 1.98
1 -1 -10 2.11 1.58
-1 -1 10 2.2 1.91
1 1 -10 0.95 1.39
-1 -1 -10 1.16 1.46
1 -1 10 3.73 1.78
-1 1 -10 1.68 1.54
-3 -1 -10 1.58 1.44
-3 1 -10 -0.3 1.3
-5 -1 -10 0.12 1.39
-5 1 -10 0.05 1.33
-7 -1 -10 -0.67 1.52
-7 1 -10 0.2 1.49
-9 -1 -10 -0.12 1.64
-9 1 -10 3.92 1.77
-11 -1 -10 1.53 1.88
-11 1 -10 1.69 1.94
-13 -1 -10 1.02 1.9
-13 1 -10 4.44 2.06
-15 -1 -10 1.81 2.19
-15 1 -10 0.9 2
-14 -2 10 2.38 2.69
-14 2 10 0.2 2.43
12 -2 -10 0.59 1.63
-12 -2 10 -1.89 1.87
-12 2 10 -1.48 2.24
10 -2 -10 9.42 2.26
-10 -2 10 5.18 2.46
-10 2 10 7.55 2.63
-8 -2 10 39.23 3.91
8 -2 -10 33.23 3.49
-8 2 10 36.52 4.17
-6 -2 10 61.82 4.14
6 -2 -10 57.29 3.92
-6 2 10 63.29 4.6
4 -2 -10 4.53 1.82
-4 -2 10 7.44 2.11
-4 2 10 6.1 2.5
-2 -2 10 3.63 1.97
2 -2 -10 4.54 1.77
0 -2 -10 1.14 1.55
0 -2 10 0.69 1.63
-2 -2 -10 12.55 2.49
-2 2 -10 12.03 2.14
-4 -2 -10 23.86 2.89
-4 2 -10 22.7 2.84
-6 -2 -10 30.16 3.32
-6 2 -10 29.83 3.18
-8 -2 -10 10.21 2.67
-8 2 -10 7.71 2.1
-10 -2 -10 4.42 2.05
-10 2 -10 0.73 1.66
-12 -2 -10 2.7 1.88
-12 2 -10 5.97 2.15
-14 -2 -10 7.13 2.37
-14 2 -10 7.44 2.37
-15 -3 10 -0.46 2.79
13 -3 -10 1.41 1.66
-13 -3 10 1.32 2.38
-13 3 10 -0.14 2.65
-11 -3 10 3 2.49
11 -3 -10 2.78 1.69
-11 3 10 1.08 2.27
9 -3 -10 3.19 1.79
-9 -3 10 1.51 2.31
-9 3 10 6.77 2.65
7 -3 -10 -0.38 1.44
-7 -3 10 1.97 1.99
-7 3 10 0.04 2.18
5 -3 -10 6.51 1.91
-5 -3 10 8.37 2.15
-3 -3 10 -0.86 1.64
3 -3 -10 -1.48 1.39
-1 -3 10 2.1 1.75
1 -3 -10 1.89 1.89
-1 -3 -10 0.1 1.49
-3 -3 -10 -1.5 1.36
3 -3 10 1.28 2.06
-5 -3 -10 0.21 1.42
5 -3 10 -0.5 1.93
-5 3 -10 0.99 1.42
-7 -3 -10 1.48 1.64
7 -3 10 3.94 2.4
-7 3 -10 6.37 2.12
-9 -3 -10 2.19 2.16
-9 3 -10 6.42 2.13
-11 -3 -10 0.91 1.92
-11 3 -10 3.89 2
-13 -3 -10 4.54 2.02
-13 3 -10 1.7 2
14 -4 -10 2.54 1.89
-14 -4 10 3.22 2.7
12 -4 -10 0.88 1.66
-12 -4 10 -0.25 2.27
-12 4 10 3.06 2.67
10 -4 -10 5.72 2.15
-10 -4 10 4.35 2.51
-10 4 10 1.91 2.34
-8 -4 10 24.13 3.43
8 -4 -10 27.67 3.45
-8 4 10 25.99 3.77
6 -4 -10 11.08 2.43
-6 -4 10 9.76 2.46
4 -4 -10 5.29 2.01
-4 -4 10 6.07 2.06
2 -4 -10 6.14 2.01
0 -4 -10 0.85 1.41
2 -4 10 13.64 2.92
-2 -4 -10 10.6 2.35
4 -4 10 11.61 2.71
-4 -4 -10 7.9 2.35
-6 -4 -10 14.69 2.55
6 -4 10 13.93 3.11
-8 -4 -10 2.24 1.88
8 -4 10 9.7 3.04
-8 4 -10 7.42 2.24
10 -4 10 -0.72 2.28
-10 -4 -10 -0.65 1.97
-10 4 -10 2.1 1.95
-12 -4 -10 5.24 2.46
-12 4 -10 3.39 2.15
11 -5 -10 2.9 1.94
-11 -5 10 2.13 2.49
9 -5 -10 4.46 2.01
-9 -5 10 11.68 2.79
7 -5 -10 1.31 1.62
-7 -5 10 0.32 2.15
5 -5 -10 6.04 2.12
-5 -5 10 6.55 2.33
3 -5 -10 5.84 2.03
1 -5 -10 11.66 2.49
-1 -5 -10 6.69 2.25
1 -5 10 4.86 2.23
-3 -5 -10 0.81 1.74
3 -5 10 0.85 2.12
5 -5 10 1.3 2.29
-5 -5 -10 -1.16 1.68
7 -5 10 4.07 2.54
-7 -5 -10 1.05 1.76
-9 -5 -10 14.86 3.04
9 -5 10 8.7 3.02
11 -5 10 2.59 2.78
-11 -5 -10 -2.94 2.04
10 -6 -10 3.36 2.06
-10 -6 10 7.36 2.69
8 -6 -10 8.81 2.47
-8 -6 10 4.31 2.28
6 -6 -10 6.51 2.17
4 -6 -10 10.56 2.52
2 -6 -10 1.24 1.96
0 -6 10 0.08 2.04
0 -6 -10 0.23 1.6
-2 -6 -10 1.86 1.91
2 -6 10 1.69 2.24
4 -6 10 7.34 2.76
-4 -6 -10 7.76 2.43
-6 -6 -10 -0.94 1.82
6 -6 10 1.83 2.54
-8 -6 -10 0.65 2.03
8 -6 10 0.45 2.5
10 -6 10 6.41 3
7 -7 -10 3.3 2.22
5 -7 -10 0.24 1.75
3 -7 -10 12.6 2.66
1 -7 -10 17.09 3.32
-1 -7 10 22.14 3.51
-1 -7 -10 13.32 2.84
1 -7 10 10.8 2.85
3 -7 10 1.77 2.34
-3 -7 -10 0.79 1.9
-5 -7 -10 -1.89 2
5 -7 10 2.05 2.58
7 -7 10 2.75 2.67
-10 0 11 -0.2 2.61
-8 0 11 -1.44 2.39
-6 0 11 -2.71 2.14
-4 0 11 1 2.17
2 0 -11 -0.11 1.45
-2 0 11 -1.8 1.99
0 0 -11 0.5 1.51
-2 0 -11 -0.59 1.39
-4 0 -11 -0.1 1.71
-6 0 -11 2.75 2.07
-8 0 -11 1.83 2.04
-10 0 -11 -1.32 1.78
-11 -1 11 5.42 2.77
-9 -1 11 11.82 3
-9 1 11 10.57 3.15
-7 -1 11 13.5 3.09
-7 1 11 18.96 3.5
5 -1 -11 4.34 2.01
-5 -1 11 13.88 3.06
-5 1 11 14.47 3.05
-3 -1 11 2.9 2.24
3 -1 -11 0.81 1.57
-3 1 11 1.06 2.37
1 -1 -11 0.35 1.52
-1 -1 11 3.04 2.23
-1 -1 -11 5.8 2.01
-1 1 -11 10.21 2.3
-3 -1 -11 5.6 1.91
-3 1 -11 5.99 2.09
-5 -1 -11 11.04 2.79
-5 1 -11 11.39 2.37
-7 -1 -11 0.39 1.97
-7 1 -11 0.13 1.83
-9 -1 -11 6.08 2.33
-9 1 -11 6.38 2.21
-10 -2 11 2.71 2.5
-10 2 11 -2.76 2.86
-8 -2 11 5.66 2.61
8 -2 -11 -1.12 1.78
-8 2 11 3.57 2.49
6 -2 -11 3.76 1.85
-6 -2 11 -0.65 2.23
-6 2 11 1.67 2.4
-4 -2 11 -1.18 2.03
4 -2 -11 1.28 1.85
-2 -2 11 0.23 2.11
2 -2 -11 -0.79 1.47
0 -2 -11 0.09 1.64
-2 -2 -11 -2.06 1.48
-4 -2 -11 1.2 1.64
-4 2 -11 1.7 1.62
-6 -2 -11 0.22 2.19
-6 2 -11 0.57 1.66
-8 -2 -11 -1.13 2.13
-8 2 -11 -0.17 1.89
-9 -3 11 11.2 3.02
9 -3 -11 13.38 2.55
7 -3 -11 1.55 2.01
-7 -3 11 2.33 2.29
-7 3 11 5.65 2.79
5 -3 -11 -0.14 1.58
-5 -3 11 3.34 2.1
3 -3 -11 4.86 2.15
-3 -3 11 5.02 2.41
1 -3 -11 5.52 2.09
-1 -3 -11 3.34 2.15
-3 -3 -11 7.8 2.36
-5 -3 -11 2.63 1.92
-7 -3 -11 1.82 2.37
-7 3 -11 1.9 2.17
6 -4 -11 -0.52 1.79
-6 -4 11 5.67 2.36
4 -4 -11 -0.5 1.8
2 -4 -11 2.83 1.95
0 -4 -11 0.54 1.82
-2 -4 -11 0.54 2.02
-4 -4 -11 4.66 2.32
-6 -4 -11 8.1 2.5
6 -4 11 5.1 2.95
3 -5 -11 -0.16 2.03
1 -5 -11 1.03 1.88
-1 -5 -11 3.68 2.36
-3 -5 -11 -1.86 2.25
loop_
_smtbx_masks_void_nr
_smtbx_masks_void_average_x
_smtbx_masks_void_average_y
_smtbx_masks_void_average_z
_smtbx_masks_void_volume
_smtbx_masks_void_count_electrons
1 0.000 0.500 -0.639 253.8 63.6
2 0.500 0.000 -0.981 253.8 63.6
