#------------------------------------------------------------------------------
#$Date: 2017-06-05 03:21:22 +0300 (Mon, 05 Jun 2017) $
#$Revision: 197420 $
#$URL: file:///home/coder/svn-repositories/cod/cif/4/12/59/4125919.cif $
#------------------------------------------------------------------------------
#
# This file is available in the Crystallography Open Database (COD),
# http://www.crystallography.net/
#
# All data on this site have been placed in the public domain by the
# contributors.
#
data_4125919
loop_
_publ_author_name
'Bezuidenhout, Charl X.'
'Smith, Vincent J.'
'Esterhuysen, Catharine'
'Barbour, Leonard J.'
_publ_section_title
;
 Solvent- and Pressure-Induced Phase Changes in Two 3D Copper
 Glutarate-Based Metal-Organic Frameworks via Glutarate (+gauche &#x21C4;
 -gauche) Conformational Isomerism.
;
_journal_issue                   16
_journal_name_full               'Journal of the American Chemical Society'
_journal_page_first              5923
_journal_page_last               5929
_journal_paper_doi               10.1021/jacs.7b01764
_journal_volume                  139
_journal_year                    2017
_chemical_formula_moiety         'C11 H12 Cu N O4'
_chemical_formula_sum            'C11 H12 Cu N O4'
_chemical_formula_weight         285.76
_chemical_name_systematic        '[Cu2glu2Bpa]n'
_space_group_crystal_system      monoclinic
_space_group_IT_number           15
_space_group_name_Hall           '-C 2yc'
_space_group_name_H-M_alt        'C 1 2/c 1'
_symmetry_space_group_name_Hall  '-C 2yc'
_symmetry_space_group_name_H-M   'C 1 2/c 1'
_atom_sites_solution_hydrogens   geom
_audit_creation_date             2017-03-28
_audit_creation_method
;
Olex2 1.2
(compiled 2017.03.02 svn.r3394 for OlexSys, GUI svn.r5324)
;
_cell_angle_alpha                90
_cell_angle_beta                 91.796(2)
_cell_angle_gamma                90
_cell_formula_units_Z            8
_cell_length_a                   24.556(2)
_cell_length_b                   12.9794(12)
_cell_length_c                   8.6609(8)
_cell_measurement_reflns_used    7868
_cell_measurement_temperature    100(2)
_cell_measurement_theta_max      28.251
_cell_measurement_theta_min      2.927
_cell_volume                     2759.1(4)
_computing_cell_refinement       'SAINT v8.37A (Bruker, 2015)'
_computing_data_reduction        'SAINT v8.37A (Bruker, 2015)'
_computing_molecular_graphics    'Olex2 (Dolomanov et al., 2009)'
_computing_publication_material  'Olex2 (Dolomanov et al., 2009)'
_computing_structure_refinement  'ShelXL (Sheldrick, 2015)'
_diffrn_ambient_temperature      100.15
_diffrn_measured_fraction_theta_full 0.996
_diffrn_measured_fraction_theta_max 0.995
_diffrn_measurement_device_type  'Bruker APEX-II CCD'
_diffrn_measurement_method       '\f and \w scans'
_diffrn_radiation_type           MoK\a
_diffrn_radiation_wavelength     0.71073
_diffrn_reflns_av_R_equivalents  0.0392
_diffrn_reflns_av_unetI/netI     0.0235
_diffrn_reflns_Laue_measured_fraction_full 0.996
_diffrn_reflns_Laue_measured_fraction_max 0.995
_diffrn_reflns_limit_h_max       32
_diffrn_reflns_limit_h_min       -32
_diffrn_reflns_limit_k_max       17
_diffrn_reflns_limit_k_min       -17
_diffrn_reflns_limit_l_max       11
_diffrn_reflns_limit_l_min       -11
_diffrn_reflns_number            24911
_diffrn_reflns_point_group_measured_fraction_full 0.996
_diffrn_reflns_point_group_measured_fraction_max 0.995
_diffrn_reflns_theta_full        25.242
_diffrn_reflns_theta_max         28.293
_diffrn_reflns_theta_min         1.659
_diffrn_standards_number         0
_exptl_absorpt_coefficient_mu    1.584
_exptl_absorpt_correction_T_max  0.7457
_exptl_absorpt_correction_T_min  0.6249
_exptl_absorpt_correction_type   multi-scan
_exptl_absorpt_process_details
'SADABS-2016/2 (Bruker,2016/2) was used for absorption correction. wR2(int) was 0.1458 before and 0.0474 after correction. The Ratio of minimum to maximum transmission is 0.8380. The \l/2 correction factor is Not present.'
_exptl_crystal_colour            'clear greenish green'
_exptl_crystal_colour_lustre     clear
_exptl_crystal_colour_modifier   greenish
_exptl_crystal_colour_primary    green
_exptl_crystal_density_diffrn    1.376
_exptl_crystal_description       block
_exptl_crystal_F_000             1168
_exptl_crystal_size_max          0.625
_exptl_crystal_size_mid          0.177
_exptl_crystal_size_min          0.088
_refine_diff_density_max         0.523
_refine_diff_density_min         -0.375
_refine_diff_density_rms         0.077
_refine_ls_extinction_method     none
_refine_ls_goodness_of_fit_ref   1.076
_refine_ls_hydrogen_treatment    constr
_refine_ls_matrix_type           full
_refine_ls_number_parameters     154
_refine_ls_number_reflns         3423
_refine_ls_number_restraints     0
_refine_ls_restrained_S_all      1.076
_refine_ls_R_factor_all          0.0347
_refine_ls_R_factor_gt           0.0293
_refine_ls_shift/su_max          0.001
_refine_ls_shift/su_mean         0.000
_refine_ls_structure_factor_coef Fsqd
_refine_ls_weighting_details
'w=1/[\s^2^(Fo^2^)+(0.0373P)^2^+5.5918P] where P=(Fo^2^+2Fc^2^)/3'
_refine_ls_weighting_scheme      calc
_refine_ls_wR_factor_gt          0.0792
_refine_ls_wR_factor_ref         0.0814
_reflns_Friedel_coverage         0.000
_reflns_number_gt                2966
_reflns_number_total             3423
_reflns_threshold_expression     'I > 2\s(I)'
_iucr_refine_instructions_details
;
TITL solve1 in C2/c
    1b_sqz.res
    created by SHELXL-2016/6 at 19:47:25 on 28-Mar-2017
REM solve1 in C2/c
REM 185 parameters refined using 5 restraints
REM Highest difference peak 0.947, deepest hole -0.561, 1-sigma level 0.113
CELL 0.71073 24.5563 12.9794 8.6609 90 91.796 90
ZERR 8 0.0022 0.0012 0.0008 0 0.002 0
LATT 7
SYMM -X,+Y,0.5-Z
SFAC C H Cu N O
UNIT 88 96 8 8 32

L.S. 20
PLAN  20
SIZE 0.088 0.177 0.625
TEMP -173
GRID
BOND $H
ABIN
fmap 2
acta
MERG 2
REM <olex2.extras>
REM <HklSrc "%.\\1b_SQZ.hkl">
REM </olex2.extras>

WGHT    0.037300    5.591800
FVAR       0.05832
CU1   3    0.793970    0.296679    0.555419    11.00000    0.01242    0.01074 =
         0.01134   -0.00088   -0.00365   -0.00236
O1    5    0.825078    0.286305    0.347905    11.00000    0.02143    0.02784 =
         0.01544   -0.00704    0.00162   -0.01086
O2    5    0.755949    0.425764    0.496315    11.00000    0.02029    0.01376 =
         0.02302    0.00260   -0.00923   -0.00153
O3    5    0.750642    0.290519    0.743764    11.00000    0.01579    0.02342 =
         0.01302   -0.00157   -0.00147   -0.00456
N1    4    0.860076    0.360948    0.697275    11.00000    0.01255    0.01372 =
         0.01372   -0.00126   -0.00118   -0.00224
O4    5    0.819170    0.154612    0.592346    11.00000    0.01959    0.01279 =
         0.02987   -0.00246   -0.00877   -0.00043
C1    1    0.797410    0.240349    0.243188    11.00000    0.01630    0.01023 =
         0.01349    0.00152   -0.00150   -0.00016
C5    1    0.708765    0.424578    0.434671    11.00000    0.01647    0.01595 =
         0.00909   -0.00121   -0.00208    0.00040
C6    1    0.901195    0.301954    0.750437    11.00000    0.01766    0.01663 =
         0.01997   -0.00103   -0.00277   -0.00164
AFIX  43
H6    2    0.904574    0.234294    0.710014    11.00000   -1.20000
AFIX   0
C3    1    0.804143    0.118707    0.015235    11.00000    0.02297    0.01399 =
         0.01358   -0.00087   -0.00224   -0.00016
AFIX  23
H3A   2    0.764389    0.123371   -0.006323    11.00000   -1.20000
H3B   2    0.822166    0.109295   -0.084447    11.00000   -1.20000
AFIX   0
C11   1    0.976386    0.473663    1.039220    11.00000    0.01634    0.03495 =
         0.01395   -0.00479   -0.00335   -0.00904
AFIX  23
H11A  2    0.990597    0.415903    1.103343    11.00000   -1.20000
H11B  2    0.958772    0.523462    1.108398    11.00000   -1.20000
AFIX   0
C9    1    0.891665    0.494581    0.869161    11.00000    0.01370    0.02239 =
         0.01876   -0.00946    0.00067   -0.00395
AFIX  43
H9    2    0.887169    0.562417    0.907931    11.00000   -1.20000
AFIX   0
C10   1    0.855536    0.455607    0.758052    11.00000    0.01153    0.01932 =
         0.01769   -0.00423   -0.00207   -0.00125
AFIX  43
H10   2    0.826083    0.497903    0.723078    11.00000   -1.20000
AFIX   0
C8    1    0.934716    0.433226    0.923551    11.00000    0.01360    0.02679 =
         0.01080   -0.00103   -0.00089   -0.00607
C7    1    0.939021    0.334731    0.861412    11.00000    0.01395    0.02165 =
         0.02064    0.00392   -0.00531   -0.00306
AFIX  43
H7    2    0.967769    0.290329    0.895057    11.00000   -1.20000
AFIX   0
C2    1    0.824202    0.219095    0.090688    11.00000    0.02031    0.01310 =
         0.01522    0.00032    0.00213   -0.00197
AFIX  23
H2A   2    0.864163    0.215180    0.108618    11.00000   -1.20000
H2B   2    0.816498    0.277110    0.019078    11.00000   -1.20000
AFIX   0
C4    1    0.816154    0.025745    0.118531    11.00000    0.02494    0.01173 =
         0.01900    0.00004   -0.00860   -0.00006
AFIX  23
H4A   2    0.856159    0.016803    0.127854    11.00000   -1.20000
H4B   2    0.803064    0.041167    0.222990    11.00000   -1.20000
AFIX   0
HKLF 4




REM  solve1 in C2/c
REM R1 =  0.0293 for    2966 Fo > 4sig(Fo)  and  0.0347 for all    3423 data
REM    154 parameters refined using      0 restraints

END  
     
WGHT      0.0373      5.5918 

REM Highest difference peak  0.523,  deepest hole -0.375,  1-sigma level  0.077
Q1    1   0.7981  0.0600  0.0586  11.00000  0.05    0.52
Q2    1   0.9570  0.4592  0.9469  11.00000  0.05    0.39
Q3    1   0.8118  0.2268  0.1720  11.00000  0.05    0.39
Q4    1   0.7593  0.2815  0.6215  11.00000  0.05    0.38
Q5    1   0.7906  0.3830  0.4027  11.00000  0.05    0.37
Q6    1   0.9209  0.4619  0.8830  11.00000  0.05    0.35
Q7    1   0.9369  0.3888  0.8925  11.00000  0.05    0.35
Q8    1   0.7895  0.3798  0.7301  11.00000  0.05    0.34
Q9    1   0.8120  0.1699  0.0666  11.00000  0.05    0.34
Q10   1   0.9206  0.3187  0.8050  11.00000  0.05    0.34
Q11   1   0.8039 -0.0178  0.0779  11.00000  0.05    0.33
Q12   1   0.9559  0.5573  1.0689  11.00000  0.05    0.33
Q13   1   0.8779  0.3809  0.0977  11.00000  0.05    0.32
Q14   1   0.9595  0.4577  1.2284  11.00000  0.05    0.32
Q15   1   0.7920 -0.0401  0.2448  11.00000  0.05    0.31
Q16   1   0.8704  0.6201  0.9380  11.00000  0.05    0.31
Q17   1   0.8664  0.4160  0.7073  11.00000  0.05    0.31
Q18   1   0.8070  0.2014  0.5469  11.00000  0.05    0.30
Q19   1   0.8792  0.4789  0.8002  11.00000  0.05    0.29
Q20   1   0.8013  0.3039  0.4249  11.00000  0.05    0.29

  REM The information below was added by Olex2.
  REM
  REM R1 = 0.0293 for 2966 Fo > 4sig(Fo) and 0.0347 for all 25509 data
  REM n/a parameters refined using n/a restraints
  REM Highest difference peak 0.52, deepest hole -0.38
  REM Mean Shift 0, Max Shift 0.001.

  REM +++ Tabular Listing of Refinement Information +++
  REM R1_all = 0.0347
  REM R1_gt = 0.0293
  REM wR_ref = 0.0814
  REM GOOF = 1.076
  REM Shift_max = 0.001
  REM Shift_mean = 0
  REM Reflections_all = 25509
  REM Reflections_gt = 2966
  REM Parameters = n/a
  REM Hole = -0.38
  REM Peak = 0.52
  REM Flack = n/a

  
;
_cod_data_source_file            1b_SQZ.cif
_cod_data_source_block           1b_sqz
_cod_depositor_comments
'Adding full bibliography for 4125916--4125921.cif.'
_cod_database_code               4125919
_shelx_shelxl_version_number     2016/6
_shelx_space_group_comment
;
The symmetry employed for this shelxl refinement is uniquely defined
by the following loop, which should always be used as a source of
symmetry information in preference to the above space-group names.
They are only intended as comments.
;
_shelx_estimated_absorpt_t_max   0.873
_shelx_estimated_absorpt_t_min   0.438
_olex2_refinement_description
;
1. Fixed Uiso
 At 1.2 times of:
  All C(H) groups, All C(H,H) groups
2.a Secondary CH2 refined with riding coordinates:
 C3(H3A,H3B), C11(H11A,H11B), C2(H2A,H2B), C4(H4A,H4B)
2.b Aromatic/amide H refined with riding coordinates:
 C6(H6), C9(H9), C10(H10), C7(H7)
;
_shelx_fab_file
;
-32 0 2 0.0837 0.0000
-32 2 1 -0.8561 0.0000
-32 2 2 0.0262 0.0000
-31 1 1 -0.5453 0.0000
-31 1 2 0.4838 0.0000
-31 1 3 0.0784 0.0000
-31 3 1 -0.4331 0.0000
-31 3 2 0.3598 0.0000
-31 3 3 -0.1476 0.0000
-31 5 1 0.6452 0.0000
-30 0 2 0.3258 0.0000
-30 0 4 1.6973 0.0000
-30 2 1 -1.5367 0.0000
-30 2 2 0.6744 0.0000
-30 2 3 -0.9758 0.0000
-30 2 4 -0.1134 0.0000
-30 4 1 1.9928 0.0000
-30 4 2 1.1467 0.0000
-30 4 3 0.6305 0.0000
-30 4 4 -0.8865 0.0000
-30 6 1 -1.6786 0.0000
-30 6 2 2.3274 0.0000
-29 1 1 -0.9823 0.0000
-29 1 2 0.4108 0.0000
-29 1 3 0.1423 0.0000
-29 1 4 1.4441 0.0000
-29 1 5 0.7720 0.0000
-29 3 1 -0.5093 0.0000
-29 3 2 1.2397 0.0000
-29 3 3 -0.9501 0.0000
-29 3 4 -0.5692 0.0000
-29 3 5 -0.1123 0.0000
-29 5 1 1.7579 0.0000
-29 5 2 0.9718 0.0000
-29 5 3 0.5838 0.0000
-29 5 4 -1.3442 0.0000
-29 7 1 -2.0335 0.0000
-29 7 2 2.4768 0.0000
-28 0 2 0.0798 0.0000
-28 0 4 3.8381 0.0000
-28 0 6 2.5872 0.0000
-28 2 1 -1.0964 0.0000
-28 2 2 0.4903 0.0000
-28 2 3 -0.6493 0.0000
-28 2 4 -0.2405 0.0000
-28 2 5 0.2159 0.0000
-28 2 6 -0.2039 0.0000
-28 4 1 2.7983 0.0000
-28 4 2 1.1466 0.0000
-28 4 3 -0.5060 0.0000
-28 4 4 -1.1625 0.0000
-28 4 5 -1.0077 0.0000
-28 6 1 -1.9179 0.0000
-28 6 2 1.5344 0.0000
-28 6 3 0.8597 0.0000
-28 6 4 0.4754 0.0000
-28 8 1 -1.3752 0.0000
-28 8 2 0.8336 0.0000
-28 8 3 -0.2906 0.0000
-27 1 1 0.7038 0.0000
-27 1 2 0.0298 0.0000
-27 1 3 0.1202 0.0000
-27 1 4 2.8175 0.0000
-27 1 5 0.0814 0.0000
-27 1 6 0.2102 0.0000
-27 3 1 -0.4457 0.0000
-27 3 2 1.4817 0.0000
-27 3 3 -1.4776 0.0000
-27 3 4 -1.2917 0.0000
-27 3 5 -0.2679 0.0000
-27 3 6 0.2658 0.0000
-27 5 1 2.7934 0.0000
-27 5 2 -1.2316 0.0000
-27 5 3 0.9180 0.0000
-27 5 4 -0.2629 0.0000
-27 5 5 -1.1009 0.0000
-27 7 1 -3.0591 0.0000
-27 7 2 1.7322 0.0000
-27 7 3 -0.4250 0.0000
-27 7 4 1.7924 0.0000
-27 9 1 -0.0616 0.0000
-27 9 2 1.1670 0.0000
-26 0 2 1.0864 0.0000
-26 0 4 4.3911 0.0000
-26 0 6 -1.0520 0.0000
-26 2 1 0.1383 0.0000
-26 2 2 -0.3278 0.0000
-26 2 3 -0.0743 0.0000
-26 2 4 -0.2124 0.0000
-26 2 5 0.2261 0.0000
-26 2 6 -0.4344 0.0000
-26 2 7 1.7498 0.0000
-26 4 1 2.2414 0.0000
-26 4 2 0.8214 0.0000
-26 4 3 -2.0315 0.0000
-26 4 4 -0.1973 0.0000
-26 4 5 -1.1049 0.0000
-26 4 6 0.0458 0.0000
-26 6 1 -0.8505 0.0000
-26 6 2 -1.5632 0.0000
-26 6 3 1.3541 0.0000
-26 6 4 1.1728 0.0000
-26 6 5 -0.4098 0.0000
-26 6 6 -0.0245 0.0000
-26 8 1 -1.4609 0.0000
-26 8 2 1.1525 0.0000
-26 8 3 -0.7920 0.0000
-26 8 4 2.1149 0.0000
-26 10 1 0.1702 0.0000
-26 10 2 0.9276 0.0000
-25 1 1 3.1233 0.0000
-25 1 2 0.1716 0.0000
-25 1 3 0.0287 0.0000
-25 1 4 2.1321 0.0000
-25 1 5 -0.3444 0.0000
-25 1 6 -2.3080 0.0000
-25 1 7 -0.0196 0.0000
-25 3 1 -1.3805 0.0000
-25 3 2 1.4829 0.0000
-25 3 3 -1.4215 0.0000
-25 3 4 -1.3547 0.0000
-25 3 5 0.8044 0.0000
-25 3 6 -0.1208 0.0000
-25 3 7 2.8290 0.0000
-25 5 1 2.1930 0.0000
-25 5 2 -2.3980 0.0000
-25 5 3 -0.3474 0.0000
-25 5 4 1.4690 0.0000
-25 5 5 -1.1530 0.0000
-25 5 6 0.0151 0.0000
-25 7 1 -1.8615 0.0000
-25 7 2 -0.2138 0.0000
-25 7 3 -0.7510 0.0000
-25 7 4 2.4162 0.0000
-25 7 5 -0.3980 0.0000
-25 7 6 -0.4220 0.0000
-25 9 1 0.3106 0.0000
-25 9 2 1.2658 0.0000
-25 9 3 -0.2847 0.0000
-25 9 4 1.1946 0.0000
-25 11 1 -0.4859 0.0000
-24 0 2 2.6032 0.0000
-24 0 4 2.3412 0.0000
-24 0 6 -5.0897 0.0000
-24 0 8 -1.0983 0.0000
-24 2 1 0.2931 0.0000
-24 2 2 -1.2997 0.0000
-24 2 3 0.6077 0.0000
-24 2 4 -1.2448 0.0000
-24 2 5 1.3989 0.0000
-24 2 6 -0.7042 0.0000
-24 2 7 0.7352 0.0000
-24 2 8 0.7523 0.0000
-24 4 1 -0.0306 0.0000
-24 4 2 1.7600 0.0000
-24 4 3 -2.6338 0.0000
-24 4 4 0.5083 0.0000
-24 4 5 0.2525 0.0000
-24 4 6 -0.1961 0.0000
-24 4 7 2.2963 0.0000
-24 6 1 0.5737 0.0000
-24 6 2 -3.1713 0.0000
-24 6 3 0.1752 0.0000
-24 6 4 1.9410 0.0000
-24 6 5 -0.5969 0.0000
-24 6 6 -0.3328 0.0000
-24 6 7 -1.0707 0.0000
-24 8 1 -0.2507 0.0000
-24 8 2 1.1686 0.0000
-24 8 3 -1.7080 0.0000
-24 8 4 2.5440 0.0000
-24 8 5 -0.7239 0.0000
-24 8 6 -0.5036 0.0000
-24 10 1 -0.9020 0.0000
-24 10 2 0.6751 0.0000
-24 10 3 -0.0189 0.0000
-24 10 4 -0.2927 0.0000
-23 1 1 3.7658 0.0000
-23 1 2 0.1953 0.0000
-23 1 3 0.2359 0.0000
-23 1 4 0.0184 0.0000
-23 1 5 -0.5783 0.0000
-23 1 6 -2.8403 0.0000
-23 1 7 -0.7808 0.0000
-23 1 8 0.0421 0.0000
-23 3 1 -1.9040 0.0000
-23 3 2 1.1720 0.0000
-23 3 3 -0.0522 0.0000
-23 3 4 -1.7320 0.0000
-23 3 5 2.7124 0.0000
-23 3 6 -0.7310 0.0000
-23 3 7 1.3627 0.0000
-23 3 8 1.2243 0.0000
-23 5 1 -0.1279 0.0000
-23 5 2 -0.4924 0.0000
-23 5 3 -1.9380 0.0000
-23 5 4 1.7545 0.0000
-23 5 5 0.1499 0.0000
-23 5 6 -0.1694 0.0000
-23 5 7 0.4338 0.0000
-23 7 1 0.4566 0.0000
-23 7 2 -1.2549 0.0000
-23 7 3 -0.7780 0.0000
-23 7 4 2.0553 0.0000
-23 7 5 -0.5682 0.0000
-23 7 6 0.0003 0.0000
-23 7 7 -1.0102 0.0000
-23 9 1 0.7599 0.0000
-23 9 2 0.3871 0.0000
-23 9 3 -1.6949 0.0000
-23 9 4 1.0128 0.0000
-23 9 5 -1.3251 0.0000
-23 11 1 -0.6137 0.0000
-23 11 2 1.4389 0.0000
-23 11 3 0.2313 0.0000
-22 0 2 3.3447 0.0000
-22 0 4 0.8619 0.0000
-22 0 6 -4.8616 0.0000
-22 0 8 -0.5960 0.0000
-22 2 1 0.7192 0.0000
-22 2 2 -2.1104 0.0000
-22 2 3 1.1747 0.0000
-22 2 4 -2.1587 0.0000
-22 2 5 1.6043 0.0000
-22 2 6 0.5696 0.0000
-22 2 7 -2.5185 0.0000
-22 2 8 2.0673 0.0000
-22 4 1 -1.0526 0.0000
-22 4 2 2.6303 0.0000
-22 4 3 -0.9956 0.0000
-22 4 4 -0.2956 0.0000
-22 4 5 2.0644 0.0000
-22 4 6 -0.6838 0.0000
-22 4 7 1.3858 0.0000
-22 4 8 -0.5422 0.0000
-22 6 1 0.9492 0.0000
-22 6 2 -1.9420 0.0000
-22 6 3 -0.8924 0.0000
-22 6 4 1.8661 0.0000
-22 6 5 -0.0243 0.0000
-22 6 6 0.5513 0.0000
-22 6 7 -0.4147 0.0000
-22 8 1 0.7800 0.0000
-22 8 2 0.7389 0.0000
-22 8 3 -2.4459 0.0000
-22 8 4 0.9583 0.0000
-22 8 5 -1.2553 0.0000
-22 8 6 -0.4999 0.0000
-22 10 1 -0.9213 0.0000
-22 10 2 -0.2907 0.0000
-22 10 3 -0.0080 0.0000
-22 10 4 -0.5183 0.0000
-22 10 5 -0.6236 0.0000
-22 12 1 1.3549 0.0000
-22 12 2 0.9338 0.0000
-22 12 3 -0.2940 0.0000
-21 1 1 2.6432 0.0000
-21 1 2 0.8186 0.0000
-21 1 3 -0.3343 0.0000
-21 1 4 -0.0405 0.0000
-21 1 5 -1.4253 0.0000
-21 1 6 -0.7391 0.0000
-21 1 7 -1.8398 0.0000
-21 1 8 0.2962 0.0000
-21 1 9 0.7468 0.0000
-21 3 1 1.8821 0.0000
-21 3 2 -0.2188 0.0000
-21 3 3 1.8134 0.0000
-21 3 4 -1.7899 0.0000
-21 3 5 2.8497 0.0000
-21 3 6 0.1057 0.0000
-21 3 7 -1.9325 0.0000
-21 3 8 1.7687 0.0000
-21 5 1 -1.9232 0.0000
-21 5 2 1.7625 0.0000
-21 5 3 -1.7141 0.0000
-21 5 4 0.5255 0.0000
-21 5 5 1.1390 0.0000
-21 5 6 0.0081 0.0000
-21 5 7 0.2555 0.0000
-21 5 8 -1.4282 0.0000
-21 7 1 1.6940 0.0000
-21 7 2 -1.3056 0.0000
-21 7 3 0.0886 0.0000
-21 7 4 0.6496 0.0000
-21 7 5 -0.6426 0.0000
-21 7 6 1.4965 0.0000
-21 7 7 -0.8739 0.0000
-21 9 1 0.6594 0.0000
-21 9 2 -0.8990 0.0000
-21 9 3 -3.1346 0.0000
-21 9 4 0.3351 0.0000
-21 9 5 -1.6087 0.0000
-21 9 6 -0.1342 0.0000
-21 11 1 0.1388 0.0000
-21 11 2 1.6740 0.0000
-21 11 3 0.5685 0.0000
-21 11 4 -1.2666 0.0000
-21 11 5 0.2793 0.0000
-21 13 1 0.1637 0.0000
-21 13 2 -0.3443 0.0000
-20 0 2 4.5082 0.0000
-20 0 4 1.5522 0.0000
-20 0 6 -1.9857 0.0000
-20 0 8 -0.5650 0.0000
-20 2 1 3.8272 0.0000
-20 2 2 -1.3754 0.0000
-20 2 3 -0.0977 0.0000
-20 2 4 -0.3726 0.0000
-20 2 5 -0.5809 0.0000
-20 2 6 2.3067 0.0000
-20 2 7 -3.8987 0.0000
-20 2 8 1.5316 0.0000
-20 2 9 0.9689 0.0000
-20 4 1 1.6555 0.0000
-20 4 2 1.0919 0.0000
-20 4 3 1.4359 0.0000
-20 4 4 -1.3351 0.0000
-20 4 5 2.3313 0.0000
-20 4 6 -0.7270 0.0000
-20 4 7 -0.8944 0.0000
-20 4 8 -1.0024 0.0000
-20 6 1 0.3340 0.0000
-20 6 2 -0.0885 0.0000
-20 6 3 -0.4268 0.0000
-20 6 4 1.1279 0.0000
-20 6 5 -0.2044 0.0000
-20 6 6 2.3911 0.0000
-20 6 7 0.0943 0.0000
-20 6 8 -0.3527 0.0000
-20 8 1 0.5066 0.0000
-20 8 2 -0.5328 0.0000
-20 8 3 -2.1796 0.0000
-20 8 4 -0.9238 0.0000
-20 8 5 -1.1286 0.0000
-20 8 6 0.1635 0.0000
-20 8 7 -0.3008 0.0000
-20 10 1 0.0715 0.0000
-20 10 2 -1.1487 0.0000
-20 10 3 -0.4171 0.0000
-20 10 4 -0.0775 0.0000
-20 10 5 -0.6748 0.0000
-20 10 6 0.5816 0.0000
-20 12 1 1.0987 0.0000
-20 12 2 1.3040 0.0000
-20 12 3 -0.6668 0.0000
-20 12 4 -0.7109 0.0000
-19 1 1 0.4825 0.0000
-19 1 2 3.2975 0.0000
-19 1 3 -2.9972 0.0000
-19 1 4 1.9324 0.0000
-19 1 5 -1.7016 0.0000
-19 1 6 0.2298 0.0000
-19 1 7 -1.0927 0.0000
-19 1 8 -0.4131 0.0000
-19 1 9 0.9128 0.0000
-19 3 1 9.2843 0.0000
-19 3 2 -1.6810 0.0000
-19 3 3 1.7323 0.0000
-19 3 4 -0.4305 0.0000
-19 3 5 0.8561 0.0000
-19 3 6 1.8887 0.0000
-19 3 7 -3.4113 0.0000
-19 3 8 0.7068 0.0000
-19 3 9 0.5448 0.0000
-19 5 1 -1.6960 0.0000
-19 5 2 1.6244 0.0000
-19 5 3 -0.3177 0.0000
-19 5 4 -0.5822 0.0000
-19 5 5 0.2946 0.0000
-19 5 6 0.1461 0.0000
-19 5 7 0.1953 0.0000
-19 5 8 -1.6452 0.0000
-19 5 9 0.2733 0.0000
-19 7 1 1.4172 0.0000
-19 7 2 -1.3248 0.0000
-19 7 3 0.9561 0.0000
-19 7 4 -0.4646 0.0000
-19 7 5 -0.8766 0.0000
-19 7 6 2.6926 0.0000
-19 7 7 -0.7888 0.0000
-19 7 8 0.2582 0.0000
-19 9 1 -0.5785 0.0000
-19 9 2 -1.6697 0.0000
-19 9 3 -2.8806 0.0000
-19 9 4 0.4996 0.0000
-19 9 5 -0.9237 0.0000
-19 9 6 0.3009 0.0000
-19 9 7 0.8285 0.0000
-19 11 1 1.1418 0.0000
-19 11 2 0.5571 0.0000
-19 11 3 0.5029 0.0000
-19 11 4 -1.0636 0.0000
-19 11 5 -0.1825 0.0000
-19 11 6 -0.4097 0.0000
-19 13 1 0.1206 0.0000
-19 13 2 0.2364 0.0000
-19 13 3 -1.1916 0.0000
-18 0 2 5.1878 0.0000
-18 0 4 0.7941 0.0000
-18 0 6 -0.8342 0.0000
-18 0 8 -0.5525 0.0000
-18 2 1 6.9544 0.0000
-18 2 2 1.9114 0.0000
-18 2 3 -3.5859 0.0000
-18 2 4 3.1409 0.0000
-18 2 5 -2.3622 0.0000
-18 2 6 1.9909 0.0000
-18 2 7 -1.2600 0.0000
-18 2 8 -0.5281 0.0000
-18 2 9 1.5637 0.0000
-18 4 1 5.7531 0.0000
-18 4 2 -1.9200 0.0000
-18 4 3 1.7663 0.0000
-18 4 4 -1.8043 0.0000
-18 4 5 1.4699 0.0000
-18 4 6 -0.6191 0.0000
-18 4 7 -1.9743 0.0000
-18 4 8 -0.8247 0.0000
-18 4 9 0.0713 0.0000
-18 6 1 -0.5199 0.0000
-18 6 2 0.9041 0.0000
-18 6 3 0.5255 0.0000
-18 6 4 0.4085 0.0000
-18 6 5 -1.2721 0.0000
-18 6 6 3.2785 0.0000
-18 6 7 0.6487 0.0000
-18 6 8 -0.2796 0.0000
-18 8 1 -0.6315 0.0000
-18 8 2 -2.3896 0.0000
-18 8 3 -1.0190 0.0000
-18 8 4 -0.7545 0.0000
-18 8 5 -0.4638 0.0000
-18 8 6 0.2748 0.0000
-18 8 7 -0.2491 0.0000
-18 8 8 -0.5880 0.0000
-18 10 1 0.3190 0.0000
-18 10 2 -0.8724 0.0000
-18 10 3 -0.5983 0.0000
-18 10 4 0.7754 0.0000
-18 10 5 -0.9169 0.0000
-18 10 6 0.9084 0.0000
-18 10 7 -0.1625 0.0000
-18 12 1 0.2890 0.0000
-18 12 2 0.8961 0.0000
-18 12 3 -0.2979 0.0000
-18 12 4 -0.7550 0.0000
-18 12 5 -0.4086 0.0000
-18 14 1 -0.0111 0.0000
-18 14 2 -0.1981 0.0000
-17 1 1 -3.3026 0.0000
-17 1 2 4.9466 0.0000
-17 1 3 -5.8442 0.0000
-17 1 4 1.9003 0.0000
-17 1 5 0.4130 0.0000
-17 1 6 -1.5449 0.0000
-17 1 7 0.8502 0.0000
-17 1 8 -0.8644 0.0000
-17 1 9 -0.2417 0.0000
-17 1 10 0.8002 0.0000
-17 3 1 13.9091 0.0000
-17 3 2 -1.1393 0.0000
-17 3 3 -1.1084 0.0000
-17 3 4 0.9580 0.0000
-17 3 5 -0.5533 0.0000
-17 3 6 2.8495 0.0000
-17 3 7 -2.0413 0.0000
-17 3 8 -0.5351 0.0000
-17 3 9 2.1338 0.0000
-17 5 1 -0.5952 0.0000
-17 5 2 -0.1167 0.0000
-17 5 3 0.5501 0.0000
-17 5 4 -1.2892 0.0000
-17 5 5 -0.5939 0.0000
-17 5 6 -0.0740 0.0000
-17 5 7 1.2716 0.0000
-17 5 8 -0.7955 0.0000
-17 5 9 1.0476 0.0000
-17 7 1 0.1487 0.0000
-17 7 2 -1.4300 0.0000
-17 7 3 0.9022 0.0000
-17 7 4 -0.3362 0.0000
-17 7 5 -0.9631 0.0000
-17 7 6 1.8202 0.0000
-17 7 7 -0.5695 0.0000
-17 7 8 -0.3045 0.0000
-17 9 1 -2.4950 0.0000
-17 9 2 -1.7956 0.0000
-17 9 3 -0.7199 0.0000
-17 9 4 1.5843 0.0000
-17 9 5 -0.3238 0.0000
-17 9 6 0.2767 0.0000
-17 9 7 0.5658 0.0000
-17 9 8 -0.5662 0.0000
-17 11 1 1.2635 0.0000
-17 11 2 -0.6247 0.0000
-17 11 3 0.3117 0.0000
-17 11 4 -0.3405 0.0000
-17 11 5 -0.7346 0.0000
-17 11 6 0.7254 0.0000
-17 13 1 0.4989 0.0000
-17 13 2 1.2655 0.0000
-17 13 3 -1.5509 0.0000
-17 13 4 0.1733 0.0000
-16 0 2 0.1816 0.0000
-16 0 4 -3.6999 0.0000
-16 0 6 -1.4783 0.0000
-16 0 10 -0.5410 0.0000
-16 2 1 5.1297 0.0000
-16 2 2 5.9813 0.0000
-16 2 3 -6.6126 0.0000
-16 2 4 4.4032 0.0000
-16 2 5 -0.7366 0.0000
-16 2 6 -0.0114 0.0000
-16 2 7 2.1634 0.0000
-16 2 8 -1.9453 0.0000
-16 2 9 1.6530 0.0000
-16 2 10 2.2651 0.0000
-16 4 1 7.3660 0.0000
-16 4 2 -4.0426 0.0000
-16 4 3 -0.5733 0.0000
-16 4 4 -2.5732 0.0000
-16 4 5 1.2137 0.0000
-16 4 6 -0.2292 0.0000
-16 4 7 -1.1907 0.0000
-16 4 8 0.4474 0.0000
-16 4 9 1.2316 0.0000
-16 6 1 -1.6197 0.0000
-16 6 2 1.2534 0.0000
-16 6 3 1.6263 0.0000
-16 6 4 -0.0923 0.0000
-16 6 5 -1.3594 0.0000
-16 6 6 2.3297 0.0000
-16 6 7 1.2351 0.0000
-16 6 8 0.0613 0.0000
-16 6 9 0.4420 0.0000
-16 8 1 -1.8331 0.0000
-16 8 2 -3.8926 0.0000
-16 8 3 0.4544 0.0000
-16 8 4 1.0828 0.0000
-16 8 5 -0.0913 0.0000
-16 8 6 -0.5345 0.0000
-16 8 7 0.2195 0.0000
-16 8 8 -1.3911 0.0000
-16 10 1 -0.6297 0.0000
-16 10 2 -0.0718 0.0000
-16 10 3 -0.2954 0.0000
-16 10 4 1.1268 0.0000
-16 10 5 -1.3666 0.0000
-16 10 6 1.3246 0.0000
-16 10 7 -0.1989 0.0000
-16 12 1 0.0007 0.0000
-16 12 2 0.2326 0.0000
-16 12 3 0.5665 0.0000
-16 12 4 -0.4203 0.0000
-16 12 5 -0.0399 0.0000
-16 12 6 0.7398 0.0000
-16 14 1 0.6329 0.0000
-16 14 2 0.4732 0.0000
-16 14 3 -1.7244 0.0000
-15 1 1 -7.8142 0.0000
-15 1 2 1.0014 0.0000
-15 1 3 -5.0295 0.0000
-15 1 4 -1.5787 0.0000
-15 1 5 4.0069 0.0000
-15 1 6 -2.7971 0.0000
-15 1 7 1.6943 0.0000
-15 1 8 -0.0993 0.0000
-15 1 9 -1.5727 0.0000
-15 1 10 1.2176 0.0000
-15 3 1 11.3181 0.0000
-15 3 2 1.3731 0.0000
-15 3 3 -5.7136 0.0000
-15 3 4 0.6424 0.0000
-15 3 5 0.0374 0.0000
-15 3 6 2.1558 0.0000
-15 3 7 -0.2813 0.0000
-15 3 8 -1.0303 0.0000
-15 3 10 -0.6359 0.0000
-15 5 1 0.0391 0.0000
-15 5 2 -1.7445 0.0000
-15 5 3 1.3519 0.0000
-15 5 4 -1.7799 0.0000
-15 5 5 0.3925 0.0000
-15 5 6 0.3035 0.0000
-15 5 7 2.4346 0.0000
-15 5 8 0.6281 0.0000
-15 5 9 1.3589 0.0000
-15 7 1 -1.8395 0.0000
-15 7 2 -1.3521 0.0000
-15 7 3 1.2370 0.0000
-15 7 4 0.4476 0.0000
-15 7 5 -1.0053 0.0000
-15 7 6 -0.2359 0.0000
-15 7 7 -0.0998 0.0000
-15 7 8 -0.1286 0.0000
-15 7 9 -2.8042 0.0000
-15 9 1 -3.0933 0.0000
-15 9 2 -1.9794 0.0000
-15 9 3 1.4784 0.0000
-15 9 4 2.1691 0.0000
-15 9 5 -0.3963 0.0000
-15 9 6 0.1759 0.0000
-15 9 7 0.5590 0.0000
-15 9 8 -0.8857 0.0000
-15 11 1 0.8814 0.0000
-15 11 2 -1.2888 0.0000
-15 11 3 0.2700 0.0000
-15 11 4 0.3574 0.0000
-15 11 5 -0.8652 0.0000
-15 11 6 2.1276 0.0000
-15 11 7 -0.4739 0.0000
-15 13 1 1.1105 0.0000
-15 13 2 1.5346 0.0000
-15 13 3 -1.5066 0.0000
-15 13 4 0.2303 0.0000
-15 13 5 0.2046 0.0000
-15 15 1 -0.2639 0.0000
-15 15 2 0.4096 0.0000
-14 0 2 -13.0311 0.0000
-14 0 4 -7.6746 0.0000
-14 0 6 -0.5446 0.0000
-14 0 8 2.0488 0.0000
-14 0 10 -1.2978 0.0000
-14 2 1 -1.3968 0.0000
-14 2 2 7.3309 0.0000
-14 2 3 -6.8948 0.0000
-14 2 4 1.6636 0.0000
-14 2 5 3.5795 0.0000
-14 2 6 -1.4704 0.0000
-14 2 7 2.5955 0.0000
-14 2 8 -1.8783 0.0000
-14 2 9 1.0286 0.0000
-14 2 10 2.0858 0.0000
-14 4 1 5.6226 0.0000
-14 4 2 -4.3536 0.0000
-14 4 3 -4.1985 0.0000
-14 4 4 -3.0809 0.0000
-14 4 5 1.3613 0.0000
-14 4 6 0.4417 0.0000
-14 4 7 -0.0048 0.0000
-14 4 8 1.0596 0.0000
-14 4 9 1.7964 0.0000
-14 4 10 -1.8279 0.0000
-14 6 1 -2.6071 0.0000
-14 6 2 1.4527 0.0000
-14 6 3 3.9860 0.0000
-14 6 4 0.0408 0.0000
-14 6 5 -0.3915 0.0000
-14 6 6 0.9553 0.0000
-14 6 7 1.2460 0.0000
-14 6 8 0.6167 0.0000
-14 6 9 0.0296 0.0000
-14 8 1 -2.3453 0.0000
-14 8 2 -4.1338 0.0000
-14 8 3 1.7568 0.0000
-14 8 4 2.3216 0.0000
-14 8 5 -0.7047 0.0000
-14 8 6 -0.5768 0.0000
-14 8 7 1.0419 0.0000
-14 8 8 -0.9739 0.0000
-14 8 9 -1.6935 0.0000
-14 10 1 -0.5263 0.0000
-14 10 2 -0.4421 0.0000
-14 10 3 -0.0658 0.0000
-14 10 4 0.9218 0.0000
-14 10 5 -1.4713 0.0000
-14 10 6 1.1758 0.0000
-14 10 7 -0.0685 0.0000
-14 10 8 -0.4081 0.0000
-14 12 1 0.8089 0.0000
-14 12 2 -0.8273 0.0000
-14 12 3 1.1988 0.0000
-14 12 4 -0.1149 0.0000
-14 12 5 0.5469 0.0000
-14 12 6 1.1626 0.0000
-14 14 1 0.7599 0.0000
-14 14 2 0.8008 0.0000
-14 14 3 -2.4765 0.0000
-14 14 4 1.2133 0.0000
-13 1 1 -8.5119 0.0000
-13 1 2 -9.4275 0.0000
-13 1 3 0.7617 0.0000
-13 1 4 -4.7773 0.0000
-13 1 5 6.4528 0.0000
-13 1 6 -0.5345 0.0000
-13 1 7 0.7269 0.0000
-13 1 8 1.1950 0.0000
-13 1 9 -2.2408 0.0000
-13 1 10 0.1323 0.0000
-13 3 1 2.8322 0.0000
-13 3 2 3.7437 0.0000
-13 3 3 -10.8176 0.0000
-13 3 4 -0.8841 0.0000
-13 3 5 1.8011 0.0000
-13 3 6 -0.7602 0.0000
-13 3 7 0.0354 0.0000
-13 3 8 -1.5742 0.0000
-13 3 9 2.1519 0.0000
-13 3 10 -0.9908 0.0000
-13 5 1 0.6625 0.0000
-13 5 2 -1.6704 0.0000
-13 5 3 2.6706 0.0000
-13 5 4 -1.0507 0.0000
-13 5 5 2.0938 0.0000
-13 5 6 1.4083 0.0000
-13 5 7 2.2235 0.0000
-13 5 8 1.2112 0.0000
-13 5 9 0.9212 0.0000
-13 5 10 0.0883 0.0000
-13 7 1 -3.4985 0.0000
-13 7 2 -0.7684 0.0000
-13 7 3 2.7863 0.0000
-13 7 4 1.0269 0.0000
-13 7 5 -1.8888 0.0000
-13 7 6 -0.8928 0.0000
-13 7 7 0.4900 0.0000
-13 7 8 0.6330 0.0000
-13 7 9 -1.9268 0.0000
-13 9 1 -0.7807 0.0000
-13 9 2 -2.3690 0.0000
-13 9 3 1.7515 0.0000
-13 9 4 1.8045 0.0000
-13 9 5 -0.8048 0.0000
-13 9 6 0.4640 0.0000
-13 9 7 0.4256 0.0000
-13 9 8 -1.4427 0.0000
-13 11 1 1.3853 0.0000
-13 11 2 -2.0790 0.0000
-13 11 3 0.3339 0.0000
-13 11 4 0.8536 0.0000
-13 11 5 -1.0538 0.0000
-13 11 6 1.8191 0.0000
-13 11 7 -0.1915 0.0000
-13 13 1 1.1710 0.0000
-13 13 2 0.3683 0.0000
-13 13 3 -0.7656 0.0000
-13 13 4 0.0703 0.0000
-13 13 5 0.8807 0.0000
-13 13 6 -0.4131 0.0000
-13 15 1 0.7226 0.0000
-13 15 2 0.3848 0.0000
-13 15 3 -1.3088 0.0000
-12 0 2 -29.0097 0.0000
-12 0 4 -4.5292 0.0000
-12 0 8 2.9489 0.0000
-12 0 10 -2.7956 0.0000
-12 2 1 -6.0952 0.0000
-12 2 2 3.1476 0.0000
-12 2 3 -3.9485 0.0000
-12 2 4 -3.0133 0.0000
-12 2 5 7.8455 0.0000
-12 2 6 -1.9593 0.0000
-12 2 7 -0.1656 0.0000
-12 2 8 -1.0402 0.0000
-12 2 9 -1.1573 0.0000
-12 2 10 0.9632 0.0000
-12 4 1 1.7658 0.0000
-12 4 2 -2.0146 0.0000
-12 4 3 -7.5412 0.0000
-12 4 4 -2.0502 0.0000
-12 4 5 1.3448 0.0000
-12 4 6 0.0178 0.0000
-12 4 7 0.5921 0.0000
-12 4 8 -0.1590 0.0000
-12 4 9 0.3583 0.0000
-12 4 10 -0.7554 0.0000
-12 6 1 -2.2951 0.0000
-12 6 2 2.5156 0.0000
-12 6 3 6.2843 0.0000
-12 6 4 0.8320 0.0000
-12 6 5 0.0051 0.0000
-12 6 6 0.1564 0.0000
-12 6 7 0.7238 0.0000
-12 6 8 0.8739 0.0000
-12 6 9 -0.0583 0.0000
-12 6 10 0.3969 0.0000
-12 8 1 -1.7034 0.0000
-12 8 2 -2.7994 0.0000
-12 8 3 2.0503 0.0000
-12 8 4 2.2277 0.0000
-12 8 5 -1.8574 0.0000
-12 8 6 0.7559 0.0000
-12 8 7 1.4113 0.0000
-12 8 8 -0.2787 0.0000
-12 8 9 -1.0637 0.0000
-12 10 1 1.8162 0.0000
-12 10 2 -2.1193 0.0000
-12 10 3 -0.4282 0.0000
-12 10 4 1.0829 0.0000
-12 10 5 -1.3739 0.0000
-12 10 6 -0.1638 0.0000
-12 10 7 -0.1296 0.0000
-12 10 8 -1.1117 0.0000
-12 12 1 2.0930 0.0000
-12 12 2 -2.3673 0.0000
-12 12 3 1.1371 0.0000
-12 12 4 -0.1600 0.0000
-12 12 5 0.1238 0.0000
-12 12 6 0.2682 0.0000
-12 12 7 -0.9002 0.0000
-12 14 1 0.2983 0.0000
-12 14 2 1.0075 0.0000
-12 14 3 -1.7185 0.0000
-12 14 4 0.7031 0.0000
-12 14 5 0.5826 0.0000
-12 16 1 1.7943 0.0000
-11 1 1 0.1432 0.0000
-11 1 2 -21.5547 0.0000
-11 1 3 9.1092 0.0000
-11 1 4 -2.6898 0.0000
-11 1 5 6.0030 0.0000
-11 1 6 3.6874 0.0000
-11 1 7 -1.2251 0.0000
-11 1 8 1.5401 0.0000
-11 1 9 -2.3940 0.0000
-11 1 10 -1.3985 0.0000
-11 3 1 -6.2472 0.0000
-11 3 2 3.7545 0.0000
-11 3 3 -13.2964 0.0000
-11 3 4 -2.8337 0.0000
-11 3 5 3.9897 0.0000
-11 3 6 -5.2263 0.0000
-11 3 7 -0.8904 0.0000
-11 3 8 -1.8826 0.0000
-11 3 9 -2.2508 0.0000
-11 3 10 0.3942 0.0000
-11 5 1 2.1346 0.0000
-11 5 2 1.7358 0.0000
-11 5 3 3.2995 0.0000
-11 5 4 0.4605 0.0000
-11 5 5 3.2066 0.0000
-11 5 6 1.6414 0.0000
-11 5 7 0.7049 0.0000
-11 5 8 0.9630 0.0000
-11 5 9 -0.0288 0.0000
-11 5 10 1.1216 0.0000
-11 7 1 -3.9792 0.0000
-11 7 2 0.6217 0.0000
-11 7 3 3.4368 0.0000
-11 7 4 0.9910 0.0000
-11 7 5 -2.9933 0.0000
-11 7 6 -0.1015 0.0000
-11 7 7 0.8818 0.0000
-11 7 8 0.6694 0.0000
-11 7 9 0.0648 0.0000
-11 9 1 2.6137 0.0000
-11 9 2 -2.3313 0.0000
-11 9 3 0.3196 0.0000
-11 9 4 1.5629 0.0000
-11 9 5 -1.0576 0.0000
-11 9 6 0.2611 0.0000
-11 9 7 0.0142 0.0000
-11 9 8 -1.8876 0.0000
-11 9 9 -0.7121 0.0000
-11 11 1 2.5170 0.0000
-11 11 2 -3.1415 0.0000
-11 11 3 -0.0083 0.0000
-11 11 4 1.3086 0.0000
-11 11 5 -2.0260 0.0000
-11 11 6 0.1272 0.0000
-11 11 7 0.4440 0.0000
-11 11 8 -0.0455 0.0000
-11 13 1 0.6909 0.0000
-11 13 2 -1.1957 0.0000
-11 13 3 0.3947 0.0000
-11 13 4 -0.4793 0.0000
-11 13 5 0.7575 0.0000
-11 13 6 -1.5830 0.0000
-11 15 1 1.9166 0.0000
-11 15 2 0.4029 0.0000
-11 15 3 -0.9263 0.0000
-11 15 4 0.1948 0.0000
-10 0 2 -36.0859 0.0000
-10 0 4 7.9490 0.0000
-10 0 6 6.3871 0.0000
-10 0 8 1.7002 0.0000
-10 0 10 -3.4559 0.0000
-10 2 1 -0.7506 0.0000
-10 2 2 -6.5944 0.0000
-10 2 3 1.8712 0.0000
-10 2 4 -6.0791 0.0000
-10 2 5 8.8718 0.0000
-10 2 6 -2.0344 0.0000
-10 2 7 -3.9938 0.0000
-10 2 8 -0.0163 0.0000
-10 2 9 -3.6949 0.0000
-10 2 10 0.4409 0.0000
-10 2 11 -2.0399 0.0000
-10 4 1 -1.6863 0.0000
-10 4 2 3.0912 0.0000
-10 4 3 -8.1902 0.0000
-10 4 4 -0.6478 0.0000
-10 4 5 2.2190 0.0000
-10 4 6 -1.4210 0.0000
-10 4 7 0.3859 0.0000
-10 4 8 -1.2360 0.0000
-10 4 9 -2.2461 0.0000
-10 4 10 2.3306 0.0000
-10 6 1 -1.1111 0.0000
-10 6 2 4.4594 0.0000
-10 6 3 5.8026 0.0000
-10 6 4 0.5306 0.0000
-10 6 5 0.0406 0.0000
-10 6 6 -0.8699 0.0000
-10 6 7 -0.0877 0.0000
-10 6 8 0.9165 0.0000
-10 6 9 -0.1952 0.0000
-10 6 10 1.1397 0.0000
-10 8 1 -1.0359 0.0000
-10 8 2 -0.7406 0.0000
-10 8 3 1.2050 0.0000
-10 8 4 1.7830 0.0000
-10 8 5 -2.0111 0.0000
-10 8 6 1.3323 0.0000
-10 8 7 0.8365 0.0000
-10 8 8 -0.1377 0.0000
-10 8 9 -0.3149 0.0000
-10 10 1 3.8111 0.0000
-10 10 2 -3.5659 0.0000
-10 10 3 -0.9693 0.0000
-10 10 4 1.8686 0.0000
-10 10 5 -1.2883 0.0000
-10 10 6 -1.7454 0.0000
-10 10 7 0.5321 0.0000
-10 10 8 -0.8849 0.0000
-10 12 1 2.6982 0.0000
-10 12 2 -3.5608 0.0000
-10 12 3 0.1819 0.0000
-10 12 4 -0.0291 0.0000
-10 12 5 -1.4032 0.0000
-10 12 6 -0.1501 0.0000
-10 12 7 -0.7134 0.0000
-10 14 1 0.0030 0.0000
-10 14 2 1.3017 0.0000
-10 14 3 -0.2531 0.0000
-10 14 4 -0.6256 0.0000
-10 14 5 0.6239 0.0000
-10 16 1 1.4465 0.0000
-10 16 2 -0.9005 0.0000
-9 1 1 19.1781 0.0000
-9 1 2 -26.0852 0.0000
-9 1 3 14.5005 0.0000
-9 1 4 6.0394 0.0000
-9 1 5 1.7298 0.0000
-9 1 6 5.5705 0.0000
-9 1 7 -3.0527 0.0000
-9 1 8 0.2628 0.0000
-9 1 9 -1.6732 0.0000
-9 1 10 -1.3871 0.0000
-9 1 11 -0.2056 0.0000
-9 3 1 -8.2061 0.0000
-9 3 2 0.1609 0.0000
-9 3 3 -9.8660 0.0000
-9 3 4 -4.7404 0.0000
-9 3 5 5.4000 0.0000
-9 3 6 -7.1704 0.0000
-9 3 7 -2.2011 0.0000
-9 3 8 -0.7128 0.0000
-9 3 9 -5.6847 0.0000
-9 3 10 2.4160 0.0000
-9 3 11 -1.9320 0.0000
-9 5 1 4.5151 0.0000
-9 5 2 6.6623 0.0000
-9 5 3 2.9172 0.0000
-9 5 4 0.4157 0.0000
-9 5 5 3.8865 0.0000
-9 5 6 0.5935 0.0000
-9 5 7 -1.4170 0.0000
-9 5 8 1.0280 0.0000
-9 5 9 -0.5288 0.0000
-9 5 10 1.9256 0.0000
-9 7 1 -4.7849 0.0000
-9 7 2 1.8677 0.0000
-9 7 3 2.2474 0.0000
-9 7 4 0.0471 0.0000
-9 7 5 -2.4334 0.0000
-9 7 6 -0.0394 0.0000
-9 7 7 0.5818 0.0000
-9 7 8 0.1203 0.0000
-9 7 9 1.0497 0.0000
-9 7 10 0.5564 0.0000
-9 9 1 3.4382 0.0000
-9 9 2 -1.9509 0.0000
-9 9 3 -0.5180 0.0000
-9 9 4 2.0007 0.0000
-9 9 5 -0.6930 0.0000
-9 9 6 -0.9674 0.0000
-9 9 7 0.1161 0.0000
-9 9 8 -1.1123 0.0000
-9 9 9 -1.6628 0.0000
-9 11 1 2.6934 0.0000
-9 11 2 -3.8436 0.0000
-9 11 3 -0.9379 0.0000
-9 11 4 2.0200 0.0000
-9 11 5 -2.4740 0.0000
-9 11 6 -0.5600 0.0000
-9 11 7 1.7292 0.0000
-9 11 8 0.6255 0.0000
-9 13 1 0.6151 0.0000
-9 13 2 -1.8547 0.0000
-9 13 3 0.8855 0.0000
-9 13 4 -0.8313 0.0000
-9 13 5 -0.1251 0.0000
-9 13 6 -1.1193 0.0000
-9 13 7 -0.4926 0.0000
-9 15 1 2.0542 0.0000
-9 15 2 0.3567 0.0000
-9 15 3 -0.4191 0.0000
-9 15 4 -0.6548 0.0000
-8 0 2 -22.2282 0.0000
-8 0 4 23.8802 0.0000
-8 0 6 4.5847 0.0000
-8 0 8 -1.3158 0.0000
-8 0 10 -2.0260 0.0000
-8 2 1 16.9585 0.0000
-8 2 2 -16.8186 0.0000
-8 2 3 6.1280 0.0000
-8 2 4 -4.9514 0.0000
-8 2 5 3.9590 0.0000
-8 2 6 -1.0386 0.0000
-8 2 7 -6.1844 0.0000
-8 2 8 0.6404 0.0000
-8 2 9 -3.2416 0.0000
-8 2 10 0.9178 0.0000
-8 2 11 -0.8504 0.0000
-8 4 1 -0.5191 0.0000
-8 4 2 7.7752 0.0000
-8 4 3 -4.8624 0.0000
-8 4 4 0.0080 0.0000
-8 4 5 3.7973 0.0000
-8 4 6 -1.1256 0.0000
-8 4 7 -0.5736 0.0000
-8 4 8 -0.6399 0.0000
-8 4 9 -2.8420 0.0000
-8 4 10 4.1188 0.0000
-8 6 1 -1.2452 0.0000
-8 6 2 4.2761 0.0000
-8 6 3 3.5193 0.0000
-8 6 4 -1.9822 0.0000
-8 6 5 0.4252 0.0000
-8 6 6 -2.3094 0.0000
-8 6 7 -1.1881 0.0000
-8 6 8 1.1559 0.0000
-8 6 9 -0.1440 0.0000
-8 6 10 0.0371 0.0000
-8 8 1 -1.9458 0.0000
-8 8 2 0.5720 0.0000
-8 8 3 1.0170 0.0000
-8 8 4 1.5832 0.0000
-8 8 5 -0.7143 0.0000
-8 8 6 0.1368 0.0000
-8 8 7 -0.3051 0.0000
-8 8 8 0.1574 0.0000
-8 8 9 -0.2411 0.0000
-8 10 1 3.1444 0.0000
-8 10 2 -4.1003 0.0000
-8 10 3 -0.7275 0.0000
-8 10 4 2.6451 0.0000
-8 10 5 -0.3735 0.0000
-8 10 6 -1.8888 0.0000
-8 10 7 2.2285 0.0000
-8 10 8 0.1370 0.0000
-8 10 9 -0.5256 0.0000
-8 12 1 2.5773 0.0000
-8 12 2 -3.5879 0.0000
-8 12 3 -1.2306 0.0000
-8 12 4 1.2599 0.0000
-8 12 5 -2.2489 0.0000
-8 12 6 0.6352 0.0000
-8 12 7 -0.0467 0.0000
-8 14 1 0.2226 0.0000
-8 14 2 1.0288 0.0000
-8 14 3 0.3544 0.0000
-8 14 4 -1.7359 0.0000
-8 14 5 0.2743 0.0000
-8 14 6 -0.2540 0.0000
-8 16 1 0.0598 0.0000
-8 16 2 -1.2319 0.0000
-8 16 3 0.8436 0.0000
-7 1 1 39.4975 0.0000
-7 1 2 -14.4990 0.0000
-7 1 3 9.5972 0.0000
-7 1 4 16.0837 0.0000
-7 1 5 -5.6939 0.0000
-7 1 6 2.6579 0.0000
-7 1 7 -3.3593 0.0000
-7 1 8 -1.8049 0.0000
-7 1 9 0.2912 0.0000
-7 1 10 0.3442 0.0000
-7 1 11 1.2019 0.0000
-7 3 1 1.2386 0.0000
-7 3 2 -5.5827 0.0000
-7 3 3 -3.8624 0.0000
-7 3 4 -4.5280 0.0000
-7 3 5 4.1929 0.0000
-7 3 6 -3.1649 0.0000
-7 3 7 -2.7662 0.0000
-7 3 8 0.7660 0.0000
-7 3 9 -3.8714 0.0000
-7 3 10 2.4804 0.0000
-7 3 11 -0.0274 0.0000
-7 5 1 7.3037 0.0000
-7 5 2 7.9821 0.0000
-7 5 3 2.2324 0.0000
-7 5 4 -1.0229 0.0000
-7 5 5 2.9464 0.0000
-7 5 6 -0.2512 0.0000
-7 5 7 -3.0715 0.0000
-7 5 8 1.0509 0.0000
-7 5 9 0.3910 0.0000
-7 5 10 0.8083 0.0000
-7 7 1 -7.2717 0.0000
-7 7 2 1.3408 0.0000
-7 7 3 2.0104 0.0000
-7 7 4 -1.2591 0.0000
-7 7 5 -0.7250 0.0000
-7 7 6 -0.8720 0.0000
-7 7 7 -0.0359 0.0000
-7 7 8 0.1104 0.0000
-7 7 9 0.9276 0.0000
-7 7 10 -0.4218 0.0000
-7 9 1 1.5201 0.0000
-7 9 2 -2.0020 0.0000
-7 9 3 0.5079 0.0000
-7 9 4 2.5607 0.0000
-7 9 5 0.1289 0.0000
-7 9 6 -1.8846 0.0000
-7 9 7 0.4355 0.0000
-7 9 8 0.5973 0.0000
-7 9 9 -2.2658 0.0000
-7 11 1 2.0530 0.0000
-7 11 2 -3.9550 0.0000
-7 11 3 -1.7082 0.0000
-7 11 4 2.9857 0.0000
-7 11 5 -0.5979 0.0000
-7 11 6 -0.1663 0.0000
-7 11 7 2.4285 0.0000
-7 11 8 0.4248 0.0000
-7 13 1 1.6825 0.0000
-7 13 2 -1.6572 0.0000
-7 13 3 0.1746 0.0000
-7 13 4 -0.2669 0.0000
-7 13 5 -1.1713 0.0000
-7 13 6 0.2345 0.0000
-7 13 7 -0.2893 0.0000
-7 15 1 0.5974 0.0000
-7 15 2 0.1549 0.0000
-7 15 3 -0.2974 0.0000
-7 15 4 -0.9585 0.0000
-7 15 5 0.2416 0.0000
-6 0 2 12.1692 0.0000
-6 0 4 30.8315 0.0000
-6 0 6 -2.9533 0.0000
-6 0 8 -3.9849 0.0000
-6 0 10 0.3571 0.0000
-6 2 1 35.3181 0.0000
-6 2 2 -19.9292 0.0000
-6 2 3 0.3760 0.0000
-6 2 4 -0.1962 0.0000
-6 2 5 -4.9574 0.0000
-6 2 6 1.2883 0.0000
-6 2 7 -4.7581 0.0000
-6 2 8 0.0172 0.0000
-6 2 9 0.5342 0.0000
-6 2 10 1.3630 0.0000
-6 2 11 0.6304 0.0000
-6 4 1 6.4828 0.0000
-6 4 2 8.8515 0.0000
-6 4 3 -1.3498 0.0000
-6 4 4 1.4325 0.0000
-6 4 5 3.6238 0.0000
-6 4 6 1.4284 0.0000
-6 4 7 -1.4931 0.0000
-6 4 8 -0.1526 0.0000
-6 4 9 -0.4118 0.0000
-6 4 10 2.4403 0.0000
-6 4 11 0.7144 0.0000
-6 6 1 -3.0319 0.0000
-6 6 2 -0.1291 0.0000
-6 6 3 2.1137 0.0000
-6 6 4 -4.3115 0.0000
-6 6 5 -0.2478 0.0000
-6 6 7 -1.4574 0.0000
-6 6 8 1.2652 0.0000
-6 6 9 0.8241 0.0000
-6 6 10 -2.0854 0.0000
-6 8 1 -3.5841 0.0000
-6 8 2 0.9316 0.0000
-6 8 3 2.5947 0.0000
-6 8 4 1.4186 0.0000
-6 8 5 0.1711 0.0000
-6 8 6 -0.8751 0.0000
-6 8 7 -1.2781 0.0000
-6 8 8 0.4730 0.0000
-6 8 9 -0.3398 0.0000
-6 8 10 -0.9432 0.0000
-6 10 1 1.6168 0.0000
-6 10 2 -4.3939 0.0000
-6 10 3 0.0854 0.0000
-6 10 4 2.9135 0.0000
-6 10 5 1.2520 0.0000
-6 10 6 -0.9498 0.0000
-6 10 7 2.6552 0.0000
-6 10 8 0.5490 0.0000
-6 10 9 -1.1438 0.0000
-6 12 1 2.7703 0.0000
-6 12 2 -2.6480 0.0000
-6 12 3 -2.3450 0.0000
-6 12 4 3.0668 0.0000
-6 12 5 -1.3563 0.0000
-6 12 6 0.2260 0.0000
-6 12 7 0.1933 0.0000
-6 12 8 0.0287 0.0000
-6 14 1 0.7919 0.0000
-6 14 2 -0.2562 0.0000
-6 14 3 -0.0940 0.0000
-6 14 4 -1.8433 0.0000
-6 14 5 -0.3432 0.0000
-6 14 6 -0.0682 0.0000
-6 16 1 -1.2799 0.0000
-6 16 2 -0.4195 0.0000
-6 16 3 0.0296 0.0000
-5 1 1 43.0694 0.0000
-5 1 2 8.5977 0.0000
-5 1 3 -8.1674 0.0000
-5 1 4 18.1091 0.0000
-5 1 5 -11.8447 0.0000
-5 1 6 -3.3798 0.0000
-5 1 7 -1.2794 0.0000
-5 1 8 -3.2799 0.0000
-5 1 9 2.2652 0.0000
-5 1 10 1.8352 0.0000
-5 1 11 1.6466 0.0000
-5 3 1 14.4494 0.0000
-5 3 2 -8.9043 0.0000
-5 3 3 -3.0967 0.0000
-5 3 4 -0.7230 0.0000
-5 3 5 1.2239 0.0000
-5 3 6 3.5854 0.0000
-5 3 7 -1.9118 0.0000
-5 3 8 0.0322 0.0000
-5 3 9 1.1342 0.0000
-5 3 10 0.4349 0.0000
-5 3 11 1.2519 0.0000
-5 5 1 8.6999 0.0000
-5 5 2 4.6723 0.0000
-5 5 3 -0.4493 0.0000
-5 5 4 -1.2220 0.0000
-5 5 5 -0.8889 0.0000
-5 5 6 -0.2578 0.0000
-5 5 7 -2.8217 0.0000
-5 5 8 0.1227 0.0000
-5 5 9 1.5791 0.0000
-5 5 10 -0.8220 0.0000
-5 7 1 -9.1840 0.0000
-5 7 2 -0.5103 0.0000
-5 7 3 3.9984 0.0000
-5 7 4 -1.4890 0.0000
-5 7 5 -0.2541 0.0000
-5 7 6 -0.7702 0.0000
-5 7 7 0.4248 0.0000
-5 7 8 0.3611 0.0000
-5 7 9 1.0621 0.0000
-5 7 10 -1.6267 0.0000
-5 9 1 0.1618 0.0000
-5 9 2 -2.3354 0.0000
-5 9 3 1.4936 0.0000
-5 9 4 2.5494 0.0000
-5 9 5 0.0798 0.0000
-5 9 6 -1.6301 0.0000
-5 9 7 -0.4963 0.0000
-5 9 8 1.1666 0.0000
-5 9 9 -1.6787 0.0000
-5 11 1 2.0806 0.0000
-5 11 2 -3.8393 0.0000
-5 11 3 -1.9450 0.0000
-5 11 4 3.1199 0.0000
-5 11 5 2.2671 0.0000
-5 11 6 -0.9408 0.0000
-5 11 7 1.0737 0.0000
-5 11 8 -0.5278 0.0000
-5 13 1 3.2286 0.0000
-5 13 2 -1.3690 0.0000
-5 13 3 -1.3564 0.0000
-5 13 4 0.6761 0.0000
-5 13 5 -1.8084 0.0000
-5 13 6 0.2709 0.0000
-5 13 7 -0.0471 0.0000
-5 15 1 -0.9292 0.0000
-5 15 2 -0.1379 0.0000
-5 15 3 -0.3240 0.0000
-5 15 4 -0.7926 0.0000
-5 15 5 -0.5631 0.0000
-5 17 1 -1.2903 0.0000
-4 0 2 43.2316 0.0000
-4 0 4 19.6398 0.0000
-4 0 6 -11.7101 0.0000
-4 0 8 -4.6785 0.0000
-4 0 10 1.5467 0.0000
-4 2 1 33.3200 0.0000
-4 2 2 -14.6385 0.0000
-4 2 3 -16.0582 0.0000
-4 2 4 4.4602 0.0000
-4 2 5 -10.2421 0.0000
-4 2 6 2.9864 0.0000
-4 2 7 -0.4858 0.0000
-4 2 8 -1.7825 0.0000
-4 2 9 3.5811 0.0000
-4 2 10 1.0852 0.0000
-4 2 11 0.1648 0.0000
-4 4 1 12.9716 0.0000
-4 4 2 8.0197 0.0000
-4 4 3 -2.5615 0.0000
-4 4 4 3.4688 0.0000
-4 4 5 1.3113 0.0000
-4 4 6 2.7507 0.0000
-4 4 7 -1.6484 0.0000
-4 4 8 -1.2963 0.0000
-4 4 9 1.8058 0.0000
-4 4 10 -0.5095 0.0000
-4 4 11 1.2834 0.0000
-4 6 1 -4.4808 0.0000
-4 6 2 -5.0508 0.0000
-4 6 3 0.4647 0.0000
-4 6 4 -3.4711 0.0000
-4 6 5 -2.3223 0.0000
-4 6 6 -0.9287 0.0000
-4 6 7 0.2435 0.0000
-4 6 8 1.1747 0.0000
-4 6 9 1.7062 0.0000
-4 6 10 -1.8664 0.0000
-4 8 1 -3.7566 0.0000
-4 8 2 1.3428 0.0000
-4 8 3 3.8814 0.0000
-4 8 4 0.8970 0.0000
-4 8 5 -0.7401 0.0000
-4 8 6 -0.6791 0.0000
-4 8 7 -1.5079 0.0000
-4 8 8 -0.5313 0.0000
-4 8 9 0.4374 0.0000
-4 8 10 -1.4197 0.0000
-4 10 1 1.7156 0.0000
-4 10 2 -4.8409 0.0000
-4 10 3 -0.0507 0.0000
-4 10 4 2.3387 0.0000
-4 10 5 1.4991 0.0000
-4 10 6 -0.6227 0.0000
-4 10 7 0.4122 0.0000
-4 10 8 0.2027 0.0000
-4 10 9 -0.7748 0.0000
-4 12 1 3.1339 0.0000
-4 12 2 -1.6807 0.0000
-4 12 3 -3.1463 0.0000
-4 12 4 3.1329 0.0000
-4 12 5 0.4541 0.0000
-4 12 6 -2.2637 0.0000
-4 12 7 0.0070 0.0000
-4 12 8 -0.0577 0.0000
-4 14 1 1.4170 0.0000
-4 14 2 -1.5601 0.0000
-4 14 3 -0.8029 0.0000
-4 14 4 -1.0951 0.0000
-4 14 5 -0.7030 0.0000
-4 14 6 -0.1592 0.0000
-4 16 1 -1.4927 0.0000
-4 16 2 0.3240 0.0000
-4 16 3 -1.0519 0.0000
-4 16 4 -0.1287 0.0000
-3 1 1 17.5162 0.0000
-3 1 2 21.6021 0.0000
-3 1 3 -29.0156 0.0000
-3 1 4 8.1524 0.0000
-3 1 5 -10.9595 0.0000
-3 1 6 -8.5048 0.0000
-3 1 7 2.2945 0.0000
-3 1 8 -3.3143 0.0000
-3 1 9 2.7318 0.0000
-3 1 10 1.7856 0.0000
-3 1 11 0.2726 0.0000
-3 3 1 17.2580 0.0000
-3 3 2 -6.3306 0.0000
-3 3 4 3.8775 0.0000
-3 3 5 0.1615 0.0000
-3 3 6 6.3861 0.0000
-3 3 7 -0.4705 0.0000
-3 3 8 -2.4617 0.0000
-3 3 9 3.5927 0.0000
-3 3 10 -1.2994 0.0000
-3 3 11 0.3422 0.0000
-3 5 1 5.6182 0.0000
-3 5 2 2.1121 0.0000
-3 5 3 -6.7572 0.0000
-3 5 4 -0.2826 0.0000
-3 5 5 -4.7075 0.0000
-3 5 6 0.0117 0.0000
-3 5 7 -0.9508 0.0000
-3 5 8 -0.6492 0.0000
-3 5 9 0.9550 0.0000
-3 5 10 -0.4209 0.0000
-3 5 11 -0.5113 0.0000
-3 7 1 -7.6670 0.0000
-3 7 2 -1.2211 0.0000
-3 7 3 5.0435 0.0000
-3 7 4 -0.3573 0.0000
-3 7 5 -0.8711 0.0000
-3 7 6 0.4775 0.0000
-3 7 7 1.9823 0.0000
-3 7 8 0.0949 0.0000
-3 7 9 1.4279 0.0000
-3 7 10 -0.7868 0.0000
-3 9 1 0.6525 0.0000
-3 9 2 -2.2634 0.0000
-3 9 3 0.4013 0.0000
-3 9 4 1.6819 0.0000
-3 9 5 -1.4424 0.0000
-3 9 6 -1.2169 0.0000
-3 9 7 -2.0780 0.0000
-3 9 8 0.0414 0.0000
-3 9 9 0.4959 0.0000
-3 11 1 2.6253 0.0000
-3 11 2 -4.0469 0.0000
-3 11 3 -2.1724 0.0000
-3 11 4 1.4599 0.0000
-3 11 5 3.3140 0.0000
-3 11 6 -2.4051 0.0000
-3 11 7 -1.2025 0.0000
-3 11 8 -0.5255 0.0000
-3 13 1 3.4320 0.0000
-3 13 2 -1.0466 0.0000
-3 13 3 -2.9260 0.0000
-3 13 4 1.0045 0.0000
-3 13 5 -1.1353 0.0000
-3 13 6 -0.8393 0.0000
-3 13 7 0.5735 0.0000
-3 15 1 -0.8301 0.0000
-3 15 2 -0.3863 0.0000
-3 15 3 -0.2693 0.0000
-3 15 4 -0.5921 0.0000
-3 15 5 -0.4078 0.0000
-3 17 1 -0.9502 0.0000
-2 0 2 38.1407 0.0000
-2 0 4 -4.5951 0.0000
-2 0 6 -15.7564 0.0000
-2 0 8 -3.0204 0.0000
-2 0 10 1.4529 0.0000
-2 2 1 3.3617 0.0000
-2 2 2 -8.2997 0.0000
-2 2 3 -28.5379 0.0000
-2 2 4 6.1664 0.0000
-2 2 5 -6.2129 0.0000
-2 2 6 2.1903 0.0000
-2 2 7 3.6249 0.0000
-2 2 8 -2.8790 0.0000
-2 2 9 3.1480 0.0000
-2 2 10 0.5263 0.0000
-2 2 11 -1.7192 0.0000
-2 4 1 11.8566 0.0000
-2 4 2 8.7648 0.0000
-2 4 3 -5.8197 0.0000
-2 4 4 2.1791 0.0000
-2 4 5 -0.2372 0.0000
-2 4 6 0.8198 0.0000
-2 4 7 -1.3688 0.0000
-2 4 8 -2.6946 0.0000
-2 4 9 1.3514 0.0000
-2 4 10 -1.7374 0.0000
-2 4 11 0.5181 0.0000
-2 6 1 -5.1809 0.0000
-2 6 2 -4.6363 0.0000
-2 6 3 -3.3567 0.0000
-2 6 4 -0.2765 0.0000
-2 6 5 -3.0144 0.0000
-2 6 6 1.8234 0.0000
-2 6 7 2.3170 0.0000
-2 6 8 1.6966 0.0000
-2 6 9 0.9034 0.0000
-2 6 10 1.4906 0.0000
-2 8 1 -2.5242 0.0000
-2 8 2 1.9244 0.0000
-2 8 3 2.8310 0.0000
-2 8 4 -0.1601 0.0000
-2 8 5 -1.7993 0.0000
-2 8 6 -0.7750 0.0000
-2 8 7 -0.8042 0.0000
-2 8 8 -2.3472 0.0000
-2 8 9 1.9278 0.0000
-2 8 10 -0.6855 0.0000
-2 10 1 2.8714 0.0000
-2 10 2 -5.2373 0.0000
-2 10 3 -1.2473 0.0000
-2 10 4 1.1938 0.0000
-2 10 5 -0.2576 0.0000
-2 10 6 -0.5067 0.0000
-2 10 7 -1.8515 0.0000
-2 10 8 0.2823 0.0000
-2 10 9 0.3935 0.0000
-2 12 1 2.2854 0.0000
-2 12 2 -1.5999 0.0000
-2 12 3 -3.6010 0.0000
-2 12 4 1.0553 0.0000
-2 12 5 2.2506 0.0000
-2 12 6 -3.7345 0.0000
-2 12 7 -0.0784 0.0000
-2 12 8 0.4235 0.0000
-2 14 1 1.7376 0.0000
-2 14 2 -1.2472 0.0000
-2 14 3 -1.0904 0.0000
-2 14 4 0.0265 0.0000
-2 14 5 -0.1019 0.0000
-2 14 6 -0.1150 0.0000
-2 16 1 -0.8881 0.0000
-2 16 2 -0.3758 0.0000
-2 16 3 -1.5259 0.0000
-2 16 4 -0.4647 0.0000
-1 1 1 -26.9511 0.0000
-1 1 2 6.2354 0.0000
-1 1 3 -35.8106 0.0000
-1 1 4 -6.3491 0.0000
-1 1 5 -2.2408 0.0000
-1 1 6 -9.2402 0.0000
-1 1 7 5.4002 0.0000
-1 1 8 -1.4313 0.0000
-1 1 9 1.9190 0.0000
-1 1 10 1.1796 0.0000
-1 1 11 -1.4161 0.0000
-1 3 1 7.6196 0.0000
-1 3 2 0.7403 0.0000
-1 3 3 -5.5372 0.0000
-1 3 4 5.0753 0.0000
-1 3 5 2.1245 0.0000
-1 3 6 3.3772 0.0000
-1 3 7 0.3689 0.0000
-1 3 8 -3.6987 0.0000
-1 3 9 1.9424 0.0000
-1 3 10 -1.2375 0.0000
-1 3 11 -1.2670 0.0000
-1 5 1 -2.3952 0.0000
-1 5 2 4.0496 0.0000
-1 5 3 -12.2515 0.0000
-1 5 4 -1.1149 0.0000
-1 5 5 -4.2450 0.0000
-1 5 6 0.2147 0.0000
-1 5 7 0.5203 0.0000
-1 5 8 -0.0949 0.0000
-1 5 9 -0.5288 0.0000
-1 5 10 1.2149 0.0000
-1 5 11 -0.2927 0.0000
-1 7 1 -4.1287 0.0000
-1 7 2 0.6401 0.0000
-1 7 3 3.0730 0.0000
-1 7 4 0.5293 0.0000
-1 7 5 -0.4508 0.0000
-1 7 6 1.1516 0.0000
-1 7 7 2.6531 0.0000
-1 7 8 -0.3115 0.0000
-1 7 9 0.8620 0.0000
-1 7 10 1.9600 0.0000
-1 9 1 1.1166 0.0000
-1 9 2 -1.8326 0.0000
-1 9 3 -1.2603 0.0000
-1 9 4 0.6968 0.0000
-1 9 5 -2.5850 0.0000
-1 9 6 -1.1450 0.0000
-1 9 7 -1.7075 0.0000
-1 9 8 -0.8797 0.0000
-1 9 9 2.8922 0.0000
-1 11 1 2.8300 0.0000
-1 11 2 -5.0198 0.0000
-1 11 3 -2.2890 0.0000
-1 11 4 -0.3254 0.0000
-1 11 5 2.2961 0.0000
-1 11 6 -1.6426 0.0000
-1 11 7 -2.1688 0.0000
-1 11 8 0.2396 0.0000
-1 13 1 1.7848 0.0000
-1 13 2 -0.2817 0.0000
-1 13 3 -3.3370 0.0000
-1 13 4 0.6842 0.0000
-1 13 5 0.9568 0.0000
-1 13 6 -1.4530 0.0000
-1 13 7 1.0279 0.0000
-1 15 1 0.5047 0.0000
-1 15 2 -0.2815 0.0000
-1 15 3 0.0213 0.0000
-1 15 4 -0.4730 0.0000
-1 15 5 0.6009 0.0000
-1 17 1 -1.4686 0.0000
-1 17 2 -1.0365 0.0000
0 0 2 -9.4425 0.0000
0 0 4 -24.3534 0.0000
0 0 6 -11.8081 0.0000
0 0 8 0.8980 0.0000
0 0 10 1.7111 0.0000
0 2 0 24.2914 0.0000
0 2 1 -33.6730 0.0000
0 2 2 -6.5002 0.0000
0 2 3 -21.1916 0.0000
0 2 4 6.0942 0.0000
0 2 5 3.6017 0.0000
0 2 6 0.0636 0.0000
0 2 7 5.2150 0.0000
0 2 8 -1.7222 0.0000
0 2 9 0.8071 0.0000
0 2 10 0.4093 0.0000
0 2 11 -2.6197 0.0000
0 4 0 1.6404 0.0000
0 4 1 6.0628 0.0000
0 4 2 10.1948 0.0000
0 4 3 -3.4900 0.0000
0 4 4 -4.0687 0.0000
0 4 5 0.2738 0.0000
0 4 6 -2.2147 0.0000
0 4 7 -0.9201 0.0000
0 4 8 -2.8105 0.0000
0 4 9 0.0983 0.0000
0 4 10 -1.1175 0.0000
0 4 11 -0.2659 0.0000
0 6 1 -6.8708 0.0000
0 6 2 1.5438 0.0000
0 6 3 -6.2819 0.0000
0 6 4 1.8029 0.0000
0 6 5 -1.1120 0.0000
0 6 6 3.1692 0.0000
0 6 7 2.4580 0.0000
0 6 8 2.4861 0.0000
0 6 9 -0.7142 0.0000
0 6 10 4.0682 0.0000
0 8 0 -3.2781 0.0000
0 8 1 -1.9254 0.0000
0 8 2 2.1106 0.0000
0 8 3 0.8613 0.0000
0 8 4 -1.3532 0.0000
0 8 5 -0.7646 0.0000
0 8 6 -1.8623 0.0000
0 8 7 0.4883 0.0000
0 8 8 -2.9603 0.0000
0 8 9 2.6399 0.0000
0 8 10 0.9770 0.0000
0 10 0 4.4271 0.0000
0 10 1 3.7904 0.0000
0 10 2 -5.1162 0.0000
0 10 3 -1.8051 0.0000
0 10 4 1.1399 0.0000
0 10 5 -1.7464 0.0000
0 10 6 0.8120 0.0000
0 10 7 -1.3978 0.0000
0 10 8 0.6484 0.0000
0 10 9 0.8941 0.0000
0 12 0 4.7540 0.0000
0 12 1 0.7501 0.0000
0 12 2 -2.6330 0.0000
0 12 3 -3.0316 0.0000
0 12 4 -0.6297 0.0000
0 12 5 3.0971 0.0000
0 12 6 -2.4345 0.0000
0 12 7 -0.3728 0.0000
0 12 8 0.1661 0.0000
0 14 0 0.3377 0.0000
0 14 1 1.8227 0.0000
0 14 2 0.6524 0.0000
0 14 3 -0.5772 0.0000
0 14 4 0.7040 0.0000
0 14 5 0.9913 0.0000
0 14 6 -0.0739 0.0000
0 16 0 0.6880 0.0000
0 16 1 -0.3312 0.0000
0 16 2 -1.6724 0.0000
0 16 3 -0.8250 0.0000
0 16 4 -0.8508 0.0000
1 1 0 120.9366 0.0000
1 1 1 -60.8531 0.0000
1 1 2 -28.5999 0.0000
1 1 3 -20.7178 0.0000
1 1 4 -12.7538 0.0000
1 1 5 8.1200 0.0000
1 1 6 -4.5670 0.0000
1 1 7 6.2793 0.0000
1 1 8 1.9046 0.0000
1 1 9 0.7374 0.0000
1 1 10 1.3549 0.0000
1 1 11 -1.6830 0.0000
1 3 0 -6.4784 0.0000
1 3 1 0.4693 0.0000
1 3 2 7.9547 0.0000
1 3 3 6.2957 0.0000
1 3 4 2.5494 0.0000
1 3 5 3.3402 0.0000
1 3 6 -1.3110 0.0000
1 3 7 0.2505 0.0000
1 3 8 -2.3829 0.0000
1 3 9 -0.6480 0.0000
1 3 10 0.0195 0.0000
1 3 11 -1.6327 0.0000
1 5 0 -9.6553 0.0000
1 5 1 -10.0822 0.0000
1 5 2 6.9107 0.0000
1 5 3 -10.2091 0.0000
1 5 4 -4.3768 0.0000
1 5 5 -0.3919 0.0000
1 5 6 -0.1538 0.0000
1 5 7 1.0674 0.0000
1 5 8 0.5394 0.0000
1 5 9 -0.1180 0.0000
1 5 10 1.4722 0.0000
1 5 11 0.2895 0.0000
1 7 0 -12.1099 0.0000
1 7 1 -2.4626 0.0000
1 7 2 3.9804 0.0000
1 7 3 0.6612 0.0000
1 7 4 -0.3659 0.0000
1 7 5 0.8033 0.0000
1 7 6 0.2595 0.0000
1 7 7 1.5775 0.0000
1 7 8 -0.4847 0.0000
1 7 9 -0.7558 0.0000
1 7 10 3.4817 0.0000
1 9 0 0.3423 0.0000
1 9 1 0.2418 0.0000
1 9 2 -0.8975 0.0000
1 9 3 -1.1262 0.0000
1 9 4 0.7688 0.0000
1 9 5 -1.3041 0.0000
1 9 6 -0.8192 0.0000
1 9 7 0.8607 0.0000
1 9 8 -0.6547 0.0000
1 9 9 3.3624 0.0000
1 11 0 7.0354 0.0000
1 11 1 3.5631 0.0000
1 11 2 -6.1855 0.0000
1 11 3 -2.1604 0.0000
1 11 4 0.4626 0.0000
1 11 5 0.6421 0.0000
1 11 6 0.7075 0.0000
1 11 7 -1.6828 0.0000
1 11 8 -0.1940 0.0000
1 13 0 0.6609 0.0000
1 13 1 0.4282 0.0000
1 13 2 0.4851 0.0000
1 13 3 -2.2114 0.0000
1 13 4 0.0663 0.0000
1 13 5 2.3505 0.0000
1 13 6 -1.5028 0.0000
1 13 7 0.6697 0.0000
1 15 0 1.0961 0.0000
1 15 1 1.5176 0.0000
1 15 2 0.1557 0.0000
1 15 3 0.8344 0.0000
1 15 4 -0.6056 0.0000
1 15 5 1.2446 0.0000
1 17 0 0.0810 0.0000
1 17 1 -1.6981 0.0000
1 17 2 -1.6178 0.0000
2 0 0 153.2703 0.0000
2 0 2 -66.2537 0.0000
2 0 4 -24.5030 0.0000
2 0 6 -1.6761 0.0000
2 0 8 5.3486 0.0000
2 0 10 2.6185 0.0000
2 2 0 19.5735 0.0000
2 2 1 -46.2940 0.0000
2 2 2 -5.6742 0.0000
2 2 3 2.7716 0.0000
2 2 4 6.8348 0.0000
2 2 5 9.7151 0.0000
2 2 6 -0.9542 0.0000
2 2 7 3.6259 0.0000
2 2 8 0.4447 0.0000
2 2 9 -1.1074 0.0000
2 2 10 0.8879 0.0000
2 2 11 -1.5858 0.0000
2 4 0 2.3224 0.0000
2 4 1 5.2260 0.0000
2 4 2 7.8262 0.0000
2 4 3 4.2436 0.0000
2 4 4 -10.8103 0.0000
2 4 5 0.3974 0.0000
2 4 6 -3.5740 0.0000
2 4 7 -0.1220 0.0000
2 4 8 -1.7317 0.0000
2 4 9 0.2100 0.0000
2 4 10 0.1476 0.0000
2 4 11 -0.4417 0.0000
2 6 0 -17.6991 0.0000
2 6 1 -9.3799 0.0000
2 6 2 7.7096 0.0000
2 6 3 -4.1110 0.0000
2 6 4 0.8692 0.0000
2 6 5 0.6322 0.0000
2 6 6 1.6398 0.0000
2 6 7 1.3057 0.0000
2 6 8 1.9620 0.0000
2 6 9 -1.2045 0.0000
2 6 10 2.8851 0.0000
2 8 0 -2.4855 0.0000
2 8 1 -3.0902 0.0000
2 8 2 2.1678 0.0000
2 8 3 0.3403 0.0000
2 8 4 -2.4385 0.0000
2 8 5 1.8253 0.0000
2 8 6 -2.5913 0.0000
2 8 7 1.4810 0.0000
2 8 8 -2.0883 0.0000
2 8 9 1.5342 0.0000
2 8 10 1.8351 0.0000
2 10 0 3.9870 0.0000
2 10 1 4.3155 0.0000
2 10 2 -3.5850 0.0000
2 10 3 -1.8969 0.0000
2 10 4 2.8702 0.0000
2 10 5 -1.2616 0.0000
2 10 6 1.8736 0.0000
2 10 7 0.4952 0.0000
2 10 8 0.0913 0.0000
2 10 9 0.0696 0.0000
2 12 0 4.1556 0.0000
2 12 1 0.8476 0.0000
2 12 2 -3.8995 0.0000
2 12 3 -2.2207 0.0000
2 12 4 -0.2406 0.0000
2 12 5 1.8056 0.0000
2 12 6 -0.9716 0.0000
2 12 7 -0.9123 0.0000
2 12 8 -1.0779 0.0000
2 14 0 0.7550 0.0000
2 14 1 2.2004 0.0000
2 14 2 1.9331 0.0000
2 14 3 0.4584 0.0000
2 14 4 0.2611 0.0000
2 14 5 1.2165 0.0000
2 14 6 -0.2796 0.0000
2 16 0 -0.3914 0.0000
2 16 1 0.0381 0.0000
2 16 2 -1.7989 0.0000
2 16 3 0.6874 0.0000
2 16 4 -1.1860 0.0000
3 1 0 74.7676 0.0000
3 1 1 -60.9678 0.0000
3 1 2 -53.3902 0.0000
3 1 3 5.7158 0.0000
3 1 4 -5.4530 0.0000
3 1 5 12.3098 0.0000
3 1 6 2.1556 0.0000
3 1 7 4.1099 0.0000
3 1 8 4.1767 0.0000
3 1 9 -0.6792 0.0000
3 1 10 1.8781 0.0000
3 1 11 -0.5835 0.0000
3 3 0 -2.0094 0.0000
3 3 1 7.8404 0.0000
3 3 2 11.5322 0.0000
3 3 3 17.0450 0.0000
3 3 4 -0.8059 0.0000
3 3 5 0.1094 0.0000
3 3 6 -3.5009 0.0000
3 3 7 -0.8731 0.0000
3 3 8 -0.1914 0.0000
3 3 9 -1.6508 0.0000
3 3 10 1.4545 0.0000
3 3 11 -0.8524 0.0000
3 5 0 -5.3971 0.0000
3 5 1 -11.1449 0.0000
3 5 2 4.8478 0.0000
3 5 3 -1.8101 0.0000
3 5 4 -7.1264 0.0000
3 5 5 2.2308 0.0000
3 5 6 -1.1054 0.0000
3 5 7 1.6970 0.0000
3 5 8 0.1509 0.0000
3 5 9 1.6367 0.0000
3 5 10 0.5641 0.0000
3 7 0 -8.8440 0.0000
3 7 1 -3.6561 0.0000
3 7 2 6.0180 0.0000
3 7 3 0.5376 0.0000
3 7 4 -2.7489 0.0000
3 7 5 0.8291 0.0000
3 7 6 -1.0610 0.0000
3 7 7 0.0696 0.0000
3 7 8 -0.5476 0.0000
3 7 9 -2.3382 0.0000
3 7 10 2.2479 0.0000
3 9 0 1.4904 0.0000
3 9 1 -1.7719 0.0000
3 9 2 1.0293 0.0000
3 9 3 -0.2434 0.0000
3 9 4 0.9641 0.0000
3 9 5 1.8966 0.0000
3 9 6 -0.5306 0.0000
3 9 7 2.5769 0.0000
3 9 8 -0.3062 0.0000
3 9 9 1.6419 0.0000
3 11 0 5.2276 0.0000
3 11 1 5.1057 0.0000
3 11 2 -5.9221 0.0000
3 11 3 -3.2368 0.0000
3 11 4 3.0228 0.0000
3 11 5 -0.7120 0.0000
3 11 6 0.8038 0.0000
3 11 7 -0.7974 0.0000
3 11 8 -1.6291 0.0000
3 13 0 0.7726 0.0000
3 13 1 1.1153 0.0000
3 13 2 0.3267 0.0000
3 13 3 -1.2431 0.0000
3 13 4 -0.5620 0.0000
3 13 5 1.3900 0.0000
3 13 6 -1.5251 0.0000
3 13 7 0.1533 0.0000
3 15 0 0.4747 0.0000
3 15 1 1.6179 0.0000
3 15 2 0.3243 0.0000
3 15 3 2.0500 0.0000
3 15 4 -0.8173 0.0000
3 15 5 0.8260 0.0000
3 17 0 -1.4240 0.0000
3 17 1 -0.6499 0.0000
4 0 0 66.7339 0.0000
4 0 2 -90.0179 0.0000
4 0 4 -5.6351 0.0000
4 0 6 7.0670 0.0000
4 0 8 6.7869 0.0000
4 0 10 2.5793 0.0000
4 2 0 11.4800 0.0000
4 2 1 -25.7667 0.0000
4 2 2 -0.6035 0.0000
4 2 3 22.9814 0.0000
4 2 4 8.0228 0.0000
4 2 5 6.6995 0.0000
4 2 6 -1.2338 0.0000
4 2 7 -0.0888 0.0000
4 2 8 0.9088 0.0000
4 2 9 -2.0097 0.0000
4 2 10 1.4704 0.0000
4 2 11 0.2086 0.0000
4 4 0 2.4625 0.0000
4 4 1 11.3028 0.0000
4 4 2 -0.0695 0.0000
4 4 3 7.6608 0.0000
4 4 4 -12.3474 0.0000
4 4 5 -1.6181 0.0000
4 4 6 -2.2166 0.0000
4 4 7 0.5069 0.0000
4 4 8 0.0350 0.0000
4 4 9 0.7491 0.0000
4 4 10 1.4354 0.0000
4 4 11 -0.4663 0.0000
4 6 0 -9.1625 0.0000
4 6 1 -9.7966 0.0000
4 6 2 8.4295 0.0000
4 6 3 1.3814 0.0000
4 6 4 -1.5136 0.0000
4 6 5 0.1672 0.0000
4 6 6 -0.8787 0.0000
4 6 7 0.5598 0.0000
4 6 8 0.2773 0.0000
4 6 9 -0.6917 0.0000
4 6 10 0.2509 0.0000
4 8 0 -0.5007 0.0000
4 8 1 -5.2392 0.0000
4 8 2 1.9430 0.0000
4 8 3 1.1729 0.0000
4 8 4 -3.9525 0.0000
4 8 5 3.7087 0.0000
4 8 6 -1.5720 0.0000
4 8 7 1.0652 0.0000
4 8 8 -0.7962 0.0000
4 8 9 -0.5563 0.0000
4 8 10 1.3484 0.0000
4 10 0 3.2300 0.0000
4 10 1 3.5668 0.0000
4 10 2 -0.6859 0.0000
4 10 3 -3.5637 0.0000
4 10 4 3.8383 0.0000
4 10 5 0.7482 0.0000
4 10 6 0.3445 0.0000
4 10 7 1.1520 0.0000
4 10 8 -0.8850 0.0000
4 10 9 -0.9373 0.0000
4 12 0 2.4371 0.0000
4 12 1 2.5085 0.0000
4 12 2 -4.0058 0.0000
4 12 3 -3.1016 0.0000
4 12 4 0.9681 0.0000
4 12 5 -0.5098 0.0000
4 12 6 -1.3477 0.0000
4 12 7 -0.6678 0.0000
4 12 8 -1.5912 0.0000
4 14 0 0.6871 0.0000
4 14 1 2.7386 0.0000
4 14 2 1.1926 0.0000
4 14 3 1.1847 0.0000
4 14 4 -0.4425 0.0000
4 14 5 0.5182 0.0000
4 14 6 -0.1658 0.0000
4 16 0 -2.0993 0.0000
4 16 1 0.3636 0.0000
4 16 2 -0.6867 0.0000
4 16 3 1.8020 0.0000
4 16 4 -1.0774 0.0000
5 1 0 18.8308 0.0000
5 1 1 -31.2027 0.0000
5 1 2 -49.0752 0.0000
5 1 3 24.7338 0.0000
5 1 4 8.6529 0.0000
5 1 5 8.1454 0.0000
5 1 6 4.4925 0.0000
5 1 7 0.1049 0.0000
5 1 8 3.2127 0.0000
5 1 9 -1.9601 0.0000
5 1 10 1.3969 0.0000
5 1 11 0.6334 0.0000
5 3 0 3.9441 0.0000
5 3 1 21.6449 0.0000
5 3 2 9.7780 0.0000
5 3 3 13.6139 0.0000
5 3 4 -2.9597 0.0000
5 3 5 -5.7147 0.0000
5 3 6 -2.9139 0.0000
5 3 7 -2.1235 0.0000
5 3 8 0.8190 0.0000
5 3 9 -1.0000 0.0000
5 3 10 2.3186 0.0000
5 3 11 -0.0648 0.0000
5 5 0 -2.0394 0.0000
5 5 1 -5.8453 0.0000
5 5 2 -1.9657 0.0000
5 5 3 4.8056 0.0000
5 5 4 -6.1871 0.0000
5 5 5 1.9534 0.0000
5 5 6 -0.7764 0.0000
5 5 7 2.0476 0.0000
5 5 8 -0.2849 0.0000
5 5 9 1.6948 0.0000
5 5 10 0.5023 0.0000
5 7 0 -4.1652 0.0000
5 7 1 -5.0301 0.0000
5 7 2 4.6119 0.0000
5 7 3 1.7759 0.0000
5 7 4 -4.4351 0.0000
5 7 5 -0.6398 0.0000
5 7 6 -0.5005 0.0000
5 7 7 -1.0194 0.0000
5 7 8 -0.1870 0.0000
5 7 9 -2.6594 0.0000
5 7 10 0.3091 0.0000
5 9 0 2.9468 0.0000
5 9 1 -4.1773 0.0000
5 9 2 2.5801 0.0000
5 9 3 -0.5732 0.0000
5 9 4 -0.9828 0.0000
5 9 5 5.0241 0.0000
5 9 6 -0.6608 0.0000
5 9 7 1.2686 0.0000
5 9 8 -0.1771 0.0000
5 9 9 -0.3002 0.0000
5 11 0 2.8085 0.0000
5 11 1 5.1691 0.0000
5 11 2 -3.7451 0.0000
5 11 3 -5.7354 0.0000
5 11 4 3.9572 0.0000
5 11 5 -0.6126 0.0000
5 11 6 -1.6510 0.0000
5 11 7 0.0493 0.0000
5 11 8 -1.8161 0.0000
5 13 0 0.0099 0.0000
5 13 1 2.4229 0.0000
5 13 2 -0.4360 0.0000
5 13 3 -1.6953 0.0000
5 13 4 -0.4257 0.0000
5 13 5 -0.1268 0.0000
5 13 6 -0.9745 0.0000
5 13 7 0.1402 0.0000
5 15 0 -0.8486 0.0000
5 15 1 1.3776 0.0000
5 15 2 0.0546 0.0000
5 15 3 2.8493 0.0000
5 15 4 -0.4787 0.0000
5 15 5 -0.0263 0.0000
5 17 0 -2.2325 0.0000
5 17 1 0.4877 0.0000
6 0 2 -69.0385 0.0000
6 0 4 16.4895 0.0000
6 0 6 7.3502 0.0000
6 0 8 4.1242 0.0000
6 0 10 0.6934 0.0000
6 2 0 9.0342 0.0000
6 2 1 6.1508 0.0000
6 2 2 6.3147 0.0000
6 2 3 24.6652 0.0000
6 2 4 6.6266 0.0000
6 2 5 -1.4474 0.0000
6 2 6 -3.0410 0.0000
6 2 7 -2.9167 0.0000
6 2 8 -0.4904 0.0000
6 2 9 -1.7368 0.0000
6 2 10 1.4552 0.0000
6 2 11 1.3941 0.0000
6 4 0 -1.2105 0.0000
6 4 1 15.3469 0.0000
6 4 2 -8.7876 0.0000
6 4 3 1.8739 0.0000
6 4 4 -7.6769 0.0000
6 4 5 -3.5861 0.0000
6 4 6 1.2462 0.0000
6 4 7 0.5542 0.0000
6 4 8 1.5322 0.0000
6 4 9 0.4032 0.0000
6 4 10 1.9168 0.0000
6 6 1 -6.8149 0.0000
6 6 2 4.5368 0.0000
6 6 3 5.1154 0.0000
6 6 4 -2.1181 0.0000
6 6 5 -1.1014 0.0000
6 6 6 -1.1146 0.0000
6 6 7 0.1386 0.0000
6 6 8 -1.0119 0.0000
6 6 9 -0.2812 0.0000
6 6 10 -0.4063 0.0000
6 8 0 1.0363 0.0000
6 8 1 -6.3092 0.0000
6 8 2 0.2179 0.0000
6 8 3 2.0239 0.0000
6 8 4 -5.3253 0.0000
6 8 5 3.6788 0.0000
6 8 6 1.4185 0.0000
6 8 7 -1.0824 0.0000
6 8 8 0.4836 0.0000
6 8 9 -1.5950 0.0000
6 10 0 3.1058 0.0000
6 10 1 1.0190 0.0000
6 10 2 1.3761 0.0000
6 10 3 -5.7516 0.0000
6 10 4 1.8982 0.0000
6 10 5 3.3862 0.0000
6 10 6 -2.2325 0.0000
6 10 7 0.1378 0.0000
6 10 8 -0.7208 0.0000
6 10 9 -0.9197 0.0000
6 12 0 0.3196 0.0000
6 12 1 3.2903 0.0000
6 12 2 -2.6242 0.0000
6 12 3 -4.6821 0.0000
6 12 4 1.5137 0.0000
6 12 5 -0.8098 0.0000
6 12 6 -1.9247 0.0000
6 12 7 0.2511 0.0000
6 14 0 -1.2169 0.0000
6 14 1 2.5391 0.0000
6 14 2 -0.0808 0.0000
6 14 3 1.3219 0.0000
6 14 4 -0.0478 0.0000
6 14 5 0.1254 0.0000
6 14 6 0.4948 0.0000
6 16 0 -2.0513 0.0000
6 16 1 0.3042 0.0000
6 16 2 0.1834 0.0000
6 16 3 1.5512 0.0000
7 1 0 -12.3305 0.0000
7 1 1 3.9034 0.0000
7 1 2 -24.0948 0.0000
7 1 3 26.8535 0.0000
7 1 4 17.0227 0.0000
7 1 5 0.5229 0.0000
7 1 6 0.6357 0.0000
7 1 7 -2.8523 0.0000
7 1 8 0.6344 0.0000
7 1 9 -1.9150 0.0000
7 1 10 -0.2173 0.0000
7 1 11 1.1359 0.0000
7 3 0 6.4634 0.0000
7 3 1 24.5127 0.0000
7 3 2 4.3138 0.0000
7 3 3 -0.7096 0.0000
7 3 4 -3.9137 0.0000
7 3 5 -8.4556 0.0000
7 3 6 -1.6038 0.0000
7 3 7 -1.3142 0.0000
7 3 8 0.5135 0.0000
7 3 9 0.3877 0.0000
7 3 10 1.9753 0.0000
7 3 11 0.2149 0.0000
7 5 0 -3.2193 0.0000
7 5 1 -0.0752 0.0000
7 5 2 -6.9034 0.0000
7 5 3 5.9426 0.0000
7 5 4 -1.5344 0.0000
7 5 5 0.9631 0.0000
7 5 6 1.4430 0.0000
7 5 7 1.1651 0.0000
7 5 8 -0.3923 0.0000
7 5 9 -0.2610 0.0000
7 5 10 1.0648 0.0000
7 7 0 -1.0177 0.0000
7 7 1 -4.4169 0.0000
7 7 2 1.1469 0.0000
7 7 3 2.3858 0.0000
7 7 4 -3.2308 0.0000
7 7 5 -2.1698 0.0000
7 7 6 2.2983 0.0000
7 7 7 -1.7259 0.0000
7 7 8 0.1590 0.0000
7 7 9 -1.1047 0.0000
7 7 10 -0.2931 0.0000
7 9 0 3.4713 0.0000
7 9 1 -4.8503 0.0000
7 9 2 1.5150 0.0000
7 9 3 -0.8647 0.0000
7 9 4 -4.1351 0.0000
7 9 5 6.4805 0.0000
7 9 6 -0.0203 0.0000
7 9 7 -1.7873 0.0000
7 9 8 0.3630 0.0000
7 9 9 -0.7490 0.0000
7 11 0 1.2604 0.0000
7 11 1 2.9298 0.0000
7 11 2 -1.3683 0.0000
7 11 3 -6.4615 0.0000
7 11 4 2.5721 0.0000
7 11 5 1.3559 0.0000
7 11 6 -3.0243 0.0000
7 11 7 0.2676 0.0000
7 11 8 -0.4585 0.0000
7 13 0 -1.1820 0.0000
7 13 1 2.3599 0.0000
7 13 2 -0.6450 0.0000
7 13 3 -2.1012 0.0000
7 13 4 0.7530 0.0000
7 13 5 0.0117 0.0000
7 13 6 0.2242 0.0000
7 13 7 0.0040 0.0000
7 15 0 -2.2760 0.0000
7 15 1 1.2255 0.0000
7 15 2 -0.1838 0.0000
7 15 3 2.5079 0.0000
7 15 4 0.1210 0.0000
7 15 5 -0.3904 0.0000
8 0 0 -38.3413 0.0000
8 0 2 -27.2268 0.0000
8 0 4 25.7582 0.0000
8 0 6 1.7631 0.0000
8 0 8 0.5285 0.0000
8 0 10 -1.6178 0.0000
8 2 0 11.9798 0.0000
8 2 1 23.1586 0.0000
8 2 2 8.5217 0.0000
8 2 3 12.4883 0.0000
8 2 4 1.4665 0.0000
8 2 5 -6.7164 0.0000
8 2 6 -5.3524 0.0000
8 2 7 -2.4356 0.0000
8 2 8 -0.9621 0.0000
8 2 9 -0.2866 0.0000
8 2 10 0.6893 0.0000
8 2 11 1.5539 0.0000
8 4 0 -8.3605 0.0000
8 4 1 10.8810 0.0000
8 4 2 -11.0462 0.0000
8 4 3 -5.5446 0.0000
8 4 4 -0.7922 0.0000
8 4 5 -2.7213 0.0000
8 4 6 4.2402 0.0000
8 4 7 0.7902 0.0000
8 4 8 1.3405 0.0000
8 4 9 -0.3947 0.0000
8 4 10 0.8944 0.0000
8 6 0 0.1743 0.0000
8 6 1 -2.8234 0.0000
8 6 2 1.2811 0.0000
8 6 3 6.0183 0.0000
8 6 4 -0.1260 0.0000
8 6 5 -1.5218 0.0000
8 6 6 0.0616 0.0000
8 6 7 0.0053 0.0000
8 6 8 -1.9726 0.0000
8 6 9 0.0417 0.0000
8 6 10 0.5324 0.0000
8 8 0 0.5636 0.0000
8 8 1 -4.5399 0.0000
8 8 2 -2.3166 0.0000
8 8 3 2.4085 0.0000
8 8 4 -4.3247 0.0000
8 8 5 1.8007 0.0000
8 8 6 4.9416 0.0000
8 8 7 -3.4431 0.0000
8 8 8 1.1502 0.0000
8 8 9 -0.5631 0.0000
8 10 0 3.8999 0.0000
8 10 1 -0.8293 0.0000
8 10 2 0.8434 0.0000
8 10 3 -4.8891 0.0000
8 10 4 -1.0530 0.0000
8 10 5 5.4121 0.0000
8 10 6 -2.3775 0.0000
8 10 7 -1.3517 0.0000
8 10 8 0.3210 0.0000
8 12 0 -0.9260 0.0000
8 12 1 2.8477 0.0000
8 12 2 -1.0725 0.0000
8 12 3 -4.0222 0.0000
8 12 4 1.4787 0.0000
8 12 5 0.8712 0.0000
8 12 6 -1.2358 0.0000
8 12 7 0.2503 0.0000
8 14 0 -3.2404 0.0000
8 14 1 1.3490 0.0000
8 14 2 -0.1725 0.0000
8 14 3 1.1740 0.0000
8 14 4 0.8797 0.0000
8 14 5 0.3481 0.0000
8 14 6 0.9269 0.0000
8 16 0 -0.4723 0.0000
8 16 1 -0.4185 0.0000
8 16 2 -0.1920 0.0000
8 16 3 0.3976 0.0000
9 1 0 -13.9277 0.0000
9 1 1 23.1835 0.0000
9 1 2 -0.8380 0.0000
9 1 3 17.0668 0.0000
9 1 4 14.1578 0.0000
9 1 5 -4.6516 0.0000
9 1 6 -3.1106 0.0000
9 1 7 -3.1107 0.0000
9 1 8 -0.5068 0.0000
9 1 9 -0.2864 0.0000
9 1 10 -1.4407 0.0000
9 3 0 3.5107 0.0000
9 3 1 12.3441 0.0000
9 3 2 -0.4721 0.0000
9 3 3 -11.1914 0.0000
9 3 4 -4.0468 0.0000
9 3 5 -5.7186 0.0000
9 3 6 -0.5178 0.0000
9 3 7 1.8418 0.0000
9 3 8 0.2856 0.0000
9 3 9 1.0044 0.0000
9 3 10 0.7013 0.0000
9 5 0 -6.4751 0.0000
9 5 1 2.7606 0.0000
9 5 2 -5.1358 0.0000
9 5 3 5.2930 0.0000
9 5 4 3.2038 0.0000
9 5 5 0.7371 0.0000
9 5 6 2.0496 0.0000
9 5 7 -0.1873 0.0000
9 5 8 -0.9794 0.0000
9 5 9 -1.7679 0.0000
9 5 10 0.6828 0.0000
9 7 0 -0.3631 0.0000
9 7 1 -2.8172 0.0000
9 7 2 -0.5285 0.0000
9 7 3 2.3053 0.0000
9 7 4 -0.0070 0.0000
9 7 5 -3.0032 0.0000
9 7 6 3.8844 0.0000
9 7 7 -1.1540 0.0000
9 7 8 -1.1543 0.0000
9 7 9 1.4099 0.0000
9 9 0 3.2132 0.0000
9 9 1 -1.7725 0.0000
9 9 2 -1.3673 0.0000
9 9 3 0.5878 0.0000
9 9 4 -4.9532 0.0000
9 9 5 5.1685 0.0000
9 9 6 2.3815 0.0000
9 9 7 -3.7772 0.0000
9 9 8 1.0334 0.0000
9 9 9 -0.0389 0.0000
9 11 0 1.0023 0.0000
9 11 1 1.0515 0.0000
9 11 2 -0.3940 0.0000
9 11 3 -3.8935 0.0000
9 11 4 0.9526 0.0000
9 11 5 2.9914 0.0000
9 11 6 -1.8356 0.0000
9 11 7 -0.6469 0.0000
9 11 8 0.5321 0.0000
9 13 0 -1.1192 0.0000
9 13 1 1.5323 0.0000
9 13 2 -0.4091 0.0000
9 13 3 -1.2145 0.0000
9 13 4 1.6485 0.0000
9 13 5 0.8560 0.0000
9 13 6 0.8617 0.0000
9 15 0 -2.8059 0.0000
9 15 1 0.7835 0.0000
9 15 2 -0.4018 0.0000
9 15 3 1.3384 0.0000
9 15 4 -0.0018 0.0000
10 0 0 -29.3148 0.0000
10 0 2 4.0413 0.0000
10 0 4 20.2797 0.0000
10 0 6 -1.2392 0.0000
10 0 8 -1.2543 0.0000
10 0 10 -2.0204 0.0000
10 2 0 13.6796 0.0000
10 2 1 19.3453 0.0000
10 2 2 4.0458 0.0000
10 2 3 0.1251 0.0000
10 2 4 -4.1884 0.0000
10 2 5 -6.4729 0.0000
10 2 6 -4.3054 0.0000
10 2 7 0.1438 0.0000
10 2 8 0.7269 0.0000
10 2 9 1.0094 0.0000
10 2 10 -0.0899 0.0000
10 4 0 -13.9636 0.0000
10 4 1 2.4796 0.0000
10 4 2 -4.8918 0.0000
10 4 3 -6.2646 0.0000
10 4 4 3.6848 0.0000
10 4 5 0.1041 0.0000
10 4 6 4.1039 0.0000
10 4 7 1.2256 0.0000
10 4 8 -0.1875 0.0000
10 4 9 -1.1098 0.0000
10 4 10 -0.4888 0.0000
10 6 0 0.5134 0.0000
10 6 1 -0.4691 0.0000
10 6 2 1.0987 0.0000
10 6 3 6.3070 0.0000
10 6 4 1.3786 0.0000
10 6 5 -1.4180 0.0000
10 6 6 -1.4877 0.0000
10 6 7 1.0706 0.0000
10 6 8 -3.0654 0.0000
10 6 9 0.4243 0.0000
10 6 10 0.8347 0.0000
10 8 0 -0.6133 0.0000
10 8 1 -0.7163 0.0000
10 8 2 -2.8103 0.0000
10 8 3 1.9573 0.0000
10 8 4 -0.7521 0.0000
10 8 5 -1.3278 0.0000
10 8 6 6.4504 0.0000
10 8 7 -3.6082 0.0000
10 8 8 0.3108 0.0000
10 8 9 1.2519 0.0000
10 10 0 5.0158 0.0000
10 10 1 0.1430 0.0000
10 10 2 -1.0863 0.0000
10 10 3 -1.3746 0.0000
10 10 4 -2.5157 0.0000
10 10 5 5.2082 0.0000
10 10 6 0.4193 0.0000
10 10 7 -2.2640 0.0000
10 10 8 0.7845 0.0000
10 12 0 -1.0105 0.0000
10 12 1 2.7556 0.0000
10 12 2 -0.6202 0.0000
10 12 3 -1.7806 0.0000
10 12 4 1.0272 0.0000
10 12 5 1.4745 0.0000
10 12 6 -0.2625 0.0000
10 12 7 -0.7397 0.0000
10 14 0 -2.6857 0.0000
10 14 1 -0.0626 0.0000
10 14 2 0.2446 0.0000
10 14 3 0.7454 0.0000
10 14 4 0.9218 0.0000
10 14 5 0.5016 0.0000
10 16 0 0.2486 0.0000
10 16 1 -1.2383 0.0000
10 16 2 -1.2196 0.0000
11 1 0 -2.5546 0.0000
11 1 1 23.1289 0.0000
11 1 2 7.0530 0.0000
11 1 3 5.4135 0.0000
11 1 4 5.8597 0.0000
11 1 5 -6.1727 0.0000
11 1 6 -1.9341 0.0000
11 1 7 -1.5456 0.0000
11 1 8 -0.1093 0.0000
11 1 9 1.2888 0.0000
11 1 10 -0.8726 0.0000
11 3 0 -1.2420 0.0000
11 3 1 -3.4318 0.0000
11 3 2 -1.7044 0.0000
11 3 3 -10.9893 0.0000
11 3 4 -2.9217 0.0000
11 3 5 -0.9480 0.0000
11 3 6 1.0460 0.0000
11 3 7 4.1955 0.0000
11 3 8 0.7323 0.0000
11 3 9 -0.3742 0.0000
11 3 10 -0.2032 0.0000
11 5 0 -7.2157 0.0000
11 5 1 4.1754 0.0000
11 5 2 0.7303 0.0000
11 5 3 5.3217 0.0000
11 5 4 4.3426 0.0000
11 5 5 0.3368 0.0000
11 5 6 -1.2864 0.0000
11 5 7 -0.9988 0.0000
11 5 8 -1.1161 0.0000
11 5 9 -1.5021 0.0000
11 5 10 -0.3210 0.0000
11 7 0 -0.1968 0.0000
11 7 1 -2.2419 0.0000
11 7 2 0.7250 0.0000
11 7 3 1.9541 0.0000
11 7 4 1.6222 0.0000
11 7 5 -2.9566 0.0000
11 7 6 1.3323 0.0000
11 7 7 1.1838 0.0000
11 7 8 -3.6697 0.0000
11 7 9 2.7056 0.0000
11 9 0 3.6674 0.0000
11 9 1 3.0430 0.0000
11 9 2 -3.1823 0.0000
11 9 3 1.7979 0.0000
11 9 4 -2.7899 0.0000
11 9 5 1.3134 0.0000
11 9 6 5.7243 0.0000
11 9 7 -3.3322 0.0000
11 9 8 1.0464 0.0000
11 11 0 1.0674 0.0000
11 11 1 0.7625 0.0000
11 11 2 -0.5046 0.0000
11 11 3 -1.3429 0.0000
11 11 4 -0.1762 0.0000
11 11 5 2.4472 0.0000
11 11 6 0.1104 0.0000
11 11 7 -1.6617 0.0000
11 13 0 0.2915 0.0000
11 13 1 1.3041 0.0000
11 13 2 -0.5317 0.0000
11 13 3 -0.2985 0.0000
11 13 4 1.0710 0.0000
11 13 5 0.8473 0.0000
11 13 6 0.3993 0.0000
11 15 0 -2.1511 0.0000
11 15 1 -0.2854 0.0000
11 15 2 -0.8048 0.0000
11 15 3 0.4468 0.0000
11 15 4 -0.5455 0.0000
12 0 0 -7.7221 0.0000
12 0 2 12.3544 0.0000
12 0 4 10.0383 0.0000
12 0 6 -0.4552 0.0000
12 0 8 -1.2961 0.0000
12 0 10 -0.0423 0.0000
12 2 0 10.6538 0.0000
12 2 1 6.3867 0.0000
12 2 2 -3.3139 0.0000
12 2 3 -5.5892 0.0000
12 2 4 -5.9161 0.0000
12 2 5 -4.1996 0.0000
12 2 6 -0.0737 0.0000
12 2 7 2.2305 0.0000
12 2 8 2.2891 0.0000
12 2 9 0.4878 0.0000
12 2 10 -0.2036 0.0000
12 4 0 -13.5646 0.0000
12 4 1 -2.6137 0.0000
12 4 2 4.1536 0.0000
12 4 3 -2.2438 0.0000
12 4 4 4.7357 0.0000
12 4 5 1.9283 0.0000
12 4 6 1.4928 0.0000
12 4 7 0.4079 0.0000
12 4 8 -0.9646 0.0000
12 4 9 -1.6022 0.0000
12 4 10 -0.4465 0.0000
12 6 0 1.5640 0.0000
12 6 1 0.2497 0.0000
12 6 2 1.6698 0.0000
12 6 3 5.7996 0.0000
12 6 4 -0.2694 0.0000
12 6 5 -1.2723 0.0000
12 6 6 -5.1136 0.0000
12 6 7 2.4734 0.0000
12 6 8 -2.6633 0.0000
12 6 9 0.4207 0.0000
12 8 0 0.1043 0.0000
12 8 1 2.1098 0.0000
12 8 2 -0.6901 0.0000
12 8 3 -0.1775 0.0000
12 8 4 2.3745 0.0000
12 8 5 -3.9982 0.0000
12 8 6 5.1613 0.0000
12 8 7 -1.1137 0.0000
12 8 8 -1.2796 0.0000
12 8 9 1.8164 0.0000
12 10 0 5.1752 0.0000
12 10 1 1.6674 0.0000
12 10 2 -2.5587 0.0000
12 10 3 0.6098 0.0000
12 10 4 -2.6041 0.0000
12 10 5 3.0292 0.0000
12 10 6 3.9904 0.0000
12 10 7 -2.2891 0.0000
12 10 8 0.4535 0.0000
12 12 0 -0.8967 0.0000
12 12 1 2.5762 0.0000
12 12 2 -0.7220 0.0000
12 12 4 -0.0547 0.0000
12 12 5 0.4898 0.0000
12 12 6 0.1437 0.0000
12 12 7 -1.0960 0.0000
12 14 0 0.1769 0.0000
12 14 1 -0.8918 0.0000
12 14 2 0.2407 0.0000
12 14 3 0.1613 0.0000
12 14 4 0.2497 0.0000
12 14 5 0.4106 0.0000
12 16 0 -0.7769 0.0000
12 16 1 -1.2204 0.0000
13 1 0 5.6908 0.0000
13 1 1 12.8366 0.0000
13 1 2 2.3323 0.0000
13 1 3 -2.3451 0.0000
13 1 4 0.2444 0.0000
13 1 5 -5.7921 0.0000
13 1 6 0.0621 0.0000
13 1 7 0.3376 0.0000
13 1 8 0.6041 0.0000
13 1 9 1.1162 0.0000
13 1 10 0.8001 0.0000
13 3 0 -3.2276 0.0000
13 3 1 -11.9123 0.0000
13 3 2 -0.6275 0.0000
13 3 3 -5.3588 0.0000
13 3 4 -0.2875 0.0000
13 3 5 2.0481 0.0000
13 3 6 2.8401 0.0000
13 3 7 3.5986 0.0000
13 3 8 0.5357 0.0000
13 3 9 -2.7788 0.0000
13 3 10 -0.1225 0.0000
13 5 0 -4.4534 0.0000
13 5 1 5.2991 0.0000
13 5 2 5.1859 0.0000
13 5 3 3.8852 0.0000
13 5 4 2.0983 0.0000
13 5 5 -1.0721 0.0000
13 5 6 -4.5223 0.0000
13 5 7 -1.4985 0.0000
13 5 8 0.6803 0.0000
13 5 9 -0.0753 0.0000
13 7 0 1.2046 0.0000
13 7 1 -2.8598 0.0000
13 7 2 2.2059 0.0000
13 7 3 0.6041 0.0000
13 7 4 0.1748 0.0000
13 7 5 -1.3057 0.0000
13 7 6 -2.4785 0.0000
13 7 7 3.1406 0.0000
13 7 8 -4.2711 0.0000
13 7 9 1.8337 0.0000
13 9 0 4.6953 0.0000
13 9 1 5.0562 0.0000
13 9 2 -3.1794 0.0000
13 9 3 0.0356 0.0000
13 9 4 0.1139 0.0000
13 9 5 -2.3918 0.0000
13 9 6 8.1576 0.0000
13 9 7 -1.4817 0.0000
13 9 8 0.4035 0.0000
13 11 0 0.5328 0.0000
13 11 1 0.1355 0.0000
13 11 2 -0.7213 0.0000
13 11 3 -1.0030 0.0000
13 11 4 -1.1782 0.0000
13 11 5 1.1725 0.0000
13 11 6 1.4358 0.0000
13 11 7 -1.5337 0.0000
13 13 0 1.2923 0.0000
13 13 1 1.3093 0.0000
13 13 2 -0.3734 0.0000
13 13 3 -0.1023 0.0000
13 13 4 -0.3282 0.0000
13 13 5 0.4894 0.0000
13 15 0 -0.9943 0.0000
13 15 1 -1.2998 0.0000
13 15 2 -0.7693 0.0000
13 15 3 0.3667 0.0000
14 0 2 6.3942 0.0000
14 0 4 2.8502 0.0000
14 0 6 -1.3362 0.0000
14 0 8 0.3106 0.0000
14 0 10 2.0615 0.0000
14 2 0 4.1181 0.0000
14 2 1 -3.4934 0.0000
14 2 2 -8.5923 0.0000
14 2 3 -5.5390 0.0000
14 2 4 -3.2937 0.0000
14 2 5 -2.4402 0.0000
14 2 6 2.3959 0.0000
14 2 7 3.3905 0.0000
14 2 8 1.8226 0.0000
14 2 9 -1.6154 0.0000
14 2 10 -0.0780 0.0000
14 4 0 -7.5997 0.0000
14 4 1 -3.3341 0.0000
14 4 2 9.3468 0.0000
14 4 3 0.6180 0.0000
14 4 4 4.1076 0.0000
14 4 5 1.7473 0.0000
14 4 6 -0.7606 0.0000
14 4 7 -1.5003 0.0000
14 4 8 -0.6773 0.0000
14 4 9 -1.2454 0.0000
14 6 0 3.2752 0.0000
14 6 1 0.3167 0.0000
14 6 2 0.9799 0.0000
14 6 3 2.6747 0.0000
14 6 4 -3.3853 0.0000
14 6 5 -0.5865 0.0000
14 6 6 -4.6190 0.0000
14 6 7 2.0107 0.0000
14 6 8 -0.0550 0.0000
14 6 9 0.1849 0.0000
14 8 0 2.5889 0.0000
14 8 1 1.8551 0.0000
14 8 2 1.5241 0.0000
14 8 3 -3.3329 0.0000
14 8 4 3.0892 0.0000
14 8 5 -3.7303 0.0000
14 8 6 2.7688 0.0000
14 8 7 1.7114 0.0000
14 8 8 -1.9244 0.0000
14 10 0 3.3279 0.0000
14 10 1 1.2471 0.0000
14 10 2 -3.2509 0.0000
14 10 3 -0.0675 0.0000
14 10 4 -1.4308 0.0000
14 10 5 0.9696 0.0000
14 10 6 5.8058 0.0000
14 10 7 -1.8763 0.0000
14 12 0 -0.9510 0.0000
14 12 1 0.9402 0.0000
14 12 2 -0.0839 0.0000
14 12 3 -0.8572 0.0000
14 12 4 -1.0966 0.0000
14 12 5 0.0008 0.0000
14 12 6 0.4058 0.0000
14 14 0 2.5194 0.0000
14 14 1 -0.8432 0.0000
14 14 2 0.5600 0.0000
14 14 3 0.0633 0.0000
14 14 4 -0.2996 0.0000
15 1 0 5.4067 0.0000
15 1 1 2.4825 0.0000
15 1 2 -4.1180 0.0000
15 1 3 -5.2747 0.0000
15 1 4 -1.0332 0.0000
15 1 5 -4.1735 0.0000
15 1 6 -1.5311 0.0000
15 1 7 1.4894 0.0000
15 1 8 2.0009 0.0000
15 1 9 -0.3973 0.0000
15 1 10 1.4752 0.0000
15 3 0 -2.3432 0.0000
15 3 1 -11.0592 0.0000
15 3 2 0.3313 0.0000
15 3 3 0.1625 0.0000
15 3 4 2.2290 0.0000
15 3 5 3.1267 0.0000
15 3 6 2.9911 0.0000
15 3 7 1.7692 0.0000
15 3 8 -1.4368 0.0000
15 3 9 -3.8297 0.0000
15 5 0 -0.0474 0.0000
15 5 1 4.8628 0.0000
15 5 2 5.7973 0.0000
15 5 3 0.3554 0.0000
15 5 4 -0.7325 0.0000
15 5 5 -2.7722 0.0000
15 5 6 -2.8296 0.0000
15 5 7 -1.4892 0.0000
15 5 8 2.5633 0.0000
15 5 9 1.4105 0.0000
15 7 0 3.3842 0.0000
15 7 1 -3.6604 0.0000
15 7 2 1.7267 0.0000
15 7 3 -1.3442 0.0000
15 7 4 -1.8267 0.0000
15 7 5 1.9674 0.0000
15 7 6 -2.5539 0.0000
15 7 7 2.4404 0.0000
15 7 8 -2.0583 0.0000
15 9 0 4.3343 0.0000
15 9 1 3.1517 0.0000
15 9 2 -2.1863 0.0000
15 9 3 -3.1290 0.0000
15 9 4 2.6067 0.0000
15 9 5 -3.0037 0.0000
15 9 6 7.0974 0.0000
15 9 7 -0.0623 0.0000
15 9 8 -0.4519 0.0000
15 11 0 -0.1979 0.0000
15 11 1 -0.8930 0.0000
15 11 2 -0.7310 0.0000
15 11 3 -0.6419 0.0000
15 11 4 -1.1023 0.0000
15 11 5 0.7425 0.0000
15 11 6 1.7884 0.0000
15 11 7 -0.7235 0.0000
15 13 0 1.0225 0.0000
15 13 1 0.7671 0.0000
15 13 2 0.9307 0.0000
15 13 3 0.4687 0.0000
15 13 4 -1.3000 0.0000
15 13 5 0.3035 0.0000
15 15 0 -0.1858 0.0000
15 15 1 -1.3246 0.0000
15 15 2 0.0572 0.0000
16 0 0 8.8189 0.0000
16 0 2 0.4135 0.0000
16 0 4 -0.9803 0.0000
16 0 6 -3.8877 0.0000
16 0 8 3.1279 0.0000
16 2 0 -3.0239 0.0000
16 2 1 -5.8453 0.0000
16 2 2 -8.8219 0.0000
16 2 3 -1.9277 0.0000
16 2 4 0.3202 0.0000
16 2 5 -0.6942 0.0000
16 2 6 1.2076 0.0000
16 2 7 3.8588 0.0000
16 2 8 0.4808 0.0000
16 2 9 -3.1735 0.0000
16 4 0 0.0877 0.0000
16 4 1 -1.5164 0.0000
16 4 2 8.3494 0.0000
16 4 3 1.3693 0.0000
16 4 4 2.4889 0.0000
16 4 5 0.4543 0.0000
16 4 6 -1.6497 0.0000
16 4 7 -2.1559 0.0000
16 4 8 -1.1627 0.0000
16 4 9 -0.0085 0.0000
16 6 0 4.3339 0.0000
16 6 1 -0.2190 0.0000
16 6 2 -0.7676 0.0000
16 6 3 -1.4167 0.0000
16 6 4 -4.4918 0.0000
16 6 5 0.5033 0.0000
16 6 6 1.7816 0.0000
16 6 7 0.0154 0.0000
16 6 8 1.9018 0.0000
16 6 9 0.2606 0.0000
16 8 0 4.6708 0.0000
16 8 1 -0.6676 0.0000
16 8 2 2.2038 0.0000
16 8 3 -4.2363 0.0000
16 8 4 2.1158 0.0000
16 8 5 -0.1909 0.0000
16 8 6 0.1762 0.0000
16 8 7 2.6056 0.0000
16 8 8 -1.5071 0.0000
16 10 0 0.3202 0.0000
16 10 1 0.6683 0.0000
16 10 2 -2.8010 0.0000
16 10 3 -0.6729 0.0000
16 10 4 1.3673 0.0000
16 10 5 -0.1341 0.0000
16 10 6 3.7623 0.0000
16 10 7 -1.3657 0.0000
16 12 0 -0.4710 0.0000
16 12 1 -0.9421 0.0000
16 12 2 0.9746 0.0000
16 12 3 0.2460 0.0000
16 12 4 -1.0271 0.0000
16 12 5 0.2337 0.0000
16 14 0 2.6193 0.0000
16 14 1 -0.1875 0.0000
16 14 2 1.4418 0.0000
16 14 3 0.4271 0.0000
17 1 0 0.4128 0.0000
17 1 1 -2.9450 0.0000
17 1 2 -4.9522 0.0000
17 1 3 -4.7505 0.0000
17 1 4 -0.4734 0.0000
17 1 5 -1.6656 0.0000
17 1 6 -3.3417 0.0000
17 1 7 1.1156 0.0000
17 1 8 3.6754 0.0000
17 1 9 -1.2195 0.0000
17 3 0 -1.1480 0.0000
17 3 1 -3.9647 0.0000
17 3 2 0.7353 0.0000
17 3 3 4.2280 0.0000
17 3 4 2.3947 0.0000
17 3 5 2.9720 0.0000
17 3 6 1.0247 0.0000
17 3 7 0.7319 0.0000
17 3 8 -3.8165 0.0000
17 3 9 -2.7033 0.0000
17 5 0 3.5816 0.0000
17 5 1 2.7383 0.0000
17 5 2 2.6081 0.0000
17 5 3 -2.4995 0.0000
17 5 4 -2.3199 0.0000
17 5 5 -3.7401 0.0000
17 5 6 1.8529 0.0000
17 5 7 -0.2671 0.0000
17 5 8 1.5906 0.0000
17 5 9 1.8409 0.0000
17 7 0 4.7202 0.0000
17 7 1 -3.8825 0.0000
17 7 2 -0.4179 0.0000
17 7 3 -1.0476 0.0000
17 7 4 -2.0653 0.0000
17 7 5 4.4114 0.0000
17 7 6 0.6702 0.0000
17 7 7 0.2925 0.0000
17 7 8 0.1829 0.0000
17 9 0 2.6115 0.0000
17 9 1 0.3875 0.0000
17 9 2 -0.2184 0.0000
17 9 3 -3.5664 0.0000
17 9 4 3.9230 0.0000
17 9 5 -0.8877 0.0000
17 9 6 1.0145 0.0000
17 9 7 0.4693 0.0000
17 11 0 -0.3139 0.0000
17 11 1 0.0565 0.0000
17 11 2 -0.5702 0.0000
17 11 3 0.8162 0.0000
17 11 4 0.4146 0.0000
17 11 5 0.4383 0.0000
17 11 6 0.8413 0.0000
17 13 0 0.3781 0.0000
17 13 1 -0.0185 0.0000
17 13 2 2.1507 0.0000
17 13 3 1.3007 0.0000
17 13 4 -1.4162 0.0000
18 0 0 4.3348 0.0000
18 0 2 -0.0751 0.0000
18 0 4 -2.7340 0.0000
18 0 6 -3.6308 0.0000
18 0 8 4.1433 0.0000
18 2 0 -7.1178 0.0000
18 2 1 -2.8906 0.0000
18 2 2 -4.3784 0.0000
18 2 3 2.0960 0.0000
18 2 4 2.4789 0.0000
18 2 5 0.7587 0.0000
18 2 6 -0.0699 0.0000
18 2 7 2.7592 0.0000
18 2 8 -0.0808 0.0000
18 2 9 -2.5438 0.0000
18 4 0 5.2812 0.0000
18 4 1 1.7725 0.0000
18 4 2 3.2071 0.0000
18 4 3 0.9647 0.0000
18 4 4 -0.2295 0.0000
18 4 5 -1.2327 0.0000
18 4 6 -2.0074 0.0000
18 4 7 -0.8330 0.0000
18 4 8 -2.6409 0.0000
18 4 9 0.8044 0.0000
18 6 0 2.8325 0.0000
18 6 1 -1.0464 0.0000
18 6 2 -3.3469 0.0000
18 6 3 -2.6973 0.0000
18 6 4 -2.4634 0.0000
18 6 5 0.5426 0.0000
18 6 6 7.4481 0.0000
18 6 7 -0.9431 0.0000
18 6 8 1.1124 0.0000
18 8 0 5.3188 0.0000
18 8 1 -2.7261 0.0000
18 8 2 1.6733 0.0000
18 8 3 -0.6859 0.0000
18 8 4 0.1021 0.0000
18 8 5 3.2799 0.0000
18 8 6 -2.9302 0.0000
18 8 7 1.8654 0.0000
18 10 0 -1.3359 0.0000
18 10 1 1.9040 0.0000
18 10 2 -0.7197 0.0000
18 10 3 0.0701 0.0000
18 10 4 3.5558 0.0000
18 10 5 -0.9739 0.0000
18 10 6 -1.3607 0.0000
18 12 0 0.4280 0.0000
18 12 1 -1.1277 0.0000
18 12 2 0.9902 0.0000
18 12 4 -0.0422 0.0000
18 12 5 0.1384 0.0000
18 14 0 1.2978 0.0000
18 14 1 0.3322 0.0000
18 14 2 1.5698 0.0000
19 1 0 -3.0516 0.0000
19 1 1 -3.9791 0.0000
19 1 2 -1.4243 0.0000
19 1 3 -3.2738 0.0000
19 1 4 0.5743 0.0000
19 1 5 0.1152 0.0000
19 1 6 -1.8525 0.0000
19 1 7 -0.2023 0.0000
19 1 8 3.3265 0.0000
19 1 9 -0.3568 0.0000
19 3 0 -0.4881 0.0000
19 3 1 3.6556 0.0000
19 3 2 1.1848 0.0000
19 3 3 5.0537 0.0000
19 3 4 0.6252 0.0000
19 3 5 1.3762 0.0000
19 3 6 -0.9644 0.0000
19 3 7 0.1496 0.0000
19 3 8 -4.1029 0.0000
19 5 0 3.3419 0.0000
19 5 1 0.4343 0.0000
19 5 2 -2.5501 0.0000
19 5 3 -3.5754 0.0000
19 5 4 -1.9468 0.0000
19 5 5 -3.4775 0.0000
19 5 6 3.9488 0.0000
19 5 7 1.1979 0.0000
19 5 8 -1.0902 0.0000
19 7 0 3.3094 0.0000
19 7 1 -2.5059 0.0000
19 7 2 -2.8360 0.0000
19 7 3 2.3580 0.0000
19 7 4 -1.1372 0.0000
19 7 5 3.1272 0.0000
19 7 6 2.6613 0.0000
19 7 7 -0.3901 0.0000
19 9 0 1.9641 0.0000
19 9 1 -0.7334 0.0000
19 9 2 1.9223 0.0000
19 9 3 -0.5252 0.0000
19 9 4 2.5769 0.0000
19 9 5 0.9653 0.0000
19 9 6 -6.5469 0.0000
19 9 7 0.8343 0.0000
19 11 0 -0.1926 0.0000
19 11 1 2.4484 0.0000
19 11 2 -0.3090 0.0000
19 11 3 1.1486 0.0000
19 11 4 1.4759 0.0000
19 11 5 -0.0835 0.0000
19 13 0 0.1549 0.0000
19 13 1 -0.5523 0.0000
19 13 2 1.7554 0.0000
19 13 3 1.0061 0.0000
20 0 0 -0.6507 0.0000
20 0 2 0.9417 0.0000
20 0 4 -2.4891 0.0000
20 0 6 -2.1999 0.0000
20 0 8 1.6472 0.0000
20 2 0 -5.9652 0.0000
20 2 1 0.1620 0.0000
20 2 2 0.9298 0.0000
20 2 3 2.7654 0.0000
20 2 4 3.2867 0.0000
20 2 5 0.9495 0.0000
20 2 6 0.7991 0.0000
20 2 7 0.4078 0.0000
20 2 8 0.1001 0.0000
20 4 0 5.7792 0.0000
20 4 1 3.6844 0.0000
20 4 2 -1.6718 0.0000
20 4 3 -1.0827 0.0000
20 4 4 -2.3108 0.0000
20 4 5 -2.2445 0.0000
20 4 6 -2.0390 0.0000
20 4 7 0.5831 0.0000
20 4 8 -3.0268 0.0000
20 6 0 -2.6206 0.0000
20 6 1 -0.9513 0.0000
20 6 2 -5.2993 0.0000
20 6 3 -1.2090 0.0000
20 6 4 1.1852 0.0000
20 6 5 -0.9919 0.0000
20 6 6 6.5673 0.0000
20 6 7 -0.1442 0.0000
20 6 8 -0.2770 0.0000
20 8 0 4.6004 0.0000
20 8 1 -2.0757 0.0000
20 8 2 0.3638 0.0000
20 8 3 4.1073 0.0000
20 8 4 -2.3866 0.0000
20 8 5 3.2952 0.0000
20 8 6 -5.0058 0.0000
20 8 7 1.0246 0.0000
20 10 0 -0.5321 0.0000
20 10 1 2.9099 0.0000
20 10 2 1.4949 0.0000
20 10 3 0.7969 0.0000
20 10 4 2.6801 0.0000
20 10 5 -1.4863 0.0000
20 10 6 -4.8403 0.0000
20 12 0 0.5403 0.0000
20 12 1 -0.1773 0.0000
20 12 2 0.0160 0.0000
20 12 3 0.3899 0.0000
20 12 4 0.6683 0.0000
21 1 0 -3.4757 0.0000
21 1 1 -3.2482 0.0000
21 1 2 1.1385 0.0000
21 1 3 -2.3847 0.0000
21 1 4 1.4137 0.0000
21 1 5 0.4279 0.0000
21 1 6 -0.3591 0.0000
21 1 7 -0.4430 0.0000
21 1 8 0.9366 0.0000
21 3 0 0.6100 0.0000
21 3 1 5.9267 0.0000
21 3 2 1.3692 0.0000
21 3 3 2.2684 0.0000
21 3 4 -0.5811 0.0000
21 3 5 -0.2605 0.0000
21 3 6 -1.3218 0.0000
21 3 7 -0.5124 0.0000
21 3 8 -1.9169 0.0000
21 5 0 -1.1979 0.0000
21 5 1 -1.6098 0.0000
21 5 2 -4.9703 0.0000
21 5 3 -4.0484 0.0000
21 5 4 0.3357 0.0000
21 5 5 -1.7767 0.0000
21 5 6 2.0766 0.0000
21 5 7 1.2089 0.0000
21 7 0 -0.9634 0.0000
21 7 1 0.9028 0.0000
21 7 2 -3.5757 0.0000
21 7 3 4.7305 0.0000
21 7 4 -0.3782 0.0000
21 7 5 -0.9195 0.0000
21 7 6 1.8891 0.0000
21 7 7 0.6932 0.0000
21 9 0 2.9826 0.0000
21 9 1 -0.6098 0.0000
21 9 2 2.1226 0.0000
21 9 3 2.2914 0.0000
21 9 4 -0.2803 0.0000
21 9 5 0.9217 0.0000
21 9 6 -9.0170 0.0000
21 11 0 -0.7562 0.0000
21 11 1 3.0211 0.0000
21 11 2 -0.0119 0.0000
21 11 3 -0.1185 0.0000
21 11 4 0.9957 0.0000
21 13 0 0.2737 0.0000
21 13 1 -0.7555 0.0000
22 0 0 -4.5593 0.0000
22 0 2 -0.2112 0.0000
22 0 4 -1.5785 0.0000
22 0 6 -4.2652 0.0000
22 0 8 -1.0307 0.0000
22 2 0 -1.8252 0.0000
22 2 1 0.6744 0.0000
22 2 2 3.0773 0.0000
22 2 3 0.6813 0.0000
22 2 4 3.0231 0.0000
22 2 5 0.8017 0.0000
22 2 6 1.8084 0.0000
22 2 7 -1.0548 0.0000
22 2 8 0.4380 0.0000
22 4 0 3.3975 0.0000
22 4 1 1.6029 0.0000
22 4 2 -2.7643 0.0000
22 4 3 -2.8013 0.0000
22 4 4 -2.0743 0.0000
22 4 5 -1.0881 0.0000
22 4 6 -1.4881 0.0000
22 4 7 0.9412 0.0000
22 6 0 -8.6214 0.0000
22 6 1 0.2137 0.0000
22 6 2 -3.5485 0.0000
22 6 3 -0.3782 0.0000
22 6 4 3.8036 0.0000
22 6 5 -2.3096 0.0000
22 6 6 1.7029 0.0000
22 6 7 0.6729 0.0000
22 8 0 2.7454 0.0000
22 8 1 0.5496 0.0000
22 8 2 -1.1184 0.0000
22 8 3 4.7157 0.0000
22 8 4 -3.3518 0.0000
22 8 5 0.7416 0.0000
22 8 6 -3.9321 0.0000
22 10 0 0.9706 0.0000
22 10 1 1.4564 0.0000
22 10 2 1.8379 0.0000
22 10 3 0.5966 0.0000
22 10 4 0.6134 0.0000
22 10 5 -1.0800 0.0000
22 12 0 -0.2362 0.0000
22 12 1 0.4899 0.0000
22 12 2 -0.3226 0.0000
23 1 0 -3.1549 0.0000
23 1 1 -1.8839 0.0000
23 1 2 0.9768 0.0000
23 1 3 -1.3790 0.0000
23 1 4 0.8777 0.0000
23 1 5 0.4172 0.0000
23 1 6 -1.7374 0.0000
23 1 7 0.8895 0.0000
23 3 0 2.0958 0.0000
23 3 1 3.2091 0.0000
23 3 2 0.4442 0.0000
23 3 3 0.4013 0.0000
23 3 4 -0.5638 0.0000
23 3 5 0.0551 0.0000
23 3 6 -0.5905 0.0000
23 3 7 -0.7042 0.0000
23 5 0 -4.8054 0.0000
23 5 1 -3.2985 0.0000
23 5 2 -1.9642 0.0000
23 5 3 -3.6452 0.0000
23 5 4 2.5332 0.0000
23 5 5 0.6706 0.0000
23 5 6 -0.5360 0.0000
23 5 7 0.2488 0.0000
23 7 0 -4.4945 0.0000
23 7 1 4.1131 0.0000
23 7 2 -1.7176 0.0000
23 7 3 2.5733 0.0000
23 7 4 -0.1135 0.0000
23 7 5 -3.3457 0.0000
23 7 6 0.6300 0.0000
23 9 0 3.4664 0.0000
23 9 1 -0.6587 0.0000
23 9 2 0.3346 0.0000
23 9 3 2.0049 0.0000
23 9 4 -1.1991 0.0000
23 9 5 0.0631 0.0000
23 11 0 -1.6467 0.0000
23 11 1 1.3570 0.0000
23 11 2 0.4048 0.0000
23 11 3 -0.8355 0.0000
24 0 2 -1.4666 0.0000
24 0 4 -1.5561 0.0000
24 0 6 -7.1961 0.0000
24 2 0 1.0652 0.0000
24 2 1 0.6406 0.0000
24 2 2 1.7376 0.0000
24 2 3 0.0524 0.0000
24 2 4 1.5379 0.0000
24 2 5 1.0657 0.0000
24 2 6 1.5241 0.0000
24 2 7 -0.8697 0.0000
24 4 0 1.5194 0.0000
24 4 1 -1.4367 0.0000
24 4 2 -1.1123 0.0000
24 4 3 -0.9494 0.0000
24 4 4 -0.9078 0.0000
24 4 5 1.5454 0.0000
24 4 6 -0.8546 0.0000
24 4 7 0.9876 0.0000
24 6 0 -8.9163 0.0000
24 6 1 0.9891 0.0000
24 6 2 1.1940 0.0000
24 6 3 -1.3398 0.0000
24 6 4 3.5459 0.0000
24 6 5 -1.7985 0.0000
24 8 0 0.8095 0.0000
24 8 1 2.0611 0.0000
24 8 2 -1.9496 0.0000
24 8 3 1.2173 0.0000
24 8 4 -1.8673 0.0000
24 8 5 -0.9841 0.0000
24 10 0 1.2379 0.0000
24 10 1 -0.8423 0.0000
24 10 2 0.7935 0.0000
24 10 3 -0.0807 0.0000
25 1 0 -1.8315 0.0000
25 1 1 -0.1189 0.0000
25 1 2 0.3335 0.0000
25 1 3 0.1772 0.0000
25 1 4 -0.4922 0.0000
25 1 5 0.6301 0.0000
25 1 6 -2.8310 0.0000
25 1 7 1.7755 0.0000
25 3 0 2.0085 0.0000
25 3 1 1.2719 0.0000
25 3 2 -1.2926 0.0000
25 3 3 2.2716 0.0000
25 3 4 -0.8551 0.0000
25 3 5 1.1345 0.0000
25 3 6 0.2231 0.0000
25 5 0 -3.3569 0.0000
25 5 1 -3.3547 0.0000
25 5 2 2.1334 0.0000
25 5 3 -1.8164 0.0000
25 5 4 2.5359 0.0000
25 5 5 2.0954 0.0000
25 5 6 -1.4249 0.0000
25 7 0 -3.9859 0.0000
25 7 1 4.3807 0.0000
25 7 2 0.4881 0.0000
25 7 3 -1.3778 0.0000
25 7 4 -0.1677 0.0000
25 7 5 -2.1772 0.0000
25 9 0 2.2650 0.0000
25 9 1 -1.1375 0.0000
25 9 2 -1.1979 0.0000
25 9 3 0.2291 0.0000
25 9 4 0.0400 0.0000
25 11 0 -1.6623 0.0000
25 11 1 0.0200 0.0000
26 0 0 -1.8158 0.0000
26 0 2 -0.5612 0.0000
26 0 4 -1.5051 0.0000
26 0 6 -5.2956 0.0000
26 2 0 1.3971 0.0000
26 2 1 1.4250 0.0000
26 2 2 -0.3980 0.0000
26 2 3 1.5045 0.0000
26 2 4 -0.1742 0.0000
26 2 5 0.4512 0.0000
26 2 6 1.0478 0.0000
26 4 0 0.1939 0.0000
26 4 1 -0.8690 0.0000
26 4 2 -0.3625 0.0000
26 4 3 2.2541 0.0000
26 4 4 -0.8483 0.0000
26 4 5 2.9271 0.0000
26 4 6 -0.6954 0.0000
26 6 0 -3.7714 0.0000
26 6 1 0.4985 0.0000
26 6 2 3.9025 0.0000
26 6 3 -2.1801 0.0000
26 6 4 1.4798 0.0000
26 6 5 -0.4154 0.0000
26 8 0 -0.0014 0.0000
26 8 1 1.3085 0.0000
26 8 2 -2.3543 0.0000
26 8 3 -1.1614 0.0000
26 8 4 0.0004 0.0000
26 10 0 0.5424 0.0000
26 10 1 -1.3529 0.0000
27 1 0 1.8152 0.0000
27 1 1 0.7750 0.0000
27 1 2 0.1704 0.0000
27 1 3 0.8211 0.0000
27 1 4 -0.6356 0.0000
27 1 5 0.4487 0.0000
27 1 6 -1.1369 0.0000
27 3 0 -0.7544 0.0000
27 3 1 2.0285 0.0000
27 3 2 -2.0917 0.0000
27 3 3 3.9298 0.0000
27 3 4 -1.8547 0.0000
27 3 5 0.6299 0.0000
27 5 0 -0.2564 0.0000
27 5 1 -1.7441 0.0000
27 5 2 2.2600 0.0000
27 5 3 -0.4186 0.0000
27 5 4 1.2102 0.0000
27 5 5 1.6873 0.0000
27 7 0 -1.4749 0.0000
27 7 1 2.4573 0.0000
27 7 2 0.5827 0.0000
27 7 3 -2.6139 0.0000
27 7 4 -0.2246 0.0000
27 9 0 0.7312 0.0000
27 9 1 -1.1649 0.0000
27 9 2 -1.4982 0.0000
28 0 0 4.7671 0.0000
28 0 2 0.5499 0.0000
28 0 4 -0.2254 0.0000
28 2 0 0.5779 0.0000
28 2 1 1.2002 0.0000
28 2 2 -1.2664 0.0000
28 2 3 1.8548 0.0000
28 2 4 -0.6979 0.0000
28 2 5 -1.0857 0.0000
28 4 0 -2.0795 0.0000
28 4 1 1.7936 0.0000
28 4 2 -1.0709 0.0000
28 4 3 1.9279 0.0000
28 4 4 -1.3923 0.0000
28 4 5 2.1672 0.0000
28 6 0 -0.0416 0.0000
28 6 1 -0.5909 0.0000
28 6 2 2.9639 0.0000
28 6 3 -1.7764 0.0000
28 6 4 0.2376 0.0000
28 8 0 0.0981 0.0000
28 8 1 0.3396 0.0000
28 8 2 -2.7041 0.0000
29 1 0 4.5033 0.0000
29 1 1 0.2683 0.0000
29 1 2 -0.4062 0.0000
29 1 3 -0.1034 0.0000
29 1 4 0.4832 0.0000
29 1 5 0.0958 0.0000
29 3 0 -3.7571 0.0000
29 3 1 2.2437 0.0000
29 3 2 -0.8918 0.0000
29 3 3 2.0231 0.0000
29 3 4 -2.2239 0.0000
29 5 0 0.1507 0.0000
29 5 1 -0.6535 0.0000
29 5 2 0.0717 0.0000
29 5 3 -0.7002 0.0000
29 7 0 -0.6970 0.0000
29 7 1 1.0281 0.0000
29 7 2 -0.2125 0.0000
30 0 0 5.7808 0.0000
30 0 2 0.2452 0.0000
30 0 4 0.9460 0.0000
30 2 0 -0.1556 0.0000
30 2 1 -0.2603 0.0000
30 2 2 -0.7697 0.0000
30 2 3 0.4695 0.0000
30 2 4 -0.2931 0.0000
30 4 0 -3.4773 0.0000
30 4 1 2.3127 0.0000
30 4 2 -1.1450 0.0000
30 4 3 -0.9272 0.0000
30 6 0 -0.4199 0.0000
30 6 1 -1.2590 0.0000
31 1 0 2.6841 0.0000
31 1 1 -0.0422 0.0000
31 1 2 -0.8028 0.0000
31 1 3 -0.9623 0.0000
31 3 0 -3.5922 0.0000
31 3 1 0.8983 0.0000
31 3 2 0.8367 0.0000
31 5 0 -0.5535 0.0000
31 5 1 -0.8577 0.0000
32 0 0 0.6289 0.0000
32 0 2 0.0969 0.0000
32 2 0 -0.2538 0.0000
32 2 1 -0.6248 0.0000
0 0 0 0.0 0.0
;
_olex2_submission_special_instructions 'No special instructions were received'
loop_
_space_group_symop_operation_xyz
'x, y, z'
'-x, y, -z+1/2'
'x+1/2, y+1/2, z'
'-x+1/2, y+1/2, -z+1/2'
'-x, -y, -z'
'x, -y, z-1/2'
'-x+1/2, -y+1/2, -z'
'x+1/2, -y+1/2, z-1/2'
loop_
_atom_site_label
_atom_site_type_symbol
_atom_site_fract_x
_atom_site_fract_y
_atom_site_fract_z
_atom_site_U_iso_or_equiv
_atom_site_adp_type
_atom_site_occupancy
_atom_site_site_symmetry_order
_atom_site_calc_flag
_atom_site_refinement_flags_posn
Cu1 Cu 0.79397(2) 0.29668(2) 0.55542(3) 0.01158(8) Uani 1 1 d .
O1 O 0.82508(6) 0.28630(12) 0.34790(17) 0.0215(3) Uani 1 1 d .
O2 O 0.75595(6) 0.42576(11) 0.49631(17) 0.0192(3) Uani 1 1 d .
O3 O 0.75064(6) 0.29052(11) 0.74376(16) 0.0175(3) Uani 1 1 d .
N1 N 0.86008(6) 0.36095(12) 0.69727(18) 0.0134(3) Uani 1 1 d .
O4 O 0.81917(6) 0.15461(11) 0.59235(18) 0.0209(3) Uani 1 1 d .
C1 C 0.79741(8) 0.24035(14) 0.2432(2) 0.0134(4) Uani 1 1 d .
C5 C 0.70876(8) 0.42458(15) 0.4347(2) 0.0139(4) Uani 1 1 d .
C6 C 0.90120(8) 0.30195(16) 0.7504(2) 0.0182(4) Uani 1 1 d .
H6 H 0.904574 0.234294 0.710014 0.022 Uiso 1 1 calc R
C3 C 0.80414(9) 0.11871(15) 0.0152(2) 0.0169(4) Uani 1 1 d .
H3A H 0.764389 0.123371 -0.006323 0.020 Uiso 1 1 calc R
H3B H 0.822166 0.109295 -0.084447 0.020 Uiso 1 1 calc R
C11 C 0.97639(8) 0.47366(19) 1.0392(2) 0.0218(4) Uani 1 1 d .
H11A H 0.990597 0.415903 1.103343 0.026 Uiso 1 1 calc R
H11B H 0.958772 0.523462 1.108398 0.026 Uiso 1 1 calc R
C9 C 0.89167(8) 0.49458(17) 0.8692(2) 0.0183(4) Uani 1 1 d .
H9 H 0.887169 0.562417 0.907931 0.022 Uiso 1 1 calc R
C10 C 0.85554(8) 0.45561(16) 0.7581(2) 0.0162(4) Uani 1 1 d .
H10 H 0.826083 0.497903 0.723078 0.019 Uiso 1 1 calc R
C8 C 0.93472(8) 0.43323(17) 0.9236(2) 0.0171(4) Uani 1 1 d .
C7 C 0.93902(8) 0.33473(17) 0.8614(2) 0.0189(4) Uani 1 1 d .
H7 H 0.967769 0.290329 0.895057 0.023 Uiso 1 1 calc R
C2 C 0.82420(9) 0.21910(15) 0.0907(2) 0.0162(4) Uani 1 1 d .
H2A H 0.864163 0.215180 0.108618 0.019 Uiso 1 1 calc R
H2B H 0.816498 0.277110 0.019078 0.019 Uiso 1 1 calc R
C4 C 0.81615(9) 0.02574(15) 0.1185(2) 0.0188(4) Uani 1 1 d .
H4A H 0.856159 0.016803 0.127854 0.023 Uiso 1 1 calc R
H4B H 0.803064 0.041167 0.222990 0.023 Uiso 1 1 calc R
loop_
_atom_site_aniso_label
_atom_site_aniso_U_11
_atom_site_aniso_U_22
_atom_site_aniso_U_33
_atom_site_aniso_U_23
_atom_site_aniso_U_13
_atom_site_aniso_U_12
Cu1 0.01242(13) 0.01074(12) 0.01134(12) -0.00088(8) -0.00365(8) -0.00236(8)
O1 0.0214(8) 0.0278(8) 0.0154(7) -0.0070(6) 0.0016(6) -0.0109(6)
O2 0.0203(7) 0.0138(7) 0.0230(7) 0.0026(6) -0.0092(6) -0.0015(6)
O3 0.0158(7) 0.0234(7) 0.0130(6) -0.0016(6) -0.0015(5) -0.0046(6)
N1 0.0125(8) 0.0137(8) 0.0137(7) -0.0013(6) -0.0012(6) -0.0022(6)
O4 0.0196(7) 0.0128(7) 0.0299(8) -0.0025(6) -0.0088(6) -0.0004(6)
C1 0.0163(9) 0.0102(8) 0.0135(9) 0.0015(7) -0.0015(7) -0.0002(7)
C5 0.0165(9) 0.0160(9) 0.0091(8) -0.0012(7) -0.0021(7) 0.0004(7)
C6 0.0177(10) 0.0166(9) 0.0200(10) -0.0010(8) -0.0028(8) -0.0016(8)
C3 0.0230(10) 0.0140(9) 0.0136(9) -0.0009(7) -0.0022(8) -0.0002(8)
C11 0.0163(10) 0.0349(12) 0.0139(9) -0.0048(9) -0.0034(8) -0.0090(9)
C9 0.0137(9) 0.0224(10) 0.0188(10) -0.0095(8) 0.0007(8) -0.0040(8)
C10 0.0115(9) 0.0193(10) 0.0177(9) -0.0042(8) -0.0021(7) -0.0012(7)
C8 0.0136(9) 0.0268(11) 0.0108(9) -0.0010(8) -0.0009(7) -0.0061(8)
C7 0.0140(9) 0.0216(10) 0.0206(10) 0.0039(8) -0.0053(8) -0.0031(8)
C2 0.0203(10) 0.0131(9) 0.0152(9) 0.0003(7) 0.0021(7) -0.0020(7)
C4 0.0249(11) 0.0117(9) 0.0190(10) 0.0000(7) -0.0086(8) -0.0001(8)
loop_
_atom_type_symbol
_atom_type_description
_atom_type_scat_dispersion_real
_atom_type_scat_dispersion_imag
_atom_type_scat_source
C C 0.0033 0.0016 'International Tables Vol C Tables 4.2.6.8 and 6.1.1.4'
H H 0.0000 0.0000 'International Tables Vol C Tables 4.2.6.8 and 6.1.1.4'
Cu Cu 0.3201 1.2651 'International Tables Vol C Tables 4.2.6.8 and 6.1.1.4'
N N 0.0061 0.0033 'International Tables Vol C Tables 4.2.6.8 and 6.1.1.4'
O O 0.0106 0.0060 'International Tables Vol C Tables 4.2.6.8 and 6.1.1.4'
loop_
_geom_angle_atom_site_label_1
_geom_angle_atom_site_label_2
_geom_angle_atom_site_label_3
_geom_angle
_geom_angle_site_symmetry_1
_geom_angle_site_symmetry_3
O1 Cu1 Cu1 88.46(4) . 7_656
O1 Cu1 N1 103.71(6) . .
O2 Cu1 Cu1 85.43(4) . 7_656
O2 Cu1 O1 90.87(7) . .
O2 Cu1 N1 99.18(6) . .
O3 Cu1 Cu1 79.96(4) . 7_656
O3 Cu1 O1 168.37(6) . .
O3 Cu1 O2 89.19(6) . .
O3 Cu1 N1 87.75(6) . .
N1 Cu1 Cu1 166.84(5) . 7_656
O4 Cu1 Cu1 83.00(4) . 7_656
O4 Cu1 O1 87.45(7) . .
O4 Cu1 O2 168.34(6) . .
O4 Cu1 O3 90.15(6) . .
O4 Cu1 N1 92.42(6) . .
C1 O1 Cu1 117.97(13) . .
C5 O2 Cu1 121.30(13) . .
C1 O3 Cu1 128.26(13) 7_656 .
C6 N1 Cu1 121.18(13) . .
C6 N1 C10 117.39(17) . .
C10 N1 Cu1 120.24(13) . .
C5 O4 Cu1 124.78(13) 7_656 .
O1 C1 C2 118.12(17) . .
O3 C1 O1 124.84(18) 7_656 .
O3 C1 C2 117.03(17) 7_656 .
O2 C5 C4 118.39(17) . 4_655
O4 C5 O2 125.40(19) 7_656 .
O4 C5 C4 116.15(17) 7_656 4_655
N1 C6 H6 118.4 . .
N1 C6 C7 123.14(19) . .
C7 C6 H6 118.4 . .
H3A C3 H3B 108.0 . .
C2 C3 H3A 109.3 . .
C2 C3 H3B 109.3 . .
C4 C3 H3A 109.3 . .
C4 C3 H3B 109.3 . .
C4 C3 C2 111.65(16) . .
C11 C11 H11A 109.3 5_767 .
C11 C11 H11B 109.3 5_767 .
H11A C11 H11B 107.9 . .
C8 C11 C11 111.8(2) . 5_767
C8 C11 H11A 109.3 . .
C8 C11 H11B 109.3 . .
C10 C9 H9 120.4 . .
C10 C9 C8 119.28(19) . .
C8 C9 H9 120.4 . .
N1 C10 C9 123.21(19) . .
N1 C10 H10 118.4 . .
C9 C10 H10 118.4 . .
C9 C8 C11 121.3(2) . .
C7 C8 C11 121.3(2) . .
C7 C8 C9 117.38(18) . .
C6 C7 C8 119.58(19) . .
C6 C7 H7 120.2 . .
C8 C7 H7 120.2 . .
C1 C2 C3 112.52(16) . .
C1 C2 H2A 109.1 . .
C1 C2 H2B 109.1 . .
C3 C2 H2A 109.1 . .
C3 C2 H2B 109.1 . .
H2A C2 H2B 107.8 . .
C5 C4 C3 116.01(16) 4_645 .
C5 C4 H4A 108.3 4_645 .
C5 C4 H4B 108.3 4_645 .
C3 C4 H4A 108.3 . .
C3 C4 H4B 108.3 . .
H4A C4 H4B 107.4 . .
loop_
_geom_bond_atom_site_label_1
_geom_bond_atom_site_label_2
_geom_bond_distance
_geom_bond_site_symmetry_2
Cu1 Cu1 2.6311(5) 7_656
Cu1 O1 1.9794(15) .
Cu1 O2 1.9776(14) .
Cu1 O3 1.9769(14) .
Cu1 N1 2.1715(16) .
Cu1 O4 1.9680(15) .
O1 C1 1.265(2) .
O2 C5 1.261(2) .
O3 C1 1.255(2) 7_656
N1 C6 1.337(3) .
N1 C10 1.343(3) .
O4 C5 1.254(2) 7_656
C1 C2 1.519(3) .
C5 C4 1.514(3) 4_655
C6 H6 0.9500 .
C6 C7 1.383(3) .
C3 H3A 0.9900 .
C3 H3B 0.9900 .
C3 C2 1.532(3) .
C3 C4 1.525(3) .
C11 C11 1.524(4) 5_767
C11 H11A 0.9900 .
C11 H11B 0.9900 .
C11 C8 1.504(3) .
C9 H9 0.9500 .
C9 C10 1.384(3) .
C9 C8 1.394(3) .
C10 H10 0.9500 .
C8 C7 1.392(3) .
C7 H7 0.9500 .
C2 H2A 0.9900 .
C2 H2B 0.9900 .
C4 H4A 0.9900 .
C4 H4B 0.9900 .
loop_
_refln_index_h
_refln_index_k
_refln_index_l
_refln_F_squared_meas
_refln_F_squared_sigma
2 0 0 304.1 6.92
2 0 0 326.06 6.91
2 0 0 328.28 6.92
-2 0 0 346.31 6.94
-4 0 0 82.46 1.83
4 0 0 84.26 1.86
-4 0 0 83.5 1.84
-4 0 0 81.77 1.83
4 0 0 83.96 1.81
-8 0 0 206.48 4.55
-8 0 0 210.68 4.56
8 0 0 209.54 4.62
-8 0 0 213.05 4.55
8 0 0 203.7 4.5
-10 0 0 56.27 1.43
10 0 0 58.79 1.52
10 0 0 56.39 1.38
-10 0 0 55.61 1.42
-10 0 0 59.1 1.44
12 0 0 42.18 1.27
12 0 0 41.48 1.12
-12 0 0 42.95 1.19
-12 0 0 42.66 1.18
-12 0 0 46.03 1.18
16 0 0 18.19 0.67
-16 0 0 19.16 0.71
-16 0 0 19.08 0.74
-16 0 0 19.4 0.75
16 0 0 20.33 0.86
-18 0 0 28.8 1.02
18 0 0 28.45 1.15
-18 0 0 28.68 1.01
-18 0 0 28.53 0.95
18 0 0 28.09 0.93
-20 0 0 50.67 1.44
-20 0 0 48.48 1.5
-20 0 0 47.73 1.52
20 0 0 48.95 1.42
20 0 0 46.04 1.66
22 0 0 56.4 1.66
22 0 0 56.98 1.97
-22 0 0 59.75 1.77
-22 0 0 57.58 1.79
-22 0 0 56.33 1.65
26 0 0 57.85 1.83
-26 0 0 63.51 2.04
26 0 0 63.31 2.26
-28 0 0 29.2 1.32
28 0 0 24.71 1.13
28 0 0 28.1 1.5
-30 0 0 6.97 0.78
30 0 0 4.71 0.59
-32 0 0 16.94 1.16
32 0 0 15.15 1
-1 -1 0 14.15 0.35
-1 -1 0 14.86 0.34
1 -1 0 14.74 0.35
1 -1 0 14.81 0.35
-1 -1 0 14.6 0.35
-1 -1 0 13.89 0.35
1 -1 0 13.89 0.35
-1 -1 0 13.92 0.35
1 -1 0 13.72 0.35
1 1 0 14.89 0.36
1 1 0 15.23 0.34
-1 1 0 14.52 0.35
1 1 0 14.57 0.35
-1 1 0 14.49 0.35
-1 1 0 14.01 0.35
1 1 0 15.14 0.35
-1 1 0 14.73 0.35
-3 -1 0 0.51 0.06
3 -1 0 0.61 0.07
-3 -1 0 0.67 0.06
-3 -1 0 0.63 0.07
-3 -1 0 0.56 0.07
3 -1 0 0.49 0.06
3 -1 0 0.68 0.06
3 1 0 0.67 0.08
-3 1 0 0.69 0.07
3 1 0 0.56 0.07
3 1 0 0.58 0.05
-3 1 0 0.44 0.06
-3 1 0 0.59 0.07
-3 1 0 0.62 0.07
3 1 0 0.61 0.06
5 -1 0 59.92 1.42
5 -1 0 60.09 1.37
-5 -1 0 58.77 1.4
-5 -1 0 61.26 1.39
-5 -1 0 60.8 1.4
-5 1 0 60.7 1.39
-5 1 0 58.61 1.39
5 1 0 62.5 1.43
5 1 0 60.35 1.41
-5 1 0 61.16 1.39
5 1 0 60.79 1.35
-7 -1 0 5.75 0.26
-7 -1 0 5.7 0.25
7 -1 0 6.11 0.25
7 -1 0 5.84 0.29
-7 -1 0 5.8 0.26
7 1 0 5.6 0.22
-7 1 0 5.59 0.25
-7 1 0 5.7 0.25
-7 1 0 5.44 0.25
7 1 0 6.11 0.28
7 1 0 5.99 0.29
9 -1 0 14.44 0.46
9 -1 0 14.6 0.54
-9 -1 0 14.28 0.49
-9 -1 0 13.64 0.48
-9 -1 0 13.99 0.48
9 1 0 13.31 0.43
-9 1 0 13.24 0.47
-9 1 0 13.72 0.48
-9 1 0 13.48 0.48
9 1 0 14.78 0.55
11 -1 0 31.83 0.91
11 -1 0 34.56 1.04
-11 -1 0 34.45 0.96
-11 -1 0 33.78 0.97
-11 -1 0 33.29 0.96
11 1 0 36.96 1.08
-11 1 0 33.84 0.96
-11 1 0 33.01 0.94
11 1 0 32.94 0.89
-11 1 0 33.54 0.96
-13 -1 0 4.91 0.33
13 -1 0 5.53 0.31
-13 -1 0 5.21 0.33
-13 -1 0 4.79 0.31
13 -1 0 4.66 0.37
-13 1 0 5.42 0.33
13 1 0 4.84 0.38
-13 1 0 5.31 0.33
13 1 0 5.54 0.29
-13 1 0 5.38 0.32
-15 -1 0 0.3 0.13
-15 -1 0 0 0.11
-15 -1 0 0.08 0.11
15 -1 0 0.13 0.1
15 -1 0 0.05 0.15
15 1 0 0.36 0.17
-15 1 0 0.1 0.11
-15 1 0 0.13 0.11
-15 1 0 0.25 0.13
15 1 0 0.24 0.11
-17 -1 0 3.05 0.35
17 -1 0 4.03 0.36
-17 -1 0 4.12 0.4
17 -1 0 3.89 0.46
-17 -1 0 3.64 0.34
17 1 0 3.49 0.44
17 1 0 4.52 0.32
-17 1 0 3.69 0.38
-17 1 0 3.73 0.39
-17 1 0 3.73 0.36
-19 -1 0 4.09 0.4
19 -1 0 4.47 0.53
19 -1 0 4.49 0.4
-19 -1 0 4.85 0.46
-19 -1 0 4.44 0.46
19 1 0 3.7 0.35
-19 1 0 5.41 0.49
19 1 0 4.84 0.57
-19 1 0 4.68 0.42
-19 1 0 3.7 0.43
-21 -1 0 0.34 0.21
-21 -1 0 0.79 0.23
-21 -1 0 0.39 0.23
21 -1 0 0.28 0.27
21 -1 0 0.31 0.18
-21 1 0 0.5 0.22
21 1 0 -0.05 0.21
-21 1 0 0.48 0.24
-21 1 0 0.77 0.24
21 1 0 0.17 0.16
-23 -1 0 8.3 0.55
-23 -1 0 8.84 0.63
23 -1 0 9.77 0.78
23 -1 0 8.2 0.56
-23 -1 0 7.09 0.64
-23 1 0 7.7 0.7
23 1 0 8.33 0.54
23 1 0 10.09 0.94
-23 1 0 6.82 0.57
-23 1 0 8.54 0.56
25 -1 0 0.4 0.25
25 -1 0 0.67 0.38
-25 -1 0 -0.24 0.23
-25 -1 0 0.37 0.27
-25 1 0 -0.03 0.27
25 1 0 0.56 0.26
25 1 0 0.16 0.33
-25 1 0 0.03 0.22
27 -1 0 2.38 0.43
-27 -1 0 2.82 0.52
27 -1 0 1.64 0.48
-27 1 0 1.33 0.4
27 1 0 1.94 0.37
27 1 0 1.97 0.53
29 -1 0 7.87 0.74
-29 -1 0 7.81 0.82
29 1 0 6.06 0.89
29 1 0 7.2 0.69
-29 1 0 6.81 0.8
-31 -1 0 1.36 0.53
31 -1 0 1.39 0.4
31 1 0 1.17 0.59
31 1 0 1.29 0.43
-31 1 0 1.13 0.48
0 -2 0 104.62 2.36
0 -2 0 109.21 2.36
0 -2 0 107.24 2.34
0 2 0 106.09 2.35
0 2 0 117.79 2.37
0 2 0 106.18 2.34
-2 -2 0 261.16 5.56
-2 -2 0 257.48 5.56
2 -2 0 260.03 5.55
2 -2 0 260.25 5.54
2 -2 0 245.43 5.54
-2 -2 0 262.76 5.52
2 -2 0 270.27 5.55
2 2 0 267.76 5.52
-2 2 0 264.44 5.55
-2 2 0 257.85 5.53
-2 2 0 261.64 5.56
2 2 0 261.5 5.55
2 2 0 263.79 5.55
4 -2 0 12.87 0.38
-4 -2 0 13.2 0.36
-4 -2 0 12.23 0.39
4 -2 0 12.82 0.4
-4 -2 0 12.39 0.39
4 -2 0 13.07 0.38
-4 2 0 12.82 0.39
-4 2 0 12.25 0.38
4 2 0 13.11 0.4
4 2 0 12.97 0.35
4 2 0 12.39 0.4
-4 2 0 13.49 0.43
6 -2 0 1.62 0.13
-6 -2 0 2 0.15
6 -2 0 1.7 0.17
6 -2 0 1.96 0.14
-6 -2 0 1.92 0.15
-6 2 0 1.7 0.14
-6 2 0 1.64 0.14
6 2 0 1.91 0.17
6 2 0 1.41 0.11
6 2 0 1.9 0.16
8 -2 0 102.85 2.43
-8 -2 0 105.01 2.41
-8 -2 0 102.73 2.39
-8 -2 0 105.48 2.41
8 -2 0 101.88 2.37
-8 2 0 105.4 2.39
8 2 0 107.53 2.48
-8 2 0 104.39 2.39
8 2 0 102.51 2.31
-8 2 0 104.74 2.39
8 2 0 105.35 2.43
-10 -2 0 55.11 1.42
-10 -2 0 54.94 1.4
10 -2 0 54.6 1.46
-10 -2 0 55.79 1.41
10 -2 0 54.57 1.37
10 2 0 54.49 1.31
10 2 0 56.54 1.5
-10 2 0 54.47 1.39
10 2 0 53.88 1.43
-10 2 0 54.52 1.39
-10 2 0 53.53 1.39
-12 -2 0 21.68 0.73
-12 -2 0 21.26 0.73
12 -2 0 21.71 0.79
-12 -2 0 22.26 0.72
12 -2 0 20.83 0.69
12 2 0 21.21 0.64
-12 2 0 20.75 0.71
12 2 0 22.09 0.82
-12 2 0 21.82 0.71
-12 2 0 21.55 0.71
-14 -2 0 4.79 0.34
-14 -2 0 5.37 0.36
14 -2 0 4.9 0.32
14 -2 0 5.27 0.41
-14 -2 0 5.49 0.35
-14 2 0 5.31 0.35
14 2 0 5.62 0.43
-14 2 0 5.1 0.34
14 2 0 5.1 0.29
-14 2 0 5.62 0.36
16 -2 0 0.08 0.16
-16 -2 0 0.18 0.13
-16 -2 0 0.07 0.12
-16 -2 0 0.05 0.13
16 -2 0 0.13 0.13
16 2 0 -0.02 0.09
16 2 0 -0.06 0.13
-16 2 0 -0.04 0.11
-16 2 0 0.07 0.12
-16 2 0 0.19 0.13
18 -2 0 0.38 0.16
-18 -2 0 0.3 0.17
-18 -2 0 0.76 0.21
-18 -2 0 0.37 0.16
18 -2 0 -0.01 0.18
-18 2 0 0.29 0.17
-18 2 0 0.46 0.19
-18 2 0 0.49 0.18
18 2 0 0.34 0.15
18 2 0 0.21 0.21
-20 -2 0 17.17 0.75
-20 -2 0 18.6 0.83
20 -2 0 18.27 0.77
-20 -2 0 17.93 0.82
20 -2 0 17.37 0.92
-20 2 0 18.75 0.77
20 2 0 19.29 0.99
-20 2 0 19.36 0.84
-20 2 0 19.58 0.81
20 2 0 18.91 0.73
-22 -2 0 9.72 0.65
-22 -2 0 10.13 0.59
-22 -2 0 10.36 0.65
22 -2 0 10.54 0.62
22 -2 0 9.34 0.74
22 2 0 10.88 0.55
-22 2 0 9.47 0.6
-22 2 0 9.99 0.59
22 2 0 9.66 0.77
-22 2 0 8.56 0.62
-24 -2 0 35.83 1.38
24 -2 0 35.29 1.53
24 -2 0 38.16 1.33
-24 -2 0 35.46 1.36
24 2 0 37.69 1.24
-24 2 0 36.45 1.24
-24 2 0 37.21 1.4
24 2 0 39.76 1.65
26 -2 0 19.8 0.95
-26 -2 0 17.9 1.06
26 -2 0 20.05 1.53
-26 -2 0 18.46 1.01
-26 2 0 18.23 0.87
26 2 0 19 1.21
-26 2 0 18.31 1
26 2 0 18.65 0.86
-28 -2 0 -0.04 0.29
28 -2 0 -0.39 0.24
28 2 0 0.17 0.41
-28 2 0 0 0.31
28 2 0 0.14 0.25
-30 -2 0 4.28 0.66
30 -2 0 4.18 0.6
-30 2 0 3.64 0.62
30 2 0 3.05 0.73
32 -2 0 6.62 0.76
-32 -2 0 4.8 0.76
32 2 0 4.84 0.91
-1 -3 0 1.72 0.12
-1 -3 0 1.68 0.14
-1 -3 0 1.59 0.13
1 -3 0 1.55 0.12
1 -3 0 1.57 0.12
1 -3 0 1.55 0.12
-1 3 0 1.66 0.11
1 3 0 1.57 0.12
-1 3 0 1.77 0.12
1 3 0 1.64 0.12
-3 -3 0 44.23 1.08
3 -3 0 43.13 1.06
-3 -3 0 44.16 1.03
3 -3 0 44.42 1.06
-3 -3 0 42.67 1.08
-3 3 0 44.87 1.05
3 3 0 43.92 1.07
-3 3 0 43.83 1.06
3 3 0 43.99 1.07
5 -3 0 33.45 0.86
-5 -3 0 33.47 0.88
5 -3 0 32.4 0.84
-5 -3 0 32.8 0.81
5 -3 0 32.04 0.86
-5 -3 0 33.86 0.88
5 3 0 33.65 0.87
-5 3 0 32.81 0.85
5 3 0 32.43 0.8
-5 3 0 33.02 0.86
5 3 0 32.93 0.89
-7 -3 0 68.17 1.66
7 -3 0 70.37 1.64
7 -3 0 66.78 1.62
-7 -3 0 70.67 1.58
7 -3 0 66.8 1.66
-7 -3 0 68.3 1.66
7 3 0 68.63 1.67
7 3 0 68.85 1.56
-7 3 0 68.28 1.64
7 3 0 69.29 1.71
-7 3 0 67.36 1.63
9 -3 0 12.67 0.51
9 -3 0 12.9 0.46
-9 -3 0 13.51 0.5
-9 -3 0 13.51 0.5
9 -3 0 12.7 0.47
-9 -3 0 13.28 0.5
-9 3 0 13.43 0.48
9 3 0 12.77 0.54
9 3 0 13.02 0.41
-9 3 0 13.01 0.48
9 3 0 12.55 0.5
11 -3 0 6.47 0.34
11 -3 0 5.51 0.31
11 -3 0 5.5 0.36
-11 -3 0 5.89 0.35
-11 -3 0 5.97 0.34
-11 -3 0 6.3 0.35
-11 3 0 5.35 0.32
11 3 0 5.78 0.27
11 3 0 5.39 0.35
-11 3 0 5.86 0.32
11 3 0 6.16 0.39
13 -3 0 0.98 0.22
13 -3 0 1.13 0.19
-13 -3 0 1.85 0.26
-13 -3 0 1.23 0.2
-13 -3 0 1.14 0.2
-13 3 0 0.84 0.18
13 3 0 1.4 0.16
13 3 0 0.94 0.22
13 3 0 1.21 0.22
-13 3 0 1.3 0.2
-13 3 0 1.04 0.19
15 -3 0 45.93 1.42
15 -3 0 42.5 1.28
-15 -3 0 46.12 1.31
-15 -3 0 44.74 1.33
-15 -3 0 44.34 1.35
15 3 0 42.96 1.46
15 3 0 44.84 1.19
-15 3 0 46.23 1.34
-15 3 0 47.09 1.31
-15 3 0 47.64 1.29
-17 -3 0 34.21 1.15
17 -3 0 31.66 1.2
17 -3 0 34.64 1.1
-17 -3 0 33.04 1.13
-17 -3 0 33.61 1.09
17 3 0 34.35 1.29
-17 3 0 33.56 1.1
17 3 0 34.63 1
-17 3 0 35.98 1.08
-17 3 0 33.21 1.13
19 -3 0 26.23 1.11
-19 -3 0 25.17 1
-19 -3 0 26.61 0.97
-19 -3 0 28.2 1.06
19 -3 0 27 0.98
19 3 0 29.76 1.23
19 3 0 28.1 0.89
-19 3 0 26.76 0.98
-19 3 0 25.86 1.02
-19 3 0 27.66 0.96
-21 -3 0 1.49 0.31
21 -3 0 1.74 0.39
-21 -3 0 1.32 0.27
21 -3 0 1.79 0.32
-21 -3 0 1.46 0.32
21 3 0 1.07 0.37
-21 3 0 1.6 0.32
21 3 0 1.27 0.24
-21 3 0 1.34 0.28
-21 3 0 1.43 0.29
23 -3 0 1.18 0.3
-23 -3 0 0.83 0.28
-23 -3 0 0.94 0.32
23 -3 0 1.01 0.4
23 3 0 1.29 0.25
-23 3 0 0.96 0.29
23 3 0 1.26 0.41
-23 3 0 1.25 0.33
25 -3 0 2.43 0.43
-25 -3 0 0.87 0.33
-25 -3 0 2.67 0.48
25 3 0 2.69 0.37
-25 3 0 1.94 0.42
-25 3 0 2.82 0.4
25 3 0 2.68 0.57
27 -3 0 16.98 0.94
-27 -3 0 16.7 1
27 3 0 15.72 1.18
27 3 0 18.71 0.86
-27 3 0 18.35 0.87
-29 -3 0 8.43 0.86
29 -3 0 11.47 0.84
29 3 0 8.76 1.07
-31 -3 0 3.31 0.63
31 -3 0 2.02 0.51
31 3 0 1.94 0.66
0 -4 0 90.97 2.11
0 -4 0 92.71 2.1
0 -4 0 91.2 2.08
0 4 0 92.43 2.06
0 4 0 91.59 2.09
-2 -4 0 14.24 0.48
-2 -4 0 14.11 0.47
2 -4 0 15.4 0.48
2 -4 0 14.44 0.46
-2 -4 0 14.73 0.45
2 -4 0 14.84 0.47
2 4 0 14.83 0.46
-2 4 0 15.24 0.44
2 4 0 14.79 0.47
-2 4 0 14.9 0.46
-4 -4 0 3.14 0.21
-4 -4 0 2.91 0.17
4 -4 0 2.91 0.19
4 -4 0 3.11 0.19
-4 -4 0 3.42 0.22
4 4 0 3.38 0.21
-4 4 0 2.92 0.18
-4 4 0 3.21 0.18
4 4 0 2.84 0.19
-6 -4 0 1.91 0.17
-6 -4 0 1.51 0.18
6 -4 0 1.85 0.19
-6 -4 0 1.93 0.2
6 -4 0 2.06 0.2
6 -4 0 1.86 0.18
6 4 0 1.9 0.21
-6 4 0 1.85 0.19
6 4 0 2.1 0.21
6 4 0 1.96 0.14
-6 4 0 1.95 0.16
-8 -4 0 4.58 0.29
-8 -4 0 5.17 0.3
8 -4 0 5.31 0.29
8 -4 0 4.38 0.26
-8 -4 0 4.73 0.23
8 -4 0 4.77 0.29
-8 4 0 4.69 0.27
8 4 0 5.03 0.23
-8 4 0 4.18 0.26
8 4 0 5.01 0.32
8 4 0 4.9 0.3
10 -4 0 23.1 0.73
-10 -4 0 21.12 0.74
10 -4 0 21.25 0.68
-10 -4 0 21.36 0.73
10 -4 0 20.32 0.73
10 4 0 22.07 0.62
-10 4 0 21.19 0.7
10 4 0 20.41 0.78
-10 4 0 21.9 0.7
10 4 0 22.47 0.76
-12 -4 0 8.04 0.43
12 -4 0 7.3 0.43
12 -4 0 7.4 0.37
12 -4 0 7.29 0.4
-12 -4 0 6.92 0.41
-12 -4 0 7.56 0.42
-12 4 0 7.3 0.39
12 4 0 7.1 0.31
12 4 0 7.84 0.48
-12 4 0 7.66 0.39
12 4 0 7.3 0.43
14 -4 0 4.89 0.36
-14 -4 0 4.92 0.36
-14 -4 0 5.79 0.4
14 -4 0 4.29 0.32
14 -4 0 5.48 0.41
-14 -4 0 4.89 0.36
-14 4 0 5.21 0.35
14 4 0 4.91 0.39
14 4 0 4.82 0.5
-14 4 0 4.89 0.35
14 4 0 4.94 0.27
-16 -4 0 4.15 0.39
-16 -4 0 4.88 0.45
-16 -4 0 3.96 0.39
16 -4 0 4.72 0.48
16 -4 0 4.03 0.33
16 -4 0 4.15 0.39
16 4 0 4.22 0.28
16 4 0 3.63 0.45
-16 4 0 4.85 0.43
16 4 0 4.73 0.45
-16 4 0 4.37 0.35
18 -4 0 0.23 0.17
-18 -4 0 0.2 0.18
18 -4 0 -0.07 0.2
18 -4 0 -0.25 0.15
-18 -4 0 -0.44 0.16
-18 -4 0 0.23 0.19
-18 4 0 0.21 0.15
18 4 0 0.21 0.21
-18 4 0 -0.28 0.14
18 4 0 0.03 0.11
20 -4 0 3.62 0.38
20 -4 0 3.14 0.39
-20 -4 0 2.38 0.34
-20 -4 0 3.37 0.43
-20 -4 0 2.68 0.4
20 -4 0 3.64 0.51
-20 4 0 3.7 0.4
20 4 0 3.25 0.51
20 4 0 2.88 0.31
-20 4 0 4.07 0.43
22 -4 0 10.3 0.79
22 -4 0 9.92 0.64
-22 -4 0 9.61 0.67
-22 -4 0 9.03 0.67
22 4 0 10.88 0.83
-22 4 0 9.49 0.57
22 4 0 9.76 0.53
-24 -4 0 4.22 0.55
-24 -4 0 6.18 0.66
24 -4 0 4.83 0.54
-24 4 0 4.64 0.48
24 4 0 4.52 0.43
24 4 0 5.15 0.74
-26 -4 0 2.4 0.47
-26 -4 0 1.96 0.45
26 -4 0 1.84 0.41
-26 4 0 2.75 0.43
26 4 0 1.88 0.54
28 -4 0 0.17 0.31
-28 -4 0 0.58 0.37
28 4 0 0.75 0.51
-28 4 0 0.43 0.4
30 -4 0 -0.19 0.33
-30 -4 0 0.17 0.38
30 4 0 -0.21 0.44
-1 -5 0 52.43 1.33
1 -5 0 51.37 1.32
1 -5 0 51.65 1.31
-1 -5 0 51.42 1.29
-1 -5 0 53.06 1.32
1 -5 0 52.97 1.3
1 5 0 50.63 1.3
-1 5 0 53.37 1.31
-1 5 0 53.35 1.26
1 5 0 51.36 1.27
3 -5 0 67.58 1.64
3 -5 0 65.85 1.64
-3 -5 0 67.9 1.67
3 -5 0 68.2 1.65
-3 -5 0 68.15 1.62
-3 -5 0 69.16 1.68
3 5 0 70.44 1.67
3 5 0 65.94 1.64
-3 5 0 68.71 1.59
-3 5 0 69.57 1.65
5 -5 0 95.4 2.28
-5 -5 0 100.45 2.25
-5 -5 0 98.84 2.35
-5 -5 0 98.09 2.33
5 -5 0 99.62 2.32
-5 5 0 99.78 2.25
5 5 0 99.09 2.33
-5 5 0 98.15 2.3
5 5 0 97.31 2.33
7 -5 0 105.93 2.49
-7 -5 0 106.3 2.52
-7 -5 0 108.16 2.4
7 -5 0 103.49 2.45
7 -5 0 106.08 2.46
-7 -5 0 103.66 2.5
7 5 0 105.02 2.51
7 5 0 105.95 2.37
-7 5 0 105.97 2.43
7 5 0 103.3 2.53
-7 5 0 104.27 2.47
-9 -5 0 62.27 1.61
-9 -5 0 59.39 1.58
-9 -5 0 62.24 1.47
9 -5 0 56.73 1.53
9 -5 0 60.8 1.57
9 -5 0 60.37 1.52
9 5 0 57.37 1.63
9 5 0 60.93 1.44
-9 5 0 59.92 1.54
-9 5 0 59.48 1.52
9 5 0 62.17 1.61
11 -5 0 1.61 0.21
-11 -5 0 1.68 0.24
-11 -5 0 1.62 0.24
11 -5 0 2.14 0.25
11 -5 0 1.87 0.25
-11 5 0 2.15 0.25
11 5 0 1.71 0.27
-11 5 0 1.76 0.22
11 5 0 2.32 0.2
11 5 0 1.99 0.27
13 -5 0 29.31 0.91
-13 -5 0 29.1 0.99
-13 -5 0 30.02 0.98
13 -5 0 29.01 0.99
13 -5 0 30.27 0.98
-13 -5 0 28.86 0.98
-13 5 0 29.26 0.94
13 5 0 28.96 1.09
13 5 0 30.75 1.02
13 5 0 29.93 0.83
-13 5 0 29.16 0.94
-15 -5 0 19.01 0.81
-15 -5 0 20.31 0.78
-15 -5 0 18.95 0.78
15 -5 0 18.32 0.76
15 -5 0 17.62 0.79
15 -5 0 19.93 0.72
-15 5 0 20.04 0.75
15 5 0 21.22 0.93
15 5 0 19.99 0.63
15 5 0 19.3 0.81
-15 5 0 18.63 0.73
17 -5 0 63.01 1.81
-17 -5 0 64.87 1.85
-17 -5 0 66.13 1.82
17 -5 0 63.33 1.74
17 -5 0 64.23 1.89
-17 -5 0 66.98 1.9
-17 5 0 64.01 1.77
17 5 0 62.88 2.04
17 5 0 65.79 1.63
-17 5 0 64.85 1.77
17 5 0 64.32 1.87
19 -5 0 45.5 1.49
-19 -5 0 47.6 1.52
-19 -5 0 46.72 1.56
-19 -5 0 47.52 1.47
19 -5 0 44.9 1.57
19 -5 0 48.2 1.42
19 5 0 48.42 1.75
19 5 0 49.97 1.32
-19 5 0 47.3 1.44
-19 5 0 48.89 1.45
-21 -5 0 12.49 0.71
-21 -5 0 12.01 0.74
21 -5 0 11.18 0.69
21 -5 0 10.45 0.64
21 5 0 11.31 0.55
21 5 0 10.54 0.85
-21 5 0 13.05 0.66
23 -5 0 0.49 0.27
-23 -5 0 0.86 0.32
-23 -5 0 1.04 0.34
23 5 0 0.45 0.36
-23 5 0 0.91 0.28
-25 -5 0 4.81 0.62
25 -5 0 5.06 0.6
-25 -5 0 5.59 0.63
-25 5 0 5.69 0.57
25 5 0 5.39 0.78
27 -5 0 17.49 1.02
-27 -5 0 16.55 1.05
-27 -5 0 16.31 1.01
-27 5 0 18.9 0.91
27 5 0 17.16 1.27
-29 -5 0 15.11 1.03
29 -5 0 15.99 1.02
29 5 0 11.68 1.28
31 -5 0 5.86 0.77
-31 -5 0 5.13 0.76
31 5 0 6.17 1.03
-2 -6 0 3.78 0.24
2 -6 0 3.34 0.25
-2 -6 0 3.44 0.27
-2 -6 0 3.17 0.28
2 -6 0 3.38 0.25
2 -6 0 3.3 0.25
2 6 0 2.92 0.22
-2 6 0 2.87 0.2
2 6 0 3.14 0.24
-2 6 0 3.26 0.24
-4 -6 0 21.52 0.72
4 -6 0 21.26 0.69
4 -6 0 20.7 0.68
-4 -6 0 20.66 0.64
-4 -6 0 20.68 0.7
4 -6 0 19.53 0.67
4 6 0 20.55 0.68
4 6 0 20.26 0.69
-4 6 0 21.54 0.62
-4 6 0 20.55 0.67
-8 -6 0 2.56 0.29
8 -6 0 2.36 0.25
-8 -6 0 2.6 0.29
-8 -6 0 2.36 0.22
8 -6 0 2.27 0.25
8 6 0 2.15 0.27
-8 6 0 2.49 0.26
-8 6 0 2.44 0.21
8 6 0 2.35 0.2
8 6 0 2.78 0.3
-10 -6 0 4.5 0.35
-10 -6 0 4.49 0.27
-10 -6 0 4.34 0.38
10 -6 0 5 0.31
10 -6 0 4.57 0.33
10 -6 0 4.28 0.31
-10 6 0 4.28 0.29
10 6 0 4.62 0.37
10 6 0 4.23 0.34
-10 6 0 3.82 0.3
10 6 0 4.24 0.24
12 -6 0 2.91 0.31
12 -6 0 2.92 0.28
-12 -6 0 3.32 0.35
12 -6 0 2.38 0.3
-12 -6 0 2.25 0.3
-12 6 0 2.65 0.29
12 6 0 3.38 0.22
-12 6 0 2.83 0.29
12 6 0 1.89 0.31
12 6 0 3.08 0.35
-14 -6 0 0.17 0.15
14 -6 0 0.11 0.16
14 -6 0 0.24 0.14
-14 -6 0 0.06 0.16
14 -6 0 0.22 0.16
-14 6 0 0.18 0.14
-14 6 0 0.14 0.13
14 6 0 0.18 0.1
14 6 0 0.47 0.2
14 6 0 0.36 0.21
-16 -6 0 0.3 0.19
16 -6 0 0.21 0.17
16 -6 0 0.04 0.19
-16 -6 0 0.14 0.15
16 -6 0 0 0.14
-16 -6 0 0.43 0.21
-16 6 0 0.02 0.15
16 6 0 0.19 0.12
16 6 0 -0.11 0.17
16 6 0 0.11 0.18
-16 6 0 -0.08 0.12
-18 -6 0 0.87 0.27
18 -6 0 0.95 0.23
-18 -6 0 0.84 0.26
18 -6 0 0.88 0.26
-18 -6 0 1.07 0.27
-18 6 0 0.74 0.23
18 6 0 0.63 0.28
-18 6 0 0.83 0.23
18 6 0 1.03 0.19
18 6 0 0.84 0.31
-20 -6 0 1.03 0.3
20 -6 0 0.75 0.28
20 -6 0 1.02 0.26
-20 -6 0 0.48 0.25
20 6 0 0.72 0.34
20 6 0 1.05 0.31
-20 6 0 0.96 0.33
-20 6 0 0.64 0.23
-22 -6 0 0.8 0.32
-22 -6 0 0.48 0.26
22 -6 0 0.44 0.27
22 6 0 1.07 0.42
-22 6 0 0.66 0.24
24 -6 0 9.29 0.72
-24 -6 0 12.16 0.8
-24 -6 0 12.1 0.84
-24 6 0 10.51 0.66
-26 -6 0 0.29 0.34
26 -6 0 0.04 0.31
-26 -6 0 0.05 0.29
-26 6 0 0.03 0.24
26 6 0 -0.26 0.35
-28 -6 0 1.02 0.44
28 -6 0 0.91 0.39
-28 -6 0 1.62 0.5
28 6 0 1 0.55
-28 6 0 1.04 0.37
30 -6 0 1.19 0.46
-30 -6 0 1.62 0.49
30 6 0 1.94 0.68
-1 -7 0 3.48 0.29
1 -7 0 3.92 0.29
-1 -7 0 2.91 0.29
1 -7 0 3.24 0.3
-1 -7 0 3.82 0.28
1 -7 0 3.58 0.28
-1 7 0 3.46 0.23
1 7 0 4.12 0.26
1 7 0 3.63 0.28
-1 7 0 3.64 0.27
3 -7 0 57.8 1.52
-3 -7 0 57.88 1.52
-3 -7 0 59.28 1.56
-3 -7 0 58.1 1.48
3 -7 0 58 1.52
3 -7 0 55.92 1.5
3 7 0 56.09 1.49
-3 7 0 56.5 1.41
-3 7 0 59.73 1.52
3 7 0 56.96 1.53
5 -7 0 86.67 2.16
-5 -7 0 87.25 2.08
5 -7 0 87.94 2.13
-5 -7 0 84.56 2.16
-5 -7 0 85.89 2.19
5 -7 0 83.96 2.12
-5 7 0 89.07 2.14
-5 7 0 88.29 2.04
5 7 0 84.86 2.16
5 7 0 88.74 2.19
-7 -7 0 82.42 2.06
-7 -7 0 84.35 1.95
7 -7 0 76.62 2.04
-7 -7 0 79.94 2.08
7 -7 0 81.12 2.01
7 7 0 81.07 2.08
-7 7 0 85.61 1.94
7 7 0 72.29 2.05
-7 7 0 79.55 2.02
-9 -7 0 3.51 0.26
9 -7 0 3.69 0.3
-9 -7 0 3.22 0.36
-9 -7 0 4.01 0.37
9 -7 0 3.87 0.36
-9 7 0 3.75 0.3
9 7 0 3.07 0.36
-9 7 0 3.46 0.26
9 7 0 4.33 0.41
9 7 0 3.96 0.25
-11 -7 0 4.34 0.42
-11 -7 0 4.92 0.3
11 -7 0 5 0.39
11 -7 0 4.92 0.35
11 -7 0 5.16 0.35
-11 -7 0 5.72 0.4
11 7 0 5.88 0.43
-11 7 0 4.77 0.32
11 7 0 5.27 0.28
11 7 0 5.02 0.44
-11 7 0 4.69 0.35
-13 -7 0 4.54 0.47
13 -7 0 4.74 0.36
13 -7 0 5.23 0.38
-13 -7 0 5.75 0.43
13 -7 0 4.31 0.42
13 7 0 4.73 0.29
-13 7 0 4.62 0.41
13 7 0 5.55 0.51
13 7 0 4.8 0.53
-13 7 0 4.77 0.35
15 -7 0 12.56 0.59
-15 -7 0 12.08 0.65
15 -7 0 13.06 0.66
-15 -7 0 12.79 0.69
-15 7 0 12.71 0.62
15 7 0 12.37 0.48
15 7 0 12.52 0.69
-15 7 0 10.72 0.63
15 7 0 11.29 0.72
-17 -7 0 7.32 0.53
17 -7 0 5.39 0.52
17 -7 0 5.47 0.42
-17 -7 0 6.24 0.56
-17 -7 0 6.96 0.55
-17 7 0 6.19 0.47
17 7 0 6.87 0.62
17 7 0 6.89 0.55
17 7 0 4.94 0.61
-19 -7 0 5.65 0.57
19 -7 0 5.39 0.48
-19 -7 0 5.55 0.6
19 -7 0 5.19 0.55
19 7 0 4.88 0.68
-19 7 0 4.5 0.47
21 -7 0 0.25 0.26
-21 -7 0 0.47 0.26
-21 -7 0 0.29 0.27
-21 7 0 -0.26 0.19
21 7 0 0.56 0.36
23 -7 0 0.91 0.33
-23 -7 0 0.67 0.3
-23 -7 0 0.68 0.34
-23 7 0 0.04 0.25
23 7 0 0.66 0.43
25 -7 0 4.5 0.6
-25 -7 0 5.46 0.69
-25 -7 0 4.91 0.63
-25 7 0 4.59 0.55
25 7 0 4.37 0.78
-27 -7 0 12.31 1
-27 -7 0 11.21 0.9
27 -7 0 12.51 0.93
27 7 0 8.3 1.05
-27 7 0 12.08 0.82
29 -7 0 8.36 0.89
-29 -7 0 7.84 0.87
29 7 0 6.48 1.02
-29 7 0 9.93 0.76
0 -8 0 54.59 1.5
0 -8 0 53.47 1.53
0 -8 0 58.18 1.53
0 8 0 56.91 1.45
0 8 0 56.65 1.54
-2 -8 0 22.92 0.84
2 -8 0 25.79 0.84
2 -8 0 24.22 0.83
2 -8 0 23.59 0.84
-2 -8 0 24.7 0.81
-2 -8 0 25.65 0.85
2 8 0 25.02 0.81
-2 8 0 24.15 0.83
2 8 0 25.54 0.87
-2 8 0 24.47 0.74
4 -8 0 24.48 0.84
-4 -8 0 23.46 0.79
4 -8 0 24.41 0.85
4 -8 0 25.2 0.84
-4 -8 0 23.85 0.84
-4 -8 0 23.39 0.86
4 8 0 24.94 0.87
-4 8 0 24.58 0.73
-4 8 0 24.45 0.84
4 8 0 24.88 0.84
-6 -8 0 12.3 0.57
-6 -8 0 11.96 0.59
6 -8 0 12.35 0.56
-6 -8 0 12.45 0.51
6 -8 0 12.24 0.57
6 -8 0 12.12 0.55
6 8 0 14.46 0.62
-6 8 0 12.72 0.47
6 8 0 11.12 0.56
-6 8 0 12.63 0.56
8 -8 0 8.18 0.46
-8 -8 0 9.69 0.43
-8 -8 0 8.59 0.5
8 -8 0 6.4 0.45
-8 8 0 7.62 0.45
-8 8 0 8.6 0.38
8 8 0 8.18 0.5
-10 -8 0 3.54 0.28
-10 -8 0 4.42 0.44
10 -8 0 3.93 0.36
-10 -8 0 3.61 0.37
10 -8 0 4.67 0.44
-10 8 0 4.67 0.37
-10 8 0 3.81 0.28
10 8 0 3.73 0.42
10 8 0 3.41 0.26
10 8 0 4.4 0.45
-12 -8 0 5.18 0.5
12 -8 0 4.44 0.46
-12 -8 0 4.39 0.43
-12 -8 0 4.69 0.31
12 -8 0 4.65 0.37
12 8 0 3.83 0.47
12 8 0 4.42 0.47
12 8 0 4.23 0.29
-12 8 0 4.86 0.33
-12 8 0 4.41 0.41
14 -8 0 10.83 0.64
-14 -8 0 10.86 0.62
14 -8 0 10.88 0.57
-14 -8 0 11.04 0.66
-14 8 0 10.76 0.58
14 8 0 11.49 0.66
14 8 0 10.51 0.7
14 8 0 10.23 0.65
16 -8 0 0.82 0.26
16 -8 0 0.76 0.22
-16 -8 0 0.72 0.28
-16 -8 0 0.84 0.26
16 8 0 0.93 0.33
16 8 0 1.03 0.31
-16 8 0 1.07 0.26
18 -8 0 0.28 0.21
-18 -8 0 0.14 0.21
-18 -8 0 0.44 0.24
18 -8 0 0.57 0.25
-18 8 0 0.44 0.2
18 8 0 0.29 0.29
-20 -8 0 6.36 0.63
-20 -8 0 7.6 0.75
20 -8 0 7.18 0.69
20 8 0 6.33 0.79
-20 8 0 8.34 0.59
-22 -8 0 15.74 0.95
22 -8 0 14.2 0.89
-22 -8 0 14.07 0.86
22 8 0 14.04 1.09
-22 8 0 15.31 0.81
-24 -8 0 10.9 0.8
24 -8 0 10.41 0.81
-24 -8 0 9.83 0.94
24 8 0 11.3 1.17
-24 8 0 11.25 0.73
-26 -8 0 12.23 0.92
-26 -8 0 11.88 0.96
26 -8 0 11.78 0.94
26 8 0 11.7 1.24
-26 8 0 11.2 0.78
-28 -8 0 1.18 0.46
28 -8 0 1.3 0.51
-28 -8 0 1.74 0.59
28 8 0 2.52 0.75
-28 8 0 1.46 0.41
1 -9 0 0.07 0.14
1 -9 0 0.05 0.13
-1 -9 0 -0.12 0.11
-1 -9 0 0.02 0.14
-1 -9 0 -0.01 0.14
1 -9 0 0.23 0.15
1 9 0 0.03 0.11
1 9 0 -0.06 0.11
-1 9 0 -0.03 0.1
-1 9 0 0.01 0.13
3 -9 0 11.54 0.55
-3 -9 0 9.72 0.51
-3 -9 0 10.69 0.54
3 -9 0 10.22 0.55
-3 -9 0 9.71 0.55
3 -9 0 10.98 0.56
-3 9 0 10.99 0.45
3 9 0 10.16 0.51
3 9 0 10.25 0.55
-3 9 0 11.04 0.54
5 -9 0 12.45 0.6
-5 -9 0 12.57 0.56
-5 -9 0 12.26 0.6
5 -9 0 12.85 0.6
-5 -9 0 12.88 0.64
5 -9 0 13.23 0.62
5 9 0 12.63 0.63
5 9 0 13.31 0.62
-5 9 0 12.98 0.6
-5 9 0 13.31 0.5
-7 -9 0 5.33 0.42
7 -9 0 4.42 0.41
-7 -9 0 4.66 0.34
-7 -9 0 4.97 0.47
7 -9 0 4.98 0.4
7 -9 0 4.51 0.44
7 9 0 5.66 0.44
-7 9 0 5.63 0.31
7 9 0 4.76 0.42
-7 9 0 5.33 0.4
9 -9 0 9.59 0.53
-9 -9 0 10.08 0.47
9 -9 0 10.77 0.56
9 -9 0 9.76 0.57
-9 -9 0 10.12 0.59
-9 -9 0 9.89 0.57
-9 9 0 9.35 0.42
-9 9 0 9 0.52
9 9 0 10.15 0.6
9 9 0 8.18 0.57
11 -9 0 2.48 0.34
-11 -9 0 1.85 0.31
11 -9 0 2.17 0.36
-11 -9 0 1.91 0.33
11 9 0 2.01 0.32
11 9 0 2.25 0.36
-11 9 0 2.34 0.33
11 9 0 1.23 0.3
13 -9 0 7.62 0.5
13 -9 0 7.31 0.56
-13 -9 0 7.96 0.59
-13 -9 0 9.8 0.59
13 9 0 7.42 0.65
13 9 0 7.14 0.62
-13 9 0 8.42 0.54
15 -9 0 1.09 0.3
-15 -9 0 1.49 0.31
-15 -9 0 1.22 0.32
-15 9 0 1.22 0.27
15 9 0 1.22 0.32
15 9 0 0.66 0.3
17 -9 0 4.67 0.46
-17 -9 0 4.52 0.54
17 -9 0 4.84 0.57
-17 -9 0 5.26 0.6
-17 9 0 3.67 0.45
17 9 0 4.8 0.67
-19 -9 0 4.46 0.56
-19 -9 0 4.08 0.57
19 -9 0 4.32 0.57
-19 9 0 3.9 0.48
19 9 0 3.48 0.6
-21 -9 0 3.89 0.56
-21 -9 0 4.49 0.55
21 -9 0 4.57 0.59
21 9 0 3.25 0.63
-21 9 0 4.94 0.54
-23 -9 0 1.13 0.39
23 -9 0 0.5 0.37
-23 -9 0 0.47 0.36
23 9 0 0.96 0.5
-23 9 0 0.69 0.32
25 -9 0 0.86 0.43
-25 -9 0 1.49 0.43
-25 -9 0 2.84 0.58
-25 9 0 0.61 0.35
25 9 0 1.18 0.56
-27 -9 0 1.36 0.46
-27 -9 0 1.24 0.52
27 -9 0 1.14 0.49
-27 9 0 1.28 0.43
27 9 0 0.82 0.56
0 -10 0 45.87 1.39
0 -10 0 46.43 1.43
0 -10 0 47.82 1.4
0 10 0 46.29 1.32
0 10 0 44.85 1.42
2 -10 0 34.52 1.16
2 -10 0 34.92 1.13
-2 -10 0 35.42 1.14
2 -10 0 33.57 1.14
-2 -10 0 32.7 1.1
-2 -10 0 34.74 1.18
2 10 0 35.6 1.19
2 10 0 33.63 1.09
-2 10 0 35.26 1.17
-2 10 0 35.34 1.03
4 -10 0 16.19 0.7
-4 -10 0 16.39 0.69
4 -10 0 15.35 0.72
-4 -10 0 15.29 0.71
-4 -10 0 15.67 0.76
4 -10 0 14.51 0.71
4 10 0 16.91 0.72
-4 10 0 16.37 0.6
4 10 0 17.48 0.78
-4 10 0 15.95 0.72
-6 -10 0 1.98 0.32
6 -10 0 1.76 0.3
-6 -10 0 2.38 0.35
6 -10 0 1.38 0.28
6 -10 0 1.56 0.29
-6 -10 0 2.18 0.29
-6 10 0 1.69 0.22
6 10 0 2.04 0.33
-6 10 0 1.97 0.31
6 10 0 1.72 0.3
8 -10 0 3.9 0.41
-8 -10 0 3.37 0.4
-8 -10 0 3.83 0.44
8 -10 0 3.05 0.38
8 -10 0 3.76 0.43
8 10 0 3.44 0.43
-8 10 0 4.03 0.29
8 10 0 3.41 0.42
-8 10 0 2.92 0.37
10 -10 0 50.93 1.54
10 -10 0 55.01 1.65
-10 -10 0 52.67 1.67
-10 -10 0 50.25 1.58
10 -10 0 52.23 1.55
10 10 0 53.03 1.67
-10 10 0 49.59 1.55
10 10 0 51.14 1.69
12 -10 0 15.46 0.74
12 -10 0 17.18 0.84
-12 -10 0 16.35 0.8
-12 -10 0 16.38 0.85
12 10 0 15.49 0.87
12 10 0 15.41 0.84
-12 10 0 16.75 0.78
-14 -10 0 1.19 0.33
-14 -10 0 0.55 0.26
14 -10 0 1.3 0.3
14 -10 0 1.33 0.34
14 10 0 0.8 0.32
14 10 0 1.57 0.4
-14 10 0 1.18 0.29
-16 -10 0 4.28 0.53
16 -10 0 5.11 0.51
16 -10 0 4.2 0.54
-16 -10 0 4.69 0.57
16 10 0 5.31 0.69
-16 10 0 5.52 0.55
-18 -10 0 0.04 0.25
18 -10 0 0.35 0.3
-18 -10 0 0.4 0.29
18 10 0 0.1 0.33
-18 10 0 0.19 0.23
-20 -10 0 13.74 0.93
-20 -10 0 12.83 0.83
20 -10 0 11.84 0.88
-20 10 0 13.32 0.79
20 10 0 12.76 1.05
22 -10 0 18.82 1.11
-22 -10 0 20.06 1.1
-22 -10 0 20.01 1.17
22 10 0 19.94 1.35
-22 10 0 21.27 1.03
-24 -10 0 19.96 1.14
24 -10 0 21.15 1.23
-24 -10 0 21.16 1.24
-24 10 0 22.13 1.08
24 10 0 18.77 1.38
-26 -10 0 3.93 0.62
-26 -10 0 5.14 0.78
26 -10 0 5.36 0.77
26 10 0 3.81 0.84
-26 10 0 5.28 0.66
1 -11 0 0.21 0.19
-1 -11 0 0.03 0.17
-1 -11 0 0.11 0.18
1 -11 0 -0.13 0.18
1 -11 0 -0.19 0.15
-1 -11 0 -0.03 0.18
-1 11 0 0.18 0.18
1 11 0 -0.04 0.17
1 11 0 -0.02 0.14
-1 11 0 -0.05 0.14
3 -11 0 0.51 0.23
-3 -11 0 0.74 0.25
3 -11 0 0.8 0.25
-3 -11 0 0.57 0.22
-3 -11 0 0.44 0.22
3 -11 0 0.7 0.25
3 11 0 0.49 0.2
-3 11 0 0.64 0.18
-3 11 0 0.69 0.24
3 11 0 0.51 0.21
5 -11 0 0.49 0.24
5 -11 0 0.53 0.24
-5 -11 0 0.57 0.22
5 -11 0 0.5 0.22
-5 -11 0 0.45 0.23
-5 -11 0 0.44 0.23
-5 11 0 0.38 0.16
5 11 0 0.69 0.25
-5 11 0 0.55 0.24
5 11 0 0.73 0.24
-7 -11 0 7.4 0.54
7 -11 0 8.42 0.56
7 -11 0 7.76 0.58
7 -11 0 6.56 0.52
-7 -11 0 8.06 0.59
7 11 0 9.17 0.61
7 11 0 7.88 0.58
-7 11 0 8.18 0.56
-9 -11 0 0.47 0.24
9 -11 0 0.77 0.25
-9 -11 0 1.16 0.31
9 -11 0 0.63 0.26
9 -11 0 0.99 0.29
9 11 0 0.72 0.28
9 11 0 0.83 0.31
-9 11 0 1.12 0.28
11 -11 0 3.13 0.46
-11 -11 0 3.46 0.44
-11 -11 0 4.13 0.52
11 -11 0 3.29 0.43
11 -11 0 3.78 0.44
11 11 0 3.26 0.47
-11 11 0 3.27 0.42
11 11 0 4.75 0.58
-13 -11 0 3.71 0.48
-13 -11 0 3.96 0.53
13 -11 0 3.7 0.51
13 -11 0 3.47 0.45
13 -11 0 3.66 0.74
-13 11 0 3.92 0.47
13 11 0 3.6 0.54
13 11 0 3.58 0.53
15 -11 0 0.82 0.34
-15 -11 0 0.58 0.3
15 -11 0 0.52 0.27
-15 -11 0 0.76 0.34
15 11 0 0.02 0.3
-15 11 0 0.3 0.24
-17 -11 0 1.4 0.37
-17 -11 0 1.48 0.4
17 -11 0 2.59 0.5
17 11 0 1.06 0.42
-17 11 0 1.23 0.34
-19 -11 0 0.43 0.31
19 -11 0 1.34 0.42
-19 -11 0 1.03 0.41
19 11 0 0.72 0.43
-19 11 0 0.89 0.33
-21 -11 0 0 0.3
21 -11 0 0.14 0.38
-21 -11 0 0.85 0.41
-21 11 0 0.59 0.33
21 11 0 0.26 0.44
-23 -11 0 -0.5 0.31
-23 -11 0 -0.33 0.34
23 -11 0 0.1 0.39
-23 11 0 0.05 0.28
23 11 0 -0.17 0.4
-25 -11 0 -0.11 0.35
-25 -11 0 0.42 0.44
25 -11 0 0.52 0.46
-25 11 0 0.96 0.38
25 11 0 0.04 0.54
0 -12 0 40.24 1.32
0 -12 0 41.07 1.39
0 -12 0 38.06 1.32
0 12 0 37.51 1.24
0 12 0 40.45 1.42
2 -12 0 30.56 1.14
2 -12 0 31.04 1.18
-2 -12 0 31.17 1.18
-2 -12 0 31.76 1.15
-2 -12 0 30.92 1.2
2 -12 0 32.59 1.2
-2 12 0 33.57 1.07
2 12 0 30.48 1.11
-2 12 0 31.37 1.21
2 12 0 31.74 1.23
4 -12 0 1.17 0.31
-4 -12 0 1.94 0.36
4 -12 0 1.64 0.34
4 -12 0 1.01 0.28
-4 -12 0 1.76 0.34
-4 12 0 1.47 0.27
-4 12 0 1.41 0.33
4 12 0 1.17 0.28
4 12 0 1.2 0.32
6 -12 0 6.41 0.59
6 -12 0 6.02 0.55
-6 -12 0 7.03 0.54
6 -12 0 5.6 0.57
-6 -12 0 5.13 0.56
-6 12 0 5.99 0.6
6 12 0 6.43 0.64
6 12 0 6.37 0.55
8 -12 0 5.8 0.6
8 -12 0 5.46 0.58
-8 -12 0 6.15 0.63
8 -12 0 5.43 0.55
-8 -12 0 5.57 0.57
8 12 0 7.02 0.69
8 12 0 5.83 0.6
-8 12 0 5.64 0.58
10 -12 0 13.95 0.83
-10 -12 0 15.04 0.79
-10 -12 0 13.06 0.82
10 -12 0 15.14 0.8
10 12 0 15.32 0.9
-10 12 0 14.33 0.79
10 12 0 14.56 0.87
-12 -12 0 9.23 0.72
12 -12 0 11.58 0.79
-12 -12 0 10.79 0.72
12 -12 0 10.08 0.69
-12 12 0 11.99 0.74
12 12 0 10.65 0.82
12 12 0 10.2 0.78
14 -12 0 5.6 0.66
-14 -12 0 6.23 0.63
14 -12 0 5.61 0.58
-14 -12 0 5.31 0.67
14 12 0 5.78 0.71
-14 12 0 6.28 0.63
-16 -12 0 2.31 0.49
-16 -12 0 2.99 0.47
16 -12 0 2.34 0.51
-16 12 0 1.27 0.37
16 12 0 1.67 0.51
-18 -12 0 7.11 0.81
-18 -12 0 7.37 0.76
18 -12 0 6.04 0.74
18 12 0 6.68 0.88
-18 12 0 7.79 0.75
-20 -12 0 5.71 0.68
20 -12 0 6.95 0.81
-20 -12 0 6.09 0.8
-20 12 0 6.91 0.73
20 12 0 7.42 1
-22 -12 0 4.43 0.65
22 -12 0 3.91 0.69
-22 -12 0 4.1 0.7
22 12 0 3.81 0.78
-22 12 0 3.53 0.56
1 -13 0 1.91 0.4
1 -13 0 1.52 0.35
1 -13 0 1.24 0.32
-1 -13 0 1.65 0.35
-1 -13 0 0.91 0.33
-1 13 0 1.56 0.38
1 13 0 1.09 0.34
1 13 0 1.11 0.27
-1 13 0 0.96 0.25
3 -13 0 11.86 0.75
3 -13 0 11.41 0.75
3 -13 0 11.51 0.71
-3 -13 0 11.93 0.71
-3 -13 0 11.64 0.74
3 13 0 11.93 0.79
3 13 0 11.61 0.69
-3 13 0 12.72 0.78
5 -13 0 17.76 0.93
5 -13 0 19.96 0.95
-5 -13 0 18.18 0.95
-5 -13 0 18.69 0.89
5 13 0 17.73 0.96
-5 13 0 18.26 0.95
5 13 0 20.41 0.96
-7 -13 0 6.29 0.65
-7 -13 0 7.62 0.67
7 -13 0 5.51 0.62
7 -13 0 8.33 0.64
7 13 0 6.66 0.69
-7 13 0 6.68 0.67
7 13 0 7.33 0.64
9 -13 0 4.37 0.53
-9 -13 0 4.07 0.58
9 -13 0 3.41 0.52
-9 -13 0 4.19 0.51
-9 13 0 5.08 0.6
9 13 0 3.23 0.51
9 13 0 4.19 0.59
11 -13 0 -0.18 0.28
11 -13 0 0.36 0.33
-11 -13 0 -0.02 0.25
-11 -13 0 0.43 0.34
-11 13 0 0.21 0.26
11 13 0 0.29 0.32
11 13 0 -0.19 0.28
-13 -13 0 3.26 0.49
-13 -13 0 3.88 0.59
13 -13 0 2.82 0.44
13 -13 0 2.93 0.52
-13 13 0 2.6 0.44
13 13 0 3.26 0.58
15 -13 0 3.04 0.56
-15 -13 0 3.08 0.56
-15 -13 0 3.64 0.54
15 13 0 2.31 0.54
-15 13 0 2.82 0.51
-17 -13 0 19.69 1.09
-17 -13 0 16.05 1.09
17 -13 0 15.46 1.06
-17 13 0 17.23 0.99
17 13 0 16.14 1.21
19 -13 0 5.59 0.78
-19 -13 0 6.01 0.71
-19 -13 0 6.58 0.81
19 13 0 6.53 0.94
-19 13 0 5.06 0.67
21 -13 0 1.69 0.55
-21 -13 0 2.16 0.53
-21 -13 0 2.51 0.6
21 13 0 1.83 0.63
-21 13 0 2.31 0.53
0 -14 0 34.83 1.38
0 14 0 33.87 1.41
-2 -14 0 17.75 0.94
2 -14 0 16.56 0.93
-2 -14 0 15.63 0.86
-2 14 0 16.67 0.97
2 14 0 16.63 0.88
2 14 0 17.24 0.98
4 -14 0 1.48 0.43
-4 -14 0 1.41 0.35
-4 -14 0 1.47 0.41
4 -14 0 1.65 0.4
4 14 0 1.47 0.36
-4 14 0 1.73 0.4
4 14 0 1.37 0.4
6 -14 0 0.75 0.37
6 -14 0 0.16 0.28
-6 -14 0 0.91 0.36
-6 -14 0 0.34 0.28
-6 14 0 0.19 0.29
6 14 0 0.95 0.34
6 14 0 0.38 0.3
8 -14 0 0.69 0.33
-8 -14 0 1.09 0.34
8 -14 0 0.92 0.36
-8 -14 0 1.02 0.37
8 14 0 0.98 0.36
-8 14 0 1.5 0.38
8 14 0 0.81 0.35
10 -14 0 1.01 0.4
-10 -14 0 1.26 0.42
10 -14 0 1.56 0.42
-10 -14 0 0.94 0.33
10 14 0 1.45 0.44
-10 14 0 1.09 0.38
10 14 0 1.28 0.42
-12 -14 0 0.61 0.34
12 -14 0 0.46 0.38
12 -14 0 0.2 0.3
-12 -14 0 -0.09 0.33
12 14 0 0.83 0.42
-12 14 0 0.77 0.35
14 -14 0 2.18 0.51
14 14 0 1.03 0.46
16 -14 0 0 0.38
-16 -14 0 0.89 0.38
-16 -14 0 -0.01 0.37
16 14 0 -0.01 0.4
-16 14 0 0.24 0.33
-18 -14 0 -0.24 0.37
-18 -14 0 0.56 0.39
18 -14 0 0.19 0.43
18 14 0 -0.64 0.39
-18 14 0 -0.07 0.33
-1 -15 0 4.25 0.61
1 -15 0 5.68 0.68
1 15 0 4.15 0.61
-1 15 0 4.04 0.61
3 -15 0 25.13 1.2
-3 -15 0 25.91 1.24
3 15 0 26.29 1.28
-3 15 0 22.93 1.21
5 -15 0 13.21 0.9
-5 -15 0 14.81 0.94
5 15 0 14.89 0.99
5 15 0 16.44 0.96
-5 15 0 15.2 0.98
-7 -15 0 14.23 0.93
-7 -15 0 17.18 1.05
7 -15 0 16.14 0.97
7 15 0 17.18 1.05
-7 15 0 15.35 0.98
7 15 0 14.25 1.02
9 -15 0 7.99 0.81
9 -15 0 7.82 0.76
-9 -15 0 8.9 0.87
-9 -15 0 10.93 0.78
-9 15 0 8.27 0.81
9 15 0 9.02 0.9
9 15 0 7.69 0.85
11 -15 0 1.11 0.47
11 -15 0 1.16 0.41
-11 -15 0 1.28 0.41
-11 -15 0 1.06 0.43
11 15 0 0.74 0.42
-11 15 0 0.67 0.36
13 -15 0 4.42 0.69
-13 -15 0 3.94 0.68
-13 -15 0 2.9 0.54
-13 15 0 4.41 0.64
13 15 0 3.61 0.71
15 -15 0 8.98 0.95
-15 -15 0 7.8 0.88
-15 -15 0 8.1 0.8
15 15 0 9 1.02
-15 15 0 7.67 0.83
0 -16 0 0.8 0.38
0 16 0 0.62 0.4
-2 -16 0 0.23 0.36
2 -16 0 0.4 0.38
-2 16 0 0.1 0.33
2 16 0 0.22 0.35
-4 -16 0 0.16 0.33
4 -16 0 0.12 0.37
4 16 0 0.13 0.36
-4 16 0 0.02 0.35
6 -16 0 3.67 0.6
-6 -16 0 5.73 0.76
-6 16 0 4.23 0.67
6 16 0 4.09 0.68
-8 -16 0 1.01 0.44
8 -16 0 1.84 0.47
8 16 0 1.38 0.51
-8 16 0 0.71 0.43
8 16 0 1.66 0.78
10 -16 0 0.95 0.42
-10 -16 0 0.78 0.42
10 16 0 1.25 0.49
-10 16 0 0.73 0.4
12 -16 0 2.12 0.6
-12 -16 0 2.44 0.6
-12 16 0 1.97 0.54
12 16 0 2.78 0.67
1 -17 0 0.65 0.41
-1 -17 0 1.11 0.47
-1 17 0 0.8 0.45
1 17 0 2.06 0.55
3 -17 0 7.82 0.84
-3 -17 0 6.43 0.8
-3 17 0 6.34 0.8
3 17 0 7.07 0.89
5 -17 0 12.31 0.99
-5 -17 0 13.41 1.04
5 17 0 12.41 1.18
-5 17 0 11.25 1.04
32 0 -1 -0.39 0.31
-32 0 1 0.29 0.41
-30 0 1 -0.63 0.32
30 0 -1 0.14 0.28
28 0 -1 0.33 0.27
-28 0 1 0.29 0.32
26 0 -1 -0.35 0.29
-26 0 1 0.03 0.28
-26 0 1 0.03 0.28
26 0 -1 0.14 0.22
24 0 -1 0 0.26
-24 0 1 0.02 0.24
-24 0 1 0.31 0.27
24 0 -1 0.22 0.2
22 0 -1 0.04 0.23
22 0 -1 0.31 0.19
-22 0 1 0.05 0.22
-22 0 1 0 0.17
-22 0 1 -0.18 0.2
-20 0 1 0 0.14
-20 0 1 -0.07 0.17
-20 0 1 -0.08 0.17
20 0 -1 0.11 0.21
20 0 -1 0.03 0.15
-18 0 1 0.03 0.15
-18 0 1 -0.01 0.14
18 0 -1 0.01 0.12
18 0 -1 -0.16 0.15
-18 0 1 -0.13 0.11
-16 0 1 -0.04 0.12
-16 0 1 -0.02 0.13
-16 0 1 0.12 0.11
16 0 -1 0.24 0.17
16 0 -1 0.07 0.1
-14 0 1 -0.15 0.1
-14 0 1 0.08 0.09
14 0 -1 -0.04 0.08
-14 0 1 0.1 0.11
14 0 -1 0.03 0.11
-12 0 1 0.01 0.07
-12 0 1 0.05 0.1
12 0 -1 0.09 0.1
12 0 -1 0.01 0.07
-12 0 1 0.1 0.1
-10 0 1 0.08 0.09
10 0 -1 0.18 0.09
10 0 -1 -0.03 0.06
-10 0 1 0 0.07
-10 0 1 0.11 0.07
8 0 -1 0.05 0.06
8 0 -1 0.03 0.05
-8 0 1 -0.03 0.07
-8 0 1 0.03 0.05
-8 0 1 0.03 0.06
6 0 -1 -0.03 0.04
-6 0 1 -0.03 0.06
-6 0 1 0.03 0.05
-6 0 1 0.04 0.03
6 0 -1 0.09 0.05
-4 0 1 0.04 0.04
4 0 -1 0.06 0.03
4 0 -1 0.02 0.04
-4 0 1 0.06 0.02
4 0 -1 0.05 0.02
-4 0 1 0.03 0.05
-4 0 1 -0.04 0.04
2 0 -1 0.01 0.02
2 0 -1 0 0.03
-2 0 1 0.02 0.02
-2 0 1 0 0.03
-2 0 1 0.02 0.03
2 0 -1 0.05 0.02
2 0 -1 0.04 0.04
-2 0 1 -0.01 0.03
0 0 1 0.03 0.03
0 0 -1 0.01 0.03
0 0 1 0.04 0.04
0 0 -1 0.06 0.03
0 0 1 -0.01 0.02
0 0 1 0.03 0.02
0 0 -1 0.01 0.02
0 0 -1 0 0.02
-2 0 -1 0.04 0.03
2 0 1 0.03 0.02
2 0 1 0.05 0.03
-2 0 -1 0.05 0.03
2 0 1 0.02 0.04
-2 0 -1 -0.02 0.03
2 0 1 0.02 0.04
-2 0 -1 0.04 0.02
-2 0 -1 0 0.01
2 0 1 0.04 0.03
4 0 1 0.15 0.03
4 0 1 0.06 0.04
-4 0 -1 0.07 0.03
-4 0 -1 0.07 0.06
4 0 1 0.06 0.07
-4 0 -1 0.08 0.04
4 0 1 0.03 0.06
-6 0 -1 0.04 0.04
6 0 1 0.1 0.08
-6 0 -1 0.01 0.07
-6 0 -1 0.11 0.05
6 0 1 0.14 0.05
-8 0 -1 -0.02 0.07
8 0 1 0.03 0.09
8 0 1 0.08 0.06
-8 0 -1 0.09 0.05
-8 0 -1 0.16 0.07
-10 0 -1 0 0.09
10 0 1 0 0.1
-10 0 -1 0.04 0.06
-10 0 -1 0.07 0.07
10 0 1 0.09 0.07
-12 0 -1 0.01 0.08
12 0 1 0.02 0.07
-12 0 -1 0.05 0.1
12 0 1 0.08 0.13
-12 0 -1 0 0.07
-14 0 -1 -0.07 0.08
14 0 1 0 0.09
14 0 1 -0.12 0.14
-14 0 -1 0.23 0.13
-14 0 -1 -0.04 0.08
-16 0 -1 -0.04 0.12
16 0 1 -0.15 0.08
-16 0 -1 0 0.11
-16 0 -1 -0.03 0.1
16 0 1 0.08 0.16
-18 0 -1 -0.15 0.11
18 0 1 0.03 0.2
18 0 1 0 0.13
-18 0 -1 0.14 0.16
-18 0 -1 0.07 0.14
-20 0 -1 -0.12 0.17
-20 0 -1 0.09 0.15
20 0 1 0 0.15
20 0 1 -0.01 0.22
-20 0 -1 -0.07 0.14
-22 0 -1 0.08 0.19
-22 0 -1 0.14 0.21
-22 0 -1 0.13 0.2
22 0 1 -0.02 0.25
22 0 1 0.03 0.19
24 0 1 -0.15 0.19
-24 0 -1 0.04 0.23
24 0 1 -0.1 0.3
-24 0 -1 -0.03 0.21
26 0 1 0.09 0.25
-26 0 -1 -0.27 0.23
26 0 1 -0.13 0.34
-26 0 -1 -0.24 0.21
28 0 1 0.12 0.27
28 0 1 -0.15 0.4
-28 0 -1 -0.04 0.3
30 0 1 0.08 0.52
30 0 1 -0.12 0.3
-30 0 -1 -0.01 0.35
-32 0 -1 -0.07 0.41
-31 -1 1 1.9 0.55
31 -1 -1 2.64 0.5
-31 1 1 3.41 0.66
31 1 -1 2.05 0.45
-29 -1 1 3.25 0.59
29 -1 -1 4.47 0.59
-29 1 1 4.33 0.66
29 1 -1 4.34 0.74
29 1 -1 4.2 0.54
27 -1 -1 7.66 0.67
-27 -1 1 9.52 0.79
-27 -1 1 7.35 0.81
27 1 -1 9.05 0.64
-27 1 1 7.15 0.77
27 1 -1 9.43 0.96
25 -1 -1 15.28 0.79
25 -1 -1 14.88 0.97
-25 -1 1 14.36 0.89
-25 -1 1 13.57 0.88
-25 1 1 14.37 0.89
25 1 -1 14.63 0.97
25 1 -1 15.84 0.77
-25 1 1 15.69 0.89
23 -1 -1 35.22 1.22
23 -1 -1 36.1 1.43
-23 -1 1 35.74 1.38
-23 -1 1 35.31 1.35
-23 1 1 35.63 1.36
23 1 -1 37.39 1.48
-23 1 1 33.26 1.32
23 1 -1 36.45 1.2
-23 1 1 37.49 1.15
-21 -1 1 24.46 1.04
-21 -1 1 24.38 0.83
21 -1 -1 23.07 1.06
-21 -1 1 22.96 1
21 -1 -1 23.46 0.9
21 1 -1 23.62 1.09
21 1 -1 23.11 0.87
-21 1 1 23.19 1.01
-21 1 1 23.27 1
-21 1 1 24.7 0.84
-19 -1 1 2.18 0.27
-19 -1 1 1.81 0.31
19 -1 -1 1.78 0.34
-19 -1 1 1.9 0.33
19 -1 -1 1.65 0.25
-19 1 1 1.84 0.34
19 1 -1 1.76 0.34
-19 1 1 1.24 0.27
-19 1 1 2.04 0.26
19 1 -1 1.86 0.27
-17 -1 1 14.3 0.53
17 -1 -1 13.31 0.67
17 -1 -1 13.71 0.58
-17 -1 1 13.01 0.65
-17 -1 1 13.83 0.68
-17 1 1 13.87 0.54
-17 1 1 12.45 0.65
17 1 -1 13.59 0.69
17 1 -1 13.59 0.56
-17 1 1 12.48 0.64
15 -1 -1 35.01 1.1
-15 -1 1 33.36 0.92
15 -1 -1 33.09 0.99
-15 -1 1 31.85 1.08
-15 -1 1 31.6 1.06
-15 1 1 34.11 0.94
-15 1 1 32.56 1.09
15 1 -1 33.17 1.11
15 1 -1 31.77 0.96
-15 1 1 33.78 1.08
-13 -1 1 29.11 0.96
-13 -1 1 29.33 0.8
13 -1 -1 28.8 0.92
13 -1 -1 28.29 0.85
-13 -1 1 29.23 0.93
-13 1 1 29.22 0.95
13 1 -1 27.85 0.84
-13 1 1 29.26 0.94
-13 1 1 28.7 0.81
13 1 -1 29.25 0.94
-11 -1 1 26.28 0.83
11 -1 -1 25.31 0.76
11 -1 -1 26.41 0.8
-11 -1 1 27.33 0.71
-11 -1 1 24.99 0.84
-11 1 1 26.07 0.83
-11 1 1 27.03 0.73
-11 1 1 26.19 0.85
11 1 -1 27.97 0.84
11 1 -1 25.13 0.75
-9 -1 1 3.78 0.26
9 -1 -1 4.42 0.24
-9 -1 1 3.72 0.18
9 -1 -1 3.99 0.22
-9 -1 1 3.95 0.25
9 1 -1 4.53 0.23
-9 1 1 4.04 0.27
-9 1 1 3.93 0.26
-9 1 1 3.92 0.2
9 1 -1 4.57 0.25
-7 -1 1 1.29 0.09
7 -1 -1 1.14 0.12
-7 -1 1 1.3 0.17
-7 -1 1 1.26 0.15
-7 -1 1 1.12 0.11
7 -1 -1 1.12 0.12
-7 1 1 1.23 0.15
7 1 -1 1.2 0.13
-7 1 1 0.98 0.14
7 1 -1 1.29 0.14
7 1 -1 1.38 0.1
-7 1 1 1.08 0.11
-5 -1 1 0.73 0.11
-5 -1 1 0.72 0.1
5 -1 -1 0.78 0.1
-5 -1 1 0.72 0.11
5 -1 -1 0.93 0.08
-5 1 1 0.9 0.07
-5 1 1 0.55 0.1
-5 1 1 0.75 0.08
5 1 -1 0.77 0.1
5 1 -1 0.79 0.1
3 -1 -1 123.76 2.66
3 -1 -1 127.14 2.72
-3 -1 1 124.37 2.73
-3 -1 1 125.15 2.77
-3 -1 1 125.43 2.77
-3 1 1 123.59 2.68
3 1 -1 126.61 2.74
3 1 -1 123.28 2.75
-3 1 1 127.11 2.79
-3 1 1 131.52 2.71
1 -1 -1 295.45 5.93
-1 -1 1 278.43 5.87
1 -1 -1 271.02 5.88
-1 -1 1 267.75 5.88
1 -1 -1 283.46 5.9
-1 -1 1 276.39 5.94
-1 -1 1 280.55 5.92
1 -1 -1 268.63 5.93
1 1 -1 280.95 5.87
1 1 -1 274.48 5.95
-1 1 1 281.26 5.95
1 1 -1 277.94 5.88
-1 1 1 276.82 5.92
-1 1 1 276.03 5.9
-1 1 1 296.61 5.92
1 -1 1 128.54 2.87
1 -1 1 129.13 2.81
-1 -1 -1 131.16 2.8
1 -1 1 129.18 2.74
-1 -1 -1 129.95 2.73
-1 -1 -1 126.52 2.77
1 1 1 126.18 2.83
1 1 1 127.37 2.73
-1 1 -1 131.42 2.73
-1 1 -1 126.57 2.79
1 1 1 128.76 2.83
-3 -1 -1 51.54 1.2
-3 -1 -1 50.84 1.15
3 -1 1 50.9 1.2
-3 -1 -1 51.8 1.11
3 -1 1 49.51 1.13
3 -1 1 50.08 1.28
3 1 1 52.56 1.12
3 1 1 51.79 1.26
3 1 1 51.33 1.26
-3 1 -1 51.66 1.12
-3 1 -1 51.32 1.23
-5 -1 -1 28.41 0.7
5 -1 1 29.25 0.75
-5 -1 -1 28.24 0.75
5 -1 1 28.51 0.85
-5 -1 -1 28.75 0.81
-5 1 -1 28.85 0.7
5 1 1 28.04 0.84
-5 1 -1 28.71 0.79
5 1 1 29.74 0.68
-5 1 -1 28.92 0.65
5 1 1 29.82 0.84
-7 -1 -1 21.56 0.63
7 -1 1 23.34 0.57
7 -1 1 21.19 0.62
-7 -1 -1 21.47 0.58
7 -1 1 22 0.74
-7 -1 -1 22 0.69
-7 1 -1 22.51 0.68
7 1 1 22.48 0.73
7 1 1 20.98 0.56
7 1 1 21.64 0.74
-7 1 -1 21.73 0.59
-7 1 -1 21.66 0.55
-9 -1 -1 114.98 2.64
-9 -1 -1 118.92 2.6
9 -1 1 115.79 2.81
-9 -1 -1 114.36 2.72
9 -1 1 114.39 2.62
9 1 1 119.76 2.83
-9 1 -1 114.74 2.71
9 1 1 112.77 2.56
-9 1 -1 113 2.6
-9 1 -1 114.82 2.56
9 1 1 117.75 2.78
11 -1 1 94.28 2.43
11 -1 1 92.93 2.21
-11 -1 -1 93.94 2.24
-11 -1 -1 96.85 2.33
-11 -1 -1 92.69 2.19
-11 1 -1 92.07 2.3
-11 1 -1 94.3 2.22
11 1 1 94.32 2.16
11 1 1 94.14 2.44
-11 1 -1 95.78 2.17
-13 -1 -1 39.77 1.15
13 -1 1 39.8 1.13
-13 -1 -1 40.23 1.11
13 -1 1 41.31 1.34
-13 -1 -1 42.1 1.23
-13 1 -1 41.68 1.1
13 1 1 40.82 1.35
-13 1 -1 39.05 1.19
-13 1 -1 43.51 1.16
13 1 1 41.69 1.09
15 -1 1 0.49 0.2
-15 -1 -1 0.43 0.18
-15 -1 -1 0.24 0.13
15 -1 1 0.13 0.12
-15 -1 -1 0.15 0.13
15 1 1 0.02 0.14
-15 1 -1 0.11 0.11
15 1 1 0.37 0.12
-15 1 -1 0.13 0.14
-15 1 -1 0.31 0.13
-17 -1 -1 10.64 0.54
17 -1 1 9.48 0.66
-17 -1 -1 10.01 0.56
-17 -1 -1 9.38 0.49
17 -1 1 9.22 0.49
-17 1 -1 9.29 0.53
17 1 1 9.99 0.47
-17 1 -1 10.12 0.48
-17 1 -1 9.2 0.5
17 1 1 10.38 0.68
19 -1 1 34.42 1.38
-19 -1 -1 34.17 1.15
-19 -1 -1 33.04 1.16
19 -1 1 32.96 1.1
-19 -1 -1 33.44 1.1
19 1 1 33.6 1.39
-19 1 -1 32.52 1.14
-19 1 -1 34.3 1.08
19 1 1 34.11 1.06
-19 1 -1 33.31 1.14
21 -1 1 11.94 0.64
21 -1 1 12.87 0.88
-21 -1 -1 12.12 0.63
-21 -1 -1 11.63 0.66
-21 -1 -1 11.84 0.67
-21 1 -1 11.43 0.65
-21 1 -1 11.96 0.63
21 1 1 12.82 0.88
-21 1 -1 13.19 0.7
21 1 1 11.88 0.6
23 -1 1 17.41 0.82
23 -1 1 15.42 1.02
-23 -1 -1 16.5 0.83
-23 -1 -1 18.45 0.88
-23 1 -1 17.18 0.85
-23 1 -1 16.86 0.81
23 1 1 18.1 1.11
23 1 1 16.34 0.77
25 -1 1 29.14 1.48
-25 -1 -1 28.99 1.17
25 -1 1 29.59 1.17
-25 -1 -1 29.27 1.21
-25 1 -1 28.05 1.2
25 1 1 29.21 1.5
25 1 1 29.06 1.11
-25 1 -1 29.74 1.17
27 -1 1 1.08 0.37
-27 -1 -1 0.32 0.29
27 -1 1 0.7 0.49
27 1 1 1.04 0.49
-27 1 -1 1.37 0.38
27 1 1 1.15 0.33
-27 1 -1 1.06 0.34
29 -1 1 0.89 0.56
29 -1 1 0.96 0.4
-29 -1 -1 0.6 0.37
29 1 1 1.32 0.57
29 1 1 1.04 0.35
-29 1 -1 1 0.44
31 -1 1 5.96 0.73
-31 -1 -1 6.03 0.78
-31 1 -1 6.25 0.78
31 1 1 4.29 0.84
-32 -2 1 0.12 0.41
32 -2 -1 1.32 0.46
30 -2 -1 8.5 0.81
-30 -2 1 8.35 0.92
30 2 -1 10.42 0.73
30 2 -1 6.8 0.97
28 -2 -1 0.94 0.35
-28 -2 1 0.5 0.37
-28 -2 1 0.43 0.35
28 2 -1 1.14 0.47
28 2 -1 1.37 0.33
-26 -2 1 2.39 0.47
-26 -2 1 2.07 0.46
26 -2 -1 2.7 0.43
-26 2 1 1.3 0.4
26 2 -1 2.49 0.54
26 2 -1 2.79 0.42
-24 -2 1 3.6 0.51
24 -2 -1 3.76 0.45
-24 -2 1 3.7 0.53
24 -2 -1 3.2 0.8
-24 2 1 4.32 0.42
-24 2 1 3.49 0.52
24 2 -1 3.67 0.43
-24 2 1 3.33 0.49
24 2 -1 2.96 0.53
-22 -2 1 1.38 0.33
22 -2 -1 1.98 0.4
22 -2 -1 1.28 0.28
-22 -2 1 1.13 0.32
-22 2 1 1.09 0.31
-22 2 1 1.48 0.27
-22 2 1 1.53 0.35
22 2 -1 1.86 0.29
22 2 -1 1.31 0.35
-20 -2 1 7.25 0.55
20 -2 -1 6.85 0.57
-20 -2 1 7.66 0.56
-20 -2 1 7.4 0.42
20 -2 -1 7.38 0.49
20 2 -1 7.13 0.6
-20 2 1 7.65 0.56
20 2 -1 7.9 0.47
-20 2 1 7.16 0.55
-20 2 1 7.78 0.44
18 -2 -1 32.52 1.07
18 -2 -1 32.52 1.17
-18 -2 1 33.05 1.16
-18 -2 1 34.22 0.99
-18 -2 1 33.53 1.19
-18 2 1 33.49 1.02
-18 2 1 33.4 1.17
-18 2 1 32.63 1.16
18 2 -1 35.7 1.05
18 2 -1 35.99 1.27
-16 -2 1 9.77 0.55
-16 -2 1 9.77 0.43
16 -2 -1 9.29 0.53
-16 -2 1 9.45 0.53
16 -2 -1 9.86 0.48
-16 2 1 9.96 0.55
-16 2 1 10.52 0.56
16 2 -1 9.88 0.57
-16 2 1 10.54 0.45
16 2 -1 9.36 0.44
-14 -2 1 2.02 0.26
-14 -2 1 2.31 0.3
14 -2 -1 1.94 0.23
-14 -2 1 2.12 0.21
14 -2 -1 1.86 0.25
-14 2 1 1.74 0.26
14 2 -1 2.02 0.28
-14 2 1 1.93 0.21
14 2 -1 2.01 0.22
-14 2 1 2.28 0.28
12 -2 -1 0.21 0.1
-12 -2 1 0.51 0.16
12 -2 -1 0.27 0.11
-12 -2 1 0.45 0.11
-12 -2 1 0.48 0.14
12 2 -1 0.24 0.13
-12 2 1 0.53 0.12
-12 2 1 0.48 0.15
-12 2 1 0.33 0.14
12 2 -1 0.23 0.1
-10 -2 1 1.18 0.13
10 -2 -1 1.5 0.17
10 -2 -1 1.8 0.2
-10 -2 1 1.59 0.2
-10 -2 1 1.34 0.2
-10 2 1 1.31 0.2
10 2 -1 1.54 0.2
-10 2 1 1.31 0.16
10 2 -1 1.34 0.16
8 -2 -1 15.24 0.47
-8 -2 1 15.27 0.52
8 -2 -1 16.06 0.5
-8 -2 1 16.08 0.52
-8 -2 1 16.08 0.57
-8 -2 1 15.71 0.44
8 2 -1 15.61 0.53
-8 2 1 16.5 0.48
8 2 -1 15.86 0.46
-8 2 1 15.43 0.57
8 2 -1 16.86 0.51
-6 -2 1 4.01 0.21
-6 -2 1 3.67 0.21
-6 -2 1 3.64 0.23
6 -2 -1 3.74 0.16
-6 -2 1 3.61 0.14
6 -2 -1 3.54 0.19
-6 2 1 3.57 0.18
6 2 -1 3.38 0.2
6 2 -1 3.87 0.16
-6 2 1 3.76 0.23
6 2 -1 3.76 0.2
-6 2 1 3.91 0.13
4 -2 -1 194.47 4.16
-4 -2 1 195.29 4.22
-4 -2 1 194.06 4.23
-4 -2 1 190.28 4.17
-4 -2 1 193.85 4.08
4 -2 -1 196.19 4.23
4 2 -1 191.4 4.19
-4 2 1 194.03 4.17
4 2 -1 194.76 4.1
-4 2 1 192.06 4.25
-2 -2 1 2.8 0.12
2 -2 -1 2.64 0.12
2 -2 -1 2.72 0.16
-2 -2 1 2.87 0.12
-2 -2 1 2.78 0.16
-2 -2 1 3.05 0.18
-2 2 1 2.92 0.15
2 2 -1 2.72 0.16
-2 2 1 3.06 0.18
2 2 -1 2.75 0.11
0 -2 -1 130.65 2.9
0 -2 -1 132.33 2.82
0 -2 -1 133.25 2.93
0 -2 1 131.81 2.81
0 -2 -1 139.35 2.9
0 -2 1 132.74 2.93
0 -2 1 131.33 2.87
0 2 -1 129.92 2.81
0 2 1 129.51 2.92
0 2 -1 133.53 2.95
0 2 1 135.4 2.89
0 2 1 131.73 2.82
0 2 -1 136.11 2.87
2 -2 1 2.06 0.11
2 -2 1 2.41 0.19
2 -2 1 1.87 0.15
-2 -2 -1 2 0.15
-2 -2 -1 2.26 0.14
2 2 1 2.04 0.16
-2 2 -1 2.3 0.14
-2 2 -1 2.23 0.17
-2 2 -1 2.1 0.11
2 2 1 2.13 0.16
-4 -2 -1 98.52 2.21
4 -2 1 98.87 2.35
4 -2 1 96.65 2.25
-4 -2 -1 101.45 2.26
4 -2 1 95.13 2.15
4 -2 1 107.76 2.17
4 -2 1 97.58 2.14
4 2 1 100.37 2.32
-4 2 -1 99.39 2.26
-4 2 -1 100.63 2.15
4 2 1 101.5 2.32
-4 2 -1 97.1 2.14
6 -2 1 54.74 1.46
6 -2 1 55.85 1.24
6 -2 1 54.7 1.35
6 -2 1 58.31 1.27
-6 -2 -1 54.49 1.36
-6 -2 -1 55.73 1.31
-6 2 -1 54.83 1.38
-6 2 -1 54.8 1.25
-6 2 -1 55.89 1.28
6 2 1 53.44 1.43
6 2 1 57.54 1.47
6 2 1 55.19 1.23
-8 -2 -1 30.1 0.89
8 -2 1 27.54 0.71
8 -2 1 29.55 0.94
-8 -2 -1 29.16 0.79
8 -2 1 28.64 0.82
-8 -2 -1 29.12 0.83
8 2 1 28.69 0.71
-8 2 -1 29.94 0.86
-8 2 -1 28.71 0.73
8 2 1 28.89 0.94
-8 2 -1 28.91 0.77
8 2 1 29.55 0.92
-10 -2 -1 48.05 1.27
10 -2 1 48.24 1.41
-10 -2 -1 47.97 1.34
-10 -2 -1 48.79 1.23
10 -2 1 47.85 1.27
10 2 1 49.79 1.44
10 2 1 49.56 1.39
10 2 1 47.23 1.15
-10 2 -1 47.42 1.17
-10 2 -1 47.04 1.3
-10 2 -1 49.93 1.23
-12 -2 -1 10.77 0.48
-12 -2 -1 12.37 0.55
-12 -2 -1 10.69 0.45
12 -2 1 11.82 0.61
12 -2 1 11.43 0.48
12 2 1 11 0.56
-12 2 -1 11.24 0.51
-12 2 -1 11.24 0.42
-12 2 -1 11.28 0.46
12 2 1 12.14 0.63
12 2 1 11.94 0.41
-14 -2 -1 32.74 1.07
14 -2 1 30.9 0.99
-14 -2 -1 32.5 1.01
14 -2 1 33.24 1.18
-14 -2 -1 32.47 0.99
-14 2 -1 31.53 0.98
14 2 1 33.33 1.22
-14 2 -1 33.22 0.93
14 2 1 33.65 0.92
-14 2 -1 33.02 1.05
-16 -2 -1 6.82 0.43
16 -2 1 6.73 0.55
-16 -2 -1 6.43 0.4
-16 -2 -1 5.87 0.44
16 -2 1 7.31 0.43
-16 2 -1 7.22 0.38
-16 2 -1 6.32 0.43
16 2 1 7.45 0.58
16 2 1 6.69 0.35
-16 2 -1 7.1 0.42
18 -2 1 3.94 0.39
-18 -2 -1 3.39 0.38
-18 -2 -1 3.35 0.38
-18 -2 -1 4.18 0.45
18 -2 1 3.11 0.46
-18 2 -1 3.83 0.4
-18 2 -1 4.42 0.38
18 2 1 3.92 0.54
-18 2 -1 3.67 0.38
18 2 1 4.14 0.36
-20 -2 -1 7.79 0.51
-20 -2 -1 8.73 0.55
20 -2 1 9.8 0.74
20 -2 1 8.62 0.54
-20 -2 -1 8.23 0.57
20 2 1 8.11 0.48
-20 2 -1 8.83 0.56
-20 2 -1 9.23 0.57
-20 2 -1 9.09 0.5
20 2 1 7.42 0.76
-22 -2 -1 1.95 0.35
22 -2 1 1.96 0.46
-22 -2 -1 2.14 0.35
-22 -2 -1 2.31 0.37
22 -2 1 2.01 0.35
22 2 1 2.06 0.31
-22 2 -1 1.94 0.35
22 2 1 2.45 0.5
-22 2 -1 1.73 0.34
24 -2 1 1.24 0.43
-24 -2 -1 1.38 0.34
24 -2 1 1.45 0.33
-24 -2 -1 1.4 0.33
-24 2 -1 1.84 0.37
24 2 1 1.96 0.35
-24 2 -1 1.55 0.35
24 2 1 1.17 0.42
26 -2 1 24.17 1.36
26 -2 1 23.15 1.07
-26 -2 -1 21.48 1.07
26 2 1 23.41 0.98
26 2 1 21.6 1.35
-26 2 -1 22.51 1.08
-26 2 -1 22.4 1.01
-28 -2 -1 6.55 0.74
28 -2 1 7.07 0.71
-28 2 -1 7.33 0.76
28 2 1 7.43 0.99
-28 2 -1 6.79 0.67
-30 -2 -1 2.14 0.54
30 -2 1 1.61 0.44
30 2 1 1.65 0.62
-30 2 -1 2.45 0.56
-32 -2 -1 0.52 0.42
32 -2 1 -0.09 0.38
32 2 1 -0.61 0.51
-32 2 -1 0.33 0.42
31 -3 -1 3.49 0.57
-31 -3 1 3.8 0.68
31 3 -1 3.63 0.81
-29 -3 1 2.96 0.58
29 -3 -1 3.6 0.55
-29 -3 1 4.1 0.87
29 3 -1 3.82 0.49
29 3 -1 3.45 0.71
27 -3 -1 2.39 0.46
-27 -3 1 1.56 0.46
-27 -3 1 1.7 0.44
27 3 -1 1.13 0.48
27 3 -1 1.83 0.36
25 -3 -1 3.2 0.45
-25 -3 1 3.5 0.53
-25 -3 1 3.22 0.55
25 3 -1 4.21 0.65
-25 3 1 4.08 0.43
-25 3 1 3.96 0.75
25 3 -1 4.1 0.45
23 -3 -1 7.52 0.55
-23 -3 1 6.22 0.64
-23 -3 1 8.27 0.76
-23 3 1 7.11 0.66
23 3 -1 6.83 0.48
-23 3 1 6.16 0.48
23 3 -1 7.39 0.78
-21 -3 1 7.72 0.59
21 -3 -1 8.24 0.54
21 -3 -1 8.54 0.63
-21 -3 1 6.95 0.66
-21 3 1 8.08 0.49
21 3 -1 7.84 0.67
-21 3 1 6.78 0.56
21 3 -1 7.6 0.48
-19 -3 1 0.25 0.19
-19 -3 1 -0.25 0.13
-19 -3 1 0.16 0.18
19 -3 -1 0.03 0.15
19 -3 -1 -0.07 0.18
19 3 -1 -0.09 0.18
-19 3 1 0 0.13
19 3 -1 0.03 0.14
-19 3 1 0.21 0.19
-17 -3 1 2.24 0.35
17 -3 -1 2.19 0.28
-17 -3 1 2.72 0.35
-17 -3 1 2.6 0.27
17 -3 -1 2.91 0.37
17 3 -1 3 0.3
17 3 -1 2.42 0.38
-17 3 1 2.82 0.3
-17 3 1 3.13 0.38
-15 -3 1 2.19 0.3
15 -3 -1 3 0.31
-15 -3 1 3 0.26
15 -3 -1 3.09 0.33
-15 -3 1 3.22 0.37
-15 3 1 2.72 0.34
15 3 -1 2.87 0.36
15 3 -1 3 0.27
-15 3 1 2.51 0.26
-13 -3 1 43.56 1.13
-13 -3 1 43.24 1.25
13 -3 -1 42.21 1.2
13 -3 -1 41.78 1.21
-13 -3 1 42.36 1.29
13 3 -1 41.4 1.28
-13 3 1 43.81 1.29
-13 3 1 44.53 1.17
13 3 -1 44.9 1.17
-11 -3 1 52.6 1.31
-11 -3 1 52.69 1.43
11 -3 -1 54.63 1.39
11 -3 -1 53.77 1.37
-11 -3 1 54.32 1.49
11 3 -1 52.78 1.35
-11 3 1 56.09 1.48
11 3 -1 53.16 1.45
11 3 -1 53.47 1.35
-11 3 1 54.01 1.36
9 -3 -1 8.47 0.35
-9 -3 1 7.58 0.31
9 -3 -1 6.94 0.31
-9 -3 1 8.24 0.37
-9 -3 1 8.44 0.37
9 -3 -1 7.11 0.37
-9 -3 1 8 0.41
-9 3 1 7.84 0.34
9 3 -1 8.1 0.34
9 3 -1 8.11 0.32
9 3 -1 8.23 0.38
-9 3 1 7.96 0.4
7 -3 -1 11.95 0.41
-7 -3 1 11.25 0.46
-7 -3 1 11.11 0.43
7 -3 -1 12.34 0.46
-7 -3 1 10.97 0.42
-7 3 1 11.4 0.47
7 3 -1 11.51 0.41
-7 3 1 11.27 0.4
7 3 -1 12.13 0.38
7 3 -1 11.83 0.44
5 -3 -1 3.47 0.22
-5 -3 1 3.31 0.22
5 -3 -1 3.33 0.18
-5 -3 1 3.21 0.21
-5 -3 1 3.51 0.19
-5 3 1 3.03 0.18
5 3 -1 3.27 0.15
5 3 -1 3.26 0.2
-5 3 1 3.72 0.24
3 -3 -1 16.66 0.54
3 -3 -1 17.85 0.48
-3 -3 1 17.85 0.49
-3 -3 1 16.6 0.53
-3 -3 1 17.18 0.54
-3 3 1 17.41 0.52
-3 3 1 17.48 0.56
3 3 -1 18.21 0.46
3 3 -1 18.12 0.53
-1 -3 1 2.5 0.18
-1 -3 1 2.56 0.13
1 -3 -1 2.39 0.16
1 -3 -1 2.61 0.12
-1 -3 1 2.34 0.15
1 -3 -1 2.61 0.18
-1 3 1 2.51 0.13
-1 3 1 2.82 0.18
1 3 -1 2.62 0.13
1 3 -1 2.76 0.18
-1 -3 -1 46.18 1
-1 -3 -1 44.03 1.11
1 -3 1 45.05 1.14
1 -3 1 44.31 1.07
1 -3 1 45.02 1.01
-1 -3 -1 45.34 1.14
1 3 1 46.94 1.11
-1 3 -1 45.28 1.01
1 3 1 45.29 0.99
1 3 1 45.21 1.14
-1 3 -1 45.02 1.08
-1 3 -1 44.93 1.15
3 -3 1 18.52 0.63
3 -3 1 18.81 0.51
-3 -3 -1 19.28 0.56
-3 -3 -1 19.71 0.6
3 -3 1 19.57 0.59
-3 3 -1 19.02 0.56
3 3 1 19.91 0.62
3 3 1 18.6 0.6
-3 3 -1 19.33 0.61
-5 -3 -1 8.43 0.33
-5 -3 -1 8.43 0.36
5 -3 1 8.32 0.27
5 -3 1 8.32 0.4
5 -3 1 7.97 0.34
5 3 1 8.94 0.4
5 3 1 7.83 0.38
-5 3 -1 7.45 0.33
7 -3 1 108.04 2.52
-7 -3 -1 112.43 2.54
7 -3 1 104.54 2.62
7 -3 1 109.62 2.39
-7 -3 -1 108.51 2.48
-7 3 -1 107.68 2.53
7 3 1 105.54 2.33
7 3 1 112.51 2.64
7 3 1 108.46 2.6
9 -3 1 122.77 2.91
-9 -3 -1 129.62 3
9 -3 1 127.66 3.06
-9 -3 -1 129.28 2.93
9 -3 1 125.82 2.78
-9 -3 -1 123.53 2.88
-9 3 -1 123.98 2.79
9 3 1 131.21 3.05
-9 3 -1 126.7 2.85
9 3 1 126.53 3.08
-9 3 -1 122.19 2.93
9 3 1 126.05 2.75
-11 -3 -1 31.32 0.99
11 -3 1 29.46 0.91
11 -3 1 29.71 1.04
11 -3 1 28.53 0.79
-11 -3 -1 28.72 0.91
-11 -3 -1 30.17 0.89
-11 3 -1 28.46 0.8
-11 3 -1 28.19 0.92
-11 3 -1 29.56 0.86
11 3 1 30.74 1.07
11 3 1 31.86 1.03
11 3 1 30.73 0.77
13 -3 1 22.22 0.8
-13 -3 -1 25.6 0.83
-13 -3 -1 24.3 0.87
13 -3 1 23.31 0.69
13 -3 1 23.07 0.93
-13 -3 -1 23.63 0.78
13 3 1 23.48 0.91
-13 3 -1 23.14 0.76
-13 3 -1 23.11 0.71
-13 3 -1 23.77 0.83
13 3 1 23.1 0.67
13 3 1 23.69 0.97
15 -3 1 10.12 0.62
15 -3 1 10.46 0.43
15 -3 1 9.95 0.51
-15 -3 -1 9.56 0.49
-15 -3 -1 9.02 0.49
-15 -3 -1 9.91 0.55
-15 3 -1 10.23 0.49
15 3 1 10.37 0.66
15 3 1 9.83 0.4
-15 3 -1 10.91 0.54
15 3 1 8.58 0.56
-15 3 -1 10.31 0.44
-17 -3 -1 2.36 0.36
17 -3 1 1.76 0.35
-17 -3 -1 1.48 0.27
17 -3 1 2 0.3
-17 -3 -1 2.09 0.3
-17 3 -1 2.13 0.29
-17 3 -1 1.91 0.3
17 3 1 1.72 0.21
-17 3 -1 1.9 0.25
17 3 1 1.97 0.4
-19 -3 -1 3.56 0.41
-19 -3 -1 3.96 0.46
-19 -3 -1 3.86 0.43
19 -3 1 3.59 0.41
19 -3 1 2.91 0.47
19 3 1 3.74 0.55
-19 3 -1 2.56 0.34
-19 3 -1 3.28 0.34
-19 3 -1 4.31 0.46
19 3 1 3.02 0.31
-21 -3 -1 14.21 0.76
21 -3 1 12.72 0.71
21 -3 1 13.47 0.88
-21 -3 -1 13.66 0.73
-21 -3 -1 13.79 0.72
21 3 1 13.54 0.61
-21 3 -1 14.33 0.74
21 3 1 14.1 0.95
-21 3 -1 13.09 0.7
23 -3 1 2.79 0.55
-23 -3 -1 3.05 0.44
-23 -3 -1 3.63 0.46
23 -3 1 2.55 0.42
-23 -3 -1 2.21 0.4
23 3 1 3.27 0.61
23 3 1 3.1 0.36
-23 3 -1 3.54 0.46
-23 3 -1 3.12 0.44
25 -3 1 -0.16 0.35
25 -3 1 0.14 0.25
-25 -3 -1 0.37 0.27
25 3 1 0.08 0.35
-25 3 -1 0.43 0.27
-25 3 -1 -0.08 0.24
25 3 1 0.18 0.26
-27 -3 -1 0.24 0.29
27 -3 1 0.59 0.33
-27 3 -1 0.48 0.31
-27 3 -1 0.13 0.28
27 3 1 0.36 0.42
-29 -3 -1 0.86 0.39
29 -3 1 1.2 0.43
29 3 1 1.34 0.59
-29 3 -1 1.09 0.4
-29 3 -1 0.74 0.4
31 -3 1 0.91 0.47
-31 -3 -1 1.02 0.42
31 3 1 1.68 0.63
30 -4 -1 17.25 1.05
-30 -4 1 16.69 1.11
30 4 -1 20.31 1.42
-28 -4 1 20.31 1.15
28 -4 -1 18.37 1.02
-28 -4 1 18.19 1.12
28 4 -1 18.56 1.3
-26 -4 1 -0.14 0.27
-26 -4 1 -0.27 0.26
26 -4 -1 0.33 0.3
26 4 -1 0.14 0.36
26 4 -1 0.47 0.25
-26 4 1 0.1 0.27
-24 -4 1 2.55 0.45
24 -4 -1 2.99 0.45
-24 -4 1 2.91 0.5
24 -4 -1 1.8 0.37
-24 4 1 2.27 0.35
-24 4 1 2.9 0.49
24 4 -1 2.62 0.53
24 4 -1 2.46 0.34
22 -4 -1 29.63 1.13
-22 -4 1 30.64 1.24
-22 -4 1 32.82 1.3
22 -4 -1 33.21 1.2
-22 4 1 30.56 1.21
-22 4 1 32.03 1.08
22 4 -1 30.6 1.37
22 4 -1 32.81 1.06
20 -4 -1 78.31 2.15
-20 -4 1 78.77 2.25
-20 -4 1 81.77 2.34
20 -4 -1 78.32 2.18
20 4 -1 77.9 2.39
-20 4 1 77.63 2.22
20 4 -1 81.5 2.04
-20 4 1 78.01 2.06
-18 -4 1 52.27 1.6
18 -4 -1 54.97 1.59
18 -4 -1 49.7 1.52
-18 -4 1 51.59 1.65
-18 -4 1 52.12 1.43
18 -4 -1 52.62 1.58
-18 4 1 52.75 1.61
18 4 -1 54 1.44
-18 4 1 53 1.47
18 4 -1 50.88 1.69
-16 -4 1 49.51 1.53
-16 -4 1 53.44 1.62
16 -4 -1 51.71 1.49
16 -4 -1 52.4 1.51
-16 -4 1 53.12 1.41
16 -4 -1 53.68 1.54
-16 4 1 53.52 1.57
-16 4 1 54.45 1.45
16 4 -1 53.11 1.41
16 4 -1 53.35 1.64
14 -4 -1 6.57 0.42
14 -4 -1 7.2 0.41
-14 -4 1 6.54 0.42
-14 -4 1 6.14 0.44
-14 -4 1 6.35 0.35
14 -4 -1 7.1 0.4
14 4 -1 6.93 0.36
14 4 -1 7.14 0.48
-14 4 1 7.56 0.46
-14 4 1 7.3 0.39
14 4 -1 7.28 0.39
12 -4 -1 1.39 0.19
-12 -4 1 1.63 0.26
12 -4 -1 1.09 0.2
-12 -4 1 1.28 0.18
-12 -4 1 1.41 0.22
12 -4 -1 1.49 0.21
12 4 -1 1.22 0.22
12 4 -1 1.58 0.2
-12 4 1 1.26 0.19
-12 4 1 1.93 0.27
12 4 -1 1.42 0.18
10 -4 -1 30.48 0.9
-10 -4 1 30.73 0.9
10 -4 -1 31.05 0.84
-10 -4 1 31.1 0.99
-10 -4 1 30.88 0.93
10 -4 -1 30.21 0.94
10 4 -1 31.84 0.97
10 4 -1 31.57 0.88
-10 4 1 30.2 0.88
-10 4 1 30.68 0.97
10 4 -1 30.11 0.87
-8 -4 1 19.03 0.62
-8 -4 1 18.57 0.62
8 -4 -1 18.65 0.6
8 -4 -1 18.7 0.65
-8 -4 1 18.49 0.66
-8 4 1 19.5 0.67
8 4 -1 18.87 0.57
-8 4 1 17.82 0.59
8 4 -1 18.2 0.63
8 4 -1 18.09 0.59
-6 -4 1 17.05 0.56
-6 -4 1 18.15 0.59
6 -4 -1 17.9 0.55
6 -4 -1 16.87 0.59
-6 -4 1 18.06 0.62
-6 4 1 17.73 0.62
6 4 -1 17.45 0.52
-6 4 1 16.52 0.55
6 4 -1 17.88 0.58
-4 -4 1 5.43 0.25
-4 -4 1 5.87 0.3
4 -4 -1 5.79 0.25
-4 -4 1 5.42 0.29
4 -4 -1 5.53 0.29
-4 4 1 5.58 0.21
4 4 -1 5.89 0.24
4 4 -1 5.67 0.28
-4 4 1 5.84 0.28
-2 -4 1 17.17 0.57
2 -4 -1 18.19 0.57
2 -4 -1 17.09 0.58
-2 -4 1 17.73 0.56
-2 -4 1 18.04 0.51
2 -4 -1 17.43 0.49
2 4 -1 17.72 0.56
-2 4 1 17.72 0.47
2 4 -1 17.54 0.49
-2 4 1 18.41 0.57
0 -4 1 36.5 0.89
0 -4 -1 37.98 0.88
0 -4 -1 38.03 1.01
0 -4 1 36.75 1
0 -4 1 36.78 0.96
0 -4 -1 37.42 0.98
0 4 -1 36.94 0.92
0 4 1 35.81 0.92
0 4 1 37.41 1
0 4 -1 36.92 0.99
2 -4 1 78.24 1.77
-2 -4 -1 78.99 1.91
-2 -4 -1 77.19 1.87
2 -4 1 77.59 1.83
-2 -4 -1 79.68 1.75
2 -4 1 77.74 1.9
-2 4 -1 82.1 1.85
-2 4 -1 77.34 1.9
2 4 1 80.21 1.88
2 4 1 85.89 1.75
2 4 1 78.72 1.92
4 -4 1 170.98 3.85
4 -4 1 180.55 3.97
-4 -4 -1 180.83 3.98
-4 -4 -1 178.65 3.93
4 -4 1 176.01 4.02
-4 4 -1 175.66 3.98
-4 4 -1 178.88 3.92
4 4 1 176.26 3.98
4 4 1 177.51 4
6 -4 1 201.91 4.49
6 -4 1 213.48 4.64
-6 -4 -1 210.71 4.64
6 -4 1 210.49 4.71
-6 -4 -1 207.57 4.59
-6 4 -1 204.95 4.66
6 4 1 204.97 4.69
6 4 1 209.72 4.71
-6 4 -1 209.76 4.6
-8 -4 -1 79.15 1.95
8 -4 1 80.22 1.81
8 -4 1 80.11 1.95
8 -4 1 77.23 2.03
-8 -4 -1 77.74 1.91
8 4 1 74.7 2.04
8 4 1 81.46 2.04
-8 4 -1 77.89 1.92
8 4 1 77.89 1.72
-10 -4 -1 0.59 0.15
10 -4 1 0.36 0.09
10 -4 1 0.57 0.15
-10 -4 -1 0.13 0.1
10 -4 1 0.91 0.21
10 4 1 0.49 0.08
-10 4 -1 0.28 0.13
10 4 1 0.29 0.16
10 4 1 0.68 0.2
12 -4 1 16.49 0.54
12 -4 1 15.79 0.64
12 -4 1 16.21 0.74
-12 -4 -1 15.69 0.65
-12 -4 -1 17.03 0.64
-12 -4 -1 16.64 0.7
-12 4 -1 16.84 0.66
12 4 1 16.83 0.5
12 4 1 17.17 0.75
12 4 1 17.6 0.8
-12 4 -1 17.01 0.56
14 -4 1 29.07 1.1
14 -4 1 28.34 0.83
14 -4 1 27.79 0.97
-14 -4 -1 29.97 0.96
-14 -4 -1 29.79 1.03
-14 -4 -1 27.24 0.96
-14 4 -1 29.31 0.98
-14 4 -1 28.78 0.86
14 4 1 30.34 1.09
14 4 1 29.22 0.8
14 4 1 29.58 1.16
16 -4 1 75.36 2.04
16 -4 1 74.48 1.85
-16 -4 -1 73.68 2.03
16 -4 1 75.15 2.2
-16 -4 -1 76.56 2.02
-16 -4 -1 75.73 2.09
-16 4 -1 73.44 1.97
-16 4 -1 78.69 2.03
16 4 1 76.04 2.16
16 4 1 73.96 2.28
16 4 1 76.38 1.83
-16 4 -1 74.9 1.88
18 -4 1 31.5 1.11
18 -4 1 31.31 0.95
-18 -4 -1 31.59 1.15
-18 -4 -1 31.87 1.1
-18 -4 -1 29.69 1.09
18 -4 1 30.97 1.26
18 4 1 31.29 1.2
-18 4 -1 27.85 1.03
-18 4 -1 30.38 1.07
18 4 1 29.98 0.91
-18 4 -1 30.95 0.97
18 4 1 31.68 1.35
20 -4 1 5.47 0.53
-20 -4 -1 4.57 0.5
20 -4 1 5.49 0.65
-20 -4 -1 4.95 0.5
-20 -4 -1 4.97 0.53
-20 4 -1 4.19 0.45
20 4 1 4.74 0.35
-20 4 -1 5.26 0.5
20 4 1 3.79 0.61
22 -4 1 0.72 0.34
-22 -4 -1 0.47 0.25
22 -4 1 0.76 0.29
-22 -4 -1 0.49 0.27
-22 -4 -1 0.63 0.25
22 4 1 0.84 0.36
-22 4 -1 0.08 0.2
-22 4 -1 1.09 0.31
22 4 1 0.35 0.19
24 -4 1 11.23 1.6
-24 -4 -1 11.49 0.76
24 -4 1 10.2 0.73
-24 -4 -1 11.83 0.75
-24 4 -1 11.28 0.69
24 4 1 11.93 1.01
26 -4 1 22.78 1.12
-26 -4 -1 20.39 1.09
-26 4 -1 24.54 1.05
26 4 1 24.1 1.46
-28 -4 -1 15.51 1.01
28 -4 1 17.95 1.04
28 4 1 16.54 1.32
-28 4 -1 16.9 0.92
30 -4 1 5.43 0.71
-30 -4 -1 2.85 0.58
30 4 1 3.38 0.81
-31 -5 1 0.15 0.4
31 -5 -1 0.3 0.4
31 5 -1 0.58 0.53
-29 -5 1 0.38 0.42
-29 -5 1 0.8 0.42
29 -5 -1 -0.04 0.31
29 5 -1 1.07 0.54
-27 -5 1 1.84 0.46
27 -5 -1 1.44 0.4
-27 -5 1 2.11 0.51
27 5 -1 2.2 0.59
-25 -5 1 5.64 0.7
-25 -5 1 5.68 0.67
25 -5 -1 5.28 0.6
25 5 -1 5.11 0.5
-25 5 1 6.51 0.58
25 5 -1 5.41 0.77
23 -5 -1 6.89 0.64
-23 -5 1 6.43 0.7
23 -5 -1 6.66 0.61
-23 -5 1 6.28 0.65
23 5 -1 7.03 0.49
-23 5 1 7.26 0.6
-23 5 1 6.27 0.63
23 5 -1 7.86 0.83
-21 -5 1 4.84 0.58
-21 -5 1 3.86 0.49
21 -5 -1 4.34 0.48
21 -5 -1 4.8 0.5
21 5 -1 4.36 0.41
-21 5 1 4.35 0.44
21 5 -1 4.8 0.65
-21 5 1 4.83 0.54
-19 -5 1 0.33 0.21
-19 -5 1 0.34 0.25
19 -5 -1 0.39 0.23
19 -5 -1 0.48 0.22
19 5 -1 0.63 0.19
-19 5 1 0.55 0.21
-19 5 1 0.17 0.23
19 5 -1 0.44 0.26
17 -5 -1 4.44 0.44
-17 -5 1 4.2 0.37
-17 -5 1 4.02 0.44
-17 -5 1 5.23 0.53
17 -5 -1 4.41 0.44
17 5 -1 4.55 0.33
17 5 -1 4.84 0.53
-17 5 1 3.7 0.43
-17 5 1 4.19 0.4
-15 -5 1 0 0.12
-15 -5 1 0.22 0.18
15 -5 -1 -0.05 0.12
15 -5 -1 0.21 0.15
-15 -5 1 -0.22 0.1
15 -5 -1 -0.01 0.15
15 5 -1 -0.28 0.12
15 5 -1 0.12 0.11
-15 5 1 -0.11 0.14
15 5 -1 0.14 0.17
-15 5 1 0.05 0.12
-13 -5 1 0.15 0.13
13 -5 -1 0.01 0.11
-13 -5 1 0.1 0.14
13 -5 -1 0.21 0.13
-13 -5 1 0.04 0.12
13 -5 -1 -0.15 0.1
-13 5 1 0.41 0.14
-13 5 1 0.28 0.15
13 5 -1 0.06 0.09
13 5 -1 0.29 0.14
13 5 -1 0.26 0.16
11 -5 -1 1.85 0.24
11 -5 -1 2.02 0.25
-11 -5 1 2.06 0.26
-11 -5 1 2.06 0.24
11 -5 -1 1.85 0.19
-11 -5 1 1.89 0.28
-11 5 1 2.04 0.25
11 5 -1 2.26 0.29
11 5 -1 2.15 0.23
-11 5 1 1.95 0.26
11 5 -1 2.27 0.24
-11 5 1 1.78 0.17
9 -5 -1 6.17 0.36
9 -5 -1 6.2 0.33
-9 -5 1 6.09 0.35
-9 -5 1 6.39 0.39
-9 -5 1 5.67 0.33
9 5 -1 6.18 0.32
9 5 -1 5.82 0.36
-9 5 1 5.23 0.36
-9 5 1 5.76 0.32
9 5 -1 6.26 0.32
-7 -5 1 9.72 0.42
-7 -5 1 10.95 0.45
7 -5 -1 9.04 0.43
-7 -5 1 10.06 0.47
7 -5 -1 10.66 0.42
7 5 -1 10.07 0.44
-7 5 1 10.59 0.48
7 5 -1 9.9 0.4
-7 5 1 10.39 0.43
5 -5 -1 0.81 0.13
-5 -5 1 0.62 0.15
-5 -5 1 0.48 0.11
-5 -5 1 0.97 0.16
5 -5 -1 0.91 0.16
5 5 -1 0.83 0.13
5 5 -1 0.45 0.12
-5 5 1 1.06 0.16
-5 5 1 0.92 0.08
-3 -5 1 0.07 0.09
3 -5 -1 0.07 0.09
3 -5 -1 0.1 0.06
-3 -5 1 0.15 0.09
-3 -5 1 0.05 0.06
3 -5 -1 0.11 0.1
-3 5 1 0.13 0.05
3 5 -1 0.02 0.06
-3 5 1 0.17 0.09
3 5 -1 0.17 0.08
1 -5 -1 4.07 0.2
1 -5 -1 3.98 0.27
-1 -5 1 3.63 0.25
1 -5 -1 3.81 0.25
-1 -5 1 4.3 0.25
-1 -5 1 3.56 0.2
-1 5 1 3.95 0.26
-1 5 1 4.17 0.21
1 5 -1 4.17 0.21
1 5 -1 3.55 0.24
-1 -5 -1 16.19 0.56
-1 -5 -1 16.63 0.47
1 -5 1 15.87 0.48
1 -5 1 16.52 0.58
1 -5 1 15.91 0.53
-1 -5 -1 15.7 0.58
-1 5 -1 16.65 0.56
1 5 1 16.23 0.58
-1 5 -1 16.47 0.51
1 5 1 15.3 0.52
-3 -5 -1 53.39 1.23
3 -5 1 52.56 1.32
-3 -5 -1 53.7 1.38
3 -5 1 55.12 1.27
-3 -5 -1 52.52 1.4
3 -5 1 56.31 1.41
3 5 1 52.77 1.41
-3 5 -1 49.36 1.37
3 5 1 51.99 1.38
-3 5 -1 53.88 1.33
5 -5 1 54.72 1.33
5 -5 1 52.94 1.43
-5 -5 -1 54.6 1.4
5 -5 1 54.54 1.47
-5 -5 -1 53.45 1.43
-5 5 -1 53.25 1.43
5 5 1 54.61 1.47
-5 5 -1 55.34 1.38
5 5 1 52.1 1.45
7 -5 1 16.41 0.52
7 -5 1 16.01 0.66
-7 -5 -1 16.38 0.63
-7 -5 -1 16.49 0.61
7 -5 1 16.55 0.62
7 5 1 17.13 0.68
7 5 1 16.7 0.42
-7 5 -1 15.95 0.63
-7 5 -1 16.35 0.58
7 5 1 16.66 0.68
9 -5 1 3.58 0.34
-9 -5 -1 4.23 0.3
9 -5 1 4.34 0.35
9 -5 1 4.14 0.24
-9 -5 -1 4.17 0.32
-9 5 -1 4.51 0.31
-9 5 -1 4.13 0.33
9 5 1 4.25 0.17
9 5 1 4.17 0.4
9 5 1 3.34 0.38
-11 -5 -1 3.35 0.33
-11 -5 -1 3.71 0.35
11 -5 1 3.15 0.37
11 -5 1 3.25 0.33
11 -5 1 3.35 0.23
11 5 1 3.14 0.4
11 5 1 3.31 0.17
11 5 1 3.48 0.37
-11 5 -1 3.1 0.31
13 -5 1 13.86 0.51
13 -5 1 12.76 0.61
-13 -5 -1 13.44 0.66
-13 -5 -1 15.37 0.64
-13 -5 -1 14.23 0.64
13 -5 1 14.6 0.72
-13 5 -1 13.91 0.61
13 5 1 15.15 0.72
13 5 1 14.05 0.76
13 5 1 14.36 0.45
-15 -5 -1 0.2 0.15
-15 -5 -1 0.12 0.18
-15 -5 -1 0.26 0.16
15 -5 1 0.06 0.11
15 -5 1 0.49 0.19
15 -5 1 0.4 0.21
15 5 1 0.09 0.2
15 5 1 0.24 0.09
15 5 1 0.44 0.21
-15 5 -1 0.23 0.16
17 -5 1 0.16 0.14
-17 -5 -1 0.39 0.22
-17 -5 -1 0.32 0.19
17 -5 1 0.28 0.19
17 -5 1 0.45 0.26
-17 -5 -1 0.09 0.16
-17 5 -1 0.45 0.17
17 5 1 0.01 0.23
-17 5 -1 0.85 0.23
17 5 1 0.25 0.23
17 5 1 0.43 0.13
19 -5 1 9.7 0.62
-19 -5 -1 8.88 0.59
19 -5 1 8.22 0.68
-19 -5 -1 8.83 0.58
-19 -5 -1 9.18 0.63
19 5 1 8.1 0.42
19 5 1 8.57 0.65
19 5 1 8.89 0.89
-19 5 -1 9.05 0.57
-21 -5 -1 7.19 0.57
21 -5 1 6.28 0.7
-21 -5 -1 6.74 0.63
21 -5 1 7.23 0.57
-21 -5 -1 5.84 0.57
-21 5 -1 6.65 0.54
21 5 1 6.05 0.76
-23 -5 -1 1.27 0.35
23 -5 1 2.12 0.43
-23 -5 -1 1.57 0.38
23 5 1 1.38 0.47
-23 5 -1 1.65 0.34
25 -5 1 0.13 0.28
-25 -5 -1 0.46 0.3
-25 -5 -1 0.15 0.28
-25 5 -1 -0.08 0.23
25 5 1 0.73 0.46
-27 -5 -1 0.01 0.3
27 -5 1 0.59 0.36
-27 5 -1 -0.01 0.26
27 5 1 0.56 0.49
-29 -5 -1 -0.1 0.34
29 -5 1 0.12 0.38
-29 5 -1 0.14 0.32
29 5 1 0.05 0.57
-31 -5 -1 0.1 0.39
31 -5 1 0.48 0.45
31 5 1 0.62 0.67
-30 -6 1 15.84 1.12
-30 -6 1 13.24 1.2
30 -6 -1 15.01 1.05
30 6 -1 11.57 1.29
-28 -6 1 3.11 0.58
28 -6 -1 4.28 0.63
-28 -6 1 3.59 0.63
28 6 -1 4.58 0.83
-26 -6 1 2.75 0.52
26 -6 -1 2.88 0.5
-26 -6 1 3.04 0.55
-26 6 1 2.9 0.44
26 6 -1 2.44 0.61
24 -6 -1 0.63 0.32
-24 -6 1 1.1 0.35
-24 -6 1 1.04 0.41
-24 6 1 1.37 0.32
24 6 -1 2.16 0.56
-22 -6 1 18.32 0.93
-22 -6 1 16.41 0.95
22 -6 -1 15.8 0.85
22 -6 -1 16.33 0.83
22 6 -1 17.93 0.73
-22 6 1 17.63 0.81
22 6 -1 17.62 1.08
-22 6 1 17.33 0.87
20 -6 -1 32.98 1.24
20 -6 -1 35.36 1.23
-20 -6 1 36.5 1.4
-20 -6 1 35.68 1.31
-20 6 1 35.42 1.27
20 6 -1 35.8 1.46
20 6 -1 35.79 1.1
-20 6 1 35.24 1.19
18 -6 -1 28.71 1.07
-18 -6 1 30.31 1.21
18 -6 -1 30.64 1.11
-18 -6 1 31.38 1.15
18 6 -1 28.72 1.23
18 6 -1 31.04 0.97
-18 6 1 32.94 1.07
-18 6 1 30.12 1.13
-16 -6 1 10.93 0.53
-16 -6 1 9.68 0.63
-16 -6 1 10.68 0.6
16 -6 -1 10.18 0.56
16 -6 -1 10.43 0.57
-16 6 1 10.37 0.59
16 6 -1 9.86 0.48
16 6 -1 9.5 0.55
-16 6 1 11.33 0.56
16 6 -1 10.54 0.66
14 -6 -1 13.52 0.63
14 -6 -1 11.55 0.71
-14 -6 1 13.46 0.7
-14 -6 1 14.09 0.59
14 -6 -1 13.21 0.62
-14 -6 1 13.88 0.64
-14 6 1 13.46 0.65
14 6 -1 13.62 0.53
14 6 -1 14.27 0.61
14 6 -1 13.62 0.7
-14 6 1 13.47 0.5
-14 6 1 13.5 0.6
12 -6 -1 1.44 0.24
-12 -6 1 1.56 0.28
-12 -6 1 1.77 0.25
12 -6 -1 1.16 0.22
12 -6 -1 1.42 0.17
-12 -6 1 1.67 0.25
12 6 -1 1.54 0.28
12 6 -1 1.52 0.21
-12 6 1 1.56 0.17
12 6 -1 1.84 0.25
-12 6 1 1.63 0.24
-12 6 1 1.2 0.24
-10 -6 1 5.46 0.39
10 -6 -1 5.48 0.35
-10 -6 1 4.96 0.35
10 -6 -1 5.27 0.36
-10 -6 1 5.96 0.35
10 6 -1 5.38 0.32
10 6 -1 4.49 0.36
10 6 -1 4.84 0.33
-10 6 1 5.05 0.37
-10 6 1 4.67 0.33
8 -6 -1 35.53 1.09
-8 -6 1 36.39 1.07
8 -6 -1 37.96 1.06
-8 -6 1 37.62 1.08
-8 -6 1 37.41 1.16
8 6 -1 37.57 1.05
8 6 -1 37.33 1.11
-8 6 1 37.31 1.08
6 -6 -1 28.67 0.85
-6 -6 1 29.12 0.86
-6 -6 1 28.92 0.93
-6 -6 1 28.25 0.88
6 -6 -1 28.16 0.89
6 6 -1 28.12 0.88
-6 6 1 28.48 0.88
6 6 -1 28.74 0.84
-6 6 1 28.65 0.7
-4 -6 1 65.18 1.62
-4 -6 1 63.62 1.67
4 -6 -1 67.2 1.62
4 -6 -1 64.44 1.7
-4 -6 1 65.28 1.7
4 -6 -1 65.33 1.68
4 6 -1 64.66 1.65
-4 6 1 68.52 1.69
-4 6 1 64.73 1.5
4 6 -1 68.43 1.62
2 -6 -1 0.23 0.09
2 -6 -1 0.48 0.13
2 -6 -1 0.1 0.11
-2 -6 1 0.2 0.11
-2 -6 1 0.26 0.12
-2 -6 1 0.29 0.1
-2 6 1 0.28 0.08
2 6 -1 0.38 0.11
-2 6 1 0.2 0.11
2 6 -1 0.24 0.09
0 -6 1 69.96 1.79
0 -6 1 69.65 1.67
0 -6 -1 70.06 1.79
0 -6 -1 72.24 1.66
0 -6 -1 68.26 1.76
0 -6 1 67.9 1.74
0 6 1 67.88 1.68
0 6 1 75.13 1.82
0 6 -1 69.66 1.73
0 6 -1 71.34 1.7
-2 -6 -1 97.38 2.39
-2 -6 -1 100.93 2.22
-2 -6 -1 96.79 2.35
2 -6 1 94.33 2.31
2 -6 1 98.85 2.25
2 -6 1 97.77 2.38
2 6 1 96.82 2.4
-2 6 -1 102.27 2.3
-2 6 -1 100.16 2.34
2 6 1 93.3 2.31
-4 -6 -1 196.44 4.22
4 -6 1 194.88 4.43
4 -6 1 195.73 4.33
4 -6 1 201.29 4.28
-4 -6 -1 200.44 4.41
-4 -6 -1 193.05 4.43
-4 6 -1 193.89 4.34
4 6 1 198.18 4.46
4 6 1 184.47 4.4
-4 6 -1 189.64 4.38
-6 -6 -1 93.3 2.35
6 -6 1 95.17 2.38
-6 -6 -1 94.95 2.32
6 -6 1 95.08 2.23
6 -6 1 95.2 2.36
-6 -6 -1 99.35 2.11
-6 6 -1 94.75 2.28
6 6 1 91.2 2.38
6 6 1 93.61 2.39
-6 6 -1 95 2.33
-8 -6 -1 21.62 0.77
8 -6 1 21.45 0.79
-8 -6 -1 21.4 0.78
8 -6 1 19.91 0.79
8 -6 1 20.71 0.67
8 6 1 22.23 0.86
-8 6 -1 22.34 0.75
-8 6 -1 21.61 0.78
8 6 1 21.5 0.84
8 6 1 23.6 0.56
10 -6 1 6.19 0.44
10 -6 1 6.88 0.43
-10 -6 -1 7.01 0.41
-10 -6 -1 5.98 0.41
10 -6 1 6.94 0.34
10 6 1 6.57 0.47
10 6 1 5.33 0.45
-10 6 -1 5.78 0.41
10 6 1 6.78 0.24
-10 6 -1 6.48 0.38
-12 -6 -1 9.31 0.51
12 -6 1 9.19 0.56
12 -6 1 8.85 0.53
-12 -6 -1 9.52 0.52
12 -6 1 9.64 0.42
12 6 1 8.31 0.59
-12 6 -1 8.95 0.48
-12 6 -1 8.88 0.52
12 6 1 9.71 0.32
12 6 1 9.6 0.58
-14 -6 -1 16 0.71
14 -6 1 15.29 0.76
14 -6 1 15.27 0.57
14 -6 1 14.84 0.71
-14 -6 -1 16 0.71
-14 -6 -1 15.61 0.75
14 6 1 14.75 0.76
14 6 1 15.2 0.85
14 6 1 15.06 0.48
-14 6 -1 14.98 0.66
16 -6 1 6.69 0.51
16 -6 1 7.3 0.4
-16 -6 -1 7.14 0.51
-16 -6 -1 7.83 0.53
16 -6 1 7.43 0.58
-16 -6 -1 7.04 0.62
16 6 1 7.82 0.67
-16 6 -1 8.53 0.51
16 6 1 8.45 0.37
16 6 1 7.79 0.6
18 -6 1 5.66 0.61
-18 -6 -1 6.09 0.57
18 -6 1 5.37 0.55
-18 -6 -1 5.17 0.52
-18 -6 -1 6.62 0.52
18 6 1 5.22 0.69
18 6 1 6.64 0.66
-18 6 -1 6.4 0.48
-20 -6 -1 0.46 0.25
-20 -6 -1 -0.17 0.18
-20 -6 -1 0.53 0.25
20 -6 1 0.08 0.22
20 6 1 -0.1 0.26
-20 6 -1 0.3 0.2
20 6 1 0.77 0.31
22 -6 1 0.33 0.26
-22 -6 -1 0.11 0.23
-22 -6 -1 -0.19 0.22
-22 6 -1 0.21 0.22
22 6 1 -0.3 0.28
-24 -6 -1 1.86 0.42
-24 -6 -1 1.15 0.35
24 -6 1 0.89 0.37
-24 6 -1 2.17 0.4
24 6 1 1.31 0.52
26 -6 1 17.26 1.06
-26 -6 -1 16.69 1.01
-26 -6 -1 18.04 1.07
26 6 1 18.98 1.38
-26 6 -1 17.43 0.92
28 -6 1 17.19 1.12
-28 -6 -1 17.3 1.08
28 6 1 19.03 1.47
-28 6 -1 16.01 0.94
-30 -6 -1 16.02 1.09
30 -6 1 14.22 1.11
30 6 1 9.55 1.25
-30 6 -1 13.75 0.92
-29 -7 1 1.63 0.52
29 -7 -1 1.48 0.47
-29 -7 1 1.47 0.53
29 7 -1 1.85 0.67
27 -7 -1 1.11 0.44
-27 -7 1 1.39 0.5
-27 -7 1 1.68 0.48
-27 7 1 0.72 0.34
27 7 -1 0.81 0.52
-25 -7 1 3.5 0.62
25 -7 -1 2.93 0.51
-25 -7 1 2.85 0.52
-25 7 1 2.45 0.42
25 7 -1 3.23 0.68
-23 -7 1 6.23 0.69
23 -7 -1 7.53 0.72
-23 -7 1 6.96 0.75
23 7 -1 6.38 0.82
-23 7 1 7.67 0.6
21 -7 -1 3.09 0.46
-21 -7 1 2.43 0.44
21 -7 -1 2.35 0.38
-21 -7 1 3.22 0.52
-21 7 1 1.96 0.4
-21 7 1 2.28 0.37
21 7 -1 2.59 0.52
19 -7 -1 -0.18 0.19
-19 -7 1 0.1 0.2
-19 -7 1 0.52 0.29
19 -7 -1 0.03 0.21
-19 7 1 -0.02 0.19
19 7 -1 0.01 0.24
19 7 -1 0.03 0.14
-19 7 1 0.04 0.21
-17 -7 1 3.29 0.42
-17 -7 1 3.71 0.5
17 -7 -1 3.42 0.41
17 -7 -1 3.09 0.39
17 7 -1 3.18 0.32
-17 7 1 3.13 0.38
-17 7 1 2.47 0.37
17 7 -1 1.69 0.38
15 -7 -1 5.66 0.45
15 -7 -1 5.35 0.44
-15 -7 1 5.51 0.51
-15 -7 1 5.79 0.56
-15 7 1 5.44 0.51
15 7 -1 5.16 0.34
15 7 -1 5.71 0.44
-15 7 1 5.12 0.41
15 7 -1 5.35 0.57
13 -7 -1 11.15 0.58
-13 -7 1 11.94 0.54
-13 -7 1 11.92 0.65
13 -7 -1 11.66 0.58
-13 -7 1 11.86 0.6
-13 7 1 10.75 0.56
13 7 -1 11.72 0.58
13 7 -1 11.48 0.64
13 7 -1 11.25 0.5
11 -7 -1 9.59 0.5
-11 -7 1 8.96 0.49
-11 -7 1 9.1 0.47
11 -7 -1 9.18 0.5
-11 -7 1 7.65 0.51
11 7 -1 9.1 0.44
11 7 -1 9.08 0.48
-11 7 1 8.41 0.47
11 7 -1 8.5 0.52
9 -7 -1 14.26 0.59
-9 -7 1 13 0.57
-9 -7 1 13.21 0.64
9 -7 -1 13.81 0.6
-9 -7 1 13.61 0.58
9 7 -1 13.99 0.58
9 7 -1 14.19 0.63
-9 7 1 14.05 0.4
9 7 -1 13.89 0.55
-9 7 1 13.89 0.6
-7 -7 1 1.03 0.18
-7 -7 1 1.03 0.22
-7 -7 1 0.92 0.18
7 -7 -1 0.9 0.19
7 -7 -1 0.92 0.17
7 7 -1 0.95 0.17
-7 7 1 0.53 0.16
7 7 -1 1.15 0.21
-7 7 1 0.96 0.11
5 -7 -1 0.33 0.14
5 -7 -1 0.39 0.16
-5 -7 1 0.37 0.16
5 -7 -1 0.42 0.13
-5 -7 1 0.5 0.15
-5 -7 1 0.57 0.15
-5 7 1 0.36 0.08
5 7 -1 0.54 0.15
-5 7 1 0.53 0.15
5 7 -1 0.52 0.14
-3 -7 1 54.34 1.48
3 -7 -1 54.2 1.39
3 -7 -1 53.22 1.46
-3 -7 1 54.8 1.4
3 -7 -1 54.39 1.49
-3 -7 1 51.54 1.47
3 7 -1 53.87 1.42
-3 7 1 53.08 1.31
3 7 -1 55.18 1.41
-3 7 1 55.24 1.49
1 -7 -1 41.67 1.1
-1 -7 1 41.19 1.19
1 -7 -1 41.85 1.2
-1 -7 1 41.76 1.11
-1 -7 1 42.37 1.21
1 -7 -1 40.42 1.21
-1 7 1 39.91 1.08
1 7 -1 39.66 1.13
-1 7 1 42.45 1.23
1 7 -1 42.21 1.13
-1 -7 -1 4.23 0.37
-1 -7 -1 4.46 0.32
1 -7 1 3.58 0.34
1 -7 1 3.36 0.28
-1 -7 -1 3.55 0.24
1 -7 1 3.58 0.26
1 7 1 4.42 0.29
-1 7 -1 4.28 0.29
1 7 1 3.88 0.32
-1 7 -1 3.87 0.26
3 -7 1 3.28 0.27
3 -7 1 4 0.36
3 -7 1 3.79 0.25
-3 -7 -1 4.12 0.37
-3 -7 -1 3.21 0.31
-3 -7 -1 3.95 0.23
-3 7 -1 3.63 0.28
3 7 1 3.92 0.38
-3 7 -1 3.63 0.26
3 7 1 3.15 0.28
5 -7 1 1.34 0.19
-5 -7 -1 1.24 0.22
5 -7 1 1.51 0.24
-5 -7 -1 0.65 0.18
-5 -7 -1 1.74 0.17
5 -7 1 1.53 0.2
-5 7 -1 1.57 0.22
-5 7 -1 1.44 0.2
5 7 1 1.75 0.27
5 7 1 1.25 0.23
7 -7 1 15.88 0.68
-7 -7 -1 16.64 0.48
-7 -7 -1 16.88 0.67
7 -7 1 15.97 0.59
-7 -7 -1 16.95 0.68
7 7 1 15.34 0.71
7 7 1 14.91 0.7
-7 7 -1 15.63 0.64
-7 7 -1 15.73 0.62
7 7 1 16.32 0.46
9 -7 1 22.66 0.74
-9 -7 -1 21.32 0.83
-9 -7 -1 22.73 0.84
9 -7 1 21.46 0.84
9 -7 1 23.72 0.87
-9 7 -1 21.58 0.81
9 7 1 22.15 0.92
9 7 1 23.09 0.59
-9 7 -1 21.7 0.78
9 7 1 23.23 0.91
11 -7 1 16.27 0.74
11 -7 1 17.26 0.76
-11 -7 -1 16.93 0.72
-11 -7 -1 16.76 0.74
11 -7 1 17.25 0.62
-11 7 -1 16.52 0.68
11 7 1 16.32 0.8
11 7 1 17.79 0.48
11 7 1 15.41 0.81
-11 7 -1 16.39 0.71
13 -7 1 6.11 0.37
13 -7 1 6.04 0.48
-13 -7 -1 6.33 0.47
13 -7 1 6.04 0.49
-13 -7 -1 6.25 0.46
-13 7 -1 5.49 0.44
13 7 1 6.95 0.35
-13 7 -1 5.64 0.42
13 7 1 6.15 0.58
13 7 1 4.85 0.57
15 -7 1 0.5 0.24
15 -7 1 0.21 0.22
-15 -7 -1 0.21 0.18
15 -7 1 0.24 0.14
-15 -7 -1 0.23 0.19
15 7 1 0.11 0.21
15 7 1 0.31 0.22
-15 7 -1 0.27 0.18
-15 7 -1 0.06 0.18
-17 -7 -1 2.33 0.37
-17 -7 -1 2.38 0.41
17 -7 1 3.04 0.43
17 -7 1 2.5 0.45
-17 -7 -1 2.41 0.38
17 7 1 2.47 0.44
-17 7 -1 2.51 0.36
-17 7 -1 2.41 0.38
17 7 1 2.47 0.51
19 -7 1 13.26 0.8
-19 -7 -1 13.53 0.77
-19 -7 -1 13.6 0.79
-19 -7 -1 12.86 0.75
19 7 1 12.28 0.94
-19 7 -1 13.67 0.72
19 7 1 11.9 0.81
-21 -7 -1 1.82 0.39
-21 -7 -1 1.9 0.38
21 -7 1 1.67 0.39
-21 7 -1 1.19 0.33
21 7 1 1.21 0.46
-23 -7 -1 2.23 0.45
23 -7 1 2.92 0.51
-23 -7 -1 2.04 0.42
23 7 1 2.62 0.64
-23 7 -1 2.54 0.43
-25 -7 -1 2.27 0.48
-25 -7 -1 3.62 0.58
25 -7 1 2.16 0.5
-25 7 -1 2.86 0.46
25 7 1 1.72 0.66
-27 -7 -1 0.39 0.37
27 -7 1 0.09 0.42
27 7 1 0.63 0.53
-27 7 -1 0.35 0.31
29 -7 1 1.26 0.53
-29 -7 -1 1.3 0.48
-29 7 -1 1.08 0.37
29 7 1 1.18 0.65
-28 -8 1 14.79 1.13
28 -8 -1 10.94 0.98
-28 -8 1 9.91 0.99
-28 8 1 10.38 0.81
28 8 -1 11.56 1.28
-26 -8 1 0.63 0.46
26 -8 -1 0.85 0.38
-26 -8 1 0.8 0.4
-26 8 1 0.81 0.36
26 8 -1 -0.03 0.42
-24 -8 1 2.02 0.48
24 -8 -1 1.7 0.43
-24 -8 1 0.77 0.4
24 8 -1 1.4 0.49
-24 8 1 1.12 0.34
22 -8 -1 6.19 0.66
-22 -8 1 7.05 0.76
-22 -8 1 5.11 0.61
-22 8 1 7.2 0.65
22 8 -1 6.26 0.81
-20 -8 1 12.28 0.75
20 -8 -1 11.19 0.75
-20 -8 1 11.63 0.83
20 -8 -1 10.59 0.68
20 8 -1 10.31 0.84
-20 8 1 11.79 0.69
-18 -8 1 7.28 0.66
-18 -8 1 7.25 0.71
18 -8 -1 6.47 0.53
18 -8 -1 6.83 0.63
-18 8 1 7.16 0.54
18 8 -1 6.22 0.68
-16 -8 1 4.06 0.51
16 -8 -1 3.46 0.43
16 -8 -1 3.66 0.42
-16 -8 1 4.19 0.48
-16 8 1 4.27 0.45
16 8 -1 4.35 0.34
16 8 -1 3.93 0.53
14 -8 -1 9.81 0.57
-14 -8 1 10.56 0.53
-14 -8 1 10.24 0.59
14 -8 -1 8.71 0.56
-14 -8 1 8.81 0.62
14 8 -1 9.39 0.63
14 8 -1 9.25 0.57
-14 8 1 9.17 0.55
14 8 -1 10.13 0.49
12 -8 -1 3.37 0.37
-12 -8 1 2.77 0.36
12 -8 -1 2.99 0.35
-12 -8 1 2.84 0.33
-12 -8 1 2.15 0.35
12 8 -1 3.11 0.36
12 8 -1 2.85 0.3
-12 8 1 3.18 0.35
12 8 -1 2.4 0.36
-10 -8 1 6.42 0.49
-10 -8 1 7.03 0.44
10 -8 -1 6.46 0.45
-10 -8 1 7.05 0.43
10 -8 -1 6.64 0.44
10 8 -1 6.81 0.47
10 8 -1 6.43 0.38
10 8 -1 6.52 0.44
-10 8 1 6.48 0.43
-8 -8 1 8.85 0.47
-8 -8 1 7.94 0.45
-8 -8 1 7.86 0.51
8 -8 -1 9.47 0.48
8 -8 -1 7.97 0.47
-8 8 1 8.48 0.3
8 8 -1 8.6 0.49
8 8 -1 7.94 0.45
-8 8 1 7.71 0.47
-6 -8 1 21.14 0.77
-6 -8 1 21.22 0.75
6 -8 -1 20.15 0.79
6 -8 -1 20.83 0.75
-6 -8 1 19.76 0.81
6 -8 -1 20.51 0.77
6 8 -1 19.61 0.76
-6 8 1 20.88 0.59
-6 8 1 20.54 0.78
6 8 -1 21.07 0.75
-4 -8 1 6.87 0.44
4 -8 -1 7.12 0.39
4 -8 -1 7.03 0.45
4 -8 -1 6.95 0.43
-4 -8 1 7.45 0.4
-4 -8 1 7.17 0.43
-4 8 1 6.97 0.32
4 8 -1 6.88 0.39
-4 8 1 7.71 0.45
4 8 -1 6.81 0.4
-2 -8 1 5.06 0.32
-2 -8 1 6.65 0.41
-2 -8 1 4.77 0.36
2 -8 -1 5.35 0.39
2 -8 -1 5.66 0.34
2 -8 -1 5.44 0.38
2 8 -1 5.37 0.34
-2 8 1 4.96 0.38
-2 8 1 5.45 0.3
2 8 -1 5.04 0.34
0 -8 1 1.83 0.26
0 -8 -1 1.63 0.26
0 -8 1 1.6 0.25
0 -8 1 1.62 0.21
0 -8 -1 1.25 0.22
0 -8 -1 1.33 0.19
0 8 1 1.5 0.21
0 8 -1 1.53 0.22
0 8 -1 2.02 0.24
0 8 1 1.45 0.25
2 -8 1 66.75 1.75
-2 -8 -1 66.08 1.8
-2 -8 -1 65.94 1.78
-2 -8 -1 67.29 1.65
2 -8 1 64.3 1.66
2 -8 1 67.35 1.81
-2 8 -1 67.04 1.71
2 8 1 64.67 1.73
-2 8 -1 67.4 1.71
2 8 1 65.44 1.83
4 -8 1 92.93 2.38
-4 -8 -1 91.44 2.36
-4 -8 -1 91.46 2.16
4 -8 1 91.43 2.29
-4 -8 -1 89.9 2.35
4 -8 1 94.24 2.22
-4 8 -1 94.92 2.27
-4 8 -1 94.07 2.28
4 8 1 94.12 2.42
4 8 1 89.47 2.34
-6 -8 -1 80.62 2.13
-6 -8 -1 78.04 1.87
6 -8 1 77.68 2.13
6 -8 1 80.2 2.02
6 -8 1 81.6 1.97
-6 -8 -1 81.12 2.11
6 8 1 81.42 2.19
-6 8 -1 81.12 2.04
-6 8 -1 79.73 2.04
6 8 1 80.22 2.16
8 -8 1 4.71 0.33
-8 -8 -1 5.34 0.39
-8 -8 -1 3.65 0.39
-8 -8 -1 4.73 0.25
8 -8 1 4.72 0.34
8 -8 1 3.97 0.41
8 8 1 4.32 0.22
-8 8 -1 4.3 0.34
8 8 1 4.46 0.48
8 8 1 4.59 0.47
-8 8 -1 4.15 0.34
10 -8 1 5.69 0.51
10 -8 1 5.29 0.36
-10 -8 -1 5.16 0.41
-10 -8 -1 5.19 0.47
10 8 1 4.13 0.5
-10 8 -1 5 0.39
-10 8 -1 5.25 0.4
10 8 1 5.26 0.52
-12 -8 -1 8.32 0.54
12 -8 1 9.14 0.47
12 -8 1 8.88 0.57
12 -8 1 8.52 0.55
-12 -8 -1 8.65 0.55
12 8 1 7.34 0.6
12 8 1 7.32 0.6
-12 8 -1 8.24 0.5
-12 8 -1 8.56 0.52
14 -8 1 1.81 0.26
-14 -8 -1 1.3 0.28
-14 -8 -1 1.29 0.29
14 -8 1 1.04 0.28
14 -8 1 1.33 0.3
-14 8 -1 0.81 0.23
-14 8 -1 0.57 0.22
14 8 1 0.64 0.3
14 8 1 1.14 0.31
16 -8 1 6.2 0.55
16 -8 1 5.29 0.58
-16 -8 -1 6.22 0.59
-16 -8 -1 6.26 0.58
-16 8 -1 6.55 0.48
16 8 1 4.97 0.64
16 8 1 6.35 0.66
-18 -8 -1 0.46 0.26
-18 -8 -1 0.25 0.26
18 -8 1 0 0.23
-18 -8 -1 -0.03 0.2
-18 8 -1 0.22 0.2
18 8 1 0.12 0.31
18 8 1 0.06 0.26
-20 -8 -1 0.15 0.24
-20 -8 -1 0.62 0.31
20 -8 1 -0.05 0.26
-20 8 -1 0.8 0.27
20 8 1 0.66 0.39
-22 -8 -1 2.18 0.43
-22 -8 -1 2.45 0.48
22 -8 1 3.12 0.56
-22 8 -1 2.86 0.43
22 8 1 2.8 0.63
-24 -8 -1 9.16 0.85
-24 -8 -1 10.45 0.79
24 -8 1 9.6 0.9
24 8 1 8.6 1.06
-24 8 -1 9.68 0.71
-26 -8 -1 6.17 0.77
-26 -8 -1 5.74 0.71
26 -8 1 6.91 0.85
26 8 1 4.88 0.9
-26 8 -1 5.59 0.64
28 -8 1 9.34 1
-28 -8 -1 7.54 0.83
28 8 1 8.03 1.17
-28 8 -1 7.79 0.77
-27 -9 1 11.11 1.02
-27 -9 1 11.97 1.17
27 -9 -1 12.45 0.96
27 9 -1 13.67 1.37
-27 9 1 11.68 0.83
-25 -9 1 15.4 1.11
25 -9 -1 20.17 1.11
-25 -9 1 15.99 1.05
25 9 -1 14.22 1.22
-25 9 1 17.34 0.94
-23 -9 1 22.5 1.17
23 -9 -1 25.36 1.2
-23 -9 1 25.7 1.32
23 9 -1 23.38 1.41
-23 9 1 23.54 1.09
21 -9 -1 7.39 0.71
-21 -9 1 8.41 0.82
-21 -9 1 7.08 0.69
21 9 -1 5.88 0.77
-21 9 1 7.8 0.68
19 -9 -1 0 0.25
19 -9 -1 0.22 0.24
-19 -9 1 0.05 0.29
-19 -9 1 0.57 0.29
-19 9 1 0.31 0.23
19 9 -1 0.28 0.32
17 -9 -1 1.85 0.35
17 -9 -1 1.91 0.38
-17 -9 1 1.73 0.41
-17 -9 1 1.79 0.37
17 9 -1 2.35 0.48
-17 9 1 2.48 0.4
-15 -9 1 14.56 0.83
15 -9 -1 14.26 0.75
15 -9 -1 14.98 0.75
-15 -9 1 15.79 0.78
15 9 -1 15.72 0.88
-15 9 1 14.68 0.74
13 -9 -1 28.55 1.05
-13 -9 1 28.93 1.17
13 -9 -1 28.46 1.06
-13 -9 1 28.2 0.97
-13 -9 1 28.78 1.07
-13 9 1 27.86 1.04
13 9 -1 28.75 0.93
13 9 -1 25.5 1.03
13 9 -1 26.9 1.12
-11 -9 1 49.21 1.64
11 -9 -1 51.52 1.55
-11 -9 1 54.68 1.57
11 -9 -1 53.28 1.57
-11 -9 1 50.81 1.48
11 9 -1 52.93 1.64
11 9 -1 52.87 1.57
-11 9 1 50.54 1.56
11 9 -1 52.81 1.45
9 -9 -1 3.07 0.39
9 -9 -1 2.48 0.34
-9 -9 1 2.07 0.3
-9 -9 1 2.84 0.39
-9 -9 1 2.73 0.34
9 -9 -1 2.51 0.34
-9 9 1 2.69 0.36
9 9 -1 2.29 0.33
9 9 -1 1.86 0.29
-7 -9 1 9.73 0.54
7 -9 -1 12 0.58
-7 -9 1 10.52 0.53
7 -9 -1 11.32 0.6
7 -9 -1 11.23 0.59
-7 -9 1 10.47 0.6
-7 9 1 11.03 0.4
7 9 -1 11.12 0.56
7 9 -1 11.08 0.57
-7 9 1 9.66 0.55
5 -9 -1 31.98 1.02
-5 -9 1 30.12 1.04
5 -9 -1 30.72 1.07
5 -9 -1 31.15 1.05
-5 -9 1 30.25 1.08
-5 -9 1 33.1 1.02
-5 9 1 30.93 1.08
5 9 -1 31.48 1.03
5 9 -1 30.74 1.03
-5 9 1 32.22 0.88
-3 -9 1 49.12 1.47
3 -9 -1 49.78 1.48
-3 -9 1 48.33 1.48
3 -9 -1 52.66 1.51
3 -9 -1 50.9 1.41
-3 -9 1 50.99 1.4
3 9 -1 51.13 1.42
-3 9 1 50.72 1.51
3 9 -1 50.8 1.43
-3 9 1 49.65 1.32
-1 -9 1 79.35 2
1 -9 -1 80.04 2.12
1 -9 -1 79.56 2.1
-1 -9 1 80.43 2.11
1 -9 -1 79.92 2.01
-1 -9 1 79.31 2.11
-1 9 1 77.8 2.15
1 9 -1 77.78 2.04
1 9 -1 80.18 2.01
-1 9 1 78.54 1.97
1 -9 1 61.65 1.63
-1 -9 -1 62.27 1.63
1 -9 1 62.17 1.72
-1 -9 -1 60.05 1.74
1 -9 1 64.94 1.79
-1 -9 -1 60.26 1.75
-1 9 -1 63.77 1.69
-1 9 -1 65.51 1.66
1 9 1 60.94 1.67
1 9 1 63.85 1.81
3 -9 1 35.57 1.17
-3 -9 -1 35.16 1
-3 -9 -1 32 1.13
3 -9 1 36.47 1.11
-3 -9 -1 33.25 1.13
3 -9 1 34.65 1.03
-3 9 -1 34.21 1.04
-3 9 -1 33.05 1.06
3 9 1 33.84 1.19
3 9 1 34.14 1.11
5 -9 1 0.11 0.16
-5 -9 -1 0.05 0.12
-5 -9 -1 0.09 0.14
-5 -9 -1 0.05 0.16
5 -9 1 0.22 0.15
5 -9 1 0.09 0.15
5 9 1 -0.14 0.13
-5 9 -1 0.16 0.13
-5 9 -1 0.08 0.13
5 9 1 0.16 0.17
7 -9 1 38.36 1.12
-7 -9 -1 37.07 1.25
7 -9 1 37.58 1.28
-7 -9 -1 36.33 1.24
7 -9 1 39.1 1.17
7 9 1 35.53 1.3
-7 9 -1 38.26 1.18
-7 9 -1 38.74 1.15
7 9 1 36.36 1.28
9 -9 1 44.12 1.25
9 -9 1 45.01 1.44
-9 -9 -1 44.68 1.4
9 -9 1 44.89 1.29
-9 -9 -1 40.15 1.36
-9 9 -1 41.75 1.3
9 9 1 41.17 1.46
-9 9 -1 43.61 1.29
9 9 1 42.07 1.46
-11 -9 -1 29.38 1.12
-11 -9 -1 31.35 1.14
11 -9 1 31.33 1.01
11 -9 1 32.59 1.18
-11 9 -1 31.99 1.05
11 9 1 30.57 1.22
11 9 1 27.11 1.2
-11 9 -1 30.07 1.06
13 -9 1 1.71 0.28
-13 -9 -1 1.65 0.32
13 -9 1 1.18 0.31
-13 -9 -1 1.69 0.35
-13 9 -1 1.51 0.29
-13 9 -1 1.34 0.27
13 9 1 0.93 0.32
13 9 1 1.05 0.33
15 -9 1 1.75 0.29
15 -9 1 1.57 0.37
-15 -9 -1 1.79 0.37
-15 -9 -1 1.77 0.35
-15 9 -1 1.73 0.32
15 9 1 0.86 0.36
15 9 1 1.47 0.39
-17 -9 -1 7.64 0.62
-17 -9 -1 6.53 0.62
17 -9 1 7.86 0.72
-17 9 -1 7.1 0.57
17 9 1 7.44 0.85
17 9 1 7.1 0.74
19 -9 1 27.79 1.25
-19 -9 -1 28.06 1.21
-19 -9 -1 26.78 1.18
19 9 1 27.75 1.47
-19 9 -1 27.24 1.12
-21 -9 -1 25.13 1.21
21 -9 1 24.52 1.23
-21 -9 -1 25.49 1.17
21 9 1 26.66 1.49
-21 9 -1 26.56 1.12
-23 -9 -1 13.09 0.93
-23 -9 -1 14 0.92
23 -9 1 13.38 0.99
23 9 1 14.3 1.24
-23 9 -1 13.3 0.84
-25 -9 -1 2.26 0.53
25 -9 1 1.87 0.54
-25 -9 -1 2.29 0.53
25 9 1 2.38 0.68
-25 9 -1 1.85 0.44
27 -9 1 0.3 0.42
-27 -9 -1 0.22 0.36
-27 -9 -1 -0.14 0.4
27 9 1 0.45 0.56
-27 9 -1 0.22 0.33
26 -10 -1 -0.35 0.41
-26 -10 1 -0.34 0.35
-26 -10 1 0.45 0.46
26 10 -1 0.66 0.55
-26 10 1 -0.21 0.32
24 -10 -1 1.13 0.46
-24 -10 1 1.93 0.54
-24 -10 1 0.6 0.39
-24 10 1 1.18 0.39
24 10 -1 2.39 0.65
22 -10 -1 -0.11 0.3
-22 -10 1 -0.01 0.34
-22 -10 1 0.01 0.26
22 10 -1 0.03 0.38
-22 10 1 0.2 0.29
20 -10 -1 4.67 0.6
-20 -10 1 5.28 0.62
-20 -10 1 4.76 0.68
20 10 -1 4.83 0.69
-20 10 1 5.43 0.6
18 -10 -1 3.37 0.46
-18 -10 1 3.81 0.59
18 -10 -1 4.67 0.57
-18 -10 1 4.24 0.55
-18 10 1 4.74 0.55
18 10 -1 4.14 0.62
16 -10 -1 2.65 0.45
16 -10 -1 2.82 0.42
-16 -10 1 1.71 0.37
-16 -10 1 1.59 0.4
-16 10 1 3.07 0.44
16 10 -1 1.66 0.42
-14 -10 1 7.78 0.64
14 -10 -1 7.97 0.57
14 -10 -1 6.98 0.64
-14 -10 1 7.46 0.59
-14 10 1 7.6 0.58
14 10 -1 9.71 0.7
12 -10 -1 -0.24 0.19
12 -10 -1 0.36 0.23
-12 -10 1 -0.02 0.21
-12 -10 1 0.07 0.19
12 10 -1 -0.05 0.18
12 10 -1 -0.22 0.19
-12 10 1 0.3 0.2
-10 -10 1 3.42 0.38
10 -10 -1 2.84 0.41
10 -10 -1 3.43 0.43
-10 -10 1 3.4 0.47
10 -10 -1 3.62 0.43
-10 -10 1 3.65 0.41
-10 10 1 2.5 0.36
10 10 -1 3.55 0.46
10 10 -1 3.38 0.42
8 -10 -1 0.68 0.22
-8 -10 1 0.21 0.19
8 -10 -1 0.53 0.23
8 -10 -1 0.43 0.23
-8 -10 1 0.11 0.2
-8 -10 1 0.23 0.17
8 10 -1 0.4 0.22
-8 10 1 0.52 0.22
8 10 -1 0.18 0.17
6 -10 -1 16.09 0.78
6 -10 -1 17.1 0.76
-6 -10 1 16.61 0.71
6 -10 -1 16.12 0.72
-6 -10 1 15.83 0.78
-6 -10 1 15.64 0.72
6 10 -1 17.38 0.75
-6 10 1 17.85 0.73
-6 10 1 16.95 0.79
6 10 -1 15.85 0.73
-4 -10 1 13.28 0.68
-4 -10 1 13.29 0.67
-4 -10 1 13.07 0.61
4 -10 -1 14.05 0.69
4 -10 -1 13.46 0.63
4 -10 -1 13.02 0.67
-4 10 1 13.37 0.69
4 10 -1 14.17 0.65
4 10 -1 13.05 0.64
-4 10 1 13.52 0.54
-2 -10 1 0.12 0.14
2 -10 -1 0.34 0.2
-2 -10 1 0.12 0.18
2 -10 -1 0.14 0.17
-2 -10 1 0.12 0.16
2 -10 -1 0.03 0.17
2 10 -1 0.01 0.14
2 10 -1 0.16 0.14
-2 10 1 0.09 0.17
-2 10 1 0.02 0.12
0 -10 -1 6.22 0.48
0 -10 1 6.21 0.47
0 -10 1 6.7 0.49
0 -10 -1 5.56 0.45
0 -10 -1 5.87 0.41
0 -10 1 6.96 0.42
0 10 -1 6.73 0.41
0 10 -1 6.28 0.44
0 10 1 6.23 0.41
0 10 1 6.64 0.51
-2 -10 -1 45.29 1.28
2 -10 1 44.05 1.44
-2 -10 -1 45.21 1.43
2 -10 1 45.61 1.29
2 -10 1 44.33 1.38
-2 -10 -1 43.53 1.4
2 10 1 42.44 1.45
-2 10 -1 45.64 1.29
2 10 1 44.94 1.36
-2 10 -1 44.24 1.35
-4 -10 -1 15.33 0.61
4 -10 1 15.53 0.64
-4 -10 -1 14.14 0.72
4 -10 1 15.36 0.76
4 -10 1 16.17 0.71
-4 -10 -1 14.82 0.73
4 10 1 16.7 0.81
-4 10 -1 15.7 0.64
4 10 1 14.6 0.71
-4 10 -1 15.95 0.69
6 -10 1 5.21 0.39
6 -10 1 6.16 0.45
-6 -10 -1 5.57 0.53
6 -10 1 5.15 0.52
-6 -10 -1 5.98 0.54
6 10 1 5.49 0.57
-6 10 -1 5.84 0.4
-6 10 -1 6.21 0.44
6 10 1 4.95 0.52
8 -10 1 1.44 0.28
8 -10 1 1.85 0.28
-8 -10 -1 1.62 0.32
8 -10 1 1.82 0.35
-8 -10 -1 1.97 0.35
-8 10 -1 2.03 0.27
8 10 1 1.63 0.36
-8 10 -1 2.41 0.34
8 10 1 1.58 0.33
-10 -10 -1 11.34 0.66
10 -10 1 9.99 0.59
10 -10 1 9.81 0.57
10 -10 1 11.06 0.7
-10 -10 -1 9.72 0.62
-10 10 -1 10.11 0.53
10 10 1 9.35 0.7
-10 10 -1 9.6 0.57
10 10 1 9.33 0.69
12 -10 1 2.07 0.32
-12 -10 -1 1.65 0.36
-12 -10 -1 2.75 0.42
12 -10 1 1.55 0.37
-12 10 -1 2.47 0.36
12 10 1 2.86 0.48
12 10 1 1.92 0.43
-14 -10 -1 8.45 0.63
-14 -10 -1 8.18 0.63
14 -10 1 7.8 0.72
14 -10 1 8.51 0.53
-14 10 -1 8.43 0.58
14 10 1 9.13 0.89
14 10 1 9.21 0.83
-16 -10 -1 1.41 0.37
-16 -10 -1 1.29 0.35
16 -10 1 0.64 0.33
-16 10 -1 1.34 0.32
16 10 1 1.67 0.42
16 10 1 1.57 0.46
-18 -10 -1 1.87 0.42
18 -10 1 1.78 0.45
-18 -10 -1 2.5 0.45
-18 10 -1 1.97 0.37
18 10 1 2.02 0.54
-20 -10 -1 0 0.28
-20 -10 -1 0.1 0.29
20 -10 1 -0.19 0.3
-20 10 -1 0.06 0.25
20 10 1 -0.27 0.37
-22 -10 -1 0.16 0.34
22 -10 1 0.15 0.37
-22 -10 -1 -0.45 0.26
22 10 1 -0.54 0.35
-22 10 -1 -0.08 0.25
24 -10 1 0.12 0.4
-24 -10 -1 -0.05 0.34
-24 -10 -1 -0.23 0.35
-24 10 -1 -0.2 0.27
24 10 1 -0.35 0.46
26 -10 1 -0.01 0.41
-26 -10 -1 0.33 0.38
-26 -10 -1 -0.14 0.38
26 10 1 -0.3 0.5
-26 10 -1 0.03 0.32
-25 -11 1 16.74 1.24
-25 -11 1 17.43 1.14
25 -11 -1 16.2 1.18
25 11 -1 17.59 1.52
-25 11 1 16.94 1.05
-23 -11 1 14.67 0.99
-23 -11 1 16.16 1.17
23 -11 -1 15.73 1.09
23 11 -1 14.57 1.2
-23 11 1 14.93 0.95
-21 -11 1 11.01 1.05
-21 -11 1 14.37 0.92
21 -11 -1 11.31 0.97
-21 11 1 14.34 0.89
21 11 -1 11.33 1.11
19 -11 -1 2.83 0.52
-19 -11 1 3.1 0.59
-19 -11 1 2.8 0.49
-19 11 1 2.91 0.49
19 11 -1 2.11 0.52
-17 -11 1 16.52 1.01
17 -11 -1 18.72 1
17 -11 -1 18.08 0.9
-17 -11 1 16.25 0.91
-17 11 1 19.75 0.97
17 11 -1 17.18 1.07
15 -11 -1 19.28 0.92
-15 -11 1 19.11 0.94
-15 -11 1 18.89 1.03
15 -11 -1 19.01 0.99
15 11 -1 21.42 1.11
-15 11 1 19.77 0.97
-13 -11 1 45.81 1.69
13 -11 -1 49.35 1.63
13 -11 -1 48.63 1.63
13 -11 -1 46.85 1.55
-13 -11 1 47.98 1.57
13 11 -1 48.69 1.71
-13 11 1 47.61 1.61
11 -11 -1 8.67 0.62
11 -11 -1 8.59 0.63
-11 -11 1 9.95 0.72
-11 -11 1 9.24 0.61
11 -11 -1 8.94 0.66
11 11 -1 10.07 0.66
11 11 -1 9.11 0.68
-11 11 1 10.33 0.66
9 -11 -1 -0.04 0.22
-9 -11 1 0.38 0.2
9 -11 -1 0.11 0.22
-9 -11 1 0.24 0.23
9 -11 -1 0.7 0.27
9 11 -1 0.22 0.22
-9 11 1 -0.05 0.2
9 11 -1 0.05 0.19
-7 -11 1 0.36 0.23
7 -11 -1 0.02 0.22
7 -11 -1 0.19 0.22
7 -11 -1 0.46 0.22
-7 -11 1 0.35 0.2
-7 -11 1 0.16 0.21
7 11 -1 0.42 0.22
7 11 -1 0.12 0.18
-7 11 1 0.09 0.2
5 -11 -1 4.62 0.5
-5 -11 1 5.02 0.46
-5 -11 1 3.99 0.48
5 -11 -1 4.54 0.49
5 -11 -1 3.5 0.4
-5 -11 1 4.27 0.46
5 11 -1 4.02 0.45
-5 11 1 4.74 0.53
5 11 -1 4.46 0.47
3 -11 -1 4.35 0.48
3 -11 -1 5.13 0.5
-3 -11 1 3.85 0.4
3 -11 -1 4.31 0.44
-3 -11 1 4.4 0.47
-3 -11 1 4.7 0.5
3 11 -1 4.86 0.46
-3 11 1 4.93 0.37
3 11 -1 4.93 0.5
-3 11 1 4.9 0.52
1 -11 -1 5.51 0.45
1 -11 -1 6.03 0.55
-1 -11 1 6.31 0.44
-1 -11 1 6.23 0.49
-1 -11 1 6.25 0.57
1 -11 -1 6.01 0.57
-1 11 1 6.11 0.59
-1 11 1 5.52 0.41
1 11 -1 5.99 0.44
1 11 -1 6.3 0.47
-1 -11 -1 6.32 0.57
1 -11 1 6.34 0.5
-1 -11 -1 5.85 0.55
-1 -11 -1 5.98 0.43
1 -11 1 5.74 0.43
1 -11 1 5.95 0.55
1 11 1 6.55 0.63
1 11 1 6.19 0.46
-1 11 -1 6.29 0.47
-1 11 -1 5.78 0.41
3 -11 1 2.16 0.38
3 -11 1 1.73 0.32
-3 -11 -1 1.9 0.34
-3 -11 -1 1.41 0.31
3 -11 1 1.28 0.26
3 11 1 1.57 0.29
-3 11 -1 1.71 0.26
3 11 1 2.07 0.38
-3 11 -1 2.05 0.33
5 -11 1 0.09 0.21
-5 -11 -1 0.07 0.21
5 -11 1 0.33 0.22
-5 -11 -1 0.15 0.2
5 -11 1 0.16 0.18
-5 11 -1 -0.08 0.17
5 11 1 0.26 0.2
5 11 1 0.23 0.21
-5 11 -1 0.42 0.17
7 -11 1 8.62 0.64
7 -11 1 9.48 0.58
-7 -11 -1 8.49 0.61
-7 -11 -1 8.72 0.6
-7 11 -1 8.32 0.55
-7 11 -1 8.2 0.48
7 11 1 9.23 0.66
7 11 1 8.46 0.67
9 -11 1 57.57 1.88
9 -11 1 59.64 1.74
-9 -11 -1 58.14 1.84
-9 -11 -1 62.51 1.86
9 11 1 60.06 1.96
9 11 1 60.18 1.96
-9 11 -1 57.3 1.74
-11 -11 -1 19.25 0.93
-11 -11 -1 18.56 0.94
11 -11 1 19.59 0.84
11 -11 1 18.51 0.96
11 11 1 19 1.05
-11 11 -1 18.9 0.86
11 11 1 19.97 1.04
13 -11 1 31.22 1.31
13 -11 1 30.86 1.12
-13 -11 -1 30.64 1.27
-13 -11 -1 32.27 1.25
13 11 1 31.97 1.38
13 11 1 30.96 1.44
-13 11 -1 32.49 1.19
-15 -11 -1 6.14 0.64
15 -11 1 6.16 0.69
-15 -11 -1 6.17 0.67
-15 11 -1 6.73 0.63
15 11 1 5.37 0.75
15 11 1 6.74 0.77
-17 -11 -1 4.93 0.64
-17 -11 -1 5.06 0.62
17 -11 1 5.8 0.7
-17 11 -1 5.72 0.6
17 11 1 6.22 0.84
19 -11 1 11.37 0.92
-19 -11 -1 13.11 0.91
-19 -11 -1 12.98 0.85
-19 11 -1 13 0.81
19 11 1 12.72 1.25
-21 -11 -1 13.15 0.93
21 -11 1 12.4 1
-21 -11 -1 13.5 0.97
21 11 1 13.02 1.29
-21 11 -1 13.45 0.86
-23 -11 -1 8.81 0.86
-23 -11 -1 8.04 0.89
23 -11 1 5.86 0.79
23 11 1 6.53 1.05
-23 11 -1 6.86 0.71
-25 -11 -1 0.58 0.46
25 -11 1 0.02 0.47
-25 -11 -1 -0.03 0.38
25 11 1 0.85 0.76
-25 11 -1 0.06 0.33
22 -12 -1 0.27 0.4
-22 -12 1 -0.06 0.35
-22 -12 1 -0.17 0.38
22 12 -1 0.67 0.49
-22 12 1 0.23 0.35
-20 -12 1 1.63 0.47
20 -12 -1 1.79 0.48
-20 -12 1 2 0.55
20 12 -1 1.41 0.56
-20 12 1 1.51 0.44
18 -12 -1 0.13 0.33
-18 -12 1 0.39 0.33
-18 -12 1 0.28 0.36
18 12 -1 0.46 0.39
-18 12 1 -0.29 0.25
-16 -12 1 1.97 0.48
-16 -12 1 1.38 0.39
16 -12 -1 1.51 0.43
16 -12 -1 1.79 0.41
-16 12 1 2.49 0.45
16 12 -1 1.75 0.48
-14 -12 1 11.1 0.84
14 -12 -1 12.25 0.87
-14 -12 1 11.73 0.78
14 -12 -1 11.81 0.77
14 -12 -1 11.52 0.79
14 12 -1 10.86 0.85
-14 12 1 13.17 0.8
12 -12 -1 0.15 0.28
-12 -12 1 -0.03 0.22
-12 -12 1 -0.39 0.21
12 -12 -1 0.23 0.29
12 -12 -1 0.12 0.26
12 12 -1 0.32 0.28
-12 12 1 0.26 0.27
10 -12 -1 1.41 0.36
-10 -12 1 1.93 0.35
10 -12 -1 0.78 0.31
-10 -12 1 0.86 0.31
10 -12 -1 0.64 0.31
10 12 -1 1.18 0.34
10 12 -1 0.72 0.31
-10 12 1 0.49 0.26
8 -12 -1 10.84 0.69
8 -12 -1 11.28 0.7
-8 -12 1 9.95 0.63
8 -12 -1 9.8 0.69
-8 -12 1 10.77 0.73
8 12 -1 11.35 0.71
-8 12 1 9.36 0.68
8 12 -1 11.87 0.71
-6 -12 1 7.99 0.55
6 -12 -1 9.43 0.61
6 -12 -1 8.03 0.63
-6 -12 1 7.56 0.63
6 -12 -1 6.76 0.62
6 12 -1 9.36 0.63
6 12 -1 8.44 0.6
-6 12 1 7.97 0.73
-4 -12 1 6.61 0.6
4 -12 -1 6.06 0.55
-4 -12 1 6.94 0.58
4 -12 -1 7.08 0.64
4 -12 -1 7.32 0.66
-4 -12 1 6.61 0.49
4 12 -1 7.09 0.55
4 12 -1 6.82 0.53
-4 12 1 6.48 0.66
2 -12 -1 0.6 0.28
-2 -12 1 0.44 0.25
-2 -12 1 0.29 0.2
-2 -12 1 0.55 0.26
2 -12 -1 0.19 0.22
2 -12 -1 0.7 0.29
2 12 -1 0.74 0.26
2 12 -1 0.58 0.22
-2 12 1 0.3 0.26
0 -12 1 0.52 0.25
0 -12 -1 0.46 0.27
0 -12 -1 0.43 0.25
0 -12 1 0.45 0.22
0 -12 1 0.42 0.26
0 12 1 0.51 0.27
0 12 1 0.5 0.22
0 12 -1 0.36 0.23
0 12 -1 0.29 0.2
-2 -12 -1 4.85 0.53
-2 -12 -1 5.3 0.56
2 -12 1 4.08 0.51
2 -12 1 4.77 0.68
2 -12 1 6.01 0.57
2 12 1 4.74 0.57
2 12 1 5.09 0.5
-2 12 -1 5.45 0.43
-2 12 -1 5.17 0.53
4 -12 1 6.26 0.62
-4 -12 -1 6.25 0.6
-4 -12 -1 5.26 0.56
4 -12 1 5.79 0.56
-4 12 -1 5.96 0.43
4 12 1 5.4 0.61
4 12 1 6.02 0.58
-4 12 -1 6.71 0.52
-6 -12 -1 10.58 0.72
6 -12 1 11.61 0.77
-6 -12 -1 11.49 0.71
6 -12 1 9.9 0.64
6 12 1 10.88 0.77
6 12 1 10.61 0.73
-6 12 -1 10.45 0.55
-6 12 -1 10.04 0.65
-8 -12 -1 1.01 0.32
8 -12 1 1.98 0.36
-8 -12 -1 1.71 0.37
8 -12 1 1.63 0.39
-8 12 -1 1.21 0.31
8 12 1 0.34 0.29
8 12 1 1.81 0.42
10 -12 1 4.77 0.51
-10 -12 -1 4.76 0.59
10 -12 1 4.78 0.6
-10 -12 -1 4.39 0.54
10 12 1 4.72 0.63
-10 12 -1 5.31 0.55
10 12 1 3.08 0.54
-12 -12 -1 0.08 0.23
12 -12 1 0.24 0.23
12 -12 1 -0.12 0.28
-12 -12 -1 0.16 0.28
12 12 1 -0.08 0.28
12 12 1 0.28 0.3
-12 12 -1 0.44 0.25
14 -12 1 1.24 0.4
-14 -12 -1 0.67 0.32
-14 -12 -1 0.9 0.36
14 12 1 0.54 0.38
14 12 1 1.18 0.43
-14 12 -1 0.83 0.3
-16 -12 -1 5.49 0.7
-16 -12 -1 6.01 0.67
16 -12 1 5.3 0.68
16 12 1 5.58 0.81
-16 12 -1 5.39 0.6
-18 -12 -1 4.92 0.67
-18 -12 -1 5.07 0.64
18 -12 1 4.06 0.66
18 12 1 3.85 0.78
-18 12 -1 3.91 0.56
20 -12 1 0.68 0.44
-20 -12 -1 1.59 0.49
-20 -12 -1 2.06 0.49
-20 12 -1 1.45 0.4
20 12 1 0.84 0.55
22 -12 1 0.09 0.44
-22 -12 -1 0.32 0.41
-22 -12 -1 -0.11 0.34
-22 12 -1 0.25 0.33
22 12 1 0.22 0.47
21 -13 -1 9.22 0.96
-21 -13 1 7.9 0.96
-21 -13 1 8.7 0.87
-21 13 1 7.83 0.86
21 13 -1 9.12 1.1
-19 -13 1 2.04 0.56
-19 -13 1 0.77 0.4
19 -13 -1 1.08 0.47
-19 13 1 1.49 0.44
19 13 -1 2.17 0.63
17 -13 -1 5 0.68
-17 -13 1 6.13 0.79
-17 -13 1 6.33 0.71
17 13 -1 6.37 0.82
-17 13 1 5.33 0.66
15 -13 -1 10.49 0.84
15 -13 -1 9.88 0.77
-15 -13 1 10.75 0.89
-15 -13 1 10.54 0.77
-15 13 1 12.43 0.87
15 13 -1 9.17 0.92
-13 -13 1 9.03 0.77
-13 -13 1 7.53 0.79
13 -13 -1 8.66 0.72
13 -13 -1 7.91 0.77
13 13 -1 8.72 0.86
-13 13 1 7.89 0.79
11 -13 -1 8.01 0.75
11 -13 -1 8.57 0.69
-11 -13 1 7.66 0.76
-11 -13 1 7.81 0.63
-11 13 1 7.59 0.74
11 13 -1 8.66 0.83
-9 -13 1 0.41 0.26
9 -13 -1 0.43 0.29
9 -13 -1 0.83 0.34
9 -13 -1 0.29 0.29
-9 -13 1 1.13 0.39
-9 13 1 1.12 0.37
9 13 -1 0.6 0.32
9 13 -1 0.59 0.31
-7 -13 1 0.25 0.23
7 -13 -1 0.22 0.28
7 -13 -1 -0.03 0.25
7 -13 -1 0.33 0.28
-7 -13 1 -0.03 0.25
7 13 -1 0.05 0.25
-7 13 1 0.15 0.25
7 13 -1 -0.25 0.21
5 -13 -1 3.18 0.47
-5 -13 1 3.2 0.49
-5 -13 1 3.14 0.42
5 -13 -1 3.82 0.52
5 -13 -1 3.82 0.49
5 13 -1 3.69 0.47
-5 13 1 3.84 0.54
5 13 -1 4.04 0.52
3 -13 -1 18.76 0.93
-3 -13 1 16.87 0.91
-3 -13 1 17.83 0.91
3 -13 -1 18.05 0.94
-3 13 1 18.57 1
3 13 -1 18.81 0.93
3 13 -1 19.15 0.87
1 -13 -1 24.9 1.11
1 -13 -1 26.19 1.12
-1 -13 1 24.24 1.11
-1 -13 1 26.74 1.13
-1 13 1 25.44 1.18
1 13 -1 25.17 1.09
1 13 -1 26.62 1.02
-1 -13 -1 14.88 0.82
1 -13 1 12.8 0.77
-1 -13 -1 10.77 0.72
1 -13 1 12.86 0.81
-1 13 -1 13.23 0.67
-1 13 -1 11.59 0.73
1 13 1 12.44 0.71
1 13 1 12.35 0.84
3 -13 1 1.06 0.35
-3 -13 -1 0.91 0.33
3 -13 1 0.59 0.29
-3 -13 -1 0.75 0.3
-3 13 -1 0.43 0.22
-3 13 -1 0.4 0.24
3 13 1 0.65 0.27
3 13 1 0.56 0.31
5 -13 1 0.25 0.3
-5 -13 -1 -0.07 0.22
5 -13 1 0.55 0.27
-5 -13 -1 0.03 0.25
5 13 1 0.34 0.3
-5 13 -1 0.01 0.22
5 13 1 0.07 0.25
7 -13 1 5.66 0.66
7 -13 1 6.6 0.62
-7 -13 -1 7.54 0.69
-7 -13 -1 7.49 0.7
-7 13 -1 7.26 0.66
7 13 1 6.33 0.72
7 13 1 5.99 0.66
9 -13 1 13.51 0.91
-9 -13 -1 11.28 0.79
9 -13 1 12.21 0.75
-9 -13 -1 13.71 0.84
-9 13 -1 13.86 0.81
9 13 1 13.13 0.91
9 13 1 15.11 0.96
11 -13 1 19.82 1.11
-11 -13 -1 21.51 1.06
-11 -13 -1 20.19 1.06
11 -13 1 23.2 1
-11 13 -1 21.19 1
11 13 1 20.06 1.17
11 13 1 20.66 1.21
-13 -13 -1 3.83 0.6
-13 -13 -1 5.43 0.63
13 -13 1 4.05 0.63
13 13 1 4.96 0.74
-13 13 -1 4.42 0.56
13 13 1 3.12 0.6
-15 -13 -1 0.38 0.34
15 -13 1 0.69 0.4
-15 -13 -1 0.65 0.39
15 13 1 0.35 0.42
-15 13 -1 0.51 0.31
-17 -13 -1 8.54 0.83
17 -13 1 7.58 0.84
-17 -13 -1 9.47 0.93
-17 13 -1 7.62 0.73
17 13 1 7.49 1
-19 -13 -1 6.35 0.74
-19 -13 -1 5.92 0.79
19 -13 1 4.82 0.75
-19 13 -1 4.57 0.61
19 13 1 5.74 0.96
21 -13 1 2.84 0.67
-21 -13 -1 3.32 0.65
-21 -13 -1 2.67 0.59
21 13 1 2.66 0.77
-21 13 -1 3.31 0.58
-18 -14 1 12.91 0.94
-18 -14 1 13.69 1.11
18 -14 -1 13.12 1.13
18 14 -1 12.87 1.25
-18 14 1 12.58 0.98
16 -14 -1 3.9 0.64
-16 -14 1 2.85 0.53
-16 -14 1 4.46 0.73
16 14 -1 3.11 0.65
-16 14 1 4.02 0.65
14 -14 -1 2.22 0.49
-14 -14 1 2.41 0.5
14 -14 -1 2.65 0.52
-14 -14 1 2.38 0.55
-14 14 1 2.78 0.54
14 14 -1 2.38 0.58
12 -14 -1 -0.11 0.33
-12 -14 1 0.56 0.37
12 -14 -1 -0.03 0.3
-12 -14 1 0.68 0.32
-12 14 1 0.68 0.38
12 14 -1 0.38 0.37
10 -14 -1 4.17 0.56
-10 -14 1 5.01 0.59
-10 -14 1 2.96 0.55
10 -14 -1 3.64 0.56
10 14 -1 3.94 0.6
-10 14 1 3.6 0.57
8 -14 -1 5.66 0.64
-8 -14 1 7.55 0.77
8 -14 -1 6.19 0.67
-8 -14 1 7.06 0.84
-8 14 1 4.41 0.63
8 14 -1 5.7 0.68
8 14 -1 6.07 0.68
6 -14 -1 16.94 0.95
-6 -14 1 17.68 1.01
6 14 -1 16.52 0.96
-6 14 1 16.43 1
6 14 -1 16.7 0.93
-4 -14 1 12.92 0.84
4 -14 -1 11.69 0.79
4 -14 -1 10.72 0.78
4 14 -1 11.11 0.78
-4 14 1 9.72 0.9
4 14 -1 10.48 0.71
-2 -14 1 2.51 0.47
2 -14 -1 2.33 0.46
2 -14 -1 2.55 0.47
2 14 -1 2.56 0.41
-2 14 1 3.2 0.55
2 14 -1 2.34 0.45
0 -14 -1 3.42 0.5
0 -14 -1 4.49 0.59
0 -14 1 4.14 0.55
0 14 -1 3.53 0.5
0 14 1 3.53 0.56
0 14 -1 4.23 0.49
2 -14 1 13.48 0.82
2 -14 1 15.66 0.92
-2 -14 -1 15.07 0.9
-2 -14 -1 12.67 0.82
-2 14 -1 12.65 0.82
2 14 1 12.24 0.9
4 -14 1 13.93 0.85
-4 -14 -1 12.19 0.83
-4 -14 -1 15.02 0.92
4 -14 1 14.43 0.92
4 14 1 14.66 0.89
4 14 1 13.27 0.92
-4 14 -1 13.85 0.85
6 -14 1 19.19 0.99
6 -14 1 16.74 1.04
-6 -14 -1 18.71 1.02
-6 -14 -1 21.45 1.04
6 14 1 18.32 1.1
6 14 1 19.22 1.06
-6 14 -1 19.09 1
-8 -14 -1 10.98 0.8
-8 -14 -1 11.75 0.83
8 -14 1 11.44 0.76
8 -14 1 10.64 0.86
-8 14 -1 11.28 0.78
8 14 1 11.55 0.9
8 14 1 12.42 0.93
10 -14 1 1.02 0.41
-10 -14 -1 0.21 0.35
-10 -14 -1 1.02 0.36
10 -14 1 0.94 0.35
10 14 1 0.45 0.41
-10 14 -1 0.88 0.34
10 14 1 0.36 0.37
12 -14 1 2.67 0.59
-12 -14 -1 2.32 0.48
-12 -14 -1 2.01 0.49
12 14 1 3.03 0.61
12 14 1 2.18 0.54
-12 14 -1 2.63 0.49
14 -14 1 9.3 0.96
-14 -14 -1 10.61 0.85
-14 -14 -1 9.83 0.92
14 14 1 10.1 1.09
-14 14 -1 8.63 0.8
-16 -14 -1 16.88 1.13
16 -14 1 14.72 1.13
-16 -14 -1 17.58 1.08
-16 14 -1 16.52 1
16 14 1 19.07 1.36
18 -14 1 4.59 0.77
-18 -14 -1 4.82 0.74
-18 -14 -1 5.68 0.73
-18 14 -1 4.35 0.61
18 14 1 4.66 0.89
15 -15 -1 1.08 0.51
-15 -15 1 1.82 0.53
-15 15 1 1.96 0.54
15 15 -1 1.67 0.55
-13 -15 1 3.07 0.61
13 -15 -1 2.11 0.51
13 -15 -1 3.07 0.58
13 15 -1 2.79 0.62
-13 15 1 1.71 0.47
11 -15 -1 0.6 0.39
-11 -15 1 0.67 0.43
11 -15 -1 1.08 0.55
-11 15 1 0.36 0.37
11 15 -1 1.17 0.44
9 -15 -1 -0.15 0.32
-9 -15 1 0.38 0.36
-9 15 1 -0.5 0.27
9 15 -1 0.19 0.35
-7 -15 1 0.43 0.36
7 -15 -1 0.51 0.35
7 15 -1 0.56 0.37
-7 15 1 0.15 0.34
7 15 -1 0.39 0.34
-5 -15 1 0.77 0.38
5 -15 -1 1.01 0.4
-5 15 1 0.84 0.39
5 15 -1 0.45 0.32
5 15 -1 0.54 0.35
-3 -15 1 4.86 0.65
3 -15 -1 4.36 0.62
3 15 -1 4.54 0.62
-3 15 1 5.54 0.71
3 15 -1 5.19 0.59
-1 -15 1 6.64 0.74
1 -15 -1 6.23 1.05
1 -15 -1 5.86 0.69
1 15 -1 7.39 0.76
1 15 -1 7.08 0.95
-1 15 1 5.6 0.73
-1 -15 -1 4.92 0.62
-1 -15 -1 6.72 0.74
1 -15 1 5.56 0.68
1 15 1 5.87 0.75
-1 15 -1 6.25 0.72
-3 -15 -1 4.13 0.58
3 -15 1 3.79 0.57
-3 -15 -1 4 0.61
-3 15 -1 3.09 0.53
3 15 1 2.95 0.58
5 -15 1 0.29 0.37
-5 -15 -1 0.06 0.33
5 -15 1 0.17 0.3
-5 -15 -1 -0.01 0.3
-5 15 -1 0 0.3
5 15 1 0.26 0.36
-7 -15 -1 2.65 0.51
-7 -15 -1 1.85 0.48
7 -15 1 2.44 0.55
7 -15 1 2.27 0.47
-7 15 -1 2.32 0.47
7 15 1 2.72 0.54
7 15 1 2.24 0.58
9 -15 1 5.32 0.75
-9 -15 -1 5.84 0.7
-9 -15 -1 5.32 0.69
9 -15 1 6.32 0.68
9 15 1 5.61 0.79
-9 15 -1 6.63 0.73
9 15 1 5.89 0.81
11 -15 1 1.52 0.51
-11 -15 -1 1.84 0.51
-11 -15 -1 2.84 0.54
11 15 1 1.99 0.58
-11 15 -1 1.75 0.46
11 15 1 1.85 0.57
13 -15 1 0.53 0.45
-13 -15 -1 -0.14 0.34
-13 -15 -1 0.23 0.34
-13 15 -1 0.5 0.38
13 15 1 0.02 0.41
-15 -15 -1 1.09 0.49
-15 -15 -1 1.07 0.45
15 -15 1 1.13 0.52
15 15 1 1.12 0.54
-15 15 -1 0.34 0.38
12 -16 -1 0.38 0.43
-12 -16 1 0.75 0.49
12 16 -1 0.42 0.46
-12 16 1 -0.05 0.38
10 -16 -1 3.44 0.6
-10 -16 1 3.55 0.66
-10 16 1 3.56 0.7
10 16 -1 2.8 0.58
-8 -16 1 3.59 0.65
8 -16 -1 3.01 0.55
8 16 -1 2.59 0.54
-8 16 1 2.46 0.57
6 -16 -1 5.64 0.7
-6 -16 1 5.27 0.74
-6 16 1 5.71 0.79
6 16 -1 6.32 0.73
-4 -16 1 8.64 0.87
4 -16 -1 8.13 0.83
4 16 -1 7.12 0.81
-4 16 1 8.31 0.91
4 16 -1 6.98 0.96
2 -16 -1 0.62 0.39
-2 -16 1 0.6 0.39
-2 16 1 0.57 0.44
2 16 -1 0.88 0.4
0 -16 1 2.15 0.52
0 -16 -1 1.93 0.52
0 16 -1 2.76 0.55
0 16 1 1.82 0.52
2 -16 1 8.32 0.83
-2 -16 -1 8.95 0.91
-2 16 -1 7.69 0.83
2 16 1 7.55 0.88
-4 -16 -1 9.11 0.88
4 -16 1 10.59 0.87
-4 16 -1 9.85 0.92
4 16 1 11.02 1.07
6 -16 1 14.14 0.93
-6 -16 -1 13.02 0.97
-6 -16 -1 12.92 0.97
-6 16 -1 13.28 0.97
6 16 1 12.76 1.2
-8 -16 -1 8.41 0.91
-8 -16 -1 7.65 0.79
8 -16 1 6.87 0.79
8 -16 1 7.05 1.13
-8 16 -1 9 0.89
8 16 1 6.03 0.83
-10 -16 -1 0.38 0.41
-10 -16 -1 -0.29 0.34
10 -16 1 -0.5 0.43
-10 16 -1 -0.08 0.32
10 16 1 -0.25 0.43
10 16 1 -0.57 0.46
12 -16 1 0.18 0.46
-12 -16 -1 0.07 0.48
12 16 1 0.04 0.45
-12 16 -1 -0.18 0.36
5 -17 -1 0.45 0.43
-5 -17 1 -0.53 0.35
-5 17 1 0.78 0.5
-3 -17 1 3.72 0.65
3 -17 -1 3.62 0.65
-3 17 1 2.64 0.67
3 17 -1 3.52 0.67
-1 -17 1 2.06 0.55
1 -17 -1 2.77 0.62
-1 17 1 2.89 0.62
1 17 -1 2.66 0.58
-1 -17 -1 2.72 0.56
1 -17 1 0.89 0.44
-1 17 -1 2.15 0.54
1 17 1 2.11 0.61
3 -17 1 0.73 0.42
-3 -17 -1 0.58 0.43
-3 17 -1 1.11 0.49
3 17 1 0.34 0.49
-5 -17 -1 0.85 0.46
5 -17 1 0.65 0.43
5 17 1 0.98 0.54
-5 17 -1 1.32 0.49
32 0 -2 0.51 0.37
-30 0 2 3.06 0.6
30 0 -2 1.59 0.4
-28 0 2 1.44 0.47
-28 0 2 1.63 0.48
28 0 -2 1.48 0.36
-26 0 2 13.65 0.91
26 0 -2 15.39 1.62
-26 0 2 12.27 0.89
26 0 -2 12.23 0.74
24 0 -2 11.29 0.8
24 0 -2 13.07 0.7
-24 0 2 11.3 0.79
-24 0 2 12.91 0.85
-22 0 2 12.23 0.76
22 0 -2 12.56 0.77
-22 0 2 14.4 0.83
22 0 -2 12.73 0.66
20 0 -2 1.83 0.29
-20 0 2 1.95 0.39
-20 0 2 1.38 0.26
20 0 -2 2.23 0.36
-20 0 2 1.64 0.34
-18 0 2 17.31 0.56
-18 0 2 16.81 0.79
18 0 -2 16.69 0.75
-18 0 2 14.9 0.78
18 0 -2 14.91 0.65
-16 0 2 53.28 1.29
16 0 -2 52.01 1.49
16 0 -2 52.65 1.43
-16 0 2 53.78 1.62
-16 0 2 49.46 1.54
14 0 -2 35.06 1.04
-14 0 2 35.76 1.19
-14 0 2 35.96 0.9
14 0 -2 35.86 1.06
-14 0 2 36.09 1.15
-12 0 2 163.4 3.79
12 0 -2 162.32 3.66
-12 0 2 161.5 3.52
-12 0 2 164.26 3.85
12 0 -2 161.35 3.68
10 0 -2 13.16 0.45
-10 0 2 12.65 0.57
10 0 -2 12.91 0.48
-10 0 2 12.9 0.54
-10 0 2 13.36 0.37
-8 0 2 54.72 1.24
8 0 -2 55.57 1.3
8 0 -2 55.06 1.37
-8 0 2 53.77 1.41
-8 0 2 55.08 1.47
-6 0 2 48.94 1.09
6 0 -2 48.45 1.14
-6 0 2 47.12 1.27
6 0 -2 45.59 1.19
-6 0 2 47.49 1.22
-4 0 2 991.14 20.73
4 0 -2 971.37 20.67
-4 0 2 999.71 20.59
-4 0 2 1000 20.7
4 0 -2 948.19 20.63
-2 0 2 115.29 2.63
-2 0 2 119.36 2.6
-2 0 2 117.18 2.65
2 0 -2 114.23 2.64
-2 0 2 119.14 2.67
0 0 2 66.84 1.58
0 0 2 69.53 1.69
0 0 -2 69.76 1.62
0 0 2 67.41 1.6
0 0 2 69.12 1.64
-2 0 -2 34.27 0.84
-2 0 -2 34.62 0.81
2 0 2 35.19 0.83
-2 0 -2 32.78 0.92
2 0 2 33.11 0.87
2 0 2 33.9 0.95
2 0 2 34.33 1
-4 0 -2 119.25 2.53
4 0 2 118.57 2.64
-4 0 -2 116.39 2.61
4 0 2 115.38 2.82
-4 0 -2 119.14 2.55
4 0 2 117.07 2.78
4 0 2 118.12 2.54
-4 0 -2 119.54 2.74
-6 0 -2 62.16 1.48
6 0 2 63.88 1.68
-6 0 -2 62.34 1.38
6 0 2 64.58 1.72
6 0 2 62.66 1.38
6 0 2 62.59 1.5
-6 0 -2 65.1 1.64
-8 0 -2 188.91 4.06
-8 0 -2 191.37 4.36
8 0 2 190.01 4.47
8 0 2 191.14 4.19
-8 0 -2 191.98 4.18
10 0 2 150.18 3.67
-10 0 -2 148.17 3.54
-10 0 -2 151.28 3.25
-10 0 -2 148.03 3.36
10 0 2 148.79 3.37
-12 0 -2 4.9 0.24
-12 0 -2 5.32 0.3
12 0 2 4.63 0.48
12 0 2 5.13 0.3
-12 0 -2 5.84 0.4
-14 0 -2 -0.22 0.11
14 0 2 -0.07 0.08
-14 0 -2 0.08 0.1
14 0 2 0.26 0.18
-14 0 -2 0.23 0.1
16 0 2 43.72 1.62
-16 0 -2 47.09 1.48
-16 0 -2 46.96 1.34
-16 0 -2 47.25 1.24
16 0 2 47.3 1.34
-18 0 -2 25.06 0.82
-18 0 -2 25.24 1.01
-18 0 -2 25.41 0.91
18 0 2 26.28 1.21
18 0 2 25.03 0.9
-20 0 -2 0.45 0.24
20 0 2 0.41 0.2
20 0 2 0.83 0.35
-20 0 -2 0.24 0.18
-22 0 -2 51.29 1.6
22 0 2 51.86 1.99
-22 0 -2 52.55 1.69
22 0 2 46.6 1.53
-24 0 -2 14.23 0.79
-24 0 -2 15.11 0.85
24 0 2 14.47 1.08
24 0 2 13.01 0.75
-26 0 -2 0.67 0.3
26 0 2 1.14 0.33
-26 0 -2 0.94 0.35
26 0 2 0.44 0.42
28 0 2 7.85 0.73
28 0 2 7.53 1.05
-28 0 -2 6.13 0.69
-28 0 -2 7.43 0.76
-30 0 -2 15.68 1.01
30 0 2 13.74 1.43
-32 0 -2 13.78 1.06
32 0 2 13.76 1.5
31 -1 -2 0.33 0.33
-31 -1 2 -0.11 0.39
31 1 -2 0.22 0.32
29 -1 -2 1.74 0.42
-29 -1 2 1.48 0.51
-29 -1 2 1.83 0.54
29 1 -2 1.59 0.4
-27 -1 2 6.37 0.77
-27 -1 2 5.37 0.69
27 -1 -2 6.07 0.6
27 1 -2 5.41 0.73
-27 1 2 5.72 0.71
27 1 -2 6.36 0.6
25 -1 -2 -0.2 0.19
-25 -1 2 -0.16 0.26
-25 -1 2 0.15 0.3
25 1 -2 0.04 0.2
25 1 -2 0.12 0.29
-25 1 2 0.04 0.27
-25 1 2 0.48 0.3
-23 -1 2 0.17 0.26
23 -1 -2 0.62 0.3
23 -1 -2 0.14 0.2
-23 -1 2 0.28 0.26
-23 1 2 0.15 0.27
-23 1 2 -0.41 0.2
23 1 -2 0.47 0.28
23 1 -2 0.19 0.2
-21 -1 2 5.21 0.59
21 -1 -2 5.72 0.58
-21 -1 2 5.8 0.6
21 -1 -2 5.7 0.45
-21 1 2 5.02 0.4
-21 1 2 4.3 0.53
21 1 -2 5.63 0.58
-21 1 2 5.12 0.58
21 1 -2 5.68 0.44
-19 -1 2 5.53 0.54
19 -1 -2 4.04 0.39
19 -1 -2 4.6 0.47
-19 -1 2 5.48 0.56
-19 1 2 6.18 0.55
-19 1 2 4.32 0.5
19 1 -2 4.77 0.5
19 1 -2 5.46 0.39
-19 1 2 4.74 0.31
-17 -1 2 0.02 0.16
17 -1 -2 -0.01 0.12
-17 -1 2 0.05 0.09
17 -1 -2 0.01 0.14
-17 -1 2 0.07 0.15
-17 1 2 0.18 0.19
17 1 -2 -0.03 0.11
-17 1 2 -0.06 0.08
17 1 -2 0 0.14
-17 1 2 0.17 0.17
-15 -1 2 17.59 0.79
-15 -1 2 17.98 0.52
15 -1 -2 18.54 0.67
-15 -1 2 16.66 0.73
15 -1 -2 19.23 0.7
-15 1 2 18.11 0.57
15 1 -2 18.87 0.68
-15 1 2 17.64 0.76
15 1 -2 19.34 0.72
-15 1 2 18.05 0.8
-13 -1 2 4.61 0.36
13 -1 -2 4.05 0.29
-13 -1 2 4.42 0.19
13 -1 -2 4.61 0.29
-13 -1 2 3.82 0.39
-13 1 2 4.59 0.36
13 1 -2 4.44 0.3
-13 1 2 4.49 0.43
13 1 -2 4.07 0.29
-13 1 2 4.2 0.23
11 -1 -2 1.33 0.16
-11 -1 2 1.14 0.2
11 -1 -2 1.39 0.18
-11 -1 2 1.1 0.21
-11 -1 2 1.28 0.09
11 1 -2 1.12 0.16
-11 1 2 1.16 0.13
-11 1 2 1.46 0.24
11 1 -2 1.2 0.18
9 -1 -2 0.2 0.07
-9 -1 2 0.11 0.11
-9 -1 2 0.15 0.1
9 -1 -2 0.3 0.09
-9 1 2 0.39 0.08
-9 1 2 0.09 0.11
9 1 -2 0.25 0.09
9 1 -2 0.32 0.1
7 -1 -2 2.66 0.14
7 -1 -2 3.1 0.2
-7 -1 2 2.91 0.22
-7 -1 2 2.64 0.27
-7 -1 2 2.79 0.21
-7 1 2 3.25 0.17
-7 1 2 2.42 0.25
7 1 -2 2.96 0.21
7 1 -2 2.75 0.18
-5 -1 2 0.19 0.08
5 -1 -2 0.03 0.05
-5 -1 2 0.12 0.07
5 -1 -2 0.1 0.04
-5 -1 2 0.1 0.08
5 1 -2 0.01 0.06
-5 1 2 0.05 0.07
5 1 -2 0.15 0.07
-5 1 2 0.12 0.06
3 -1 -2 66.2 1.53
-3 -1 2 66.12 1.6
3 -1 -2 64.98 1.53
-3 -1 2 65.63 1.59
-3 -1 2 66.4 1.5
3 1 -2 65.5 1.49
3 1 -2 64.95 1.48
-3 1 2 68.68 1.63
-3 1 2 68.07 1.55
3 1 -2 67.44 1.59
-3 1 2 64.96 1.55
-3 1 2 65.92 1.54
-1 -1 2 27.06 0.72
1 -1 -2 26.41 0.69
-1 -1 2 26.5 0.8
-1 -1 2 26.04 0.71
-1 -1 2 27.27 0.76
-1 1 2 26.2 0.7
-1 1 2 27.35 0.76
-1 1 2 25.34 0.74
1 1 -2 26.75 0.7
1 1 -2 26.93 0.78
-1 1 2 27.15 0.74
1 -1 2 23.93 0.6
1 -1 2 22.42 0.74
-1 -1 -2 23.57 0.64
1 -1 2 22.71 0.66
-1 -1 -2 22.17 0.61
1 1 2 21.96 0.7
-1 1 -2 23.08 0.65
1 1 2 21.71 0.62
1 1 2 22.71 0.6
-1 1 -2 22.48 0.56
1 1 2 21.84 0.69
3 -1 2 46.42 1.32
3 -1 2 48.45 1.07
-3 -1 -2 47.51 1.11
3 -1 2 48.59 1.2
-3 -1 -2 47.81 1.17
-3 1 -2 47.64 1.06
-3 1 -2 47.76 1.08
-3 1 -2 46.09 1.22
3 1 2 48.1 1.12
3 1 2 47.08 1.29
3 1 2 47.16 1.27
-5 -1 -2 36.96 1.04
5 -1 2 35.06 1.1
5 -1 2 36.06 0.95
-5 -1 -2 35.29 0.85
-5 -1 -2 35.11 0.93
5 1 2 35.8 0.88
5 1 2 35.94 1.07
5 1 2 35.35 1.08
-5 1 -2 35.4 0.85
-5 1 -2 34.4 1
7 -1 2 13.77 0.62
7 -1 2 13.92 0.49
-7 -1 -2 13.37 0.39
-7 -1 -2 14 0.57
-7 -1 -2 13.34 0.47
-7 1 -2 13.86 0.42
7 1 2 14.04 0.6
-7 1 -2 14.01 0.56
7 1 2 14.45 0.63
7 1 2 13.15 0.42
9 -1 2 42.62 1.14
-9 -1 -2 42.6 1.25
-9 -1 -2 41.12 1.02
-9 -1 -2 41.08 1.11
9 -1 2 40.49 1.32
9 1 2 42.62 1.3
-9 1 -2 42.58 1.06
9 1 2 40.72 1.32
9 1 2 42.43 1.06
-9 1 -2 41.59 1.23
11 -1 2 0.4 0.13
-11 -1 -2 0.27 0.1
11 -1 2 0.64 0.21
-11 -1 -2 0.37 0.09
-11 -1 -2 0.38 0.16
-11 1 -2 0.21 0.09
-11 1 -2 0.68 0.18
-11 1 -2 0.28 0.07
11 1 2 0.28 0.17
11 1 2 0.55 0.12
11 1 2 0.31 0.16
13 -1 2 3.6 0.29
13 -1 2 4 0.47
-13 -1 -2 3.66 0.28
-13 -1 -2 3.57 0.23
-13 -1 -2 3.54 0.39
13 1 2 3.66 0.45
-13 1 -2 3.56 0.21
-13 1 -2 4.29 0.27
13 1 2 3.62 0.25
-13 1 -2 4.11 0.41
15 -1 2 12.25 0.56
15 -1 2 12.03 0.74
-15 -1 -2 13.69 0.68
-15 -1 -2 12.44 0.56
-15 -1 -2 13.04 0.5
-15 1 -2 13.6 0.47
-15 1 -2 14.25 0.56
15 1 2 12.71 0.76
-15 1 -2 12.27 0.64
15 1 2 12.46 0.52
-17 -1 -2 0.13 0.13
-17 -1 -2 0.08 0.12
17 -1 2 0.06 0.14
17 -1 2 0.18 0.22
-17 -1 -2 0.06 0.17
17 1 2 0.27 0.22
17 1 2 0.27 0.14
-17 1 -2 -0.08 0.15
-17 1 -2 0 0.11
-17 1 -2 0.02 0.12
-19 -1 -2 2.99 0.41
-19 -1 -2 2.45 0.33
19 -1 2 2.74 0.34
19 -1 2 3.27 0.52
-19 -1 -2 2.75 0.31
19 1 2 3.07 0.55
-19 1 -2 2.39 0.37
-19 1 -2 3.22 0.37
19 1 2 2.99 0.33
-21 -1 -2 3.37 0.47
21 -1 2 3.98 0.45
-21 -1 -2 3.6 0.43
21 -1 2 3.75 0.6
-21 1 -2 3.34 0.46
21 1 2 2.35 0.52
-21 1 -2 4.07 0.44
21 1 2 4.01 0.41
23 -1 2 8.96 0.97
-23 -1 -2 6.14 0.59
23 -1 2 8.39 0.6
-23 -1 -2 7.51 0.69
23 1 2 9.66 1.01
-23 1 -2 8.45 0.64
23 1 2 7.13 0.53
-23 1 -2 7.75 0.58
-25 -1 -2 9.69 0.7
25 -1 2 7.75 0.93
-25 -1 -2 9.32 0.8
25 -1 2 8.12 0.64
-25 1 -2 8.63 0.66
25 1 2 7.62 0.59
-25 1 -2 9.11 0.69
25 1 2 9.76 1.07
27 -1 2 1.92 0.62
-27 -1 -2 1.37 0.39
27 -1 2 1.27 0.36
-27 -1 -2 1.57 0.42
27 1 2 1.12 0.53
-27 1 -2 1.24 0.38
-27 1 -2 1.56 0.39
27 1 2 0.89 0.31
29 -1 2 0.59 0.5
29 -1 2 0.45 0.38
-29 -1 -2 -0.25 0.27
29 1 2 -0.11 0.48
-29 1 -2 -0.07 0.3
-29 1 -2 -0.5 0.31
31 -1 2 -0.01 0.6
31 -1 2 0.18 0.42
-31 -1 -2 0.13 0.37
-31 1 -2 0.24 0.4
31 1 2 -0.25 0.51
32 -2 -2 3.74 0.62
-32 -2 2 4.54 0.77
32 2 -2 3.44 0.54
-30 -2 2 4.35 0.7
-30 -2 2 3.57 0.7
30 -2 -2 3.24 0.52
30 2 -2 3.93 0.52
28 -2 -2 4.41 0.55
-28 -2 2 4.84 0.68
-28 -2 2 4.46 0.69
28 2 -2 4.77 0.53
28 2 -2 4.2 0.72
-28 2 2 3.46 0.9
-26 -2 2 1.88 0.48
-26 -2 2 1.9 0.47
26 -2 -2 1.57 0.35
-26 2 2 1.44 0.44
26 2 -2 2.23 0.39
26 2 -2 2.25 0.51
-24 -2 2 11.81 0.82
24 -2 -2 11.94 0.7
-24 -2 2 13.22 0.88
24 2 -2 12.14 0.85
-24 2 2 11.72 0.82
24 2 -2 11.99 0.66
-22 -2 2 0.35 0.27
-22 -2 2 0.17 0.24
22 -2 -2 0.75 0.25
-22 2 2 0.67 0.3
22 2 -2 0.5 0.28
22 2 -2 0.49 0.22
-22 2 2 0.39 0.2
20 -2 -2 2.03 0.31
20 -2 -2 2.11 0.36
-20 -2 2 1.73 0.38
-20 -2 2 1.92 0.35
-20 2 2 2.43 0.28
20 2 -2 2.26 0.32
-20 2 2 2.46 0.41
20 2 -2 1.97 0.37
18 -2 -2 18.46 0.74
-18 -2 2 19.05 0.89
18 -2 -2 17.63 0.76
-18 -2 2 18.3 0.83
-18 2 2 19.53 0.88
-18 2 2 18.24 0.65
18 2 -2 18.43 0.83
18 2 -2 19.92 0.74
16 -2 -2 34.28 1.08
-16 -2 2 33.27 1.2
16 -2 -2 33.58 1.06
-16 -2 2 34.72 0.87
-16 -2 2 34.75 1.17
16 2 -2 36.41 1.15
-16 2 2 35.05 1.21
-16 2 2 33.72 0.97
16 2 -2 35.47 1.06
14 -2 -2 78.19 1.97
14 -2 -2 82.3 2.01
-14 -2 2 80.66 2.1
-14 -2 2 79.63 2.17
-14 2 2 77.84 2.15
14 2 -2 79.44 2
-14 2 2 81.46 1.91
14 2 -2 80.21 2.05
12 -2 -2 54.24 1.35
-12 -2 2 54.2 1.54
-12 -2 2 53.21 1.48
12 -2 -2 55.81 1.41
-12 2 2 52.92 1.54
12 2 -2 51 1.4
12 2 -2 55.51 1.43
-12 2 2 52.65 1.33
-10 -2 2 9.97 0.46
10 -2 -2 11.28 0.38
-10 -2 2 10.71 0.47
-10 -2 2 10.55 0.52
10 -2 -2 11.21 0.43
10 2 -2 10.96 0.45
10 2 -2 11.78 0.45
-10 2 2 11.15 0.53
-10 2 2 10.73 0.39
8 -2 -2 2.69 0.2
-8 -2 2 3.2 0.25
-8 -2 2 3.53 0.33
8 -2 -2 3.09 0.15
-8 -2 2 2.87 0.22
8 2 -2 3.06 0.23
-8 2 2 3.37 0.32
-8 2 2 3.09 0.19
8 2 -2 3.15 0.21
-6 -2 2 40.5 1.12
6 -2 -2 40.91 1.04
-6 -2 2 41.48 1.14
6 -2 -2 40.75 0.92
-6 -2 2 41.8 1.07
6 -2 -2 40.62 0.99
-6 2 2 42.33 1
-6 2 2 40.65 1.16
-6 2 2 42.22 1.04
6 2 -2 39.48 1.09
6 2 -2 41.7 1.06
-4 -2 2 0.76 0.11
4 -2 -2 0.49 0.08
-4 -2 2 0.6 0.07
-4 -2 2 0.73 0.13
-4 -2 2 0.75 0.13
4 -2 -2 0.49 0.09
4 -2 -2 0.75 0.08
-4 2 2 0.68 0.11
4 2 -2 0.62 0.06
-4 2 2 0.75 0.14
4 2 -2 0.65 0.12
-4 2 2 0.6 0.08
4 2 -2 0.82 0.09
2 -2 -2 47.3 1.21
-2 -2 2 47.32 1.18
-2 -2 2 45.94 1.23
2 -2 -2 47.16 1.12
-2 -2 2 47.61 1.11
2 2 -2 47.24 1.23
-2 2 2 47.5 1.23
-2 2 2 48.57 1.17
-2 2 2 47.3 1.2
2 2 -2 48.89 1.11
0 -2 -2 3.96 0.23
0 -2 2 3.93 0.28
0 -2 -2 3.83 0.16
0 -2 2 3.48 0.18
0 -2 2 3.5 0.23
0 -2 -2 3.74 0.21
0 2 2 3.84 0.22
0 2 2 3.53 0.23
0 2 2 3.96 0.17
0 2 -2 3.65 0.25
0 2 2 3.56 0.23
0 2 -2 3.58 0.13
0 2 -2 3.56 0.19
-2 -2 -2 0.95 0.11
-2 -2 -2 0.96 0.14
-2 -2 -2 0.68 0.09
2 -2 2 0.83 0.14
2 -2 2 0.93 0.09
2 -2 2 0.68 0.15
2 2 2 0.49 0.12
2 2 2 0.93 0.09
2 2 2 0.81 0.14
-2 2 -2 0.86 0.13
-2 2 -2 0.62 0.13
4 -2 2 43.07 0.96
4 -2 2 44.7 1.14
-4 -2 -2 44.15 0.97
4 -2 2 42.51 0.97
-4 -2 -2 42.17 1.04
4 -2 2 43.96 1.27
-4 -2 -2 41.07 1.11
-4 2 -2 42.34 0.94
-4 2 -2 42.09 1.14
-4 2 -2 42.42 0.95
4 2 2 43.44 0.98
4 2 2 43.62 1.22
4 2 2 41.75 1.2
-6 -2 -2 61.99 1.51
6 -2 2 58.73 1.67
-6 -2 -2 59.49 1.41
6 -2 2 57.99 1.51
6 2 2 61.85 1.66
-6 2 -2 58.81 1.35
6 2 2 60.59 1.36
-6 2 -2 61.08 1.55
6 2 2 61.24 1.64
-8 -2 -2 188.05 4.09
-8 -2 -2 194.09 4.33
8 -2 2 182.73 4.41
8 -2 2 183.03 4.2
-8 -2 -2 184.04 4.19
-8 2 -2 187.82 4.27
8 2 2 194.58 4.43
8 2 2 188.05 4.38
8 2 2 185.76 4.05
-8 2 -2 187.11 4.06
-10 -2 -2 61.66 1.5
10 -2 2 59.87 1.81
10 -2 2 61.34 1.62
-10 -2 -2 62.56 1.72
-10 -2 -2 61.07 1.59
10 2 2 64.11 1.84
10 2 2 63.66 1.48
-10 2 -2 62.18 1.68
-10 2 -2 63.29 1.51
10 2 2 65.28 1.8
12 -2 2 43.42 0.98
12 -2 2 42.32 1.43
-12 -2 -2 40.84 1.11
-12 -2 -2 41.42 1.32
-12 -2 -2 40.9 1.19
12 -2 2 40.5 1.21
-12 2 -2 41.26 0.99
-12 2 -2 41.49 1.27
-12 2 -2 42.71 1.12
12 2 2 43.97 1.46
12 2 2 43.07 1.39
12 2 2 42.1 1.09
14 -2 2 13.33 0.59
-14 -2 -2 14.07 0.59
-14 -2 -2 13.19 0.67
-14 -2 -2 13.56 0.52
14 -2 2 13.89 0.77
-14 2 -2 12.84 0.53
14 2 2 13.19 0.77
14 2 2 13.01 0.5
14 2 2 13.53 0.72
-14 2 -2 13.53 0.43
-14 2 -2 13.85 0.66
-16 -2 -2 1.78 0.24
-16 -2 -2 1.58 0.32
-16 -2 -2 2.05 0.29
16 -2 2 1.57 0.36
16 -2 2 1.24 0.24
-16 2 -2 1.74 0.19
16 2 2 1.64 0.22
-16 2 -2 2.07 0.34
-16 2 -2 1.91 0.26
16 2 2 2.35 0.45
-18 -2 -2 7.93 0.57
-18 -2 -2 7.29 0.49
18 -2 2 9.86 0.73
-18 -2 -2 8.74 0.47
18 -2 2 7.81 0.51
18 2 2 7.44 0.76
-18 2 -2 8.54 0.49
18 2 2 8.31 0.44
-18 2 -2 8.44 0.56
20 -2 2 15.41 0.76
-20 -2 -2 15.76 0.7
-20 -2 -2 15.6 0.83
-20 -2 -2 16.49 0.76
20 -2 2 16.33 1.01
20 2 2 17.65 1.06
-20 2 -2 16.69 0.82
20 2 2 14.7 0.66
-20 2 -2 15.61 0.73
-22 -2 -2 0.97 0.31
22 -2 2 1.78 0.49
22 -2 2 1.58 0.35
-22 -2 -2 1.57 0.32
-22 2 -2 1.63 0.35
22 2 2 1.57 0.44
22 2 2 1.29 0.26
-22 2 -2 1.46 0.31
24 -2 2 0.02 0.24
-24 -2 -2 -0.1 0.24
24 -2 2 -0.04 0.33
-24 -2 -2 0.33 0.25
-24 2 -2 0.25 0.24
24 2 2 0.25 0.2
-24 2 -2 0.24 0.23
24 2 2 0.78 0.42
-26 -2 -2 1.97 0.42
26 -2 2 2.37 0.47
26 -2 2 2.08 0.59
-26 -2 -2 3.09 0.5
-26 2 -2 2.45 0.44
-26 2 -2 2.03 0.43
26 2 2 2.31 0.64
28 -2 2 2.57 0.51
-28 -2 -2 2.22 0.48
28 -2 2 2.41 0.69
28 2 2 3.14 0.74
-28 2 -2 2.52 0.49
-28 2 -2 2.23 0.47
30 -2 2 7.9 0.85
-30 -2 -2 10 0.92
-30 2 -2 9.44 0.91
30 2 2 8.54 1.2
-30 2 -2 9.57 0.92
-31 -3 2 15.01 1.1
31 -3 -2 12.96 0.93
-31 -3 2 15.39 1.51
31 3 -2 13.49 0.88
31 3 -2 12.16 1.52
-29 -3 2 1.55 0.49
29 -3 -2 2.37 0.47
-29 -3 2 2.01 0.54
29 3 -2 2.91 0.65
29 3 -2 1.1 0.35
-27 -3 2 1.79 0.49
27 -3 -2 1.69 0.39
-27 -3 2 1.16 0.44
-27 3 2 1.31 0.45
27 3 -2 2.05 0.53
27 3 -2 1.7 0.35
-25 -3 2 2.73 0.53
-25 -3 2 2.07 0.45
25 -3 -2 3.3 0.46
-25 3 2 2.86 0.5
25 3 -2 2.36 0.37
25 3 -2 3.58 0.61
23 -3 -2 9.11 0.6
-23 -3 2 8.23 0.77
-23 -3 2 7.58 0.77
-23 3 2 9.35 0.61
23 3 -2 8.43 0.55
23 3 -2 9.17 0.74
-23 3 2 8.62 0.7
-21 -3 2 33.15 1.32
21 -3 -2 32.73 1.14
-21 -3 2 29.56 1.23
-21 3 2 32.62 1.27
21 3 -2 32.07 1.07
21 3 -2 32.26 1.29
-21 3 2 32.35 1.03
-19 -3 2 57.94 1.85
19 -3 -2 57.66 1.74
19 -3 -2 56.84 1.65
-19 -3 2 56.19 1.77
-19 3 2 58.41 1.82
-19 3 2 58.89 1.56
19 3 -2 59.3 1.8
19 3 -2 59.02 1.62
17 -3 -2 15.86 0.67
17 -3 -2 15.97 0.67
-17 -3 2 15.81 0.79
-17 -3 2 15.18 0.74
-17 3 2 15.33 0.6
-17 3 2 15.96 0.78
17 3 -2 15.12 0.63
17 3 -2 15.98 0.75
15 -3 -2 0.93 0.19
-15 -3 2 1.33 0.28
15 -3 -2 1.2 0.21
-15 -3 2 0.96 0.23
-15 3 2 1.84 0.22
15 3 -2 1.22 0.21
15 3 -2 1.33 0.25
-15 3 2 1.49 0.29
-13 -3 2 21.59 0.79
-13 -3 2 21.35 0.86
13 -3 -2 22.37 0.74
13 -3 -2 20.7 0.67
13 3 -2 19.96 0.71
13 3 -2 21.79 0.77
-13 3 2 20.66 0.84
-13 3 2 21.35 0.68
-11 -3 2 64.5 1.65
11 -3 -2 61.86 1.48
11 -3 -2 64.8 1.59
-11 -3 2 60.39 1.72
-11 -3 2 60 1.64
-11 3 2 60.53 1.54
-11 3 2 64.73 1.75
11 3 -2 63.18 1.61
11 3 -2 63.55 1.62
-9 -3 2 32.11 1
9 -3 -2 30.64 0.87
-9 -3 2 30.45 0.95
-9 -3 2 30.26 0.91
-9 3 2 31.45 1
9 3 -2 31.44 0.92
9 3 -2 31.38 0.9
-9 3 2 30.34 0.86
7 -3 -2 0.92 0.13
-7 -3 2 1.25 0.17
7 -3 -2 0.92 0.17
-7 -3 2 1.15 0.18
-7 -3 2 1.23 0.18
-7 3 2 1.22 0.16
-7 3 2 1.42 0.21
7 3 -2 0.76 0.13
7 3 -2 1.11 0.17
5 -3 -2 23 0.65
-5 -3 2 23.49 0.75
-5 -3 2 24.29 0.77
-5 -3 2 24.3 0.68
-5 -3 2 24.93 0.71
5 -3 -2 24.05 0.76
-5 3 2 23.34 0.78
-5 3 2 23.61 0.71
5 3 -2 23.95 0.72
5 3 -2 24.16 0.56
3 -3 -2 0.35 0.07
3 -3 -2 0.69 0.08
-3 -3 2 0.43 0.11
3 -3 -2 0.65 0.13
-3 -3 2 0.43 0.11
-3 -3 2 0.32 0.08
-3 3 2 0.09 0.08
3 3 -2 0.5 0.11
-3 3 2 0.24 0.09
3 3 -2 0.38 0.06
-3 3 2 0.5 0.09
-1 -3 2 47.32 1.06
1 -3 -2 45.52 1.19
1 -3 -2 47.02 1.07
-1 -3 2 46.57 1.16
1 -3 -2 44.86 1.21
-1 -3 2 45.34 1.23
-1 3 2 47.51 1.16
1 3 -2 47.12 1.11
-1 3 2 46.74 1.22
1 3 -2 45.97 1.24
-1 3 2 44.97 1.21
1 -3 2 3.94 0.26
-1 -3 -2 4.07 0.22
-1 -3 -2 3.87 0.14
-1 -3 -2 3.71 0.25
1 -3 2 3.67 0.19
1 -3 2 3.92 0.3
-1 3 -2 3.53 0.2
1 3 2 3.67 0.25
1 3 2 3.66 0.26
-1 3 -2 3.73 0.27
3 -3 2 29.72 0.97
-3 -3 -2 29.48 0.81
3 -3 2 29.73 0.74
3 -3 2 31.79 0.9
-3 -3 -2 29.73 0.87
-3 3 -2 30.46 0.95
3 3 2 29.07 0.91
-3 3 -2 29.86 0.84
3 3 2 30.08 0.93
5 -3 2 27.15 0.65
5 -3 2 27.61 0.67
5 -3 2 26.97 0.95
5 -3 2 29.08 0.86
-5 -3 -2 29.02 0.85
-5 -3 -2 27.87 0.77
5 3 2 28.12 0.92
-5 3 -2 28.12 0.65
5 3 2 26.26 0.91
-5 3 -2 29.6 0.85
7 -3 2 92.98 2.38
7 -3 2 90.54 1.98
-7 -3 -2 91.3 2.2
7 -3 2 89.81 2.21
7 -3 2 89.62 1.96
-7 -3 -2 88.96 2.1
-7 3 -2 90.3 2.22
-7 3 -2 92.03 2.02
7 3 2 88.93 2.34
7 3 2 91.65 2.33
-9 -3 -2 3.29 0.26
9 -3 2 2.66 0.28
9 -3 2 3.29 0.39
-9 -3 -2 2.85 0.21
-9 -3 -2 2.82 0.33
9 3 2 3.25 0.16
-9 3 -2 3.72 0.29
9 3 2 3.33 0.39
9 3 2 3.99 0.4
-9 3 -2 2.74 0.18
-11 -3 -2 16.03 0.57
-11 -3 -2 15.49 0.62
11 -3 2 17.33 0.81
-11 -3 -2 16.17 0.71
11 -3 2 14.63 0.63
11 3 2 17.55 0.78
11 3 2 18.37 0.83
-11 3 -2 17.09 0.55
11 3 2 15.98 0.48
-11 3 -2 15.63 0.66
-13 -3 -2 45.94 1.24
-13 -3 -2 46.56 1.44
-13 -3 -2 43.27 1.3
13 -3 2 45.48 1.54
13 -3 2 44.6 1.33
13 -3 2 44.91 1.06
-13 3 -2 46.28 1.23
-13 3 -2 46.36 1.38
13 3 2 46.61 1.16
13 3 2 43.07 1.47
13 3 2 45.05 1.56
-15 -3 -2 66.76 1.8
15 -3 2 67.96 2.08
15 -3 2 66.67 1.53
-15 -3 -2 65.47 1.92
15 -3 2 65.53 1.82
-15 -3 -2 65.82 1.71
-15 3 -2 65.9 1.85
-15 3 -2 65.76 1.71
15 3 2 65.76 2.1
15 3 2 66.06 2
15 3 2 62.96 1.61
-15 3 -2 64.29 1.54
-17 -3 -2 24.32 0.92
17 -3 2 22.66 1.11
-17 -3 -2 24.22 0.86
-17 -3 -2 23.87 1.01
17 -3 2 24.54 0.94
17 3 2 23.19 1.16
17 3 2 24.15 0.78
-17 3 -2 25.58 0.97
17 3 2 24.39 1.08
-17 3 -2 24.29 0.86
19 -3 2 2.11 0.45
-19 -3 -2 2.2 0.33
-19 -3 -2 2.52 0.33
-19 -3 -2 2.34 0.41
19 -3 2 1.49 0.31
-19 3 -2 2.08 0.34
-19 3 -2 1.64 0.29
19 3 2 2.04 0.27
19 3 2 2.07 0.48
-21 -3 -2 3.23 0.43
21 -3 2 3.36 0.46
21 -3 2 2.23 0.52
-21 -3 -2 3.89 0.43
-21 -3 -2 2.79 0.44
-21 3 -2 2.67 0.42
21 3 2 2.86 0.58
21 3 2 3.19 0.35
-21 3 -2 2.86 0.39
-23 -3 -2 7.42 0.6
23 -3 2 7.98 0.71
-23 -3 -2 6.63 0.68
23 -3 2 7.24 0.87
-23 3 -2 8.05 0.63
23 3 2 7.84 0.95
-23 3 -2 7.29 0.58
25 -3 2 13.57 1.08
-25 -3 -2 15.01 0.91
-25 -3 -2 15.38 0.88
25 -3 2 15.9 0.93
25 3 2 13.75 1.14
-25 3 -2 16.38 0.9
-25 3 -2 15.52 0.85
-27 -3 -2 4.31 0.58
27 -3 2 4.4 0.63
27 -3 2 3.31 0.69
-27 3 -2 3.96 0.55
-27 3 -2 5.76 0.66
27 3 2 4.46 0.83
29 -3 2 4.45 0.66
-29 -3 -2 5.1 0.68
-29 3 -2 5.83 0.75
-29 3 -2 4.42 0.61
29 3 2 6.24 1.01
31 -3 2 -0.24 0.4
-31 -3 -2 -0.16 0.32
31 3 2 0.4 0.62
-30 -4 2 0.95 0.49
-30 -4 2 1.15 0.51
30 -4 -2 0.28 0.36
30 4 -2 1.85 0.6
28 -4 -2 1.76 0.42
-28 -4 2 1.7 0.5
-28 -4 2 1.8 0.53
28 4 -2 1.78 0.38
28 4 -2 1.32 0.5
-26 -4 2 4.22 0.65
26 -4 -2 3.36 0.48
26 -4 -2 4.22 0.57
-26 -4 2 3.15 0.56
26 4 -2 4.22 0.48
-26 4 2 4.83 0.63
26 4 -2 2.75 0.57
24 -4 -2 1.03 0.31
-24 -4 2 0.81 0.36
-24 -4 2 0.81 0.37
-24 4 2 1.61 0.4
24 4 -2 1.04 0.39
-24 4 2 1.51 0.4
24 4 -2 1.43 0.31
22 -4 -2 -0.03 0.19
-22 -4 2 0.22 0.26
-22 -4 2 -0.18 0.19
22 4 -2 0.12 0.27
22 4 -2 -0.25 0.14
-22 4 2 -0.1 0.15
-22 4 2 -0.19 0.23
-20 -4 2 3.64 0.48
20 -4 -2 2.55 0.35
-20 -4 2 3.81 0.5
20 4 -2 3.56 0.38
-20 4 2 3.35 0.35
-20 4 2 2.98 0.45
20 4 -2 3.04 0.46
-18 -4 2 0.89 0.3
18 -4 -2 1.38 0.27
-18 -4 2 1 0.26
-18 4 2 1.13 0.22
18 4 -2 0.94 0.27
-18 4 2 0.86 0.28
18 4 -2 1.64 0.26
16 -4 -2 19.34 0.76
16 -4 -2 19.94 0.73
-16 -4 2 21.44 0.86
-16 -4 2 20.75 0.92
16 4 -2 20.55 0.75
-16 4 2 19.53 0.72
16 4 -2 20.55 0.85
-16 4 2 20.79 0.89
14 -4 -2 16.5 0.57
14 -4 -2 16.19 0.64
-14 -4 2 15.68 0.75
14 -4 -2 15.42 0.71
-14 -4 2 16.22 0.69
14 4 -2 17.49 0.71
-14 4 2 16.06 0.61
14 4 -2 16.51 0.63
-14 4 2 16.79 0.76
-12 -4 2 5.57 0.43
12 -4 -2 6.45 0.37
-12 -4 2 7.64 0.43
12 -4 -2 7.21 0.45
-12 -4 2 6.94 0.41
-12 4 2 7.45 0.48
12 4 -2 7.58 0.42
-12 4 2 7.54 0.37
12 4 -2 7.51 0.4
-10 -4 2 0.38 0.14
10 -4 -2 0.53 0.16
-10 -4 2 0.38 0.14
-10 -4 2 0.32 0.12
10 -4 -2 0.44 0.12
10 4 -2 0.38 0.14
-10 4 2 0.57 0.14
-10 4 2 0.37 0.16
10 4 -2 0.35 0.13
-8 -4 2 3.08 0.29
-8 -4 2 3.29 0.34
8 -4 -2 3.37 0.23
-8 -4 2 3.11 0.24
8 -4 -2 3.5 0.29
-8 4 2 3.39 0.33
8 4 -2 3.17 0.17
8 4 -2 3.28 0.25
8 4 -2 3.19 0.26
-8 4 2 3.26 0.24
-6 -4 2 5.61 0.28
6 -4 -2 5.64 0.34
-6 -4 2 6.28 0.36
6 -4 -2 6.01 0.28
-6 -4 2 5.51 0.34
6 4 -2 5.49 0.3
-6 4 2 5.87 0.36
6 4 -2 5.45 0.21
-6 4 2 5.28 0.3
4 -4 -2 0.14 0.09
-4 -4 2 0.07 0.08
-4 -4 2 0.07 0.09
-4 -4 2 0.08 0.06
4 -4 -2 0.02 0.05
4 4 -2 0.11 0.09
-4 4 2 0.05 0.08
4 4 -2 0.15 0.05
-4 4 2 0.27 0.1
2 -4 -2 26.52 0.83
2 -4 -2 25.74 0.8
-2 -4 2 25.4 0.78
-2 -4 2 26.92 0.84
-2 -4 2 26.28 0.67
2 -4 -2 26.85 0.68
2 4 -2 26.1 0.82
-2 4 2 27.04 0.72
2 4 -2 26.7 0.68
-2 4 2 26.18 0.82
0 -4 -2 4 0.25
0 -4 -2 4.48 0.29
0 -4 -2 3.95 0.16
0 -4 2 3.75 0.22
0 -4 2 3.51 0.27
0 -4 2 3.87 0.15
0 4 -2 4.49 0.24
0 4 2 4.54 0.29
0 4 -2 4.26 0.22
0 4 -2 3.8 0.28
0 4 2 4.12 0.25
2 -4 2 12.84 0.43
-2 -4 -2 12.96 0.32
-2 -4 -2 12.65 0.47
2 -4 2 12.82 0.53
2 -4 2 13.98 0.59
-2 -4 -2 14.28 0.54
2 4 2 13.75 0.53
2 4 2 13.19 0.55
-2 4 -2 13.06 0.55
-2 4 -2 12.82 0.46
4 -4 2 2.25 0.29
-4 -4 -2 2.01 0.23
4 -4 2 2.21 0.25
-4 -4 -2 2.55 0.2
4 -4 2 2.4 0.15
-4 4 -2 2.73 0.22
4 4 2 2.47 0.28
4 4 2 1.94 0.26
-4 4 -2 2.97 0.31
-6 -4 -2 44.57 1.25
6 -4 2 44.37 1.06
6 -4 2 47.53 1.4
-6 -4 -2 44.75 1.18
6 -4 2 45.41 1.27
6 4 2 42.99 1.33
-6 4 -2 42.99 1.32
6 4 2 43.8 1.33
-6 4 -2 45.48 1.23
8 -4 2 4.16 0.19
8 -4 2 4.08 0.42
-8 -4 -2 4.44 0.32
-8 -4 -2 4.09 0.26
8 -4 2 4.4 0.32
8 4 2 4.16 0.42
-8 4 -2 3.46 0.32
8 4 2 4.67 0.39
10 -4 2 0.31 0.07
10 -4 2 0.17 0.16
10 -4 2 0.3 0.14
-10 -4 -2 0.53 0.16
-10 -4 -2 0.49 0.13
-10 4 -2 0.35 0.14
10 4 2 0.16 0.17
10 4 2 0.43 0.07
10 4 2 0.22 0.17
12 -4 2 11.99 0.37
12 -4 2 12.17 0.7
-12 -4 -2 12.42 0.52
-12 -4 -2 12.87 0.66
12 -4 2 12.17 0.59
-12 -4 -2 12.36 0.57
-12 4 -2 12.43 0.48
12 4 2 12.42 0.4
-12 4 -2 12.2 0.59
12 4 2 12.84 0.73
12 4 2 12.86 0.7
-14 -4 -2 4.78 0.42
-14 -4 -2 4.29 0.47
14 -4 2 4.43 0.54
14 -4 2 4.38 0.22
14 -4 2 4.45 0.43
-14 -4 -2 3.97 0.33
14 4 2 4.95 0.54
14 4 2 4.62 0.25
-14 4 -2 5.01 0.33
14 4 2 4.89 0.58
-14 4 -2 4.4 0.43
-16 -4 -2 0.5 0.24
-16 -4 -2 0.51 0.19
-16 -4 -2 0.67 0.19
16 -4 2 0.41 0.22
16 -4 2 0.78 0.3
16 4 2 0.47 0.28
16 4 2 0.58 0.14
16 4 2 0.61 0.28
-16 4 -2 0.59 0.17
-16 4 -2 0.48 0.2
-18 -4 -2 0.38 0.2
18 -4 2 0.45 0.28
-18 -4 -2 0.5 0.25
-18 -4 -2 0.25 0.18
18 -4 2 0.47 0.22
18 4 2 0.47 0.3
-18 4 -2 0.47 0.22
18 4 2 0.63 0.16
18 4 2 0.25 0.25
-18 4 -2 0.3 0.17
20 -4 2 0.22 0.22
20 -4 2 0.13 0.31
-20 -4 -2 0 0.17
-20 -4 -2 0.03 0.18
-20 -4 -2 0.18 0.22
-20 4 -2 0.17 0.21
-20 4 -2 0.23 0.18
20 4 2 -0.18 0.24
-22 -4 -2 0.4 0.24
-22 -4 -2 0.58 0.25
22 -4 2 0.34 0.35
22 -4 2 0.3 0.27
-22 -4 -2 0.31 0.29
-22 4 -2 0.59 0.25
22 4 2 0.53 0.42
-22 4 -2 0.24 0.25
-24 -4 -2 0.36 0.26
24 -4 2 0.1 0.37
-24 -4 -2 0.09 0.28
24 -4 2 0.1 0.29
-24 4 -2 0.46 0.28
24 4 2 0.01 0.35
-24 4 -2 0.17 0.27
26 -4 2 0.03 0.31
-26 -4 -2 0.15 0.3
-26 4 -2 -0.14 0.25
26 4 2 0.58 0.5
-26 4 -2 -0.01 0.27
28 -4 2 2.02 0.52
-28 -4 -2 0.9 0.4
-28 4 -2 1.5 0.42
28 4 2 1.61 0.63
30 -4 2 0.22 0.43
-30 -4 -2 0.34 0.36
-30 4 -2 -0.3 0.35
30 4 2 0.06 0.52
-29 -5 2 13.18 1.02
-29 -5 2 10.55 1.07
29 -5 -2 10.35 0.91
29 5 -2 10.71 1.13
-27 -5 2 3.5 0.64
27 -5 -2 6.82 0.71
-27 -5 2 5.66 0.74
27 5 -2 6.57 0.59
27 5 -2 4.87 0.76
25 -5 -2 0.3 0.3
-25 -5 2 -0.16 0.31
25 -5 -2 -0.11 0.25
-25 -5 2 0.08 0.29
25 5 -2 0.14 0.22
25 5 -2 0.27 0.32
-25 5 2 0.63 0.33
23 -5 -2 14.71 0.85
-23 -5 2 15 0.95
-23 -5 2 14.02 0.86
23 -5 -2 14.9 0.8
23 5 -2 14.28 0.95
23 5 -2 13.41 0.69
-23 5 2 15.16 0.72
-23 5 2 14.69 0.89
-21 -5 2 46.68 1.7
-21 -5 2 44.19 1.57
21 -5 -2 47.7 1.57
21 -5 -2 45.75 1.49
-21 5 2 46.38 1.41
21 5 -2 45.43 1.4
21 5 -2 47.75 1.69
-21 5 2 45.42 1.61
-19 -5 2 48.97 1.71
19 -5 -2 49.22 1.59
19 -5 -2 47.76 1.5
-19 -5 2 49.62 1.61
-19 5 2 48.8 1.44
19 5 -2 49.26 1.66
19 5 -2 48.92 1.43
-19 5 2 49.85 1.65
-17 -5 2 51.9 1.64
17 -5 -2 51.66 1.56
-17 -5 2 55.05 1.76
17 -5 -2 54.58 1.66
-17 5 2 55.95 1.54
-17 5 2 55.89 1.73
17 5 -2 54.13 1.52
17 5 -2 56.76 1.71
-15 -5 2 3.42 0.44
15 -5 -2 3.67 0.41
15 -5 -2 4.5 0.41
-15 -5 2 3.3 0.37
-15 5 2 3.65 0.36
-15 5 2 3.64 0.43
15 5 -2 4.01 0.36
15 5 -2 4.23 0.43
-13 -5 2 9.95 0.52
-13 -5 2 10.47 0.52
13 -5 -2 9.76 0.49
-13 -5 2 10.47 0.6
-13 -5 2 9.86 0.37
13 -5 -2 10.21 0.56
-13 5 2 9.33 0.57
-13 5 2 10.52 0.49
13 5 -2 10.06 0.4
13 5 -2 10.12 0.49
13 5 -2 10.31 0.54
-11 -5 2 57.17 1.67
11 -5 -2 55.96 1.5
11 -5 -2 59.8 1.64
-11 -5 2 58.38 1.59
-11 -5 2 57.93 1.56
11 5 -2 57.71 1.55
11 5 -2 56.89 1.57
-11 5 2 56.73 1.53
-11 5 2 57.48 1.66
11 5 -2 57.75 1.4
-9 -5 2 53.96 1.54
9 -5 -2 52.74 1.49
-9 -5 2 51.45 1.41
9 -5 -2 54.35 1.39
-9 -5 2 53.09 1.48
9 5 -2 52.92 1.29
-9 5 2 52.99 1.53
9 5 -2 55.76 1.46
9 5 -2 53.43 1.44
-9 5 2 53.22 1.43
7 -5 -2 48.31 1.37
-7 -5 2 49.47 1.27
-7 -5 2 46.55 1.37
7 -5 -2 48.94 1.24
-7 -5 2 49.5 1.37
-7 5 2 46.41 1.31
7 5 -2 48.03 1.17
7 5 -2 48.22 1.31
-7 5 2 49.49 1.41
-5 -5 2 21.61 0.76
5 -5 -2 21.27 0.75
5 -5 -2 21.63 0.64
-5 -5 2 21.62 0.65
-5 -5 2 23.08 0.76
-5 5 2 21.02 0.77
5 5 -2 21.3 0.71
5 5 -2 21.46 0.59
-5 5 2 22.19 0.74
3 -5 -2 0.22 0.07
-3 -5 2 0.21 0.1
3 -5 -2 0.06 0.1
-3 -5 2 0.41 0.09
3 -5 -2 0.21 0.13
-3 -5 2 0.32 0.14
-3 5 2 0.22 0.08
3 5 -2 0.06 0.1
3 5 -2 0.09 0.06
-3 5 2 0.25 0.11
-1 -5 2 0.38 0.11
-1 -5 2 0.74 0.1
-1 -5 2 0.53 0.15
1 -5 -2 0.72 0.09
1 -5 -2 0.86 0.18
1 -5 -2 0.75 0.15
1 5 -2 0.62 0.1
-1 5 2 0.43 0.13
1 5 -2 0.62 0.15
-1 5 2 0.44 0.11
1 -5 2 8.35 0.36
-1 -5 -2 8.72 0.27
-1 -5 -2 7.9 0.42
1 -5 2 8.54 0.44
1 -5 2 8.49 0.26
-1 -5 -2 8.76 0.4
1 5 2 9.41 0.46
-1 5 -2 7.89 0.42
1 5 2 8.24 0.4
-1 5 -2 8.95 0.35
-3 -5 -2 122.55 2.89
3 -5 2 124.26 2.82
3 -5 2 126.92 2.99
3 -5 2 125.78 3.07
-3 -5 -2 123.7 2.97
3 5 2 129.26 2.99
3 5 2 127.42 3.03
-3 5 -2 121.52 2.86
-3 5 -2 122.32 3
5 -5 2 246.6 5.48
5 -5 2 244.88 5.26
5 -5 2 242.07 5.57
-5 -5 -2 242.06 5.37
-5 -5 -2 245.46 5.46
5 5 2 241.8 5.53
-5 5 -2 237.23 5.51
-5 5 -2 237.8 5.36
5 5 2 248.95 5.56
-7 -5 -2 40.43 1.24
7 -5 2 43.99 1.28
-7 -5 -2 43.31 1.2
7 -5 2 43.39 1.37
7 -5 2 42.79 1.06
7 5 2 44.25 1.36
-7 5 -2 41.72 1.31
-7 5 -2 43.76 1.22
7 5 2 42.55 1.36
9 -5 2 4.25 0.22
-9 -5 -2 4.98 0.32
-9 -5 -2 4.35 0.34
9 -5 2 4.62 0.36
9 -5 2 5.02 0.5
-9 5 -2 4.43 0.44
-9 5 -2 4.97 0.35
9 5 2 4.36 0.45
9 5 2 4.6 0.47
11 -5 2 15.72 0.48
11 -5 2 16 0.7
-11 -5 -2 16.55 0.69
-11 -5 -2 15.92 0.62
11 -5 2 15.6 0.78
11 5 2 15.3 0.77
-11 5 -2 16.6 0.68
11 5 2 15.48 0.81
-13 -5 -2 124.67 3.17
13 -5 2 118.03 3.07
13 -5 2 127.15 3.29
-13 -5 -2 122.46 3.04
13 -5 2 125.19 2.75
-13 -5 -2 125.79 2.98
13 5 2 123.25 2.72
13 5 2 119.38 3.32
-13 5 -2 123.05 3.05
13 5 2 126.31 3.25
-15 -5 -2 135.82 3.2
-15 -5 -2 136.75 3.4
15 -5 2 134.2 3.51
-15 -5 -2 131.35 3.26
15 -5 2 133.04 3
15 -5 2 130.23 3.31
-15 5 -2 131.64 3.26
15 5 2 124.06 2.92
15 5 2 123.03 3.55
15 5 2 134.76 3.48
-17 -5 -2 53.57 1.56
-17 -5 -2 52.76 1.72
17 -5 2 52.77 1.84
17 -5 2 52.71 1.67
-17 -5 -2 47.9 1.58
-17 5 -2 54.59 1.63
17 5 2 54.86 1.96
17 5 2 54.35 1.81
19 -5 2 0.66 0.29
-19 -5 -2 1.02 0.32
-19 -5 -2 0.83 0.26
19 -5 2 0.74 0.35
-19 -5 -2 0.66 0.24
19 5 2 1.24 0.37
-19 5 -2 0.96 0.28
19 5 2 0.31 0.31
21 -5 2 3.06 0.47
21 -5 2 2.74 0.52
-21 -5 -2 2.99 0.42
-21 -5 -2 2.97 0.47
-21 -5 -2 2.65 0.43
-21 5 -2 2.32 0.4
21 5 2 2.59 0.57
21 5 2 3.25 0.54
-23 -5 -2 27.08 1.13
23 -5 2 26.32 1.2
-23 -5 -2 26.2 1.21
-23 -5 -2 26.02 1.13
23 -5 2 25.49 1.36
-23 5 -2 23.76 1.07
23 5 2 22.72 1.42
25 -5 2 28.16 1.31
-25 -5 -2 26.64 1.2
25 5 2 26.92 1.61
-25 5 -2 25.89 1.15
-27 -5 -2 10.56 0.83
27 -5 2 10.85 0.96
-27 5 -2 8.01 0.77
27 5 2 9.26 1.19
-29 -5 -2 0.37 0.38
29 -5 2 -0.21 0.36
-29 5 -2 0.7 0.36
29 5 2 0.8 0.61
-30 -6 2 -0.29 0.42
30 -6 -2 -0.06 0.34
-30 -6 2 0.08 0.45
30 6 -2 -0.53 0.43
-28 -6 2 -0.46 0.34
28 -6 -2 -0.01 0.33
-28 -6 2 0.14 0.4
28 6 -2 -0.11 0.39
-26 -6 2 -0.1 0.37
26 -6 -2 0.23 0.29
-26 -6 2 0.1 0.31
26 6 -2 0.3 0.38
-24 -6 2 -0.1 0.3
24 -6 -2 -0.22 0.22
24 -6 -2 0.32 0.29
-24 -6 2 -0.08 0.25
24 6 -2 -0.16 0.19
-24 6 2 0.15 0.29
-24 6 2 -0.09 0.21
24 6 -2 0.01 0.34
-22 -6 2 0.18 0.31
22 -6 -2 -0.16 0.24
22 -6 -2 0.33 0.25
-22 -6 2 -0.22 0.25
22 6 -2 -0.06 0.26
-22 6 2 0.01 0.19
22 6 -2 -0.06 0.18
-22 6 2 -0.05 0.26
-20 -6 2 0.92 0.32
20 -6 -2 1.14 0.29
20 -6 -2 1.25 0.33
-20 -6 2 0.86 0.3
20 6 -2 1.08 0.35
-20 6 2 0.53 0.29
20 6 -2 0.96 0.24
-20 6 2 0.86 0.24
18 -6 -2 0.97 0.25
18 -6 -2 0.81 0.28
-18 -6 2 0.85 0.31
-18 -6 2 1.06 0.29
-18 6 2 0.58 0.26
-18 6 2 0.91 0.24
18 6 -2 0.88 0.22
18 6 -2 1.07 0.3
16 -6 -2 3.1 0.37
-16 -6 2 3.51 0.46
-16 -6 2 3.29 0.4
16 -6 -2 3.26 0.42
16 6 -2 3.8 0.45
16 6 -2 3.89 0.37
-16 6 2 4 0.4
-16 6 2 3.74 0.46
14 -6 -2 0.6 0.21
-14 -6 2 0.89 0.22
14 -6 -2 0.72 0.2
-14 -6 2 0.97 0.22
-14 -6 2 0.66 0.23
-14 6 2 0.82 0.21
14 6 -2 0.84 0.21
14 6 -2 0.83 0.24
-14 6 2 0.72 0.25
12 -6 -2 7.16 0.47
-12 -6 2 6.8 0.43
-12 -6 2 6.3 0.44
12 -6 -2 7.07 0.41
-12 -6 2 6.15 0.48
-12 6 2 6.83 0.49
-12 6 2 7.44 0.44
12 6 -2 6.21 0.44
12 6 -2 6.46 0.4
12 6 -2 6.66 0.35
-10 -6 2 18.77 0.81
-10 -6 2 21.44 0.78
10 -6 -2 20.27 0.79
10 -6 -2 21.2 0.71
-10 -6 2 20.01 0.73
-10 6 2 20.28 0.83
10 6 -2 18.96 0.74
10 6 -2 19.61 0.73
10 6 -2 19.7 0.64
-10 6 2 19.81 0.74
-8 -6 2 14 0.65
8 -6 -2 15.72 0.66
-8 -6 2 15.92 0.59
8 -6 -2 16.1 0.58
-8 -6 2 15.16 0.65
8 6 -2 16.89 0.53
-8 6 2 14.91 0.63
8 6 -2 14.93 0.61
-8 6 2 15.92 0.69
6 -6 -2 1.93 0.25
-6 -6 2 2.06 0.27
-6 -6 2 1.96 0.27
6 -6 -2 2.02 0.21
-6 -6 2 1.67 0.2
-6 6 2 2.06 0.25
6 6 -2 1.94 0.24
6 6 -2 2.01 0.19
-4 -6 2 10.17 0.51
-4 -6 2 10.53 0.41
4 -6 -2 10.06 0.49
4 -6 -2 10.04 0.39
4 -6 -2 10.65 0.53
-4 -6 2 10.09 0.49
-4 6 2 11.35 0.53
4 6 -2 11.02 0.49
-4 6 2 11.17 0.37
4 6 -2 11.06 0.4
-2 -6 2 1.77 0.25
-2 -6 2 1.72 0.22
-2 -6 2 1.67 0.17
2 -6 -2 1.72 0.16
2 -6 -2 1.45 0.24
2 -6 -2 1.38 0.22
2 6 -2 1.75 0.17
-2 6 2 1.68 0.25
2 6 -2 1.89 0.24
-2 6 2 1.79 0.2
0 -6 -2 1.22 0.22
0 -6 2 1.57 0.24
0 -6 -2 1.79 0.23
0 -6 2 1.8 0.15
0 -6 2 1.62 0.21
0 -6 -2 1.83 0.15
0 6 2 1.71 0.25
0 6 -2 1.77 0.18
0 6 2 1.63 0.21
0 6 -2 1.41 0.22
-2 -6 -2 4.44 0.31
-2 -6 -2 4.61 0.35
2 -6 2 4.41 0.28
2 -6 2 4.26 0.34
2 -6 2 4.41 0.2
-2 -6 -2 4.15 0.19
-2 6 -2 4.3 0.33
2 6 2 4.48 0.36
-2 6 -2 4.19 0.26
2 6 2 4.51 0.33
4 -6 2 7.23 0.35
4 -6 2 7.61 0.27
4 -6 2 7.79 0.49
-4 -6 -2 7.82 0.45
-4 -6 -2 7.6 0.41
4 -6 2 8.31 0.46
-4 6 -2 8.04 0.38
-4 6 -2 6.78 0.43
4 6 2 7.29 0.45
4 6 2 7.78 0.48
6 -6 2 23.32 0.7
-6 -6 -2 22.51 0.83
6 -6 2 22.06 0.85
6 -6 2 22.31 0.9
6 -6 2 24.31 0.62
-6 -6 -2 22.49 0.79
-6 6 -2 23.88 0.78
6 6 2 22.36 0.9
-6 6 -2 24.24 0.88
6 6 2 23.04 0.9
8 -6 2 0.28 0.18
8 -6 2 0.41 0.11
8 -6 2 0.24 0.14
-8 -6 -2 0.45 0.15
-8 -6 -2 0.32 0.16
-8 6 -2 0.21 0.13
-8 6 -2 0.41 0.17
8 6 2 0.5 0.2
8 6 2 0.17 0.16
-10 -6 -2 2.5 0.28
10 -6 2 2.76 0.36
10 -6 2 2.51 0.38
-10 -6 -2 2.28 0.29
10 -6 2 2.63 0.21
-10 6 -2 2.58 0.31
10 6 2 3.01 0.41
10 6 2 2.6 0.37
-10 6 -2 2.13 0.33
12 -6 2 2.74 0.37
-12 -6 -2 2.16 0.28
12 -6 2 2.29 0.22
-12 -6 -2 2.1 0.32
12 -6 2 2.21 0.38
-12 6 -2 2.69 0.38
-12 6 -2 1.89 0.27
12 6 2 1.87 0.38
12 6 2 2.08 0.37
-14 -6 -2 1.26 0.25
14 -6 2 1.19 0.18
14 -6 2 1.16 0.28
-14 -6 -2 1.19 0.29
-14 -6 -2 0.76 0.22
14 -6 2 1.29 0.34
14 6 2 1.33 0.36
14 6 2 0.53 0.25
-14 6 -2 0.42 0.2
-16 -6 -2 0.66 0.28
-16 -6 -2 0.81 0.24
16 -6 2 1.13 0.33
16 -6 2 1.4 0.32
-16 -6 -2 0.69 0.24
16 6 2 0.76 0.32
16 6 2 0.81 0.31
-16 6 -2 0.57 0.22
-18 -6 -2 0.43 0.24
-18 -6 -2 0.27 0.19
18 -6 2 0.88 0.3
-18 -6 -2 0.38 0.23
18 -6 2 0.48 0.31
18 6 2 -0.15 0.25
18 6 2 0.15 0.27
-18 6 -2 -0.02 0.18
-20 -6 -2 4.1 0.5
-20 -6 -2 4.82 0.52
20 -6 2 4.81 0.64
20 -6 2 5.53 0.63
-20 -6 -2 4.7 0.59
20 6 2 4.19 0.69
20 6 2 3.55 0.57
-20 6 -2 4.24 0.5
-22 -6 -2 1.91 0.44
-22 -6 -2 1.46 0.34
-22 -6 -2 2.06 0.41
22 -6 2 2.12 0.44
22 6 2 1.1 0.48
-22 6 -2 1.57 0.36
22 6 2 1.73 0.47
-24 -6 -2 1.81 0.42
24 -6 2 1.34 0.42
24 6 2 0.8 0.49
-24 6 -2 1.6 0.39
26 -6 2 -0.09 0.31
-26 -6 -2 -0.1 0.27
26 6 2 0.22 0.53
-26 6 -2 0.09 0.28
28 -6 2 0.04 0.38
-28 -6 -2 0.19 0.36
-28 6 -2 -0.18 0.27
28 6 2 0.37 0.55
29 -7 -2 5.61 0.72
-29 -7 2 5.67 0.79
-29 -7 2 7.2 0.97
29 7 -2 6.01 0.95
-27 -7 2 5.71 0.75
27 -7 -2 7.05 0.74
-27 -7 2 7.16 0.87
27 7 -2 7.56 0.96
-25 -7 2 2.93 0.61
-25 -7 2 1.17 0.42
25 -7 -2 3.18 0.52
25 7 -2 1.88 0.55
-25 7 2 2.29 0.41
-23 -7 2 0.47 0.37
23 -7 -2 0.26 0.29
23 -7 -2 0.14 0.27
-23 -7 2 0.21 0.29
-23 7 2 0.25 0.28
-23 7 2 0.14 0.25
23 7 -2 0.32 0.35
-21 -7 2 14.66 0.94
21 -7 -2 13.68 0.81
21 -7 -2 11.12 0.74
-21 -7 2 15.17 0.86
21 7 -2 13.69 0.91
-21 7 2 14.32 0.74
21 7 -2 14.68 0.68
-21 7 2 15.15 0.87
-19 -7 2 14.23 0.89
19 -7 -2 14.55 0.79
19 -7 -2 15.07 0.76
-19 -7 2 14.38 0.81
-19 7 2 14.17 0.82
-19 7 2 15.05 0.74
19 7 -2 15.8 0.69
19 7 -2 14.81 0.89
17 -7 -2 9.13 0.58
-17 -7 2 7.66 0.58
-17 -7 2 8.09 0.64
17 -7 -2 8.9 0.61
-17 7 2 8.66 0.55
17 7 -2 8.91 0.5
-17 7 2 9.51 0.64
17 7 -2 9.12 0.65
15 -7 -2 19.2 0.79
-15 -7 2 19.67 0.83
-15 -7 2 18.36 0.91
-15 -7 2 18.22 0.77
15 -7 -2 17.01 0.81
15 7 -2 19.61 0.76
-15 7 2 18.89 0.88
15 7 -2 17.4 0.84
-15 7 2 18.52 0.79
13 -7 -2 1.26 0.23
13 -7 -2 1.15 0.27
-13 -7 2 1.57 0.33
-13 -7 2 0.63 0.2
-13 -7 2 1.05 0.23
13 7 -2 1.02 0.22
-13 7 2 0.77 0.23
-13 7 2 0.91 0.23
13 7 -2 1.06 0.25
-11 -7 2 45.87 1.33
-11 -7 2 43.49 1.34
11 -7 -2 43.91 1.29
11 -7 -2 47.07 1.4
-11 -7 2 43.04 1.44
11 7 -2 44.09 1.23
11 7 -2 45.3 1.32
11 7 -2 44.33 1.36
-11 7 2 44.02 1.43
-11 7 2 43.86 1.34
-9 -7 2 48.16 1.4
9 -7 -2 47.63 1.3
-9 -7 2 47.82 1.33
9 -7 -2 45.17 1.39
-9 -7 2 45.92 1.44
9 7 -2 44.23 1.35
9 7 -2 45.58 1.24
-9 7 2 47.53 1.39
-7 -7 2 29.72 1.04
-7 -7 2 30.21 0.91
7 -7 -2 29.2 0.89
-7 -7 2 28.48 1
7 -7 -2 28.43 0.99
-7 7 2 30.58 1.01
7 7 -2 28.83 0.95
7 7 -2 29.01 0.86
5 -7 -2 19.15 0.75
5 -7 -2 20.12 0.65
5 -7 -2 20.48 0.8
-5 -7 2 17.86 0.74
-5 -7 2 19.68 0.65
-5 -7 2 19.22 0.77
-5 7 2 20.84 0.57
-5 7 2 18.62 0.75
5 7 -2 19.05 0.63
5 7 -2 19.13 0.71
3 -7 -2 5.31 0.29
3 -7 -2 4.65 0.43
3 -7 -2 5.09 0.37
-3 -7 2 4.65 0.35
-3 -7 2 5.22 0.29
-3 -7 2 4.27 0.41
3 7 -2 5.55 0.29
-3 7 2 4.56 0.37
-3 7 2 5.52 0.29
3 7 -2 4.75 0.34
-1 -7 2 1.2 0.22
-1 -7 2 1.18 0.15
1 -7 -2 0.93 0.21
1 -7 -2 1.08 0.15
1 -7 -2 0.96 0.19
-1 -7 2 0.97 0.22
-1 7 2 0.88 0.2
1 7 -2 1.03 0.16
-1 7 2 1.45 0.21
1 7 -2 1.19 0.2
1 -7 2 29.8 0.78
1 -7 2 31.01 1.03
-1 -7 -2 28.19 0.99
-1 -7 -2 30.04 0.79
1 -7 2 29.06 0.91
-1 -7 -2 28.18 0.95
-1 7 -2 29.34 0.87
-1 7 -2 28.79 0.96
1 7 2 29.93 0.95
1 7 2 29.28 1.03
3 -7 2 60.16 1.6
-3 -7 -2 61.18 1.74
-3 -7 -2 62.66 1.69
-3 -7 -2 64.03 1.45
3 -7 2 62.7 1.47
3 -7 2 64.89 1.78
3 7 2 64.18 1.81
-3 7 -2 62.97 1.61
-3 7 -2 63.75 1.72
3 7 2 61.2 1.73
-5 -7 -2 65.33 1.72
-5 -7 -2 62.43 1.77
5 -7 2 63.59 1.48
5 -7 2 63.82 1.79
5 -7 2 64.43 1.62
-5 7 -2 63.52 1.76
5 7 2 60.47 1.79
-5 7 -2 62.96 1.65
5 7 2 62.6 1.83
-7 -7 -2 29.73 0.99
-7 -7 -2 29.96 1.05
7 -7 2 31.38 0.82
7 -7 2 30.3 0.9
7 -7 2 31.57 1.13
7 -7 2 31.5 1.09
-7 7 -2 30.9 0.98
7 7 2 31.67 1.15
-7 7 -2 31.32 1.08
7 7 2 28.55 1.11
9 -7 2 2.49 0.24
-9 -7 -2 1.87 0.31
9 -7 2 2.02 0.31
-9 -7 -2 1.69 0.27
9 -7 2 2.56 0.38
9 7 2 2.61 0.38
-9 7 -2 2.18 0.33
9 7 2 1.64 0.32
-9 7 -2 1.88 0.26
11 -7 2 14.3 0.76
-11 -7 -2 12.56 0.65
-11 -7 -2 13.13 0.62
11 -7 2 13.57 0.51
11 -7 2 12.99 0.68
11 7 2 11.81 0.76
11 7 2 12.1 0.74
-11 7 -2 13.07 0.61
-11 7 -2 13.35 0.7
-13 -7 -2 17.51 0.81
13 -7 2 18.38 0.92
13 -7 2 19.12 0.87
13 -7 2 19.53 0.64
-13 -7 -2 18.57 0.78
-13 7 -2 16.85 0.76
13 7 2 19.23 0.94
-13 7 -2 17.89 0.87
13 7 2 17.89 0.97
-15 -7 -2 32.94 1.18
-15 -7 -2 34.78 1.23
15 -7 2 36.89 1.31
15 -7 2 34.05 1.36
-15 -7 -2 36.73 1.36
-15 7 -2 34.07 1.19
15 7 2 33.43 1.47
15 7 2 34.04 1.38
-15 7 -2 34.93 1.31
17 -7 2 10.74 0.79
-17 -7 -2 10.24 0.63
-17 -7 -2 10.01 0.74
17 -7 2 10.56 0.71
-17 -7 -2 9.32 0.63
17 7 2 9.65 0.82
17 7 2 10.96 0.81
-17 7 -2 11.22 0.65
-17 7 -2 10.04 0.71
-19 -7 -2 -0.02 0.19
19 -7 2 -0.08 0.28
19 -7 2 -0.05 0.23
-19 -7 -2 -0.38 0.23
-19 -7 -2 0.08 0.2
19 7 2 -0.05 0.32
19 7 2 0.74 0.35
-19 7 -2 -0.06 0.18
-21 -7 -2 6.02 0.69
-21 -7 -2 7.14 0.67
-21 -7 -2 6.56 0.65
21 -7 2 6.18 0.67
21 7 2 7.17 0.9
-21 7 -2 8.56 0.63
21 7 2 6.03 0.75
-23 -7 -2 12.84 0.83
23 -7 2 11.9 0.88
-23 -7 -2 12.41 0.83
-23 7 -2 11.87 0.77
23 7 2 11.05 1.21
-25 -7 -2 9.73 0.88
25 -7 2 10.35 0.96
25 7 2 10.41 1.23
-25 7 -2 9.33 0.72
-27 -7 -2 4.23 0.66
27 -7 2 4.25 0.72
-27 7 -2 5.37 0.67
27 7 2 3.43 0.84
-29 -7 -2 5.82 0.78
29 -7 2 7.02 0.89
-29 7 -2 6.13 0.72
29 7 2 5.69 1.05
28 -8 -2 1.83 0.51
-28 -8 2 1.87 0.64
-28 -8 2 3.75 0.67
28 8 -2 3.04 0.74
26 -8 -2 13.18 0.93
-26 -8 2 13.22 0.98
-26 -8 2 13.32 1.21
26 8 -2 13.95 1.16
-26 8 2 13.13 0.85
-24 -8 2 15.59 1.09
-24 -8 2 14.79 0.98
24 -8 -2 14.07 0.91
24 8 -2 15.97 1.14
-24 8 2 15.39 0.86
-22 -8 2 5.16 0.7
22 -8 -2 4.57 0.56
-22 -8 2 5.13 0.63
22 -8 -2 4.46 0.55
22 8 -2 4.05 0.62
-22 8 2 5.47 0.56
-22 8 2 5.07 0.61
-20 -8 2 0.6 0.29
-20 -8 2 0.49 0.32
20 -8 -2 0.05 0.27
20 -8 -2 0.44 0.28
20 8 -2 0.52 0.23
-20 8 2 0.65 0.28
20 8 -2 0.77 0.36
-20 8 2 0.66 0.31
18 -8 -2 9.41 0.65
-18 -8 2 8.92 0.74
18 -8 -2 9.46 0.63
-18 -8 2 9.34 0.66
-18 8 2 8.96 0.67
18 8 -2 10.12 0.56
-18 8 2 10.84 0.65
18 8 -2 9.6 0.73
16 -8 -2 4.6 0.47
-16 -8 2 3.55 0.5
-16 -8 2 3.61 0.44
16 -8 -2 3.16 0.42
-16 -8 2 3.71 0.42
16 8 -2 3.95 0.51
16 8 -2 4.46 0.42
-16 8 2 3.3 0.46
-16 8 2 3.03 0.39
-14 -8 2 28.54 1.04
-14 -8 2 27.5 1.17
14 -8 -2 29.93 1.04
14 -8 -2 27.07 1.06
-14 -8 2 27.49 1.04
-14 8 2 28.12 1.05
14 8 -2 27.55 1.1
14 8 -2 29.61 1
-12 -8 2 30.44 1.06
12 -8 -2 30.88 1.11
-12 -8 2 30.39 1.18
12 -8 -2 30.34 1.03
-12 -8 2 30.25 1.07
-12 8 2 32.65 1.11
12 8 -2 31.19 1.04
12 8 -2 29.28 1.09
12 8 -2 29.16 1.17
-10 -8 2 0.01 0.12
10 -8 -2 -0.05 0.12
-10 -8 2 0 0.16
10 -8 -2 0.09 0.17
-10 -8 2 0.05 0.16
10 8 -2 -0.12 0.12
-10 8 2 0.15 0.17
10 8 -2 -0.13 0.13
-8 -8 2 3.96 0.43
8 -8 -2 4.25 0.42
-8 -8 2 3.47 0.41
8 -8 -2 4.34 0.33
-8 -8 2 4.01 0.37
8 8 -2 3.54 0.37
8 8 -2 3.91 0.3
-8 8 2 4.11 0.43
6 -8 -2 9.11 0.44
-6 -8 2 9.21 0.45
6 -8 -2 8.2 0.51
6 -8 -2 8.45 0.53
-6 -8 2 7.29 0.49
-6 -8 2 8.71 0.52
-6 8 2 9.37 0.54
6 8 -2 9.28 0.49
6 8 -2 9.41 0.44
4 -8 -2 35.29 1.23
4 -8 -2 38.53 1.08
-4 -8 2 37.41 1.22
-4 -8 2 39.19 1.09
-4 -8 2 39.16 1.25
4 -8 -2 38.24 1.21
4 8 -2 39.42 1.1
-4 8 2 40.3 1.05
-4 8 2 39.17 1.27
4 8 -2 38.37 1.17
-2 -8 2 28.65 0.83
2 -8 -2 29.14 0.85
2 -8 -2 28.57 1.03
2 -8 -2 28.2 0.98
-2 -8 2 29.95 1.04
-2 -8 2 29.45 0.99
2 8 -2 27.68 0.94
-2 8 2 27.3 1.03
2 8 -2 28.33 0.87
-2 8 2 30.11 0.9
0 -8 2 23.8 0.7
0 -8 -2 23.26 0.71
0 -8 -2 23.43 0.9
0 -8 -2 22.76 0.85
0 -8 2 22 0.82
0 -8 2 24.65 0.92
0 8 2 23.26 0.93
0 8 -2 23.43 0.76
0 8 2 23.25 0.82
0 8 -2 23.98 0.84
-2 -8 -2 16.57 0.71
-2 -8 -2 18.13 0.77
2 -8 2 17.33 0.55
2 -8 2 17.73 0.78
2 -8 2 17.83 0.68
-2 -8 -2 17.39 0.55
-2 8 -2 18.16 0.65
-2 8 -2 16.35 0.7
2 8 2 17.02 0.78
2 8 2 17.89 0.73
4 -8 2 -0.02 0.15
-4 -8 -2 0.47 0.18
-4 -8 -2 0.18 0.15
-4 -8 -2 0.38 0.1
4 -8 2 0.3 0.14
4 -8 2 0.27 0.11
4 8 2 0.09 0.15
4 8 2 0.09 0.17
-4 8 -2 0.26 0.15
-4 8 -2 0.29 0.13
6 -8 2 5.26 0.28
6 -8 2 5.56 0.35
6 -8 2 5.03 0.47
-6 -8 -2 5.5 0.41
-6 -8 -2 5.34 0.43
6 8 2 4.47 0.49
6 8 2 4.41 0.47
-6 8 -2 5.45 0.37
-6 8 -2 5.86 0.43
-8 -8 -2 38.16 1.26
8 -8 2 38.9 1.1
8 -8 2 38.94 1.01
-8 -8 -2 36.55 1.2
8 -8 2 37.96 1.3
8 8 2 35.1 1.33
-8 8 -2 38.07 1.26
8 8 2 35.13 1.34
-8 8 -2 37.49 1.16
10 -8 2 28.03 1.13
10 -8 2 29.47 1.13
-10 -8 -2 29.44 1.09
-10 -8 -2 28.07 1.03
10 -8 2 30.76 0.92
-10 8 -2 28.46 1
10 8 2 31.6 1.23
-10 8 -2 30.06 1.1
10 8 2 28.97 1.22
-12 -8 -2 5.25 0.52
-12 -8 -2 6.29 0.47
12 -8 2 6.66 0.63
12 -8 2 5.92 0.58
12 -8 2 6.59 0.38
12 8 2 6.24 0.66
-12 8 -2 6.12 0.57
-12 8 -2 5.61 0.44
12 8 2 6.05 0.67
14 -8 2 7.23 0.58
14 -8 2 6.7 0.66
-14 -8 -2 7.2 0.55
-14 -8 -2 5.98 0.5
14 8 2 7.28 0.8
14 8 2 5.64 0.65
-14 8 -2 6.51 0.49
-14 8 -2 7.19 0.58
-16 -8 -2 1.75 0.34
-16 -8 -2 2.16 0.38
16 -8 2 1.37 0.35
16 -8 2 2.09 0.44
-16 8 -2 1.5 0.3
16 8 2 2.31 0.47
16 8 2 1.58 0.43
-16 8 -2 1.46 0.37
-18 -8 -2 20 0.94
-18 -8 -2 19.38 0.91
18 -8 2 18.24 0.99
-18 -8 -2 17.03 0.99
18 8 2 17.41 1.06
-18 8 -2 16.87 0.85
18 8 2 17.88 1.17
-20 -8 -2 18.52 0.95
-20 -8 -2 18.34 0.93
20 -8 2 15.39 0.95
-20 -8 -2 17.69 1.01
-20 8 -2 17.81 0.88
20 8 2 17.03 1.07
20 8 2 15.47 1.16
-22 -8 -2 14.98 0.92
22 -8 2 19.88 1.1
-22 -8 -2 16.48 0.95
-22 8 -2 16.58 0.88
22 8 2 17.92 1.29
-24 -8 -2 5.23 0.67
24 -8 2 5.13 0.74
-24 -8 -2 6.08 0.71
-24 8 -2 4.39 0.57
24 8 2 4.6 0.87
-26 -8 -2 0.05 0.34
26 -8 2 0.19 0.4
-26 8 -2 -0.19 0.28
26 8 2 0.2 0.5
-28 -8 -2 0.13 0.38
28 -8 2 -0.05 0.42
28 8 2 -0.22 0.58
-28 8 -2 -0.34 0.3
-27 -9 2 0.04 0.38
27 -9 -2 0.25 0.38
-27 -9 2 0.27 0.46
27 9 -2 0.39 0.52
-27 9 2 0.61 0.43
-25 -9 2 -0.63 0.36
-25 -9 2 0.15 0.35
25 -9 -2 -0.01 0.34
25 9 -2 -0.19 0.4
-25 9 2 -0.5 0.28
-23 -9 2 0.73 0.38
23 -9 -2 1.26 0.4
-23 -9 2 1.26 0.47
-23 9 2 0.54 0.31
23 9 -2 1.28 0.49
-21 -9 2 6.62 0.78
-21 -9 2 5.34 0.64
21 -9 -2 5.8 0.64
21 -9 -2 5.95 0.64
21 9 -2 6.4 0.79
-21 9 2 5.24 0.6
19 -9 -2 8.11 0.66
-19 -9 2 9.95 0.8
19 -9 -2 9.48 0.69
-19 -9 2 9.13 0.69
-19 9 2 9.1 0.67
19 9 -2 8.51 0.75
17 -9 -2 18.07 0.87
-17 -9 2 17.7 1.17
-17 -9 2 14.35 0.94
17 -9 -2 17.23 0.86
-17 -9 2 16.57 0.85
-17 9 2 17.91 0.87
17 9 -2 16.26 0.75
17 9 -2 17.65 0.95
-15 -9 2 1.47 0.31
15 -9 -2 1.51 0.32
15 -9 -2 1.38 0.32
-15 -9 2 0.9 0.33
-15 -9 2 1.6 0.33
15 9 -2 1.99 0.4
-15 9 2 2.01 0.36
15 9 -2 1.2 0.26
-13 -9 2 7.01 0.52
13 -9 -2 6.93 0.52
13 -9 -2 7.39 0.56
-13 -9 2 6.65 0.51
-13 -9 2 7.41 0.61
-13 9 2 7.52 0.56
13 9 -2 7.54 0.57
13 9 -2 7.96 0.51
-11 -9 2 3.03 0.37
11 -9 -2 3.31 0.38
11 -9 -2 4.61 0.47
-11 -9 2 4.42 0.5
-11 -9 2 3.19 0.39
11 9 -2 3.66 0.43
11 9 -2 3.33 0.37
11 9 -2 3.11 0.36
-11 9 2 3.76 0.46
9 -9 -2 13.49 0.62
-9 -9 2 12.86 0.62
-9 -9 2 11.72 0.65
9 -9 -2 13.06 0.69
-9 -9 2 12.93 0.71
9 9 -2 13.42 0.67
9 9 -2 12.97 0.59
-9 9 2 12.74 0.69
-7 -9 2 5.9 0.52
-7 -9 2 5.82 0.39
-7 -9 2 6.44 0.49
7 -9 -2 5.59 0.46
7 -9 -2 6.18 0.56
7 -9 -2 5.4 0.38
-7 9 2 5.86 0.47
7 9 -2 6.21 0.39
7 9 -2 5.48 0.43
5 -9 -2 -0.01 0.12
-5 -9 2 -0.24 0.13
-5 -9 2 0.03 0.12
5 -9 -2 0.12 0.18
5 -9 -2 -0.04 0.16
-5 -9 2 0.13 0.17
-5 9 2 -0.29 0.13
5 9 -2 -0.09 0.12
5 9 -2 0.06 0.12
-5 9 2 0.12 0.11
3 -9 -2 0.56 0.22
-3 -9 2 0.32 0.19
-3 -9 2 0.23 0.17
-3 -9 2 0.66 0.16
3 -9 -2 0.37 0.14
3 -9 -2 0.51 0.2
-3 9 2 0.44 0.15
3 9 -2 0.41 0.15
3 9 -2 0.4 0.17
-3 9 2 0.33 0.18
1 -9 -2 0.93 0.18
1 -9 -2 1.05 0.25
-1 -9 2 0.84 0.25
-1 -9 2 1.03 0.23
1 -9 -2 0.73 0.24
-1 -9 2 1.15 0.18
1 9 -2 1.05 0.19
-1 9 2 0.69 0.19
-1 9 2 0.91 0.26
1 9 -2 0.77 0.2
1 -9 2 5.56 0.52
-1 -9 -2 6.29 0.45
1 -9 2 6.39 0.33
1 -9 2 5.68 0.41
-1 -9 -2 5.64 0.33
-1 -9 -2 5.98 0.48
-1 9 -2 7.02 0.43
1 9 2 5.48 0.42
1 9 2 6.82 0.52
-1 9 -2 6.12 0.38
3 -9 2 12.71 0.68
-3 -9 -2 10.77 0.63
3 -9 2 11.2 0.44
-3 -9 -2 11.38 0.43
3 -9 2 12.09 0.57
-3 -9 -2 11.36 0.61
-3 9 -2 11.07 0.57
3 9 2 10.93 0.66
3 9 2 10.73 0.61
-3 9 -2 10.79 0.52
5 -9 2 22.64 0.96
5 -9 2 23.31 0.71
-5 -9 -2 24.19 0.96
-5 -9 -2 23.09 0.9
5 -9 2 23.05 0.83
-5 9 -2 22.89 0.82
5 9 2 21.21 0.98
-5 9 -2 22.06 0.87
5 9 2 22.08 0.95
7 -9 2 0.49 0.23
7 -9 2 0.17 0.15
-7 -9 -2 0.03 0.16
-7 -9 -2 0.51 0.23
7 9 2 0.36 0.25
7 9 2 0.21 0.21
-7 9 -2 0.36 0.19
-7 9 -2 0.48 0.18
-9 -9 -2 -0.05 0.17
9 -9 2 0.28 0.22
-9 -9 -2 0.13 0.18
9 -9 2 0.22 0.16
9 9 2 0.12 0.21
-9 9 -2 0.55 0.22
9 9 2 0.21 0.24
-9 9 -2 0.1 0.16
11 -9 2 0.33 0.24
-11 -9 -2 -0.1 0.16
-11 -9 -2 -0.1 0.16
11 -9 2 0.09 0.14
11 9 2 0.12 0.22
-11 9 -2 0.18 0.16
-11 9 -2 0.01 0.18
11 9 2 0.04 0.22
13 -9 2 20.44 0.99
13 -9 2 18.76 0.96
-13 -9 -2 21.48 0.95
-13 -9 -2 19.7 0.89
-13 9 -2 18.94 0.9
13 9 2 18.96 1.09
13 9 2 21.95 1.1
-13 9 -2 19.76 0.84
15 -9 2 15.15 0.89
-15 -9 -2 15.43 0.82
15 -9 2 15.39 1.05
-15 -9 -2 14.93 0.8
15 9 2 14.39 0.93
-15 9 -2 14.8 0.75
-15 9 -2 12.4 0.77
15 9 2 14.98 1.01
17 -9 2 2.19 0.44
-17 -9 -2 4.33 0.55
-17 -9 -2 4.13 0.53
17 9 2 4.95 0.78
17 9 2 3.98 0.61
-17 9 -2 4.2 0.48
-19 -9 -2 0.45 0.36
19 -9 2 0.33 0.34
-19 -9 -2 0.84 0.33
-19 -9 -2 0.59 0.31
19 9 2 0.63 0.42
19 9 2 0.64 0.4
-19 9 -2 0.41 0.26
-21 -9 -2 1.25 0.39
-21 -9 -2 1.12 0.38
21 -9 2 1.24 0.44
21 9 2 1.83 0.59
-21 9 -2 1.66 0.37
23 -9 2 0.48 0.38
-23 -9 -2 0.74 0.37
-23 -9 -2 1.01 0.4
-23 9 -2 1.38 0.39
23 9 2 1.13 0.55
-25 -9 -2 0.85 0.4
25 -9 2 1.27 0.5
-25 -9 -2 1.39 0.48
-25 9 -2 1.41 0.39
25 9 2 0.44 0.56
27 -9 2 1.61 0.56
-27 -9 -2 0.68 0.43
27 9 2 1.83 0.76
-27 9 -2 1.52 0.45
-26 -10 2 8.77 0.93
26 -10 -2 8.82 0.89
-26 -10 2 8.25 1
-26 10 2 8.28 0.84
26 10 -2 6.25 0.97
-24 -10 2 11.6 1.1
-24 -10 2 13.36 0.98
24 -10 -2 12.57 0.94
-24 10 2 11.7 0.86
24 10 -2 13.25 1.13
-22 -10 2 4.38 0.7
-22 -10 2 4.77 0.66
22 -10 -2 4.59 0.63
22 10 -2 5.17 0.77
-22 10 2 4.01 0.57
20 -10 -2 0.22 0.3
20 -10 -2 -0.12 0.27
-20 -10 2 0.12 0.28
-20 -10 2 0.3 0.36
20 10 -2 0.25 0.33
-20 10 2 0.15 0.27
18 -10 -2 1.82 0.4
-18 -10 2 1.57 0.39
18 -10 -2 2.05 0.39
-18 -10 2 1.35 0.43
-18 10 2 1.53 0.37
18 10 -2 2.02 0.47
-16 -10 2 30.93 1.37
-16 -10 2 29.53 1.19
16 -10 -2 29.04 1.2
16 -10 -2 31.6 1.21
-16 10 2 30.12 1.21
16 10 -2 31.88 1.32
-14 -10 2 59.86 1.97
-14 -10 2 57.22 1.98
-14 -10 2 60.3 1.82
14 -10 -2 59.12 1.81
14 -10 -2 58.8 1.85
14 10 -2 63.28 1.95
-14 10 2 59.25 1.87
14 10 -2 60.45 1.74
-12 -10 2 27.46 1.19
12 -10 -2 26.74 1.1
-12 -10 2 29.69 1.07
12 -10 -2 29.34 1.07
-12 -10 2 28.26 1.07
12 10 -2 28.87 1.03
-12 10 2 27.7 1.14
12 10 -2 28.72 1.14
-10 -10 2 5.44 0.53
-10 -10 2 5.01 0.47
-10 -10 2 6.28 0.64
10 -10 -2 5.34 0.56
10 -10 -2 5.29 0.49
10 -10 -2 5.6 0.54
-10 10 2 6.78 0.63
10 10 -2 4.87 0.5
10 10 -2 4.78 0.46
8 -10 -2 0.06 0.21
-8 -10 2 -0.05 0.18
8 -10 -2 0.11 0.21
8 -10 -2 -0.21 0.15
-8 -10 2 -0.15 0.17
-8 -10 2 0.19 0.15
8 10 -2 -0.08 0.12
-8 10 2 -0.1 0.16
8 10 -2 0.35 0.19
-6 -10 2 5.56 0.55
-6 -10 2 5.12 0.38
6 -10 -2 5.02 0.44
-6 -10 2 5.03 0.51
6 -10 -2 5.91 0.56
6 -10 -2 4.85 0.5
6 10 -2 5.73 0.45
-6 10 2 5.71 0.56
6 10 -2 5.51 0.41
4 -10 -2 9 0.63
-4 -10 2 9.38 0.47
4 -10 -2 9.45 0.58
4 -10 -2 8.44 0.48
-4 -10 2 8.54 0.56
-4 -10 2 8.88 0.6
4 10 -2 8.33 0.51
4 10 -2 9.11 0.5
-4 10 2 10.02 0.65
-2 -10 2 28.75 1.08
2 -10 -2 27.82 1.06
-2 -10 2 29.41 1.12
-2 -10 2 30.97 0.93
2 -10 -2 29.5 0.94
2 -10 -2 29.91 1.13
2 10 -2 29.64 0.99
-2 10 2 28.35 1.14
-2 10 2 29.32 0.98
2 10 -2 28.54 1
0 -10 2 22.3 0.87
0 -10 2 20.95 0.71
0 -10 -2 20.17 0.72
0 -10 2 19.34 0.91
0 -10 -2 20.12 0.91
0 -10 -2 20.83 0.87
0 10 2 18.25 0.79
0 10 2 19.31 0.93
0 10 -2 20.93 0.81
0 10 -2 21.73 0.79
-2 -10 -2 15.24 0.75
2 -10 2 16.15 0.82
2 -10 2 17.89 0.76
2 -10 2 16.82 0.61
-2 -10 -2 16.64 0.81
2 10 2 16.04 0.77
-2 10 -2 15.82 0.7
2 10 2 16.13 0.84
-2 10 -2 17.31 0.7
4 -10 2 0.32 0.18
4 -10 2 0.48 0.25
-4 -10 -2 0.55 0.22
-4 -10 -2 0.08 0.2
-4 10 -2 0.37 0.18
4 10 2 0.35 0.22
-4 10 -2 0.42 0.17
4 10 2 0.26 0.23
6 -10 2 49.43 1.44
-6 -10 -2 44.54 1.5
6 -10 2 48.41 1.62
-6 -10 -2 48.46 1.57
-6 10 -2 48.79 1.44
6 10 2 44.56 1.6
6 10 2 49.39 1.68
-6 10 -2 50.3 1.48
-8 -10 -2 46.4 1.51
-8 -10 -2 42.28 1.45
8 -10 2 45.66 1.57
8 -10 2 47.32 1.36
8 10 2 46.17 1.64
-8 10 -2 43.28 1.37
-8 10 -2 44.16 1.41
8 10 2 40.56 1.57
-10 -10 -2 32.16 1.2
10 -10 2 32.05 1.29
-10 -10 -2 32.03 1.21
10 -10 2 32.62 1.06
-10 10 -2 30.19 1.1
-10 10 -2 32.42 1.15
10 10 2 30.5 1.35
10 10 2 30.25 1.33
12 -10 2 61.34 1.99
-12 -10 -2 61.08 1.91
-12 -10 -2 62.84 1.89
12 10 2 58.65 2.06
-12 10 -2 64.92 1.87
12 10 2 58.39 2.11
-12 10 -2 59.51 1.79
-14 -10 -2 9.37 0.69
14 -10 2 9.02 0.72
-14 -10 -2 11.41 0.72
14 10 2 8.76 0.91
14 10 2 9.88 0.92
-14 10 -2 9.58 0.64
-16 -10 -2 3.7 0.5
-16 -10 -2 4.63 0.55
16 -10 2 4.03 0.61
16 10 2 4.52 0.67
16 10 2 4.47 0.76
-16 10 -2 4.44 0.49
18 -10 2 25.43 1.26
-18 -10 -2 25.24 1.28
-18 -10 -2 26.53 1.18
-18 -10 -2 26.19 1.18
18 10 2 22.55 1.27
18 10 2 23.36 1.43
-18 10 -2 25.52 1.09
-20 -10 -2 29.68 1.32
20 -10 2 28.58 1.41
-20 -10 -2 29.17 1.31
-20 10 -2 29.88 1.23
20 10 2 30.53 1.69
-22 -10 -2 11.54 0.87
-22 -10 -2 10.84 0.97
22 -10 2 11.93 1.07
22 10 2 10.05 1.27
-22 10 -2 11.19 0.8
-24 -10 -2 0.35 0.36
24 -10 2 1.87 0.52
-24 -10 -2 0.56 0.41
24 10 2 0.72 0.58
-24 10 -2 1.04 0.4
-23 -11 2 1.04 0.49
23 -11 -2 0 0.34
-23 -11 2 0.71 0.41
23 11 -2 0.4 0.44
-23 11 2 0.39 0.35
-21 -11 2 3.59 0.58
-21 -11 2 2.63 0.61
21 -11 -2 3.31 0.55
21 11 -2 3.81 0.68
-21 11 2 3.09 0.54
19 -11 -2 1.37 0.39
-19 -11 2 1.78 0.52
-19 -11 2 2.09 0.45
19 -11 -2 2.41 0.47
-19 11 2 2.25 0.48
19 11 -2 1.19 0.45
17 -11 -2 0.06 0.27
17 -11 -2 -0.31 0.27
-17 -11 2 -0.25 0.29
-17 -11 2 0.04 0.25
-17 11 2 -0.09 0.27
17 11 -2 0.1 0.29
-15 -11 2 1.24 0.41
-15 -11 2 0.3 0.25
15 -11 -2 0.27 0.28
15 -11 -2 0.4 0.28
15 11 -2 0.44 0.32
-15 11 2 0.87 0.34
-13 -11 2 0.21 0.26
13 -11 -2 -0.32 0.23
-13 -11 2 0.12 0.21
13 -11 -2 -0.01 0.23
13 -11 -2 0.12 0.24
13 11 -2 -0.07 0.23
-13 11 2 0.37 0.28
11 -11 -2 0.12 0.26
-11 -11 2 0.19 0.19
-11 -11 2 -0.18 0.23
11 -11 -2 0.1 0.25
-11 -11 2 -0.08 0.2
11 -11 -2 0.21 0.23
11 11 -2 0.26 0.23
-11 11 2 0.53 0.28
9 -11 -2 0.06 0.26
9 -11 -2 0.41 0.27
9 -11 -2 0.47 0.24
-9 -11 2 0.91 0.28
-9 -11 2 0.42 0.23
-9 -11 2 0.64 0.28
9 11 -2 0.78 0.28
-9 11 2 0.61 0.28
9 11 -2 0.31 0.19
-7 -11 2 0.22 0.19
7 -11 -2 0.2 0.19
-7 -11 2 0.17 0.23
-7 -11 2 -0.23 0.2
7 -11 -2 0 0.22
7 -11 -2 -0.12 0.23
7 11 -2 0.06 0.17
7 11 -2 0.03 0.2
-7 11 2 -0.23 0.19
5 -11 -2 1.59 0.35
5 -11 -2 1.15 0.26
-5 -11 2 0.93 0.29
5 -11 -2 1.42 0.32
-5 -11 2 1.89 0.36
-5 -11 2 1.36 0.25
5 11 -2 1.48 0.27
5 11 -2 1.65 0.3
-5 11 2 1.89 0.37
3 -11 -2 -0.05 0.2
-3 -11 2 0.09 0.14
3 -11 -2 0.24 0.23
-3 -11 2 -0.06 0.19
3 -11 -2 -0.05 0.16
-3 -11 2 -0.04 0.21
3 11 -2 -0.19 0.14
3 11 -2 0.07 0.17
-3 11 2 0.26 0.21
1 -11 -2 0.13 0.21
1 -11 -2 0.14 0.21
-1 -11 2 0.09 0.19
-1 -11 2 0.07 0.16
1 -11 -2 -0.29 0.17
-1 -11 2 0.13 0.23
1 11 -2 0.11 0.16
-1 11 2 0.03 0.16
-1 11 2 -0.14 0.19
1 11 -2 -0.13 0.14
1 -11 2 1.87 0.38
-1 -11 -2 1.82 0.37
-1 -11 -2 2.04 0.37
1 -11 2 2.87 0.39
1 11 2 2.4 0.43
1 11 2 2.19 0.35
-1 11 -2 2.13 0.32
-1 11 -2 2.28 0.33
-3 -11 -2 6.17 0.6
3 -11 2 5.5 0.58
-3 -11 -2 4.35 0.49
3 -11 2 5.73 0.47
3 11 2 5.14 0.55
3 11 2 5.66 0.62
-3 11 -2 5.1 0.47
-3 11 -2 5.53 0.44
5 -11 2 0.07 0.17
5 -11 2 0.04 0.26
-5 -11 -2 0.2 0.23
-5 -11 -2 -0.12 0.2
5 11 2 -0.01 0.22
5 11 2 0.06 0.24
-5 11 -2 -0.01 0.14
-5 11 -2 -0.11 0.15
7 -11 2 10.2 0.61
-7 -11 -2 11.06 0.71
-7 -11 -2 8.78 0.64
7 -11 2 8.59 0.7
7 11 2 9.55 0.72
-7 11 -2 9.23 0.57
7 11 2 9.34 0.73
-7 11 -2 9.36 0.57
9 -11 2 3.58 0.41
-9 -11 -2 2.93 0.43
9 -11 2 3.65 0.53
-9 -11 -2 2.84 0.45
-9 11 -2 3.21 0.41
9 11 2 2.96 0.52
-9 11 -2 2.06 0.34
9 11 2 2.45 0.48
-11 -11 -2 3.56 0.49
11 -11 2 4.49 0.62
-11 -11 -2 2.28 0.42
11 -11 2 3.03 0.49
-11 11 -2 3.03 0.56
-11 11 -2 3.28 0.41
11 11 2 3.11 0.54
11 11 2 2.88 0.53
-13 -11 -2 4.95 0.57
13 -11 2 5.03 0.64
-13 -11 -2 4.73 0.57
13 11 2 3.54 0.63
-13 11 -2 4.04 0.49
13 11 2 5.5 0.72
-15 -11 -2 0.06 0.25
-15 -11 -2 0.06 0.26
15 -11 2 0.31 0.31
15 11 2 0.13 0.33
15 11 2 -0.02 0.29
-15 11 -2 -0.14 0.21
-17 -11 -2 0.01 0.28
-17 -11 -2 -0.14 0.24
17 -11 2 0.28 0.32
17 11 2 -0.25 0.33
17 11 2 -0.03 0.36
-17 11 -2 0.11 0.23
-19 -11 -2 0.21 0.31
-19 -11 -2 0.02 0.34
19 -11 2 -0.18 0.34
19 11 2 -0.2 0.38
-19 11 -2 0.12 0.26
21 -11 2 0.31 0.43
-21 -11 -2 0.08 0.3
-21 -11 -2 -0.39 0.29
-21 11 -2 0.01 0.28
21 11 2 0.54 0.5
23 -11 2 0.03 0.42
-23 -11 -2 0.33 0.38
-23 -11 -2 0.31 0.33
23 11 2 0.61 0.58
-23 11 -2 0.04 0.29
-22 -12 2 12.1 1.18
22 -12 -2 9.33 0.94
-22 -12 2 11.05 0.97
-22 12 2 10.19 0.96
22 12 -2 10.76 1.15
-20 -12 2 1.12 0.49
-20 -12 2 0.75 0.36
20 -12 -2 1.12 0.45
-20 12 2 1.02 0.42
20 12 -2 0.96 0.47
18 -12 -2 2.36 0.51
-18 -12 2 3.63 0.53
-18 -12 2 2.19 0.54
18 -12 -2 3.11 0.52
-18 12 2 3.23 0.55
18 12 -2 3.07 0.59
16 -12 -2 9.7 0.84
-16 -12 2 10.77 0.75
16 -12 -2 9.6 0.74
-16 -12 2 8.37 0.88
16 -12 -2 11.09 0.85
16 12 -2 9.8 0.84
-16 12 2 9.11 0.83
14 -12 -2 28.38 1.21
14 -12 -2 28.3 1.19
14 -12 -2 26.25 1.24
-14 -12 2 26.49 1.31
-14 -12 2 27.23 1.15
14 12 -2 28.21 1.28
-14 12 2 25.51 1.22
-12 -12 2 22.53 0.99
-12 -12 2 23.23 1.18
12 -12 -2 24.97 1.1
12 -12 -2 21.81 1.13
12 -12 -2 25.64 1.09
12 12 -2 23.59 1.12
-12 12 2 25.75 1.18
10 -12 -2 19.54 0.96
10 -12 -2 19.76 1.03
10 -12 -2 20.07 0.93
-10 -12 2 18.57 1.01
-10 -12 2 19.8 0.89
10 12 -2 20.29 0.98
-10 12 2 18.6 0.99
8 -12 -2 2.5 0.47
-8 -12 2 3.04 0.39
8 -12 -2 2.68 0.42
8 -12 -2 2.64 0.41
-8 -12 2 2.83 0.45
-8 -12 2 3.44 0.52
8 12 -2 3.03 0.44
8 12 -2 2.46 0.38
-8 12 2 2.88 0.47
6 -12 -2 0.46 0.29
-6 -12 2 0.66 0.22
6 -12 -2 0.75 0.26
-6 -12 2 0.51 0.28
6 -12 -2 1.03 0.33
-6 -12 2 0.92 0.31
-6 12 2 0.97 0.33
6 12 -2 1.05 0.3
6 12 -2 0.58 0.23
4 -12 -2 10.99 0.73
-4 -12 2 8.46 0.67
4 -12 -2 10.46 0.7
4 -12 -2 9.5 0.65
-4 -12 2 9.85 0.68
-4 12 2 10.42 0.76
4 12 -2 9.08 0.6
4 12 -2 10.56 0.63
-2 -12 2 19.16 0.94
2 -12 -2 19.77 0.94
2 -12 -2 19.18 0.96
-2 -12 2 19.78 0.97
2 12 -2 18.61 0.85
-2 12 2 18.97 1.01
2 12 -2 19.98 0.85
0 -12 -2 4.79 0.54
0 -12 -2 5 0.56
0 -12 2 5.05 0.55
0 -12 2 4.24 0.55
0 12 -2 5.04 0.44
0 12 -2 4.24 0.47
0 12 2 4.62 0.61
2 -12 2 0.32 0.27
2 -12 2 0.24 0.21
-2 -12 -2 -0.11 0.23
-2 -12 -2 0.37 0.26
-2 12 -2 0.18 0.19
2 12 2 -0.26 0.19
-2 12 -2 0.3 0.19
2 12 2 0.33 0.23
4 -12 2 0.1 0.2
4 -12 2 -0.07 0.25
-4 -12 -2 0.38 0.26
-4 -12 -2 -0.15 0.24
4 12 2 0.12 0.26
-4 12 -2 0.29 0.2
4 12 2 0.2 0.25
-4 12 -2 0.44 0.21
6 -12 2 21.53 1.08
-6 -12 -2 22.26 1.04
6 -12 2 21.09 0.92
-6 -12 -2 21.57 1.01
6 12 2 22.7 1.15
-6 12 -2 21.47 0.91
6 12 2 20.84 1.08
-6 12 -2 20.64 0.87
8 -12 2 47.3 1.74
-8 -12 -2 44.19 1.61
8 -12 2 50.87 1.56
-8 -12 -2 47.64 1.66
8 12 2 46.46 1.78
8 12 2 47.72 1.82
-8 12 -2 47.58 1.48
-8 12 -2 48.17 1.54
-10 -12 -2 49.76 1.69
10 -12 2 52.1 1.73
10 -12 2 46.38 1.76
-10 -12 -2 49.42 1.69
10 12 2 48.03 1.88
10 12 2 47.03 1.84
-10 12 -2 46.1 1.56
-12 -12 -2 23.32 1.11
-12 -12 -2 24.04 1.12
12 -12 2 24.66 1.22
-12 12 -2 23.31 1.02
12 12 2 22.33 1.29
12 12 2 22.34 1.24
14 -12 2 0.28 0.35
-14 -12 -2 0.69 0.34
-14 -12 -2 0.68 0.34
14 12 2 0.5 0.4
14 12 2 0.48 0.37
-14 12 -2 0.11 0.25
-16 -12 -2 0.89 0.36
16 -12 2 1.59 0.5
-16 -12 -2 2.17 0.48
16 12 2 0.65 0.43
16 12 2 1.78 0.53
-16 12 -2 2.11 0.44
18 -12 2 5.22 0.75
-18 -12 -2 5.91 0.72
-18 -12 -2 5.52 0.71
18 12 2 4.97 0.85
-18 12 -2 6.3 0.69
20 -12 2 10.11 1.03
-20 -12 -2 9.7 0.92
-20 -12 -2 10.38 0.97
-20 12 -2 8.97 0.81
20 12 2 9.96 1.22
-22 -12 -2 4.15 0.68
-22 -12 -2 4.6 0.73
22 -12 2 3.63 0.71
22 12 2 4.11 0.92
-22 12 -2 3.52 0.58
21 -13 -2 14.6 1.06
-21 -13 2 11.29 1.24
21 13 -2 13.5 1.46
-21 13 2 14.3 1.05
-19 -13 2 1.36 0.42
-19 -13 2 0.22 0.44
19 -13 -2 0.56 0.41
19 13 -2 0.9 0.47
-19 13 2 0.8 0.43
-17 -13 2 -0.15 0.36
17 -13 -2 1.14 0.43
17 -13 -2 0.34 0.36
-17 -13 2 0.26 0.34
-17 13 2 0.39 0.36
17 13 -2 0.64 0.39
15 -13 -2 1.12 0.41
15 -13 -2 1.01 0.39
-15 -13 2 0.59 0.32
-15 -13 2 1.46 0.47
15 -13 -2 0.76 0.42
-15 13 2 1.07 0.42
15 13 -2 0.66 0.4
13 -13 -2 0.08 0.36
13 -13 -2 0.16 0.3
13 -13 -2 0 0.31
-13 -13 2 0.17 0.31
-13 -13 2 0.19 0.26
-13 13 2 0.54 0.34
13 13 -2 0 0.29
-11 -13 2 4.59 0.64
11 -13 -2 4.43 0.62
-11 -13 2 4.39 0.53
11 -13 -2 4.38 0.58
11 -13 -2 4.05 0.57
-11 13 2 5 0.65
11 13 -2 6.23 0.68
9 -13 -2 9.76 0.74
-9 -13 2 10.34 0.79
9 -13 -2 10.61 0.72
9 -13 -2 10.31 0.82
9 13 -2 11.57 0.77
-9 13 2 10.01 0.88
-7 -13 2 9.2 0.75
7 -13 -2 8.56 0.81
7 -13 -2 8.2 0.78
7 -13 -2 8.58 0.76
-7 13 2 7.88 0.81
7 13 -2 9.79 0.68
7 13 -2 8.59 0.66
5 -13 -2 4.19 0.56
5 -13 -2 3.48 0.55
-5 -13 2 4.02 0.56
-5 -13 2 3.89 0.54
5 13 -2 3.9 0.47
5 13 -2 3.77 0.49
-5 13 2 3.77 0.59
-3 -13 2 0.24 0.28
3 -13 -2 -0.13 0.27
-3 -13 2 -0.03 0.27
3 -13 -2 0.18 0.27
3 13 -2 -0.02 0.19
-3 13 2 0 0.25
3 13 -2 0.16 0.24
1 -13 -2 12.06 0.8
1 -13 -2 10.96 0.74
-1 -13 2 12.11 0.77
-1 -13 2 10.88 0.8
1 13 -2 10.86 0.68
1 13 -2 11.02 0.65
-1 13 2 11.46 0.85
-1 -13 -2 12.9 0.8
-1 -13 -2 14.76 0.87
1 -13 2 14.38 0.81
1 -13 2 13.96 0.87
1 13 2 11.65 0.88
-1 13 -2 12.63 0.73
-1 13 -2 13.07 0.68
3 -13 2 5.85 0.6
-3 -13 -2 4.96 0.6
3 -13 2 4.99 0.61
-3 -13 -2 4.5 0.55
3 13 2 3.69 0.56
3 13 2 5.47 0.7
-3 13 -2 4.21 0.45
-3 13 -2 4.96 0.52
-5 -13 -2 11.12 0.77
5 -13 2 11.22 0.94
5 -13 2 10.89 0.7
-5 -13 -2 9.41 0.73
5 13 2 9.4 0.92
-5 13 -2 10.25 0.68
-5 13 -2 10.39 0.61
5 13 2 9.49 0.77
-7 -13 -2 0 0.28
7 -13 2 0.44 0.25
-7 -13 -2 0.03 0.28
7 -13 2 0.38 0.35
7 13 2 0.07 0.29
7 13 2 0.1 0.3
-7 13 -2 0.16 0.22
-9 -13 -2 0.93 0.37
-9 -13 -2 0.47 0.32
9 -13 2 1.98 0.49
9 -13 2 1.14 0.41
9 13 2 0.85 0.39
9 13 2 1.25 0.42
-9 13 -2 1.76 0.36
11 -13 2 1.64 0.47
-11 -13 -2 2.33 0.47
-11 -13 -2 1.79 0.46
11 13 2 1.91 0.53
-11 13 -2 2.14 0.4
11 13 2 1.37 0.45
-13 -13 -2 5.47 0.67
13 -13 2 4.24 0.66
-13 -13 -2 4.65 0.61
13 13 2 4.04 0.7
13 13 2 3.67 0.71
-13 13 -2 4.58 0.57
-15 -13 -2 4.27 0.6
15 -13 2 3.52 0.64
-15 -13 -2 2.8 0.55
15 13 2 2.11 0.62
-15 13 -2 3.2 0.5
15 13 2 2.5 0.63
-17 -13 -2 2.89 0.58
-17 -13 -2 4.14 0.62
17 -13 2 1.81 0.55
-17 13 -2 2.66 0.48
17 13 2 2.43 0.68
-19 -13 -2 3.85 0.64
-19 -13 -2 3.85 0.66
19 -13 2 3.79 0.74
19 13 2 2.79 0.77
-19 13 -2 3.15 0.53
-18 -14 2 1.53 0.57
-18 -14 2 1.66 0.61
18 -14 -2 1.45 0.48
-18 14 2 1.51 0.51
18 14 -2 1.28 0.55
-16 -14 2 4.03 0.71
16 -14 -2 3.39 0.61
16 -14 -2 4.11 0.63
16 14 -2 5.12 0.75
-16 14 2 4.59 0.66
-14 -14 2 8.03 0.89
14 -14 -2 6.84 0.75
14 -14 -2 8.02 0.79
-14 14 2 7.23 0.85
14 14 -2 9.09 0.88
12 -14 -2 1.7 0.43
12 -14 -2 1.78 0.46
-12 -14 2 2.24 0.53
12 14 -2 2.6 0.56
-12 14 2 2.31 0.53
10 -14 -2 1.49 0.43
10 -14 -2 2.26 0.52
-10 -14 2 0.85 0.41
-10 14 2 0.71 0.4
10 14 -2 0.82 0.39
8 -14 -2 0.14 0.33
8 -14 -2 0.71 0.34
-8 -14 2 0.91 0.4
-8 14 2 0.56 0.37
8 14 -2 0.92 0.36
6 -14 -2 3.38 0.56
6 -14 -2 3.06 0.53
-6 -14 2 4.4 0.63
6 14 -2 3.59 0.57
-6 14 2 3.43 0.58
6 14 -2 3.12 0.47
4 -14 -2 11.54 0.85
4 -14 -2 10.74 0.78
-4 -14 2 13.68 0.88
-4 14 2 11.14 0.89
4 14 -2 11.81 0.75
4 14 -2 11.11 0.76
-2 -14 2 12.09 0.84
-2 -14 2 11.05 0.89
2 -14 -2 11.06 0.84
2 -14 -2 11.56 0.83
-2 14 2 11.94 0.91
2 14 -2 10.55 0.73
2 14 -2 11.91 0.73
0 -14 2 8.21 0.79
0 -14 -2 7.94 0.79
0 -14 2 7.92 0.75
0 -14 -2 6.98 0.69
0 14 -2 6.36 0.65
0 14 2 8.4 0.9
0 14 -2 7.2 0.57
-2 -14 -2 2.11 0.44
-2 -14 -2 2 0.45
2 -14 2 2.61 0.53
2 -14 2 2.06 0.45
-2 14 -2 1.65 0.37
-2 14 -2 1.73 0.36
2 14 2 2.17 0.52
4 -14 2 1.33 0.36
-4 -14 -2 0.25 0.32
4 -14 2 0.25 0.33
-4 -14 -2 0.32 0.32
4 14 2 1.19 0.44
-4 14 -2 0.41 0.29
-6 -14 -2 2.13 0.47
6 -14 2 3.29 0.5
-6 -14 -2 2.89 0.52
6 -14 2 3.15 0.55
6 14 2 1.86 0.55
6 14 2 3.32 0.59
-6 14 -2 3.19 0.47
8 -14 2 7.15 0.81
8 -14 2 8.69 1
-8 -14 -2 7.84 0.78
-8 -14 -2 9.07 0.83
8 14 2 8.77 0.98
8 14 2 7.85 0.88
-8 14 -2 8.53 0.69
-10 -14 -2 6.35 0.72
-10 -14 -2 6.17 0.73
10 -14 2 4.88 0.72
-10 14 -2 6.54 0.66
10 14 2 5.27 0.76
10 14 2 5.54 0.81
12 -14 2 4.46 0.71
-12 -14 -2 5.75 0.71
-12 -14 -2 5.23 0.7
-12 14 -2 4.21 0.57
12 14 2 5.02 0.81
12 14 2 4.96 0.79
-14 -14 -2 0.26 0.36
-14 -14 -2 0.46 0.37
14 -14 2 0.18 0.39
14 14 2 0.12 0.42
-14 14 -2 0.51 0.35
14 14 2 0.21 0.45
16 -14 2 2.24 0.6
-16 -14 -2 3.56 0.6
-16 -14 -2 2.35 0.55
16 14 2 3.17 0.76
-16 14 -2 2.39 0.48
-18 -14 -2 2.48 0.6
-18 -14 -2 3 0.61
18 -14 2 2.58 0.66
-18 14 -2 2.26 0.52
18 14 2 2.62 0.76
15 -15 -2 1.34 0.61
-15 -15 2 1.65 0.56
15 -15 -2 0.53 0.44
-15 15 2 1.2 0.49
15 15 -2 0.83 0.45
13 -15 -2 2.8 0.56
-13 -15 2 3.05 0.64
-13 15 2 2.1 0.6
13 15 -2 3.32 0.64
-11 -15 2 4.56 0.71
11 -15 -2 6.18 0.73
11 15 -2 5.57 0.72
-11 15 2 4.64 0.74
-9 -15 2 7.72 0.86
9 -15 -2 7.24 0.77
-9 15 2 6.43 0.8
9 15 -2 6.02 0.72
7 -15 -2 15.54 1
-7 -15 2 20.13 1.16
7 15 -2 16.59 0.98
-7 15 2 20.64 1.21
-5 -15 2 6.89 0.79
5 -15 -2 7.54 0.8
5 -15 -2 7.07 0.77
-5 15 2 7.21 0.85
5 15 -2 6.73 0.69
3 -15 -2 -0.06 0.32
-3 -15 2 0.21 0.34
3 -15 -2 0.08 0.35
3 15 -2 0.19 0.29
3 15 -2 -0.11 0.27
-3 15 2 0.72 0.43
-1 -15 2 6.93 0.77
1 -15 -2 5.99 0.69
1 -15 -2 6.79 0.75
-1 15 2 6.9 0.86
1 15 -2 7.42 0.68
1 15 -2 6.42 0.68
-1 -15 -2 9.53 0.87
1 -15 2 10.08 0.8
1 -15 2 11.92 1.58
-1 -15 -2 9.23 0.87
1 15 2 9.31 0.95
-1 15 -2 9.13 0.73
-1 15 -2 9.84 0.92
3 -15 2 14.1 1.01
3 -15 2 12.36 0.86
-3 -15 -2 12.93 0.93
-3 -15 -2 15.87 0.99
-3 15 -2 11.94 0.85
3 15 2 9.88 1.02
5 -15 2 8.27 0.78
5 -15 2 8.55 0.89
-5 -15 -2 6.84 0.75
-5 -15 -2 7.23 0.81
-5 15 -2 7.93 0.75
5 15 2 5.95 0.83
-7 -15 -2 1.62 0.47
-7 -15 -2 0.47 0.37
7 -15 2 0.89 0.44
7 15 2 0.35 0.39
-7 15 -2 0.71 0.34
-9 -15 -2 1.77 0.47
9 -15 2 0.87 0.49
-9 -15 -2 1.02 0.42
9 15 2 0.73 0.49
9 15 2 1.08 0.48
-9 15 -2 1.86 0.45
-11 -15 -2 0.3 0.37
-11 -15 -2 0.75 0.4
11 -15 2 0.54 0.49
-11 15 -2 0.23 0.34
11 15 2 0.39 0.44
11 15 2 0.76 0.48
13 -15 2 5.59 0.84
-13 -15 -2 4.51 0.7
-13 -15 -2 6.22 0.75
13 15 2 4.33 0.8
13 15 2 5.02 0.86
-13 15 -2 4.68 0.64
-15 -15 -2 7.71 0.86
-15 -15 -2 5.74 0.78
15 -15 2 7.01 0.91
15 15 2 4.71 0.86
-15 15 -2 7.55 0.82
-10 -16 2 2.59 0.61
10 -16 -2 3.72 0.64
-10 16 2 0.88 0.48
10 16 -2 2.7 0.6
8 -16 -2 -0.07 0.37
-8 -16 2 -0.25 0.37
-8 16 2 0.2 0.38
8 16 -2 0.64 0.41
6 -16 -2 0.23 0.39
-6 -16 2 0.42 0.41
6 16 -2 0.62 0.4
-6 16 2 0.22 0.42
4 -16 -2 -0.06 0.38
-4 -16 2 0.27 0.4
4 16 -2 -0.05 0.29
-4 16 2 -0.26 0.38
-2 -16 2 0.28 0.35
2 -16 -2 -0.05 0.39
2 16 -2 0.55 0.37
-2 16 2 0.34 0.44
2 16 -2 0.61 0.38
0 -16 2 0.21 0.36
0 -16 -2 -0.06 0.35
0 -16 -2 0.24 0.36
0 16 -2 -0.17 0.31
0 16 2 -0.05 0.38
2 -16 2 3.57 0.61
-2 -16 -2 1.64 0.5
-2 -16 -2 2.14 0.53
-2 16 -2 3.01 0.53
2 16 2 2.62 0.65
4 -16 2 1.88 0.51
-4 -16 -2 1.18 0.47
-4 -16 -2 1.73 0.52
4 16 2 2.11 0.61
-4 16 -2 1.17 0.42
-6 -16 -2 0.5 0.41
-6 -16 -2 1.91 0.5
6 -16 2 1.91 0.56
6 16 2 1.39 0.53
-6 16 -2 1.82 0.47
-8 -16 -2 0.31 0.42
-8 -16 -2 0.13 0.38
8 -16 2 -0.04 0.42
8 16 2 -0.16 0.46
-8 16 -2 0.66 0.41
-10 -16 -2 0.49 0.4
10 -16 2 -0.03 0.47
-10 -16 -2 0.46 0.39
-10 16 -2 0.27 0.34
10 16 2 0.46 0.46
-1 -17 2 1.29 0.49
1 -17 -2 1.12 0.49
1 17 -2 2.2 0.54
-1 17 2 2.25 0.64
1 -17 2 4.03 0.68
-1 -17 -2 3.4 0.67
1 17 2 3.67 0.74
-1 17 -2 3.99 0.67
30 0 -3 -0.03 0.3
-30 0 3 0.14 0.41
-28 0 3 -0.34 0.35
28 0 -3 -0.23 0.24
-26 0 3 -0.4 0.3
26 0 -3 -0.23 0.21
-24 0 3 -0.35 0.26
24 0 -3 0 0.2
22 0 -3 -0.08 0.17
-22 0 3 -0.34 0.21
-22 0 3 -0.13 0.26
22 0 -3 0.06 0.21
20 0 -3 0.18 0.19
-20 0 3 0.11 0.2
20 0 -3 0.15 0.16
-20 0 3 -0.07 0.19
-18 0 3 0.12 0.18
-18 0 3 -0.17 0.18
18 0 -3 -0.06 0.13
18 0 -3 -0.04 0.13
-16 0 3 0.04 0.17
16 0 -3 0.06 0.13
-16 0 3 0.07 0.18
16 0 -3 0.03 0.12
-16 0 3 0.03 0.08
14 0 -3 -0.05 0.11
-14 0 3 0.06 0.07
-14 0 3 -0.24 0.13
14 0 -3 -0.19 0.08
-12 0 3 0.03 0.06
12 0 -3 0.04 0.1
-12 0 3 -0.01 0.13
12 0 -3 0.02 0.08
10 0 -3 0.06 0.09
-10 0 3 0.02 0.06
10 0 -3 0.06 0.07
-10 0 3 0.02 0.1
8 0 -3 0.02 0.08
-8 0 3 0.07 0.06
8 0 -3 0.06 0.07
-8 0 3 -0.06 0.08
-8 0 3 -0.09 0.08
-6 0 3 0.13 0.1
6 0 -3 0.08 0.09
-6 0 3 0.02 0.08
6 0 -3 0.11 0.08
-6 0 3 0.12 0.07
4 0 -3 0 0.07
-4 0 3 0 0.09
-4 0 3 -0.15 0.07
4 0 -3 -0.05 0.06
-4 0 3 -0.06 0.07
-4 0 3 0.09 0.08
2 0 -3 -0.01 0.07
-2 0 3 -0.05 0.07
-2 0 3 0.12 0.08
-2 0 3 0.08 0.1
-2 0 3 0.05 0.08
0 0 3 -0.06 0.05
0 0 -3 0.01 0.06
0 0 3 0.01 0.08
0 0 3 0.16 0.11
0 0 3 0.14 0.08
-2 0 -3 0.11 0.08
2 0 3 -0.02 0.09
2 0 3 -0.02 0.07
2 0 3 0.03 0.06
2 0 3 0.14 0.1
-2 0 -3 0.03 0.05
-2 0 -3 0.05 0.07
-4 0 -3 -0.04 0.08
4 0 3 0.01 0.07
4 0 3 -0.11 0.08
4 0 3 0.12 0.12
-4 0 -3 -0.05 0.05
-4 0 -3 0.05 0.04
4 0 3 0 0.05
6 0 3 0.17 0.09
-6 0 -3 0.1 0.04
-6 0 -3 0.11 0.07
6 0 3 0.15 0.12
-6 0 -3 0.25 0.13
6 0 3 -0.02 0.12
-8 0 -3 0.07 0.08
-8 0 -3 -0.12 0.09
8 0 3 0.02 0.09
-8 0 -3 0.08 0.04
8 0 3 0.01 0.14
8 0 3 -0.17 0.11
-10 0 -3 0.13 0.09
-10 0 -3 0.01 0.12
-10 0 -3 0 0.04
10 0 3 -0.05 0.11
10 0 3 -0.02 0.08
-12 0 -3 0.03 0.08
12 0 3 0.18 0.11
12 0 3 -0.15 0.15
-12 0 -3 0.06 0.06
-12 0 -3 -0.02 0.14
14 0 3 -0.06 0.1
-14 0 -3 0.1 0.08
14 0 3 -0.1 0.19
-14 0 -3 0.01 0.15
-14 0 -3 0.02 0.1
16 0 3 0 0.12
-16 0 -3 -0.03 0.17
16 0 3 0.05 0.21
-16 0 -3 0.07 0.14
-16 0 -3 0.02 0.11
-18 0 -3 0.05 0.14
-18 0 -3 0.07 0.2
18 0 3 0.26 0.27
18 0 3 0.06 0.15
20 0 3 0.15 0.28
-20 0 -3 0.13 0.18
-20 0 -3 0.12 0.21
20 0 3 0.07 0.18
-22 0 -3 0.03 0.24
-22 0 -3 0.17 0.2
22 0 3 0.31 0.33
22 0 3 -0.04 0.18
24 0 3 -0.02 0.23
24 0 3 -0.31 0.34
-24 0 -3 -0.01 0.2
-24 0 -3 0.17 0.3
26 0 3 0.16 0.44
26 0 3 -0.11 0.25
-26 0 -3 -0.12 0.29
-26 0 -3 0.02 0.24
-28 0 -3 0.35 0.31
28 0 3 -0.2 0.42
-28 0 -3 0.14 0.32
30 0 3 -0.18 0.52
-30 0 -3 -0.42 0.31
-30 0 -3 -0.52 0.33
31 -1 -3 1.55 0.43
-31 -1 3 1.92 0.63
31 1 -3 1.45 0.44
29 -1 -3 4.26 0.56
-29 -1 3 4 0.74
-29 -1 3 2.77 0.61
-29 1 3 4.98 0.76
29 1 -3 4.48 0.57
-27 -1 3 13.24 0.98
27 -1 -3 13.3 0.8
-27 -1 3 13.26 1.03
27 1 -3 13.19 0.78
-27 1 3 14.32 1.01
-25 -1 3 22.81 1.18
25 -1 -3 24.96 1.02
-25 -1 3 24.1 1.24
-25 1 3 22.97 1.2
25 1 -3 23.13 0.98
25 1 -3 20.92 1.1
-23 -1 3 16.28 0.99
-23 -1 3 15.03 0.92
23 -1 -3 17.56 0.81
-23 1 3 15.46 0.95
23 1 -3 16.97 0.9
23 1 -3 16.19 0.78
-21 -1 3 0.34 0.25
-21 -1 3 0.42 0.28
21 -1 -3 0.13 0.2
21 -1 -3 0.18 0.18
-21 1 3 0.3 0.26
21 1 -3 0.05 0.17
21 1 -3 0.11 0.21
-19 -1 3 9.94 0.66
19 -1 -3 11.29 0.6
19 -1 -3 11.86 0.6
-19 -1 3 9.76 0.7
-19 1 3 9.77 0.69
19 1 -3 11.23 0.62
19 1 -3 11.37 0.59
17 -1 -3 36.54 1.15
-17 -1 3 35.79 1.35
17 -1 -3 37.77 1.14
-17 -1 3 35.08 1.27
-17 1 3 36.14 1
-17 1 3 38.21 1.37
17 1 -3 39.73 1.19
17 1 -3 38.19 1.17
15 -1 -3 87.66 2.11
15 -1 -3 85.29 2.16
-15 -1 3 86.28 2.3
-15 -1 3 79.75 2.35
-15 1 3 85.26 2.37
15 1 -3 84.98 2.17
15 1 -3 88.43 2.15
-15 1 3 85.03 2
-13 -1 3 72.31 1.94
13 -1 -3 72.62 1.73
-13 -1 3 67.71 1.99
13 -1 -3 68.94 1.81
13 1 -3 71.65 1.78
-13 1 3 73.67 2.03
-13 1 3 71.47 1.69
13 1 -3 70.05 1.84
11 -1 -3 7.75 0.32
-11 -1 3 8.23 0.49
11 -1 -3 6.93 0.38
-11 -1 3 7.05 0.42
11 1 -3 7.82 0.36
11 1 -3 7.04 0.39
-11 1 3 7.37 0.32
-11 1 3 8.53 0.5
-9 -1 3 5.35 0.37
-9 -1 3 5.41 0.35
9 -1 -3 4.76 0.23
-9 -1 3 4.53 0.32
9 -1 -3 4.59 0.29
9 1 -3 4.42 0.26
-9 1 3 4.37 0.24
9 1 -3 4.2 0.3
-9 1 3 5.01 0.37
7 -1 -3 149.26 3.31
-7 -1 3 149.38 3.48
7 -1 -3 150.56 3.4
-7 -1 3 152.77 3.53
7 1 -3 151.42 3.38
7 1 -3 150.45 3.45
-7 1 3 144.97 3.53
-7 1 3 151.65 3.35
-5 -1 3 274.43 6.14
-5 -1 3 275.98 5.96
5 -1 -3 280.63 6.05
5 -1 -3 276.08 6.01
-5 -1 3 278.55 6.13
5 1 -3 280.94 6.08
-5 1 3 279.97 6.03
-5 1 3 281.2 6.16
5 1 -3 276.63 5.94
-5 1 3 270.7 6.07
5 1 -3 278.99 6.09
3 -1 -3 100.54 2.35
-3 -1 3 99.11 2.39
-3 -1 3 100.98 2.3
-3 -1 3 104.49 2.46
3 -1 -3 99.14 2.31
-3 -1 3 100.14 2.38
-3 1 3 100.05 2.34
-3 1 3 99.05 2.4
-3 1 3 96.4 2.34
3 1 -3 101.04 2.41
-3 1 3 99.29 2.38
3 1 -3 98.66 2.27
-1 -1 3 2.68 0.2
-1 -1 3 2.87 0.31
1 -1 -3 3.16 0.2
-1 -1 3 2.99 0.23
-1 -1 3 2.9 0.23
1 1 -3 2.93 0.25
1 1 -3 2.84 0.21
-1 1 3 2.95 0.21
-1 1 3 3.04 0.3
-1 1 3 2.63 0.21
-1 1 3 2.77 0.27
1 -1 3 3.1 0.2
-1 -1 -3 3.34 0.2
1 -1 3 2.94 0.27
1 -1 3 3.01 0.33
1 -1 3 3.53 0.31
-1 -1 -3 3.39 0.22
1 1 3 3.36 0.22
-1 1 -3 3.01 0.23
1 1 3 3.64 0.3
1 1 3 2.95 0.21
-1 1 -3 3.3 0.18
1 1 3 3.25 0.31
3 -1 3 3.08 0.17
-3 -1 -3 3.1 0.18
-3 -1 -3 3.48 0.28
3 -1 3 3.07 0.24
3 -1 3 2.48 0.31
3 -1 3 4 0.36
-3 -1 -3 2.81 0.21
3 1 3 3.17 0.2
3 1 3 3.17 0.32
-3 1 -3 3.01 0.17
3 1 3 3.54 0.35
3 1 3 3.4 0.22
-3 1 -3 3.11 0.25
5 -1 3 56.54 1.53
-5 -1 -3 59.18 1.63
5 -1 3 60.84 1.75
5 -1 3 59.87 1.34
-5 -1 -3 59.52 1.39
-5 -1 -3 59.31 1.49
5 1 3 58.12 1.71
5 1 3 58.57 1.46
-5 1 -3 60.02 1.33
-5 1 -3 58.9 1.6
-5 1 -3 60.71 1.4
5 1 3 59.07 1.67
-5 1 -3 62.71 1.35
7 -1 3 88.31 2.16
-7 -1 -3 87.37 2.1
7 -1 3 88.34 2.41
-7 -1 -3 86.45 1.97
-7 -1 -3 89.17 2.28
-7 1 -3 89.13 2.02
7 1 3 84.65 2.37
-7 1 -3 90.03 2.26
7 1 3 90.03 2.08
7 1 3 88.32 2.34
9 -1 3 62.53 1.62
-9 -1 -3 60.66 1.56
-9 -1 -3 60.61 1.42
9 -1 3 59.85 1.87
-9 -1 -3 60.96 1.75
9 1 3 61.55 1.54
-9 1 -3 63.56 1.5
9 1 3 59.82 1.86
9 1 3 64.63 1.84
-9 1 -3 61.64 1.73
11 -1 3 22.88 0.79
-11 -1 -3 21.76 0.73
11 -1 3 22.48 1.01
-11 -1 -3 22.83 0.9
-11 -1 -3 23.18 0.63
11 1 3 23.28 0.73
11 1 3 21.78 0.99
11 1 3 22.04 0.95
-11 1 -3 21.54 0.69
-11 1 -3 22.96 0.9
-13 -1 -3 0.54 0.11
-13 -1 -3 0.58 0.15
-13 -1 -3 0.57 0.21
13 -1 3 0.42 0.24
13 -1 3 0.3 0.15
-13 1 -3 0.65 0.21
-13 1 -3 0.48 0.13
13 1 3 0.62 0.26
13 1 3 0.61 0.15
-15 -1 -3 27.94 0.95
-15 -1 -3 28.61 0.82
-15 -1 -3 28.09 1.12
15 -1 3 29.01 1.28
15 -1 3 29.37 1
15 1 3 28.86 0.93
-15 1 -3 29.22 0.91
-15 1 -3 28.26 1.1
15 1 3 29.46 1.28
-17 -1 -3 31.86 1.22
17 -1 3 30.15 1.06
-17 -1 -3 29.3 1.01
17 -1 3 32.71 1.41
-17 -1 -3 30.04 0.97
-17 1 -3 29.23 1.16
17 1 3 28.34 1.34
-17 1 -3 31.19 1
17 1 3 31.47 1.02
-19 -1 -3 41.16 1.5
19 -1 3 41.54 1.72
-19 -1 -3 40.67 1.31
19 -1 3 42.3 1.38
19 1 3 40.42 1.72
-19 1 -3 42.99 1.49
19 1 3 39.65 1.29
-19 1 -3 41.46 1.29
-21 -1 -3 55.05 1.86
21 -1 3 55.04 1.74
-21 -1 -3 58.28 1.7
21 -1 3 55.6 2.14
-21 1 -3 54.71 1.82
21 1 3 57.81 2.19
-21 1 -3 54.92 1.65
21 1 3 52.48 1.64
-23 -1 -3 3.93 0.54
-23 -1 -3 4.75 0.52
23 -1 3 5.4 0.6
23 -1 3 3.91 0.7
23 1 3 5.08 0.53
-23 1 -3 4.57 0.5
-23 1 -3 4.71 0.59
23 1 3 3.47 0.68
25 -1 3 1.57 0.56
-25 -1 -3 2.33 0.47
25 -1 3 2.04 0.43
-25 -1 -3 2.44 0.43
-25 1 -3 1.49 0.35
-25 1 -3 1.58 0.42
25 1 3 2.79 0.68
27 -1 3 9.31 1.15
-27 -1 -3 8.44 0.84
27 -1 3 7.96 0.79
-27 -1 -3 9.4 0.83
-27 1 -3 8.61 0.77
27 1 3 9.58 1.19
-27 1 -3 8.01 0.8
29 -1 3 13.45 1.55
-29 -1 -3 13.75 0.99
-29 -1 -3 14.1 0.94
29 -1 3 11.86 1.37
-29 1 -3 12.91 0.92
-29 1 -3 13.8 0.96
29 1 3 15.21 1.55
31 -1 3 6.24 1.11
-31 -1 -3 7.39 0.85
-31 1 -3 7.33 1.04
-31 1 -3 6.36 0.87
31 1 3 5.68 1.07
-30 -2 3 2.48 0.66
30 -2 -3 3.68 0.57
-30 -2 3 2.98 0.63
30 2 -3 2.8 0.48
-30 2 3 3.02 0.84
-28 -2 3 2.53 0.6
28 -2 -3 4.63 0.58
-28 -2 3 2.91 0.58
28 2 -3 3.72 0.51
-28 2 3 3.35 0.63
-26 -2 3 1.89 0.47
-26 -2 3 1.45 0.47
26 -2 -3 2.45 0.43
26 2 -3 2.56 0.52
26 2 -3 2.55 0.4
-26 2 3 2.39 0.54
-24 -2 3 -0.12 0.23
24 -2 -3 0.15 0.22
-24 -2 3 -0.12 0.29
24 2 -3 0.02 0.21
-24 2 3 0.18 0.32
24 2 -3 0.25 0.29
-22 -2 3 4.46 0.61
-22 -2 3 3.72 0.52
22 -2 -3 4.25 0.45
22 2 -3 4.78 0.48
22 2 -3 4.19 0.53
-22 2 3 4.95 0.62
-20 -2 3 4.63 0.54
-20 -2 3 3.99 0.53
20 -2 -3 4.51 0.43
20 2 -3 4.25 0.42
-20 2 3 5.82 0.61
20 2 -3 4.28 0.48
18 -2 -3 -0.03 0.13
18 -2 -3 -0.03 0.14
-18 -2 3 -0.12 0.17
-18 -2 3 -0.02 0.19
-18 2 3 -0.09 0.1
18 2 -3 0.02 0.14
-18 2 3 0.07 0.21
18 2 -3 0.22 0.17
-16 -2 3 1.38 0.32
-16 -2 3 0.94 0.25
16 -2 -3 1.57 0.23
16 -2 -3 1.17 0.22
-16 2 3 0.99 0.28
16 2 -3 1.52 0.26
16 2 -3 0.95 0.21
-16 2 3 1.25 0.19
14 -2 -3 5.87 0.31
-14 -2 3 6.22 0.49
14 -2 -3 4.98 0.35
-14 -2 3 5.49 0.48
14 2 -3 5.18 0.37
14 2 -3 6.15 0.37
-14 2 3 5.45 0.31
-14 2 3 6.13 0.49
-12 -2 3 15.58 0.67
-12 -2 3 15.28 0.66
12 -2 -3 16.51 0.52
12 -2 -3 16.5 0.62
-12 -2 3 16.59 0.75
12 2 -3 17.35 0.62
-12 2 3 15.97 0.75
-12 2 3 17.07 0.57
12 2 -3 15.94 0.64
-10 -2 3 12.58 0.61
-10 -2 3 12.45 0.57
-10 -2 3 12.44 0.55
10 -2 -3 12.46 0.5
10 -2 -3 12.05 0.39
-10 2 3 13.16 0.63
-10 2 3 12.9 0.48
10 2 -3 13.15 0.55
10 2 -3 12.82 0.49
-8 -2 3 106.22 2.61
-8 -2 3 103.27 2.5
8 -2 -3 106.12 2.46
8 -2 -3 104.12 2.31
-8 -2 3 104.73 2.57
8 2 -3 103.93 2.53
8 2 -3 106.62 2.46
-8 2 3 101.84 2.62
-8 2 3 105.5 2.44
6 -2 -3 15.12 0.51
-6 -2 3 13.99 0.58
-6 -2 3 14.01 0.59
6 -2 -3 13.91 0.44
-6 -2 3 14.19 0.52
-6 2 3 15.29 0.53
-6 2 3 14.63 0.62
6 2 -3 14.81 0.56
6 2 -3 14.1 0.53
4 -2 -3 4.72 0.25
-4 -2 3 4.57 0.31
-4 -2 3 4.82 0.3
4 -2 -3 4.67 0.25
-4 2 3 4.37 0.28
4 2 -3 3.97 0.2
-4 2 3 4.45 0.32
-4 2 3 4.3 0.26
4 2 -3 4.18 0.29
2 -2 -3 6.82 0.29
-2 -2 3 6.74 0.41
2 -2 -3 7.87 0.36
-2 -2 3 7.05 0.34
-2 -2 3 7.02 0.38
2 2 -3 6.93 0.39
-2 2 3 6.35 0.35
2 2 -3 7.25 0.3
-2 2 3 6.08 0.34
-2 2 3 7.2 0.37
-2 2 3 7.32 0.32
0 -2 -3 0.68 0.1
0 -2 3 0.58 0.14
0 -2 3 0.44 0.1
0 -2 -3 0.58 0.12
0 -2 -3 0.81 0.15
0 -2 3 0.89 0.19
0 2 3 0.49 0.11
0 2 -3 0.71 0.13
0 2 3 0.69 0.16
0 2 3 0.52 0.14
0 2 -3 0.9 0.18
0 2 3 0.51 0.13
-2 -2 -3 0.06 0.06
-2 -2 -3 0.11 0.09
2 -2 3 0.17 0.07
2 -2 3 0.29 0.12
2 -2 3 0.19 0.13
2 2 3 0.15 0.12
2 2 3 0.22 0.08
-2 2 -3 0.12 0.05
2 2 3 0.17 0.08
-2 2 -3 0.26 0.1
2 2 3 0.09 0.11
-2 2 -3 0.18 0.11
4 -2 3 8.78 0.52
-4 -2 -3 8.22 0.33
-4 -2 -3 8.58 0.39
4 -2 3 8.14 0.28
4 -2 3 8.21 0.41
4 2 3 8.62 0.32
-4 2 -3 9 0.43
-4 2 -3 8.25 0.26
4 2 3 7.81 0.47
4 2 3 9.15 0.49
6 -2 3 70.36 1.86
-6 -2 -3 74.39 1.83
-6 -2 -3 73.97 1.71
6 -2 3 72.86 2.07
-6 -2 -3 76.99 1.97
6 2 3 73.98 1.71
6 2 3 73.3 2
-6 2 -3 72.66 1.64
-6 2 -3 72.31 1.91
6 2 3 70.77 2.02
8 -2 3 2.42 0.36
8 -2 3 2.73 0.3
-8 -2 -3 2.24 0.25
-8 -2 -3 2.21 0.17
-8 -2 -3 2.43 0.32
-8 2 -3 2.12 0.15
-8 2 -3 2.48 0.3
8 2 3 2.06 0.34
8 2 3 2.08 0.32
8 2 3 2.07 0.19
10 -2 3 7.09 0.55
-10 -2 -3 7.86 0.4
-10 -2 -3 6.98 0.31
-10 -2 -3 6.5 0.47
10 -2 3 7.29 0.42
10 2 3 7.62 0.56
10 2 3 7.93 0.34
-10 2 -3 7.18 0.46
10 2 3 8.03 0.55
-10 2 -3 7.51 0.31
-12 -2 -3 19.28 0.6
12 -2 3 18.43 0.94
-12 -2 -3 19.03 0.84
12 -2 3 19.08 0.75
-12 -2 -3 19.48 0.71
12 2 3 19.75 0.64
12 2 3 18.6 0.89
-12 2 -3 17.39 0.79
12 2 3 18.83 0.94
-12 2 -3 18.69 0.61
-14 -2 -3 38.78 1.36
14 -2 3 37.6 1.23
14 -2 3 38.44 1.5
-14 -2 -3 39.7 1.19
-14 -2 -3 40.49 1.07
14 2 3 38.4 1.51
14 2 3 39.69 1.44
-14 2 -3 39.04 1.1
14 2 3 40.11 1.11
-14 2 -3 37.7 1.31
16 -2 3 1.53 0.43
16 -2 3 1.66 0.3
-16 -2 -3 2.16 0.3
-16 -2 -3 2.3 0.25
-16 -2 -3 1.52 0.34
16 2 3 2.29 0.27
-16 2 -3 2.19 0.35
-16 2 -3 2.22 0.27
16 2 3 2.6 0.5
-18 -2 -3 4.42 0.43
-18 -2 -3 4.74 0.38
-18 -2 -3 4.65 0.56
18 -2 3 4.67 0.66
18 -2 3 5.5 0.52
18 2 3 4.67 0.41
18 2 3 4.24 0.64
-18 2 -3 4.87 0.52
-18 2 -3 4.63 0.41
-20 -2 -3 -0.04 0.22
-20 -2 -3 0.19 0.18
20 -2 3 0.08 0.19
20 -2 3 -0.23 0.25
-20 2 -3 -0.15 0.15
20 2 3 0.15 0.17
20 2 3 0.18 0.3
-20 2 -3 0.18 0.24
-22 -2 -3 20.25 0.91
22 -2 3 18.21 0.94
-22 -2 -3 22.63 1.1
22 -2 3 20.29 1.27
-22 2 -3 18.32 0.98
-22 2 -3 19.99 0.87
22 2 3 20.81 1.3
22 2 3 17.81 1.08
-24 -2 -3 12.54 0.89
24 -2 3 12.29 1.09
24 -2 3 14.65 0.88
-24 -2 -3 13.92 0.79
-24 2 -3 14.36 0.88
24 2 3 14.56 1.18
-24 2 -3 14.97 0.8
26 -2 3 4.46 0.6
-26 -2 -3 5.25 0.6
26 -2 3 3.85 0.77
-26 -2 -3 5.25 0.67
-26 2 -3 4.27 0.6
26 2 3 5.66 0.92
-26 2 -3 5.07 0.59
28 -2 3 0.56 0.37
28 -2 3 0.34 0.5
-28 -2 -3 0.21 0.35
-28 -2 -3 0.04 0.3
28 2 3 0.14 0.5
-28 2 -3 -0.33 0.31
-28 2 -3 0.22 0.32
30 -2 3 2.67 0.81
30 -2 3 2.54 0.58
-30 -2 -3 1.78 0.49
30 2 3 1.45 0.72
-30 2 -3 1.77 0.52
31 -3 -3 0.36 0.38
-31 -3 3 0.62 0.49
-31 -3 3 -0.3 0.46
31 3 -3 0.72 0.37
-29 -3 3 -0.19 0.4
29 -3 -3 0.29 0.32
-29 -3 3 -0.26 0.33
29 3 -3 0.35 0.44
-29 3 3 -0.23 0.38
29 3 -3 -0.07 0.27
27 -3 -3 1.97 0.41
-27 -3 3 1.36 0.45
-27 -3 3 2.53 0.57
27 3 -3 1.9 0.38
-27 3 3 2.14 0.55
27 3 -3 2.03 0.52
-25 -3 3 7.09 0.77
-25 -3 3 5.33 0.73
25 -3 -3 6.98 0.64
25 3 -3 6.65 0.75
-25 3 3 7.03 0.78
25 3 -3 6.29 0.58
-23 -3 3 4.1 0.58
23 -3 -3 4.1 0.49
-23 -3 3 3.82 0.6
23 3 -3 4.08 0.45
23 3 -3 4.31 0.58
-23 3 3 5.44 0.67
-21 -3 3 1.83 0.38
-21 -3 3 2.33 0.46
21 -3 -3 2.14 0.33
21 3 -3 1.92 0.31
-21 3 3 1.71 0.4
21 3 -3 1.34 0.34
-19 -3 3 0.43 0.24
19 -3 -3 0.6 0.21
-19 -3 3 0.82 0.3
19 3 -3 0.5 0.2
19 3 -3 0.65 0.24
-19 3 3 0.43 0.18
-19 3 3 0.52 0.27
17 -3 -3 30.8 1.02
-17 -3 3 30.99 1.15
-17 -3 3 32.08 1.23
-17 3 3 28.03 1.16
-17 3 3 28.74 0.94
17 3 -3 32.31 1.05
17 3 -3 29.97 1.06
15 -3 -3 60.36 1.65
-15 -3 3 62.94 1.88
-15 -3 3 62.87 1.79
15 -3 -3 61.48 1.55
-15 3 3 63.66 1.88
15 3 -3 61.09 1.68
-15 3 3 60.18 1.59
15 3 -3 59.17 1.66
-13 -3 3 39.16 1.23
13 -3 -3 39.76 1.01
-13 -3 3 39.72 1.22
13 -3 -3 38.89 1.13
-13 -3 3 37.85 1.3
-13 3 3 39.37 1.11
13 3 -3 38.68 1.18
13 3 -3 38.75 1.15
-13 3 3 38.21 1.32
11 -3 -3 10.84 0.47
11 -3 -3 11.94 0.37
-11 -3 3 10.57 0.52
-11 -3 3 11.7 0.61
-11 -3 3 11.7 0.56
-11 3 3 11.65 0.61
-11 3 3 11.17 0.47
11 3 -3 11.1 0.49
11 3 -3 10.26 0.51
9 -3 -3 8.55 0.26
-7 -3 3 0.64 0.19
7 -3 -3 0.53 0.12
-7 -3 3 0.61 0.17
7 -3 -3 0.62 0.07
7 -3 -3 0.53 0.16
-7 -3 3 0.61 0.14
-7 3 3 0.9 0.16
-7 3 3 0.56 0.19
7 3 -3 0.68 0.15
7 3 -3 0.64 0.16
5 -3 -3 31.94 0.97
-5 -3 3 30.74 0.99
-5 -3 3 31.02 0.86
5 -3 -3 30 0.79
-5 -3 3 30.39 0.96
5 -3 -3 30.43 0.84
5 3 -3 30.95 0.74
-5 3 3 30.87 1
-5 3 3 30.94 0.93
5 3 -3 30.31 0.94
-5 3 3 31.25 0.82
1 -3 -3 0.64 0.15
-1 -3 3 0.69 0.16
-1 -3 3 0.92 0.15
-1 -3 3 0.82 0.2
1 -3 -3 0.95 0.11
1 -3 -3 1.22 0.18
-1 3 3 0.72 0.15
1 3 -3 0.94 0.18
-1 3 3 1.05 0.19
1 3 -3 0.63 0.11
-1 3 3 0.84 0.17
1 -3 3 0.17 0.11
-1 -3 -3 0.05 0.09
1 -3 3 0.22 0.13
-1 -3 -3 0 0.07
-1 -3 -3 0.11 0.06
1 -3 3 0.01 0.06
-1 3 -3 0.08 0.08
-1 3 -3 0.13 0.11
1 3 3 0.02 0.1
1 3 3 -0.05 0.09
1 3 3 0.12 0.06
-3 -3 -3 36.59 0.88
-3 -3 -3 36.2 1
3 -3 3 39.05 1.25
-3 -3 -3 34.65 1.06
3 -3 3 37.52 0.94
3 -3 3 33.81 1.09
3 3 3 36.98 0.9
3 3 3 39.06 1.19
-3 3 -3 39.31 1.07
3 3 3 35.54 1.16
-3 3 -3 40.25 1.22
5 -3 3 40.87 1.37
5 -3 3 41.32 1.23
-5 -3 -3 43.24 1.21
-5 -3 -3 41.73 1.1
5 -3 3 42.34 1
-5 3 -3 42.71 1.22
5 3 3 40.87 1.32
5 3 3 44.85 1.35
5 3 3 42.29 1
7 -3 3 20.47 0.91
-7 -3 -3 20.79 0.64
7 -3 3 20.3 0.76
-7 -3 -3 20.97 0.73
7 3 3 21.63 0.88
7 3 3 20.84 0.56
7 3 3 18.9 0.85
-7 3 -3 20.59 0.53
-7 3 -3 20.88 0.76
9 -3 3 68.35 1.86
9 -3 3 70.07 2.09
-9 -3 -3 71.86 1.98
-9 -3 -3 68.41 1.69
-9 -3 -3 69.52 1.82
9 3 3 72.3 2.04
-9 3 -3 72.78 1.9
9 3 3 69.91 1.62
9 3 3 64.59 2.03
-9 3 -3 70.39 1.61
-11 -3 -3 51.29 1.59
11 -3 3 52.75 1.73
-11 -3 -3 48.19 1.42
11 -3 3 51.15 1.49
-11 -3 -3 50.88 1.31
11 3 3 49.92 1.64
11 3 3 53.16 1.27
11 3 3 48.53 1.69
-11 3 -3 50.95 1.27
-11 3 -3 49.86 1.51
13 -3 3 8.59 0.52
-13 -3 -3 9.57 0.5
-13 -3 -3 9.36 0.42
-13 -3 -3 8.76 0.6
13 -3 3 10.25 0.71
-13 3 -3 9.27 0.56
-13 3 -3 9.25 0.4
13 3 3 7.68 0.64
13 3 3 8.69 0.64
13 3 3 9.2 0.39
-15 -3 -3 3.03 0.34
15 -3 3 3.93 0.53
-15 -3 -3 4.57 0.31
15 -3 3 3.36 0.41
-15 -3 -3 3.52 0.45
15 3 3 3.6 0.48
-15 3 -3 4.54 0.31
15 3 3 3.75 0.28
15 3 3 3.43 0.49
-17 -3 -3 40.58 1.31
-17 -3 -3 38.89 1.46
17 -3 3 40.33 1.37
17 -3 3 42.3 1.67
-17 -3 -3 42.09 1.2
17 3 3 36.63 1.62
-17 3 -3 42.3 1.22
17 3 3 40.64 1.17
17 3 3 41.33 1.56
-17 3 -3 39.04 1.39
19 -3 3 12.38 0.92
19 -3 3 11.93 0.71
-19 -3 -3 11.19 0.62
-19 -3 -3 10.28 0.73
-19 -3 -3 11.19 0.64
19 3 3 11.13 0.62
19 3 3 10.19 0.86
-19 3 -3 13.01 0.75
-19 3 -3 11.55 0.59
21 -3 3 3.27 0.46
-21 -3 -3 2.74 0.47
21 -3 3 4.01 0.67
-21 -3 -3 4.58 0.49
21 3 3 4.31 0.71
-21 3 -3 3.7 0.41
-21 3 -3 3.93 0.51
23 -3 3 -0.06 0.34
23 -3 3 0.1 0.26
-23 -3 -3 0.03 0.27
-23 -3 -3 -0.13 0.22
-23 3 -3 0.02 0.21
23 3 3 0.04 0.35
-23 3 -3 0.23 0.25
25 -3 3 5.32 0.87
25 -3 3 5.09 0.66
-25 -3 -3 5.72 0.71
-25 -3 -3 5.59 0.64
25 3 3 5.61 0.94
-25 3 -3 5.98 0.61
-25 3 -3 6.32 0.69
-27 -3 -3 10.19 0.79
27 -3 3 7.19 0.76
27 -3 3 8.99 1.07
27 3 3 9.27 1.19
-27 3 -3 11.55 0.85
-29 -3 -3 5.32 0.73
29 -3 3 4.74 1.05
29 -3 3 5.42 0.78
29 3 3 4.94 1
-29 3 -3 5.66 0.71
-30 -4 3 1.54 0.57
-30 -4 3 1.21 0.51
30 -4 -3 0.77 0.38
30 4 -3 1.25 0.39
30 4 -3 1.12 0.53
-28 -4 3 2.76 0.6
28 -4 -3 2.37 0.55
-28 -4 3 2.13 0.56
28 -4 -3 2.78 0.47
28 4 -3 2.59 0.45
-28 4 3 1.4 0.52
28 4 -3 2.8 0.62
-26 -4 3 0.83 0.41
26 -4 -3 0.8 0.33
-26 -4 3 1.05 0.45
26 4 -3 0.94 0.31
-26 4 3 0.44 0.36
26 4 -3 0.83 0.4
-24 -4 3 8.27 0.8
-24 -4 3 6.87 0.8
24 -4 -3 8.47 0.63
-24 4 3 7.28 0.77
24 4 -3 7.48 0.77
24 4 -3 8.1 0.58
-22 -4 3 19.63 1.03
22 -4 -3 19.99 0.9
-22 -4 3 20.21 1.11
22 4 -3 22.87 1.05
-22 4 3 19.55 1.04
22 4 -3 20.27 0.86
-20 -4 3 33.69 1.3
-20 -4 3 35.87 1.41
20 -4 -3 31.22 1.13
20 4 -3 32.49 1.12
20 4 -3 33.93 1.26
-20 4 3 30.31 1.06
-20 4 3 31.18 1.3
-18 -4 3 16.32 0.89
18 -4 -3 14.21 0.68
-18 -4 3 15.52 0.8
-18 4 3 15.89 0.85
18 4 -3 15.42 0.7
-18 4 3 14.59 0.65
18 4 -3 15.99 0.77
16 -4 -3 -0.04 0.12
-16 -4 3 0.22 0.22
-16 -4 3 0.18 0.18
16 4 -3 0.11 0.16
-16 4 3 0.2 0.21
16 4 -3 0 0.13
-16 4 3 0.16 0.14
14 -4 -3 12.74 0.57
-14 -4 3 13.11 0.65
-14 -4 3 13.45 0.64
-14 -4 3 12.66 0.71
14 -4 -3 12.47 0.68
-14 4 3 12.61 0.56
14 4 -3 13.19 0.61
-14 4 3 12.26 0.71
14 4 -3 14.61 0.63
-12 -4 3 69.05 1.9
-12 -4 3 71.03 2.01
12 -4 -3 70.25 1.79
-12 -4 3 71.15 1.88
12 -4 -3 69.49 1.96
12 4 -3 67.94 1.86
-12 4 3 70.3 2.01
12 4 -3 70.74 1.83
-12 4 3 69.6 1.81
10 -4 -3 52.37 1.56
-10 -4 3 52.66 1.48
-10 -4 3 53.58 1.6
-10 -4 3 54.22 1.56
10 -4 -3 55.54 1.43
-10 4 3 54.31 1.62
10 4 -3 52.95 1.51
-10 4 3 55.21 1.48
10 4 -3 56.55 1.47
-8 -4 3 51.43 1.5
8 -4 -3 51.73 1.51
-8 -4 3 53.06 1.41
-8 -4 3 50.82 1.51
8 -4 -3 53.12 1.36
8 4 -3 53.93 1.43
8 4 -3 52.38 1.47
-8 4 3 54.75 1.45
-8 4 3 53.67 1.56
-6 -4 3 89.61 2.27
-6 -4 3 89.55 2.25
-6 -4 3 88.87 2.11
6 -4 -3 87.68 2.07
6 -4 -3 90.18 2.26
6 4 -3 87.81 2.19
-6 4 3 85.96 2.2
-6 4 3 89.09 2.29
6 4 -3 89.94 1.94
4 -4 -3 4.39 0.23
-4 -4 3 3.83 0.29
4 -4 -3 4.78 0.33
-4 -4 3 4.95 0.36
-4 -4 3 4.4 0.24
4 4 -3 4.75 0.33
-4 4 3 4.28 0.25
4 4 -3 4.55 0.2
-4 4 3 4.26 0.33
-4 4 3 4.2 0.32
2 -4 -3 17.12 0.63
2 -4 -3 17.14 0.66
2 -4 -3 15.72 0.48
-2 -4 3 16.35 0.6
-2 -4 3 16.98 0.48
-2 -4 3 16.4 0.67
-2 4 3 15.97 0.64
2 4 -3 16.39 0.51
-2 4 3 16.24 0.65
2 4 -3 16.67 0.66
-2 4 3 15.5 0.58
0 -4 -3 24.75 0.64
0 -4 3 26.07 0.96
0 -4 -3 25.44 0.8
0 -4 -3 25.91 0.85
0 -4 3 25.02 0.87
0 -4 3 24.55 0.76
0 4 3 24.94 0.83
0 4 -3 24.59 0.89
0 4 -3 25.37 0.74
0 4 3 24.78 0.88
-2 -4 -3 46.12 1.26
2 -4 3 47.5 1.2
-2 -4 -3 46.95 1.34
-2 -4 -3 46.35 1.07
2 -4 3 51.28 1.5
2 -4 3 46.82 1.36
-2 4 -3 46.53 1.42
2 4 3 47.83 1.42
-2 4 -3 48.25 1.26
2 4 3 46.59 1.37
4 -4 3 21.4 0.62
4 -4 3 21.9 0.81
-4 -4 -3 22.07 0.78
4 -4 3 21.95 0.91
-4 -4 -3 21.6 0.7
-4 4 -3 21.32 0.86
4 4 3 22.59 0.87
4 4 3 21.9 0.85
-4 4 -3 21.39 0.73
6 -4 3 4.21 0.46
6 -4 3 3.77 0.19
6 -4 3 3.91 0.38
-6 -4 -3 4.64 0.34
-6 -4 -3 3.96 0.27
6 4 3 4.77 0.48
-6 4 -3 3.33 0.32
-6 4 -3 4.05 0.43
6 4 3 4.12 0.42
8 -4 3 -0.06 0.11
8 -4 3 0.07 0.16
-8 -4 -3 0.14 0.1
-8 -4 -3 0.15 0.12
8 4 3 -0.01 0.14
8 4 3 0.22 0.16
-8 4 -3 0.07 0.05
-8 4 -3 -0.08 0.1
-10 -4 -3 19.02 0.75
10 -4 3 19.37 0.94
10 -4 3 19.07 0.79
-10 -4 -3 19.92 0.67
-10 -4 -3 20.01 0.87
-10 4 -3 20.52 0.58
-10 4 -3 19.7 0.79
10 4 3 18.95 0.9
10 4 3 20.02 0.95
-12 -4 -3 99.82 2.71
12 -4 3 100.99 2.6
-12 -4 -3 98.02 2.53
12 -4 3 98.86 2.84
-12 -4 -3 101.31 2.41
12 4 3 105.3 2.27
-12 4 -3 95.56 2.57
12 4 3 97.56 2.78
12 4 3 99.64 2.86
-12 4 -3 98.86 2.32
14 -4 3 118.75 3.06
-14 -4 -3 119.87 3.18
14 -4 3 121.35 3.35
-14 -4 -3 116.63 2.97
-14 -4 -3 118.12 2.85
-14 4 -3 118.55 2.8
14 4 3 122.83 3.29
14 4 3 123.23 3.41
-14 4 -3 118.72 3.06
14 4 3 124.11 2.73
-16 -4 -3 63.79 2.01
16 -4 3 62.14 1.9
-16 -4 -3 65.33 1.72
-16 -4 -3 63.4 1.83
16 -4 3 63.67 2.17
16 4 3 68.12 2.14
16 4 3 62.98 2.22
-16 4 -3 63.42 1.68
-16 4 -3 64.86 1.91
18 -4 3 6.73 0.81
-18 -4 -3 6.83 0.52
-18 -4 -3 7.08 0.7
-18 -4 -3 7.11 0.46
18 -4 3 6.91 0.65
18 4 3 8.26 0.82
18 4 3 7.03 0.83
-18 4 -3 7.56 0.45
-18 4 -3 6.85 0.54
20 -4 3 -0.05 0.27
-20 -4 -3 0.45 0.28
-20 -4 -3 0.22 0.2
20 -4 3 0.29 0.23
-20 -4 -3 0.37 0.3
-20 4 -3 0.06 0.22
20 4 3 0.09 0.32
-20 4 -3 0.39 0.18
-22 -4 -3 13.9 0.92
-22 -4 -3 17.81 0.87
22 -4 3 15.38 0.9
22 -4 3 16.02 1.13
-22 4 -3 15.36 0.88
22 4 3 13.52 1.13
-22 4 -3 16.31 0.94
24 -4 3 19.19 1.05
-24 -4 -3 19.39 1.1
24 -4 3 16.81 1.21
-24 -4 -3 19.33 0.97
-24 4 -3 19.82 1.03
24 4 3 17.29 1.31
26 -4 3 7.26 0.8
-26 -4 -3 7.05 0.7
26 -4 3 6.65 0.96
-26 -4 -3 7.18 0.83
26 4 3 9.11 1.23
-26 4 -3 7.46 0.77
28 -4 3 2.77 0.6
-28 -4 -3 2.22 0.48
28 4 3 1.28 0.63
-28 4 -3 2.23 0.51
30 -4 3 0.34 0.45
-30 -4 -3 0.09 0.36
-30 4 -3 -0.13 0.38
30 4 3 0.67 0.62
-29 -5 3 3.09 0.66
29 -5 -3 2.29 0.49
-29 -5 3 2.93 0.69
29 5 -3 2.36 0.44
29 5 -3 3.53 0.7
27 -5 -3 2.1 0.44
-27 -5 3 1.2 0.45
-27 -5 3 0.95 0.47
27 -5 -3 1.67 0.48
27 5 -3 1.46 0.36
27 5 -3 2.42 0.58
-27 5 3 1.61 0.5
-25 -5 3 4.15 0.63
25 -5 -3 3.73 0.59
-25 -5 3 3.93 0.66
25 -5 -3 4.39 0.56
25 5 -3 4.18 0.49
25 5 -3 2.86 0.58
-25 5 3 2.6 0.54
23 -5 -3 0.68 0.27
-23 -5 3 0.11 0.32
23 -5 -3 0.77 0.35
-23 -5 3 0.82 0.33
23 5 -3 0.56 0.25
23 5 -3 0.62 0.33
-23 5 3 0.64 0.35
-21 -5 3 0.66 0.34
-21 -5 3 0.68 0.3
21 -5 -3 0.62 0.25
21 -5 -3 0.16 0.24
-21 5 3 0.56 0.32
21 5 -3 0.51 0.3
-21 5 3 0.76 0.26
21 5 -3 0.57 0.23
-19 -5 3 -0.23 0.23
19 -5 -3 -0.4 0.19
19 -5 -3 0.1 0.18
-19 -5 3 0.04 0.21
19 5 -3 -0.09 0.2
-19 5 3 -0.12 0.15
19 5 -3 0.11 0.17
-19 5 3 -0.1 0.25
-17 -5 3 1.14 0.34
-17 -5 3 1.58 0.32
17 -5 -3 2.12 0.37
17 -5 -3 1.46 0.28
-17 5 3 1 0.23
-17 5 3 0.56 0.27
17 5 -3 1.2 0.29
17 5 -3 1.5 0.27
-15 -5 3 7.02 0.5
15 -5 -3 7.57 0.45
-15 -5 3 7.16 0.59
-15 -5 3 7.35 0.5
15 -5 -3 8.03 0.56
15 5 -3 7.89 0.5
-15 5 3 6.94 0.57
-15 5 3 5.95 0.43
15 5 -3 7.75 0.49
13 -5 -3 0.52 0.23
-13 -5 3 0.48 0.21
-13 -5 3 0.78 0.21
13 -5 -3 0.77 0.19
-13 -5 3 0.23 0.2
-13 5 3 0.71 0.19
-13 5 3 0.96 0.27
13 5 -3 0.44 0.19
13 5 -3 0.75 0.21
11 -5 -3 2.02 0.24
-11 -5 3 1.85 0.29
-11 -5 3 1.98 0.28
11 -5 -3 1.67 0.29
-11 -5 3 1.32 0.29
-11 5 3 2.01 0.28
11 5 -3 1.59 0.26
11 5 -3 1.95 0.27
-11 5 3 2.26 0.34
-9 -5 3 14.69 0.69
9 -5 -3 15.86 0.57
-9 -5 3 15.79 0.61
-9 -5 3 15.63 0.69
9 -5 -3 15.03 0.69
9 5 -3 15.88 0.63
-9 5 3 15.68 0.65
9 5 -3 15.13 0.65
-9 5 3 15.13 0.71
7 -5 -3 22.78 0.71
-7 -5 3 23.41 0.87
7 -5 -3 23.16 0.85
-7 -5 3 22.16 0.85
-7 -5 3 22.73 0.74
-7 5 3 23.26 0.83
-7 5 3 23.35 0.89
7 5 -3 22.89 0.6
7 5 -3 23.36 0.8
5 -5 -3 4.04 0.34
-5 -5 3 3.67 0.38
5 -5 -3 3.59 0.22
-5 -5 3 3.9 0.38
-5 -5 3 4.32 0.25
-5 5 3 4.05 0.38
-5 5 3 3.92 0.38
5 5 -3 3.99 0.31
5 5 -3 3.67 0.19
-3 -5 3 4.2 0.23
-3 -5 3 4.55 0.36
3 -5 -3 4.76 0.36
3 -5 -3 5.35 0.35
3 -5 -3 4.97 0.24
-3 -5 3 4.86 0.33
-3 5 3 4.39 0.35
-3 5 3 4.38 0.35
3 5 -3 4.53 0.23
3 5 -3 4.55 0.35
-3 5 3 4.79 0.29
-1 -5 3 6.24 0.23
1 -5 -3 6.29 0.25
-1 -5 3 6.56 0.35
-1 -5 3 5.96 0.41
1 -5 -3 6.5 0.42
1 -5 -3 6.66 0.38
-1 5 3 6.06 0.42
-1 5 3 6 0.35
1 5 -3 5.79 0.29
1 5 -3 6.05 0.4
-1 -5 -3 31.91 0.96
1 -5 3 31.1 0.9
1 -5 3 31.99 1.05
-1 -5 -3 30.41 1
-1 -5 -3 31.04 0.75
-1 5 -3 30.21 1.05
1 5 3 30.15 1.05
-1 5 -3 30.51 0.89
1 5 3 31.21 1.01
-3 -5 -3 19.43 0.69
-3 -5 -3 19.57 0.75
3 -5 3 19.28 0.62
3 -5 3 19.56 0.78
3 -5 3 18.88 0.84
-3 5 -3 20.7 0.69
-3 5 -3 19.49 0.81
3 5 3 19.81 0.79
3 5 3 18.94 0.81
-5 -5 -3 0.72 0.19
5 -5 3 0.94 0.22
-5 -5 -3 0.71 0.16
5 -5 3 0.7 0.23
5 -5 3 0.86 0.13
5 5 3 0.88 0.22
5 5 3 0.94 0.24
-5 5 -3 1.05 0.19
-5 5 -3 0.71 0.21
-7 -5 -3 3.87 0.29
-7 -5 -3 3.03 0.33
7 -5 3 3.24 0.36
7 -5 3 3.3 0.44
7 -5 3 3.01 0.18
7 5 3 3.13 0.4
-7 5 -3 2.28 0.35
-7 5 -3 3.61 0.35
7 5 3 3.3 0.42
9 -5 3 7.96 0.6
9 -5 3 8.13 0.52
9 -5 3 8.61 0.29
-9 -5 -3 8.67 0.43
-9 -5 -3 8.05 0.48
-9 5 -3 7.53 0.55
9 5 3 8.14 0.6
-9 5 -3 8.51 0.49
9 5 3 7.81 0.58
-11 -5 -3 5.66 0.37
-11 -5 -3 5.72 0.42
11 -5 3 7.13 0.69
11 -5 3 5.92 0.53
11 5 3 5.97 0.61
11 5 3 6.88 0.59
-11 5 -3 5.65 0.43
13 -5 3 -0.03 0.17
-13 -5 -3 0.41 0.16
13 -5 3 0.05 0.24
-13 -5 -3 0.27 0.17
-13 -5 -3 0.14 0.2
13 5 3 0.31 0.22
-13 5 -3 0.25 0.18
13 5 3 0.43 0.26
15 -5 3 10.15 0.77
15 -5 3 11.3 0.68
-15 -5 -3 11.37 0.55
-15 -5 -3 10.36 0.59
-15 -5 -3 10.92 0.73
15 5 3 10.4 0.83
15 5 3 10.26 0.76
-15 5 -3 11.42 0.66
-17 -5 -3 20.14 0.79
-17 -5 -3 19.04 0.86
17 -5 3 19.16 1.08
-17 -5 -3 20.48 1.01
17 -5 3 18.03 0.91
17 5 3 17.85 1.12
-17 5 -3 16.99 0.87
17 5 3 18.32 1.04
-19 -5 -3 24.73 1.16
19 -5 3 26.16 1.12
-19 -5 -3 22.36 0.91
19 -5 3 25.22 1.3
-19 -5 -3 21.9 0.99
19 5 3 21.54 1.29
19 5 3 24.42 1.23
-19 5 -3 24.98 1.07
21 -5 3 2.54 0.57
21 -5 3 1.96 0.43
-21 -5 -3 1.78 0.39
-21 -5 -3 1.31 0.41
-21 5 -3 1.47 0.35
21 5 3 1.03 0.46
21 5 3 2.26 0.52
23 -5 3 0.87 0.44
-23 -5 -3 1.14 0.33
23 -5 3 1.38 0.41
-23 -5 -3 1.26 0.43
23 5 3 0.75 0.47
-23 5 -3 1.01 0.35
-25 -5 -3 4.39 0.6
25 -5 3 4.21 0.65
-25 -5 -3 3.18 0.58
25 -5 3 2.57 0.63
-25 5 -3 4.01 0.58
25 5 3 3.34 0.75
-27 -5 -3 2.07 0.47
27 -5 3 1.83 0.51
27 5 3 2.45 0.76
-27 5 -3 1.39 0.42
-29 -5 -3 -0.05 0.36
29 -5 3 -0.15 0.39
-29 5 -3 0 0.35
29 5 3 0.21 0.57
-28 -6 3 0.85 0.47
-28 -6 3 1.35 0.56
28 -6 -3 1.33 0.4
28 6 -3 0.94 0.5
26 -6 -3 -0.42 0.27
26 -6 -3 -0.17 0.31
-26 -6 3 0.22 0.36
-26 -6 3 -0.25 0.34
-26 6 3 0.43 0.37
26 6 -3 -0.29 0.34
26 6 -3 -0.25 0.23
24 -6 -3 4.67 0.62
-24 -6 3 5.09 0.73
24 -6 -3 4.18 0.54
-24 -6 3 5.91 0.71
24 6 -3 4.88 0.68
24 6 -3 4.99 0.52
-24 6 3 5.53 0.7
-22 -6 3 4.71 0.67
-22 -6 3 5.21 0.62
22 -6 -3 5.26 0.63
22 -6 -3 5.51 0.59
-22 6 3 5.89 0.69
22 6 -3 4.56 0.6
22 6 -3 5.82 0.52
-22 6 3 4.47 0.49
-20 -6 3 4.66 0.57
20 -6 -3 4.9 0.5
-20 -6 3 5.16 0.68
20 -6 -3 5.87 0.62
-20 6 3 4.19 0.46
20 6 -3 4.59 0.57
-20 6 3 4.99 0.6
20 6 -3 4.24 0.45
-18 -6 3 10.95 0.8
18 -6 -3 11.02 0.73
-18 -6 3 13.04 0.75
18 -6 -3 11.64 0.64
18 6 -3 12.59 0.64
18 6 -3 12.25 0.73
-18 6 3 12.54 0.79
-18 6 3 11.57 0.63
-16 -6 3 10.32 0.7
16 -6 -3 9.63 0.54
-16 -6 3 10.38 0.63
16 -6 -3 9.31 0.64
-16 -6 3 9.29 0.59
16 6 -3 10.36 0.61
-16 6 3 10.35 0.7
16 6 -3 9.28 0.55
-16 6 3 9.23 0.57
-14 -6 3 5.58 0.59
-14 -6 3 5.81 0.52
14 -6 -3 6.83 0.44
-14 -6 3 4.89 0.5
14 -6 -3 4.76 0.5
14 6 -3 5.45 0.45
-14 6 3 5.46 0.56
-14 6 3 5.33 0.43
14 6 -3 6.07 0.45
12 -6 -3 90.29 2.3
-12 -6 3 87.15 2.26
-12 -6 3 81.73 2.33
12 -6 -3 80.54 2.09
-12 -6 3 82.97 2.17
12 6 -3 82.7 2.19
-12 6 3 86.13 2.34
-12 6 3 75.71 2.16
12 6 -3 79.06 2.15
10 -6 -3 89.22 2.41
-10 -6 3 89.8 2.46
-10 -6 3 93.14 2.3
-10 -6 3 90.62 2.41
10 -6 -3 94.71 2.25
-10 6 3 90.62 2.47
10 6 -3 91.01 2.32
10 6 -3 91.13 2.08
10 6 -3 91.3 2.36
-10 6 3 91.09 2.36
-8 -6 3 122.76 3.05
8 -6 -3 120.29 3.01
8 -6 -3 119.19 2.81
-8 -6 3 124.45 2.86
-8 -6 3 123.02 3.03
8 6 -3 119.24 2.69
-8 6 3 116.6 2.98
-8 6 3 119.76 3.06
8 6 -3 121.37 2.92
-6 -6 3 14.16 0.67
6 -6 -3 13.51 0.5
-6 -6 3 13.01 0.63
6 -6 -3 13.06 0.63
-6 -6 3 14.64 0.53
6 6 -3 13.21 0.44
6 6 -3 14.13 0.6
-6 6 3 13.76 0.64
-6 6 3 14 0.67
4 -6 -3 0.1 0.12
4 -6 -3 0.22 0.16
-4 -6 3 0.08 0.08
-4 -6 3 0.05 0.14
-4 -6 3 0.1 0.12
4 -6 -3 0.15 0.08
4 6 -3 0.03 0.07
-4 6 3 0.22 0.15
4 6 -3 -0.06 0.11
-4 6 3 0.04 0.09
2 -6 -3 22.47 0.8
-2 -6 3 21.21 0.84
-2 -6 3 21.64 0.76
2 -6 -3 22.16 0.61
-2 -6 3 21.56 0.6
2 -6 -3 20.53 0.82
2 6 -3 21.16 0.64
-2 6 3 20.05 0.83
2 6 -3 20.42 0.8
-2 6 3 21.24 0.72
0 -6 3 44.89 1.29
0 -6 -3 45.36 1.11
0 -6 -3 47.16 1.35
0 -6 3 48.79 1.45
0 -6 -3 51.51 1.44
0 6 3 47.65 1.35
0 6 3 44.49 1.44
0 6 -3 50.91 1.45
0 6 -3 45.7 1.22
2 -6 3 30.72 1.08
-2 -6 -3 33.65 1.01
-2 -6 -3 30.6 1.05
2 -6 3 31.34 0.93
-2 -6 -3 31.08 0.75
2 6 3 32.54 1.14
-2 6 -3 30.29 0.92
-2 6 -3 30.61 1.09
2 6 3 33.93 1.09
-4 -6 -3 4.14 0.4
-4 -6 -3 4.74 0.34
4 -6 3 4.07 0.47
4 -6 3 3.75 0.26
4 -6 3 3.54 0.39
4 6 3 4.87 0.41
-4 6 -3 3.69 0.42
-4 6 -3 4.09 0.3
4 6 3 5.01 0.51
-6 -6 -3 5.13 0.4
6 -6 3 5.19 0.42
6 -6 3 5.74 0.3
-6 -6 -3 6.21 0.38
6 -6 3 5.65 0.49
6 6 3 6.44 0.5
6 6 3 5.57 0.47
-6 6 -3 5.89 0.38
-6 6 -3 5.09 0.44
8 -6 3 17.08 0.86
-8 -6 -3 16.2 0.65
8 -6 3 16.42 0.52
8 -6 3 14.79 0.74
-8 -6 -3 15.53 0.71
8 6 3 15.96 0.84
8 6 3 16.25 0.83
-8 6 -3 16.85 0.81
-8 6 -3 16.18 0.68
10 -6 3 5.85 0.27
-10 -6 -3 6.32 0.46
10 -6 3 6.76 0.5
10 -6 3 6.19 0.64
-10 -6 -3 6.35 0.4
10 6 3 5.67 0.6
-10 6 -3 6.87 0.46
-10 6 -3 6.32 0.53
10 6 3 5.81 0.62
-12 -6 -3 21.66 0.9
-12 -6 -3 22.17 0.83
12 -6 3 24.93 1.13
12 -6 3 20.18 0.93
-12 6 -3 23.58 0.91
12 6 3 21.21 1.1
12 6 3 25 1.12
-12 6 -3 25.14 1.06
-14 -6 -3 38.56 1.22
14 -6 3 39.67 1.4
14 -6 3 39.32 1.55
-14 -6 -3 38.91 1.45
-14 -6 -3 40.49 1.33
14 6 3 37.32 1.49
-14 6 -3 37.29 1.3
14 6 3 38.03 1.59
-16 -6 -3 16.74 0.81
-16 -6 -3 16.85 0.74
16 -6 3 18.94 1.06
16 -6 3 17.17 0.89
-16 -6 -3 16.83 0.93
-16 6 -3 16.55 0.82
16 6 3 14.41 0.94
16 6 3 15.92 1.06
-18 -6 -3 23.73 1.14
18 -6 3 22.32 1.21
18 -6 3 20.03 1.01
-18 -6 -3 22.21 0.91
-18 -6 -3 21.94 0.96
-18 6 -3 22.68 0.99
18 6 3 19.73 1.24
18 6 3 22.53 1.2
20 -6 3 0.61 0.45
20 -6 3 0.51 0.29
-20 -6 -3 0.71 0.28
-20 -6 -3 0.28 0.22
-20 -6 -3 0.65 0.36
20 6 3 1.24 0.51
-20 6 -3 1.15 0.33
20 6 3 0.74 0.37
22 -6 3 5.96 0.7
-22 -6 -3 4.87 0.58
-22 -6 -3 6.49 0.76
22 -6 3 5.44 0.8
-22 6 -3 4.85 0.57
22 6 3 5.82 0.87
22 6 3 6.57 0.82
-24 -6 -3 16.97 0.94
24 -6 3 14.09 1
-24 -6 -3 17.19 1.08
-24 6 -3 16.58 0.95
24 6 3 17.54 1.39
-26 -6 -3 9.03 0.86
26 -6 3 9.51 0.99
26 6 3 8.35 1.17
-26 6 -3 8.42 0.81
-28 -6 -3 6.15 0.78
28 -6 3 6.7 0.86
-28 6 -3 5.94 0.75
28 6 3 6.42 1.11
27 -7 -3 0.91 0.42
-27 -7 3 1.44 0.51
-27 -7 3 1.14 0.52
27 7 -3 1.81 0.57
-25 -7 3 1.5 0.53
-25 -7 3 1.85 0.49
25 -7 -3 1.67 0.45
25 -7 -3 1.98 0.43
25 7 -3 2.04 0.53
-25 7 3 2.42 0.54
25 7 -3 1.94 0.5
23 -7 -3 -0.29 0.24
23 -7 -3 -0.3 0.28
-23 -7 3 0.05 0.35
-23 -7 3 0.14 0.31
-23 7 3 -0.01 0.24
23 7 -3 0.22 0.21
23 7 -3 -0.07 0.29
-23 7 3 0.37 0.34
-21 -7 3 -0.33 0.25
21 -7 -3 0.14 0.28
-21 -7 3 0.06 0.26
21 -7 -3 0.28 0.25
21 7 -3 0.15 0.21
21 7 -3 -0.2 0.25
-21 7 3 0.08 0.21
-21 7 3 -0.04 0.27
19 -7 -3 0.62 0.25
-19 -7 3 0.29 0.25
-19 -7 3 0.84 0.38
19 -7 -3 0.14 0.25
19 7 -3 0.76 0.23
19 7 -3 0.61 0.29
-19 7 3 0.56 0.25
-19 7 3 0.74 0.32
17 -7 -3 0.14 0.19
-17 -7 3 -0.07 0.21
-17 -7 3 -0.21 0.19
17 -7 -3 -0.17 0.21
-17 -7 3 0.27 0.26
17 7 -3 -0.25 0.18
-17 7 3 0.31 0.25
-17 7 3 -0.15 0.19
17 7 -3 0.21 0.18
-15 -7 3 4.05 0.47
15 -7 -3 3.56 0.39
15 -7 -3 3.46 0.46
-15 -7 3 3.97 0.45
-15 -7 3 4.21 0.55
15 7 -3 3.71 0.44
15 7 -3 4.18 0.44
-15 7 3 3.19 0.41
-15 7 3 3.57 0.48
-13 -7 3 7.91 0.56
-13 -7 3 8.5 0.54
13 -7 -3 8.93 0.6
13 -7 -3 7.76 0.48
-13 -7 3 7.84 0.61
13 7 -3 8.71 0.56
-13 7 3 8.78 0.56
-13 7 3 8.2 0.61
13 7 -3 9.29 0.55
-11 -7 3 1.01 0.26
11 -7 -3 1.45 0.24
-11 -7 3 1.77 0.33
-11 -7 3 1.03 0.23
11 -7 -3 1.27 0.29
11 7 -3 0.97 0.24
11 7 -3 1.62 0.28
-11 7 3 1.4 0.32
-11 7 3 1.2 0.28
-9 -7 3 3.17 0.4
-9 -7 3 3.74 0.36
9 -7 -3 3.69 0.3
9 -7 -3 3.58 0.43
-9 -7 3 4.35 0.48
9 7 -3 3.15 0.34
-9 7 3 3.99 0.43
-9 7 3 3.96 0.47
9 7 -3 3.83 0.25
-7 -7 3 4.96 0.32
-7 -7 3 5.04 0.49
-7 -7 3 4.41 0.45
7 -7 -3 4.47 0.3
7 -7 -3 3.89 0.41
7 7 -3 4.21 0.25
-7 7 3 5.02 0.49
7 7 -3 4.8 0.36
5 -7 -3 5.99 0.32
-5 -7 3 5.82 0.31
5 -7 -3 5.7 0.46
5 -7 -3 5.7 0.43
-5 -7 3 5.99 0.46
-5 -7 3 5.67 0.42
-5 7 3 6.16 0.46
5 7 -3 6.8 0.43
5 7 -3 6.19 0.3
3 -7 -3 3.35 0.36
-3 -7 3 3.5 0.23
3 -7 -3 4.08 0.42
3 -7 -3 4.04 0.24
-3 -7 3 3.45 0.36
-3 -7 3 3.64 0.41
-3 7 3 3.97 0.29
-3 7 3 3.7 0.41
3 7 -3 3.73 0.24
3 7 -3 3.82 0.38
-1 -7 3 13.97 0.69
1 -7 -3 12.42 0.65
-1 -7 3 13.14 0.59
-1 -7 3 13.67 0.43
1 -7 -3 14.65 0.63
1 -7 -3 13.36 0.45
-1 7 3 13.04 0.68
1 7 -3 14.03 0.51
-1 7 3 14.92 0.61
1 7 -3 12.94 0.64
1 -7 3 9.47 0.48
-1 -7 -3 10.59 0.58
-1 -7 -3 10.51 0.34
-1 -7 -3 10.06 0.53
1 -7 3 9.51 0.57
1 7 3 10.66 0.63
-1 7 -3 9.16 0.43
1 7 3 9.72 0.54
-1 7 -3 10.39 0.57
3 -7 3 0.02 0.1
3 -7 3 -0.01 0.15
-3 -7 -3 0.23 0.14
-3 -7 -3 0.07 0.16
-3 7 -3 0.18 0.15
3 7 3 0.52 0.2
3 7 3 0.28 0.17
-3 7 -3 0.23 0.12
-5 -7 -3 7.29 0.51
5 -7 3 9.48 0.58
5 -7 3 7.95 0.4
-5 -7 -3 8.32 0.47
5 -7 3 8.28 0.59
-5 7 -3 8.44 0.55
5 7 3 7.93 0.55
5 7 3 9.11 0.62
-5 7 -3 7.84 0.43
7 -7 3 19.19 0.93
7 -7 3 21.65 0.91
-7 -7 -3 19.24 0.76
7 -7 3 19.04 0.65
-7 -7 -3 19.46 0.83
7 7 3 19.67 0.94
7 7 3 19.25 0.93
-7 7 -3 18.73 0.74
-7 7 -3 19.95 0.89
-9 -7 -3 13.96 0.63
9 -7 3 12.23 0.7
9 -7 3 12.57 0.48
9 -7 3 14.09 0.8
-9 -7 -3 12.97 0.68
-9 7 -3 13.23 0.62
9 7 3 12.6 0.79
9 7 3 12.79 0.79
-9 7 -3 14.47 0.76
-11 -7 -3 1.93 0.33
-11 -7 -3 2.41 0.32
11 -7 3 1.87 0.3
11 -7 3 2.53 0.41
11 -7 3 1.23 0.34
-11 7 -3 1.73 0.28
11 7 3 2.36 0.44
11 7 3 2.47 0.46
-11 7 -3 2.05 0.39
13 -7 3 2.73 0.44
-13 -7 -3 2.66 0.38
13 -7 3 2.6 0.47
-13 -7 -3 2.11 0.32
13 7 3 3 0.51
-13 7 -3 2.1 0.41
13 7 3 1.88 0.44
-13 7 -3 2.5 0.36
-15 -7 -3 2.17 0.36
-15 -7 -3 2.34 0.44
-15 -7 -3 2.63 0.36
15 -7 3 2.43 0.43
15 -7 3 1.9 0.46
15 7 3 2.51 0.48
15 7 3 1.39 0.41
-15 7 -3 2.04 0.34
-15 7 -3 2.46 0.45
17 -7 3 0.11 0.26
-17 -7 -3 0.31 0.22
17 -7 3 0.79 0.38
-17 -7 -3 -0.32 0.23
-17 -7 -3 0 0.19
17 7 3 0.1 0.31
-17 7 -3 0.14 0.2
17 7 3 0.2 0.31
-17 7 -3 0.22 0.26
19 -7 3 6.89 0.71
-19 -7 -3 7.33 0.57
-19 -7 -3 8.65 0.85
-19 -7 -3 7.4 0.69
19 -7 3 7.36 0.84
19 7 3 6.97 0.9
-19 7 -3 7.84 0.62
19 7 3 6.66 0.81
-21 -7 -3 7.51 0.61
21 -7 3 6.1 0.73
-21 -7 -3 6.54 0.68
-21 -7 -3 7.22 0.81
21 -7 3 9 0.95
21 7 3 5.4 0.88
-21 7 -3 7.42 0.7
21 7 3 5.77 0.82
-23 -7 -3 1.75 0.49
23 -7 3 1.28 0.45
-23 -7 -3 1.85 0.44
23 7 3 1.34 0.49
-23 7 -3 1.68 0.43
23 7 3 0.84 0.52
-25 -7 -3 0.17 0.31
25 -7 3 0.07 0.37
25 7 3 0.34 0.53
-25 7 -3 0.12 0.31
-27 -7 -3 1 0.43
27 -7 3 0.68 0.46
27 7 3 0.89 0.68
-27 7 -3 0.74 0.36
28 -8 -3 0.52 0.48
28 8 -3 0.1 0.51
-26 -8 3 0.27 0.46
-26 -8 3 -0.55 0.32
26 -8 -3 0.13 0.32
26 8 -3 -0.12 0.39
-24 -8 3 0.28 0.4
-24 -8 3 0.23 0.35
24 -8 -3 -0.16 0.32
24 -8 -3 0.19 0.31
-24 8 3 0.34 0.37
24 8 -3 0.92 0.42
-24 8 3 -0.16 0.28
-22 -8 3 0.74 0.36
-22 -8 3 0.16 0.38
22 -8 -3 0.34 0.29
22 -8 -3 0.18 0.32
22 8 -3 0.6 0.26
-22 8 3 0.21 0.32
22 8 -3 0.46 0.37
-22 8 3 0.43 0.32
20 -8 -3 0.01 0.24
-20 -8 3 -0.21 0.28
20 -8 -3 0.09 0.28
-20 -8 3 0.12 0.26
-20 8 3 -0.03 0.29
20 8 -3 -0.07 0.2
-20 8 3 -0.16 0.23
20 8 -3 -0.17 0.23
-18 -8 3 6.66 0.75
-18 -8 3 8.03 0.61
18 -8 -3 8.07 0.59
-18 -8 3 8.61 0.66
18 -8 -3 7.85 0.66
-18 8 3 6.9 0.65
-18 8 3 7.89 0.77
18 8 -3 7.67 0.54
18 8 -3 8.12 0.68
16 -8 -3 2.61 0.43
-16 -8 3 2.89 0.51
-16 -8 3 3.4 0.46
-16 -8 3 2.98 0.42
16 -8 -3 3.29 0.4
16 8 -3 2.98 0.39
-16 8 3 3.69 0.52
16 8 -3 3.82 0.48
-16 8 3 3.52 0.46
-14 -8 3 3.99 0.55
14 -8 -3 5.07 0.52
-14 -8 3 4.5 0.49
14 -8 -3 3.92 0.42
-14 -8 3 3.58 0.47
14 8 -3 4.49 0.47
-14 8 3 5.41 0.59
-14 8 3 3.1 0.42
14 8 -3 3.84 0.44
12 -8 -3 10.08 0.65
-12 -8 3 10.74 0.59
-12 -8 3 8.82 0.66
12 -8 -3 11.14 0.56
-12 -8 3 11.2 0.65
12 8 -3 10.64 0.62
12 8 -3 9.6 0.59
-12 8 3 9.87 0.63
10 -8 -3 37.86 1.14
-10 -8 3 37.77 1.3
10 -8 -3 39.18 1.31
-10 -8 3 37.39 1.17
-10 -8 3 36.42 1.34
10 8 -3 34.67 1.2
-10 8 3 38.24 1.31
-8 -8 3 26.83 0.89
8 -8 -3 27.55 1.03
8 -8 -3 27.26 0.88
-8 -8 3 27.01 1.05
-8 -8 3 26 1.06
8 8 -3 26.63 0.96
8 8 -3 27.85 0.83
-8 8 3 26.01 1.05
6 -8 -3 40.49 1.36
-6 -8 3 40.52 1.13
-6 -8 3 40.45 1.33
-6 -8 3 40.02 1.35
6 -8 -3 39.86 1.12
6 -8 -3 37.78 1.28
-6 8 3 39.31 1.35
6 8 -3 38.57 1.23
6 8 -3 39.01 1.08
-4 -8 3 3.04 0.38
4 -8 -3 3.76 0.27
4 -8 -3 3.81 0.42
-4 -8 3 3.13 0.41
-4 -8 3 3.27 0.25
4 -8 -3 3.62 0.44
-4 8 3 3.65 0.43
4 8 -3 3.63 0.39
-4 8 3 3 0.26
4 8 -3 3.26 0.25
-2 -8 3 3.59 0.38
-2 -8 3 3.86 0.24
-2 -8 3 4.28 0.47
2 -8 -3 4.35 0.27
2 -8 -3 4.8 0.45
2 -8 -3 3.77 0.43
2 8 -3 4.31 0.28
-2 8 3 4.06 0.33
2 8 -3 3.79 0.39
-2 8 3 4.17 0.48
0 -8 3 20.67 0.59
0 -8 -3 20.83 0.89
0 -8 3 22.1 0.82
0 -8 -3 21.26 0.63
0 -8 3 19.9 0.9
0 -8 -3 20.84 0.84
0 8 3 22.39 0.84
0 8 -3 20.65 0.85
0 8 3 21.46 0.93
0 8 -3 22.26 0.73
-2 -8 -3 14.82 0.67
-2 -8 -3 13.73 0.44
2 -8 3 12.9 0.71
-2 -8 -3 14.15 0.72
2 -8 3 13.46 0.6
-2 8 -3 14.43 0.57
2 8 3 14.25 0.77
-2 8 -3 14.79 0.7
2 8 3 12.98 0.68
-4 -8 -3 4.34 0.42
-4 -8 -3 4.08 0.46
4 -8 3 4.08 0.47
4 -8 3 4.02 0.32
-4 8 -3 4.5 0.34
-4 8 -3 4.31 0.46
4 8 3 5.33 0.54
4 8 3 3.81 0.49
6 -8 3 4.06 0.36
-6 -8 -3 3.84 0.44
6 -8 3 4.47 0.51
-6 -8 -3 2.83 0.35
-6 8 -3 3.67 0.46
6 8 3 3.12 0.45
6 8 3 4.88 0.54
-6 8 -3 3.38 0.34
8 -8 3 2.57 0.41
8 -8 3 1.87 0.4
-8 -8 -3 1.83 0.33
-8 -8 -3 2.32 0.33
8 -8 3 2.11 0.25
-8 8 -3 1.4 0.33
-8 8 -3 2.04 0.29
8 8 3 1.51 0.36
8 8 3 2.2 0.42
10 -8 3 0.47 0.15
10 -8 3 0.11 0.22
-10 -8 -3 0.75 0.26
-10 -8 -3 0.44 0.19
10 -8 3 0.36 0.24
10 8 3 0.34 0.26
-10 8 -3 0.08 0.19
-10 8 -3 0.56 0.19
10 8 3 0.4 0.28
-12 -8 -3 19.02 0.83
12 -8 3 22.16 1.08
-12 -8 -3 20.65 0.92
12 -8 3 18.75 0.97
12 8 3 21.08 1.14
-12 8 -3 19.57 0.85
12 8 3 20.13 1.08
-12 8 -3 23.05 1.03
14 -8 3 12.34 0.81
-14 -8 -3 16.11 0.76
14 -8 3 16.6 0.97
-14 -8 -3 15.12 0.81
14 8 3 14.96 0.96
-14 8 -3 14.48 0.75
14 8 3 16.01 1.04
-14 8 -3 14.66 0.86
-16 -8 -3 21.11 1.11
-16 -8 -3 20.25 0.95
16 -8 3 20.43 1.12
16 -8 3 20.2 1.05
-16 -8 -3 20.08 0.9
-16 8 -3 19.37 1.05
-16 8 -3 17.73 0.87
16 8 3 19.19 1.2
16 8 3 19.45 1.14
-18 -8 -3 0.46 0.27
-18 -8 -3 0.52 0.27
18 -8 3 0.04 0.29
18 -8 3 0.91 0.37
-18 -8 -3 0.8 0.38
18 8 3 0.14 0.34
-18 8 -3 0.72 0.26
-18 8 -3 0.42 0.35
18 8 3 0.04 0.35
-20 -8 -3 0.96 0.41
-20 -8 -3 0.52 0.32
-20 -8 -3 0.23 0.26
20 -8 3 0.46 0.35
-20 8 -3 0 0.25
20 8 3 0.34 0.35
20 8 3 0.05 0.35
22 -8 3 1.5 0.48
-22 -8 -3 3.03 0.49
-22 -8 -3 2.62 0.49
-22 -8 -3 3.06 0.6
22 8 3 1.41 0.53
22 8 3 1.18 0.59
-22 8 -3 2.1 0.44
-24 -8 -3 5.34 0.68
24 -8 3 5.7 0.79
24 8 3 5.2 0.97
-24 8 -3 6.05 0.68
26 -8 3 5.58 0.83
-26 -8 -3 4.6 0.67
26 8 3 5.05 0.99
-26 8 -3 5.42 0.68
25 -9 -3 5 0.67
-25 -9 3 5.28 0.74
-25 -9 3 7.36 0.96
25 9 -3 4.93 0.79
-25 9 3 5.23 0.77
-23 -9 3 5.12 0.78
-23 -9 3 5.23 0.72
23 -9 -3 4.84 0.66
23 -9 -3 4.33 0.6
-23 9 3 6.16 0.7
-23 9 3 5.6 0.73
23 9 -3 5.46 0.78
-21 -9 3 0.42 0.32
21 -9 -3 0.89 0.37
-21 -9 3 0.92 0.42
21 -9 -3 0.44 0.31
-21 9 3 0.05 0.29
21 9 -3 0.24 0.33
-21 9 3 1.04 0.4
-19 -9 3 0.18 0.29
19 -9 -3 -0.05 0.29
19 -9 -3 0.4 0.28
-19 -9 3 0.09 0.32
19 9 -3 0.12 0.22
19 9 -3 0.17 0.27
-19 9 3 0.23 0.27
-17 -9 3 13.02 0.91
17 -9 -3 14.42 0.83
17 -9 -3 14.32 0.76
-17 -9 3 11.81 0.76
-17 -9 3 11.27 0.72
17 9 -3 11.9 0.7
17 9 -3 13.32 0.83
-17 9 3 14.37 0.83
-15 -9 3 42.43 1.46
-15 -9 3 40.56 1.59
15 -9 -3 43.16 1.39
-15 -9 3 40.33 1.42
15 -9 -3 43.15 1.51
15 9 -3 41.81 1.48
-15 9 3 42.03 1.5
15 9 -3 42.23 1.4
13 -9 -3 13.08 0.75
-13 -9 3 13.09 0.68
-13 -9 3 12.24 0.73
-13 -9 3 10.62 0.77
13 -9 -3 11.96 0.64
13 9 -3 11.24 0.67
-13 9 3 12.88 0.76
13 9 -3 12.46 0.7
-11 -9 3 -0.12 0.19
11 -9 -3 0.02 0.21
-11 -9 3 0.29 0.23
11 -9 -3 0.03 0.16
-11 -9 3 0.07 0.15
11 9 -3 -0.03 0.17
-11 9 3 0.12 0.2
11 9 -3 0.04 0.18
9 -9 -3 5.76 0.41
9 -9 -3 5.7 0.59
9 -9 -3 5.05 0.51
-9 -9 3 5.3 0.54
-9 -9 3 4.82 0.53
-9 -9 3 4.93 0.39
-9 9 3 4.35 0.52
9 9 -3 4.39 0.44
-7 -9 3 13.76 0.75
7 -9 -3 12.33 0.74
7 -9 -3 15.06 0.61
-7 -9 3 14.81 0.75
7 -9 -3 14.88 0.75
-7 -9 3 12.86 0.58
-7 9 3 13.43 0.77
7 9 -3 13.28 0.66
7 9 -3 13.49 0.57
5 -9 -3 49.21 1.61
-5 -9 3 49.59 1.34
5 -9 -3 51.42 1.36
-5 -9 3 45.46 1.57
5 -9 -3 48.89 1.53
-5 -9 3 49.66 1.57
5 9 -3 48.04 1.34
-5 9 3 50.79 1.65
5 9 -3 48 1.47
-3 -9 3 40.45 1.32
3 -9 -3 40.02 1.38
3 -9 -3 39.66 1.1
3 -9 -3 40.33 1.31
-3 -9 3 38.72 1.37
-3 -9 3 38.59 1.07
-3 9 3 35.41 1.37
3 9 -3 38.55 1.12
3 9 -3 38.1 1.26
-3 9 3 41.54 1.19
1 -9 -3 36.54 1.3
-1 -9 3 37.11 0.97
1 -9 -3 36.35 1.22
-1 -9 3 36.46 1.32
1 -9 -3 37.93 1.02
-1 -9 3 37.44 1.23
1 9 -3 34.31 1.06
1 9 -3 34.02 1.19
-1 9 3 38.45 1.2
-1 9 3 34.31 1.32
-1 -9 -3 5 0.54
1 -9 3 4.49 0.51
1 -9 3 5.25 0.42
-1 -9 -3 4.6 0.45
-1 9 -3 4.4 0.33
-1 9 -3 5.02 0.43
1 9 3 4.86 0.54
1 9 3 5.19 0.45
3 -9 3 1.78 0.33
3 9 3 2.11 0.38
5 -9 3 17.5 0.89
-5 -9 -3 16.43 0.83
-5 -9 -3 17.83 0.8
5 -9 3 17.87 0.72
-5 9 -3 18.42 0.72
-5 9 -3 18.83 0.85
5 9 3 17.95 0.95
5 9 3 18.1 0.9
7 -9 3 14.5 0.62
-7 -9 -3 13.49 0.75
7 -9 3 14.68 0.83
-7 -9 -3 14.98 0.73
7 9 3 14.29 0.84
-7 9 -3 14.37 0.65
-7 9 -3 14.53 0.77
7 9 3 14.97 0.89
-9 -9 -3 6.44 0.51
-9 -9 -3 8.68 0.61
9 -9 3 6.33 0.63
9 -9 3 6.83 0.41
9 9 3 6.35 0.69
-9 9 -3 6.91 0.58
-9 9 -3 7.28 0.5
9 9 3 5.5 0.67
11 -9 3 29.3 1.28
-11 -9 -3 28.14 1.09
-11 -9 -3 29.56 1.17
11 -9 3 29.31 1.25
11 9 3 28.92 1.33
-11 9 -3 27.49 1.05
-11 9 -3 30.11 1.22
11 9 3 27.29 1.34
13 -9 3 2.33 0.47
13 -9 3 2.15 0.43
-13 -9 -3 3.59 0.44
-13 -9 -3 2.34 0.41
-13 9 -3 1.96 0.4
13 9 3 2.95 0.55
13 9 3 1.94 0.49
-13 9 -3 2.1 0.36
15 -9 3 9.05 0.77
15 -9 3 6.85 0.73
-15 -9 -3 7.16 0.67
-15 -9 -3 8.55 0.62
15 9 3 7.8 0.87
15 9 3 6.88 0.85
-15 9 -3 8.04 0.58
-15 9 -3 9.32 0.73
-17 -9 -3 27.41 1.14
-17 -9 -3 26.42 1.16
17 -9 3 27.61 1.46
-17 -9 -3 24.46 1.28
17 -9 3 29.46 1.33
17 9 3 23.61 1.33
-17 9 -3 26.2 1.1
17 9 3 24.13 1.44
-17 9 -3 26.37 1.24
-19 -9 -3 22.2 1.1
19 -9 3 21.77 1.21
-19 -9 -3 23.4 1.08
-19 -9 -3 22.19 1.24
19 9 3 21.09 1.29
-19 9 -3 22.69 1.04
19 9 3 22.6 1.46
-21 -9 -3 26.14 1.19
21 -9 3 26.33 1.37
-21 -9 -3 25.75 1.22
-21 -9 -3 25.3 1.33
21 9 3 25.1 1.42
21 9 3 21.08 1.51
-21 9 -3 25.84 1.16
-23 -9 -3 2.55 0.54
-23 -9 -3 3.18 0.85
23 -9 3 3.51 0.66
-23 9 -3 2.24 0.48
23 9 3 2.97 0.83
25 -9 3 0.33 0.44
-25 -9 -3 0.29 0.37
25 9 3 0.24 0.58
-25 9 -3 0.11 0.34
24 -10 -3 0.63 0.4
-24 -10 3 0.12 0.36
-24 -10 3 -0.1 0.44
-24 10 3 -0.44 0.33
24 10 -3 0.37 0.45
22 -10 -3 0.03 0.35
-22 -10 3 0.06 0.39
22 -10 -3 0.2 0.33
-22 -10 3 -0.29 0.3
-22 10 3 0.02 0.32
22 10 -3 0.23 0.4
-20 -10 3 0.9 0.44
20 -10 -3 0.52 0.32
20 -10 -3 0.47 0.34
-20 -10 3 0.44 0.32
20 10 -3 0.93 0.39
-20 10 3 0.32 0.33
-18 -10 3 1.07 0.37
-18 -10 3 1.97 0.51
18 -10 -3 2.29 0.42
18 -10 -3 1.05 0.36
-18 10 3 1.38 0.39
18 10 -3 1.2 0.39
-16 -10 3 1.05 0.32
-16 -10 3 0.79 0.32
16 -10 -3 1.19 0.37
16 -10 -3 0.85 0.31
-16 -10 3 0.34 0.34
16 10 -3 1.01 0.29
-16 10 3 0.76 0.34
16 10 -3 1.23 0.37
14 -10 -3 4.67 0.56
14 -10 -3 2.26 0.37
-14 -10 3 4.04 0.59
-14 -10 3 2.96 0.45
-14 -10 3 3.16 0.43
14 10 -3 2.48 0.43
14 10 -3 3.37 0.44
-14 10 3 4.41 0.59
-12 -10 3 -0.09 0.23
12 -10 -3 0.44 0.27
-12 -10 3 0.36 0.28
12 -10 -3 0.24 0.21
-12 -10 3 0.22 0.18
-12 10 3 0.35 0.27
12 10 -3 0.11 0.19
12 10 -3 0.15 0.23
-10 -10 3 12.58 0.8
-10 -10 3 12.69 0.64
10 -10 -3 14.43 0.78
10 -10 -3 14.36 0.83
-10 -10 3 10.76 0.72
10 -10 -3 12.12 0.64
-10 10 3 12.27 0.79
10 10 -3 12.2 0.7
-8 -10 3 12.21 0.75
8 -10 -3 14.17 0.65
-8 -10 3 14.91 0.81
-8 -10 3 14.95 0.65
8 -10 -3 13.98 0.78
8 -10 -3 14.87 0.83
8 10 -3 15.06 0.73
-8 10 3 13.34 0.81
8 10 -3 14.31 0.74
6 -10 -3 2.94 0.33
-6 -10 3 2.4 0.29
6 -10 -3 2.67 0.43
6 -10 -3 3.85 0.47
-6 -10 3 2.63 0.41
-6 -10 3 2.65 0.41
6 10 -3 3.15 0.38
-6 10 3 2.99 0.45
6 10 -3 2.36 0.3
-4 -10 3 -0.12 0.17
4 -10 -3 0.07 0.24
-4 -10 3 0 0.12
4 -10 -3 0.14 0.21
-4 -10 3 0.28 0.25
4 -10 -3 0.08 0.16
4 10 -3 0.15 0.18
4 10 -3 0.09 0.15
-4 10 3 0.25 0.24
2 -10 -3 10.15 0.64
-2 -10 3 10.26 0.69
-2 -10 3 10.17 0.63
2 -10 -3 10.76 0.49
2 -10 -3 10.33 0.7
2 10 -3 9.9 0.51
-2 10 3 11.48 0.74
2 10 -3 9.93 0.59
0 -10 -3 1.05 0.28
0 -10 3 1.78 0.32
0 -10 3 2.05 0.39
0 -10 -3 1.48 0.35
0 10 -3 1.55 0.24
0 10 3 1.48 0.29
0 10 -3 1.35 0.29
0 10 3 1.08 0.31
2 -10 3 0.97 0.25
-2 -10 -3 1.11 0.31
2 -10 3 0.84 0.3
-2 -10 -3 0.85 0.27
2 10 3 1.22 0.3
-2 10 -3 0.72 0.19
2 10 3 0.93 0.31
-2 10 -3 1.31 0.29
-4 -10 -3 0.21 0.24
-4 -10 -3 0.28 0.24
4 -10 3 0.07 0.23
4 -10 3 0.13 0.18
-4 10 -3 0.38 0.17
4 10 3 0.35 0.26
4 10 3 0.05 0.23
-4 10 -3 0.25 0.2
6 -10 3 2.46 0.44
-6 -10 -3 2.26 0.39
6 -10 3 3.17 0.38
-6 -10 -3 2.05 0.36
6 10 3 2.68 0.45
-6 10 -3 2.09 0.38
-6 10 -3 2.45 0.33
6 10 3 2.29 0.47
8 -10 3 0.22 0.19
-8 -10 -3 -0.03 0.18
-8 -10 -3 0.08 0.2
8 -10 3 0.27 0.26
-8 10 -3 0.22 0.21
8 10 3 -0.05 0.24
8 10 3 0.19 0.27
-8 10 -3 0.06 0.17
-10 -10 -3 7.39 0.69
10 -10 3 6.91 0.73
-10 -10 -3 6.53 0.6
-10 10 -3 6.31 0.5
10 10 3 7.58 0.78
10 10 3 6.59 0.77
-10 10 -3 8.12 0.63
12 -10 3 3.89 0.57
-12 -10 -3 3.1 0.47
-12 -10 -3 2.47 0.4
12 10 3 3.64 0.62
12 10 3 2.89 0.55
-12 10 -3 2.45 0.44
-12 10 -3 2.68 0.38
-14 -10 -3 0.91 0.31
-14 -10 -3 0.44 0.27
14 -10 3 0.24 0.35
14 -10 3 0.24 0.33
-14 10 -3 0.23 0.31
14 10 3 0.13 0.3
-14 10 -3 0.29 0.22
14 10 3 0.38 0.36
-16 -10 -3 2.14 0.41
16 -10 3 2.68 0.54
-16 -10 -3 2.34 0.44
16 10 3 1.99 0.58
-16 10 -3 2.13 0.4
16 10 3 2.72 0.61
-18 -10 -3 4.65 0.61
-18 -10 -3 4.79 0.71
-18 -10 -3 4.55 0.6
18 -10 3 4.03 0.64
-18 10 -3 3.99 0.52
18 10 3 5.43 0.89
18 10 3 2.67 0.61
20 -10 3 0.28 0.38
-20 -10 -3 0.44 0.33
-20 -10 -3 0.19 0.31
-20 -10 -3 0.38 0.41
-20 10 -3 0.32 0.3
20 10 3 0.22 0.41
20 10 3 0.22 0.46
-22 -10 -3 0.53 0.37
22 -10 3 0.74 0.46
-22 -10 -3 0.73 0.39
-22 10 -3 0.13 0.31
22 10 3 0.26 0.55
24 -10 3 3.53 0.72
-24 -10 -3 4.09 0.67
24 10 3 1.35 0.71
-24 10 -3 2.79 0.52
-23 -11 3 1.16 0.48
23 -11 -3 0.6 0.74
23 -11 -3 1.12 0.46
-23 -11 3 0.96 0.52
-23 11 3 1.13 0.47
23 11 -3 1.34 0.52
21 -11 -3 0.3 0.35
21 -11 -3 -0.33 0.33
-21 -11 3 0.3 0.35
-21 -11 3 0.48 0.44
21 11 -3 -0.35 0.35
-21 11 3 0.01 0.35
-19 -11 3 5.02 0.63
-19 -11 3 5.14 0.75
19 -11 -3 6.06 0.7
19 -11 -3 5.37 0.63
-19 11 3 6.17 0.75
19 11 -3 6.25 0.74
17 -11 -3 22.65 1.07
-17 -11 3 24.2 1.28
17 -11 -3 22.75 1.13
-17 -11 3 22.01 1.07
-17 11 3 23.21 1.18
17 11 -3 21.53 1.13
-15 -11 3 20.19 0.97
-15 -11 3 18.78 1.13
15 -11 -3 18.77 0.93
15 -11 -3 19.98 1.03
15 11 -3 20.94 1.05
-15 11 3 20.47 1.08
13 -11 -3 11.91 0.72
13 -11 -3 12.11 0.89
-13 -11 3 11.57 0.88
-13 -11 3 11.47 0.7
13 -11 -3 12.66 0.82
-13 -11 3 12.32 0.77
13 11 -3 12.07 0.78
-13 11 3 11.71 0.84
13 11 -3 12.72 0.74
-11 -11 3 0.59 0.31
11 -11 -3 0.65 0.26
-11 -11 3 0.5 0.3
11 -11 -3 0.72 0.31
11 -11 -3 0.69 0.36
-11 -11 3 0.97 0.27
11 11 -3 0.71 0.29
-11 11 3 1.16 0.39
-9 -11 3 0.94 0.31
9 -11 -3 1.43 0.37
9 -11 -3 1.45 0.29
9 -11 -3 1.71 0.36
-9 -11 3 1.35 0.29
-9 -11 3 1.7 0.41
9 11 -3 1.48 0.32
-9 11 3 1.13 0.36
7 -11 -3 4.05 0.53
-7 -11 3 3.66 0.53
7 -11 -3 3.05 0.37
7 -11 -3 3.45 0.47
-7 -11 3 2.86 0.46
7 11 -3 4.42 0.49
-7 11 3 3.64 0.53
7 11 -3 3.62 0.44
-5 -11 3 2.99 0.45
-5 -11 3 2.83 0.46
5 -11 -3 2.79 0.35
5 -11 -3 2.33 0.4
5 -11 -3 2.77 0.46
5 11 -3 2.99 0.39
-5 11 3 2.91 0.5
5 11 -3 2.75 0.35
3 -11 -3 6.53 0.66
3 -11 -3 5.4 0.54
-3 -11 3 5.58 0.61
-3 -11 3 5.08 0.55
-3 11 3 5.01 0.6
3 11 -3 5.98 0.43
3 11 -3 5.39 0.47
-1 -11 3 0.06 0.21
-1 -11 3 -0.01 0.24
1 -11 -3 -0.3 0.19
1 -11 -3 -0.12 0.22
1 11 -3 0.12 0.19
-1 11 3 0.3 0.25
1 11 -3 0.32 0.17
1 -11 3 4.13 0.53
-1 -11 -3 4.81 0.59
1 -11 3 4.13 0.48
-1 -11 -3 4.31 0.49
-1 11 -3 4.35 0.41
1 11 3 4.08 0.58
1 11 3 3.29 0.45
-1 11 -3 5.07 0.51
-3 -11 -3 0.85 0.33
3 -11 3 0.86 0.26
3 -11 3 0.83 0.32
-3 -11 -3 0.96 0.31
3 11 3 0.98 0.3
-3 11 -3 0.66 0.22
3 11 3 0.18 0.28
-3 11 -3 0.77 0.25
-5 -11 -3 12.35 0.8
5 -11 3 12.9 0.69
5 -11 3 10.96 0.8
-5 -11 -3 12.73 0.77
-5 11 -3 12.81 0.65
5 11 3 13.58 0.89
5 11 3 12.07 0.82
-5 11 -3 13.75 0.74
7 -11 3 12.65 0.67
7 -11 3 13.12 0.86
-7 -11 -3 13.13 0.77
-7 -11 -3 12.9 0.81
-7 11 -3 12.34 0.74
-7 11 -3 12.93 0.68
7 11 3 11.24 0.84
7 11 3 14.15 0.94
9 -11 3 36.32 1.51
-9 -11 -3 37.37 1.37
-9 -11 -3 38.76 1.45
-9 11 -3 36.66 1.37
-9 11 -3 38.42 1.29
9 11 3 38.47 1.61
9 11 3 35.33 1.58
-11 -11 -3 28.89 1.23
-11 -11 -3 28.04 1.16
11 -11 3 25.67 1.26
-11 11 -3 26.37 1.07
-11 11 -3 26.04 1.13
11 11 3 26.67 1.4
11 11 3 26.15 1.37
13 -11 3 2.77 0.53
-13 -11 -3 3.17 0.48
-13 -11 -3 3.22 0.51
13 11 3 1.01 0.45
-13 11 -3 2.85 0.53
13 11 3 1.88 0.52
-13 11 -3 2.44 0.41
15 -11 3 1.23 0.46
-15 -11 -3 1.23 0.38
-15 -11 -3 1.31 0.43
-15 11 -3 1.22 0.35
15 11 3 1.56 0.54
15 11 3 1.79 0.53
-17 -11 -3 11.08 0.81
17 -11 3 11.62 1.04
-17 -11 -3 10.81 0.79
17 11 3 11.01 1.1
-17 11 -3 8.87 0.73
17 11 3 9.23 1.12
-19 -11 -3 16.66 1.15
-19 -11 -3 17.61 1.05
19 -11 3 14.89 1.13
-19 -11 -3 17.19 1.02
-19 11 -3 17.32 0.96
19 11 3 17.23 1.38
19 11 3 17.07 1.23
-21 -11 -3 5.23 0.69
-21 -11 -3 4.87 0.67
21 -11 3 4.26 0.73
21 11 3 5.01 0.91
-21 11 -3 3.22 0.54
-23 -11 -3 1.17 0.46
23 -11 3 0.83 0.53
-23 -11 -3 1.41 0.48
-23 11 -3 1.37 0.45
23 11 3 0.92 0.61
22 -12 -3 0 0.52
22 -12 -3 0.86 0.43
-22 -12 3 0.39 0.49
-22 -12 3 0.49 0.44
-22 12 3 0.54 0.43
22 12 -3 0.6 0.46
20 -12 -3 4.01 0.6
-20 -12 3 4.17 0.72
-20 -12 3 3.8 0.61
20 -12 -3 4.73 0.69
20 12 -3 5.22 0.73
-20 12 3 2.82 0.59
-18 -12 3 5.55 0.79
-18 -12 3 3.77 0.56
18 -12 -3 3.87 0.57
18 -12 -3 4.32 0.63
18 12 -3 4.58 0.65
-18 12 3 4.44 0.65
16 -12 -3 1.03 0.43
16 -12 -3 0.93 0.39
16 -12 -3 0.76 0.33
-16 -12 3 0.82 0.35
-16 -12 3 0.47 0.42
-16 12 3 1.1 0.41
16 12 -3 1.78 0.46
-14 -12 3 0.02 0.35
14 -12 -3 -0.06 0.26
-14 -12 3 -0.08 0.22
14 -12 -3 0.37 0.32
14 -12 -3 -0.52 0.3
-14 12 3 -0.39 0.28
14 12 -3 0.18 0.29
12 -12 -3 7.24 0.76
12 -12 -3 5.56 0.64
12 -12 -3 5.99 0.58
-12 -12 3 6.58 0.73
12 12 -3 5.93 0.64
-12 12 3 6.84 0.78
-10 -12 3 6.38 0.72
10 -12 -3 5.39 0.67
-10 -12 3 5.77 0.66
10 -12 -3 6.06 0.58
10 -12 -3 5.32 0.61
-10 12 3 4.79 0.64
10 12 -3 5.05 0.57
8 -12 -3 4.41 0.47
-8 -12 3 4.42 0.59
8 -12 -3 4.56 0.57
8 -12 -3 3.67 0.57
-8 -12 3 3.06 0.51
8 12 -3 3.71 0.47
-8 12 3 5.4 0.69
6 -12 -3 4.17 0.53
-6 -12 3 3.33 0.5
-6 -12 3 4.49 0.57
6 -12 -3 4.37 0.57
-6 12 3 4.76 0.64
6 12 -3 4.29 0.49
6 12 -3 4.16 0.51
-4 -12 3 -0.06 0.26
-4 -12 3 0.21 0.26
4 -12 -3 -0.08 0.24
4 -12 -3 0.09 0.27
-4 12 3 -0.32 0.23
4 12 -3 0.41 0.23
4 12 -3 0.29 0.21
2 -12 -3 3.53 0.51
-2 -12 3 5.02 0.6
2 -12 -3 4.63 0.58
-2 -12 3 5.44 0.6
2 12 -3 4.57 0.47
2 12 -3 4.93 0.51
-2 12 3 4.34 0.62
0 -12 -3 9.81 0.71
0 -12 3 10.2 0.69
0 -12 3 10.47 0.78
0 -12 -3 12.5 0.82
0 12 -3 9.97 0.63
0 12 3 11.51 0.84
0 12 -3 10.09 0.6
2 -12 3 21.83 0.97
-2 -12 -3 21.03 1
2 -12 3 21.48 1.1
-2 -12 -3 22.38 1.09
2 12 3 20.91 1.15
-2 12 -3 20.45 0.88
-2 12 -3 21.71 0.94
4 -12 3 4.91 0.53
-4 -12 -3 5.06 0.62
4 -12 3 3.85 0.57
-4 -12 -3 3.83 0.51
-4 12 -3 4.14 0.49
4 12 3 4.83 0.63
-4 12 -3 4.06 0.44
4 12 3 4.77 0.68
6 -12 3 3.34 0.52
6 12 3 3.23 0.56
6 12 3 2.27 0.46
8 -12 3 0.26 0.34
-8 -12 -3 0.26 0.29
-8 -12 -3 -0.13 0.25
-8 12 -3 -0.14 0.2
8 12 3 -0.08 0.3
-8 12 -3 0.17 0.21
8 12 3 0.13 0.32
-10 -12 -3 2.41 0.48
10 -12 3 2.48 0.53
-10 -12 -3 3.08 0.5
-10 12 -3 2.73 0.41
10 12 3 3.38 0.63
10 12 3 2.9 0.58
-10 12 -3 3.58 0.48
14 -12 3 4.39 0.65
-14 -12 -3 5.79 0.68
-14 -12 -3 4.23 0.58
-14 12 -3 5.82 0.63
14 12 3 3.54 0.72
14 12 3 5.53 0.82
-16 -12 -3 1.19 0.42
16 -12 3 1.05 0.49
-16 -12 -3 2.24 0.48
16 12 3 0.7 0.48
-16 12 -3 1.75 0.39
16 12 3 0.82 0.46
-20 -12 -3 0.21 0.36
-20 -12 -3 0.17 0.36
20 -12 3 0.28 0.49
20 12 3 0.17 0.53
-20 12 -3 -0.22 0.28
19 -13 -3 0.42 0.4
19 -13 -3 0.23 0.39
-19 -13 3 0.37 0.45
19 -13 -3 0.61 0.49
19 13 -3 0.59 0.41
-19 13 3 0.33 0.42
17 -13 -3 5.01 0.74
-17 -13 3 5.61 0.8
17 -13 -3 5.59 0.71
17 -13 -3 4.94 0.68
-17 13 3 5.95 0.78
17 13 -3 5.52 0.72
15 -13 -3 14.46 0.92
15 -13 -3 14.17 0.97
15 -13 -3 14.18 1.03
-15 -13 3 11.88 1
15 13 -3 16.45 1.02
-15 13 3 14.44 1.05
-13 -13 3 7.29 0.86
13 -13 -3 4.35 0.56
13 -13 -3 5.25 0.71
13 -13 -3 5.99 0.7
13 13 -3 4.94 0.65
-13 13 3 3.92 0.64
-11 -13 3 3.83 0.63
11 -13 -3 4.01 0.64
11 -13 -3 3.19 0.47
11 -13 -3 3.82 0.56
-11 13 3 2.15 0.51
11 13 -3 4.2 0.58
-9 -13 3 0.46 0.34
9 -13 -3 -0.03 0.29
9 -13 -3 0.3 0.35
9 13 -3 0.58 0.3
-9 13 3 0.83 0.38
7 -13 -3 11.22 0.89
-7 -13 3 10.42 0.83
-7 -13 3 9.79 0.87
7 -13 -3 11.33 0.8
7 13 -3 10.59 0.73
-7 13 3 10.88 0.88
5 -13 -3 18.26 1.08
-5 -13 3 19.05 1.04
5 -13 -3 19.51 1.01
-5 -13 3 17.45 1.01
5 13 -3 20.09 0.94
5 13 -3 20.11 1.16
-5 13 3 18.65 1.13
-3 -13 3 6.99 0.74
-3 -13 3 5.75 0.67
3 -13 -3 7.79 0.78
3 -13 -3 8.3 0.76
3 13 -3 6.77 0.63
-3 13 3 5.17 0.7
3 13 -3 7.53 0.57
-1 -13 3 0.77 0.37
1 -13 -3 0.4 0.31
-1 -13 3 1.08 0.36
1 -13 -3 1.81 0.45
-1 13 3 1.12 0.41
1 13 -3 0.65 0.28
1 13 -3 0.35 0.22
-1 -13 -3 -0.13 0.27
-1 -13 -3 0.35 0.33
1 -13 3 -0.49 0.3
1 -13 3 -0.17 0.21
-1 13 -3 0.15 0.22
-1 13 -3 -0.2 0.18
1 13 3 -0.04 0.32
-3 -13 -3 0.58 0.35
-3 -13 -3 0.51 0.34
3 -13 3 0.25 0.34
3 -13 3 0.17 0.26
3 13 3 -0.14 0.29
-3 13 -3 0.54 0.27
-3 13 -3 0.49 0.25
-5 -13 -3 4.23 0.59
-5 -13 -3 4.1 0.6
5 -13 3 4.73 0.64
5 -13 3 4.49 0.54
-5 13 -3 4.31 0.51
-5 13 -3 4.59 0.52
5 13 3 4.04 0.67
7 -13 3 10.42 0.95
-7 -13 -3 8.98 0.74
-7 -13 -3 10.28 0.82
7 13 3 8.31 0.94
-7 13 -3 10.85 0.69
7 13 3 11.01 0.91
-7 13 -3 10.9 0.69
-9 -13 -3 5.51 0.69
-9 -13 -3 6 0.67
9 -13 3 6.53 0.78
9 13 3 5.85 0.81
9 13 3 6.29 0.85
-9 13 -3 5.31 0.58
11 -13 3 4.59 0.74
-11 -13 -3 5.33 0.64
-11 -13 -3 4.68 0.63
11 13 3 6.39 0.85
-11 13 -3 5.73 0.6
11 13 3 5.58 0.81
13 -13 3 0.17 0.4
-13 -13 -3 0.37 0.31
-13 -13 -3 0 0.3
-13 13 -3 -0.05 0.27
13 13 3 -0.08 0.39
13 13 3 -0.32 0.39
-15 -13 -3 1.01 0.41
15 -13 3 0.61 0.47
-15 -13 -3 0.72 0.43
15 13 3 0.52 0.49
-15 13 -3 1.25 0.39
15 13 3 0.51 0.48
-17 -13 -3 4.74 0.67
17 -13 3 5.94 0.85
-17 -13 -3 4.35 0.67
17 13 3 4.29 0.87
-17 13 -3 5.31 0.66
17 13 3 5.09 0.88
-19 -13 -3 6.36 0.82
19 -13 3 5.62 0.86
-19 -13 -3 6.55 0.8
19 13 3 5.19 1
-19 13 -3 5.04 0.67
16 -14 -3 0.7 0.42
16 -14 -3 0.95 0.66
-16 -14 3 1.45 0.53
16 -14 -3 0.97 0.44
-16 14 3 1.16 0.49
16 14 -3 1.87 0.52
14 -14 -3 1.2 0.45
14 -14 -3 0.91 0.48
-14 -14 3 2.3 0.61
-14 14 3 0.99 0.47
14 14 -3 2 0.51
12 -14 -3 6.32 0.73
-12 -14 3 6.34 0.82
12 -14 -3 5.38 0.76
-12 14 3 5.55 0.78
12 14 -3 5.97 0.7
-10 -14 3 14.31 1.04
10 -14 -3 14.94 0.98
10 -14 -3 15.31 1.05
-10 14 3 14.79 1.07
10 14 -3 15.53 0.95
8 -14 -3 18.49 1.12
8 -14 -3 19.33 1.05
-8 -14 3 18.54 1.11
-8 14 3 16.28 1.12
8 14 -3 16.77 0.96
-6 -14 3 10.8 0.87
6 -14 -3 10.8 0.84
6 -14 -3 11.18 0.89
-6 14 3 10.69 1.04
6 14 -3 9.42 0.73
4 -14 -3 0.21 0.35
4 -14 -3 0.04 0.32
-4 -14 3 0.61 0.36
-4 -14 3 0.08 0.32
-4 14 3 0.44 0.36
4 14 -3 -0.27 0.23
-2 -14 3 3.56 0.57
2 -14 -3 3.88 0.6
-2 -14 3 3.86 0.64
2 -14 -3 4.98 0.69
2 14 -3 4.55 0.54
-2 14 3 4.83 0.72
2 14 -3 4.09 0.51
0 -14 3 8.08 0.84
0 -14 -3 7.86 0.81
0 -14 -3 8.48 0.79
0 -14 3 6.7 0.73
0 14 -3 7.82 0.63
0 14 3 5.88 0.8
0 14 -3 8.45 0.63
-2 -14 -3 19.7 1.06
2 -14 3 17.41 1.12
2 -14 3 17.77 0.98
-2 -14 -3 17.78 1.08
-2 14 -3 17.8 0.89
2 14 3 19.5 1.22
-2 14 -3 19.61 0.94
-4 -14 -3 25.91 1.27
4 -14 3 25.86 1.34
-4 -14 -3 24.43 1.2
4 -14 3 26.1 1.18
4 14 3 22.17 1.34
-4 14 -3 25.46 1.07
-4 14 -3 25.19 1.11
-6 -14 -3 3.4 0.59
-6 -14 -3 2.85 0.52
6 -14 3 1.85 0.5
-6 14 -3 1.89 0.41
6 14 3 1.82 0.57
8 -14 3 1.86 0.53
-8 -14 -3 1.87 0.48
-8 -14 -3 1.99 0.48
8 14 3 1.11 0.49
-8 14 -3 1.82 0.4
8 14 3 3.03 0.83
10 -14 3 4.68 0.72
-10 -14 -3 5.42 0.69
-10 -14 -3 6.18 0.72
-10 14 -3 5.87 0.63
10 14 3 5.77 0.85
10 14 3 5.33 0.84
-12 -14 -3 21.4 1.17
-12 -14 -3 18.55 1.15
12 -14 3 19.79 1.3
-12 14 -3 21.28 1.07
12 14 3 22.77 1.47
12 14 3 20.83 1.41
-14 -14 -3 12.22 0.97
14 -14 3 14.21 1.27
-14 -14 -3 13.12 0.95
14 14 3 12.08 1.3
14 14 3 10.07 1.12
-14 14 -3 13.01 0.88
16 -14 3 5.97 0.87
-16 -14 -3 6.16 0.77
-16 -14 -3 6.9 0.82
16 14 3 5 0.93
16 14 3 6.39 0.97
-16 14 -3 6.69 0.74
13 -15 -3 0.58 0.43
-13 -15 3 0.67 0.46
13 15 -3 1.74 0.52
-13 15 3 1.83 0.56
11 -15 -3 0.61 0.42
-11 -15 3 0.12 0.4
11 -15 -3 0.49 0.48
-11 15 3 0.26 0.43
11 15 -3 0.36 0.39
-9 -15 3 -0.48 0.32
9 -15 -3 0.31 0.4
9 -15 -3 0.4 0.45
-9 15 3 -0.32 0.37
9 15 -3 0.18 0.35
7 -15 -3 1.76 0.52
7 -15 -3 0.83 0.42
-7 -15 3 1.08 0.46
-7 15 3 1.16 0.5
7 15 -3 0.95 0.39
5 -15 -3 2.18 0.53
5 -15 -3 1.45 0.53
-5 -15 3 2.62 0.59
5 15 -3 1.54 0.4
-5 15 3 3.25 0.63
-3 -15 3 3.79 0.63
3 -15 -3 3.97 0.66
3 -15 -3 4.07 0.61
-3 15 3 4.03 0.71
3 15 -3 3.63 0.53
1 -15 -3 1.69 0.51
1 -15 -3 3.36 0.62
-1 -15 3 1.68 0.47
-1 -15 3 2.41 0.57
1 15 -3 1.39 0.38
1 15 -3 1.39 0.37
-1 15 3 1.34 0.49
1 -15 3 0.27 0.35
-1 -15 -3 0.32 0.38
-1 -15 -3 0.2 0.39
1 -15 3 0.66 0.43
-1 15 -3 0.43 0.29
1 15 3 0.91 0.47
-1 15 -3 0.5 0.32
3 -15 3 0.34 0.34
3 -15 3 0.83 0.46
-3 -15 -3 1.05 0.41
-3 -15 -3 0.24 0.36
3 15 3 0.02 0.43
-3 15 -3 0.42 0.31
-3 15 -3 0.97 0.38
-5 -15 -3 -0.23 0.35
5 -15 3 -0.29 0.38
-5 -15 -3 0.15 0.36
-5 15 -3 -0.17 0.24
5 15 3 0.29 0.42
7 -15 3 0.34 0.41
-7 -15 -3 0.19 0.4
-7 -15 -3 0.2 0.38
7 15 3 0.58 0.48
-7 15 -3 0.2 0.3
-9 -15 -3 5.23 0.69
-9 -15 -3 5.96 0.72
9 -15 3 5.8 0.8
9 15 3 5.03 0.84
-9 15 -3 5.23 0.63
11 -15 3 0.76 0.5
-11 -15 -3 0.99 0.46
-11 -15 -3 1.27 0.49
11 15 3 0.94 0.53
-11 15 -3 1.38 0.44
-13 -15 -3 0.33 0.41
13 -15 3 -0.26 0.47
-13 -15 -3 -0.22 0.38
13 15 3 0.17 0.55
13 15 3 -0.31 0.48
-13 15 -3 0.02 0.31
-8 -16 3 17.4 1.2
8 -16 -3 17.83 1.15
8 16 -3 17.58 1.07
-8 16 3 16.83 1.27
6 -16 -3 5.36 0.75
6 -16 -3 6.43 0.84
-6 -16 3 7.45 0.9
-6 16 3 6.57 0.91
6 16 -3 7.36 0.77
-4 -16 3 0.04 0.4
4 -16 -3 0.13 0.42
4 -16 -3 -0.07 0.43
4 16 -3 -0.37 0.3
-4 16 3 0.24 0.44
2 -16 -3 6.11 0.79
2 -16 -3 5.76 0.74
-2 -16 3 5.54 0.74
-2 16 3 5.77 0.86
2 16 -3 6.82 0.71
0 -16 -3 9.06 0.9
0 -16 -3 6.73 0.84
0 -16 3 8.21 0.88
0 16 -3 5.65 0.7
0 16 3 7.69 0.99
0 16 -3 6.93 0.73
2 -16 3 7.9 0.84
2 -16 3 5.64 1.02
-2 -16 -3 4.93 0.71
-2 -16 -3 5.63 0.76
2 16 3 5.27 0.88
-2 16 -3 5.61 0.69
-4 -16 -3 4.42 0.72
4 -16 3 4.73 0.79
-4 -16 -3 3.56 0.64
-4 16 -3 5.1 0.65
4 16 3 5.06 0.82
6 -16 3 0.18 0.47
-6 -16 -3 0.31 0.4
-6 -16 -3 0.29 0.41
6 16 3 0.34 0.54
-6 16 -3 0.22 0.36
8 -16 3 0.26 0.48
-8 -16 -3 -0.06 0.39
-8 -16 -3 -0.09 0.37
8 16 3 -0.43 0.45
-8 16 -3 0.05 0.3
-30 0 4 6.31 0.89
30 0 -4 6.42 0.69
28 0 -4 10.58 0.75
-28 0 4 7.03 0.89
-26 0 4 13.15 1.02
26 0 -4 12.7 0.77
-24 0 4 7.96 0.87
24 0 -4 8.88 0.63
-22 0 4 0.45 0.34
22 0 -4 0.19 0.23
-20 0 4 1.89 0.43
20 0 -4 1.37 0.3
20 0 -4 1.37 0.29
18 0 -4 0.53 0.19
18 0 -4 0.52 0.18
-18 0 4 0.24 0.25
16 0 -4 38.81 1.13
-16 0 4 39.02 1.43
16 0 -4 36.6 1.2
14 0 -4 30.16 1.05
-14 0 4 32.78 1.24
14 0 -4 33.54 0.97
-14 0 4 34.25 0.88
12 0 -4 52.23 1.33
12 0 -4 51.47 1.45
-12 0 4 52 1.27
-12 0 4 49.58 1.61
-10 0 4 2.91 0.32
-10 0 4 2.8 0.21
10 0 -4 2.46 0.24
-10 0 4 2.67 0.36
10 0 -4 2.77 0.3
8 0 -4 192.12 4.33
-8 0 4 192.6 4.21
8 0 -4 186.34 4.24
-8 0 4 185.51 4.36
-8 0 4 190.68 4.47
-6 0 4 272.07 6.28
-6 0 4 273.04 6.22
-6 0 4 284.53 6.12
6 0 -4 283.41 6.17
6 0 -4 282.06 6.19
-4 0 4 426.96 9.32
4 0 -4 424.5 9.24
4 0 -4 429.09 9.29
-4 0 4 436.48 9.24
-4 0 4 415.54 9.27
-4 0 4 425.55 9.34
2 0 -4 190.88 4.21
-2 0 4 184.59 4.35
-2 0 4 178.38 4.22
2 0 -4 187.3 4.3
-2 0 4 188.5 4.23
-2 0 4 181.6 4.24
0 0 4 5.22 0.32
0 0 4 5.78 0.43
0 0 4 5.91 0.36
0 0 -4 6.05 0.36
0 0 4 5.35 0.38
2 0 4 0.25 0.12
2 0 4 0.09 0.15
-2 0 -4 0.14 0.08
2 0 4 0.11 0.09
2 0 4 0.15 0.14
-2 0 -4 0.17 0.09
-2 0 -4 0.06 0.11
4 0 4 57.77 1.5
-4 0 -4 55.73 1.35
-4 0 -4 55.63 1.59
4 0 4 53.12 1.71
-4 0 -4 56.68 1.42
4 0 4 54.65 1.64
4 0 4 55.57 1.37
6 0 4 82.28 2.3
-6 0 -4 83.55 1.9
6 0 4 86.11 2.11
6 0 4 83.05 2.4
-6 0 -4 83.56 2.24
-6 0 -4 85.67 2.02
8 0 4 4.39 0.51
-8 0 -4 4.91 0.19
8 0 4 4.21 0.47
-8 0 -4 4.62 0.29
8 0 4 4.86 0.34
-8 0 -4 3.45 0.4
10 0 4 3.98 0.36
-10 0 -4 3.36 0.42
-10 0 -4 3.45 0.26
10 0 4 2.64 0.44
-12 0 -4 24.39 1.04
-12 0 -4 25.75 0.83
12 0 4 27.04 1.22
12 0 4 26.27 0.91
14 0 4 5.3 0.68
-14 0 -4 5.46 0.36
-14 0 -4 5.22 0.54
14 0 4 5.29 0.4
-16 0 -4 12.86 0.58
16 0 4 13.32 0.65
16 0 4 11.29 0.87
-16 0 -4 13.7 0.79
18 0 4 114.17 3.53
18 0 4 115.83 3.01
-18 0 -4 120.3 2.93
-18 0 -4 120.62 3.27
-20 0 -4 89.35 2.36
-20 0 -4 88.83 2.66
20 0 4 86.6 2.44
20 0 4 92.49 3.03
-22 0 -4 30.29 1.13
22 0 4 29.3 1.19
-22 0 -4 31.23 1.36
22 0 4 33.6 1.71
24 0 4 2.22 0.64
-24 0 -4 2.24 0.38
-24 0 -4 2.13 0.46
24 0 4 1.35 0.39
-26 0 -4 6.3 0.64
-26 0 -4 5.17 0.71
26 0 4 5.09 0.92
-28 0 -4 21.31 1.25
28 0 4 19.57 1.58
-28 0 -4 21.09 1.09
30 0 4 14.61 1.64
-30 0 -4 17.73 1.19
29 -1 -4 0 0.32
-29 -1 4 -0.14 0.44
-29 1 4 1.03 0.54
29 1 -4 0.53 0.34
-27 -1 4 0.04 0.39
27 -1 -4 0.14 0.27
-27 1 4 1.62 0.54
27 1 -4 0.4 0.28
25 -1 -4 1.65 0.37
-25 -1 4 1.83 0.52
25 1 -4 1.7 0.37
-25 1 4 1.52 0.48
-23 -1 4 2.81 0.54
23 -1 -4 3.42 0.44
23 1 -4 3.58 0.49
23 1 -4 3.22 0.43
-23 1 4 3.35 0.58
-21 -1 4 0.11 0.28
21 -1 -4 0.09 0.19
21 1 -4 -0.07 0.19
21 1 -4 -0.21 0.17
-21 1 4 0.29 0.29
-19 -1 4 2.35 0.47
19 -1 -4 2.05 0.33
19 -1 -4 1.83 0.29
19 1 -4 2.14 0.33
-19 1 4 2.06 0.42
19 1 -4 2.53 0.34
17 -1 -4 0.32 0.18
17 -1 -4 -0.01 0.12
-17 -1 4 0.17 0.22
17 1 -4 0.24 0.17
-17 1 4 -0.05 0.2
17 1 -4 0.16 0.17
15 -1 -4 4.09 0.29
-15 -1 4 3.88 0.5
15 -1 -4 4.19 0.4
15 1 -4 4.15 0.32
-15 1 4 4.11 0.28
15 1 -4 3.3 0.37
-15 1 4 2.52 0.4
13 -1 -4 1.08 0.22
13 -1 -4 1.69 0.2
-13 -1 4 1.24 0.28
-13 1 4 1.35 0.29
13 1 -4 1.8 0.23
-13 1 4 1.63 0.2
13 1 -4 1.35 0.23
11 -1 -4 10.38 0.5
-11 -1 4 10.67 0.61
11 -1 -4 10.43 0.4
-11 -1 4 9.87 0.53
11 1 -4 8.59 0.49
-11 1 4 11.21 0.45
-11 1 4 10.63 0.62
11 1 -4 11.14 0.46
-9 -1 4 1.19 0.22
-9 -1 4 1.22 0.24
9 -1 -4 1.12 0.16
9 -1 -4 1.05 0.19
9 1 -4 1.12 0.2
-9 1 4 1.19 0.18
-9 1 4 1.68 0.28
9 1 -4 1.08 0.18
7 -1 -4 0.24 0.11
-7 -1 4 0.31 0.16
-7 -1 4 0.18 0.1
-7 -1 4 0.19 0.14
7 -1 -4 0.17 0.11
7 1 -4 0.19 0.11
7 1 -4 0.29 0.13
7 1 -4 0.14 0.09
-7 1 4 0.28 0.12
-7 1 4 0.12 0.12
-7 1 4 -0.2 0.12
-5 -1 4 0.46 0.16
-5 -1 4 0.46 0.16
5 -1 -4 0.48 0.14
5 -1 -4 0.33 0.12
-5 -1 4 0.34 0.13
-5 1 4 0.26 0.13
-5 1 4 0.25 0.14
5 1 -4 0.22 0.1
-5 1 4 0.13 0.14
-5 1 4 0.42 0.14
5 1 -4 0.28 0.13
5 1 -4 0.2 0.12
-3 -1 4 3.94 0.31
-3 -1 4 4.57 0.33
3 -1 -4 4.1 0.28
-3 -1 4 3.65 0.38
3 -1 -4 5.03 0.34
-3 -1 4 4.07 0.32
-3 1 4 3.96 0.3
-3 1 4 4.01 0.37
3 1 -4 3.94 0.28
-3 1 4 4.8 0.34
-3 1 4 3.85 0.34
3 1 -4 4.11 0.33
-1 -1 4 2.23 0.33
-1 -1 4 2.54 0.3
-1 -1 4 2.19 0.25
-1 -1 4 2.18 0.28
1 -1 -4 2.46 0.24
1 1 -4 2.48 0.3
-1 1 4 2.64 0.26
-1 1 4 2.72 0.31
-1 1 4 2.69 0.29
1 1 -4 1.97 0.25
-1 1 4 2.26 0.31
-1 -1 -4 0.25 0.13
1 -1 4 0.25 0.1
-1 -1 -4 0.55 0.14
1 -1 4 0.4 0.18
1 -1 4 0.06 0.12
1 -1 4 0.21 0.12
-1 -1 -4 0.21 0.09
-1 1 -4 0.31 0.15
1 1 4 0.38 0.17
-1 1 -4 0.33 0.1
-1 1 -4 0.29 0.11
1 1 4 0.34 0.12
1 1 4 0.24 0.14
1 1 4 0.24 0.11
3 -1 4 13.4 0.64
3 -1 4 14.07 0.59
-3 -1 -4 13.71 0.49
-3 -1 -4 14.43 0.54
-3 -1 -4 13.4 0.62
3 -1 4 14.25 0.72
3 -1 4 13.27 0.47
-3 1 -4 14.08 0.47
3 1 4 13.76 0.51
3 1 4 13.58 0.53
-3 1 -4 14.26 0.61
3 1 4 13.94 0.7
3 1 4 12.93 0.65
-5 -1 -4 14.17 0.66
5 -1 4 13.93 0.44
5 -1 4 14.06 0.75
-5 -1 -4 14.41 0.55
5 -1 4 13.49 0.58
-5 -1 -4 13.94 0.46
5 1 4 12.48 0.67
-5 1 -4 14.13 0.43
-5 1 -4 14.62 0.65
5 1 4 14.31 0.74
-5 1 -4 13.72 0.47
5 1 4 13.38 0.53
-7 -1 -4 2.44 0.17
-7 -1 -4 2.69 0.35
7 -1 4 2.94 0.32
-7 -1 -4 3.04 0.28
7 -1 4 2.51 0.41
7 1 4 2.36 0.25
-7 1 -4 2.5 0.19
7 1 4 3.35 0.42
-7 1 -4 2.35 0.12
7 1 4 1.73 0.33
-7 1 -4 2.69 0.35
-9 -1 -4 2 0.15
9 -1 4 2.42 0.3
9 -1 4 2.13 0.38
-9 -1 -4 2.58 0.36
-9 -1 -4 2.05 0.24
9 1 4 2.39 0.26
-9 1 -4 2.17 0.21
9 1 4 1.9 0.35
-9 1 -4 2.41 0.35
9 1 4 1.58 0.34
-11 -1 -4 6.82 0.27
11 -1 4 6.61 0.67
11 -1 4 6.31 0.42
-11 -1 -4 6.05 0.37
-11 -1 -4 6.61 0.5
11 1 4 5.92 0.37
-11 1 -4 7 0.51
-11 1 -4 6.37 0.33
11 1 4 7.41 0.57
11 1 4 5.82 0.64
13 -1 4 0.72 0.21
-13 -1 -4 0.99 0.2
-13 -1 -4 0.89 0.13
13 -1 4 0.86 0.31
-13 -1 -4 0.38 0.21
-13 1 -4 0.92 0.17
13 1 4 1.1 0.22
-13 1 -4 1.2 0.29
13 1 4 0.86 0.29
13 1 4 0.64 0.29
-15 -1 -4 1.31 0.33
15 -1 4 1.17 0.38
15 -1 4 0.59 0.21
-15 -1 -4 1.35 0.23
-15 1 -4 1.27 0.31
15 1 4 1.42 0.26
-15 1 -4 0.92 0.18
15 1 4 0.28 0.28
17 -1 4 3.42 0.42
-17 -1 -4 3.05 0.36
-17 -1 -4 2.7 0.43
17 -1 4 1.99 0.48
-17 1 -4 3.34 0.35
17 1 4 3.07 0.36
-17 1 -4 2.79 0.45
17 1 4 3.03 0.56
19 -1 4 8.45 0.95
-19 -1 -4 7.73 0.76
19 -1 4 8.37 0.6
-19 -1 -4 8.2 0.53
-19 1 -4 8.57 0.78
19 1 4 7 0.88
19 1 4 7.46 0.53
-19 1 -4 8.79 0.51
-21 -1 -4 6.68 0.52
21 -1 4 6.31 0.63
-21 -1 -4 6.6 0.72
21 -1 4 7.11 0.95
21 1 4 7.6 0.99
-21 1 -4 6.31 0.68
-21 1 -4 6.65 0.5
21 1 4 6.65 0.53
-23 -1 -4 1.39 0.43
23 -1 4 1.66 0.41
23 -1 4 1.58 0.56
-23 -1 -4 0.83 0.28
-23 1 -4 1.17 0.38
23 1 4 0.54 0.48
-23 1 -4 1.49 0.33
-25 -1 -4 0.19 0.3
-25 -1 -4 0.3 0.26
25 -1 4 -0.19 0.25
25 -1 4 -0.45 0.39
25 1 4 0.16 0.41
-25 1 -4 -0.14 0.29
-25 1 -4 0 0.24
-27 -1 -4 0.38 0.36
-27 -1 -4 -0.12 0.28
27 -1 4 0.24 0.52
-27 1 -4 0.66 0.38
27 1 4 0.26 0.5
29 -1 4 -0.27 0.49
-29 -1 -4 0.28 0.41
-29 -1 -4 -0.17 0.33
-29 1 -4 0.57 0.43
29 1 4 0.46 0.59
-30 -2 4 4.57 0.85
30 -2 -4 3.8 0.57
-30 2 4 3.69 0.72
30 2 -4 4.67 0.6
-28 -2 4 8.36 1.02
28 -2 -4 9.81 0.76
-28 2 4 10.29 1.04
28 2 -4 11.03 0.76
26 -2 -4 4.28 0.53
-26 -2 4 4.17 0.7
26 2 -4 3.78 0.49
-26 2 4 3.36 0.67
-24 -2 4 1.37 0.42
24 -2 -4 2.22 0.39
-24 -2 4 2.25 0.5
24 2 -4 1.77 0.41
-24 2 4 1.75 0.47
24 2 -4 1.95 0.37
-22 -2 4 0.9 0.34
-22 -2 4 0.54 0.34
22 -2 -4 0.8 0.26
-22 2 4 0.23 0.3
22 2 -4 0.67 0.26
22 2 -4 0.3 0.25
20 -2 -4 0.18 0.2
-20 -2 4 -0.16 0.24
-20 -2 4 0.04 0.23
-20 2 4 0.13 0.24
20 2 -4 -0.03 0.17
20 2 -4 0.15 0.2
18 -2 -4 3.85 0.41
-18 -2 4 3.84 0.52
-18 -2 4 4.23 0.51
18 2 -4 3.79 0.4
18 2 -4 4.19 0.43
-18 2 4 4.07 0.54
-16 -2 4 10.56 0.7
-16 -2 4 9.6 0.63
16 -2 -4 10.06 0.54
16 -2 -4 9.98 0.45
16 2 -4 9.49 0.56
-16 2 4 10.54 0.71
-16 2 4 11.05 0.5
16 2 -4 9.53 0.51
14 -2 -4 13.52 0.6
14 -2 -4 13.95 0.5
-14 -2 4 13.33 0.76
-14 -2 4 15.34 0.73
14 2 -4 14.01 0.65
-14 2 4 12.94 0.74
14 2 -4 15.27 0.61
-14 2 4 14.13 0.57
-12 -2 4 8.14 0.56
12 -2 -4 8.35 0.44
12 -2 -4 7.98 0.33
-12 -2 4 7.52 0.49
12 2 -4 8.69 0.43
-12 2 4 7.87 0.55
-12 2 4 8.62 0.42
12 2 -4 7.54 0.46
-10 -2 4 36.42 1.26
10 -2 -4 37.6 1.11
-10 -2 4 36.78 1.22
10 -2 -4 38.42 0.96
10 2 -4 36.99 1.17
-10 2 4 39.81 1.11
10 2 -4 36.65 1.09
-10 2 4 39.3 1.31
8 -2 -4 30.82 0.86
8 -2 -4 31.1 0.95
-8 -2 4 31.75 1.07
-8 -2 4 33.11 1.11
8 2 -4 32.01 1.04
-8 2 4 32.34 0.98
8 2 -4 33.17 0.99
-8 2 4 31.47 1.11
6 -2 -4 133.19 3.12
6 -2 -4 135.95 3.15
-6 -2 4 131.92 3.29
-6 -2 4 138.06 3.31
-6 2 4 140.4 3.23
-6 2 4 133.69 3.33
6 2 -4 137.94 3.25
6 2 -4 139.81 3.03
6 2 -4 140.04 3.26
-4 -2 4 71.32 1.87
4 -2 -4 70.27 1.8
-4 -2 4 71.36 1.91
4 -2 -4 73.1 1.77
-4 2 4 68.12 1.78
4 2 -4 71.55 1.9
-4 2 4 72.83 1.87
4 2 -4 72.23 1.71
-4 2 4 71.62 1.85
-4 2 4 69.39 1.89
2 -2 -4 62.95 1.62
-2 -2 4 59.49 1.61
-2 -2 4 61.72 1.69
2 -2 -4 61.52 1.54
-2 -2 4 57.91 1.75
-2 2 4 61.08 1.68
-2 2 4 61.15 1.57
-2 2 4 62.66 1.69
2 2 -4 62.47 1.56
-2 2 4 61.75 1.66
2 2 -4 60.45 1.72
0 -2 4 3.59 0.36
0 -2 4 3.55 0.26
0 -2 -4 3.15 0.23
0 -2 -4 3.3 0.26
0 -2 4 2.7 0.36
0 -2 -4 3.85 0.29
0 2 -4 3.87 0.28
0 2 4 3.17 0.35
0 2 4 3.69 0.39
0 2 -4 3.64 0.38
0 2 4 3.66 0.25
0 2 4 3.41 0.28
2 -2 4 11.34 0.54
2 -2 4 11.97 0.44
-2 -2 -4 11.02 0.46
-2 -2 -4 11.56 0.5
2 -2 4 11.11 0.64
-2 2 -4 12.13 0.53
2 2 4 10.59 0.6
2 2 4 11.53 0.49
-2 2 -4 11.69 0.62
2 2 4 11.22 0.45
-2 2 -4 11.82 0.39
2 2 4 10.1 0.57
-4 -2 -4 68.56 1.66
-4 -2 -4 67.87 1.75
4 -2 4 66.64 1.59
4 -2 4 66.48 1.81
4 -2 4 64.94 2
4 2 4 63.06 1.91
-4 2 -4 69.57 1.57
4 2 4 68.57 1.67
4 2 4 66.71 1.97
-4 2 -4 70.03 1.83
-6 -2 -4 10.51 0.49
6 -2 4 11.54 0.55
-6 -2 -4 10.19 0.59
6 -2 4 10.63 0.33
6 -2 4 10.4 0.67
-6 -2 -4 10.38 0.4
-6 2 -4 10.59 0.36
-6 2 -4 10.17 0.31
-6 2 -4 10.7 0.55
6 2 4 11.35 0.65
6 2 4 9.58 0.63
6 2 4 11.51 0.44
8 -2 4 22 0.83
8 -2 4 22.73 1.04
-8 -2 -4 22.04 0.65
-8 -2 -4 21.39 0.76
-8 -2 -4 20.47 0.89
-8 2 -4 21.16 0.61
8 2 4 21.48 0.96
8 2 4 22.46 0.7
8 2 4 20.47 0.98
-8 2 -4 21.74 0.88
10 -2 4 12.04 0.78
-10 -2 -4 10.28 0.63
-10 -2 -4 11.14 0.52
-10 -2 -4 12.03 0.42
10 -2 4 11.3 0.59
-10 2 -4 11.51 0.63
10 2 4 10.15 0.72
10 2 4 11.32 0.47
-10 2 -4 11.18 0.41
10 2 4 12.01 0.72
12 -2 4 1.16 0.25
-12 -2 -4 1.85 0.35
-12 -2 -4 1.3 0.23
-12 -2 -4 1.52 0.17
12 -2 4 1.05 0.33
-12 2 -4 1.38 0.18
12 2 4 1.79 0.41
-12 2 -4 1.47 0.31
12 2 4 1.4 0.33
12 2 4 1.46 0.22
-14 -2 -4 16.29 0.69
14 -2 4 16.58 0.78
-14 -2 -4 16.93 0.88
14 -2 4 16.02 0.99
-14 -2 -4 16.71 0.57
-14 2 -4 18.36 0.86
14 2 4 16.82 0.94
14 2 4 16.01 0.99
14 2 4 18.28 0.68
-14 2 -4 17.45 0.62
16 -2 4 10.98 0.86
16 -2 4 11.16 0.64
-16 -2 -4 9.96 0.7
-16 -2 -4 9.61 0.54
16 2 4 10.98 0.87
-16 2 -4 9.66 0.66
16 2 4 10.97 0.54
16 2 4 9.19 0.85
-16 2 -4 9.38 0.47
-18 -2 -4 14.63 0.88
-18 -2 -4 14.4 0.7
18 -2 4 16.19 0.82
18 -2 4 14.45 1.03
-18 2 -4 14.12 0.63
-18 2 -4 13.21 0.81
18 2 4 13.45 1.03
18 2 4 14.72 0.67
-20 -2 -4 36.89 1.48
20 -2 4 32.41 1.64
-20 -2 -4 36.26 1.24
20 -2 4 34.03 1.33
-20 2 -4 34.78 1.17
-20 2 -4 36.41 1.43
20 2 4 37.06 1.75
22 -2 4 12.25 1.24
22 -2 4 9.25 0.71
-22 -2 -4 11.17 0.68
-22 -2 -4 9.9 0.81
-22 2 -4 10.81 0.63
-22 2 -4 9.92 0.77
22 2 4 10.12 1.14
24 -2 4 -0.27 0.38
24 -2 4 0.16 0.28
-24 -2 -4 0.21 0.32
-24 -2 -4 0.04 0.24
-24 2 -4 -0.02 0.27
24 2 4 -0.09 0.38
26 -2 4 6.96 1.06
-26 -2 -4 5.72 0.64
26 -2 4 5.83 0.73
-26 -2 -4 6.72 0.81
26 2 4 5.46 0.96
-26 2 -4 4.02 0.61
-28 -2 -4 10.22 0.8
-28 -2 -4 6.94 0.85
28 -2 4 8.21 1.2
28 -2 4 8.33 0.92
-28 2 -4 8.89 0.88
28 2 4 9.84 1.36
30 -2 4 9.62 1.33
-30 -2 -4 14.04 1.2
-30 -2 -4 12.23 0.97
30 2 4 13.03 1.51
-30 2 -4 12.83 1.01
-29 -3 4 1.87 0.55
29 -3 -4 3.09 0.5
-29 -3 4 2.41 0.67
29 3 -4 3.57 0.52
-29 3 4 2.15 0.65
-27 -3 4 0.17 0.36
27 -3 -4 0.75 0.35
-27 -3 4 0.11 0.43
27 3 -4 0.21 0.29
-27 3 4 -0.27 0.38
27 3 -4 -0.05 0.34
-25 -3 4 6.98 0.83
25 -3 -4 6.55 0.64
-25 -3 4 6.44 0.76
-25 3 4 7.19 0.85
25 3 -4 5.9 0.6
25 3 -4 6.28 0.72
23 -3 -4 19.57 0.91
-23 -3 4 19.2 1.08
-23 -3 4 19.32 1.16
23 3 -4 21.17 1.03
23 3 -4 18.49 0.89
-23 3 4 21.46 1.17
-21 -3 4 18.59 1
21 -3 -4 17.99 0.83
-21 -3 4 18.98 1.08
-21 3 4 18.01 1.03
21 3 -4 19.39 0.86
21 3 -4 20.15 0.92
-19 -3 4 6.06 0.7
-19 -3 4 7.48 0.68
19 -3 -4 6.82 0.49
-19 3 4 7.06 0.72
19 3 -4 7.09 0.52
19 3 -4 7.44 0.54
-17 -3 4 0.6 0.28
17 -3 -4 0.8 0.22
-17 -3 4 0.5 0.24
-17 3 4 0.47 0.19
-17 3 4 0.18 0.24
17 3 -4 0.42 0.19
17 3 -4 0.11 0.17
-15 -3 4 10.83 0.7
15 -3 -4 10.93 0.54
-15 -3 4 11.42 0.63
-15 -3 4 11.5 0.65
-15 3 4 12.46 0.56
15 3 -4 10.93 0.55
-15 3 4 9.13 0.68
15 3 -4 10.06 0.57
-13 -3 4 17.32 0.79
-13 -3 4 17.25 0.86
-13 -3 4 19.85 0.81
13 -3 -4 18.97 0.55
13 -3 -4 18.25 0.71
13 3 -4 18.61 0.71
-13 3 4 17.58 0.7
-13 3 4 18.3 0.89
13 3 -4 19.05 0.78
-11 -3 4 15 0.71
11 -3 -4 14.14 0.43
-11 -3 4 13.8 0.73
11 -3 -4 14.65 0.59
-11 -3 4 15.36 0.67
11 3 -4 13.83 0.59
11 3 -4 14.69 0.67
-11 3 4 15.78 0.63
-11 3 4 13.63 0.73
9 -3 -4 89.64 2.01
-9 -3 4 88.03 2.39
-9 -3 4 89.2 2.36
-9 -3 4 90.3 2.27
9 -3 -4 90.49 2.19
9 3 -4 87.12 2.31
-9 3 4 94.11 2.27
9 3 -4 90.7 2.25
-9 3 4 87.86 2.41
-7 -3 4 5.27 0.41
7 -3 -4 5.84 0.33
-7 -3 4 5.27 0.4
7 -3 -4 5.03 0.39
7 -3 -4 5.19 0.26
7 3 -4 5.24 0.2
7 3 -4 5.57 0.39
7 3 -4 5.62 0.37
-7 3 4 6.13 0.44
-7 3 4 5.32 0.37
-5 -3 4 26.11 0.94
-5 -3 4 25.33 0.9
5 -3 -4 24.67 0.78
5 -3 -4 28.44 0.93
5 -3 -4 25.27 0.78
5 3 -4 25.42 0.7
-5 3 4 25.67 0.89
-5 3 4 25.34 0.94
5 3 -4 26.72 0.91
-5 3 4 26.07 0.82
3 -3 -4 13.7 0.6
-3 -3 4 14.76 0.66
-3 -3 4 13.32 0.58
3 -3 -4 14.58 0.51
3 3 -4 15.07 0.66
-3 3 4 15.12 0.61
3 3 -4 14.42 0.5
-3 3 4 13.96 0.63
-3 3 4 14.34 0.64
1 -3 -4 22.03 0.66
-1 -3 4 20.96 0.83
1 -3 -4 22.63 0.77
-1 -3 4 22.12 0.92
1 -3 -4 21.62 0.79
-1 -3 4 22.02 0.75
-1 3 4 24.41 0.88
-1 3 4 22.11 0.8
-1 3 4 21.8 0.83
-1 3 4 22.61 0.69
1 3 -4 22.31 0.72
1 3 -4 22.05 0.87
-1 -3 -4 24.05 0.79
1 -3 4 25.57 0.91
1 -3 4 23.46 0.98
-1 -3 -4 23.97 0.7
-1 -3 -4 23.99 0.84
1 -3 4 23.76 0.75
1 3 4 24.9 0.94
1 3 4 24.23 0.72
-1 3 -4 24.91 0.64
1 3 4 25.33 0.94
-1 3 -4 24.03 0.95
1 3 4 25.23 0.83
-1 3 -4 24.06 0.8
-3 -3 -4 37.94 1.06
3 -3 4 37.51 1
-3 -3 -4 37.4 1.14
3 -3 4 36.62 1.19
3 -3 4 38.71 1.35
-3 -3 -4 37.02 0.96
-3 3 -4 37.83 1.13
3 3 4 37.08 1.28
3 3 4 34.96 1.25
-3 3 -4 37.96 1.29
3 3 4 37.04 0.98
-5 -3 -4 0.52 0.13
5 -3 4 0.58 0.18
5 -3 4 0.95 0.26
-5 -3 -4 0.55 0.17
5 -3 4 0.64 0.1
-5 3 -4 0.63 0.17
5 3 4 0.65 0.22
-5 3 -4 0.66 0.08
5 3 4 0.62 0.12
5 3 4 0.65 0.22
-5 3 -4 0.35 0.19
7 -3 4 0.34 0.17
-7 -3 -4 0.57 0.17
-7 -3 -4 0.32 0.18
7 -3 4 0.47 0.22
-7 -3 -4 0.37 0.12
-7 3 -4 0.31 0.07
7 3 4 0.35 0.1
-7 3 -4 0.39 0.16
7 3 4 -0.11 0.14
7 3 4 0.24 0.2
-9 -3 -4 15.41 0.79
-9 -3 -4 16.17 0.56
9 -3 4 16.47 0.73
-9 -3 -4 16.24 0.67
9 -3 4 16.23 0.9
9 3 4 17.07 0.55
9 3 4 15.82 0.87
-9 3 -4 15.95 0.73
-9 3 -4 16.21 0.48
9 3 4 14.46 0.82
-11 -3 -4 37.63 1.19
11 -3 4 38.58 1.52
-11 -3 -4 37.75 1.04
11 -3 4 37.41 1.27
-11 -3 -4 38.76 1.39
11 3 4 39.27 1.04
11 3 4 39.69 1.47
-11 3 -4 38.85 0.99
11 3 4 37.78 1.5
-11 3 -4 35.15 1.27
-13 -3 -4 47.53 1.64
-13 -3 -4 48.68 1.28
-13 -3 -4 49.55 1.45
13 -3 4 47.88 1.81
13 -3 4 48.98 1.55
13 3 4 48.85 1.74
-13 3 -4 49.28 1.26
-13 3 -4 46.65 1.56
13 3 4 50.33 1.85
13 3 4 48.57 1.3
-15 -3 -4 3.15 0.49
15 -3 4 3.14 0.42
-15 -3 -4 3.05 0.3
-15 -3 -4 2.62 0.34
15 -3 4 3.56 0.6
-15 3 -4 2.95 0.42
-15 3 -4 3.18 0.3
15 3 4 3.29 0.53
15 3 4 2.83 0.54
15 3 4 3.09 0.31
-17 -3 -4 3.19 0.51
17 -3 4 2.66 0.55
-17 -3 -4 2.74 0.36
17 -3 4 3.07 0.44
17 3 4 3.15 0.52
-17 3 -4 2.97 0.45
17 3 4 3.03 0.6
-17 3 -4 3.05 0.32
19 -3 4 0.18 0.23
-19 -3 -4 -0.19 0.23
-19 -3 -4 -0.11 0.16
19 -3 4 -0.04 0.31
-19 3 -4 0 0.22
19 3 4 0.63 0.37
-19 3 -4 0.34 0.19
21 -3 4 14.32 0.87
-21 -3 -4 16.05 0.81
21 -3 4 15.4 1.15
-21 -3 -4 15.78 0.99
-21 3 -4 15.18 0.9
21 3 4 15.61 1.18
23 -3 4 16.36 1.23
-23 -3 -4 14.55 0.81
23 -3 4 13.14 0.89
-23 -3 -4 13.52 0.97
-23 3 -4 15.9 0.95
23 3 4 14.6 1.25
-25 -3 -4 11.45 1.03
25 -3 4 10.66 0.97
-25 -3 -4 9.97 0.74
25 -3 4 9.68 1.16
-25 3 -4 10.84 0.85
25 3 4 11.27 1.3
27 -3 4 0.11 0.38
-27 -3 -4 0.19 0.42
-27 -3 -4 0.36 0.3
27 -3 4 0.99 0.58
-27 3 -4 0.55 0.35
27 3 4 0.12 0.56
-29 -3 -4 0.08 0.33
29 -3 4 0.41 0.62
29 -3 4 -0.17 0.38
-29 -3 -4 0.06 0.41
29 3 4 -0.32 0.57
-29 3 -4 -0.33 0.35
-30 -4 4 2.48 0.7
30 -4 -4 1.8 0.49
-30 -4 4 1.97 0.61
30 -4 -4 1.99 0.6
30 4 -4 1.95 0.46
-30 4 4 1.62 0.63
28 -4 -4 2.07 0.45
-28 -4 4 2.57 0.61
28 -4 -4 1.65 0.54
-28 -4 4 1.55 0.57
28 4 -4 2.24 0.44
-28 4 4 1.49 0.57
28 4 -4 2 0.55
-26 -4 4 2.04 0.55
26 -4 -4 0.89 0.34
-26 -4 4 1.46 0.45
26 4 -4 1.47 0.46
-26 4 4 1.43 0.51
26 4 -4 1.17 0.35
-24 -4 4 0.29 0.32
24 -4 -4 0.12 0.25
-24 -4 4 0.42 0.41
24 4 -4 0.17 0.24
-24 4 4 0.5 0.37
24 4 -4 0.18 0.3
-22 -4 4 0.35 0.29
-22 -4 4 0.56 0.35
22 -4 -4 0.57 0.25
22 4 -4 0.37 0.28
22 4 -4 0.61 0.25
-22 4 4 0.63 0.35
-20 -4 4 0.17 0.29
-20 -4 4 0.14 0.24
20 -4 -4 0.32 0.22
20 4 -4 -0.06 0.2
-20 4 4 0.06 0.25
20 4 -4 -0.07 0.2
18 -4 -4 -0.16 0.15
-18 -4 4 0.27 0.23
-18 -4 4 0.04 0.24
-18 4 4 -0.07 0.16
-18 4 4 0.24 0.24
18 4 -4 0.23 0.19
18 4 -4 0.19 0.19
-16 -4 4 7.31 0.55
-16 -4 4 8.86 0.66
16 -4 -4 8.99 0.51
-16 -4 4 9.34 0.61
-16 4 4 7.52 0.63
16 4 -4 8.37 0.54
-16 4 4 7.54 0.5
16 4 -4 8.72 0.53
14 -4 -4 7.06 0.56
-14 -4 4 6.8 0.5
14 -4 -4 6.82 0.44
-14 -4 4 7.07 0.59
-14 -4 4 6.77 0.51
14 4 -4 6.83 0.45
-14 4 4 7.51 0.68
14 4 -4 7.52 0.5
-14 4 4 5.93 0.44
-12 -4 4 1.58 0.29
-12 -4 4 1.14 0.24
-12 -4 4 1.86 0.33
12 -4 -4 1.24 0.2
-12 4 4 0.64 0.19
12 4 -4 1.52 0.26
12 4 -4 0.87 0.19
10 -4 -4 6.15 0.35
-10 -4 4 5.41 0.38
-10 -4 4 4.26 0.45
-10 -4 4 5.02 0.51
10 -4 -4 4.69 0.46
-10 4 4 5.19 0.51
-10 4 4 5.13 0.4
10 4 -4 5.04 0.37
10 4 -4 4.95 0.45
-8 -4 4 -0.15 0.13
8 -4 -4 -0.04 0.12
-8 -4 4 0.08 0.11
8 -4 -4 0 0.09
-8 -4 4 -0.11 0.12
8 4 -4 0.03 0.12
8 4 -4 0.09 0.13
-8 4 4 -0.02 0.14
-8 4 4 -0.01 0.13
-6 -4 4 8.58 0.4
6 -4 -4 8.31 0.49
-6 -4 4 8.22 0.5
6 -4 -4 7.76 0.36
-6 -4 4 7.94 0.49
6 -4 -4 7.36 0.33
6 4 -4 8.08 0.46
-6 4 4 7.72 0.5
6 4 -4 7.76 0.28
-6 4 4 7.67 0.35
-6 4 4 8.05 0.48
4 -4 -4 31.73 1.03
-4 -4 4 31.46 1.09
-4 -4 4 30.6 1.02
4 -4 -4 30.98 0.87
4 4 -4 29.89 0.82
4 4 -4 31.98 1.07
-4 4 4 30.25 1.05
-4 4 4 29.46 1.04
-4 4 4 31.9 0.95
2 -4 -4 8.89 0.36
2 -4 -4 8.94 0.48
-2 -4 4 9.46 0.54
-2 -4 4 9.38 0.47
2 -4 -4 8.68 0.49
-2 4 4 9.14 0.53
-2 4 4 8.97 0.48
2 4 -4 9.35 0.53
2 4 -4 9.35 0.39
-2 4 4 8.58 0.49
0 -4 -4 0.08 0.13
0 -4 4 0.05 0.14
0 -4 4 0.11 0.1
0 -4 -4 0.08 0.07
0 -4 4 0.05 0.12
0 -4 -4 -0.01 0.09
0 4 -4 0.06 0.13
0 4 4 0.04 0.12
0 4 4 0.21 0.13
0 4 -4 0 0.08
0 4 4 0.12 0.15
2 -4 4 11.06 0.67
2 -4 4 12.11 0.48
-2 -4 -4 12.33 0.58
-2 -4 -4 11.74 0.51
-2 -4 -4 11.98 0.39
2 -4 4 11.1 0.59
-2 4 -4 11.67 0.52
2 4 4 12.34 0.64
-2 4 -4 12 0.65
2 4 4 11.88 0.65
-4 -4 -4 2.82 0.17
-4 -4 -4 2.22 0.25
-4 -4 -4 2.63 0.3
4 -4 4 3.03 0.41
4 -4 4 2.28 0.33
4 -4 4 3.27 0.22
4 4 4 2.79 0.37
4 4 4 2.69 0.37
4 4 4 3.62 0.19
-6 -4 -4 0.18 0.07
6 -4 4 0.31 0.17
-6 -4 -4 0.23 0.14
-6 -4 -4 -0.07 0.09
6 -4 4 -0.06 0.16
6 -4 4 0.13 0.07
-6 4 -4 0.1 0.17
-6 4 -4 0.02 0.12
6 4 4 0.48 0.22
6 4 4 0.19 0.18
6 4 4 0.05 0.06
-8 -4 -4 0.16 0.11
-8 -4 -4 0.35 0.16
8 -4 4 0.05 0.2
8 -4 4 0.07 0.15
8 4 4 0.26 0.21
8 4 4 0.35 0.21
-8 4 -4 0.23 0.16
-10 -4 -4 3.04 0.29
10 -4 4 3.32 0.51
10 -4 4 3.01 0.39
-10 -4 -4 3.24 0.37
-10 -4 -4 3.28 0.46
-10 4 -4 3.34 0.4
-10 4 -4 3.16 0.19
10 4 4 2.44 0.45
10 4 4 3.44 0.5
-12 -4 -4 0.45 0.14
12 -4 4 0.25 0.19
-12 -4 -4 0.8 0.27
-12 -4 -4 0.61 0.2
12 -4 4 0.73 0.3
12 4 4 0.68 0.31
-12 4 -4 0.59 0.12
-12 4 -4 1.09 0.26
12 4 4 0.86 0.3
12 4 4 0.61 0.15
-14 -4 -4 1.42 0.27
14 -4 4 1.19 0.37
-14 -4 -4 1.81 0.25
14 -4 4 1.62 0.35
-14 -4 -4 1.5 0.37
14 4 4 1.23 0.4
-14 4 -4 1.89 0.35
14 4 4 1.54 0.4
-14 4 -4 1.61 0.21
16 -4 4 5.1 0.55
-16 -4 -4 5.38 0.5
16 -4 4 4.67 0.69
-16 -4 -4 5.58 0.39
-16 -4 -4 5.45 0.65
16 4 4 4.12 0.62
-16 4 -4 5.2 0.55
16 4 4 5.77 0.8
18 -4 4 6.98 0.87
18 -4 4 7.12 0.69
-18 -4 -4 6.44 0.57
-18 -4 -4 7.66 0.77
18 4 4 6.89 0.89
-18 4 -4 5.52 0.59
18 4 4 7.75 0.83
-20 -4 -4 3.57 0.56
-20 -4 -4 3.64 0.46
20 -4 4 2.85 0.6
20 -4 4 2.68 0.46
-20 4 -4 3.17 0.5
20 4 4 3.37 0.7
20 4 4 2.66 0.55
22 -4 4 3.86 0.74
-22 -4 -4 2.94 0.55
-22 -4 -4 4.08 0.53
22 -4 4 2.69 0.51
22 4 4 3.03 0.72
-22 4 -4 2.83 0.5
-24 -4 -4 0.73 0.32
24 -4 4 -0.04 0.42
24 -4 4 0.01 0.32
-24 -4 -4 -0.27 0.3
-24 4 -4 0.31 0.31
24 4 4 0.57 0.5
-26 -4 -4 -0.02 0.38
26 -4 4 0.05 0.37
26 -4 4 0.46 0.53
-26 -4 -4 0.36 0.32
-26 4 -4 0.74 0.38
26 4 4 0.64 0.57
28 -4 4 4.63 0.75
-28 -4 -4 5.9 0.7
28 -4 4 6.11 1.07
-28 -4 -4 5.36 0.8
-28 4 -4 6.66 0.8
28 4 4 6.32 1.12
29 -5 -4 0.99 0.43
-29 -5 4 1.17 0.56
29 -5 -4 1.02 0.5
-29 -5 4 1.28 0.52
29 5 -4 1.58 0.41
29 5 -4 1.3 0.54
-29 5 4 1.85 0.6
-27 -5 4 0.65 0.48
27 -5 -4 2.77 0.57
27 -5 -4 2 0.45
-27 -5 4 1.59 0.51
27 5 -4 2.78 0.6
27 5 -4 1.56 0.39
-27 5 4 1.9 0.56
25 -5 -4 11.11 0.76
25 -5 -4 8.77 0.88
-25 -5 4 11.69 0.91
-25 -5 4 9.27 0.99
25 5 -4 9.67 0.82
-25 5 4 8.51 0.91
25 5 -4 9.81 0.69
23 -5 -4 20.22 1.11
-23 -5 4 18.87 1.15
23 -5 -4 19.28 0.94
-23 -5 4 20.04 1.11
23 5 -4 21.04 1.07
23 5 -4 19.72 0.92
-23 5 4 18.26 1.12
-21 -5 4 19.04 1.03
21 -5 -4 20.02 0.91
-21 -5 4 19.61 1.14
21 -5 -4 20.43 1.08
21 5 -4 20.31 0.99
-21 5 4 20.58 1.13
21 5 -4 21.01 0.93
-19 -5 4 7.08 0.76
19 -5 -4 6.41 0.67
19 -5 -4 6.44 0.52
-19 -5 4 7.84 0.72
-19 5 4 7.84 0.55
19 5 -4 7.99 0.57
19 5 -4 7.79 0.6
-19 5 4 7.43 0.78
17 -5 -4 4.33 0.55
-17 -5 4 4.06 0.49
-17 -5 4 4.3 0.56
-17 -5 4 4.04 0.47
17 -5 -4 3.89 0.42
17 5 -4 4.28 0.46
-17 5 4 4.08 0.45
-17 5 4 4.55 0.58
17 5 -4 4.61 0.47
-15 -5 4 7.28 0.54
-15 -5 4 6.11 0.64
15 -5 -4 7.03 0.45
15 -5 -4 6.77 0.56
-15 -5 4 5.7 0.55
15 5 -4 6.99 0.49
-15 5 4 6.56 0.49
-15 5 4 5.59 0.62
15 5 -4 6.97 0.51
13 -5 -4 34.22 1.07
-13 -5 4 32.95 1.16
13 -5 -4 33.75 1.26
-13 -5 4 32.22 1.21
-13 -5 4 34.3 1.31
13 5 -4 33.76 1.18
13 5 -4 35.1 1.13
-13 5 4 34.55 1.16
-13 5 4 34.19 1.31
11 -5 -4 42.04 1.41
-11 -5 4 40.99 1.45
-11 -5 4 43.47 1.32
11 -5 -4 42.26 1.22
-11 -5 4 42.95 1.41
-11 5 4 42.61 1.46
11 5 -4 41.39 1.35
11 5 -4 41.62 1.28
-11 5 4 44.09 1.35
9 -5 -4 43.15 1.2
-9 -5 4 45.27 1.28
-9 -5 4 43.86 1.43
-9 -5 4 44.19 1.41
9 -5 -4 40.54 1.38
9 5 -4 42.24 1.29
9 5 -4 40.92 1.34
-9 5 4 43.86 1.36
-9 5 4 43.4 1.45
-7 -5 4 22.19 0.9
-7 -5 4 21.25 0.73
7 -5 -4 22.67 0.88
-7 -5 4 20.48 0.86
7 -5 -4 20.46 0.69
7 5 -4 21.64 0.56
-7 5 4 22.18 0.87
-7 5 4 22.36 0.91
7 5 -4 21.62 0.82
-5 -5 4 0.16 0.1
-5 -5 4 0.07 0.13
-5 -5 4 0.08 0.15
5 -5 -4 0.13 0.14
5 -5 -4 0.27 0.1
-5 5 4 0.22 0.17
-5 5 4 0.13 0.16
-5 5 4 0.08 0.11
5 5 -4 -0.01 0.12
5 5 -4 0.11 0.07
-3 -5 4 10.13 0.52
3 -5 -4 10.59 0.54
3 -5 -4 10.53 0.57
-3 -5 4 10.71 0.6
3 -5 -4 10.48 0.39
3 5 -4 9.42 0.38
3 5 -4 9.77 0.56
-3 5 4 9.63 0.57
-3 5 4 9.65 0.55
-3 5 4 10.2 0.49
-1 -5 4 76.56 1.97
1 -5 -4 76.27 2.01
-1 -5 4 79.35 2.14
1 -5 -4 77.76 2.08
1 -5 -4 75.57 1.78
-1 5 4 75.99 2.14
1 5 -4 76.37 1.88
-1 5 4 77 2.04
1 5 -4 77.47 2.13
1 -5 4 123.21 2.9
1 -5 4 122.95 3.24
-1 -5 -4 126.98 2.71
1 -5 4 122.84 3.11
-1 -5 -4 124.35 3.05
-1 -5 -4 121.51 2.95
1 5 4 121.35 3.16
1 5 4 122.49 3.08
-1 5 -4 119.7 2.89
-1 5 -4 121.36 3.15
-3 -5 -4 40.14 1.17
3 -5 4 39.29 1.31
3 -5 4 40.5 1.43
-3 -5 -4 38.76 0.92
-3 -5 -4 39.03 1.25
3 -5 4 39.31 1.09
3 5 4 37.59 1.35
-3 5 -4 38.85 1.36
3 5 4 40.41 1.34
-3 5 -4 39.01 1.16
-5 -5 -4 23.64 0.79
5 -5 4 21.04 0.9
5 -5 4 22.3 1.03
-5 -5 -4 23.15 0.89
5 -5 4 23.25 0.69
-5 5 -4 22.47 0.82
5 5 4 21.97 0.99
5 5 4 22.8 0.99
-5 5 -4 22.16 0.97
-7 -5 -4 5.84 0.37
7 -5 4 5.79 0.63
7 -5 4 5.58 0.26
7 -5 4 6.29 0.49
-7 -5 -4 6.23 0.44
-7 5 -4 5.43 0.57
7 5 4 6.17 0.61
7 5 4 6.12 0.63
-7 5 -4 5.53 0.41
-9 -5 -4 36.32 1.2
9 -5 4 34.23 1.41
9 -5 4 33.98 1.24
-9 -5 -4 35.99 1.07
9 5 4 33.71 1.36
-9 5 -4 35.42 1.19
9 5 4 35.91 1.42
-9 5 -4 33.82 1.34
-11 -5 -4 80.72 2.38
11 -5 4 76.52 2.49
-11 -5 -4 79.62 2.19
11 -5 4 81.22 2.3
-11 -5 -4 83.15 2.05
11 5 4 80.54 2.46
-11 5 -4 81.56 2.22
11 5 4 77.42 2.51
-13 -5 -4 72.69 1.87
-13 -5 -4 72.86 2.24
-13 -5 -4 69.46 2.01
13 -5 4 71.89 2.14
13 -5 4 69.9 2.35
13 5 4 72.93 2.33
13 5 4 71.09 2.41
-13 5 -4 71.48 2.07
-15 -5 -4 31.62 1.34
-15 -5 -4 31.99 1.17
15 -5 4 30.96 1.25
15 -5 4 30.56 1.45
-15 -5 -4 30.42 1.01
15 5 4 33.14 1.54
-15 5 -4 31.05 1.2
15 5 4 32.43 1.43
-17 -5 -4 3.35 0.38
-17 -5 -4 3.81 0.55
17 -5 4 3.99 0.52
17 -5 4 3.47 0.62
-17 -5 -4 4.01 0.48
17 5 4 4.37 0.7
17 5 4 2.85 0.57
-17 5 -4 4 0.5
-19 -5 -4 5.9 0.72
-19 -5 -4 5.56 0.57
19 -5 4 6.26 0.69
19 -5 4 5.75 0.81
19 5 4 5.1 0.81
19 5 4 7.14 0.83
-19 5 -4 6.19 0.63
21 -5 4 29.46 1.34
-21 -5 -4 30.68 1.41
-21 -5 -4 28.53 1.19
21 -5 4 26.3 1.52
-21 5 -4 31 1.3
21 5 4 30.62 1.7
21 5 4 28.83 1.48
-23 -5 -4 22.32 1.25
23 -5 4 24.79 1.49
-23 -5 -4 22.71 1.07
23 -5 4 20.29 1.18
-23 5 -4 22.77 1.15
23 5 4 22.14 1.56
-25 -5 -4 7.47 0.76
25 -5 4 7.55 1.04
-25 -5 -4 7.72 0.9
25 -5 4 8.26 0.92
-25 5 -4 7.58 0.8
25 5 4 9.31 1.27
27 -5 4 7.47 0.91
27 -5 4 6.51 1.31
-27 -5 -4 7.04 0.79
-27 -5 -4 7.81 0.92
27 5 4 6.57 1.12
-27 5 -4 8.78 0.87
-28 -6 4 -0.11 0.47
28 -6 -4 0.12 0.35
-28 -6 4 0.29 0.43
28 -6 -4 0.75 0.47
28 6 -4 0.44 0.34
-28 6 4 -0.21 0.43
28 6 -4 0.07 0.45
-26 -6 4 -0.05 0.43
26 -6 -4 -0.34 0.28
26 -6 -4 0.01 0.36
-26 -6 4 -0.21 0.35
26 6 -4 -0.11 0.27
-26 6 4 0.57 0.41
26 6 -4 -0.22 0.35
-24 -6 4 1.38 0.48
-24 -6 4 1.36 0.52
24 -6 -4 1.37 0.37
24 -6 -4 0.97 0.42
24 6 -4 1.18 0.43
-24 6 4 1.78 0.49
24 6 -4 1.59 0.35
-22 -6 4 0.12 0.31
-22 -6 4 0.37 0.36
22 -6 -4 0.32 0.26
22 -6 -4 0.01 0.3
22 6 -4 0.19 0.25
22 6 -4 0.84 0.34
-22 6 4 0.06 0.35
-20 -6 4 3.96 0.55
20 -6 -4 3.18 0.52
20 -6 -4 4.42 0.5
-20 -6 4 3.01 0.57
-20 6 4 3.64 0.46
20 6 -4 3.54 0.45
20 6 -4 4.34 0.55
-20 6 4 2.99 0.54
-18 -6 4 -0.06 0.21
18 -6 -4 0.02 0.18
-18 -6 4 -0.27 0.19
-18 -6 4 0.21 0.28
18 -6 -4 -0.21 0.22
18 6 -4 0.2 0.22
-18 6 4 0.13 0.27
18 6 -4 -0.02 0.2
-18 6 4 0.09 0.21
16 -6 -4 4.36 0.43
-16 -6 4 4.4 0.5
16 -6 -4 3.63 0.5
-16 -6 4 4.23 0.49
-16 -6 4 4.73 0.61
-16 6 4 4.66 0.51
-16 6 4 4.5 0.57
16 6 -4 4.35 0.48
16 6 -4 3.81 0.45
-14 -6 4 4.27 0.55
14 -6 -4 4.27 0.4
-14 -6 4 4.09 0.48
14 -6 -4 4.22 0.51
-14 -6 4 3.35 0.42
14 6 -4 3.85 0.43
-14 6 4 4.71 0.56
-14 6 4 3.62 0.45
14 6 -4 4.24 0.44
-12 -6 4 0.41 0.24
12 -6 -4 0.34 0.24
12 -6 -4 0.56 0.18
-12 -6 4 0.32 0.22
-12 -6 4 0.55 0.2
-12 6 4 0.05 0.2
12 6 -4 0.82 0.26
12 6 -4 0.77 0.22
-12 6 4 0.5 0.21
10 -6 -4 0.59 0.16
-10 -6 4 0.6 0.18
-10 -6 4 0.45 0.22
10 -6 -4 0.69 0.26
-10 -6 4 0.1 0.17
10 6 -4 0.57 0.2
10 6 -4 0.63 0.22
-10 6 4 0.63 0.23
-10 6 4 0.59 0.26
8 -6 -4 1.3 0.2
-8 -6 4 1.43 0.29
-8 -6 4 0.96 0.2
8 -6 -4 1.1 0.27
-8 -6 4 1.14 0.27
-8 6 4 0.83 0.26
-8 6 4 1.32 0.28
8 6 -4 1.22 0.24
8 6 -4 1.39 0.14
-6 -6 4 1.71 0.31
-6 -6 4 1.49 0.21
6 -6 -4 1.62 0.29
-6 -6 4 1.7 0.29
6 -6 -4 1.61 0.2
-6 6 4 1.68 0.31
6 6 -4 1.59 0.27
6 6 -4 1.52 0.15
-6 6 4 1.4 0.28
-4 -6 4 2.74 0.24
-4 -6 4 2.39 0.36
4 -6 -4 2.36 0.22
-4 -6 4 2.04 0.3
4 -6 -4 2.32 0.35
4 -6 -4 2.65 0.34
4 6 -4 2.62 0.2
-4 6 4 2.46 0.27
4 6 -4 2.15 0.33
-4 6 4 1.74 0.32
2 -6 -4 0.92 0.22
-2 -6 4 1.52 0.25
-2 -6 4 1.03 0.25
2 -6 -4 1.67 0.16
2 -6 -4 1.59 0.29
-2 6 4 1.57 0.3
2 6 -4 1.65 0.19
-2 6 4 1.47 0.25
2 6 -4 1.7 0.3
0 -6 4 14.14 0.6
0 -6 4 13.23 0.7
0 -6 -4 14.75 0.65
0 -6 -4 14.56 0.44
0 -6 -4 13.87 0.69
0 6 4 13.82 0.67
0 6 -4 14.17 0.72
0 6 4 13.88 0.74
0 6 -4 14.26 0.54
-2 -6 -4 15.09 0.64
2 -6 4 12.83 0.71
-2 -6 -4 13.93 0.69
-2 -6 -4 14.12 0.41
2 -6 4 15.66 0.59
2 -6 4 16.5 0.85
-2 6 -4 13.82 0.73
2 6 4 13.26 0.75
2 6 4 13.99 0.71
-2 6 -4 13.48 0.57
4 -6 4 0.51 0.14
4 -6 4 0.54 0.21
-4 -6 -4 0.7 0.18
-4 -6 -4 0.26 0.19
4 -6 4 0.31 0.21
4 6 4 0.48 0.22
-4 6 -4 0.26 0.19
4 6 4 0.65 0.24
-4 6 -4 0.32 0.15
-6 -6 -4 13.26 0.68
6 -6 4 12.49 0.78
-6 -6 -4 12.5 0.58
6 -6 4 10.51 0.65
6 -6 4 13.01 0.48
-6 6 -4 12.96 0.61
6 6 4 12.17 0.75
-6 6 -4 12.69 0.74
6 6 4 12.51 0.76
-8 -6 -4 -0.07 0.15
8 -6 4 0.35 0.21
8 -6 4 0.24 0.24
-8 -6 -4 0.1 0.14
8 -6 4 0.2 0.1
-8 6 -4 0.08 0.15
-8 6 -4 0.18 0.21
8 6 4 0.44 0.25
8 6 4 0.31 0.22
-10 -6 -4 0.24 0.18
10 -6 4 0.06 0.24
10 -6 4 0.36 0.22
-10 -6 -4 0.19 0.16
10 6 4 0.33 0.25
-10 6 -4 0.13 0.17
10 6 4 0.44 0.26
-10 6 -4 0.42 0.25
12 -6 4 0.37 0.29
-12 -6 -4 -0.14 0.15
-12 -6 -4 0.3 0.17
12 -6 4 -0.06 0.18
-12 6 -4 0.04 0.19
-12 6 -4 0.08 0.22
12 6 4 -0.18 0.22
12 6 4 0.25 0.26
-14 -6 -4 0.36 0.19
14 -6 4 0.39 0.24
-14 -6 -4 0.56 0.29
-14 -6 -4 0.59 0.24
14 -6 4 0.13 0.28
-14 6 -4 0.39 0.22
14 6 4 0.51 0.3
14 6 4 0.28 0.31
16 -6 4 6.11 0.78
-16 -6 -4 6.96 0.49
16 -6 4 6.71 0.71
-16 -6 -4 5.76 0.71
-16 -6 -4 6.95 0.64
16 6 4 5.09 0.75
-16 6 -4 6.16 0.59
16 6 4 5.52 0.73
-18 -6 -4 0.6 0.34
18 -6 4 0.47 0.32
-18 -6 -4 0.68 0.24
18 -6 4 0.21 0.37
-18 -6 -4 0.8 0.28
18 6 4 0.31 0.34
-18 6 -4 0.59 0.27
18 6 4 0.68 0.41
-20 -6 -4 0.47 0.35
-20 -6 -4 0.06 0.23
20 -6 4 0.12 0.29
20 -6 4 0.11 0.35
-20 6 -4 -0.08 0.22
20 6 4 -0.18 0.32
20 6 4 0.29 0.4
22 -6 4 0.14 0.41
-22 -6 -4 0.88 0.33
-22 -6 -4 1.16 0.41
22 -6 4 1.73 0.49
22 6 4 2.11 0.64
-22 6 -4 1.19 0.38
22 6 4 1.78 0.56
24 -6 4 0.18 0.39
-24 -6 -4 0.34 0.37
24 -6 4 -0.26 0.42
-24 -6 -4 0.35 0.3
-24 6 -4 -0.21 0.27
24 6 4 0.37 0.5
-26 -6 -4 0.1 0.43
26 -6 4 0.56 0.43
-26 -6 -4 0.11 0.31
-26 6 -4 -0.08 0.33
26 6 4 1.02 0.69
28 -6 4 1.65 0.56
-28 -6 -4 1.23 0.45
-28 6 -4 0.95 0.43
28 6 4 1.25 0.73
27 -7 -4 -0.28 0.41
27 -7 -4 -0.23 0.33
-27 -7 4 0.11 0.41
-27 -7 4 0.05 0.44
27 7 -4 -0.05 0.37
27 7 -4 0.52 0.44
-27 7 4 -0.3 0.39
-25 -7 4 1.32 0.49
25 -7 -4 2.79 0.5
-25 -7 4 2.67 0.66
25 -7 -4 2.08 0.52
25 7 -4 2.51 0.44
25 7 -4 2.08 0.53
-25 7 4 2.72 0.58
23 -7 -4 0.66 0.32
-23 -7 4 0.94 0.41
-23 -7 4 -0.06 0.36
23 -7 -4 0.71 0.4
23 7 -4 1.44 0.43
-23 7 4 0.15 0.33
23 7 -4 0.94 0.32
21 -7 -4 1.98 0.46
21 -7 -4 1.87 0.37
-21 -7 4 1.71 0.43
-21 -7 4 1.46 0.48
21 7 -4 1.92 0.44
-21 7 4 1.89 0.49
21 7 -4 2.09 0.39
-21 7 4 1.97 0.39
19 -7 -4 19.52 0.9
-19 -7 4 20.03 1.01
19 -7 -4 20.48 1.06
-19 -7 4 17.42 1.08
19 7 -4 19.85 0.99
-19 7 4 19.83 1.09
19 7 -4 20.97 0.94
-19 7 4 20.1 0.96
17 -7 -4 2.04 0.34
-17 -7 4 1.5 0.35
17 -7 -4 1.53 0.39
-17 -7 4 0.86 0.39
-17 -7 4 1.79 0.38
-17 7 4 1.48 0.4
17 7 -4 1.29 0.31
-17 7 4 0.57 0.27
17 7 -4 1.22 0.32
-15 -7 4 5.2 0.65
-15 -7 4 5.61 0.59
-15 -7 4 5.11 0.55
15 -7 -4 5.86 0.51
15 -7 -4 4.82 0.56
-15 7 4 5.6 0.63
-15 7 4 5.29 0.57
15 7 -4 5.98 0.5
15 7 -4 5.27 0.53
13 -7 -4 15.81 0.84
-13 -7 4 15.56 0.83
13 -7 -4 17.21 0.71
-13 -7 4 15.88 0.76
-13 -7 4 13.95 0.85
13 7 -4 18.82 0.84
-13 7 4 15.4 0.81
13 7 -4 15.29 0.74
-13 7 4 17.24 0.92
-11 -7 4 38.64 1.22
-11 -7 4 36.92 1.37
-11 -7 4 36.58 1.33
11 -7 -4 37.42 1.14
11 -7 -4 37.53 1.34
11 7 -4 36.84 1.21
-11 7 4 36.47 1.38
-11 7 4 35.3 1.3
11 7 -4 35.44 1.26
9 -7 -4 44.33 1.49
-9 -7 4 46.07 1.34
-9 -7 4 45.65 1.53
-9 -7 4 46.51 1.55
9 -7 -4 44.44 1.27
9 7 -4 45.13 1.4
-9 7 4 46.61 1.56
-9 7 4 46.57 1.53
-7 -7 4 22.17 0.94
-7 -7 4 20.14 0.94
7 -7 -4 22.4 0.73
7 -7 -4 20.94 0.91
-7 -7 4 23.21 0.78
7 7 -4 21.6 0.64
-7 7 4 22 0.96
7 7 -4 21.74 0.87
-7 7 4 21.57 0.96
5 -7 -4 0.29 0.12
5 -7 -4 0.09 0.18
-5 -7 4 0.27 0.12
-5 -7 4 0.53 0.24
5 -7 -4 0.47 0.21
-5 -7 4 0.5 0.21
5 7 -4 0.29 0.1
-5 7 4 0.49 0.21
5 7 -4 0.67 0.21
-5 7 4 0.36 0.14
-3 -7 4 16.36 0.8
3 -7 -4 16.64 0.8
3 -7 -4 15.19 0.52
-3 -7 4 15.99 0.53
-3 -7 4 16.43 0.73
3 -7 -4 15.96 0.73
-3 7 4 16.02 0.8
3 7 -4 14.26 0.72
-3 7 4 14.79 0.64
3 7 -4 15.87 0.55
1 -7 -4 36.64 0.95
-1 -7 4 38.39 1.33
1 -7 -4 37.69 1.22
1 -7 -4 34.5 1.26
-1 -7 4 38.47 1.2
1 7 -4 37.36 1.05
-1 7 4 35.62 1.34
1 7 -4 35.5 1.26
-1 7 4 37.11 1.2
-1 -7 -4 57.44 1.63
-1 -7 -4 56.25 1.73
-1 -7 -4 57.02 1.33
1 -7 4 56.99 1.78
1 -7 4 57.55 1.59
1 7 4 59.66 1.73
1 7 4 54.61 1.81
-1 7 -4 57.78 1.52
-1 7 -4 53.73 1.73
3 -7 4 24.35 1.03
3 -7 4 24.46 0.83
-3 -7 -4 23.72 0.89
-3 -7 -4 24.41 0.98
-3 7 -4 24.73 1.04
3 7 4 23.35 1.06
-3 7 -4 23.74 0.83
3 7 4 24.77 1.03
5 -7 4 11.17 0.68
-5 -7 -4 11 0.57
5 -7 4 12.97 0.8
5 -7 4 10.47 0.49
-5 -7 -4 10.84 0.64
-5 7 -4 11.34 0.55
5 7 4 11.14 0.74
-5 7 -4 11 0.7
5 7 4 11.25 0.72
-7 -7 -4 1.46 0.26
7 -7 4 1.27 0.2
7 -7 4 1.36 0.32
-7 -7 -4 1.69 0.32
7 -7 4 1.57 0.38
7 7 4 1.25 0.34
-7 7 -4 1.55 0.27
7 7 4 1.27 0.34
-7 7 -4 0.99 0.3
9 -7 4 3.1 0.52
-9 -7 -4 2.82 0.4
-9 -7 -4 1.76 0.29
9 -7 4 2.83 0.43
9 7 4 1.78 0.4
-9 7 -4 2.36 0.33
9 7 4 2.44 0.48
-9 7 -4 2.53 0.44
11 -7 4 19.14 1.07
-11 -7 -4 18.89 0.88
-11 -7 -4 19.4 0.8
11 -7 4 18.76 0.95
11 7 4 20.87 1.13
-11 7 -4 19.64 1.02
11 7 4 19.01 1.06
-11 7 -4 18.52 0.84
-13 -7 -4 15.7 0.81
13 -7 4 16.78 1.03
-13 -7 -4 15.8 0.73
13 -7 4 16.39 0.91
-13 7 -4 14.39 0.76
13 7 4 14.86 0.97
13 7 4 16.96 1.08
-13 7 -4 14.82 0.93
-15 -7 -4 4.44 0.52
-15 -7 -4 6.33 0.73
15 -7 4 4.5 0.58
15 -7 4 6.27 0.77
-15 -7 -4 5.72 0.46
15 7 4 3.67 0.65
15 7 4 5.87 0.74
-15 7 -4 5.8 0.7
-15 7 -4 4.72 0.54
17 -7 4 0.45 0.32
17 -7 4 0.21 0.34
-17 -7 -4 0.21 0.3
-17 -7 -4 0.08 0.21
-17 -7 -4 0.24 0.23
17 7 4 0.36 0.33
17 7 4 0.17 0.37
-17 7 -4 0.45 0.29
-17 7 -4 -0.01 0.22
-19 -7 -4 2.45 0.44
19 -7 4 1.7 0.51
19 -7 4 1.51 0.44
-19 -7 -4 2.23 0.48
-19 -7 -4 2.16 0.37
19 7 4 1.04 0.46
19 7 4 2.35 0.65
-19 7 -4 2.45 0.55
-19 7 -4 2.5 0.44
21 -7 4 8.88 1.03
-21 -7 -4 8.07 0.88
21 -7 4 7.7 0.84
-21 -7 -4 9.32 0.72
21 7 4 8.3 1.1
-21 7 -4 8.52 0.78
21 7 4 8.18 0.97
23 -7 4 16.3 1.1
23 -7 4 14.05 1.42
-23 -7 -4 14.53 0.94
-23 -7 -4 12.91 1.02
-23 7 -4 13.63 0.89
23 7 4 14.34 1.28
23 7 4 14.87 1.52
25 -7 4 12.43 1.15
-25 -7 -4 12.13 0.9
-25 -7 -4 13.67 1.1
-25 7 -4 13.09 0.93
25 7 4 10.22 1.33
-27 -7 -4 2.36 0.54
27 -7 4 2.4 0.64
27 7 4 2.69 0.84
-27 7 -4 4.41 0.68
26 -8 -4 7.55 0.86
26 -8 -4 7.98 0.81
-26 -8 4 6.2 0.84
-26 -8 4 6.24 0.9
26 8 -4 6.61 0.84
-26 8 4 6.31 0.84
-24 -8 4 0.16 0.35
-24 -8 4 -0.09 0.42
24 -8 -4 -0.23 0.27
24 -8 -4 0.51 0.4
24 8 -4 0.19 0.27
24 8 -4 -0.19 0.34
-24 8 4 -0.16 0.37
22 -8 -4 0.19 0.29
-22 -8 4 0.46 0.4
22 -8 -4 -0.11 0.34
-22 -8 4 0.6 0.35
22 8 -4 0.1 0.33
-22 8 4 0.16 0.36
22 8 -4 0.47 0.28
-22 8 4 0.75 0.34
20 -8 -4 0.05 0.25
-20 -8 4 0.43 0.28
20 -8 -4 0.27 0.32
-20 -8 4 0.3 0.35
-20 8 4 0.75 0.37
20 8 -4 -0.14 0.27
-20 8 4 0.57 0.32
20 8 -4 0.39 0.26
-18 -8 4 17.02 0.92
-18 -8 4 17.52 1.06
-18 -8 4 15.51 0.86
18 -8 -4 15.9 0.95
18 -8 -4 17.42 0.84
-18 8 4 16.82 1.01
18 8 -4 15.69 0.83
-18 8 4 16.64 0.92
18 8 -4 15.55 0.88
-16 -8 4 22.23 1.14
-16 -8 4 21.53 0.99
16 -8 -4 21.94 1.05
-16 -8 4 22.67 1.03
16 -8 -4 22.02 0.91
-16 8 4 19.1 0.99
16 8 -4 21.23 0.96
-16 8 4 21.84 1.1
16 8 -4 21.66 0.99
-14 -8 4 0.47 0.22
-14 -8 4 0.89 0.33
14 -8 -4 0.54 0.22
-14 -8 4 0.88 0.32
14 -8 -4 0.72 0.31
14 8 -4 0.58 0.26
-14 8 4 0.42 0.3
-14 8 4 0.31 0.25
14 8 -4 0.36 0.25
-12 -8 4 0.25 0.24
12 -8 -4 1.03 0.23
-12 -8 4 1.14 0.33
-12 -8 4 0.88 0.25
12 -8 -4 1.06 0.32
12 8 -4 0.76 0.26
-12 8 4 1.7 0.39
-12 8 4 0.71 0.29
12 8 -4 0.89 0.29
-10 -8 4 8.89 0.66
10 -8 -4 9 0.62
-10 -8 4 8.93 0.65
-10 -8 4 8.51 0.51
10 -8 -4 8.78 0.48
-10 8 4 9.37 0.66
10 8 -4 9.21 0.57
8 -8 -4 35.44 1.29
-8 -8 4 37.07 1.36
-8 -8 4 37.9 1.14
-8 -8 4 36.25 1.34
8 -8 -4 37.76 1.1
-8 8 4 37 1.38
8 8 -4 35.77 1.22
-6 -8 4 38.7 1.4
-6 -8 4 40.84 1.14
6 -8 -4 38.43 1.1
-6 -8 4 39.9 1.37
6 -8 -4 37.38 1.32
6 -8 -4 38.53 1.38
6 8 -4 38.45 1.05
-6 8 4 40.11 1.42
6 8 -4 36.81 1.27
-4 -8 4 31.09 1.14
4 -8 -4 30.3 1.19
4 -8 -4 31.17 0.9
4 -8 -4 30.82 1.14
-4 -8 4 32.55 0.91
-4 -8 4 30.81 1.21
4 8 -4 30.48 0.89
4 8 -4 29.74 1.11
-4 8 4 30.1 1.21
2 -8 -4 21.66 0.9
2 -8 -4 23.77 0.99
-2 -8 4 20.57 0.97
2 -8 -4 20.99 0.65
-2 -8 4 20.57 0.86
-2 8 4 22.41 0.84
2 8 -4 18.63 0.86
2 8 -4 21.13 0.71
-2 8 4 20.47 0.99
0 -8 -4 5.16 0.49
0 -8 4 4.54 0.53
0 -8 -4 4.81 0.51
0 -8 -4 4.58 0.25
0 -8 4 5.05 0.41
0 8 -4 4.17 0.46
0 8 -4 4.69 0.32
0 8 4 4.47 0.57
0 8 4 4.2 0.44
2 -8 4 4.35 0.36
-2 -8 -4 3.78 0.47
-2 -8 -4 3.95 0.42
2 -8 4 3.77 0.49
2 8 4 4.39 0.5
2 8 4 3.57 0.5
-2 8 -4 3.93 0.47
-2 8 -4 4.12 0.37
-4 -8 -4 31.88 1.11
4 -8 4 31.65 1.25
-4 -8 -4 32.28 1.21
4 -8 4 32.1 1.03
4 8 4 33.76 1.29
-4 8 -4 31.99 1.04
4 8 4 31.1 1.33
-4 8 -4 32.56 1.25
-6 -8 -4 5.84 0.57
6 -8 4 6.76 0.4
6 -8 4 6.55 0.63
-6 -8 -4 7.11 0.5
6 -8 4 6.93 0.73
6 8 4 8.05 0.65
6 8 4 6.31 0.68
-6 8 -4 7.37 0.47
-6 8 -4 6.54 0.57
-8 -8 -4 0.19 0.2
8 -8 4 0.07 0.23
8 -8 4 0.35 0.27
-8 -8 -4 0.17 0.19
-8 8 -4 0.16 0.18
-8 8 -4 0.6 0.27
8 8 4 0.43 0.3
8 8 4 -0.02 0.2
-10 -8 -4 4.32 0.45
-10 -8 -4 3.91 0.49
10 -8 4 4.7 0.63
10 -8 4 4.15 0.55
-10 8 -4 3.84 0.53
10 8 4 4.33 0.63
-10 8 -4 4.65 0.46
10 8 4 3.52 0.56
12 -8 4 2.1 0.46
-12 -8 -4 2.25 0.35
12 -8 4 1.85 0.4
-12 -8 -4 1.74 0.37
12 8 4 1.62 0.43
-12 8 -4 1.79 0.41
12 8 4 1.29 0.42
-12 8 -4 1.54 0.31
-14 -8 -4 18.75 0.93
14 -8 4 17.65 1.01
14 -8 4 18.36 1.12
-14 -8 -4 18.74 0.84
-14 8 -4 19.33 0.9
-14 8 -4 18.49 1.06
14 8 4 18.33 1.12
14 8 4 19.38 1.23
16 -8 4 14.23 1.04
-16 -8 -4 16.24 1.02
16 -8 4 12.16 0.88
-16 -8 -4 13.04 0.82
-16 -8 -4 13.35 0.74
16 8 4 14.44 1.03
-16 8 -4 15.38 1
-16 8 -4 13.28 0.77
16 8 4 12.97 1.08
-18 -8 -4 17.47 0.93
-18 -8 -4 18.3 0.87
18 -8 4 18.89 1.11
-18 -8 -4 17.62 1.11
18 -8 4 19.63 1.23
-18 8 -4 18.57 1.14
18 8 4 17.97 1.32
-18 8 -4 16.24 0.91
18 8 4 15.71 1.15
20 -8 4 11.69 1.06
-20 -8 -4 10.97 0.81
-20 -8 -4 11.11 0.94
-20 -8 -4 11.16 1.05
20 -8 4 11.63 1.14
20 8 4 10.78 1.12
-20 8 -4 11.21 0.95
20 8 4 7.92 1.1
-20 8 -4 11.47 0.8
-22 -8 -4 1.2 0.4
22 -8 4 1.39 0.5
-22 -8 -4 1.59 0.53
-22 8 -4 1.48 0.42
22 8 4 0.1 0.53
22 8 4 0.9 0.53
-24 -8 -4 1.6 0.52
24 -8 4 0.08 0.44
-24 -8 -4 -0.03 0.34
24 8 4 0.56 0.56
-24 8 -4 0.46 0.37
24 8 4 0.29 0.48
-26 -8 -4 1.19 0.45
26 -8 4 1.88 0.63
-26 8 -4 1.67 0.46
26 8 4 1.35 0.74
-25 -9 4 2.65 0.62
-25 -9 4 0.91 0.51
25 -9 -4 2.18 0.57
25 -9 -4 3.05 0.56
25 9 -4 1.75 0.56
-25 9 4 2.01 0.57
-23 -9 4 5.65 0.82
23 -9 -4 5.61 0.73
23 -9 -4 4.43 0.6
-23 -9 4 5.63 0.74
23 9 -4 4.77 0.7
-23 9 4 5 0.81
-23 9 4 5.58 0.77
-21 -9 4 5.1 0.78
21 -9 -4 6.69 0.77
-21 -9 4 5.61 0.71
21 -9 -4 4.84 0.58
21 9 -4 6.73 0.76
-21 9 4 5.7 0.76
21 9 -4 6.3 0.62
-21 9 4 5.47 0.7
19 -9 -4 0.54 0.36
-19 -9 4 0.85 0.43
19 -9 -4 0.9 0.32
-19 -9 4 0.83 0.36
-19 -9 4 0.49 0.33
-19 9 4 0.56 0.36
19 9 -4 0.56 0.3
19 9 -4 0.73 0.36
-19 9 4 0.45 0.36
-17 -9 4 -0.15 0.23
17 -9 -4 0.11 0.28
17 -9 -4 -0.23 0.21
-17 -9 4 -0.26 0.26
-17 -9 4 -0.34 0.29
-17 9 4 -0.02 0.29
-17 9 4 -0.42 0.25
17 9 -4 -0.01 0.23
17 9 -4 0.19 0.24
-15 -9 4 0.33 0.25
15 -9 -4 0.59 0.31
-15 -9 4 0.75 0.35
-15 -9 4 0.53 0.31
15 -9 -4 0.43 0.23
15 9 -4 0.3 0.25
15 9 -4 0.21 0.27
-15 9 4 0.22 0.27
-13 -9 4 7.98 0.57
-13 -9 4 7.88 0.71
13 -9 -4 8.28 0.65
13 -9 -4 7.45 0.51
-13 -9 4 7.21 0.75
13 9 -4 8.01 0.69
-13 9 4 9.17 0.82
13 9 -4 7.82 0.58
11 -9 -4 12.47 0.75
-11 -9 4 12.31 0.78
-11 -9 4 12.06 0.81
-11 -9 4 11.58 0.63
11 -9 -4 11.9 0.6
11 9 -4 11.63 0.68
-11 9 4 10.79 0.76
9 -9 -4 4.57 0.52
-9 -9 4 4.79 0.56
-9 -9 4 5.33 0.48
9 -9 -4 4.97 0.6
9 -9 -4 5.55 0.41
-9 -9 4 4.14 0.53
9 9 -4 5.08 0.5
-9 9 4 4.91 0.6
7 -9 -4 5.87 0.39
7 -9 -4 6.62 0.64
-7 -9 4 7.28 0.7
-7 -9 4 5.09 0.39
-7 -9 4 8.16 0.71
7 -9 -4 6.54 0.63
-7 9 4 6.27 0.64
7 9 -4 5.16 0.49
5 -9 -4 1.84 0.35
-5 -9 4 2.47 0.43
5 -9 -4 1.93 0.25
5 -9 -4 1.58 0.37
-5 -9 4 1.77 0.35
5 9 -4 1.71 0.23
5 9 -4 1.28 0.28
-5 9 4 1.81 0.4
3 -9 -4 14.04 0.54
-3 -9 4 13.92 0.81
3 -9 -4 13.93 0.81
-3 -9 4 14.03 0.74
3 -9 -4 13.4 0.73
-3 9 4 12.52 0.8
3 9 -4 13.4 0.71
3 9 -4 13.84 0.56
1 -9 -4 17.03 0.89
1 -9 -4 16.29 0.8
-1 -9 4 18.73 0.94
-1 -9 4 19.16 0.83
-1 9 4 18.3 0.81
1 9 -4 17.64 0.84
1 9 -4 17.58 0.67
-1 9 4 18.23 0.98
-1 -9 -4 11.28 0.65
-1 -9 -4 11.2 0.71
1 -9 4 10.94 0.6
1 -9 4 10.87 0.74
1 9 4 10.54 0.75
1 9 4 10.92 0.68
-1 9 -4 10.44 0.67
-1 9 -4 11.33 0.53
-3 -9 -4 0.32 0.23
3 -9 4 0.03 0.15
-3 -9 -4 0.21 0.19
3 -9 4 -0.08 0.21
3 9 4 -0.12 0.22
-3 9 -4 0.08 0.13
-3 9 -4 -0.03 0.19
3 9 4 -0.1 0.19
-5 -9 -4 -0.1 0.16
5 -9 4 -0.08 0.21
5 -9 4 0.21 0.16
-5 -9 -4 0.03 0.2
-5 9 -4 0.03 0.13
5 9 4 -0.13 0.21
-5 9 -4 0.36 0.25
5 9 4 0.06 0.24
-7 -9 -4 0.67 0.28
7 -9 4 1.03 0.33
-7 -9 -4 1 0.27
7 -9 4 0.82 0.22
7 9 4 1.08 0.36
7 9 4 0.74 0.32
-7 9 -4 1.16 0.25
-7 9 -4 1.25 0.34
9 -9 4 12.77 0.85
9 -9 4 11.66 0.85
-9 -9 -4 12.7 0.7
-9 -9 -4 13.4 0.79
9 9 4 11.75 0.89
9 9 4 13.54 0.95
-9 9 -4 11.96 0.65
-9 9 -4 12.14 0.81
11 -9 4 5.87 0.67
11 -9 4 7.34 0.81
-11 -9 -4 5.73 0.61
-11 -9 -4 6.58 0.59
11 9 4 5.8 0.77
-11 9 -4 7.68 0.77
11 9 4 5.68 0.75
-11 9 -4 5.9 0.54
13 -9 4 1.98 0.45
13 -9 4 2.17 0.5
-13 -9 -4 2.82 0.4
-13 -9 -4 1.23 0.34
13 9 4 1.65 0.52
13 9 4 2.05 0.51
-13 9 -4 1.59 0.34
-13 9 -4 1.19 0.38
15 -9 4 1.92 0.52
15 -9 4 1.46 0.43
-15 -9 -4 1.86 0.4
-15 -9 -4 1.51 0.33
15 9 4 1.69 0.5
15 9 4 1.85 0.58
-15 9 -4 1.82 0.37
-15 9 -4 1.68 0.47
-17 -9 -4 0.05 0.35
17 -9 4 0.07 0.34
17 -9 4 -0.44 0.29
-17 -9 -4 -0.06 0.22
-17 -9 -4 0.21 0.28
17 9 4 -0.14 0.35
17 9 4 -0.57 0.28
-17 9 -4 -0.03 0.29
-17 9 -4 0.03 0.23
19 -9 4 1.03 0.58
19 -9 4 0.4 0.4
-19 -9 -4 0.22 0.28
-19 -9 -4 0.58 0.32
-19 -9 -4 0.04 0.35
19 9 4 -0.13 0.4
-19 9 -4 0.11 0.34
19 9 4 -0.12 0.38
-19 9 -4 0.4 0.28
21 -9 4 1.12 0.48
-21 -9 -4 1.03 0.4
-21 -9 -4 0.76 0.46
21 9 4 0.53 0.57
21 9 4 0.7 0.52
-21 9 -4 0.69 0.32
-23 -9 -4 2.81 0.67
23 -9 4 2.75 0.67
-23 -9 -4 3.34 0.58
23 9 4 2.23 0.81
23 9 4 2.47 0.71
-23 9 -4 2.16 0.46
25 -9 4 0.83 0.53
-25 -9 -4 0.46 0.41
25 9 4 0.11 0.61
-25 9 -4 0.43 0.37
24 -10 -4 2.88 0.64
-24 -10 4 3.98 0.79
-24 -10 4 1.17 0.49
24 -10 -4 2.84 0.54
24 10 -4 2.39 0.62
22 -10 -4 -0.41 0.37
-22 -10 4 -0.16 0.4
22 -10 -4 -0.3 0.3
-22 -10 4 0.14 0.37
-22 10 4 -0.24 0.35
22 10 -4 0.55 0.39
-20 -10 4 4.01 0.61
20 -10 -4 4.35 0.65
20 -10 -4 3.98 0.55
-20 -10 4 3.28 0.65
-20 10 4 3.86 0.66
20 10 -4 3.58 0.6
-18 -10 4 12.16 0.85
-18 -10 4 13.16 1.02
-18 -10 4 12.21 0.84
18 -10 -4 13.16 0.8
18 -10 -4 13.17 0.9
-18 10 4 12.14 0.9
18 10 -4 12.28 0.87
18 10 -4 12.66 0.8
16 -10 -4 14.39 0.91
16 -10 -4 14.45 0.79
-16 -10 4 13.14 0.95
-16 -10 4 16.41 0.88
-16 -10 4 12.94 0.87
-16 10 4 12.86 0.91
16 10 -4 14.81 0.85
16 10 -4 13.67 0.85
14 -10 -4 10.01 0.75
-14 -10 4 8.62 0.73
-14 -10 4 6.79 0.78
14 -10 -4 8.11 0.6
-14 -10 4 8.23 0.78
-14 10 4 7.06 0.75
14 10 -4 7.97 0.65
14 10 -4 8.94 0.68
-12 -10 4 0.18 0.27
-12 -10 4 0.1 0.27
12 -10 -4 0.09 0.2
12 -10 -4 -0.07 0.25
-12 -10 4 -0.27 0.19
-12 10 4 -0.04 0.26
12 10 -4 -0.11 0.21
12 10 -4 -0.05 0.22
-10 -10 4 1.84 0.37
10 -10 -4 1.78 0.42
-10 -10 4 1.16 0.34
10 -10 -4 2.12 0.32
-10 -10 4 2.1 0.44
10 -10 -4 1.91 0.4
10 10 -4 1.24 0.32
-10 10 4 1.97 0.44
8 -10 -4 13.04 0.79
8 -10 -4 12.85 0.61
-8 -10 4 12.68 0.81
8 -10 -4 13.56 0.85
-8 -10 4 12.81 0.82
8 10 -4 10.85 0.67
-8 10 4 12.27 0.85
-6 -10 4 39.73 1.49
6 -10 -4 42 1.23
6 -10 -4 41.33 1.46
-6 -10 4 41.74 1.54
6 -10 -4 43.7 1.57
-6 10 4 40.19 1.57
6 10 -4 40.92 1.38
-4 -10 4 44.28 1.6
-4 -10 4 43.8 1.52
4 -10 -4 44.73 1.59
4 -10 -4 41.11 1.46
-4 10 4 41.78 1.61
4 10 -4 44.1 1.26
4 10 -4 42.58 1.44
2 -10 -4 19.05 0.91
-2 -10 4 20.28 1.03
2 -10 -4 21 1.03
-2 -10 4 20.97 0.94
-2 10 4 20.66 1.09
2 10 -4 21.68 0.77
2 10 -4 20.29 0.92
0 -10 4 1.72 0.33
0 -10 -4 1.86 0.34
0 -10 4 1.42 0.39
0 -10 -4 2.04 0.42
0 10 4 2.08 0.46
0 10 -4 1.15 0.28
0 10 -4 1.7 0.26
2 -10 4 10.67 0.76
2 -10 4 9.79 0.6
-2 -10 -4 9.03 0.63
-2 -10 -4 10.8 0.74
-2 10 -4 10.05 0.53
2 10 4 10.4 0.72
-2 10 -4 9.82 0.66
2 10 4 9.54 0.78
4 -10 4 9.43 0.58
4 -10 4 11.07 0.79
-4 -10 -4 9.99 0.73
-4 -10 -4 10.46 0.65
-4 10 -4 10.31 0.7
-4 10 -4 10.53 0.57
4 10 4 11.32 0.78
4 10 4 8.26 0.83
-6 -10 -4 16.06 0.9
6 -10 4 12.96 0.87
6 -10 4 14.48 0.69
-6 -10 -4 15.32 0.8
6 10 4 15 0.95
-6 10 -4 14.91 0.7
-6 10 -4 15.25 0.85
6 10 4 14.33 0.97
8 -10 4 30.74 1.36
-8 -10 -4 29.79 1.25
-8 -10 -4 31.6 1.18
8 10 4 30.52 1.43
-8 10 -4 31.28 1.29
-8 10 -4 28.62 1.08
8 10 4 27.34 1.39
10 -10 4 7.06 0.77
-10 -10 -4 7.43 0.58
-10 -10 -4 6.38 0.66
10 10 4 8.13 0.91
-10 10 -4 7.18 0.55
10 10 4 6.43 0.82
-10 10 -4 8.01 0.69
-12 -10 -4 0 0.25
12 -10 4 0.6 0.35
-12 -10 -4 0.58 0.28
12 -10 4 0.56 0.35
-12 10 -4 0.43 0.29
-12 10 -4 0.58 0.26
12 10 4 0.49 0.36
12 10 4 0.2 0.38
14 -10 4 15.11 1.04
-14 -10 -4 15.7 0.84
14 -10 4 15.36 1.07
-14 -10 -4 16.1 0.94
-14 10 -4 14.93 0.98
-14 10 -4 15.17 0.84
14 10 4 16.56 1.13
14 10 4 16.34 1.21
-16 -10 -4 28.2 1.21
16 -10 4 30.51 1.45
16 -10 4 30.69 1.5
-16 -10 -4 29.61 1.31
16 10 4 27.93 1.66
-16 10 -4 27.39 1.19
-16 10 -4 31.63 1.44
16 10 4 29.03 1.55
-18 -10 -4 20.58 1.09
-18 -10 -4 21.61 1.06
-18 -10 -4 20.99 1.27
18 -10 4 19.3 1.24
-18 10 -4 19.23 1.01
18 10 4 18.8 1.29
18 10 4 18.52 1.45
-20 -10 -4 14.33 1.27
-20 -10 -4 11.21 0.88
20 -10 4 10.79 1.08
-20 -10 -4 11.96 0.86
-20 10 -4 11.55 0.83
20 10 4 11.2 1.35
20 10 4 11.44 1.18
22 -10 4 2.07 0.62
-22 -10 -4 2.16 0.54
-22 -10 -4 1.9 0.62
-22 10 -4 1.97 0.47
22 10 4 1.39 0.71
22 10 4 0.8 0.55
-21 -11 4 0.64 0.46
-21 -11 4 0.03 0.36
21 -11 -4 -0.33 0.32
21 -11 -4 0.23 0.4
21 11 -4 -0.64 0.31
-21 11 4 -0.46 0.36
-19 -11 4 0.1 0.39
19 -11 -4 0.01 0.35
19 -11 -4 0.25 0.31
-19 -11 4 0.4 0.34
19 11 -4 -0.06 0.31
-19 11 4 0.13 0.36
17 -11 -4 1.19 0.36
-17 -11 4 0.49 0.33
-17 -11 4 0.31 0.39
17 -11 -4 0.75 0.39
17 11 -4 0.75 0.53
-17 11 4 0.2 0.35
17 11 -4 0.35 0.31
15 -11 -4 0.11 0.24
15 -11 -4 -0.09 0.3
-15 -11 4 0.12 0.31
-15 -11 4 -0.01 0.33
15 11 -4 0.4 0.3
15 11 -4 0.05 0.25
-15 11 4 -0.11 0.32
13 -11 -4 -0.12 0.3
13 -11 -4 0.26 0.23
-13 -11 4 0.22 0.31
-13 -11 4 0.17 0.29
13 -11 -4 0.03 0.29
13 11 -4 -0.34 0.24
13 11 -4 0.1 0.27
-13 11 4 0.11 0.3
11 -11 -4 0.35 0.33
-11 -11 4 0.1 0.29
-11 -11 4 -0.07 0.29
11 -11 -4 0.16 0.29
11 -11 -4 0.43 0.24
11 11 -4 0.25 0.25
-11 11 4 0.14 0.29
9 -11 -4 0.31 0.21
9 -11 -4 0.17 0.28
-9 -11 4 -0.4 0.22
-9 -11 4 0.15 0.27
9 -11 -4 0.04 0.31
-9 11 4 0.25 0.33
9 11 -4 0.14 0.22
7 -11 -4 3.3 0.51
-7 -11 4 1.69 0.41
-7 -11 4 1.98 0.44
7 -11 -4 2.33 0.47
7 -11 -4 2.93 0.51
7 11 -4 2.6 0.4
-7 11 4 2.39 0.48
-5 -11 4 2.3 0.45
5 -11 -4 2.1 0.4
5 -11 -4 1.44 0.4
-5 -11 4 1.39 0.38
5 11 -4 1.51 0.32
-5 11 4 1.73 0.43
-3 -11 4 0.15 0.23
3 -11 -4 -0.06 0.28
-3 -11 4 -0.04 0.24
3 -11 -4 0.1 0.26
3 11 -4 -0.14 0.14
3 11 -4 0.22 0.23
-3 11 4 0.23 0.29
-1 -11 4 3 0.52
1 -11 -4 2.59 0.44
1 -11 -4 3.14 0.5
-1 -11 4 2.28 0.39
-1 11 4 2.88 0.53
1 11 -4 2.97 0.34
1 11 -4 3.02 0.43
-1 -11 -4 0.12 0.24
-1 -11 -4 -0.02 0.27
1 -11 4 0.23 0.27
1 -11 4 0.19 0.21
1 11 4 -0.17 0.3
-1 11 -4 -0.06 0.14
-1 11 -4 0.22 0.22
-3 -11 -4 0.23 0.28
3 -11 4 0.48 0.33
-3 -11 -4 0.19 0.25
3 -11 4 0.07 0.2
-3 11 -4 0.45 0.25
3 11 4 -0.04 0.28
-3 11 -4 0.31 0.18
3 11 4 0.61 0.32
-5 -11 -4 -0.26 0.22
-5 -11 -4 0.05 0.28
5 -11 4 -0.06 0.19
5 -11 4 -0.09 0.25
-5 11 -4 -0.15 0.15
5 11 4 0.4 0.3
-5 11 -4 -0.19 0.2
5 11 4 -0.18 0.28
7 -11 4 1.27 0.42
-7 -11 -4 2.24 0.45
-7 -11 -4 1.62 0.37
7 11 4 1.35 0.41
-7 11 -4 1.78 0.42
7 11 4 2.11 0.54
-7 11 -4 2.13 0.35
9 -11 4 0.12 0.29
-9 -11 -4 0.25 0.26
-9 -11 -4 0.75 0.34
-9 11 -4 0.31 0.28
9 11 4 0.87 0.43
9 11 4 0.48 0.35
-9 11 -4 0.66 0.26
-11 -11 -4 -0.05 0.3
11 -11 4 0.12 0.34
-11 -11 -4 -0.18 0.22
-11 11 -4 0.02 0.27
11 11 4 0.28 0.36
-11 11 -4 0.28 0.21
11 11 4 0.23 0.4
13 -11 4 -0.05 0.32
-13 -11 -4 0.68 0.29
-13 -11 -4 0.07 0.3
13 11 4 0.57 0.39
13 11 4 0.72 0.46
-13 11 -4 0.57 0.26
-13 11 -4 0.54 0.35
-15 -11 -4 0.2 0.29
-15 -11 -4 0.35 0.32
15 -11 4 -0.24 0.32
15 11 4 -0.11 0.43
-15 11 -4 0.02 0.26
-15 11 -4 -0.3 0.4
15 11 4 -0.12 0.35
17 -11 4 0.11 0.39
-17 -11 -4 0.21 0.32
-17 -11 -4 -0.36 0.29
17 11 4 0.08 0.52
17 11 4 0.28 0.44
-17 11 -4 0.25 0.28
-19 -11 -4 0.09 0.33
-19 -11 -4 -0.02 0.3
-19 -11 -4 -0.38 0.36
19 -11 4 0.25 0.43
-19 11 -4 -0.06 0.28
19 11 4 -0.45 0.42
19 11 4 -0.61 0.46
21 -11 4 0.81 0.55
-21 -11 -4 0.87 0.54
-21 -11 -4 0.52 0.39
-21 -11 -4 0.62 0.4
-21 11 -4 1.07 0.39
21 11 4 1.45 0.63
21 11 4 1.44 0.71
20 -12 -4 0.27 0.38
20 -12 -4 -0.19 0.37
-20 -12 4 -0.27 0.42
-20 12 4 -0.07 0.42
20 12 -4 0.11 0.37
-18 -12 4 4.69 0.77
18 -12 -4 4.11 0.6
18 -12 -4 4.37 0.67
-18 12 4 4.38 0.71
18 12 -4 3.89 0.62
16 -12 -4 9.27 0.73
-16 -12 4 7.46 0.91
16 -12 -4 6.89 0.77
16 -12 -4 8.13 0.89
16 12 -4 9.93 0.82
-16 12 4 7.29 0.86
14 -12 -4 8.81 0.69
-14 -12 4 8.15 0.9
14 -12 -4 6.83 0.76
14 -12 -4 7.36 0.85
14 12 -4 8.75 0.94
14 12 -4 6.65 0.69
-14 12 4 7.38 0.85
12 -12 -4 4.44 0.5
-12 -12 4 3.89 0.62
-12 -12 4 3.39 0.56
12 -12 -4 4.96 0.64
12 -12 -4 5.97 0.73
12 12 -4 4.35 0.55
12 12 -4 5.1 0.62
-12 12 4 5.7 0.77
10 -12 -4 0.16 0.34
10 -12 -4 0.5 0.33
-10 -12 4 -0.06 0.3
-10 -12 4 -0.22 0.3
10 12 -4 0.16 0.25
-10 12 4 -0.01 0.35
-8 -12 4 9.77 0.79
8 -12 -4 8.02 0.75
8 -12 -4 6.99 0.78
-8 -12 4 8.73 0.84
8 12 -4 8.61 0.66
-8 12 4 9.34 0.94
-6 -12 4 30.32 1.37
-6 -12 4 32.12 1.38
6 -12 -4 30.84 1.31
6 -12 -4 32.03 1.41
6 12 -4 32.63 1.24
-6 12 4 31.11 1.46
-4 -12 4 11.12 0.79
4 -12 -4 13.04 0.81
4 -12 -4 13.06 0.91
-4 -12 4 12.68 0.89
4 12 -4 12.81 0.76
-4 12 4 13.02 0.93
2 -12 -4 4.94 0.65
2 -12 -4 5.3 0.62
-2 -12 4 6.02 0.65
-2 -12 4 4.41 0.63
2 12 -4 6.39 0.49
2 12 -4 6.13 0.6
-2 12 4 6.04 0.78
0 -12 4 5.82 0.7
0 -12 -4 4.9 0.65
0 -12 -4 5.21 0.62
0 -12 4 5.95 0.65
0 12 -4 4.77 0.47
0 12 -4 5.87 0.61
0 12 4 5.13 0.72
2 -12 4 6.24 0.62
2 -12 4 5.95 0.73
-2 -12 -4 6.37 0.65
-2 -12 -4 5.45 0.67
-2 12 -4 4.81 0.55
-2 12 -4 6.76 0.51
2 12 4 6.35 0.79
4 -12 4 23.41 1.23
-4 -12 -4 23.14 1.08
-4 -12 -4 22.62 1.16
4 -12 4 20.57 0.98
-4 12 -4 22.94 0.94
4 12 4 22.72 1.31
-4 12 -4 23.82 1.07
-6 -12 -4 12.31 0.85
-6 -12 -4 12.86 0.82
6 -12 4 12.67 0.93
6 12 4 11.96 1.12
6 12 4 12.15 0.95
-6 12 -4 13.96 0.83
-6 12 -4 13.07 0.71
-8 -12 -4 8.45 0.81
-8 -12 -4 9.31 0.72
8 -12 4 8.21 0.88
-8 12 -4 8.22 0.6
8 12 4 8.05 0.93
8 12 4 7.91 0.91
-8 12 -4 8.96 0.72
-10 -12 -4 2.56 0.54
10 -12 4 1.71 0.5
-10 -12 -4 2.02 0.43
10 12 4 1.36 0.52
10 12 4 1.82 0.56
-10 12 -4 1.67 0.42
-10 12 -4 1.96 0.36
-12 -12 -4 0.2 0.29
-12 -12 -4 -0.19 0.29
12 -12 4 -0.01 0.35
-12 12 -4 0.25 0.26
12 12 4 -0.04 0.4
12 12 4 0.93 0.49
-12 12 -4 -0.29 0.26
-14 -12 -4 2.47 0.48
14 -12 4 1.92 0.55
-14 -12 -4 1.04 0.41
14 12 4 0.14 0.47
-14 12 -4 1.77 0.41
14 12 4 3.03 0.69
-16 -12 -4 9.39 0.85
16 -12 4 9.77 1.05
-16 -12 -4 8.43 0.87
-16 12 -4 9.98 0.77
16 12 4 7.61 1.13
16 12 4 9.77 1.15
-18 -12 -4 10.36 0.86
-18 -12 -4 9.41 0.91
-18 -12 -4 10 1.11
18 -12 4 7.67 0.98
-18 12 -4 10.15 0.87
18 12 4 10.11 1.17
18 12 4 6.64 1.12
-20 -12 -4 15.99 1.41
-20 -12 -4 17.27 1.14
-20 -12 -4 17.4 1.11
20 -12 4 14.14 1.31
20 12 4 13.42 1.37
20 12 4 16.09 1.7
-20 12 -4 14.28 0.96
17 -13 -4 1.53 0.44
17 -13 -4 1.14 0.46
17 -13 -4 1.26 0.55
-17 -13 4 0.68 0.45
-17 13 4 1.2 0.49
17 13 -4 1.2 0.46
15 -13 -4 1.12 0.43
15 -13 -4 1.29 0.5
15 -13 -4 1.01 0.38
-15 -13 4 0.9 0.49
-15 13 4 1.09 0.5
15 13 -4 1.06 0.41
13 -13 -4 3.94 0.61
-13 -13 4 4.47 0.74
13 -13 -4 5.12 0.75
-13 13 4 4.65 0.69
13 13 -4 4.89 0.63
11 -13 -4 7.38 0.88
11 -13 -4 6.47 0.72
-11 -13 4 7.1 0.85
11 13 -4 8.63 0.8
-11 13 4 6.47 0.85
9 -13 -4 7.86 0.77
-9 -13 4 7.89 0.82
-9 -13 4 8.81 0.9
9 -13 -4 5.27 0.75
-9 13 4 8.17 0.89
9 13 -4 8.27 0.7
-7 -13 4 2.64 0.54
-7 -13 4 3.9 0.6
7 -13 -4 3.66 0.57
7 -13 -4 3.18 0.58
-7 13 4 5.15 0.75
7 13 -4 3.05 0.47
5 -13 -4 1.09 0.45
-5 -13 4 1.84 0.49
5 -13 -4 1.19 0.41
-5 -13 4 1.54 0.44
5 13 -4 1.54 0.36
-5 13 4 1.2 0.46
3 -13 -4 3.81 0.6
-3 -13 4 1.97 0.49
3 -13 -4 2.68 0.5
-3 -13 4 3.77 0.56
-3 13 4 2.17 0.52
3 13 -4 3.43 0.49
1 -13 -4 6.05 0.73
-1 -13 4 6.76 0.8
-1 -13 4 6.37 0.69
1 -13 -4 6.38 0.67
-1 13 4 6.37 0.83
1 13 -4 8.64 0.65
1 13 -4 8.63 0.59
-1 -13 -4 24.79 1.17
1 -13 4 26.47 1.33
-1 -13 -4 26.38 1.29
1 -13 4 26.18 1.2
-1 13 -4 26.07 1.04
1 13 4 23.29 1.37
-1 13 -4 27.86 1.14
-3 -13 -4 6.62 0.77
-3 -13 -4 6.22 0.7
3 -13 4 4.56 0.56
3 -13 4 5.68 0.77
-3 13 -4 6.26 0.64
3 13 4 7.15 0.88
-3 13 -4 6.51 0.58
5 -13 4 0.11 0.34
-5 -13 -4 0.06 0.3
-5 -13 -4 0.21 0.29
-5 13 -4 0.41 0.25
5 13 4 0.19 0.42
-5 13 -4 0.42 0.29
7 -13 4 2.18 0.54
-7 -13 -4 3.24 0.58
-7 -13 -4 1.92 0.47
7 13 4 1.71 0.52
-7 13 -4 1.87 0.41
-7 13 -4 2.2 0.38
9 -13 4 1.42 0.5
-9 -13 -4 2.41 0.53
-9 -13 -4 1.38 0.41
9 13 4 1.78 0.57
-9 13 -4 2.34 0.46
-9 13 -4 1.81 0.39
9 13 4 2.16 0.6
-11 -13 -4 5.6 0.7
-11 -13 -4 6.35 0.76
11 -13 4 6.47 0.87
11 13 4 4.64 0.81
-11 13 -4 6.2 0.65
11 13 4 5.82 0.89
13 -13 4 5.82 0.83
-13 -13 -4 7.13 0.77
-13 -13 -4 8.42 0.88
13 13 4 4.2 0.83
13 13 4 6.94 0.99
-13 13 -4 6.59 0.67
15 -13 4 3.77 0.77
-15 -13 -4 4.88 0.7
-15 -13 -4 4.06 0.61
15 13 4 3.15 0.84
15 13 4 4.47 0.83
-15 13 -4 2.6 0.49
17 -13 4 1.44 0.58
-17 -13 -4 1.96 0.53
-17 -13 -4 1.25 0.45
-17 13 -4 1.59 0.44
17 13 4 0.86 0.7
17 13 4 1.38 0.64
14 -14 -4 0.35 0.46
-14 -14 4 1.41 0.54
14 -14 -4 1.69 0.58
-14 14 4 0.73 0.51
14 14 -4 1.7 0.48
-12 -14 4 0.77 0.49
12 -14 -4 0.22 0.42
12 -14 -4 0.84 0.44
12 14 -4 1.04 0.4
-12 14 4 0.34 0.44
-10 -14 4 1.12 0.49
10 -14 -4 1.1 0.49
10 -14 -4 1.75 0.51
-10 14 4 1.2 0.5
10 14 -4 2.17 0.48
-8 -14 4 9.58 0.97
8 -14 -4 9.5 0.88
8 -14 -4 9.43 0.96
-8 14 4 9.66 1.02
8 14 -4 11.34 0.81
-6 -14 4 23.36 1.27
6 -14 -4 23.86 1.23
-6 -14 4 21.79 1.26
6 -14 -4 26.65 1.36
-6 14 4 21.25 1.34
6 14 -4 23.24 1.11
-4 -14 4 24.84 1.27
4 -14 -4 26.95 1.28
4 -14 -4 24.3 1.33
-4 -14 4 22.92 1.31
-4 14 4 25.34 1.43
4 14 -4 24.68 1.12
-2 -14 4 4.47 0.62
2 -14 -4 4.68 0.71
-2 -14 4 3.87 0.66
2 -14 -4 3.5 0.58
2 14 -4 3.87 0.52
-2 14 4 3.79 0.71
0 -14 -4 -0.08 0.35
0 -14 4 -0.29 0.29
0 -14 4 -0.42 0.32
0 -14 -4 0.11 0.35
0 14 -4 0.53 0.27
0 14 4 -0.48 0.35
0 14 -4 0.08 0.26
2 -14 4 0.54 0.41
2 -14 4 0.95 0.38
-2 -14 -4 0.7 0.44
-2 -14 -4 0.51 0.38
-2 14 -4 0.64 0.31
2 14 4 0.27 0.39
-2 14 -4 0.19 0.28
-4 -14 -4 3.88 0.61
-4 -14 -4 3.61 0.64
4 -14 4 3.98 0.68
-4 14 -4 2.97 0.46
-4 14 -4 3.54 0.53
4 14 4 3.36 0.73
6 -14 4 1.08 0.49
-6 -14 -4 1.29 0.45
-6 -14 -4 1.68 0.48
-6 14 -4 1.53 0.37
6 14 4 0.87 0.53
-6 14 -4 0.85 0.35
-8 -14 -4 2.06 0.49
8 -14 4 1.06 0.49
-8 -14 -4 1.81 0.5
8 14 4 1.14 0.52
-8 14 -4 1.14 0.36
10 -14 4 1.55 0.54
-10 -14 -4 0.77 0.44
-10 -14 -4 0.95 0.43
-10 14 -4 1.24 0.38
10 14 4 0.31 0.48
12 -14 4 3.74 0.72
-12 -14 -4 5.92 0.72
-12 -14 -4 4.68 0.7
12 14 4 4.52 0.85
12 14 4 3.33 0.79
-12 14 -4 5.22 0.63
14 -14 4 2.04 0.64
-14 -14 -4 2.27 0.56
-14 -14 -4 3.09 0.59
14 14 4 3.29 0.81
14 14 4 2.44 0.75
-14 14 -4 2.42 0.51
11 -15 -4 13.88 1.05
11 -15 -4 14.96 1.18
-11 -15 4 14.91 1.19
11 15 -4 15.05 1.01
-11 15 4 10.61 1.11
-9 -15 4 16.63 1.19
9 -15 -4 15.05 1.2
9 -15 -4 13.81 1.02
9 15 -4 15.46 1
-9 15 4 14.1 1.15
7 -15 -4 6.58 0.82
7 -15 -4 7.48 0.83
-7 -15 4 6.84 0.84
7 15 -4 5.38 0.66
-7 15 4 5.96 0.87
5 -15 -4 -0.06 0.36
5 -15 -4 -0.5 0.38
-5 -15 4 0.2 0.38
5 15 -4 -0.27 0.28
-5 15 4 0.31 0.43
-3 -15 4 8.6 0.9
3 -15 -4 8.26 0.86
3 -15 -4 6.44 0.84
-3 -15 4 7.42 0.88
3 15 -4 8.74 0.8
-3 15 4 7.88 1.01
-1 -15 4 6.03 0.85
1 -15 -4 7.35 0.86
-1 -15 4 6.65 0.78
1 -15 -4 8.19 0.84
1 15 -4 7.33 0.7
-1 15 4 8.53 1.08
-1 -15 -4 9.14 0.9
-1 -15 -4 9.21 0.97
1 -15 4 8.56 0.97
1 -15 4 11.51 0.94
-1 15 -4 9.63 0.77
-1 15 -4 9.71 0.76
1 15 4 10.38 1.15
-3 -15 -4 7.46 0.85
3 -15 4 7.53 0.93
-3 -15 -4 6.89 0.8
-3 15 -4 9.16 0.74
3 15 4 7.34 1.01
-3 15 -4 7.39 0.7
-5 -15 -4 0.4 0.41
5 -15 4 0.38 0.49
-5 -15 -4 0.52 0.44
-5 15 -4 0 0.46
5 15 4 0.58 0.54
-5 15 -4 0.12 0.3
7 -15 4 -0.05 0.44
-7 -15 -4 0.05 0.38
-7 -15 -4 0.19 0.41
-7 15 -4 0.25 0.31
7 15 4 0.91 0.5
-9 -15 -4 5.37 0.76
-9 -15 -4 4.59 0.73
9 -15 4 4.46 0.77
9 15 4 4.7 0.87
-9 15 -4 5.31 0.63
-11 -15 -4 8.78 0.95
11 -15 4 6.83 0.91
-11 -15 -4 7.97 0.86
-11 15 -4 7.31 0.75
11 15 4 7.68 1.09
4 -16 -4 0.06 0.45
4 -16 -4 0.21 0.46
-4 -16 4 0.15 0.41
4 16 -4 -0.14 0.33
-4 16 4 0.78 0.54
-2 -16 4 0.29 0.39
2 -16 -4 0.02 0.44
2 -16 -4 0.37 0.43
-2 16 4 0.35 0.48
2 16 -4 0.06 0.33
0 -16 4 3.82 0.77
0 -16 -4 2.36 0.66
0 -16 -4 2.87 0.6
0 16 -4 2.42 0.48
0 16 4 2 0.62
-2 -16 -4 5.01 0.75
2 -16 4 4.1 0.76
-2 -16 -4 5.73 0.81
2 16 4 5.63 0.95
-2 16 -4 6.03 0.71
-2 16 -4 5.19 0.73
4 -16 4 0.64 0.52
-4 -16 -4 0.03 0.44
-4 -16 -4 0.25 0.43
4 16 4 -0.04 0.51
-4 16 -4 -0.07 0.31
28 0 -5 0.18 0.31
-28 0 5 -0.19 0.44
26 0 -5 0.26 0.28
-26 0 5 0.38 0.4
-24 0 5 -0.12 0.34
24 0 -5 -0.14 0.22
-22 0 5 0.21 0.33
22 0 -5 0.18 0.23
20 0 -5 0.77 0.25
-20 0 5 0.97 0.37
18 0 -5 -0.11 0.16
-18 0 5 -0.61 0.2
18 0 -5 -0.12 0.16
-16 0 5 -0.11 0.22
16 0 -5 0.12 0.17
16 0 -5 0.05 0.13
-14 0 5 -0.21 0.15
14 0 -5 -0.04 0.12
14 0 -5 0 0.15
12 0 -5 0.1 0.14
-12 0 5 -0.09 0.15
12 0 -5 -0.07 0.1
-12 0 5 0.01 0.11
-8 0 5 0.16 0.15
-8 0 5 -0.01 0.13
8 0 -5 0.09 0.12
8 0 -5 0.08 0.12
-8 0 5 0.04 0.15
6 0 -5 -0.08 0.11
-6 0 5 -0.05 0.13
-6 0 5 -0.11 0.11
6 0 -5 -0.01 0.12
-6 0 5 -0.02 0.13
6 0 -5 0.04 0.11
-4 0 5 0.05 0.12
4 0 -5 0.05 0.12
-4 0 5 -0.12 0.11
-4 0 5 0.06 0.14
4 0 -5 0 0.1
-4 0 5 0.07 0.13
4 0 -5 0.02 0.13
2 0 -5 0.04 0.11
-2 0 5 -0.03 0.12
-2 0 5 0.11 0.16
-2 0 5 0.16 0.13
-2 0 5 -0.05 0.12
2 0 -5 0.04 0.12
0 0 5 0.69 0.16
0 0 5 0.57 0.22
0 0 5 0.94 0.2
0 0 5 0.66 0.2
0 0 -5 0.88 0.17
0 0 -5 0.9 0.22
-2 0 -5 0.02 0.12
2 0 5 0.04 0.1
-2 0 -5 0.08 0.11
-2 0 -5 0.09 0.09
2 0 5 -0.06 0.14
2 0 5 -0.02 0.13
2 0 5 -0.02 0.15
4 0 5 0 0.1
-4 0 -5 -0.21 0.12
4 0 5 0.15 0.19
4 0 5 -0.18 0.16
-4 0 -5 -0.02 0.08
-4 0 -5 -0.02 0.09
4 0 5 0.11 0.12
-6 0 -5 -0.09 0.08
-6 0 -5 0.11 0.08
6 0 5 -0.18 0.17
-6 0 -5 -0.03 0.15
6 0 5 0.22 0.19
6 0 5 -0.02 0.11
-8 0 -5 0.01 0.16
8 0 5 -0.05 0.16
8 0 5 -0.01 0.12
-8 0 -5 0.13 0.1
8 0 5 0.03 0.19
-8 0 -5 0.03 0.07
-10 0 -5 0.97 0.11
-10 0 -5 1.16 0.28
12 0 5 0.17 0.24
12 0 5 0.1 0.15
-12 0 -5 0.09 0.13
-12 0 -5 -0.07 0.15
-14 0 -5 -0.03 0.11
14 0 5 -0.13 0.16
14 0 5 0 0.27
-14 0 -5 0.1 0.2
-16 0 -5 -0.09 0.13
16 0 5 -0.28 0.16
-16 0 -5 -0.15 0.21
16 0 5 0.09 0.28
-18 0 -5 -0.06 0.23
18 0 5 -0.26 0.28
18 0 5 0.34 0.22
-18 0 -5 0.07 0.16
-20 0 -5 1.66 0.41
20 0 5 1.25 0.49
22 0 5 -0.6 0.33
-22 0 -5 0.3 0.21
-22 0 -5 -0.18 0.26
-24 0 -5 0.27 0.34
24 0 5 0.45 0.47
-24 0 -5 -0.01 0.23
-26 0 -5 0.7 0.4
26 0 5 -0.42 0.46
-28 0 -5 0.31 0.42
28 0 5 -0.19 0.58
29 -1 -5 15.83 0.95
-29 -1 5 16.87 1.31
29 1 -5 14.05 0.91
-29 1 5 15.49 1.28
-27 -1 5 12.56 1.18
27 -1 -5 12.1 0.78
27 1 -5 10.41 0.75
-27 1 5 10.84 1.13
-25 -1 5 1.74 0.55
25 -1 -5 1.14 0.35
-25 1 5 1.3 0.51
25 1 -5 0.76 0.32
23 -1 -5 2.93 0.44
-23 -1 5 3.76 0.66
-23 1 5 2.96 0.58
23 1 -5 2.93 0.45
21 -1 -5 8.06 0.59
-21 -1 5 7.74 0.85
21 1 -5 7.59 0.55
21 1 -5 8.73 0.61
-21 1 5 7.73 0.83
19 -1 -5 18.58 0.85
-19 -1 5 22.21 1.14
-19 1 5 20.89 1.1
19 1 -5 19.68 0.89
19 1 -5 19.43 0.81
17 -1 -5 16.54 0.73
-17 -1 5 18.27 0.98
17 -1 -5 16.81 0.77
17 1 -5 18.23 0.72
-17 1 5 18.46 0.99
17 1 -5 16.42 0.79
15 -1 -5 5.22 0.34
-15 -1 5 5.06 0.6
15 -1 -5 4.82 0.46
15 1 -5 4.99 0.47
-15 1 5 4.33 0.54
15 1 -5 4.51 0.35
-13 -1 5 0.61 0.25
-13 -1 5 0.54 0.22
13 -1 -5 0.66 0.15
13 -1 -5 0.36 0.17
-13 1 5 0.84 0.27
13 1 -5 0.7 0.21
-13 1 5 0.7 0.17
13 1 -5 0.68 0.19
-11 -1 5 3.91 0.47
-11 -1 5 5.32 0.49
11 -1 -5 5.55 0.39
11 -1 -5 4.47 0.3
-11 1 5 4.66 0.34
11 1 -5 5.07 0.36
-11 1 5 4.82 0.52
11 1 -5 4.34 0.42
9 -1 -5 54.92 1.45
-9 -1 5 53.39 1.63
9 -1 -5 51.96 1.52
-9 -1 5 52.93 1.68
-9 -1 5 55.45 1.4
-9 1 5 56.03 1.52
-9 1 5 55.03 1.58
9 1 -5 56.79 1.6
9 1 -5 56.21 1.37
9 1 -5 55.86 1.52
-9 1 5 52.24 1.68
7 -1 -5 64.23 1.7
-7 -1 5 62.9 1.85
7 -1 -5 63.24 1.72
-7 -1 5 63.69 1.83
-7 -1 5 66.29 1.66
-7 1 5 60.89 1.76
-7 1 5 63.26 1.73
7 1 -5 65.95 1.77
7 1 -5 63.62 1.61
-7 1 5 63.27 1.86
7 1 -5 68.56 1.81
-5 -1 5 39.43 1.19
-5 -1 5 37.47 1.27
-5 -1 5 39.86 1.29
5 -1 -5 41.99 1.22
5 -1 -5 39.55 1.24
-5 1 5 42.02 1.32
5 1 -5 41.8 1.26
5 1 -5 40.91 1.16
5 1 -5 41.09 1.29
-5 1 5 43.31 1.32
-5 1 5 40.15 1.25
-5 1 5 40.94 1.25
3 -1 -5 39.05 1.26
3 -1 -5 39.15 1.17
-3 -1 5 38.64 1.22
-3 -1 5 38.48 1.35
-3 -1 5 40.27 1.25
-3 -1 5 40.14 1.27
-3 1 5 39.76 1.21
-3 1 5 41.17 1.33
3 1 -5 41.78 1.32
-3 1 5 39.13 1.26
3 1 -5 41.23 1.18
-3 1 5 39.74 1.25
1 -1 -5 6.97 0.39
1 -1 -5 6.32 0.4
-1 -1 5 6.27 0.4
-1 -1 5 6.85 0.53
1 -1 -5 6.23 0.38
-1 -1 5 6.63 0.45
1 -1 -5 6.78 0.44
1 -1 -5 6.97 0.47
-1 -1 5 5.59 0.42
-1 1 5 7.15 0.43
-1 1 5 8.06 0.51
-1 1 5 7.08 0.52
1 1 -5 6.19 0.4
1 1 -5 8.03 0.52
-1 1 5 6.99 0.42
1 -1 5 12.16 0.74
1 -1 5 14.03 0.57
-1 -1 -5 14.57 0.57
1 -1 5 14.55 0.66
-1 -1 -5 15.17 0.6
-1 -1 -5 13.47 0.66
1 -1 5 13.79 0.68
-1 1 -5 14.44 0.54
1 1 5 14.28 0.72
1 1 5 14.96 0.78
-1 1 -5 14.24 0.73
-1 1 -5 14.74 0.65
1 1 5 14.25 0.61
1 1 5 14.53 0.6
-3 -1 -5 88.24 2.36
-3 -1 -5 84.2 2.11
3 -1 5 88.05 2.12
3 -1 5 83.63 2.51
3 -1 5 87.12 2.39
3 -1 5 88.24 2.29
-3 -1 -5 87.49 2.19
3 1 5 91.5 2.22
3 1 5 87.07 2.15
3 1 5 86.45 2.42
-3 1 -5 87.4 2.32
-3 1 -5 88.04 2.1
3 1 5 87.24 2.51
5 -1 5 54.06 1.86
5 -1 5 52.75 1.59
-5 -1 -5 55.3 1.7
-5 -1 -5 56.05 1.51
5 -1 5 55.1 1.39
-5 -1 -5 56.05 1.41
-5 1 -5 56.77 1.68
-5 1 -5 56.15 1.37
5 1 5 52.9 1.82
5 1 5 56.56 1.54
-5 1 -5 57.66 1.43
5 1 5 54.12 1.76
7 -1 5 18.84 0.77
-7 -1 -5 17.08 0.67
7 -1 5 16.74 0.94
-7 -1 -5 16.62 0.82
-7 -1 -5 17.22 0.56
7 1 5 17.81 0.69
7 1 5 16.41 0.92
-7 1 -5 16.65 0.8
-7 1 -5 17.23 0.59
7 1 5 18.9 0.92
-7 1 -5 18.14 0.51
9 -1 5 0.14 0.24
-9 -1 -5 0.07 0.08
-9 -1 -5 -0.1 0.17
9 -1 5 0.19 0.15
-9 -1 -5 0.3 0.14
-9 1 -5 0.02 0.16
-9 1 -5 0.11 0.09
9 1 5 0.35 0.26
9 1 5 0.03 0.13
9 1 5 0.29 0.22
-11 -1 -5 16.06 0.5
-11 -1 -5 16.92 0.87
11 -1 5 15.63 0.97
11 -1 5 17.68 0.77
-11 -1 -5 16.34 0.66
-11 1 -5 15.92 0.83
11 1 5 14.26 0.88
11 1 5 16.99 0.7
-11 1 -5 17.43 0.6
11 1 5 15.14 0.97
13 -1 5 16.74 0.78
-13 -1 -5 16.31 0.69
13 -1 5 16.77 1.05
-13 -1 -5 15.39 0.87
13 1 5 18.07 0.74
13 1 5 15.65 1.02
-13 1 -5 15.72 0.61
13 1 5 16.43 0.96
-13 1 -5 16.66 0.89
-15 -1 -5 12.06 0.8
15 -1 5 13.84 1
15 -1 5 13.17 0.71
-15 -1 -5 12.33 0.6
15 1 5 10.31 0.92
-15 1 -5 11.87 0.79
15 1 5 13.28 0.66
-15 1 -5 14.17 0.58
17 -1 5 29.93 1.56
17 -1 5 32.32 1.24
-17 -1 -5 31.72 1.1
-17 -1 -5 33.18 1.4
-17 1 -5 32.95 1.05
17 1 5 32.59 1.63
-17 1 -5 31.4 1.35
17 1 5 32.99 1.16
-19 -1 -5 13.93 0.92
-19 -1 -5 13.37 0.68
19 -1 5 12.82 0.78
19 -1 5 12.68 1.09
-19 1 -5 13.84 0.89
-19 1 -5 13.29 0.65
19 1 5 13.68 1.14
21 -1 5 2.82 0.69
-21 -1 -5 1.44 0.32
21 -1 5 1.77 0.41
-21 -1 -5 2.05 0.47
-21 1 -5 1.81 0.45
21 1 5 1.88 0.59
-21 1 -5 2.07 0.36
23 -1 5 -0.23 0.24
-23 -1 -5 0.07 0.23
-23 -1 -5 0.19 0.32
23 -1 5 -0.1 0.42
23 1 5 -0.44 0.39
-23 1 -5 0.29 0.31
25 -1 5 2.68 0.76
-25 -1 -5 2.49 0.56
-25 -1 -5 1.38 0.34
-25 1 -5 2.28 0.52
25 1 5 2.72 0.81
27 -1 5 4.44 1.01
-27 -1 -5 4.27 0.6
-27 -1 -5 4.48 0.74
27 1 5 4.21 0.91
-27 1 -5 3.72 0.67
29 -1 5 14.65 1.63
28 -2 -5 0.56 0.34
-28 -2 5 0.01 0.47
-28 2 5 -0.32 0.42
28 2 -5 0.01 0.29
-26 -2 5 2.23 0.63
26 -2 -5 2.95 0.49
26 2 -5 2.99 0.47
-26 2 5 1.99 0.56
-24 -2 5 4.1 0.69
24 -2 -5 3.51 0.47
-24 2 5 3.02 0.6
24 2 -5 3.52 0.49
-22 -2 5 1.13 0.43
22 -2 -5 0.86 0.3
-22 2 5 1.07 0.44
22 2 -5 0.96 0.3
22 2 -5 0.94 0.31
-20 -2 5 2.06 0.48
20 -2 -5 2.51 0.39
20 2 -5 2.16 0.38
20 2 -5 2 0.35
-20 2 5 2.15 0.5
18 -2 -5 0.19 0.21
-18 -2 5 -0.05 0.25
-18 2 5 -0.02 0.26
18 2 -5 0.06 0.16
18 2 -5 -0.11 0.17
16 -2 -5 0.34 0.18
-16 -2 5 0.33 0.27
-16 2 5 -0.03 0.23
16 2 -5 -0.26 0.13
16 2 -5 0.01 0.14
14 -2 -5 0.32 0.13
-14 -2 5 0.28 0.2
14 -2 -5 0.31 0.18
-14 -2 5 0.58 0.26
14 2 -5 0.28 0.19
-14 2 5 0.36 0.26
-14 2 5 0.48 0.18
14 2 -5 0.49 0.18
12 -2 -5 12.76 0.47
-12 -2 5 11.9 0.68
-12 -2 5 13.93 0.78
12 -2 -5 13.59 0.62
-12 2 5 13.89 0.78
-12 2 5 14.56 0.62
12 2 -5 13.49 0.59
12 2 -5 13.05 0.65
-10 -2 5 6.09 0.48
-10 -2 5 4.93 0.51
10 -2 -5 5.41 0.39
10 -2 -5 6.06 0.32
-10 2 5 5.64 0.57
10 2 -5 6.21 0.46
10 2 -5 7.07 0.42
-10 2 5 6.41 0.43
-8 -2 5 2.89 0.38
8 -2 -5 2.91 0.3
8 -2 -5 3.39 0.3
-8 -2 5 3.02 0.38
-8 2 5 2.98 0.34
-8 2 5 3.02 0.42
8 2 -5 2.9 0.22
8 2 -5 3.37 0.37
8 2 -5 3.12 0.35
-6 -2 5 1.35 0.26
-6 -2 5 1.33 0.26
6 -2 -5 1.09 0.2
6 -2 -5 1.14 0.2
6 2 -5 1.34 0.19
-6 2 5 1.27 0.24
-6 2 5 1.55 0.24
6 2 -5 1.47 0.27
6 2 -5 1.31 0.25
-6 2 5 1.31 0.24
-6 2 5 1.41 0.28
4 -2 -5 0.42 0.16
-4 -2 5 0.33 0.16
4 -2 -5 0.41 0.15
4 -2 -5 0.56 0.15
-4 -2 5 0.68 0.21
4 2 -5 0.3 0.14
-4 2 5 0.69 0.2
4 2 -5 0.3 0.15
-4 2 5 0.54 0.16
-4 2 5 0.49 0.2
-4 2 5 0.51 0.18
2 -2 -5 2.93 0.29
2 -2 -5 4.2 0.36
-2 -2 5 3.98 0.43
2 -2 -5 4.12 0.33
-2 -2 5 3.16 0.42
-2 -2 5 3.81 0.37
-2 2 5 3.82 0.43
2 2 -5 3.67 0.42
-2 2 5 3.8 0.39
2 2 -5 3.87 0.35
-2 2 5 3.52 0.34
-2 2 5 3.82 0.43
0 -2 5 30.6 1.22
0 -2 -5 32.37 0.96
0 -2 5 31.52 1
0 -2 -5 32.01 1.03
0 -2 5 32.08 1.11
0 -2 -5 32.08 1.01
0 2 5 30.19 1.13
0 2 5 32.43 1.04
0 2 5 31.69 1.18
0 2 5 31.31 0.98
0 2 -5 29.83 1.16
0 2 -5 33.47 1.05
2 -2 5 73.39 1.83
-2 -2 -5 71.17 1.91
-2 -2 -5 72.12 1.85
2 -2 5 72.12 2
2 -2 5 70.42 2.19
-2 2 -5 70.16 1.95
-2 2 -5 74.75 2.15
-2 2 -5 73.61 1.74
2 2 5 74.42 2.16
2 2 5 69.91 1.87
2 2 5 74.48 2.12
2 2 5 72.74 1.85
4 -2 5 3.46 0.48
4 -2 5 4.26 0.43
-4 -2 -5 3.23 0.26
4 -2 5 4.21 0.26
-4 -2 -5 4.77 0.5
-4 -2 -5 3.69 0.37
4 2 5 4.06 0.3
-4 2 -5 3.77 0.24
4 2 5 4.2 0.5
4 2 5 3.91 0.5
-4 2 -5 4.09 0.43
6 -2 5 0.34 0.23
6 -2 5 0.56 0.2
-6 -2 -5 0.53 0.17
-6 -2 -5 0.68 0.14
-6 -2 -5 0.45 0.22
6 -2 5 0.85 0.13
-6 2 -5 0.62 0.12
6 2 5 0.84 0.28
6 2 5 0.92 0.18
6 2 5 1.12 0.32
-6 2 -5 0.88 0.23
-6 2 -5 0.79 0.12
-8 -2 -5 2.69 0.41
-8 -2 -5 2.99 0.23
8 -2 5 3.25 0.39
8 -2 5 1.97 0.41
-8 -2 -5 2.82 0.31
-8 2 -5 2.45 0.2
-8 2 -5 2.68 0.38
8 2 5 2.69 0.44
8 2 5 2.03 0.43
8 2 5 2.87 0.3
10 -2 5 17.66 1.03
-10 -2 -5 20.18 0.78
-10 -2 -5 20.24 0.63
10 -2 5 18.99 0.84
-10 -2 -5 20.02 0.95
-10 2 -5 18.67 0.9
10 2 5 19.07 1.07
10 2 5 19.19 1.01
-10 2 -5 19.86 0.63
10 2 5 21.37 0.75
-12 -2 -5 1.64 0.36
-12 -2 -5 1.71 0.19
12 -2 5 1.28 0.38
12 -2 5 1.79 0.33
-12 -2 -5 1.51 0.26
-12 2 -5 1.67 0.21
12 2 5 0.96 0.36
-12 2 -5 1.43 0.34
12 2 5 1.92 0.43
12 2 5 1.67 0.25
14 -2 5 7.85 0.87
-14 -2 -5 7.06 0.71
14 -2 5 6.18 0.59
-14 -2 -5 6.18 0.46
-14 2 -5 7.01 0.68
14 2 5 7.14 0.77
14 2 5 7.38 0.45
14 2 5 6.56 0.78
-14 2 -5 6.6 0.37
-16 -2 -5 0.89 0.23
16 -2 5 0.89 0.3
-16 -2 -5 0.6 0.29
16 -2 5 0.65 0.37
16 2 5 1.17 0.4
-16 2 -5 1.32 0.34
16 2 5 1.27 0.47
-16 2 -5 0.91 0.2
-18 -2 -5 9.97 0.59
-18 -2 -5 9.35 0.89
18 -2 5 9.28 1.04
18 -2 5 8.58 0.76
-18 2 -5 11.25 0.79
18 2 5 8.33 0.98
-20 -2 -5 16.43 0.82
-20 -2 -5 15.93 1.02
20 -2 5 18.01 1.28
20 -2 5 16.75 0.93
20 2 5 15.31 1.22
-20 2 -5 15.81 0.97
-22 -2 -5 14.81 1.02
22 -2 5 14.83 1.23
22 -2 5 14.89 0.94
-22 -2 -5 14.84 0.8
-22 2 -5 14.65 0.98
22 2 5 14.45 1.27
24 -2 5 5.4 0.71
24 -2 5 4.94 0.96
-24 -2 -5 4.57 0.57
-24 -2 -5 5.55 0.78
-24 2 -5 6.06 0.76
24 2 5 6.06 1.04
-26 -2 -5 0.09 0.41
26 -2 5 1.1 0.62
-26 -2 -5 0.28 0.31
-26 2 -5 0.43 0.39
26 2 5 0.7 0.6
-28 -2 -5 2.23 0.57
28 -2 5 2.77 0.84
-28 -2 -5 2.41 0.52
28 2 5 2.41 0.85
-28 2 -5 1.75 0.54
-29 -3 5 2.03 0.7
29 -3 -5 1.72 0.45
29 3 -5 2.88 0.52
-29 3 5 1.83 0.63
-27 -3 5 2.02 0.59
27 -3 -5 2.83 0.5
27 3 -5 2.38 0.45
-27 3 5 3.02 0.68
-25 -3 5 0.84 0.48
25 -3 -5 0.89 0.33
25 3 -5 0.99 0.35
-25 3 5 0.26 0.42
25 3 -5 0.84 0.38
23 -3 -5 0.12 0.25
-23 -3 5 0.48 0.41
23 3 -5 -0.07 0.25
-23 3 5 0.23 0.38
23 3 -5 0.46 0.26
-21 -3 5 4.48 0.67
21 -3 -5 4.97 0.51
21 3 -5 5.24 0.55
-21 3 5 5.7 0.74
21 3 -5 6.53 0.61
-19 -3 5 5.44 0.69
19 -3 -5 4.1 0.46
19 3 -5 4.9 0.48
-19 3 5 4.56 0.66
19 3 -5 4.67 0.5
17 -3 -5 8.85 0.56
-17 -3 5 7.84 0.77
17 3 -5 9.28 0.59
17 3 -5 9.09 0.55
-17 3 5 9.33 0.76
15 -3 -5 0.27 0.18
-15 -3 5 0.66 0.29
-15 -3 5 0.11 0.2
15 3 -5 0.17 0.19
15 3 -5 0.31 0.18
-15 3 5 0.35 0.17
-15 3 5 0.18 0.25
-13 -3 5 0.6 0.25
-13 -3 5 1.46 0.34
13 -3 -5 1.37 0.25
-13 3 5 1.6 0.27
-13 3 5 0.8 0.29
13 3 -5 1.6 0.3
13 3 -5 1.91 0.29
-11 -3 5 3.68 0.44
11 -3 -5 3.32 0.34
11 -3 -5 3.37 0.22
-11 -3 5 3.54 0.47
11 3 -5 3.89 0.38
11 3 -5 3.76 0.43
-11 3 5 3.38 0.38
-11 3 5 3.87 0.5
-9 -3 5 0.99 0.27
9 -3 -5 1.71 0.19
9 -3 -5 1.46 0.23
-9 -3 5 1.28 0.28
-9 3 5 1.51 0.31
-9 3 5 2.23 0.31
9 3 -5 0.99 0.22
9 3 -5 1.42 0.27
7 -3 -5 2.27 0.25
7 -3 -5 2.12 0.33
-7 -3 5 2.09 0.33
-7 -3 5 1.87 0.32
7 -3 -5 2.36 0.27
-7 3 5 2.23 0.37
7 3 -5 1.92 0.29
7 3 -5 2.19 0.31
7 3 -5 2.04 0.18
-7 3 5 2.07 0.32
5 -3 -5 4.56 0.31
-5 -3 5 4.39 0.45
5 -3 -5 4.3 0.34
-5 -3 5 5.04 0.41
5 -3 -5 3.89 0.4
-5 3 5 4.59 0.47
-5 3 5 4.77 0.38
5 3 -5 3.92 0.41
5 3 -5 4.68 0.28
-5 3 5 5.09 0.48
3 -3 -5 4.84 0.38
-3 -3 5 5.79 0.52
-3 -3 5 6.55 0.43
3 -3 -5 6.09 0.34
3 -3 -5 6.1 0.41
3 3 -5 5.91 0.34
-3 3 5 5.48 0.42
-3 3 5 5.66 0.44
-3 3 5 5.81 0.46
3 3 -5 6.39 0.48
-3 3 5 5.95 0.36
1 -3 -5 0.1 0.12
-1 -3 5 0.38 0.21
-1 -3 5 -0.07 0.14
-1 -3 5 0.07 0.12
1 -3 -5 -0.03 0.08
1 -3 -5 -0.06 0.1
1 3 -5 -0.07 0.14
-1 3 5 -0.04 0.12
-1 3 5 0.18 0.12
1 3 -5 -0.01 0.11
-1 3 5 0 0.15
-1 3 5 0.08 0.16
1 -3 5 5.03 0.58
-1 -3 -5 4.95 0.35
-1 -3 -5 4.88 0.3
1 -3 5 4.96 0.34
-1 -3 -5 4.38 0.42
1 -3 5 5.2 0.49
1 3 5 5.71 0.49
-1 3 -5 5.92 0.49
-1 3 -5 5.04 0.36
1 3 5 5.88 0.34
1 3 5 6.24 0.58
-1 3 -5 4.53 0.25
1 3 5 5.45 0.39
-3 -3 -5 11.55 0.51
3 -3 5 11.65 0.75
3 -3 5 11.11 0.61
-3 -3 -5 11.58 0.46
-3 -3 -5 10.69 0.56
3 -3 5 11.16 0.47
3 3 5 11.38 0.47
3 3 5 12.28 0.73
-3 3 -5 11.08 0.7
3 3 5 10.92 0.68
-3 3 -5 11.46 0.39
-3 3 -5 11.34 0.58
-5 -3 -5 40.86 1.26
5 -3 5 40.18 1.53
5 -3 5 39.78 1.05
-5 -3 -5 39.18 1.39
5 -3 5 39.18 1.33
-5 -3 -5 37.83 1.13
5 3 5 39 1.44
-5 3 -5 42.74 1.32
-5 3 -5 36.77 1.42
5 3 5 41.64 1.12
-5 3 -5 40.14 0.98
5 3 5 39.03 1.47
-7 -3 -5 19.66 0.8
-7 -3 -5 20.77 0.95
7 -3 5 20.13 0.87
7 -3 5 20.5 0.56
7 -3 5 20.31 1.06
-7 -3 -5 19.94 0.68
7 3 5 20.36 1.04
-7 3 -5 20.31 0.87
-7 3 -5 19.84 0.56
-7 3 -5 20.48 0.55
7 3 5 21.53 0.69
7 3 5 19.88 0.99
-9 -3 -5 17.62 0.9
-9 -3 -5 17.64 0.75
-9 -3 -5 17.98 0.63
9 -3 5 18.04 0.83
9 -3 5 17.86 1.02
9 3 5 17.57 0.63
9 3 5 17.67 0.96
9 3 5 19.63 1.05
-9 3 -5 19.64 0.87
-9 3 -5 17.82 0.54
11 -3 5 0.04 0.18
-11 -3 -5 0.44 0.24
11 -3 5 0.34 0.27
-11 -3 -5 0.14 0.11
-11 -3 -5 0.12 0.16
-11 3 -5 0.05 0.08
-11 3 -5 0.13 0.17
11 3 5 0.02 0.2
11 3 5 0.04 0.12
11 3 5 -0.09 0.23
-13 -3 -5 10.31 0.58
-13 -3 -5 9.86 0.73
13 -3 5 8.75 0.62
-13 -3 -5 10.18 0.45
13 -3 5 9.46 0.95
13 3 5 9.92 0.89
-13 3 -5 9.57 0.66
13 3 5 10.86 0.88
15 -3 5 0.28 0.24
-15 -3 -5 0.35 0.2
-15 -3 -5 0.16 0.25
15 -3 5 0.53 0.33
15 3 5 0.81 0.4
15 3 5 0.56 0.3
-15 3 -5 0.61 0.28
-17 -3 -5 2.95 0.52
-17 -3 -5 3.18 0.4
17 -3 5 2.44 0.43
17 -3 5 2.6 0.61
17 3 5 2.21 0.56
-17 3 -5 2.61 0.46
17 3 5 1.44 0.45
-19 -3 -5 2.49 0.52
19 -3 5 2.21 0.45
19 -3 5 1.49 0.5
-19 -3 -5 2.1 0.35
-19 3 -5 2.16 0.46
19 3 5 1.45 0.53
-21 -3 -5 0.03 0.32
21 -3 5 -0.27 0.24
21 -3 5 0.26 0.4
-21 -3 -5 -0.24 0.2
21 3 5 0.06 0.4
-21 3 -5 -0.19 0.22
23 -3 5 0.31 0.31
23 -3 5 0.31 0.5
-23 -3 -5 0.15 0.36
-23 -3 -5 0.24 0.26
-23 3 -5 -0.04 0.3
23 3 5 0.38 0.56
25 -3 5 0.94 0.44
-25 -3 -5 1.25 0.48
-25 -3 -5 2.15 0.45
25 -3 5 2.59 0.76
25 3 5 2.02 0.73
-25 3 -5 2.52 0.55
-27 -3 -5 8.6 0.97
27 -3 5 9.76 1.31
27 -3 5 9.96 1.03
-27 -3 -5 11.16 0.83
-27 3 -5 9.34 0.94
27 3 5 10.39 1.43
-28 -4 5 5.12 0.86
28 -4 -5 3.45 0.56
28 -4 -5 3.88 0.73
28 4 -5 4.23 0.56
-28 4 5 4.04 0.78
-26 -4 5 20.95 1.37
26 -4 -5 21.05 1.06
26 -4 -5 20.88 1.27
26 4 -5 19.12 1.01
26 4 -5 19.52 1.14
-26 4 5 20.37 1.31
-24 -4 5 33.29 1.65
24 -4 -5 32.67 1.3
-24 4 5 35.53 1.62
24 4 -5 33.23 1.3
24 4 -5 33.89 1.4
-22 -4 5 14.7 1.06
-22 -4 5 17.52 1.04
22 -4 -5 14.05 0.8
22 4 -5 15.49 0.84
22 4 -5 15.81 0.87
-22 4 5 16.02 1.04
-20 -4 5 3.8 0.63
-20 -4 5 3.52 0.54
20 -4 -5 3.34 0.43
-20 4 5 3.99 0.64
20 4 -5 4.96 0.53
20 4 -5 4.19 0.5
18 -4 -5 0.99 0.27
-18 -4 5 0.38 0.33
-18 -4 5 1.75 0.4
18 4 -5 1.11 0.28
18 4 -5 1.09 0.28
-18 4 5 0.79 0.33
-16 -4 5 6.73 0.7
-16 -4 5 5.31 0.58
16 -4 -5 6.42 0.47
16 -4 -5 6 0.65
-16 -4 5 6.03 0.59
16 4 -5 6.31 0.59
-16 4 5 5.64 0.65
-16 4 5 6.31 0.5
16 4 -5 5.88 0.47
14 -4 -5 0.9 0.3
-14 -4 5 1.71 0.35
14 -4 -5 1.52 0.26
-14 -4 5 0.87 0.32
-14 4 5 0.95 0.26
14 4 -5 1.88 0.35
-14 4 5 0.81 0.32
14 4 -5 1.39 0.27
12 -4 -5 13.41 0.76
12 -4 -5 12.16 0.59
-12 -4 5 12.45 0.75
-12 -4 5 13.39 0.75
-12 4 5 13.42 0.68
-12 4 5 11.69 0.76
12 4 -5 12.63 0.69
12 4 -5 12.91 0.63
-10 -4 5 53.79 1.71
-10 -4 5 50.93 1.65
10 -4 -5 52.51 1.46
10 -4 -5 53.64 1.68
10 4 -5 51.66 1.62
-10 4 5 52.61 1.6
-10 4 5 52.58 1.73
10 4 -5 52.26 1.54
8 -4 -5 0.11 0.16
8 -4 -5 0.13 0.12
8 -4 -5 0.18 0.11
-8 -4 5 0.03 0.17
-8 -4 5 -0.07 0.14
8 4 -5 0.11 0.15
-8 4 5 -0.02 0.16
-8 4 5 0.02 0.16
8 4 -5 0.08 0.07
8 4 -5 -0.06 0.13
6 -4 -5 1.55 0.22
-6 -4 5 2.09 0.32
6 -4 -5 1.71 0.22
-6 -4 5 1.55 0.31
6 -4 -5 1.31 0.27
-6 4 5 1.21 0.27
6 4 -5 1.59 0.28
6 4 -5 1.9 0.18
-6 4 5 1.67 0.24
-6 4 5 1.66 0.31
-4 -4 5 28.38 1.11
4 -4 -5 30.51 0.89
4 -4 -5 29.99 1.06
4 -4 -5 28.41 0.96
-4 -4 5 29.89 1.05
4 4 -5 30.23 0.87
-4 4 5 28.91 1.01
-4 4 5 29.41 1.09
4 4 -5 30.44 1.11
-4 4 5 30.74 1.13
-2 -4 5 90.19 2.3
2 -4 -5 88.55 2.11
-2 -4 5 87.93 2.42
2 -4 -5 90.36 2.31
2 -4 -5 86.96 2.34
-2 4 5 88.66 2.35
-2 4 5 88.54 2.36
-2 4 5 88.7 2.45
2 4 -5 86.91 2.16
2 4 -5 87.02 2.44
0 -4 -5 109.67 2.69
0 -4 -5 107.26 2.75
0 -4 5 103.09 2.81
0 -4 5 107.33 2.64
0 -4 5 105.58 2.97
0 -4 -5 106.48 2.49
0 4 5 110.75 2.86
0 4 -5 105.76 2.89
0 4 -5 105.99 2.63
0 4 5 110 2.75
0 4 5 110.36 2.91
0 4 5 110.08 2.53
-2 -4 -5 80.82 2.2
2 -4 5 84.38 2.07
2 -4 5 81.34 2.29
2 -4 5 80.51 2.45
-2 -4 -5 84.26 2.12
-2 -4 -5 81.64 1.94
-2 4 -5 83.44 2.15
2 4 5 83.62 1.98
2 4 5 81.4 2.38
2 4 5 82.24 2.36
-2 4 -5 82.22 2.39
4 -4 5 20.86 1.06
-4 -4 -5 23.12 0.89
4 -4 5 21.44 0.94
-4 -4 -5 21.49 0.66
4 -4 5 22.22 0.72
-4 -4 -5 23.29 0.8
4 4 5 24 0.7
4 4 5 20.92 1
-4 4 -5 22.94 0.87
-4 4 -5 21.29 1.01
4 4 5 22.36 1.03
-6 -4 -5 4.53 0.25
6 -4 5 4.15 0.57
6 -4 5 4.28 0.26
-6 -4 -5 4.61 0.33
-6 -4 -5 4.78 0.46
6 -4 5 5.13 0.54
6 4 5 4.61 0.27
6 4 5 4.28 0.56
-6 4 -5 4.33 0.44
6 4 5 5.23 0.59
-6 4 -5 5.1 0.57
-8 -4 -5 31.49 1.27
-8 -4 -5 32.41 0.99
8 -4 5 32.97 1.22
8 -4 5 30.77 1.39
-8 -4 -5 30.58 1.11
8 4 5 33.17 0.89
-8 4 -5 34.32 1.18
8 4 5 32.13 1.34
-8 4 -5 29.8 1.3
8 4 5 32.46 1.38
-10 -4 -5 74.51 2.11
-10 -4 -5 77.66 2.36
10 -4 5 77.05 2.25
-10 -4 -5 79.17 1.95
10 -4 5 79.5 2.54
10 4 5 74.92 2.43
-10 4 -5 74.37 2.19
10 4 5 80.1 2.54
-12 -4 -5 29.81 1.31
-12 -4 -5 32.48 1.16
12 -4 5 32.57 1.5
12 -4 5 32.57 1.27
-12 -4 -5 32.45 0.99
12 4 5 32.84 1.43
12 4 5 33.82 1.53
-12 4 -5 33.1 1.26
-14 -4 -5 2.22 0.27
14 -4 5 1.5 0.47
14 -4 5 2 0.41
-14 -4 -5 1.63 0.32
-14 -4 -5 1.94 0.44
-14 4 -5 1.68 0.37
14 4 5 1.15 0.39
14 4 5 1.19 0.44
-16 -4 -5 3.34 0.54
16 -4 5 3.25 0.49
16 -4 5 3.29 0.63
-16 -4 -5 2.38 0.38
16 4 5 2.44 0.54
16 4 5 2.54 0.56
-16 4 -5 2.9 0.48
18 -4 5 8.11 0.96
-18 -4 -5 8.42 0.86
18 -4 5 7.82 0.76
-18 -4 -5 8.45 0.6
18 4 5 8.26 0.93
-18 4 -5 7.02 0.72
18 4 5 8.54 1.02
-20 -4 -5 24.04 1.04
20 -4 5 22.16 1.17
20 -4 5 20.38 1.38
-20 -4 -5 23 1.26
-20 4 -5 24.81 1.19
20 4 5 23.74 1.54
20 4 5 24.16 1.37
22 -4 5 22.21 1.47
22 -4 5 22.85 1.22
-22 -4 -5 23.69 1.32
-22 -4 -5 21.41 1.04
22 4 5 22.09 1.57
-22 4 -5 23.08 1.19
24 -4 5 18.48 1.41
24 -4 5 16.23 1.09
-24 -4 -5 17.21 0.95
-24 -4 -5 16.03 1.16
24 4 5 17.57 1.5
-24 4 -5 15.42 1.02
-26 -4 -5 2.72 0.67
26 -4 5 3.62 0.85
-26 -4 -5 3.47 0.55
26 -4 5 4.23 0.71
26 4 5 4.5 0.97
-26 4 -5 4.75 0.71
-28 -4 -5 0.33 0.35
28 -4 5 -0.18 0.56
28 -4 5 0.58 0.49
-28 -4 -5 0.48 0.51
-28 4 -5 -0.12 0.37
28 4 5 -0.37 0.62
27 -5 -5 0.3 0.34
27 -5 -5 -0.36 0.38
-27 -5 5 0.32 0.44
-27 -5 5 -0.19 0.46
27 5 -5 0.05 0.32
-27 5 5 -0.28 0.43
27 5 -5 -0.11 0.37
25 -5 -5 0.91 0.36
25 -5 -5 0.44 0.43
-25 -5 5 0.29 0.48
-25 -5 5 0.77 0.39
25 5 -5 0.87 0.35
25 5 -5 0.48 0.4
-25 5 5 0.32 0.47
-23 -5 5 -0.07 0.4
23 -5 -5 0 0.36
23 -5 -5 -0.09 0.26
-23 -5 5 0.1 0.32
23 5 -5 0.09 0.26
-23 5 5 0.54 0.41
23 5 -5 0.08 0.29
21 -5 -5 0.23 0.25
-21 -5 5 0.29 0.34
-21 -5 5 -0.02 0.29
21 -5 -5 -0.38 0.28
21 5 -5 -0.2 0.23
21 5 -5 0.19 0.26
-21 5 5 -0.25 0.3
-19 -5 5 2.88 0.47
19 -5 -5 3.31 0.55
-19 -5 5 2.46 0.52
19 -5 -5 2.22 0.38
19 5 -5 2.97 0.44
-19 5 5 2.58 0.55
19 5 -5 2.55 0.4
17 -5 -5 0.99 0.34
-17 -5 5 0.69 0.36
17 -5 -5 1.02 0.27
-17 -5 5 1.11 0.33
-17 -5 5 1.26 0.33
-17 5 5 0.39 0.32
-17 5 5 0.96 0.32
17 5 -5 1.22 0.31
17 5 -5 0.73 0.27
15 -5 -5 1.58 0.36
-15 -5 5 1.45 0.37
15 -5 -5 1.68 0.28
-15 -5 5 1.67 0.35
-15 -5 5 1.75 0.38
-15 5 5 1.18 0.29
15 5 -5 1.36 0.32
15 5 -5 1.11 0.27
-15 5 5 1.2 0.36
13 -5 -5 14.69 0.65
-13 -5 5 14.57 0.81
-13 -5 5 13.37 0.83
13 -5 -5 13.96 0.8
-13 -5 5 15.66 0.77
13 5 -5 14.22 0.76
13 5 -5 14.68 0.69
-13 5 5 13.49 0.73
-13 5 5 14.52 0.85
-11 -5 5 3.3 0.45
11 -5 -5 4.24 0.37
11 -5 -5 3.2 0.45
-11 -5 5 3.72 0.5
-11 -5 5 4.65 0.46
11 5 -5 3.51 0.39
-11 5 5 3.54 0.43
-11 5 5 3.74 0.49
11 5 -5 3.4 0.43
-9 -5 5 8.86 0.62
9 -5 -5 8.74 0.45
9 -5 -5 9.03 0.6
-9 -5 5 9.6 0.63
-9 5 5 7.98 0.57
-9 5 5 8.47 0.62
9 5 -5 9.19 0.55
9 5 -5 7.87 0.55
7 -5 -5 0.33 0.2
-7 -5 5 0 0.16
-7 -5 5 -0.17 0.16
7 -5 -5 -0.04 0.11
7 -5 -5 0.03 0.1
7 5 -5 0.04 0.07
7 5 -5 0.22 0.17
-7 5 5 0.05 0.18
-7 5 5 -0.19 0.16
-5 -5 5 0.55 0.23
5 -5 -5 1.32 0.19
5 -5 -5 1.03 0.19
-5 -5 5 1.03 0.25
5 -5 -5 1.11 0.24
-5 5 5 1.03 0.25
5 5 -5 0.98 0.24
-5 5 5 1.23 0.28
-5 5 5 1.15 0.22
5 5 -5 1.28 0.16
3 -5 -5 12.95 0.49
-3 -5 5 12.03 0.7
3 -5 -5 12.09 0.67
-3 -5 5 13.38 0.64
3 -5 -5 14.32 0.68
3 5 -5 13.52 0.71
-3 5 5 12.53 0.64
3 5 -5 13.31 0.51
-3 5 5 13.96 0.71
-3 5 5 13.49 0.75
-1 -5 5 9.98 0.63
-1 -5 5 10.22 0.53
1 -5 -5 10.59 0.57
1 -5 -5 10.7 0.42
1 -5 -5 10.73 0.62
-1 5 5 10.39 0.66
-1 5 5 9.99 0.6
1 5 -5 9.74 0.46
1 5 -5 9.83 0.64
1 -5 5 0.38 0.21
1 -5 5 0.31 0.15
1 -5 5 0.25 0.25
-1 -5 -5 0.3 0.17
-1 -5 -5 0.51 0.21
-1 -5 -5 0.33 0.1
-1 5 -5 0.26 0.14
-1 5 -5 0.45 0.22
1 5 5 0.52 0.21
1 5 5 0.28 0.22
-3 -5 -5 -0.08 0.12
3 -5 5 0.18 0.17
3 -5 5 0.01 0.11
3 -5 5 0.3 0.23
-3 -5 -5 0.22 0.18
-3 -5 -5 -0.04 0.07
-3 5 -5 0.13 0.13
-3 5 -5 0 0.17
3 5 5 -0.03 0.18
3 5 5 0.04 0.21
5 -5 5 0.65 0.14
5 -5 5 0.73 0.25
-5 -5 -5 0.65 0.18
-5 -5 -5 0.61 0.1
-5 -5 -5 0.36 0.2
5 -5 5 0.4 0.26
-5 5 -5 0.35 0.17
5 5 5 0.65 0.27
-5 5 -5 0.73 0.26
5 5 5 0.31 0.24
7 -5 5 3.36 0.53
-7 -5 -5 3.25 0.33
7 -5 5 4.48 0.53
-7 -5 -5 3.3 0.4
-7 5 -5 3.05 0.39
-7 5 -5 3.44 0.52
7 5 5 2.51 0.47
7 5 5 3.79 0.52
9 -5 5 0.38 0.27
-9 -5 -5 0.42 0.21
-9 -5 -5 0.27 0.15
9 -5 5 0.05 0.18
9 5 5 0.29 0.24
-9 5 -5 -0.05 0.21
9 5 5 0.01 0.21
-9 5 -5 0.03 0.16
11 -5 5 0.24 0.25
-11 -5 -5 0.3 0.22
-11 -5 -5 -0.01 0.14
11 -5 5 0.43 0.3
-11 -5 -5 0.13 0.19
11 5 5 0.25 0.28
-11 5 -5 0.18 0.27
-11 5 -5 0.12 0.2
11 5 5 -0.34 0.2
13 -5 5 5.63 0.63
-13 -5 -5 5.78 0.67
13 -5 5 6.31 0.81
-13 -5 -5 5.07 0.39
-13 -5 -5 4.45 0.49
13 5 5 6.15 0.73
-13 5 -5 5.44 0.56
13 5 5 5.46 0.76
-15 -5 -5 21.07 1.12
-15 -5 -5 20.52 0.8
15 -5 5 20.7 1.24
15 -5 5 21.75 1.07
-15 -5 -5 19.29 0.91
15 5 5 21.25 1.3
-15 5 -5 19.65 0.98
15 5 5 20.98 1.2
-17 -5 -5 1.09 0.38
-17 -5 -5 1.49 0.34
17 -5 5 1.13 0.47
17 -5 5 0.84 0.34
-17 5 -5 1.14 0.34
17 5 5 0.16 0.36
17 5 5 1.01 0.48
-19 -5 -5 0.01 0.22
19 -5 5 -0.01 0.28
-19 -5 -5 -0.15 0.33
19 -5 5 -0.02 0.37
-19 5 -5 0.09 0.24
19 5 5 -0.02 0.32
19 5 5 0.55 0.44
21 -5 5 2.05 0.65
-21 -5 -5 0.48 0.29
21 -5 5 0.21 0.35
-21 -5 -5 0.7 0.43
21 5 5 0.35 0.41
21 5 5 -0.14 0.39
-21 5 -5 1.36 0.38
-23 -5 -5 0.37 0.41
23 -5 5 0.23 0.47
-23 -5 -5 -0.32 0.27
23 -5 5 0.05 0.35
-23 5 -5 0.13 0.32
23 5 5 0.43 0.54
25 -5 5 0.82 0.54
25 -5 5 0.02 0.38
-25 -5 -5 0.3 0.43
-25 -5 -5 0.1 0.31
25 5 5 -0.15 0.51
-25 5 -5 0.03 0.34
-27 -5 -5 -0.09 0.32
27 -5 5 -0.1 0.54
27 -5 5 0.86 0.52
-27 -5 -5 -0.12 0.46
-27 5 -5 0.28 0.41
27 5 5 0.46 0.64
26 -6 -5 8.21 0.94
-26 -6 5 6.71 0.87
26 -6 -5 6.95 0.71
-26 -6 5 10.63 1.16
26 6 -5 8.38 0.75
26 6 -5 7.53 0.85
-26 6 5 9.25 1.01
-24 -6 5 7.6 0.87
-24 -6 5 8.74 1.02
24 -6 -5 9.93 0.98
24 -6 -5 8.92 0.72
-24 6 5 9.62 1.02
24 6 -5 8.55 0.7
24 6 -5 8.21 0.83
22 -6 -5 13.24 0.97
22 -6 -5 12.76 0.79
-22 -6 5 12.1 1
-22 -6 5 13.11 0.95
-22 6 5 12.72 1.01
22 6 -5 14.16 0.9
22 6 -5 11.78 0.77
20 -6 -5 23.78 1.21
-20 -6 5 27.28 1.23
20 -6 -5 22.08 0.99
-20 -6 5 21.78 1.25
20 6 -5 24.62 1.09
20 6 -5 22.91 1.03
-20 6 5 24.52 1.29
-18 -6 5 0.43 0.28
18 -6 -5 0.96 0.3
18 -6 -5 1.32 0.4
-18 -6 5 0.88 0.34
-18 -6 5 1.31 0.46
18 6 -5 1.31 0.33
-18 6 5 1.29 0.43
-18 6 5 1.14 0.33
18 6 -5 1.23 0.33
16 -6 -5 3.71 0.54
-16 -6 5 3.08 0.46
-16 -6 5 3.57 0.58
16 -6 -5 3.43 0.4
-16 -6 5 2.99 0.48
-16 6 5 2.35 0.41
16 6 -5 3.97 0.49
-16 6 5 4.5 0.6
16 6 -5 3.69 0.44
14 -6 -5 18.33 0.96
-14 -6 5 17.37 0.85
14 -6 -5 17.7 0.76
-14 -6 5 17.2 0.97
-14 -6 5 19.38 0.95
-14 6 5 16.43 0.97
-14 6 5 17.51 0.88
14 6 -5 19.57 0.91
14 6 -5 17.47 0.81
-12 -6 5 19.8 1
-12 -6 5 20.17 0.98
-12 -6 5 20.88 0.88
12 -6 -5 20.69 0.98
12 -6 -5 20.25 0.78
12 6 -5 20.13 0.94
12 6 -5 19.46 0.85
-12 6 5 20.56 1.02
-12 6 5 18.68 0.92
10 -6 -5 16.77 0.68
-10 -6 5 18.63 0.78
-10 -6 5 19.18 0.93
-10 -6 5 17.59 0.91
10 -6 -5 17.84 0.87
-10 6 5 17.01 0.86
10 6 -5 19.14 0.81
-10 6 5 16.1 0.89
10 6 -5 18.58 0.87
-8 -6 5 14.41 0.8
-8 -6 5 16.04 0.84
8 -6 -5 15.28 0.61
8 -6 -5 16.38 0.81
-8 6 5 15.32 0.83
-8 6 5 15.03 0.82
8 6 -5 15.29 0.75
-6 -6 5 2.42 0.39
6 -6 -5 1.76 0.22
-6 -6 5 1.4 0.33
6 -6 -5 1.91 0.34
6 6 -5 1.92 0.18
-6 6 5 1.91 0.35
6 6 -5 1.8 0.31
-6 6 5 1.97 0.38
-4 -6 5 36.04 1.35
4 -6 -5 35.92 1.01
4 -6 -5 37.05 1.26
4 -6 -5 36.72 1.3
-4 -6 5 37.88 1.27
-4 6 5 37.14 1.16
-4 6 5 37.05 1.32
-4 6 5 36.26 1.36
4 6 -5 36.48 1
4 6 -5 35.36 1.29
2 -6 -5 123.45 3.12
2 -6 -5 113.01 2.71
2 -6 -5 120.89 3.02
-2 -6 5 119.42 3
-2 -6 5 119.22 3.17
2 6 -5 119.97 2.8
2 6 -5 118.63 3.14
-2 6 5 123.02 3.23
-2 6 5 121.03 3.03
0 -6 -5 107.56 2.43
0 -6 -5 103.82 2.83
0 -6 -5 105.79 2.73
0 -6 5 108.08 2.92
0 -6 5 110.82 2.71
0 6 5 109.71 3
0 6 -5 107.63 2.61
0 6 5 110.29 2.86
0 6 -5 102.47 2.9
2 -6 5 20.73 1.09
2 -6 5 23.78 0.85
-2 -6 -5 23.43 0.9
-2 -6 -5 24.06 0.99
2 -6 5 23.47 1.04
-2 -6 -5 24.9 0.65
2 6 5 23.47 1.1
-2 6 -5 24.12 1.08
2 6 5 22.74 1.02
-2 6 -5 24.11 0.86
4 -6 5 2.87 0.31
-4 -6 -5 2.68 0.33
4 -6 5 2.31 0.38
-4 -6 -5 2.39 0.36
4 -6 5 3.01 0.5
4 6 5 2.53 0.47
-4 6 -5 2.38 0.42
-4 6 -5 2.96 0.35
4 6 5 2.87 0.46
6 -6 5 0.54 0.3
-6 -6 -5 1.39 0.26
6 -6 5 1.36 0.33
6 -6 5 1.43 0.2
-6 -6 -5 1.61 0.31
-6 6 -5 1.94 0.4
6 6 5 1.19 0.35
-6 6 -5 1.27 0.25
6 6 5 1.38 0.37
8 -6 5 7.43 0.81
-8 -6 -5 7.72 0.58
8 -6 5 7.9 0.63
-8 -6 -5 7.42 0.47
8 6 5 7.46 0.8
-8 6 -5 8.9 0.56
-8 6 -5 7.51 0.65
8 6 5 7.07 0.76
10 -6 5 15.13 0.87
10 -6 5 15.48 1.01
-10 -6 -5 16.1 0.81
-10 -6 -5 16.03 0.69
-10 6 -5 17.04 0.99
10 6 5 15.51 1.01
-10 6 -5 15.45 0.78
10 6 5 15.73 0.99
-12 -6 -5 6.46 0.6
-12 -6 -5 6.79 0.74
12 -6 5 5.3 0.62
12 -6 5 7.22 0.83
-12 -6 -5 6.6 0.46
12 6 5 6.09 0.81
-12 6 -5 6.52 0.61
12 6 5 6.31 0.77
-12 6 -5 6.19 0.73
14 -6 5 4.94 0.74
-14 -6 -5 5.17 0.46
14 -6 5 3.93 0.56
-14 -6 -5 4.77 0.67
-14 -6 -5 4.79 0.53
-14 6 -5 5.65 0.73
14 6 5 3.68 0.64
-14 6 -5 4.12 0.53
14 6 5 5.93 0.84
-16 -6 -5 0.04 0.27
-16 -6 -5 0.1 0.23
16 -6 5 -0.07 0.34
-16 -6 -5 0.46 0.22
16 -6 5 0.25 0.29
16 6 5 0.22 0.36
-16 6 -5 -0.02 0.24
16 6 5 0.18 0.32
-18 -6 -5 1.8 0.48
18 -6 5 3.59 0.6
-18 -6 -5 2.68 0.44
18 -6 5 2.86 0.67
-18 6 -5 2.28 0.46
18 6 5 1.76 0.53
18 6 5 2.14 0.6
20 -6 5 12.22 1.24
-20 -6 -5 11.5 1.09
20 -6 5 12.06 1.09
-20 -6 -5 12.48 0.81
-20 6 -5 11.88 0.85
20 6 5 14.04 1.12
20 6 5 13.21 1.36
-22 -6 -5 14.14 1.07
-22 -6 -5 14.09 0.87
22 -6 5 12.42 1.3
22 -6 5 12.76 1.02
22 6 5 11.09 1.18
22 6 5 13.45 1.5
-22 6 -5 12.03 0.9
-24 -6 -5 23.97 1.2
24 -6 5 22.07 1.38
-24 -6 -5 24.97 1.44
24 -6 5 23.38 1.58
24 6 5 25.07 1.8
-24 6 -5 22.08 1.23
-26 -6 -5 13.9 1.28
26 -6 5 14.98 1.19
-26 -6 -5 16.13 1.02
26 -6 5 11.89 1.39
26 6 5 13.93 1.67
-26 6 -5 14.31 1.04
25 -7 -5 0.13 0.33
25 -7 -5 0.15 0.44
-25 -7 5 -0.06 0.38
-25 -7 5 -0.28 0.44
-25 7 5 0.3 0.47
25 7 -5 0.03 0.37
25 7 -5 0.13 0.32
-23 -7 5 0.18 0.39
23 -7 -5 0.03 0.39
-23 -7 5 0.36 0.36
23 -7 -5 -0.13 0.28
23 7 -5 0.12 0.29
23 7 -5 0.11 0.32
-23 7 5 -0.22 0.39
21 -7 -5 0.44 0.39
-21 -7 5 0.75 0.41
-21 -7 5 0.21 0.32
21 -7 -5 0.65 0.29
-21 7 5 0.89 0.45
21 7 -5 -0.09 0.28
21 7 -5 0.55 0.28
19 -7 -5 3.7 0.46
19 -7 -5 2.96 0.54
-19 -7 5 1.82 0.5
-19 -7 5 3.75 0.54
-19 -7 5 2.27 0.47
-19 7 5 1.9 0.41
-19 7 5 2.26 0.53
19 7 -5 2.55 0.43
19 7 -5 3.27 0.49
17 -7 -5 7.71 0.57
-17 -7 5 7.11 0.7
-17 -7 5 7.31 0.79
-17 -7 5 7.92 0.73
17 -7 -5 6.47 0.72
17 7 -5 7.01 0.6
-17 7 5 8.03 0.75
-17 7 5 7.62 0.8
17 7 -5 7.77 0.69
15 -7 -5 3.49 0.54
-15 -7 5 3.02 0.49
-15 -7 5 2.87 0.51
15 -7 -5 3.62 0.43
-15 -7 5 3.42 0.46
15 7 -5 3.51 0.45
15 7 -5 3.23 0.47
-15 7 5 3.58 0.59
-15 7 5 2.72 0.48
-13 -7 5 2.2 0.45
-13 -7 5 2.58 0.39
13 -7 -5 2.88 0.35
13 -7 -5 3 0.47
-13 -7 5 2.13 0.41
-13 7 5 3.33 0.48
-13 7 5 2.4 0.47
13 7 -5 2.31 0.41
13 7 -5 2.3 0.37
11 -7 -5 0.32 0.27
11 -7 -5 0.21 0.16
-11 -7 5 -0.06 0.24
-11 -7 5 0.18 0.17
-11 -7 5 0.12 0.26
11 7 -5 0.15 0.22
-11 7 5 0.22 0.26
11 7 -5 0.15 0.19
-11 7 5 0 0.22
9 -7 -5 0.92 0.2
-9 -7 5 0.76 0.29
-9 -7 5 0.96 0.23
-9 -7 5 0.93 0.31
9 -7 -5 0.98 0.29
9 7 -5 0.83 0.25
-9 7 5 0.76 0.3
-9 7 5 1.44 0.35
-7 -7 5 8.16 0.65
7 -7 -5 8.88 0.62
-7 -7 5 8.51 0.62
-7 -7 5 9.12 0.48
7 -7 -5 8 0.42
7 7 -5 8.43 0.58
-7 7 5 9.25 0.66
-7 7 5 8 0.65
5 -7 -5 14.72 0.75
-5 -7 5 14.05 0.82
5 -7 -5 13.14 0.53
-5 -7 5 13.52 0.74
5 -7 -5 14.87 0.8
-5 7 5 14.72 0.85
5 7 -5 13.7 0.5
5 7 -5 12.51 0.71
3 -7 -5 24.03 1.04
-3 -7 5 24.48 0.97
3 -7 -5 24.11 0.73
-3 -7 5 24.25 1.08
3 -7 -5 22.32 0.95
-3 7 5 23.6 0.91
3 7 -5 24.35 0.76
-3 7 5 25.13 1.12
3 7 -5 23.24 1.02
-1 -7 5 1.36 0.28
-1 -7 5 1.09 0.33
1 -7 -5 0.92 0.27
1 -7 -5 0.88 0.3
1 -7 -5 1.09 0.15
-1 7 5 1.65 0.32
1 7 -5 1.36 0.21
-1 7 5 1.47 0.37
1 7 -5 0.8 0.28
1 -7 5 0.82 0.22
-1 -7 -5 1.09 0.27
-1 -7 -5 1.01 0.29
1 -7 5 0.83 0.29
1 7 5 1.16 0.33
-1 7 -5 0.97 0.3
-1 7 -5 0.82 0.2
1 7 5 1.08 0.31
3 -7 5 24.27 1.19
-3 -7 -5 25.73 0.96
3 -7 5 23.8 1.1
3 -7 5 24.05 0.87
-3 -7 -5 23.8 1.04
3 7 5 24.26 1.17
-3 7 -5 24.37 1.11
-3 7 -5 24.89 0.89
3 7 5 24.92 1.11
5 -7 5 11.75 0.83
5 -7 5 9.78 0.72
-5 -7 -5 10.95 0.69
5 -7 5 11.33 0.52
-5 -7 -5 12.56 0.63
5 7 5 10.63 0.81
-5 7 -5 10.94 0.77
5 7 5 13.94 0.84
-5 7 -5 10.71 0.59
7 -7 5 10.67 0.74
7 -7 5 11.46 0.84
-7 -7 -5 11.74 0.71
-7 -7 -5 10.45 0.59
-7 7 -5 9.65 0.59
7 7 5 9.54 0.93
7 7 5 9.74 0.79
-7 7 -5 10.65 0.76
9 -7 5 7.14 0.69
-9 -7 -5 8.43 0.6
-9 -7 -5 7.88 0.52
9 -7 5 8.85 0.89
-9 7 -5 8.86 0.72
-9 7 -5 8.54 0.58
9 7 5 7.75 0.83
9 7 5 7.94 0.86
11 -7 5 -0.15 0.22
-11 -7 -5 0.14 0.21
11 -7 5 0.17 0.3
-11 -7 -5 -0.02 0.16
11 7 5 0.05 0.3
11 7 5 0.22 0.29
-11 7 -5 -0.08 0.19
-11 7 -5 0.02 0.26
-13 -7 -5 2.47 0.35
13 -7 5 2.8 0.59
-13 -7 -5 2.28 0.42
-13 -7 -5 2.57 0.53
13 -7 5 1.97 0.45
-13 7 -5 2.28 0.41
13 7 5 1.72 0.47
-13 7 -5 2.61 0.52
13 7 5 1.97 0.52
-15 -7 -5 11.46 0.75
15 -7 5 12.1 0.89
-15 -7 -5 12.05 0.66
15 -7 5 14.79 1.07
-15 -7 -5 11.83 0.93
15 7 5 13.54 1.12
-15 7 -5 10.34 0.74
-15 7 -5 13.11 0.95
15 7 5 12.87 1.02
-17 -7 -5 11.35 0.92
17 -7 5 10.83 0.88
17 -7 5 10.37 1.14
-17 -7 -5 10.1 0.74
-17 7 -5 10.73 0.79
17 7 5 10.96 1.24
17 7 5 11.92 1.13
-17 7 -5 12.47 1
19 -7 5 4.51 0.7
19 -7 5 5.71 0.9
-19 -7 -5 4.45 0.73
-19 -7 -5 4.16 0.56
19 7 5 5.21 0.92
-19 7 -5 3.98 0.57
-19 7 -5 5.2 0.79
19 7 5 5.47 0.86
21 -7 5 -0.35 0.33
21 -7 5 -0.04 0.44
-21 -7 -5 0.13 0.27
-21 -7 -5 0.34 0.4
21 7 5 -0.73 0.35
21 7 5 0.24 0.47
-21 7 -5 -0.13 0.26
-21 7 -5 0.7 0.44
-23 -7 -5 0.14 0.33
23 -7 5 -0.18 0.5
23 -7 5 -0.07 0.39
-23 -7 -5 0.66 0.43
23 7 5 -0.11 0.52
-23 7 -5 -0.17 0.3
23 7 5 -0.09 0.43
-25 -7 -5 1.87 0.5
-25 -7 -5 1.85 0.6
25 -7 5 1.93 0.62
25 7 5 3.44 0.92
-25 7 -5 1.46 0.46
24 -8 -5 1.02 0.4
-24 -8 5 0.45 0.46
-24 -8 5 2.03 0.54
24 -8 -5 0.53 0.46
24 8 -5 0.8 0.41
-24 8 5 1.31 0.56
24 8 -5 0.7 0.36
22 -8 -5 4.57 0.71
-22 -8 5 6.37 0.9
22 -8 -5 5.47 0.62
-22 -8 5 7.61 0.82
-22 8 5 7.46 0.9
22 8 -5 6.27 0.66
22 8 -5 6.61 0.75
20 -8 -5 1.78 0.38
-20 -8 5 1.25 0.51
20 -8 -5 2.1 0.49
-20 -8 5 1.69 0.46
-20 -8 5 1.63 0.44
20 8 -5 2.21 0.48
20 8 -5 1.44 0.39
-20 8 5 2.12 0.48
-20 8 5 1.68 0.52
18 -8 -5 1.11 0.32
-18 -8 5 0.63 0.34
-18 -8 5 0.71 0.35
18 -8 -5 1.17 0.4
-18 -8 5 0.35 0.37
-18 8 5 1.02 0.37
18 8 -5 0.32 0.3
18 8 -5 0.85 0.33
-18 8 5 0.62 0.38
-16 -8 5 0.15 0.29
16 -8 -5 0.41 0.32
-16 -8 5 0.44 0.28
-16 -8 5 -0.13 0.3
16 -8 -5 0.26 0.23
-16 8 5 0.6 0.33
16 8 -5 0.42 0.28
16 8 -5 0.23 0.26
-16 8 5 -0.07 0.29
-14 -8 5 0.37 0.26
14 -8 -5 0.45 0.23
-14 -8 5 0.42 0.35
-14 -8 5 0.76 0.34
14 -8 -5 0.26 0.3
14 8 -5 0.24 0.24
-14 8 5 0.31 0.3
-14 8 5 0.56 0.36
14 8 -5 0.62 0.28
12 -8 -5 7.58 0.49
-12 -8 5 6.21 0.66
12 -8 -5 5.86 0.64
-12 -8 5 6.61 0.58
-12 -8 5 6.72 0.73
12 8 -5 7.74 0.57
-12 8 5 7.46 0.74
-12 8 5 7.48 0.79
12 8 -5 5.12 0.6
-10 -8 5 21.92 1.05
10 -8 -5 18.17 0.75
10 -8 -5 19.72 0.96
-10 -8 5 20.28 0.83
-10 -8 5 18.24 0.99
-10 8 5 17.83 0.98
10 8 -5 19.86 0.89
-10 8 5 19.32 1.01
-8 -8 5 15.3 0.86
8 -8 -5 14.48 0.87
8 -8 -5 16.04 0.84
-8 -8 5 15.41 0.89
8 -8 -5 15.99 0.64
-8 -8 5 16.53 0.85
-8 8 5 15.99 0.91
8 8 -5 14.96 0.78
6 -8 -5 0.15 0.22
-6 -8 5 0.4 0.27
6 -8 -5 0.34 0.26
-6 -8 5 0.46 0.24
6 -8 -5 0.53 0.16
-6 8 5 0.5 0.27
6 8 -5 0.35 0.23
-4 -8 5 17.04 0.92
4 -8 -5 16.25 0.59
4 -8 -5 14.52 0.85
4 -8 -5 17 0.83
-4 -8 5 15.73 0.81
4 8 -5 16.13 0.82
4 8 -5 16.22 0.59
-4 8 5 15.76 0.95
-2 -8 5 37.24 1.43
2 -8 -5 37.95 1.32
-2 -8 5 38.81 1.31
2 -8 -5 35.62 1.38
2 -8 -5 38.59 1.06
-2 8 5 36.43 1.48
2 8 -5 37.44 1.08
2 8 -5 33.93 1.33
0 -8 5 64.24 1.88
0 -8 5 62.33 2.06
0 -8 -5 65.48 2.03
0 -8 -5 66.85 1.91
0 8 5 67.97 1.99
0 8 -5 62.49 2.02
0 8 -5 66.11 1.73
0 8 5 65.61 2.17
-2 -8 -5 5.97 0.65
-2 -8 -5 7.07 0.52
2 -8 5 5.9 0.66
2 -8 5 7.09 0.48
2 8 5 8.56 0.82
-2 8 -5 7.17 0.45
-2 8 -5 6.91 0.6
2 8 5 6.63 0.67
-4 -8 -5 3.17 0.4
-4 -8 -5 2.26 0.44
4 -8 5 2.35 0.46
4 -8 5 2.56 0.33
-4 8 -5 2.81 0.35
4 8 5 2.18 0.48
4 8 5 2.53 0.47
-4 8 -5 2.64 0.45
-6 -8 -5 0.41 0.22
-6 -8 -5 0.8 0.3
6 -8 5 0.78 0.34
6 -8 5 0.3 0.3
-6 8 -5 0.51 0.21
-6 8 -5 0.56 0.29
6 8 5 0.95 0.32
6 8 5 0.25 0.3
-8 -8 -5 11.82 0.76
-8 -8 -5 12.95 0.69
8 -8 5 12.37 0.92
8 -8 5 14.24 0.87
-8 8 -5 11.84 0.84
8 8 5 12.31 0.92
-8 8 -5 11.57 0.66
8 8 5 10.85 0.88
10 -8 5 7.3 0.75
10 -8 5 8.44 0.89
-10 -8 -5 7.46 0.69
-10 -8 -5 8.42 0.57
-10 8 -5 7.46 0.57
10 8 5 6.63 0.81
-10 8 -5 8.83 0.86
10 8 5 8.15 0.89
12 -8 5 4.18 0.68
-12 -8 -5 4.28 0.46
12 -8 5 3.78 0.59
-12 -8 -5 5.52 0.63
-12 8 -5 4.41 0.63
-12 8 -5 4.14 0.5
12 8 5 4 0.68
12 8 5 5.1 0.76
-14 -8 -5 0.58 0.29
14 -8 5 -0.39 0.25
-14 -8 -5 0.28 0.33
-14 -8 -5 -0.01 0.19
14 -8 5 0.58 0.37
-14 8 -5 0.36 0.25
-14 8 -5 0.42 0.33
14 8 5 0.56 0.4
14 8 5 -0.06 0.34
-16 -8 -5 1.06 0.37
16 -8 5 -0.47 0.27
16 -8 5 0 0.39
-16 -8 -5 0.44 0.38
-16 -8 -5 0.18 0.21
16 8 5 0.28 0.41
-16 8 -5 0.32 0.28
16 8 5 0.43 0.4
-16 8 -5 0.35 0.38
18 -8 5 0.43 0.36
-18 -8 -5 0.34 0.31
18 -8 5 0.52 0.45
-18 -8 -5 1.58 0.5
-18 8 -5 1.01 0.36
18 8 5 0.98 0.55
-18 8 -5 1.27 0.48
18 8 5 0.65 0.46
20 -8 5 4.5 0.74
20 -8 5 4.46 0.82
-20 -8 -5 4.99 0.64
-20 -8 -5 4.57 0.77
-20 8 -5 5.26 0.83
20 8 5 5.69 0.94
-20 8 -5 5.5 0.65
20 8 5 5.55 0.99
22 -8 5 14.15 1.15
22 -8 5 15.84 1.49
-22 -8 -5 13.8 0.96
-22 -8 -5 14.41 1.16
-22 8 -5 15.04 0.98
22 8 5 14.13 1.56
22 8 5 13.64 1.36
-22 8 -5 15.3 1.19
24 -8 5 8.34 1.04
-24 -8 -5 9.72 1.09
-24 -8 -5 9.61 0.93
24 8 5 6.89 1.19
24 8 5 8.09 1.08
-24 8 -5 9.41 0.9
23 -9 -5 0.38 0.45
-23 -9 5 0.69 0.48
-23 -9 5 1.18 0.49
23 -9 -5 0.47 0.36
23 9 -5 0.05 0.34
23 9 -5 0.23 0.39
-23 9 5 0.03 0.44
-21 -9 5 5.59 0.83
-21 -9 5 3.55 0.62
21 -9 -5 5.91 0.64
21 -9 -5 4.1 0.69
21 9 -5 4.23 0.62
-21 9 5 4.36 0.71
21 9 -5 4.5 0.6
19 -9 -5 18.88 1.12
-19 -9 5 16.3 1
19 -9 -5 17.55 0.92
-19 -9 5 18.03 1.21
-19 -9 5 19.05 1.03
-19 9 5 17.24 1.07
19 9 -5 17.15 0.96
19 9 -5 18.22 1.02
-19 9 5 18.68 1.16
-17 -9 5 14.65 0.92
-17 -9 5 15 1.1
-17 -9 5 16.47 0.96
17 -9 -5 15.57 0.99
17 -9 -5 15.99 0.82
-17 9 5 15.94 1.06
-17 9 5 13.9 0.97
17 9 -5 15.53 0.9
17 9 -5 13.89 0.88
-15 -9 5 3.58 0.56
15 -9 -5 4.63 0.49
15 -9 -5 4.05 0.59
-15 -9 5 4.31 0.54
-15 -9 5 4.84 0.68
15 9 -5 4.41 0.58
15 9 -5 4.36 0.55
-15 9 5 3.95 0.61
-15 9 5 3.97 0.64
-13 -9 5 0.63 0.32
13 -9 -5 0.52 0.31
-13 -9 5 0.51 0.32
13 -9 -5 0.09 0.18
-13 -9 5 0.71 0.27
-13 9 5 0.5 0.31
13 9 -5 0.59 0.3
13 9 -5 0.09 0.23
-11 -9 5 1.66 0.41
11 -9 -5 2.03 0.31
-11 -9 5 2.36 0.46
11 -9 -5 2.48 0.47
-11 9 5 1.33 0.4
11 9 -5 1.24 0.31
11 9 -5 2.31 0.41
-9 -9 5 20.19 1.06
-9 -9 5 21.22 1.07
9 -9 -5 20.06 1.01
9 -9 -5 22.43 1.11
9 -9 -5 22.59 0.82
9 9 -5 20.34 0.93
-9 9 5 21.49 1.12
-7 -9 5 35.22 1.4
7 -9 -5 38.13 1.46
-7 -9 5 35.6 1.45
7 -9 -5 36.53 1.37
7 -9 -5 35.8 1.09
-7 9 5 35.57 1.49
7 9 -5 34.68 1.29
5 -9 -5 46.89 1.68
-5 -9 5 51.35 1.69
-5 -9 5 47.94 1.73
5 -9 -5 48.57 1.32
5 -9 -5 45.29 1.59
-5 9 5 49.93 1.81
5 9 -5 46.59 1.58
-3 -9 5 19.47 0.94
3 -9 -5 21.58 1.06
3 -9 -5 20.56 0.95
-3 -9 5 21.9 1.09
3 9 -5 19.85 0.72
3 9 -5 21.32 0.97
-3 9 5 21.6 1.14
1 -9 -5 9.26 0.71
1 -9 -5 7.79 0.59
-1 -9 5 9.89 0.63
-1 -9 5 8.71 0.81
1 9 -5 8.36 0.64
1 9 -5 7.72 0.46
-1 9 5 8.43 0.81
1 -9 5 9.85 0.61
1 -9 5 9.56 0.84
-1 -9 -5 10.2 0.64
-1 -9 -5 8.58 0.7
-1 9 -5 10.02 0.71
1 9 5 8.9 0.87
1 9 5 8.96 0.67
-1 9 -5 9.79 0.52
-3 -9 -5 12.2 0.71
3 -9 5 12.85 0.66
3 -9 5 11.4 0.83
-3 -9 -5 11.01 0.77
-3 9 -5 12.34 0.8
3 9 5 12.91 0.83
3 9 5 10.8 0.84
-3 9 -5 12.2 0.61
-5 -9 -5 14.57 0.76
-5 -9 -5 13.29 0.83
5 -9 5 14.64 0.92
-5 9 -5 15.95 0.92
-5 9 -5 13.51 0.68
5 9 5 15.96 0.97
5 9 5 13.48 0.98
-7 -9 -5 37.14 1.47
7 -9 5 37.92 1.56
-7 -9 -5 41.01 1.38
-7 9 -5 40.7 1.33
7 9 5 37.62 1.69
-7 9 -5 41.33 1.6
7 9 5 41.42 1.7
-9 -9 -5 9.42 0.71
9 -9 5 9.72 0.92
-9 -9 -5 9.79 0.65
9 -9 5 9.68 0.96
-9 9 -5 9.65 0.81
-9 9 -5 9.48 0.63
9 9 5 10.84 0.92
9 9 5 9.2 0.94
11 -9 5 2.48 0.51
-11 -9 -5 2.2 0.44
-11 -9 -5 2.12 0.38
11 -9 5 1.26 0.46
11 9 5 2.84 0.63
11 9 5 2.01 0.52
-11 9 -5 1.9 0.46
-11 9 -5 2.43 0.4
13 -9 5 22.83 1.31
-13 -9 -5 21.21 0.96
13 -9 5 21.8 1.22
-13 -9 -5 22.02 1.08
13 9 5 21.52 1.38
13 9 5 20.17 1.28
-13 9 -5 21.26 1.2
-13 9 -5 19.59 0.97
15 -9 5 26 1.48
-15 -9 -5 26.51 1.1
15 -9 5 26.71 1.4
-15 -9 -5 26.11 1.41
-15 -9 -5 27.35 1.23
15 9 5 24.23 1.45
15 9 5 27.13 1.61
-15 9 -5 25.55 1.16
-15 9 -5 27.8 1.42
17 -9 5 31.75 1.64
-17 -9 -5 26.13 1.49
17 -9 5 31.42 1.55
-17 -9 -5 31.13 1.36
-17 -9 -5 31.12 1.22
-17 9 -5 29.49 1.5
17 9 5 29.38 1.78
17 9 5 27.19 1.59
-17 9 -5 31.9 1.32
19 -9 5 13.65 1.31
-19 -9 -5 12.36 1.17
-19 -9 -5 12.93 0.87
19 -9 5 14.1 1.1
19 9 5 11.39 1.37
-19 9 -5 12.18 1.05
-19 9 -5 11.96 0.87
19 9 5 11.5 1.24
-21 -9 -5 7.16 0.96
21 -9 5 6.38 0.89
-21 -9 -5 6.73 0.8
-21 9 -5 8.61 0.84
21 9 5 8.25 1.23
21 9 5 6.73 0.99
-21 9 -5 6.04 1.26
-23 -9 -5 0.25 0.35
23 -9 5 -0.17 0.44
-23 -9 -5 0.11 0.48
23 9 5 0.35 0.56
-23 9 -5 -0.06 0.32
23 9 5 0.25 0.59
-22 -10 5 0.38 0.48
22 -10 -5 0.69 0.46
22 -10 -5 -0.12 0.32
-22 -10 5 0.68 0.46
22 10 -5 -0.21 0.36
20 -10 -5 1.17 0.38
-20 -10 5 1.57 0.47
-20 -10 5 1.6 0.56
20 -10 -5 1.34 0.49
-20 -10 5 1.13 0.47
-20 10 5 1.7 0.51
20 10 -5 0.36 0.37
20 10 -5 1.8 0.46
18 -10 -5 1.97 0.51
-18 -10 5 2.17 0.61
18 -10 -5 1.71 0.39
-18 -10 5 1.64 0.49
18 10 -5 3.3 0.55
-18 10 5 1.46 0.48
18 10 -5 2.13 0.45
-16 -10 5 1.44 0.46
-16 -10 5 2.25 0.48
16 -10 -5 1.71 0.37
16 -10 -5 1.91 0.47
16 10 -5 2.01 0.45
16 10 -5 1.89 0.44
-16 10 5 2.04 0.52
-14 -10 5 0.38 0.35
14 -10 -5 0.54 0.26
14 -10 -5 0.43 0.33
-14 -10 5 0.07 0.32
-14 10 5 -0.11 0.31
14 10 -5 0.01 0.29
14 10 -5 0.41 0.28
12 -10 -5 0.89 0.26
12 -10 -5 0.86 0.37
12 -10 -5 0.41 0.37
-12 -10 5 0.59 0.34
-12 -10 5 1.03 0.39
12 10 -5 1.69 0.4
12 10 -5 0.76 0.3
-12 10 5 0.9 0.39
10 -10 -5 4.9 0.67
10 -10 -5 3.58 0.52
10 -10 -5 3.57 0.4
-10 -10 5 2.66 0.49
-10 -10 5 3.33 0.56
-10 10 5 5 0.7
10 10 -5 3.33 0.46
8 -10 -5 2.19 0.31
-8 -10 5 1.96 0.44
8 -10 -5 3.13 0.55
8 -10 -5 2.85 0.48
-8 -10 5 2.5 0.47
-8 10 5 2.69 0.52
8 10 -5 1.85 0.36
-6 -10 5 2.13 0.46
6 -10 -5 1.96 0.42
-6 -10 5 1.96 0.43
6 -10 -5 2.4 0.48
-6 10 5 1.46 0.43
6 10 -5 2.38 0.4
-4 -10 5 2.09 0.44
4 -10 -5 1.59 0.37
4 -10 -5 1.84 0.45
-4 -10 5 1.81 0.38
4 10 -5 1.88 0.38
-4 10 5 2.31 0.51
2 -10 -5 14.22 0.83
-2 -10 5 16.87 0.97
2 -10 -5 14.46 0.9
-2 -10 5 14.63 0.83
-2 10 5 16.48 1.05
2 10 -5 15.32 0.65
2 10 -5 15.14 0.84
0 -10 5 8.12 0.61
0 -10 -5 9.02 0.72
0 -10 5 8.49 0.82
0 -10 -5 9.35 0.67
0 10 -5 9.66 0.68
0 10 -5 6.93 0.46
0 10 5 6.66 0.81
-2 -10 -5 6.18 0.69
2 -10 5 4.64 0.51
2 -10 5 5.74 0.7
-2 -10 -5 4.7 0.53
-2 10 -5 4.02 0.53
-2 10 -5 4.86 0.44
2 10 5 4.09 0.67
-4 -10 -5 0.14 0.24
4 -10 5 0.14 0.3
-4 -10 -5 0.38 0.29
-4 10 -5 0.22 0.18
-4 10 -5 -0.03 0.24
4 10 5 0.35 0.31
4 10 5 0.15 0.29
6 -10 5 1.85 0.47
-6 -10 -5 2.69 0.43
-6 -10 -5 2.38 0.46
-6 10 -5 2.6 0.38
-6 10 -5 1.8 0.41
6 10 5 3.84 0.64
6 10 5 2.83 0.54
-8 -10 -5 2.79 0.45
8 -10 5 3.67 0.6
-8 -10 -5 3.62 0.54
8 10 5 2.01 0.53
8 10 5 2.52 0.54
-8 10 -5 2.66 0.4
-8 10 -5 3.16 0.53
-10 -10 -5 0.49 0.28
10 -10 5 0.04 0.28
-10 -10 -5 0.23 0.28
10 10 5 0.21 0.36
10 10 5 0.64 0.37
-10 10 -5 0.33 0.3
-10 10 -5 0.16 0.21
-12 -10 -5 0.51 0.32
12 -10 5 0.6 0.41
-12 -10 -5 0.22 0.27
12 -10 5 0.75 0.4
12 10 5 0.52 0.41
-12 10 -5 0.78 0.3
12 10 5 0.74 0.45
-12 10 -5 0.78 0.4
14 -10 5 1.88 0.5
-14 -10 -5 1.41 0.42
-14 -10 -5 1.56 0.35
14 -10 5 1.46 0.52
14 10 5 1.21 0.54
-14 10 -5 1.12 0.34
14 10 5 1.25 0.53
-14 10 -5 0.95 0.42
16 -10 5 -0.13 0.35
16 -10 5 0.58 0.45
-16 -10 -5 0.44 0.3
-16 -10 -5 0.02 0.31
-16 -10 -5 0.21 0.43
-16 10 -5 0.5 0.28
16 10 5 0.18 0.42
16 10 5 0.8 0.51
-16 10 -5 0.26 0.38
18 -10 5 1.53 0.57
18 -10 5 1.69 0.56
-18 -10 -5 2.16 0.65
-18 -10 -5 1.48 0.41
-18 -10 -5 0.84 0.38
18 10 5 1.5 0.61
-18 10 -5 1.26 0.37
-18 10 -5 1.36 0.53
18 10 5 0.72 0.55
-20 -10 -5 4.85 0.83
20 -10 5 3.35 0.71
-20 -10 -5 4.37 0.64
-20 10 -5 4.48 0.62
20 10 5 3.32 0.77
20 10 5 4.64 0.99
-22 -10 -5 2.07 0.67
22 -10 5 2.15 0.67
-22 -10 -5 2.27 0.54
-22 10 -5 2.7 0.53
22 10 5 2.06 0.8
22 10 5 1.22 0.67
21 -11 -5 4.33 0.62
21 -11 -5 2.92 0.63
-21 -11 5 5.13 0.88
-21 11 5 4.99 0.79
21 11 -5 4.44 0.71
19 -11 -5 16.77 0.97
-19 -11 5 16.13 1.25
19 -11 -5 17.85 1.12
-19 11 5 13.66 1.23
19 11 -5 14.21 1.01
19 11 -5 14.42 1.35
-17 -11 5 14.03 0.98
17 -11 -5 13.84 0.85
-17 -11 5 15.92 1.16
17 -11 -5 14.57 1.02
17 11 -5 15.15 0.96
17 11 -5 15.12 0.94
-17 11 5 14.15 1.11
-15 -11 5 5.76 0.73
15 -11 -5 3.47 0.62
-15 -11 5 3.91 0.67
15 -11 -5 3.76 0.61
15 -11 -5 4.6 0.54
15 11 -5 4.95 0.63
15 11 -5 3.83 0.55
-15 11 5 4.71 0.73
-13 -11 5 0.28 0.36
13 -11 -5 -0.21 0.29
-13 -11 5 0.42 0.35
13 -11 -5 -0.04 0.23
13 -11 -5 0 0.37
13 11 -5 0.09 0.27
-13 11 5 0.52 0.36
13 11 -5 0.26 0.32
11 -11 -5 -0.06 0.29
-11 -11 5 0.23 0.34
-11 -11 5 0.12 0.31
11 -11 -5 -0.44 0.3
11 -11 -5 0.12 0.22
11 11 -5 -0.22 0.23
-11 11 5 0.21 0.35
9 -11 -5 2.15 0.47
9 -11 -5 2.7 0.55
-9 -11 5 2.34 0.5
-9 -11 5 2.54 0.53
-9 11 5 2.24 0.53
9 11 -5 3.61 0.5
7 -11 -5 12.25 0.82
-7 -11 5 13.6 0.91
7 -11 -5 14.06 0.95
-7 -11 5 14.17 0.97
-7 11 5 13.05 0.99
7 11 -5 14.21 0.81
-5 -11 5 6.83 0.72
5 -11 -5 6.51 0.69
5 -11 -5 7.06 0.77
-5 -11 5 8.03 0.8
-5 11 5 5.37 0.71
5 11 -5 7.4 0.62
-3 -11 5 15.15 1
3 -11 -5 17.66 1.04
3 -11 -5 16.16 0.9
-3 -11 5 14.39 0.9
-3 11 5 18.32 1.13
3 11 -5 16.99 0.9
-1 -11 5 1.68 0.38
1 -11 -5 1.96 0.43
-1 -11 5 2.23 0.49
1 -11 -5 1.75 0.45
1 11 -5 2.12 0.41
-1 11 5 1.38 0.44
1 11 -5 1.24 0.25
-1 -11 -5 4.72 0.56
1 -11 5 4.4 0.67
1 -11 5 3.98 0.52
-1 -11 -5 4.63 0.65
1 11 5 3.39 0.64
-1 11 -5 4.87 0.59
-1 11 -5 4.39 0.43
3 -11 5 25.76 1.29
-3 -11 -5 23.72 1.1
-3 -11 -5 24.37 1.22
-3 11 -5 24.51 1.16
-3 11 -5 26.45 0.98
3 11 5 24.02 1.36
-5 -11 -5 43.37 1.54
5 -11 5 41.63 1.74
-5 -11 -5 42.99 1.68
-5 11 -5 43.05 1.4
5 11 5 43.9 1.88
-5 11 -5 42.21 1.63
-7 -11 -5 32.31 1.31
-7 -11 -5 32.88 1.42
7 -11 5 32.33 1.52
7 11 5 32.14 1.58
-7 11 -5 34.35 1.44
-7 11 -5 32.51 1.19
7 11 5 31.57 1.62
-9 -11 -5 10.72 0.83
9 -11 5 8.73 0.93
-9 -11 -5 8.81 0.71
-9 11 -5 8.94 0.65
9 11 5 10.89 1.14
9 11 5 11.66 1.19
-9 11 -5 9.51 0.81
11 -11 5 0.09 0.34
-11 -11 -5 0.3 0.33
-11 -11 -5 0.24 0.28
-11 11 -5 0.22 0.26
11 11 5 0.39 0.44
11 11 5 0.41 0.44
-11 11 -5 0.41 0.36
13 -11 5 12.65 1.17
-13 -11 -5 12.22 0.82
-13 -11 -5 11.82 0.9
13 11 5 11.67 1.3
13 11 5 12.44 1.24
-13 11 -5 13.68 0.83
-13 11 -5 12.09 0.95
15 -11 5 18.09 1.24
-15 -11 -5 15.7 1.03
15 -11 5 18.32 1.3
-15 -11 -5 17.38 0.95
15 11 5 15.09 1.42
-15 11 -5 17.33 1.14
-15 11 -5 16.24 0.94
15 11 5 15.24 1.34
-17 -11 -5 5.93 0.67
-17 -11 -5 6.99 0.81
-17 -11 -5 5.61 0.88
17 -11 5 4.87 0.84
-17 11 -5 6.38 0.7
17 11 5 6.01 1.02
17 11 5 4.84 0.86
-19 -11 -5 6.52 0.77
19 -11 5 6.33 0.9
-19 -11 -5 7.42 1.03
19 11 5 4.37 0.91
-19 11 -5 6.78 0.77
19 11 5 4.61 0.93
18 -12 -5 -0.5 0.4
18 -12 -5 1.3 0.59
-18 -12 5 0.48 0.47
18 -12 -5 0.08 0.33
-18 12 5 -0.2 0.45
18 12 -5 -0.28 0.34
16 -12 -5 2.63 0.48
16 -12 -5 2.28 0.6
16 -12 -5 2.02 0.58
-16 -12 5 2.98 0.67
16 12 -5 1.84 0.47
-16 12 5 2.3 0.6
16 12 -5 3.17 0.62
-14 -12 5 2.43 0.55
-14 -12 5 2.27 0.58
14 -12 -5 2.03 0.56
14 -12 -5 2.67 0.55
-14 12 5 2.71 0.64
14 12 -5 2.55 0.5
14 12 -5 2.52 0.53
12 -12 -5 0.83 0.44
12 -12 -5 1.75 0.54
-12 -12 5 1.58 0.49
-12 -12 5 1.15 0.46
-12 12 5 0.44 0.4
12 12 -5 1.14 0.4
12 12 -5 0.62 0.34
-10 -12 5 2.93 0.6
10 -12 -5 2.33 0.55
-10 -12 5 2.49 0.53
10 -12 -5 3.25 0.55
10 12 -5 3.07 0.49
-10 12 5 2.38 0.56
8 -12 -5 0.18 0.37
-8 -12 5 0.15 0.34
-8 -12 5 0.14 0.33
8 -12 -5 0.02 0.29
8 12 -5 -0.1 0.23
-8 12 5 0.26 0.38
-6 -12 5 1.75 0.45
-6 -12 5 1.29 0.46
6 -12 -5 1.15 0.46
6 -12 -5 1.11 0.39
6 12 -5 1.9 0.4
-6 12 5 1.8 0.53
-4 -12 5 1.41 0.42
4 -12 -5 0.78 0.35
-4 -12 5 1.38 0.45
4 -12 -5 0.77 0.42
4 12 -5 0.9 0.35
-4 12 5 1.45 0.51
2 -12 -5 7.45 0.81
-2 -12 5 5.94 0.68
-2 -12 5 6.5 0.77
2 -12 -5 7.62 0.73
-2 12 5 6.9 0.9
2 12 -5 6.9 0.67
0 -12 -5 0.52 0.32
0 -12 5 0.9 0.34
0 -12 5 -0.38 0.31
0 -12 -5 0.92 0.41
0 12 -5 0.51 0.29
0 12 5 0.21 0.37
0 12 -5 0.63 0.24
2 -12 5 0.55 0.4
-2 -12 -5 0.32 0.3
-2 -12 -5 0.58 0.37
2 12 5 0.66 0.45
-2 12 -5 0.32 0.28
-2 12 -5 0.67 0.25
4 -12 5 -0.06 0.31
-4 -12 -5 -0.03 0.33
-4 -12 -5 -0.09 0.27
4 12 5 -0.11 0.33
-4 12 -5 -0.23 0.18
-4 12 -5 0.28 0.27
-6 -12 -5 0.07 0.32
-6 -12 -5 0.12 0.3
6 -12 5 -0.03 0.36
-6 12 -5 0.04 0.19
-6 12 -5 -0.07 0.26
6 12 5 0.02 0.37
-8 -12 -5 -0.05 0.29
-8 -12 -5 0.44 0.38
8 -12 5 0.05 0.35
-8 12 -5 0.14 0.25
8 12 5 -0.22 0.39
8 12 5 -0.29 0.38
-8 12 -5 0.22 0.32
-10 -12 -5 2.71 0.54
10 -12 5 2.89 0.61
-10 -12 -5 3.51 0.54
10 12 5 2.89 0.68
-10 12 -5 3.21 0.56
10 12 5 4.1 0.8
-10 12 -5 2.7 0.43
12 -12 5 6.88 0.9
-12 -12 -5 5.83 0.75
-12 -12 -5 6.29 0.7
12 12 5 4.49 0.83
12 12 5 3.61 0.78
-12 12 -5 5.8 0.76
-12 12 -5 5.58 0.6
-14 -12 -5 1.3 0.42
14 -12 5 2.18 0.6
-14 -12 -5 1.88 0.49
14 12 5 0.98 0.53
-14 12 -5 0.64 0.44
14 12 5 0.93 0.63
-14 12 -5 1.26 0.37
-16 -12 -5 0.57 0.37
16 -12 5 0.12 0.45
-16 -12 -5 0.16 0.35
16 12 5 0.76 0.54
16 12 5 0.23 0.57
-16 12 -5 -0.05 0.28
-18 -12 -5 1.12 0.42
-18 -12 -5 -0.03 0.36
18 -12 5 0.8 0.59
-18 -12 -5 1.21 0.64
18 12 5 0.44 0.57
18 12 5 0.81 0.56
-18 12 -5 0.9 0.35
-15 -13 5 5.16 0.84
15 -13 -5 6.52 0.81
15 -13 -5 3.36 0.71
15 13 -5 4.29 0.64
-15 13 5 6.31 0.92
13 -13 -5 0.34 0.47
13 -13 -5 1.05 0.47
-13 -13 5 0.63 0.69
-13 -13 5 0.72 0.47
13 13 -5 0.9 0.43
-13 13 5 1.12 0.52
13 13 -5 0.28 0.33
11 -13 -5 1.82 0.57
-11 -13 5 1.75 0.52
11 -13 -5 2.46 0.57
-11 -13 5 2.22 0.59
-11 13 5 2.48 0.63
11 13 -5 2.37 0.48
-9 -13 5 9.45 0.95
-9 -13 5 9.33 0.92
9 -13 -5 7.91 0.92
9 -13 -5 6.62 0.75
9 13 -5 8.16 0.76
-9 13 5 6.05 0.84
7 -13 -5 11.85 0.92
-7 -13 5 13.19 1.13
7 -13 -5 13.26 1.04
-7 -13 5 10.26 0.97
7 13 -5 14.04 0.84
-7 13 5 11.95 1.17
-5 -13 5 9.84 0.94
5 -13 -5 9.9 1
-5 -13 5 9 0.92
5 -13 -5 10.18 0.89
5 13 -5 9.93 0.76
-5 13 5 7.28 0.91
3 -13 -5 4.41 0.61
3 -13 -5 4.15 0.68
-3 -13 5 5.11 0.69
-3 -13 5 3.77 0.67
-3 13 5 4 0.75
3 13 -5 4.78 0.57
-1 -13 5 3.93 0.6
1 -13 -5 3.48 0.57
-1 -13 5 4.24 0.69
1 -13 -5 3.73 0.64
1 13 -5 3.59 0.53
-1 13 5 2.05 0.54
-1 -13 -5 4.42 0.67
-1 -13 -5 4.37 0.61
1 -13 5 5.15 0.74
-1 13 -5 4.85 0.61
-1 13 -5 4.98 0.51
1 13 5 4.3 0.77
-3 -13 -5 8.61 0.83
3 -13 5 11.41 1.07
-3 -13 -5 11.13 1.03
-3 13 -5 8.59 0.74
-3 13 -5 9.92 0.67
3 13 5 9.41 1.09
5 -13 5 11.04 1.06
-5 -13 -5 11.66 0.89
-5 -13 -5 12.97 1
-5 13 -5 11.75 0.73
-5 13 -5 12.71 0.88
5 13 5 12.88 1.26
-7 -13 -5 11.11 0.87
-7 -13 -5 12.55 0.98
7 -13 5 11.47 1.1
7 13 5 10.07 1.19
-7 13 -5 11.42 0.74
-7 13 -5 12.44 0.9
-9 -13 -5 0.42 0.4
-9 -13 -5 0.09 0.34
9 -13 5 -0.27 0.37
9 13 5 -0.09 0.43
-9 13 -5 0.68 0.33
-9 13 -5 0.15 0.33
-11 -13 -5 0.59 0.39
11 -13 5 -0.01 0.4
-11 -13 -5 1 0.45
11 13 5 1.37 0.61
-11 13 -5 0.32 0.38
11 13 5 1.27 0.66
-11 13 -5 1.09 0.35
-13 -13 -5 2.83 0.58
-13 -13 -5 3.34 0.55
13 -13 5 3.25 0.68
13 13 5 2.72 0.72
13 13 5 2.3 0.8
-13 13 -5 2.93 0.48
-15 -13 -5 6.88 0.84
15 -13 5 5.46 0.89
-15 -13 -5 7.69 0.82
15 13 5 4.42 0.99
15 13 5 5.56 0.95
-15 13 -5 6.27 0.72
12 -14 -5 4.39 0.71
-12 -14 5 3.51 0.73
12 -14 -5 3.86 0.74
-12 14 5 4.39 0.8
12 14 -5 3.9 0.59
10 -14 -5 4.84 0.81
10 -14 -5 4.87 0.7
-10 -14 5 3.55 0.69
10 14 -5 4.91 0.65
-10 14 5 4.71 0.81
8 -14 -5 1.07 0.46
-8 -14 5 1.07 0.49
-8 -14 5 1.38 0.51
8 -14 -5 1.93 0.56
-8 14 5 0.72 0.53
8 14 -5 1.23 0.42
-6 -14 5 0.23 0.38
6 -14 -5 0.38 0.41
-6 -14 5 0.6 0.43
6 -14 -5 0.03 0.43
6 14 -5 0.1 0.3
-6 14 5 0.47 0.47
-4 -14 5 1.1 0.5
4 -14 -5 1.02 0.45
4 -14 -5 1.33 0.51
-4 -14 5 1.63 0.51
4 14 -5 1.4 0.41
-4 14 5 1.81 0.61
2 -14 -5 7.03 0.88
-2 -14 5 6.36 0.84
2 -14 -5 6.78 0.8
-2 -14 5 6.9 0.8
2 14 -5 6.55 0.69
-2 14 5 5.79 0.89
0 -14 -5 25.19 1.29
0 -14 -5 28.35 1.44
0 -14 5 23.95 1.4
0 14 -5 24.56 1.18
0 14 5 24.1 1.5
2 -14 5 5.47 0.82
-2 -14 -5 5.68 0.81
-2 -14 -5 6.73 0.79
2 14 5 6.84 0.97
-2 14 -5 6.28 0.69
-2 14 -5 5.97 0.61
-4 -14 -5 1.62 0.54
4 -14 5 1.39 0.54
-4 -14 -5 1.83 0.51
-4 14 -5 0.85 0.39
-4 14 -5 1.34 0.35
4 14 5 0.95 0.55
-6 -14 -5 0.16 0.36
-6 -14 -5 0.22 0.4
6 -14 5 -0.15 0.44
-6 14 -5 0.36 0.29
-6 14 -5 -0.23 0.29
6 14 5 -0.56 0.36
-8 -14 -5 8.26 0.86
8 -14 5 6.07 0.88
-8 -14 -5 6.5 0.84
8 14 5 6.37 0.99
-8 14 -5 7.43 0.79
-8 14 -5 6.11 0.66
-10 -14 -5 10.12 0.97
-10 -14 -5 10.01 0.98
10 -14 5 9.41 1.08
-10 14 -5 10.39 0.8
10 14 5 8.94 1.2
12 -14 5 6.38 0.91
-12 -14 -5 8.4 0.84
-12 -14 -5 6.31 0.84
-12 14 -5 6.46 0.71
12 14 5 5.92 1.03
-7 -15 5 3.77 0.74
7 -15 -5 3.48 0.73
7 -15 -5 2.84 0.62
7 15 -5 3.47 0.57
-7 15 5 3.75 0.79
-5 -15 5 2.88 0.64
5 -15 -5 3.68 0.75
5 -15 -5 3.74 0.67
-5 -15 5 3.99 0.73
5 15 -5 2.91 0.53
-5 15 5 3.16 0.74
3 -15 -5 2.85 0.67
-3 -15 5 3.02 0.67
3 -15 -5 2.74 0.6
-3 -15 5 2.76 0.63
3 15 -5 3.04 0.53
-3 15 5 2.86 0.73
1 -15 -5 1.49 0.56
1 -15 -5 1.82 0.54
-1 -15 5 0.42 0.46
1 15 -5 1.38 0.44
-1 15 5 2.15 0.67
1 -15 5 -0.02 0.49
-1 -15 -5 0.61 0.45
-1 -15 -5 0.39 0.49
1 15 5 -0.76 0.47
-1 15 -5 0.37 0.35
-3 -15 -5 2.31 0.62
3 -15 5 2.43 0.64
-3 -15 -5 2.43 0.59
3 15 5 2.65 0.71
-3 15 -5 2.08 0.48
-3 15 -5 1.94 0.53
-5 -15 -5 5.74 0.81
5 -15 5 7.72 0.99
-5 -15 -5 7.93 0.9
5 15 5 7.37 1.08
-5 15 -5 7.19 0.71
-5 15 -5 6.53 0.76
7 -15 5 1.45 0.61
-7 -15 -5 2.64 0.63
-7 -15 -5 4.52 0.7
7 15 5 1.88 0.69
-7 15 -5 2.82 0.51
-28 0 6 6.76 1.01
28 0 -6 6.53 0.71
-26 0 6 -0.07 0.43
26 0 -6 0.3 0.29
-24 0 6 2.92 0.64
24 0 -6 2.25 0.41
22 0 -6 6.66 0.64
-22 0 6 7.2 0.86
-20 0 6 36.86 1.63
20 0 -6 39.35 1.38
-18 0 6 35.8 1.53
18 0 -6 34.03 1.26
16 0 -6 20.9 0.92
-16 0 6 22.32 1.15
16 0 -6 21.74 0.79
14 0 -6 1.69 0.31
-14 0 6 1.58 0.39
14 0 -6 1.87 0.28
-10 0 6 53.6 1.48
10 0 -6 50.54 1.47
-10 0 6 52.12 1.63
10 0 -6 52.11 1.57
-10 0 6 49.84 1.7
10 0 -6 51.03 1.47
-8 0 6 73.9 1.98
8 0 -6 76.43 1.94
8 0 -6 72.42 2
-8 0 6 73.65 2.17
-8 0 6 72.67 2.09
8 0 -6 73.71 2.03
6 0 -6 57.92 1.7
-6 0 6 55.76 1.7
-6 0 6 56.71 1.65
6 0 -6 56.63 1.6
-6 0 6 59.54 1.77
6 0 -6 54.85 1.65
4 0 -6 13.37 0.63
4 0 -6 11.63 0.6
-4 0 6 11.7 0.65
-4 0 6 12.82 0.66
4 0 -6 12.05 0.67
-4 0 6 12.81 0.73
-4 0 6 12.09 0.64
-2 0 6 7.17 0.49
2 0 -6 6.52 0.52
-2 0 6 7.1 0.57
-2 0 6 6.12 0.45
-2 0 6 6.79 0.52
2 0 -6 6.76 0.47
0 0 6 75.24 2.16
0 0 6 75.72 2.29
0 0 -6 72.8 1.94
0 0 6 74.52 2
0 0 -6 74.26 2.08
0 0 6 75.27 2.06
0 0 -6 73.35 2.19
2 0 6 108.34 2.92
-2 0 -6 106.14 2.82
-2 0 -6 105.41 2.6
2 0 6 111.99 2.78
2 0 6 107.86 2.65
2 0 6 103.51 3.02
-2 0 -6 106.11 2.62
-4 0 -6 37.09 1.08
4 0 6 35.41 1.48
-4 0 -6 37.81 1.13
-4 0 -6 37.78 1.34
4 0 6 37.42 1.24
4 0 6 37.65 1.42
4 0 6 38.09 1.11
-6 0 -6 51.96 1.34
-6 0 -6 49.1 1.43
6 0 6 50 1.88
-6 0 -6 53.17 1.7
6 0 6 52.35 1.57
6 0 6 52.94 1.79
8 0 6 2.13 0.46
8 0 6 2 0.33
-8 0 -6 2.38 0.24
-8 0 -6 2.16 0.28
8 0 6 1.83 0.41
-8 0 -6 2.33 0.41
10 0 6 0.53 0.22
-10 0 -6 0.58 0.27
10 0 6 0.98 0.37
-10 0 -6 0.57 0.17
12 0 6 24.87 1.35
12 0 6 24.59 1
-12 0 -6 26.69 1.19
-12 0 -6 23.56 0.85
14 0 6 47.06 1.99
-14 0 -6 44.47 1.7
14 0 6 47.8 1.53
-14 0 -6 44.51 1.34
-16 0 -6 43.58 1.68
16 0 6 40.67 1.93
16 0 6 43.09 1.47
-16 0 -6 41.36 1.29
-18 0 -6 24.75 0.95
18 0 6 23.72 1.08
18 0 6 26.05 1.56
-18 0 -6 23.72 1.25
-20 0 -6 4.23 0.66
20 0 6 3.97 0.84
-22 0 -6 3.27 0.61
22 0 6 6.49 1.05
-24 0 -6 24.76 1.37
24 0 6 25.12 1.77
-26 0 -6 25.45 1.44
26 0 6 23.47 1.81
-27 -1 6 1.88 0.63
27 -1 -6 1.11 0.39
27 1 -6 1.1 0.4
-27 1 6 0.87 0.59
25 -1 -6 0.32 0.29
-25 -1 6 -0.29 0.37
-25 1 6 -0.23 0.44
25 1 -6 -0.3 0.25
23 -1 -6 0.64 0.31
-23 -1 6 0.82 0.47
23 1 -6 1.13 0.34
-23 1 6 0.88 0.47
21 -1 -6 0.29 0.28
-21 -1 6 0.36 0.38
-21 1 6 0.31 0.42
21 1 -6 0.48 0.26
19 -1 -6 1.34 0.33
-19 -1 6 0.46 0.36
-19 1 6 0.37 0.35
19 1 -6 1.73 0.35
19 1 -6 0.92 0.26
-17 -1 6 2.84 0.54
17 -1 -6 2.28 0.37
17 1 -6 1.63 0.33
17 1 -6 2.08 0.31
-17 1 6 3.05 0.56
-15 -1 6 1.96 0.43
15 -1 -6 2.5 0.38
-15 1 6 2.23 0.47
15 1 -6 2.48 0.32
15 1 -6 2.01 0.34
13 -1 -6 0.44 0.18
-13 -1 6 -0.01 0.21
-13 -1 6 0.14 0.21
13 -1 -6 0.19 0.2
-13 1 6 0.51 0.28
13 1 -6 0.16 0.2
13 1 -6 0.29 0.17
11 -1 -6 2.29 0.33
-11 -1 6 2.26 0.42
-11 -1 6 2.22 0.38
11 -1 -6 2.45 0.29
-11 1 6 2.1 0.4
-11 1 6 2.34 0.33
11 1 -6 2.94 0.39
11 1 -6 2.14 0.3
9 -1 -6 -0.07 0.13
-9 -1 6 -0.1 0.17
-9 -1 6 0.03 0.15
9 -1 -6 0.11 0.15
-9 -1 6 -0.01 0.18
9 1 -6 -0.07 0.14
9 1 -6 -0.07 0.13
9 1 -6 0.01 0.17
-9 1 6 0.1 0.17
-9 1 6 0.06 0.16
-9 1 6 0.08 0.2
7 -1 -6 0.77 0.22
7 -1 -6 0.5 0.18
-7 -1 6 0.2 0.19
-7 -1 6 0.5 0.2
-7 -1 6 0.35 0.2
-7 1 6 0.6 0.23
-7 1 6 0.4 0.22
7 1 -6 0.81 0.2
-7 1 6 0.76 0.23
7 1 -6 1.01 0.25
7 1 -6 0.59 0.21
-5 -1 6 2.29 0.35
5 -1 -6 2.45 0.35
5 -1 -6 2.24 0.31
-5 -1 6 1.67 0.29
-5 -1 6 2.02 0.34
5 1 -6 2.02 0.29
-5 1 6 2.2 0.32
5 1 -6 2.47 0.34
-5 1 6 1.8 0.33
-5 1 6 1.78 0.31
-5 1 6 2.61 0.39
5 1 -6 1.82 0.32
-3 -1 6 0.52 0.2
-3 -1 6 0.2 0.2
3 -1 -6 0.28 0.15
3 -1 -6 0.18 0.18
3 -1 -6 0.57 0.2
-3 -1 6 0.22 0.19
-3 -1 6 0.29 0.17
-3 1 6 0.23 0.19
3 1 -6 0.23 0.16
-3 1 6 0.05 0.17
-3 1 6 -0.09 0.13
3 1 -6 0.1 0.18
-3 1 6 -0.01 0.15
-1 -1 6 10.97 0.64
1 -1 -6 11.81 0.58
-1 -1 6 11.2 0.63
-1 -1 6 10.08 0.57
1 -1 -6 11.07 0.64
1 -1 -6 11.83 0.68
1 -1 -6 11.46 0.57
1 -1 -6 11 0.55
-1 -1 6 12.01 0.76
1 1 -6 10.34 0.52
1 1 -6 11.92 0.61
-1 1 6 11.15 0.68
-1 1 6 12.32 0.61
-1 1 6 11.16 0.59
1 1 -6 11.72 0.7
-1 1 6 10.42 0.7
-1 -1 -6 6.62 0.44
1 -1 6 7.28 0.52
-1 -1 -6 6.57 0.42
-1 -1 -6 6.84 0.53
1 -1 6 7.38 0.57
1 -1 6 8 0.46
1 -1 6 7.37 0.74
1 1 6 7.2 0.61
-1 1 -6 7.76 0.41
1 1 6 7.09 0.58
1 1 6 8.4 0.5
-1 1 -6 6.88 0.57
1 1 6 6.93 0.45
-1 1 -6 7.38 0.51
-3 -1 -6 0.11 0.18
3 -1 6 0.08 0.16
3 -1 6 0.01 0.19
-3 -1 -6 -0.09 0.13
3 -1 6 -0.11 0.11
-3 -1 -6 -0.15 0.1
3 -1 6 0.21 0.24
-3 1 -6 -0.16 0.15
3 1 6 0.07 0.23
-3 1 -6 -0.06 0.11
3 1 6 -0.09 0.2
3 1 6 0.01 0.14
-3 1 -6 0.03 0.11
-3 1 -6 -0.12 0.16
3 1 6 -0.01 0.12
-5 -1 -6 0.1 0.13
5 -1 6 0.08 0.2
-5 -1 -6 -0.01 0.17
-5 -1 -6 0.04 0.11
5 -1 6 0.15 0.12
5 -1 6 -0.05 0.15
5 1 6 -0.02 0.12
-5 1 -6 0.12 0.18
-5 1 -6 0.15 0.12
5 1 6 -0.07 0.13
5 1 6 0.13 0.24
-5 1 -6 0.03 0.1
5 1 6 0.16 0.22
7 -1 6 3.65 0.59
-7 -1 -6 4.14 0.4
7 -1 6 3.49 0.42
-7 -1 -6 3.24 0.48
-7 -1 -6 3.65 0.27
-7 1 -6 3.65 0.48
-7 1 -6 3.57 0.28
-7 1 -6 3.06 0.23
7 1 6 3.93 0.4
7 1 6 3.29 0.53
7 1 6 4.2 0.62
-9 -1 -6 0.21 0.22
9 -1 6 0.38 0.3
9 -1 6 0.43 0.21
-9 -1 -6 0.72 0.17
-9 -1 -6 0.66 0.18
-9 1 -6 0.43 0.25
9 1 6 0.23 0.25
9 1 6 0.41 0.19
9 1 6 0.78 0.34
-9 1 -6 0.39 0.14
11 -1 6 10.73 0.88
11 -1 6 10.91 0.65
-11 -1 -6 9.56 0.53
-11 -1 -6 9.69 0.73
11 1 6 10.08 0.79
-11 1 -6 10.78 0.49
11 1 6 9.95 0.85
11 1 6 10.42 0.59
-11 1 -6 9.38 0.7
-13 -1 -6 0.36 0.25
13 -1 6 0 0.29
-13 -1 -6 0.12 0.14
13 -1 6 0.23 0.19
13 1 6 0.27 0.2
-13 1 -6 0.17 0.23
13 1 6 -0.07 0.29
-13 1 -6 0.05 0.13
-15 -1 -6 2.93 0.53
15 -1 6 3.21 0.45
-15 -1 -6 3.15 0.38
15 -1 6 3.63 0.69
-15 1 -6 3.14 0.39
15 1 6 4.19 0.47
15 1 6 3.35 0.69
-15 1 -6 3.14 0.52
-17 -1 -6 5.82 0.47
17 -1 6 4.42 0.77
17 -1 6 5.64 0.62
-17 -1 -6 4.23 0.63
17 1 6 4.69 0.81
-17 1 -6 7.03 0.78
-19 -1 -6 1.62 0.47
19 -1 6 0.88 0.33
19 -1 6 0.96 0.51
-19 -1 -6 0.56 0.24
-19 1 -6 0.41 0.33
19 1 6 2.33 0.64
21 -1 6 0.24 0.49
-21 -1 -6 0.37 0.34
-21 -1 -6 0.42 0.25
-21 1 -6 0.72 0.38
21 1 6 0.43 0.5
23 -1 6 0.62 0.55
-23 -1 -6 0.17 0.36
-23 1 -6 1.06 0.43
23 1 6 1.06 0.59
25 -1 6 -0.51 0.49
-25 -1 -6 0.05 0.39
25 1 6 0.28 0.52
-25 1 -6 0.09 0.4
-27 -1 -6 3.05 0.68
27 -1 6 2.78 0.91
-27 1 -6 2.33 0.62
27 1 6 2.4 0.85
28 -2 -6 4.35 0.61
-28 -2 6 4.01 0.85
-28 2 6 3.58 0.8
28 2 -6 3.53 0.56
26 -2 -6 0.51 0.32
-26 -2 6 0.69 0.54
26 2 -6 0.49 0.35
-26 2 6 0.71 0.53
24 -2 -6 5.03 0.59
-24 -2 6 4.42 0.81
-24 2 6 3.63 0.69
24 2 -6 4.74 0.57
22 -2 -6 8.27 0.65
-22 -2 6 6.81 0.87
-22 2 6 6.9 0.86
22 2 -6 6.73 0.65
-20 -2 6 16.01 1.09
20 -2 -6 16.84 0.84
20 2 -6 17.72 0.89
20 2 -6 15.34 0.77
-20 2 6 17.58 1.12
18 -2 -6 17.45 0.84
-18 -2 6 16.25 1.05
-18 2 6 18.23 1.09
18 2 -6 18.29 0.88
18 2 -6 16.21 0.76
16 -2 -6 12.56 0.68
-16 -2 6 12.77 0.88
-16 2 6 11.01 0.84
16 2 -6 12.48 0.62
16 2 -6 10.71 0.69
14 -2 -6 18.46 0.82
-14 -2 6 18.13 0.9
-14 -2 6 19.05 1.03
14 2 -6 18.43 0.87
-14 2 6 19.98 1.04
14 2 -6 18.94 0.78
12 -2 -6 3.98 0.42
12 -2 -6 4.13 0.31
-12 -2 6 3 0.45
-12 -2 6 3.11 0.48
12 2 -6 3.19 0.43
-12 2 6 4.55 0.58
12 2 -6 3.79 0.4
-12 2 6 4.21 0.43
-10 -2 6 8.27 0.61
10 -2 -6 7.9 0.42
-10 -2 6 7.37 0.6
10 -2 -6 8.08 0.5
10 2 -6 7.6 0.49
-10 2 6 6.64 0.65
10 2 -6 8.14 0.56
-10 2 6 7.84 0.54
8 -2 -6 8.37 0.47
-8 -2 6 8.89 0.61
8 -2 -6 7.28 0.48
-8 -2 6 8.24 0.6
-8 2 6 7.15 0.58
-8 2 6 8.81 0.56
-8 2 6 8.19 0.53
8 2 -6 8.02 0.53
8 2 -6 8.24 0.57
8 2 -6 8.27 0.44
6 -2 -6 14.65 0.68
-6 -2 6 13.03 0.74
-6 -2 6 15.65 0.77
6 -2 -6 14.07 0.64
6 2 -6 15.49 0.74
-6 2 6 14.29 0.67
-6 2 6 14.36 0.73
6 2 -6 14.49 0.73
-6 2 6 14.53 0.74
-6 2 6 14.27 0.76
6 2 -6 14.95 0.6
4 -2 -6 4.93 0.43
-4 -2 6 5.12 0.58
-4 -2 6 4.51 0.49
-4 -2 6 5.03 0.5
4 -2 -6 5.14 0.42
4 -2 -6 5.54 0.38
4 2 -6 5 0.51
4 2 -6 4.6 0.37
-4 2 6 5.1 0.52
-4 2 6 5 0.45
-4 2 6 6.46 0.58
-4 2 6 5.55 0.53
2 -2 -6 1.62 0.32
2 -2 -6 2.33 0.29
-2 -2 6 2.25 0.4
2 -2 -6 1.77 0.28
2 -2 -6 2.6 0.34
-2 -2 6 1.91 0.31
-2 -2 6 2.49 0.37
2 2 -6 2.28 0.38
2 2 -6 1.8 0.28
-2 2 6 2.7 0.36
-2 2 6 2.08 0.37
-2 2 6 2.1 0.29
-2 2 6 2.54 0.4
0 -2 -6 21.79 0.86
0 -2 -6 23.56 0.82
0 -2 6 22.65 0.84
0 -2 -6 24.19 0.86
0 -2 6 19.91 1.03
0 -2 6 21.63 0.94
0 -2 -6 20.53 0.94
0 2 6 23.25 0.85
0 2 -6 21.73 0.74
0 2 6 23.32 1.05
0 2 6 23.23 0.89
0 2 -6 20.3 0.99
0 2 6 21.31 1
0 2 -6 21.11 0.86
-2 -2 -6 68.23 1.89
-2 -2 -6 69.58 2.06
2 -2 6 68.33 2.01
2 -2 6 69.61 1.82
-2 -2 -6 66.42 1.82
2 -2 6 65.48 2.21
-2 2 -6 70.03 1.73
2 2 6 69.11 1.86
2 2 6 69.73 1.88
-2 2 -6 72.31 1.99
-2 2 -6 67.13 2.14
2 2 6 67.77 2.17
2 2 6 68.51 2.13
4 -2 6 90.49 2.2
4 -2 6 86.94 2.73
-4 -2 -6 91.17 2.35
4 -2 6 91.13 2.48
-4 -2 -6 90.51 2.25
-4 -2 -6 91.77 2.56
4 2 6 89.94 2.71
4 2 6 90.13 2.64
-4 2 -6 90.45 2.46
-4 2 -6 88.17 2.15
4 2 6 88.72 2.29
-4 2 -6 89.83 2.66
6 -2 6 62.2 1.55
-6 -2 -6 61.98 1.61
6 -2 6 59.38 1.85
-6 -2 -6 61.55 1.97
-6 -2 -6 60.62 1.74
6 -2 6 62.58 2.17
-6 2 -6 59.07 1.87
6 2 6 61.67 1.7
6 2 6 62.05 2.06
-6 2 -6 62.79 1.55
6 2 6 63.38 2.15
-6 2 -6 62.72 1.52
-8 -2 -6 11.81 0.75
-8 -2 -6 11.96 0.49
8 -2 6 13.06 0.91
-8 -2 -6 12.11 0.62
8 -2 6 12.23 0.71
-8 2 -6 11.89 0.47
8 2 6 12.9 0.6
-8 2 -6 11.83 0.72
8 2 6 12.39 0.9
8 2 6 10.29 0.78
10 -2 6 10.01 0.85
-10 -2 -6 9.03 0.71
-10 -2 -6 9.76 0.55
-10 -2 -6 10.16 0.54
10 -2 6 10.33 0.65
-10 2 -6 10.25 0.49
10 2 6 10.46 0.86
10 2 6 10.96 0.56
10 2 6 7.99 0.83
-10 2 -6 9.76 0.7
-12 -2 -6 1.61 0.29
12 -2 6 1.63 0.48
12 -2 6 1.97 0.37
-12 -2 -6 1.92 0.43
-12 2 -6 1.39 0.35
12 2 6 1.45 0.45
12 2 6 0.97 0.24
12 2 6 1.43 0.41
14 -2 6 7.99 0.62
-14 -2 -6 7.99 0.53
14 -2 6 8.36 1.01
-14 -2 -6 8.09 0.8
-14 2 -6 6.69 0.71
14 2 6 8 0.86
14 2 6 7.8 0.94
-16 -2 -6 14.66 0.96
-16 -2 -6 14.76 0.72
16 -2 6 14.8 1.13
16 -2 6 14.14 0.85
16 2 6 15.61 1.2
-16 2 -6 13.58 0.9
18 -2 6 1.54 0.39
-18 -2 -6 2.01 0.35
18 -2 6 1.93 0.58
-18 -2 -6 1.01 0.38
18 2 6 0.74 0.5
-18 2 -6 1.25 0.4
20 -2 6 1.53 0.43
-20 -2 -6 1.64 0.49
20 -2 6 3.25 0.75
-20 -2 -6 2.54 0.4
20 2 6 2.25 0.68
-20 2 -6 1.98 0.49
-22 -2 -6 5.53 0.79
22 -2 6 5.32 0.99
22 -2 6 4.87 0.67
-22 -2 -6 4.79 0.54
22 2 6 5.03 1
-22 2 -6 3.93 0.64
-24 -2 -6 10.86 1.11
-24 -2 -6 11.26 0.77
24 -2 6 8.57 1.23
24 2 6 8.15 1.21
-24 2 -6 8.88 0.93
26 -2 6 12.89 1.53
-26 -2 -6 15.26 1.21
-26 2 -6 15.06 1.16
26 2 6 13.87 1.6
-27 -3 6 10.09 1.2
27 -3 -6 8.32 0.8
27 3 -6 8.3 0.77
-27 3 6 7.83 0.98
25 -3 -6 19.97 1.04
-25 -3 6 25.82 1.51
25 3 -6 20.95 1.07
-25 3 6 22.41 1.39
23 -3 -6 8.51 0.68
-23 -3 6 7.38 0.93
-23 3 6 7.22 0.92
23 3 -6 7.91 0.85
23 3 -6 5.72 0.64
-21 -3 6 2.62 0.57
21 -3 -6 2.36 0.41
21 3 -6 1.91 0.41
21 3 -6 3.08 0.44
-21 3 6 2.07 0.56
-19 -3 6 0.19 0.32
19 -3 -6 0.57 0.27
19 3 -6 0.51 0.29
19 3 -6 0.43 0.24
-19 3 6 0.01 0.34
-17 -3 6 5.94 0.73
17 -3 -6 7.4 0.56
17 3 -6 7.32 0.54
-17 3 6 7.61 0.84
17 3 -6 7.98 0.63
15 -3 -6 10.65 0.6
-15 -3 6 8.43 0.66
-15 -3 6 9.72 0.78
-15 3 6 9.36 0.76
15 3 -6 10.69 0.58
15 3 -6 9.66 0.65
-13 -3 6 42.4 1.52
13 -3 -6 41.44 1.33
-13 -3 6 42.03 1.6
-13 3 6 42.93 1.6
-13 3 6 42.38 1.4
13 3 -6 42.09 1.45
13 3 -6 44.1 1.35
-11 -3 6 1.06 0.3
-11 -3 6 1.47 0.36
11 -3 -6 1.51 0.26
11 3 -6 2.43 0.39
11 3 -6 2.15 0.32
-11 3 6 1.55 0.36
-11 3 6 1.7 0.32
-9 -3 6 8.65 0.62
-7 -3 6 2.01 0.37
-7 -3 6 1.6 0.33
7 -3 -6 2.59 0.3
7 -3 -6 2.02 0.28
7 -3 -6 2.36 0.38
-7 3 6 2.75 0.42
7 3 -6 2.55 0.37
7 3 -6 2.39 0.24
-7 3 6 3.02 0.42
7 3 -6 2.3 0.35
5 -3 -6 3.77 0.44
-5 -3 6 2.14 0.35
-5 -3 6 2.37 0.38
5 -3 -6 2.54 0.3
5 -3 -6 2.6 0.34
5 3 -6 3.28 0.31
-5 3 6 3.58 0.44
-5 3 6 2.57 0.37
-5 3 6 3.2 0.45
-5 3 6 2.83 0.34
5 3 -6 2.39 0.38
3 -3 -6 13.37 0.59
3 -3 -6 12.83 0.69
3 -3 -6 12.78 0.67
-3 -3 6 13.73 0.68
-3 -3 6 13.16 0.82
-3 -3 6 13.81 0.76
3 -3 -6 14.47 0.7
-3 3 6 13.25 0.73
3 3 -6 14.31 0.78
-3 3 6 14.34 0.73
3 3 -6 13.9 0.61
-3 3 6 13.63 0.62
-3 3 6 13.96 0.77
-1 -3 6 21.61 0.86
-1 -3 6 21.1 0.97
1 -3 -6 23.48 0.89
-1 -3 6 22.92 1.11
1 -3 -6 22.87 0.79
1 -3 -6 23.64 0.93
-1 3 6 22.11 0.91
1 3 -6 23.94 0.88
-1 3 6 22.72 1.02
-1 3 6 23.78 0.84
-1 3 6 23.14 1.04
1 3 -6 22.36 1.04
-1 -3 -6 36.57 1.14
-1 -3 -6 34.1 1.03
-1 -3 -6 31.76 1.15
1 -3 6 33.62 1.26
1 -3 6 34.59 1.43
1 -3 6 34.73 1.1
-1 3 -6 32.37 1.15
1 3 6 34.49 1.07
1 3 6 34.06 1.35
-1 3 -6 32.05 0.94
1 3 6 36.22 1.37
1 3 6 33.76 1.16
-1 3 -6 33.05 1.34
-3 -3 -6 14.07 0.57
3 -3 6 13.2 0.88
-3 -3 -6 13.72 0.62
3 -3 6 13.77 0.58
-3 -3 -6 12.46 0.76
3 -3 6 13.68 0.75
-3 -3 -6 13.69 0.68
-3 3 -6 14.32 0.72
3 3 6 14.06 0.84
-3 3 -6 14.3 0.85
-3 3 -6 13.43 0.49
3 3 6 13.7 0.59
3 3 6 14.93 0.87
5 -3 6 0.93 0.19
-5 -3 -6 0.59 0.18
-5 -3 -6 1.03 0.3
5 -3 6 0.37 0.28
-5 -3 -6 0.59 0.22
5 -3 6 0.39 0.22
5 3 6 0.55 0.18
5 3 6 0.55 0.3
-5 3 -6 0.62 0.24
5 3 6 0.63 0.3
-5 3 -6 0.43 0.25
-5 3 -6 0.61 0.19
-7 -3 -6 27.47 0.88
-7 -3 -6 25.76 1.17
7 -3 6 26.92 1.11
-7 -3 -6 27.46 1.02
7 -3 6 26.09 1.31
7 3 6 26.85 0.89
7 3 6 27.16 1.27
-7 3 -6 26.14 1.08
-7 3 -6 25.07 1.22
7 3 6 28.99 1.34
9 -3 6 58.26 2.17
-9 -3 -6 58.09 1.98
-9 -3 -6 57.89 1.55
-9 -3 -6 59.14 1.73
9 -3 6 57.77 1.86
9 3 6 59.11 2.16
9 3 6 58.71 2.07
-9 3 -6 60.39 1.89
9 3 6 60.99 1.61
11 -3 6 5.64 0.75
11 -3 6 5.26 0.58
-11 -3 -6 4.99 0.63
-11 -3 -6 5.84 0.52
-11 -3 -6 5.39 0.54
-11 3 -6 6.46 0.63
11 3 6 6.89 0.84
11 3 6 3.79 0.61
13 -3 6 14.22 0.84
-13 -3 -6 15.87 0.97
-13 -3 -6 14.62 0.74
13 -3 6 15.05 1.09
13 3 6 15.16 1.05
-13 3 -6 16.5 0.92
13 3 6 16.77 1.16
15 -3 6 1.85 0.39
-15 -3 -6 2.06 0.33
-15 -3 -6 2.54 0.49
15 -3 6 2.53 0.58
15 3 6 2.78 0.61
15 3 6 2.23 0.47
-17 -3 -6 12.02 0.93
-17 -3 -6 12.69 0.71
17 -3 6 13.63 1.14
17 -3 6 11.92 0.84
-17 3 -6 12.56 0.86
17 3 6 11.81 1.11
17 3 6 13.36 1.17
19 -3 6 19.09 1.09
19 -3 6 22.03 1.45
-19 -3 -6 19.25 1.16
-19 -3 -6 20.14 0.93
19 3 6 21.73 1.5
-19 3 -6 18.02 1.08
21 -3 6 10.11 1.21
21 -3 6 9.74 0.92
-21 -3 -6 8.59 0.94
-21 -3 -6 9.39 0.68
21 3 6 9.1 1.23
-21 3 -6 9.97 0.95
23 -3 6 2.68 0.79
-23 -3 -6 1.71 0.54
-23 -3 -6 2.05 0.41
23 -3 6 2.03 0.53
23 3 6 1.87 0.72
-23 3 -6 1.31 0.44
25 -3 6 1.21 0.64
-25 -3 -6 1.15 0.4
25 -3 6 -0.16 0.48
-25 -3 -6 1.9 0.59
25 3 6 1.16 0.71
-25 3 -6 2.08 0.55
26 -4 -6 0.59 0.5
26 -4 -6 0.41 0.32
-26 -4 6 -0.62 0.5
26 4 -6 0.45 0.35
-26 4 6 0.09 0.5
24 -4 -6 0.22 0.28
24 -4 -6 -0.22 0.37
-24 -4 6 0.23 0.47
24 4 -6 0.31 0.32
24 4 -6 0.35 0.33
-24 4 6 0.1 0.47
-22 -4 6 2.82 0.61
22 -4 -6 4.26 0.53
22 -4 -6 3.95 0.65
22 4 -6 2.99 0.47
22 4 -6 3.57 0.51
-22 4 6 2.9 0.67
20 -4 -6 17.6 0.88
20 -4 -6 18.56 1.09
-20 -4 6 17.17 1.15
20 4 -6 17.23 0.93
-20 4 6 16.89 1.12
20 4 -6 17.79 0.87
18 -4 -6 11.92 0.88
18 -4 -6 11.83 0.67
-18 -4 6 11.56 0.9
-18 4 6 11.02 0.92
18 4 -6 11.29 0.74
18 4 -6 11.44 0.7
-16 -4 6 0.63 0.3
-16 -4 6 0.17 0.3
16 -4 -6 0.51 0.31
16 -4 -6 0.49 0.22
-16 4 6 0.76 0.39
16 4 -6 0.25 0.22
16 4 -6 0.53 0.28
-14 -4 6 0.86 0.33
-14 -4 6 0.95 0.35
14 -4 -6 1.82 0.31
14 -4 -6 0.78 0.33
-14 4 6 1.47 0.32
14 4 -6 1.9 0.33
14 4 -6 1.07 0.3
-14 4 6 1.58 0.43
12 -4 -6 0.19 0.24
-12 -4 6 0.4 0.28
12 -4 -6 0.26 0.18
-12 -4 6 0.28 0.26
-12 4 6 0.06 0.26
-12 4 6 0.27 0.23
12 4 -6 0.2 0.19
12 4 -6 0.07 0.22
-10 -4 6 2.75 0.46
-10 -4 6 2.97 0.44
10 -4 -6 3.62 0.36
10 -4 -6 3.24 0.46
-10 4 6 2.69 0.4
10 4 -6 4.31 0.46
10 4 -6 2.79 0.41
-10 4 6 2.41 0.43
8 -4 -6 6.28 0.52
-8 -4 6 4.9 0.55
8 -4 -6 4.99 0.38
-8 -4 6 4.66 0.53
-8 4 6 5.08 0.57
8 4 -6 5.46 0.55
-8 4 6 4.04 0.49
8 4 -6 5.48 0.46
6 -4 -6 1.72 0.28
6 -4 -6 2.17 0.27
-6 -4 6 1.07 0.3
6 -4 -6 1.18 0.29
-6 -4 6 1.78 0.33
-6 4 6 1.57 0.29
-6 4 6 1.97 0.36
6 4 -6 1.94 0.22
6 4 -6 2.51 0.4
-6 4 6 2.17 0.38
-4 -4 6 0.06 0.21
4 -4 -6 0.13 0.12
-4 -4 6 0.33 0.21
4 -4 -6 0.15 0.18
4 -4 -6 0.03 0.18
4 -4 -6 0.12 0.16
-4 4 6 0.16 0.18
-4 4 6 0.04 0.19
-4 4 6 0.39 0.23
4 4 -6 0.14 0.13
4 4 -6 0.18 0.2
2 -4 -6 4.15 0.46
-2 -4 6 4.63 0.55
-2 -4 6 5.75 0.51
2 -4 -6 3.89 0.31
2 -4 -6 4.85 0.49
2 4 -6 4.38 0.35
-2 4 6 3.54 0.44
-2 4 6 4.47 0.54
-2 4 6 4.37 0.52
2 4 -6 4.65 0.54
0 -4 -6 14.64 0.58
0 -4 6 14.63 0.91
0 -4 6 16.08 0.69
0 -4 -6 14.17 0.73
0 -4 -6 15.97 0.72
0 -4 6 14.29 0.8
0 4 6 15.72 0.75
0 4 6 15.03 0.87
0 4 -6 14.82 0.53
0 4 6 14.49 0.83
0 4 6 14.36 0.59
0 4 -6 14.4 0.84
0 4 -6 15.47 0.68
2 -4 6 11.9 0.72
2 -4 6 12.05 0.85
-2 -4 -6 12.45 0.68
-2 -4 -6 12.31 0.5
2 -4 6 12.68 0.58
-2 -4 -6 13.41 0.62
-2 4 -6 13.16 0.82
2 4 6 11.4 0.77
2 4 6 12.99 0.55
-2 4 -6 13.69 0.67
2 4 6 12.54 0.81
4 -4 6 5.88 0.69
4 -4 6 7.24 0.41
4 -4 6 5.56 0.59
-4 -4 -6 7.22 0.46
-4 -4 -6 6.62 0.51
-4 -4 -6 6.69 0.36
-4 4 -6 5.76 0.66
-4 4 -6 6.8 0.5
4 4 6 8 0.68
4 4 6 6.99 0.39
4 4 6 6.39 0.7
-6 -4 -6 9.87 0.61
6 -4 6 11.06 0.7
6 -4 6 10.29 0.84
-6 -4 -6 9.67 0.72
-6 -4 -6 10.54 0.53
-6 -4 -6 10.31 0.49
-6 4 -6 10.48 0.79
-6 4 -6 9.84 0.62
6 4 6 11.28 0.83
6 4 6 10.28 0.78
6 4 6 11.7 0.49
-8 -4 -6 2.91 0.48
-8 -4 -6 3.35 0.34
-8 -4 -6 3.55 0.43
8 -4 6 3.57 0.49
8 -4 6 3.27 0.6
-8 4 -6 4.27 0.5
-8 4 -6 3.56 0.57
8 4 6 3.01 0.56
8 4 6 2.88 0.5
-10 -4 -6 0.51 0.3
10 -4 6 0.71 0.29
-10 -4 -6 1.06 0.21
10 -4 6 0.26 0.32
-10 -4 -6 0.83 0.25
-10 4 -6 0.9 0.29
10 4 6 0.56 0.33
10 4 6 0.72 0.39
-10 4 -6 0.38 0.29
-12 -4 -6 15.85 0.79
12 -4 6 15.93 0.9
-12 -4 -6 15.88 0.98
12 -4 6 15.21 1.09
12 4 6 16.37 1.14
12 4 6 15.33 1.04
-12 4 -6 13.66 0.83
14 -4 6 1.96 0.43
14 -4 6 1.93 0.52
-14 -4 -6 2.28 0.49
-14 -4 -6 2.07 0.36
14 4 6 1.65 0.54
14 4 6 1.56 0.48
-14 4 -6 2.88 0.48
-16 -4 -6 0.15 0.32
-16 -4 -6 -0.06 0.19
16 -4 6 -0.3 0.32
16 -4 6 -0.12 0.23
16 4 6 0.03 0.29
-16 4 -6 -0.17 0.25
16 4 6 0.36 0.4
18 -4 6 -0.01 0.39
-18 -4 -6 0.41 0.23
18 -4 6 -0.2 0.26
-18 -4 -6 0.08 0.28
18 4 6 0.69 0.45
18 4 6 0.19 0.37
-18 4 -6 0.32 0.32
-20 -4 -6 0.67 0.29
-20 -4 -6 0.23 0.36
20 -4 6 0.63 0.38
20 -4 6 0.49 0.48
20 4 6 0.02 0.45
20 4 6 -0.04 0.41
-20 4 -6 0.5 0.36
-22 -4 -6 0.47 0.29
-22 -4 -6 0.14 0.37
22 -4 6 0.27 0.48
22 -4 6 0.56 0.4
-22 4 -6 0.61 0.37
22 4 6 0.19 0.53
-24 -4 -6 6.03 0.86
24 -4 6 4.16 0.7
24 -4 6 5.03 0.97
-24 -4 -6 4.69 0.61
-24 4 -6 4.97 0.75
24 4 6 5.73 1.1
26 -4 6 3.42 0.92
26 -4 6 2.33 0.65
-26 -4 -6 2.29 0.52
-26 -4 -6 1.53 0.6
26 4 6 2.27 0.87
-26 4 -6 3.14 0.61
25 -5 -6 10.15 1.03
-25 -5 6 12.4 1.23
25 -5 -6 11.98 0.85
25 5 -6 13.27 0.95
25 5 -6 11.91 0.84
-25 5 6 12.18 1.21
23 -5 -6 10.81 0.79
23 -5 -6 14.33 1.06
-23 -5 6 15.63 1.17
23 5 -6 15.54 0.95
23 5 -6 12.57 0.85
-23 5 6 13.69 1.14
-21 -5 6 9.92 1.07
21 -5 -6 12.28 0.76
21 -5 -6 12.64 0.96
21 5 -6 10.49 0.77
-21 5 6 10.89 1.07
21 5 -6 11.07 0.76
19 -5 -6 1.26 0.43
-19 -5 6 1.06 0.42
19 -5 -6 1.31 0.33
-19 5 6 0.84 0.45
19 5 -6 0.9 0.32
19 5 -6 1.23 0.36
-17 -5 6 12.94 0.98
17 -5 -6 14.35 0.75
-17 -5 6 13.64 0.87
17 -5 -6 14.52 0.93
-17 5 6 11.62 0.92
17 5 -6 14.33 0.84
17 5 -6 14.96 0.79
-15 -5 6 7.47 0.79
-15 -5 6 5.35 0.62
15 -5 -6 6.9 0.72
15 -5 -6 6.79 0.51
15 5 -6 6.98 0.65
-15 5 6 7.49 0.68
15 5 -6 6.79 0.54
-15 5 6 5.89 0.71
-13 -5 6 10.46 0.77
13 -5 -6 9.67 0.56
-13 -5 6 8.68 0.7
13 -5 -6 9.09 0.72
13 5 -6 10.13 0.7
-13 5 6 9.78 0.69
-13 5 6 8.88 0.82
13 5 -6 8.86 0.59
-11 -5 6 15.15 0.86
-11 -5 6 13.72 0.87
11 -5 -6 14.31 0.65
11 -5 -6 16.38 0.88
-11 5 6 14.06 0.88
11 5 -6 14.12 0.73
-11 5 6 14.32 0.82
11 5 -6 14.99 0.82
9 -5 -6 0.4 0.18
-9 -5 6 0.71 0.3
9 -5 -6 0.56 0.27
-9 -5 6 0.94 0.31
9 5 -6 0.23 0.21
-9 5 6 0.76 0.31
9 5 -6 0.89 0.26
-9 5 6 0.46 0.26
-7 -5 6 0.02 0.19
7 -5 -6 -0.03 0.12
-7 -5 6 0.21 0.23
7 -5 -6 0.02 0.2
-7 5 6 -0.1 0.2
-7 5 6 -0.12 0.19
7 5 -6 0.36 0.21
5 -5 -6 7.85 0.42
-5 -5 6 6.26 0.66
5 -5 -6 6.96 0.64
5 -5 -6 8.21 0.57
5 -5 -6 7.75 0.48
-5 -5 6 8.32 0.58
5 5 -6 7.6 0.39
-5 5 6 8.07 0.53
5 5 -6 8 0.6
-5 5 6 7.52 0.58
-5 5 6 8.12 0.65
-3 -5 6 23.51 1.09
3 -5 -6 25.15 0.81
3 -5 -6 25.01 1.05
3 -5 -6 24.85 1.01
-3 -5 6 26.25 1.02
-3 5 6 26.72 1.17
3 5 -6 26.34 0.85
-3 5 6 25.01 1.03
3 5 -6 25.42 1.1
-3 5 6 25.53 1.07
-1 -5 6 67.14 2.1
1 -5 -6 67.61 2.01
1 -5 -6 69.39 1.71
1 -5 -6 68.2 1.95
-1 -5 6 68.57 1.93
-1 5 6 68.53 2.01
1 5 -6 66.95 1.82
-1 5 6 68.61 2.19
1 5 -6 67.88 2.14
-1 5 6 68.12 2.07
1 -5 6 65.75 2.09
-1 -5 -6 69.37 1.68
-1 -5 -6 66.98 1.9
1 -5 6 66.15 2.25
-1 -5 -6 71.92 2.04
1 -5 6 69.17 1.87
1 5 6 67.89 2.13
1 5 6 67.86 2.2
-1 5 -6 64.28 2.14
-1 5 -6 68.95 1.88
-3 -5 -6 7.44 0.56
3 -5 6 8.16 0.46
-3 -5 -6 7.59 0.49
-3 -5 -6 7.33 0.35
3 -5 6 7.26 0.79
3 -5 6 8.52 0.63
3 5 6 6.99 0.73
-3 5 -6 7.39 0.75
-3 5 -6 6.58 0.49
3 5 6 8.04 0.78
-5 -5 -6 0.07 0.14
5 -5 6 0.11 0.21
5 -5 6 0.23 0.3
-5 -5 -6 0.27 0.21
5 5 6 0.26 0.26
5 5 6 -0.11 0.23
-5 5 -6 -0.17 0.2
-5 5 -6 -0.04 0.15
7 -5 6 30.41 1.47
-7 -5 -6 31.93 1.22
-7 -5 -6 33.6 1.08
7 -5 6 32.83 1.34
7 5 6 33.87 1.51
7 5 6 33.11 1.47
-7 5 -6 32.81 1.44
-7 5 -6 32.18 1.22
-9 -5 -6 92.73 2.5
9 -5 6 90.1 2.65
-9 -5 -6 90.1 2.29
-9 -5 -6 85.35 2.7
9 -5 6 86.93 2.89
9 5 6 88.77 2.83
-9 5 -6 89.22 2.53
9 5 6 89.29 2.9
-9 5 -6 91.41 2.82
11 -5 6 60.82 2.3
11 -5 6 59.78 2.02
-11 -5 -6 62.84 1.69
-11 -5 -6 61.18 2.13
-11 -5 -6 59.97 1.86
-11 5 -6 60.65 1.95
-11 5 -6 64.45 2.24
11 5 6 56.91 2.19
11 5 6 59.54 2.3
13 -5 6 6.99 0.91
-13 -5 -6 6.93 0.81
-13 -5 -6 7.75 0.59
13 -5 6 8.29 0.81
13 5 6 7.79 0.91
-13 5 -6 8.12 0.91
13 5 6 9.5 1.08
-13 5 -6 7.61 0.73
15 -5 6 -0.32 0.22
-15 -5 -6 0 0.22
-15 -5 -6 -0.09 0.29
15 -5 6 0.24 0.38
-15 5 -6 0 0.23
15 5 6 0.04 0.35
15 5 6 -0.03 0.31
17 -5 6 20.53 1.36
-17 -5 -6 18.02 0.93
-17 -5 -6 17.98 1.14
17 -5 6 16.55 1.06
17 5 6 17.91 1.37
-17 5 -6 17.79 1.02
17 5 6 17.63 1.24
-19 -5 -6 18.03 0.93
-19 -5 -6 17.02 1.16
19 -5 6 15.2 1.06
19 -5 6 18.49 1.37
19 5 6 17.92 1.28
-19 5 -6 16 1.01
19 5 6 19.58 1.49
21 -5 6 18.82 1.41
-21 -5 -6 16.45 1.18
-21 -5 -6 15.28 0.9
21 -5 6 14.47 1.07
21 5 6 13.38 1.3
21 5 6 18.37 1.52
-21 5 -6 16.9 1.05
23 -5 6 12.12 1.42
23 -5 6 11.09 1.08
-23 -5 -6 9.93 0.78
-23 -5 -6 9.33 1.07
-23 5 -6 7.89 0.88
23 5 6 11.2 1.47
25 -5 6 0.13 0.62
-25 -5 -6 0.99 0.57
-25 -5 -6 0.79 0.38
25 -5 6 0.27 0.47
25 5 6 0.66 0.65
-25 5 -6 1.12 0.45
-26 -6 6 0.43 0.52
26 -6 -6 -0.05 0.35
26 -6 -6 0.02 0.46
-26 6 6 0.13 0.51
26 6 -6 0.16 0.39
26 6 -6 0.45 0.35
24 -6 -6 -0.23 0.31
24 -6 -6 0.4 0.43
-24 -6 6 -0.35 0.44
24 6 -6 -0.06 0.31
-24 6 6 -0.39 0.45
24 6 -6 0.23 0.36
-22 -6 6 1.29 0.53
22 -6 -6 2.41 0.58
22 -6 -6 1.91 0.44
22 6 -6 1.67 0.43
22 6 -6 2.11 0.48
-22 6 6 1.19 0.52
20 -6 -6 0.55 0.39
-20 -6 6 0.7 0.46
20 -6 -6 0.59 0.29
-20 6 6 0.97 0.49
20 6 -6 0.9 0.37
20 6 -6 1.06 0.35
-18 -6 6 2.55 0.47
-18 -6 6 2.33 0.51
18 6 -6 2.42 0.44
-18 6 6 3.35 0.6
18 6 -6 1.59 0.36
16 -6 -6 0.14 0.22
-16 -6 6 0.39 0.3
-16 -6 6 0.48 0.34
16 -6 -6 0.19 0.3
-16 6 6 0.12 0.28
16 6 -6 0.12 0.24
-16 6 6 0.96 0.43
16 6 -6 0.21 0.29
14 -6 -6 4.54 0.6
-14 -6 6 5.65 0.7
-14 -6 6 5.26 0.63
14 -6 -6 5.72 0.51
-14 6 6 6.03 0.66
14 6 -6 5.3 0.6
14 6 -6 6.23 0.53
-14 6 6 5.96 0.73
-12 -6 6 0.14 0.27
-12 -6 6 0.57 0.32
12 -6 -6 0.57 0.3
12 -6 -6 0.77 0.23
12 6 -6 0.33 0.26
12 6 -6 0.63 0.24
-12 6 6 0.4 0.32
-12 6 6 0.32 0.28
10 -6 -6 0.99 0.22
-10 -6 6 0.92 0.32
10 -6 -6 1.36 0.37
-10 -6 6 0.95 0.32
-10 6 6 1.17 0.38
-10 6 6 1.42 0.37
10 6 -6 1.56 0.37
10 6 -6 1.32 0.3
-8 -6 6 0.53 0.28
-8 -6 6 0.57 0.27
8 -6 -6 0.45 0.24
8 -6 -6 0.31 0.15
8 6 -6 0.42 0.23
-8 6 6 0.51 0.28
-8 6 6 0.54 0.29
-4 -6 6 3.06 0.43
4 -6 -6 3.25 0.31
4 -6 -6 4.13 0.49
-4 -6 6 3.6 0.53
4 -6 -6 3.3 0.47
4 6 -6 3.95 0.29
4 6 -6 3.51 0.5
-4 6 6 3.59 0.5
-4 6 6 4.32 0.58
2 -6 -6 0.03 0.2
2 -6 -6 0.12 0.18
-2 -6 6 -0.24 0.18
2 -6 -6 0.15 0.11
-2 -6 6 0.03 0.17
2 6 -6 0.07 0.14
-2 6 6 0.06 0.27
2 6 -6 0.42 0.25
-2 6 6 -0.07 0.19
0 -6 -6 0.15 0.1
0 -6 -6 0.28 0.23
0 -6 6 0.3 0.17
0 -6 -6 0.31 0.2
0 -6 6 0.44 0.24
0 6 6 -0.05 0.25
0 6 -6 0.46 0.26
0 6 -6 0.12 0.16
0 6 6 0.41 0.25
-2 -6 -6 7.87 0.61
2 -6 6 9.03 0.69
-2 -6 -6 7.47 0.53
2 -6 6 7.18 0.78
2 -6 6 8.13 0.49
2 6 6 7.55 0.66
-2 6 -6 8.04 0.5
2 6 6 8.44 0.8
-2 6 -6 7.9 0.68
4 -6 6 0.8 0.26
-4 -6 -6 0.72 0.28
4 -6 6 0.99 0.33
4 -6 6 0.38 0.29
-4 -6 -6 0.88 0.23
4 6 6 0.63 0.3
-4 6 -6 0.71 0.31
-4 6 -6 0.7 0.23
4 6 6 1.08 0.37
-6 -6 -6 0.27 0.21
6 -6 6 -0.01 0.24
6 -6 6 0.04 0.23
-6 -6 -6 0.35 0.19
-6 6 -6 0.27 0.19
-6 6 -6 0.14 0.24
6 6 6 0.04 0.27
6 6 6 0.37 0.3
-8 -6 -6 1.79 0.3
8 -6 6 2.49 0.55
-8 -6 -6 1.2 0.31
8 -6 6 1.85 0.42
-8 6 -6 1.38 0.32
8 6 6 1.3 0.42
-8 6 -6 2.13 0.47
8 6 6 1.34 0.43
10 -6 6 2.22 0.53
-10 -6 -6 1.93 0.32
-10 -6 -6 2.06 0.39
10 -6 6 2.13 0.43
-10 -6 -6 1.71 0.45
10 6 6 1.96 0.5
-10 6 -6 2.17 0.5
-10 6 -6 2.24 0.39
10 6 6 1.54 0.5
12 -6 6 10.41 1.06
-12 -6 -6 7.52 0.83
12 -6 6 7.86 0.77
-12 -6 -6 9.29 0.67
-12 -6 -6 8.17 0.53
-12 6 -6 10 0.86
12 6 6 7.69 0.92
12 6 6 7.56 0.88
-12 6 -6 9.74 0.69
14 -6 6 3.27 0.66
14 -6 6 3.41 0.56
-14 -6 -6 3.38 0.62
-14 -6 -6 3.13 0.49
-14 6 -6 2.63 0.58
14 6 6 3.56 0.75
14 6 6 3.71 0.67
-14 6 -6 3.29 0.5
-16 -6 -6 0.23 0.31
16 -6 6 0.08 0.31
16 -6 6 0.05 0.35
-16 -6 -6 -0.23 0.24
-16 6 -6 -0.21 0.2
16 6 6 0.1 0.37
-16 6 -6 -0.16 0.32
16 6 6 -0.19 0.35
-18 -6 -6 2.85 0.57
18 -6 6 2.28 0.61
18 -6 6 1.34 0.46
18 6 6 2.17 0.65
18 6 6 2.07 0.59
20 -6 6 2.42 0.7
-20 -6 -6 2.47 0.47
20 -6 6 2.1 0.58
-20 -6 -6 1.21 0.49
20 6 6 1.72 0.69
-20 6 -6 2.91 0.53
20 6 6 3.44 0.73
-22 -6 -6 -0.06 0.41
22 -6 6 0.35 0.44
-22 -6 -6 -0.54 0.29
22 -6 6 -0.12 0.53
-22 6 -6 0.02 0.33
22 6 6 0.13 0.56
22 6 6 0.52 0.5
25 -7 -6 4.07 0.74
-25 -7 6 3.36 0.82
25 -7 -6 5.04 0.64
-25 7 6 4.36 0.81
25 7 -6 5.51 0.76
25 7 -6 5.88 0.71
-23 -7 6 17.35 1.28
23 -7 -6 15.46 1.15
23 -7 -6 16.34 0.95
23 7 -6 15.63 1.01
23 7 -6 15.8 0.97
-23 7 6 15.76 1.21
21 -7 -6 2.82 0.49
-21 -7 6 1.7 0.57
21 -7 -6 2.86 0.59
21 7 -6 3.48 0.56
21 7 -6 2.91 0.51
-21 7 6 2.93 0.64
-19 -7 6 0.46 0.34
19 -7 -6 -0.16 0.25
-19 -7 6 -0.14 0.34
19 -7 -6 0.05 0.37
-19 7 6 -0.02 0.39
19 7 -6 -0.04 0.27
19 7 -6 -0.42 0.26
-17 -7 6 4.01 0.6
-17 -7 6 4.25 0.67
17 -7 -6 4.16 0.49
17 -7 -6 4.56 0.65
17 7 -6 4.74 0.55
-17 7 6 4.28 0.61
17 7 -6 4.84 0.61
-17 7 6 4.05 0.68
15 -7 -6 12.93 0.89
-15 -7 6 15.54 1.02
-15 -7 6 12.95 0.89
15 -7 -6 14.01 0.72
15 7 -6 13.91 0.87
15 7 -6 12.31 0.75
-15 7 6 13.29 0.94
-15 7 6 12.63 0.88
13 -7 -6 6.62 0.5
-13 -7 6 7.2 0.8
-13 -7 6 6.55 0.72
13 -7 -6 6.84 0.72
13 7 -6 7.88 0.61
-13 7 6 7.68 0.8
-13 7 6 8.01 0.79
13 7 -6 7.31 0.72
-11 -7 6 6.31 0.69
-11 -7 6 6.09 0.69
11 -7 -6 6.37 0.47
11 -7 -6 5.6 0.63
-11 7 6 5.97 0.7
11 7 -6 6.34 0.54
11 7 -6 6.34 0.66
-11 7 6 5.92 0.69
9 -7 -6 6.57 0.66
9 -7 -6 4.97 0.38
-9 -7 6 4.59 0.59
-9 -7 6 5.45 0.64
-9 7 6 5.34 0.63
9 7 -6 5.68 0.57
-9 7 6 5.65 0.68
7 -7 -6 0.42 0.26
-7 -7 6 0 0.2
-7 -7 6 -0.02 0.25
7 -7 -6 -0.01 0.22
7 -7 -6 0.11 0.15
-7 7 6 0.33 0.27
7 7 -6 0.04 0.19
-7 7 6 0.03 0.24
-5 -7 6 0.92 0.31
5 -7 -6 0.42 0.26
5 -7 -6 0.97 0.18
5 -7 -6 0.47 0.27
-5 -7 6 0.42 0.25
5 7 -6 0.64 0.27
-5 7 6 0.4 0.33
-3 -7 6 25.8 1.05
3 -7 -6 26.27 0.8
-3 -7 6 25.48 1.19
3 -7 -6 22.46 1.08
3 -7 -6 26.39 1.07
3 7 -6 25.29 0.83
3 7 -6 24.93 1.13
-3 7 6 26.52 1.26
1 -7 -6 24.24 1
-1 -7 6 22.42 1.12
1 -7 -6 21.63 1.04
-1 -7 6 24.97 0.98
1 7 -6 23.58 0.83
1 7 -6 22.87 1.09
-1 7 6 22.48 1.16
-1 7 6 22.09 1.02
1 -7 6 1.84 0.42
-1 -7 -6 1.73 0.33
1 -7 6 1.69 0.3
-1 -7 -6 1.3 0.34
-1 7 -6 1.93 0.29
1 7 6 1.64 0.43
-1 7 -6 1.7 0.39
1 7 6 1.46 0.37
-3 -7 -6 14.23 0.72
3 -7 6 14.09 0.97
3 -7 6 13.95 0.88
3 -7 6 14.17 0.67
-3 -7 -6 13.29 0.81
3 7 6 13.97 0.95
-3 7 -6 13.23 0.68
3 7 6 14.73 0.93
-3 7 -6 13.4 0.87
-5 -7 -6 1.2 0.28
5 -7 6 0.84 0.33
-5 -7 -6 1.03 0.32
5 -7 6 1.24 0.4
5 7 6 0.66 0.37
-5 7 -6 1.16 0.28
-5 7 -6 1.37 0.39
5 7 6 0.33 0.3
7 -7 6 16.16 0.96
7 -7 6 14.91 1.05
-7 -7 -6 17.25 0.77
-7 -7 -6 16.12 0.88
7 7 6 15.04 1.04
-7 7 -6 14.22 0.77
7 7 6 17.12 1.08
-7 7 -6 15.18 0.99
9 -7 6 22.84 1.32
-9 -7 -6 22.81 0.93
-9 -7 -6 22.84 1.07
9 -7 6 22.2 1.16
9 7 6 23.29 1.32
9 7 6 22.94 1.32
-9 7 -6 23.02 1.02
-9 7 -6 24.2 1.27
-11 -7 -6 16.07 1.07
-11 -7 -6 16.94 0.79
11 -7 6 15.86 1.01
11 -7 6 17.09 1.18
-11 -7 -6 16.98 0.92
11 7 6 16.49 1.14
-11 7 -6 17.41 1.1
-11 7 -6 16.97 0.9
11 7 6 15.61 1.16
13 -7 6 2.21 0.6
-13 -7 -6 3.36 0.41
-13 -7 -6 3.96 0.56
-13 -7 -6 3.58 0.62
13 -7 6 2.57 0.52
13 7 6 3.43 0.74
13 7 6 2.84 0.65
-13 7 -6 3.57 0.66
-13 7 -6 3.23 0.5
15 -7 6 1.27 0.44
-15 -7 -6 1.26 0.37
15 -7 6 0.64 0.45
-15 -7 -6 1.09 0.44
-15 7 -6 0.79 0.32
15 7 6 0.13 0.42
15 7 6 0.66 0.46
-15 7 -6 0.48 0.42
17 -7 6 3.24 0.74
17 -7 6 3.22 0.59
-17 -7 -6 3.9 0.7
-17 -7 -6 4.16 0.58
-17 7 -6 2.8 0.59
-17 7 -6 2.38 0.47
17 7 6 3.32 0.7
17 7 6 2.87 0.74
-19 -7 -6 13.86 1.25
-19 -7 -6 11.9 0.82
19 -7 6 11.9 1.28
19 -7 6 11.41 1.09
-19 7 -6 9.36 0.89
19 7 6 12.75 1.29
-19 7 -6 12.2 1.2
19 7 6 10.92 1.36
21 -7 6 7.49 0.96
-21 -7 -6 5.42 0.87
21 -7 6 6.32 0.99
-21 -7 -6 6.69 0.75
-21 7 -6 5.6 0.9
21 7 6 5.54 1.04
-21 7 -6 5.42 0.71
21 7 6 5.52 0.93
23 -7 6 7.96 1.01
-23 -7 -6 6.86 0.77
23 -7 6 6.18 1.04
-23 -7 -6 6.4 0.92
23 7 6 5.93 1.15
23 7 6 7.74 1.07
-23 7 -6 8.17 1.07
-23 7 -6 6.89 0.8
-24 -8 6 -0.23 0.52
24 -8 -6 -0.28 0.3
24 -8 -6 -0.01 0.45
-24 8 6 -0.84 0.41
24 8 -6 0.32 0.35
24 8 -6 0.01 0.39
-22 -8 6 5.94 0.81
22 -8 -6 5.52 0.64
22 -8 -6 5.34 0.78
-22 -8 6 6.42 0.93
22 8 -6 5.27 0.64
-22 8 6 5.31 0.81
22 8 -6 5.7 0.73
20 -8 -6 12.79 0.99
-20 -8 6 9.37 1.04
-20 -8 6 9.64 0.92
-20 -8 6 9.39 0.94
20 -8 -6 10.78 0.75
20 8 -6 10.4 0.83
20 8 -6 11.06 0.82
-20 8 6 10.66 1.07
-18 -8 6 6.98 0.78
18 -8 -6 6.23 0.76
-18 -8 6 6.66 0.76
18 -8 -6 5.72 0.58
-18 -8 6 4.86 0.76
-18 8 6 4.77 1.03
18 8 -6 6.58 0.71
18 8 -6 5.99 0.65
-18 8 6 7.11 0.87
16 -8 -6 1.71 0.48
-16 -8 6 1.46 0.44
16 -8 -6 1.91 0.37
-16 -8 6 1.9 0.53
-16 -8 6 1.93 0.43
16 8 -6 1.19 0.39
-16 8 6 1.62 0.49
16 8 -6 1.68 0.39
-16 8 6 1.21 0.42
14 -8 -6 0.02 0.21
-14 -8 6 0.05 0.28
14 -8 -6 -0.09 0.3
-14 -8 6 -0.03 0.29
-14 8 6 0.07 0.29
14 8 -6 0.52 0.3
-14 8 6 -0.39 0.29
14 8 -6 0.36 0.27
-12 -8 6 3.12 0.55
12 -8 -6 3.08 0.53
-12 -8 6 2.31 0.47
12 -8 -6 2.84 0.37
12 8 -6 2.47 0.42
12 8 -6 2.52 0.47
-12 8 6 1.76 0.47
-12 8 6 1.34 0.43
-10 -8 6 6.92 0.77
10 -8 -6 5.69 0.44
-10 -8 6 5.59 0.69
10 -8 -6 4.24 0.58
10 8 -6 6.6 0.56
-10 8 6 5.69 0.7
-10 8 6 6.24 0.75
8 -8 -6 15.37 0.93
-8 -8 6 13.72 0.88
8 -8 -6 13.06 0.61
8 -8 -6 13.2 0.83
-8 -8 6 14.28 0.9
8 8 -6 12.58 0.77
-8 8 6 14.18 0.96
6 -8 -6 16.13 0.95
-6 -8 6 16 0.97
6 -8 -6 15.63 0.63
-6 -8 6 15.09 0.89
6 -8 -6 15.08 0.84
6 8 -6 15.03 0.84
-6 8 6 15.5 1
4 -8 -6 11.32 0.72
-4 -8 6 10 0.8
4 -8 -6 10.9 0.79
-4 -8 6 12.13 0.76
4 8 -6 11.79 0.75
-4 8 6 13.26 0.94
-2 -8 6 0.04 0.22
-2 -8 6 0.22 0.28
2 -8 -6 0.13 0.27
2 -8 -6 0.28 0.26
2 8 -6 0.15 0.15
2 8 -6 0.08 0.22
-2 8 6 -0.12 0.27
0 -8 -6 11.64 0.71
0 -8 6 10.62 0.81
0 -8 6 11.79 0.69
0 -8 -6 9.56 0.74
0 8 -6 10.35 0.55
0 8 6 12.77 0.92
0 8 -6 12.53 0.82
-2 -8 -6 4.43 0.51
2 -8 6 4.14 0.59
-2 -8 -6 3.64 0.54
2 -8 6 3.43 0.43
-2 8 -6 4.58 0.44
2 8 6 3.96 0.62
-2 8 -6 4.53 0.6
2 8 6 3.6 0.56
4 -8 6 8.64 0.85
-4 -8 -6 7.41 0.75
-4 -8 -6 8.1 0.59
-4 8 -6 8.78 0.55
4 8 6 7.27 0.89
4 8 6 9.54 0.91
-4 8 -6 8.42 0.85
6 -8 6 20.76 1.14
-6 -8 -6 20.36 1.04
-6 -8 -6 21.9 0.93
6 -8 6 19.73 1.2
-6 8 -6 20.54 0.9
6 8 6 20 1.22
-6 8 -6 20.01 1.13
6 8 6 21.08 1.21
8 -8 6 4.29 0.69
-8 -8 -6 4.6 0.49
-8 -8 -6 4.92 0.61
8 -8 6 3.16 0.56
8 8 6 3.29 0.64
-8 8 -6 4.51 0.5
-8 8 -6 4.4 0.66
8 8 6 3.72 0.66
10 -8 6 3.47 0.66
-10 -8 -6 3.82 0.46
-10 -8 -6 3.33 0.52
10 -8 6 2.88 0.55
-10 8 -6 3.15 0.59
-10 8 -6 3.3 0.47
10 8 6 3.06 0.65
10 8 6 1.62 0.54
-12 -8 -6 4.78 0.62
12 -8 6 5.79 0.74
-12 -8 -6 4.5 0.71
-12 -8 -6 5.69 0.56
12 -8 6 5.77 0.86
12 8 6 4.68 0.79
12 8 6 4.46 0.77
-12 8 -6 4.15 0.53
-12 8 -6 4.99 0.73
14 -8 6 17.53 1.11
-14 -8 -6 17.07 0.98
14 -8 6 17.27 1.24
-14 -8 -6 16.92 0.85
-14 -8 -6 16.79 1.15
14 8 6 16.81 1.32
-14 8 -6 17.25 0.96
-14 8 -6 19.03 1.2
14 8 6 14.53 1.18
16 -8 6 12.01 1.21
-16 -8 -6 12 0.86
-16 -8 -6 13.57 1.24
16 -8 6 12.86 1.01
16 8 6 11.4 1.24
16 8 6 13.83 1.43
-16 8 -6 11.74 0.84
-16 8 -6 13.13 1.06
-18 -8 -6 3.04 0.63
18 -8 6 3.92 0.8
-18 -8 -6 2.47 0.5
18 -8 6 3.21 0.69
18 8 6 4.05 0.8
-18 8 -6 3.74 0.58
-18 8 -6 2.56 0.61
18 8 6 2.17 0.7
-20 -8 -6 0.64 0.36
20 -8 6 1 0.57
20 -8 6 0.14 0.45
-20 -8 -6 0.36 0.43
-20 8 -6 0.38 0.47
20 8 6 0.64 0.65
20 8 6 0.26 0.51
-20 8 -6 -0.14 0.35
-22 -8 -6 -0.34 0.46
22 -8 6 0.5 0.55
-22 -8 -6 0.24 0.34
22 -8 6 -0.34 0.42
-22 8 -6 0.08 0.47
-22 8 -6 0.47 0.37
22 8 6 0.5 0.56
22 8 6 0.74 0.7
-21 -9 6 2.87 0.7
-21 -9 6 2.04 0.51
21 -9 -6 1.97 0.46
21 -9 -6 2.04 0.59
-21 9 6 1.27 0.57
21 9 -6 2.34 0.52
21 9 -6 1.99 0.48
-19 -9 6 0.52 0.38
19 -9 -6 0.04 0.38
-19 -9 6 -0.53 0.37
19 -9 -6 0.3 0.29
-19 9 6 -0.19 0.39
19 9 -6 -0.22 0.3
19 9 -6 -0.11 0.29
-17 -9 6 2.43 0.59
-17 -9 6 3.54 0.59
17 -9 -6 2.12 0.4
17 -9 -6 1.74 0.5
-17 9 6 2.81 0.6
17 9 -6 2.94 0.53
-17 9 6 3.13 0.66
17 9 -6 3.88 0.59
-15 -9 6 3.69 0.62
15 -9 -6 4.9 0.66
-15 -9 6 3.49 0.59
15 -9 -6 3.26 0.43
15 9 -6 4.17 0.57
15 9 -6 3.03 0.49
-15 9 6 3.18 0.58
-15 9 6 5.34 0.76
13 -9 -6 2.2 0.5
-13 -9 6 2 0.51
13 -9 -6 2.35 0.36
-13 -9 6 3.29 0.54
-13 9 6 3.21 0.6
13 9 -6 2.77 0.45
13 9 -6 3.11 0.52
-13 9 6 2.93 0.59
11 -9 -6 3.76 0.41
11 -9 -6 2.37 0.49
-11 -9 6 2.49 0.52
11 -9 -6 3.03 0.55
-11 -9 6 3.1 0.54
11 9 -6 3.94 0.57
-11 9 6 2.32 0.52
11 9 -6 3.43 0.49
-9 -9 6 -0.15 0.26
-9 -9 6 -0.04 0.27
9 -9 -6 0.51 0.35
9 -9 -6 0.31 0.19
9 -9 -6 0.44 0.31
-9 9 6 0.08 0.32
9 9 -6 0.25 0.25
-7 -9 6 3.18 0.54
-7 -9 6 2.36 0.5
7 -9 -6 2.64 0.5
7 -9 -6 3.17 0.5
7 9 -6 2.67 0.44
-7 9 6 3.64 0.63
5 -9 -6 1.52 0.39
5 -9 -6 1.05 0.37
-5 -9 6 1.72 0.45
-5 -9 6 1.82 0.42
-5 9 6 2.02 0.49
5 9 -6 1.3 0.33
3 -9 -6 5.27 0.59
-3 -9 6 4.25 0.53
-3 -9 6 5.42 0.66
3 -9 -6 4.87 0.62
-3 9 6 3.98 0.65
3 9 -6 5.51 0.61
-1 -9 6 7.05 0.59
-1 -9 6 6.7 0.75
1 -9 -6 7 0.73
1 -9 -6 6.88 0.66
1 9 -6 6.29 0.67
-1 9 6 7.14 0.84
1 9 -6 7.01 0.45
-1 -9 -6 9.05 0.83
-1 -9 -6 10 0.69
1 -9 6 9.98 0.96
1 -9 6 9.84 0.64
-1 9 -6 7.84 0.51
-1 9 -6 10.33 0.77
1 9 6 9.93 0.98
-3 -9 -6 0.68 0.3
3 -9 6 0.72 0.39
-3 -9 -6 0.94 0.33
-3 9 -6 1.39 0.27
-3 9 -6 0.47 0.32
3 9 6 1.07 0.41
3 9 6 0.9 0.41
5 -9 6 3.34 0.57
-5 -9 -6 3.81 0.55
-5 -9 -6 4 0.49
-5 9 -6 4.36 0.65
5 9 6 3.43 0.66
-5 9 -6 4.04 0.45
5 9 6 3.46 0.61
-7 -9 -6 7.06 0.59
7 -9 6 7.91 0.84
-7 -9 -6 6.63 0.73
7 -9 6 7.64 0.91
-7 9 -6 7.41 0.83
7 9 6 6.1 0.8
7 9 6 6.83 0.89
-7 9 -6 7.04 0.56
9 -9 6 10.13 1.07
9 -9 6 9.51 0.93
-9 -9 -6 10.09 0.68
-9 -9 -6 10.48 0.8
9 9 6 11.98 1.02
-9 9 -6 10.95 0.7
9 9 6 10.11 1.04
-9 9 -6 8.72 0.92
11 -9 6 3.31 0.6
-11 -9 -6 5.04 0.54
-11 -9 -6 4.47 0.63
11 -9 6 3.19 0.65
-11 9 -6 4.19 0.67
11 9 6 3.15 0.7
11 9 6 4.4 0.78
-11 9 -6 4.39 0.55
-13 -9 -6 0.66 0.37
13 -9 6 0.64 0.4
13 -9 6 -0.23 0.35
-13 -9 -6 0.21 0.37
-13 -9 -6 0.1 0.25
-13 9 -6 -0.47 0.28
13 9 6 -0.2 0.39
13 9 6 0.19 0.41
-13 9 -6 -0.1 0.25
15 -9 6 0.39 0.43
-15 -9 -6 1.19 0.46
-15 -9 -6 0.94 0.34
-15 -9 -6 0.96 0.37
15 -9 6 0.46 0.39
15 9 6 1.43 0.54
-15 9 -6 1.18 0.48
15 9 6 0.76 0.54
-15 9 -6 1.1 0.35
-17 -9 -6 0.16 0.34
17 -9 6 0.28 0.42
-17 -9 -6 0.72 0.48
17 -9 6 0.43 0.47
17 9 6 0.33 0.53
-17 9 -6 0.72 0.46
17 9 6 0.34 0.5
-17 9 -6 0.21 0.32
19 -9 6 2.26 0.68
19 -9 6 2.23 0.65
-19 -9 -6 2.38 0.55
-19 -9 -6 1.4 0.52
-19 9 -6 2.35 0.64
19 9 6 0.53 0.53
19 9 6 2.58 0.84
-19 9 -6 1.54 0.43
-21 -9 -6 4.92 0.82
21 -9 6 4.03 0.82
21 -9 6 1.78 0.6
-21 9 -6 3.99 0.6
-21 9 -6 5.83 0.86
21 9 6 2.82 0.78
21 9 6 4.06 0.96
-20 -10 6 14.03 1.01
20 -10 -6 12.69 0.86
20 -10 -6 10.35 1.02
-20 -10 6 12.75 1.23
20 10 -6 13.25 0.97
20 10 -6 14.08 0.97
18 -10 -6 9.53 0.96
-18 -10 6 9.95 0.97
18 -10 -6 11.3 0.79
-18 -10 6 10.56 1.09
-18 10 6 10.45 1.04
18 10 -6 9.92 0.91
18 10 -6 9.51 0.83
16 -10 -6 1.78 0.39
-16 -10 6 1.87 0.56
16 -10 -6 1.82 0.52
-16 -10 6 1.59 0.5
16 10 -6 1.58 0.42
-16 10 6 1.85 0.56
16 10 -6 1.78 0.47
14 -10 -6 1.89 0.38
-14 -10 6 1.82 0.52
-14 -10 6 1.29 0.46
14 -10 -6 1.93 0.48
14 10 -6 1.93 0.45
14 10 -6 2.29 0.5
-14 10 6 1.31 0.46
12 -10 -6 -0.03 0.21
12 -10 -6 0.16 0.33
-12 -10 6 0.05 0.36
-12 -10 6 0.4 0.36
12 -10 -6 1.05 0.44
12 10 -6 0.33 0.26
-12 10 6 0.53 0.37
12 10 -6 0.27 0.31
-10 -10 6 6.23 0.77
-10 -10 6 5.75 0.74
10 -10 -6 6.36 0.79
10 -10 -6 6.04 0.69
10 10 -6 5.35 0.6
-10 10 6 5.89 0.77
8 -10 -6 8.82 0.88
-8 -10 6 9.28 0.91
-8 -10 6 9.48 0.91
8 -10 -6 8.55 0.8
8 10 -6 9.08 0.69
-8 10 6 9.18 0.97
6 -10 -6 6.82 0.71
6 -10 -6 6.24 0.76
-6 -10 6 5.57 0.68
-6 -10 6 6.74 0.79
6 10 -6 6.46 0.67
-6 10 6 6.98 0.86
4 -10 -6 6.2 0.69
-4 -10 6 6.71 0.78
-4 -10 6 5.33 0.66
4 -10 -6 4.92 0.66
-4 10 6 6.93 0.85
4 10 -6 5.62 0.63
2 -10 -6 0.84 0.35
2 -10 -6 0.97 0.4
-2 -10 6 0.35 0.28
-2 -10 6 0.53 0.36
-2 10 6 0.38 0.38
2 10 -6 1.28 0.35
0 -10 -6 2.45 0.45
0 -10 6 2.49 0.54
0 -10 6 1.9 0.41
0 -10 -6 1.95 0.46
0 10 6 1.64 0.49
0 10 -6 2.67 0.48
0 10 -6 2.35 0.32
-2 -10 -6 16.72 0.91
2 -10 6 17.24 1.07
-2 -10 -6 15.56 0.99
-2 10 -6 15.46 0.97
2 10 6 16.12 1.14
-2 10 -6 15.79 0.73
4 -10 6 31.8 1.51
-4 -10 -6 32.28 1.29
-4 -10 -6 30.38 1.38
4 10 6 33.12 1.64
-4 10 -6 31.93 1.15
-4 10 -6 34.63 1.48
-6 -10 -6 31.58 1.43
-6 -10 -6 35.9 1.34
6 -10 6 34.17 1.58
6 10 6 31.86 1.67
6 10 6 33.9 1.61
-6 10 -6 33.47 1.51
-6 10 -6 34.19 1.23
-8 -10 -6 20.56 0.97
8 -10 6 15.74 1.11
-8 -10 -6 17.23 1.03
8 10 6 16.45 1.24
-8 10 -6 19.37 1.15
-8 10 -6 18.34 0.89
8 10 6 18.03 1.24
10 -10 6 0.22 0.37
-10 -10 -6 -0.31 0.27
10 -10 6 -0.5 0.34
-10 -10 -6 0.06 0.27
10 10 6 0.15 0.4
-10 10 -6 0.3 0.25
-10 10 -6 0.17 0.32
10 10 6 -0.09 0.38
12 -10 6 11.02 1.2
12 -10 6 10.71 1.05
-12 -10 -6 10.96 0.76
-12 -10 -6 10.25 0.92
12 10 6 8.99 1.13
-12 10 -6 12.27 0.79
12 10 6 9.25 1.15
-12 10 -6 10.91 1.07
-14 -10 -6 10.88 0.97
-14 -10 -6 10.59 0.77
-14 -10 -6 8.33 1.03
14 -10 6 11.88 1.16
14 -10 6 9.09 1.07
-14 10 -6 9.41 0.81
-14 10 -6 7.89 0.95
14 10 6 7.94 1.11
14 10 6 10.59 1.19
16 -10 6 12.61 1.18
-16 -10 -6 13.88 0.99
-16 -10 -6 11.1 1.18
16 -10 6 14.18 1.37
-16 10 -6 14.01 0.92
16 10 6 12.52 1.32
-16 10 -6 14.27 1.15
16 10 6 11.69 1.4
-18 -10 -6 8.2 1.09
18 -10 6 8.4 1.03
18 -10 6 9.8 1.21
-18 -10 -6 7.05 0.82
18 10 6 7.8 1.11
-18 10 -6 7.16 0.76
-18 10 -6 7.74 1.02
18 10 6 9.97 1.35
20 -10 6 -0.39 0.43
-20 -10 -6 0.4 0.37
-20 -10 -6 -0.2 0.43
-20 10 -6 -0.13 0.33
20 10 6 -0.12 0.49
20 10 6 -0.38 0.58
-20 10 -6 -0.19 0.47
-19 -11 6 -0.8 0.39
19 -11 -6 -0.13 0.4
19 -11 -6 0.07 0.34
-19 -11 6 -0.02 0.46
19 11 -6 0.05 0.38
-19 11 6 0.45 0.53
19 11 -6 0.2 0.38
17 -11 -6 0.12 0.33
-17 -11 6 0.28 0.39
17 -11 -6 0.1 0.37
-17 -11 6 0.16 0.43
-17 11 6 0.29 0.47
17 11 -6 0.09 0.37
17 11 -6 -0.06 0.32
-15 -11 6 0.24 0.41
15 -11 -6 -0.15 0.3
15 -11 -6 0.02 0.42
-15 -11 6 0.06 0.39
15 -11 -6 0.21 0.39
15 11 -6 0.03 0.34
15 11 -6 -0.33 0.29
-15 11 6 0.21 0.42
13 -11 -6 0.76 0.4
13 -11 -6 1.47 0.54
-13 -11 6 1.18 0.47
-13 -11 6 1.28 0.51
-13 11 6 0.56 0.47
13 11 -6 0.53 0.34
13 11 -6 0.43 0.37
11 -11 -6 3.48 0.61
-11 -11 6 3.57 0.65
11 -11 -6 2.63 0.59
-11 -11 6 2.38 0.54
-11 11 6 2.29 0.59
11 11 -6 3.92 0.55
-9 -11 6 1.06 0.42
9 -11 -6 1.51 0.5
9 -11 -6 1.21 0.42
-9 -11 6 1.98 0.49
-9 11 6 1.8 0.57
9 11 -6 0.67 0.31
-7 -11 6 -0.09 0.36
7 -11 -6 0.51 0.4
7 -11 -6 1.13 0.46
-7 -11 6 0.5 0.34
-7 11 6 0.34 0.42
7 11 -6 0.43 0.3
5 -11 -6 1.16 0.38
5 -11 -6 1.14 0.46
-5 -11 6 1.35 0.44
-5 -11 6 1.69 0.5
-5 11 6 2.76 0.62
5 11 -6 1.52 0.39
-3 -11 6 0.85 0.36
-3 -11 6 0.93 0.41
3 -11 -6 0.17 0.34
3 -11 -6 0.94 0.37
-3 11 6 0.66 0.44
3 11 -6 0.65 0.32
1 -11 -6 -0.11 0.3
-1 -11 6 0.09 0.25
1 -11 -6 0.02 0.3
-1 -11 6 -0.24 0.3
-1 11 6 0.17 0.43
1 11 -6 -0.17 0.23
-1 -11 -6 0.72 0.38
1 -11 6 -0.02 0.37
-1 -11 -6 0.1 0.29
-1 11 -6 0.22 0.3
-1 11 -6 0.19 0.21
1 11 6 0.21 0.37
3 -11 6 0.69 0.37
-3 -11 -6 0.45 0.33
-3 -11 -6 1.08 0.43
-3 11 -6 1.47 0.42
3 11 6 1.01 0.49
-3 11 -6 0.73 0.27
5 -11 6 0.29 0.37
-5 -11 -6 0.07 0.35
-5 -11 -6 0.17 0.3
-5 11 -6 0.11 0.31
-5 11 -6 0.39 0.23
5 11 6 -0.39 0.36
-7 -11 -6 0.01 0.29
7 -11 6 -0.14 0.36
-7 -11 -6 0.33 0.34
-7 11 -6 0.07 0.23
7 11 6 0.2 0.45
-7 11 -6 0.39 0.35
-9 -11 -6 0 0.34
9 -11 6 0.57 0.43
-9 -11 -6 -0.01 0.29
9 11 6 0.01 0.43
-9 11 -6 -0.05 0.24
-9 11 -6 -0.18 0.3
9 11 6 0.2 0.44
-11 -11 -6 0.39 0.37
-11 -11 -6 0.12 0.29
11 -11 6 0.02 0.37
11 11 6 -0.1 0.44
-11 11 -6 0.01 0.26
-11 11 -6 -0.02 0.34
11 11 6 0.35 0.45
13 -11 6 0.01 0.38
-13 -11 -6 0.03 0.34
-13 -11 -6 0.22 0.3
-13 11 -6 0.43 0.41
13 11 6 -0.17 0.49
-13 11 -6 -0.18 0.23
13 11 6 -0.53 0.42
-15 -11 -6 0.07 0.3
-15 -11 -6 -0.33 0.42
-15 -11 -6 0.11 0.36
15 -11 6 0.26 0.48
15 -11 6 0.84 0.48
15 11 6 -0.25 0.52
-15 11 -6 -0.01 0.29
15 11 6 -0.1 0.5
-15 11 -6 -0.24 0.34
17 -11 6 1.55 0.67
17 -11 6 1.16 0.52
-17 -11 -6 1.48 0.49
-17 -11 -6 1.04 0.55
17 11 6 0.52 0.58
-17 11 -6 1.71 0.46
17 11 6 1.42 0.73
-17 11 -6 0.72 0.55
-16 -12 6 7 0.85
16 -12 -6 4.25 0.79
-16 -12 6 4.64 0.83
16 -12 -6 6.07 0.83
16 12 -6 5.38 0.74
16 12 -6 6.38 0.75
-16 12 6 7.9 0.99
-14 -12 6 1.2 0.49
14 -12 -6 0.96 0.45
14 -12 -6 1.18 0.53
-14 -12 6 2.1 0.6
14 12 -6 1.07 0.47
14 12 -6 1.05 0.42
-14 12 6 -0.01 0.43
12 -12 -6 0.48 0.47
-12 -12 6 0.17 0.4
12 -12 -6 0.34 0.41
-12 -12 6 0.59 0.4
12 12 -6 0.06 0.36
12 12 -6 0.24 0.33
-12 12 6 0.65 0.48
-10 -12 6 0.96 0.48
-10 -12 6 0.67 0.44
10 -12 -6 1.24 0.46
10 -12 -6 -0.22 0.37
10 12 -6 1.15 0.37
-10 12 6 1.31 0.52
8 -12 -6 0.92 0.42
-8 -12 6 0.96 0.44
-8 -12 6 1.42 0.52
8 -12 -6 1.48 0.51
8 12 -6 0.38 0.33
-8 12 6 0.45 0.48
6 -12 -6 4.13 0.69
6 -12 -6 4.8 0.65
-6 -12 6 5.08 0.73
-6 -12 6 3.86 0.66
-6 12 6 4.74 0.79
6 12 -6 5.05 0.6
-4 -12 6 6.59 0.82
4 -12 -6 6.62 0.73
4 -12 -6 6.44 0.81
-4 -12 6 7.3 0.81
4 12 -6 7.28 0.74
-4 12 6 6.95 0.94
-2 -12 6 0.21 0.37
2 -12 -6 0.33 0.33
-2 -12 6 0.48 0.33
2 -12 -6 0.3 0.35
-2 12 6 -0.12 0.38
2 12 -6 -0.19 0.26
0 -12 6 5.51 0.78
0 -12 -6 5.84 0.76
0 -12 -6 5.32 0.65
0 12 -6 4.72 0.61
0 12 6 3.57 0.73
-2 -12 -6 7.47 0.76
-2 -12 -6 8.21 0.87
2 -12 6 6.2 0.86
-2 12 -6 7.88 0.58
-2 12 -6 5.6 0.7
2 12 6 7.73 0.99
-4 -12 -6 18.51 1.19
4 -12 6 20.22 1.29
-4 -12 -6 18.61 1.06
-4 12 -6 19.91 1.15
-4 12 -6 20.51 0.91
4 12 6 19.74 1.39
-6 -12 -6 24.41 1.18
-6 -12 -6 26.58 1.37
6 -12 6 20.98 1.35
-6 12 -6 24.93 1.3
-6 12 -6 25.44 1.07
6 12 6 23.65 1.55
8 -12 6 9.46 1.08
-8 -12 -6 10.42 0.83
-8 -12 -6 9.32 0.93
-8 12 -6 9.53 0.69
8 12 6 9.04 1.09
-8 12 -6 9.49 0.94
-10 -12 -6 2.81 0.56
10 -12 6 1.2 0.54
-10 -12 -6 1.53 0.41
-10 12 -6 1.49 0.51
-10 12 -6 2.26 0.43
10 12 6 2.1 0.64
-12 -12 -6 1.4 0.42
-12 -12 -6 1.26 0.47
12 -12 6 0.91 0.53
-12 12 -6 1.12 0.49
12 12 6 1.48 0.63
12 12 6 1.34 0.67
-12 12 -6 0.32 0.3
-14 -12 -6 4.36 0.61
14 -12 6 4.68 0.81
-14 -12 -6 4.96 0.72
14 12 6 3.23 0.82
-14 12 -6 3.17 0.56
14 12 6 4.61 0.96
-14 12 -6 3.42 0.72
-13 -13 6 4.91 0.81
13 -13 -6 6.26 0.9
13 -13 -6 5.59 0.75
-13 -13 6 6.84 0.88
13 13 -6 8.11 0.89
13 13 -6 5.92 0.74
-13 13 6 6.36 0.97
-11 -13 6 6.22 0.88
-11 -13 6 6.09 0.82
11 -13 -6 5.44 0.73
11 -13 -6 6.18 0.88
-11 13 6 5.56 0.89
11 13 -6 6.12 0.7
9 -13 -6 0.23 0.4
-9 -13 6 -0.15 0.38
9 -13 -6 -0.59 0.39
-9 -13 6 0.1 0.4
-9 13 6 0.37 0.48
9 13 -6 0 0.3
7 -13 -6 0.75 0.44
7 -13 -6 0.82 0.52
-7 -13 6 0.91 0.49
-7 -13 6 0.71 0.42
7 13 -6 0.57 0.35
-7 13 6 0.08 0.51
5 -13 -6 13.63 1.18
5 -13 -6 13.72 0.99
-5 -13 6 12.23 1.16
-5 -13 6 11.88 0.99
-5 13 6 11.39 1.23
5 13 -6 13.56 0.9
3 -13 -6 27.72 1.47
-3 -13 6 26.56 1.38
3 -13 -6 29.55 1.38
-3 -13 6 29.53 1.53
3 13 -6 26.13 1.26
-3 13 6 27.94 1.66
1 -13 -6 10.31 1.03
1 -13 -6 13.22 0.93
-1 -13 6 9.91 1.04
-1 13 6 12.96 1.29
1 13 -6 12.28 0.89
-1 -13 -6 -0.06 0.34
-1 -13 -6 0.27 0.4
1 -13 6 0.09 0.42
1 13 6 -0.51 0.39
-1 13 -6 0.09 0.29
3 -13 6 0.84 0.49
-3 -13 -6 0.82 0.47
-3 -13 -6 0.4 0.38
-3 13 -6 0.63 0.38
3 13 6 1.12 0.52
-3 13 -6 -0.07 0.25
-5 -13 -6 1.49 0.52
-5 -13 -6 1.16 0.45
5 -13 6 0.13 0.46
-5 13 -6 1.64 0.36
5 13 6 1.91 0.6
-5 13 -6 2.07 0.49
-7 -13 -6 5.47 0.77
-7 -13 -6 6.2 0.73
7 -13 6 4.62 0.83
7 13 6 5.01 0.95
-7 13 -6 6.4 0.78
-7 13 -6 5.42 0.59
-9 -13 -6 6.18 0.74
9 -13 6 5.88 0.92
-9 -13 -6 6.93 0.86
-9 13 -6 7.41 0.7
-9 13 -6 6.13 0.8
9 13 6 6.91 1.01
11 -13 6 3.54 0.76
-11 -13 -6 2.99 0.62
-11 -13 -6 3.59 0.6
-11 13 -6 2.88 0.52
11 13 6 5.45 1.01
-11 13 -6 3.24 0.67
-8 -14 6 9.83 1.09
8 -14 -6 10 1.11
-8 -14 6 11.22 1.12
8 -14 -6 9.41 0.97
8 14 -6 10 0.85
-8 14 6 9.12 1.14
-6 -14 6 1.04 0.48
6 -14 -6 0.6 0.52
6 -14 -6 0.71 0.46
-6 -14 6 1.06 0.55
6 14 -6 0.22 0.38
-6 14 6 0.74 0.51
-4 -14 6 1.45 0.5
4 -14 -6 1.79 0.53
4 -14 -6 0.71 0.52
-4 -14 6 2.08 0.62
-4 14 6 1.55 0.63
4 14 -6 2.15 0.5
2 -14 -6 0.18 0.4
-2 -14 6 1.94 0.6
2 -14 -6 0.77 0.52
-2 14 6 0.69 0.62
2 14 -6 0.8 0.39
0 -14 6 1.44 0.57
0 -14 -6 1.14 0.48
0 -14 -6 1.22 0.53
0 14 -6 1.93 0.5
0 14 6 1.37 0.61
-2 -14 -6 5.97 0.86
-2 -14 -6 6.52 0.79
2 -14 6 5.59 0.89
2 14 6 5.51 0.95
-2 14 -6 6.72 0.78
4 -14 6 9.99 1.13
-4 -14 -6 10.16 0.96
-4 -14 -6 8.51 0.98
4 14 6 7.6 1.13
-4 14 -6 10.21 0.95
6 -14 6 0.69 0.51
-6 -14 -6 1.93 0.51
-6 -14 -6 1.55 0.55
-6 14 -6 0.88 0.34
-6 14 -6 1.42 0.47
6 14 6 1.11 0.61
8 -14 6 0.26 0.51
-8 -14 -6 0.03 0.37
-8 -14 -6 0.35 0.45
8 14 6 -0.02 0.54
-8 14 -6 0.38 0.4
-8 14 -6 0.18 0.29
-26 0 7 -0.17 0.51
26 0 -7 -0.04 0.29
24 0 -7 -0.13 0.29
-24 0 7 0.4 0.47
22 0 -7 0 0.28
-22 0 7 -0.02 0.44
20 0 -7 0.13 0.28
-20 0 7 -0.41 0.35
18 0 -7 -0.2 0.22
-18 0 7 0.08 0.32
-16 0 7 0.04 0.3
16 0 -7 -0.04 0.23
-12 0 7 -0.18 0.21
12 0 -7 -0.17 0.16
-12 0 7 -0.01 0.25
12 0 -7 0.4 0.23
-10 0 7 0.08 0.2
10 0 -7 0.21 0.18
-10 0 7 0.02 0.23
10 0 -7 0.02 0.19
-8 0 7 0 0.19
8 0 -7 -0.19 0.15
8 0 -7 0 0.16
8 0 -7 0.03 0.19
-8 0 7 -0.21 0.18
-8 0 7 0.09 0.23
-6 0 7 -0.12 0.18
-6 0 7 0.19 0.21
6 0 -7 -0.1 0.18
-6 0 7 0.04 0.2
6 0 -7 -0.03 0.16
6 0 -7 -0.03 0.15
-4 0 7 -0.02 0.19
-4 0 7 -0.07 0.18
4 0 -7 0.05 0.2
-4 0 7 -0.19 0.19
-4 0 7 0.12 0.18
4 0 -7 -0.13 0.15
4 0 -7 -0.04 0.15
2 0 -7 0.07 0.17
2 0 -7 -0.11 0.17
2 0 -7 -0.04 0.14
-2 0 7 0.02 0.17
2 0 -7 0.03 0.19
-2 0 7 0.03 0.18
-2 0 7 -0.21 0.2
-2 0 7 -0.14 0.21
-2 0 -7 -0.02 0.14
-2 0 -7 -0.02 0.12
-2 0 -7 0.06 0.21
2 0 7 -0.02 0.16
2 0 7 0.12 0.25
2 0 7 0.1 0.18
-2 0 -7 -0.08 0.19
2 0 7 -0.03 0.23
4 0 7 0.01 0.14
-4 0 -7 -0.25 0.1
-4 0 -7 -0.24 0.16
-4 0 -7 0.02 0.14
4 0 7 -0.31 0.21
4 0 7 0.12 0.18
4 0 7 0 0.26
-6 0 -7 0.03 0.22
6 0 7 0.43 0.32
6 0 7 0.15 0.18
-6 0 -7 -0.09 0.13
6 0 7 0.05 0.26
8 0 7 -0.04 0.19
8 0 7 0.15 0.3
8 0 7 0.15 0.28
-8 0 -7 0.32 0.24
-8 0 -7 -0.2 0.13
-10 0 -7 -0.02 0.14
10 0 7 -0.07 0.19
10 0 7 0.33 0.35
-10 0 -7 0.01 0.21
-12 0 -7 0.08 0.15
-12 0 -7 -0.09 0.25
12 0 7 0.05 0.29
12 0 7 -0.24 0.19
16 0 7 0.18 0.37
-16 0 -7 0.19 0.3
-18 0 -7 0.09 0.31
18 0 7 0.07 0.4
20 0 7 0.24 0.45
-20 0 -7 0.22 0.38
22 0 7 0.11 0.52
-22 0 -7 0.37 0.4
24 0 7 0.69 0.63
-24 0 -7 0.32 0.42
-25 -1 7 -0.25 0.46
25 -1 -7 0.09 0.29
-25 1 7 -0.04 0.52
25 1 -7 -0.18 0.31
23 -1 -7 4.93 0.6
-23 -1 7 5.32 0.83
-23 1 7 5.47 0.89
23 1 -7 5.28 0.62
21 -1 -7 24.22 1.1
-21 -1 7 24.49 1.39
21 1 -7 23.26 1.11
-21 1 7 20.68 1.35
19 -1 -7 22.26 1.02
-19 -1 7 21.92 1.28
-19 1 7 26.19 1.4
19 1 -7 23.71 1.08
17 -1 -7 13.22 0.78
-17 -1 7 12.78 0.96
17 1 -7 13.58 0.94
17 1 -7 12.99 0.8
-17 1 7 13.71 0.99
15 -1 -7 1.74 0.35
-15 -1 7 1.91 0.47
-15 1 7 1.5 0.45
15 1 -7 2.1 0.34
15 1 -7 1.02 0.33
-13 -1 7 15.4 0.87
13 -1 -7 13.89 0.76
-13 -1 7 15.36 0.97
-13 1 7 13.55 0.92
13 1 -7 16.11 0.73
13 1 -7 14.71 0.81
-11 -1 7 40.03 1.53
-11 -1 7 36.79 1.41
11 -1 -7 37.44 1.19
11 -1 -7 38.22 1.31
11 1 -7 36.24 1.25
-11 1 7 38.01 1.5
-11 1 7 38.58 1.37
11 1 -7 36.83 1.34
-9 -1 7 27.95 1.17
-9 -1 7 29.58 1.25
9 -1 -7 28.48 1.05
9 -1 -7 28.26 1.12
9 -1 -7 28.81 1.09
-9 1 7 31.19 1.14
9 1 -7 27.39 1.11
-9 1 7 30.13 1.16
-9 1 7 29.4 1.26
9 1 -7 28.8 1.11
7 -1 -7 20.1 0.88
7 -1 -7 20.45 0.88
-7 -1 7 19.88 0.98
7 -1 -7 22.32 0.93
-7 -1 7 20.29 0.97
-7 -1 7 20.19 0.86
-7 1 7 22.49 0.96
-7 1 7 20.43 1
-7 1 7 20.28 0.93
7 1 -7 21.96 0.96
7 1 -7 20.61 0.89
7 1 -7 20.96 0.93
-5 -1 7 8.25 0.6
5 -1 -7 7.93 0.56
-5 -1 7 8.61 0.62
-5 -1 7 8.51 0.58
5 -1 -7 8.6 0.61
5 -1 -7 7.73 0.53
5 1 -7 7.92 0.51
5 1 -7 7.91 0.58
-5 1 7 7.53 0.56
-5 1 7 8.6 0.63
-5 1 7 8.6 0.61
-5 1 7 8.87 0.66
5 1 -7 7.43 0.59
3 -1 -7 0.01 0.2
3 -1 -7 0.12 0.17
-3 -1 7 0.22 0.2
3 -1 -7 -0.04 0.15
3 -1 -7 -0.01 0.15
-3 -1 7 -0.04 0.2
-3 -1 7 0.15 0.23
3 -1 -7 0.26 0.21
-3 -1 7 -0.01 0.17
-3 1 7 -0.2 0.16
3 1 -7 0.01 0.21
3 1 -7 0.37 0.2
-3 1 7 0.06 0.22
3 1 -7 -0.14 0.15
-3 1 7 -0.16 0.2
-3 1 7 -0.01 0.18
1 -1 -7 16.08 0.73
1 -1 -7 16.05 0.82
1 -1 -7 16.74 0.9
1 -1 -7 16.22 0.74
-1 -1 7 16.24 0.76
-1 -1 7 13.98 0.92
-1 -1 7 15.69 0.82
-1 -1 7 15.88 0.84
1 -1 -7 16.49 0.76
-1 1 7 15.73 0.77
-1 1 7 15.9 0.78
1 1 -7 16.18 0.79
1 1 -7 14.26 0.87
1 1 -7 15.99 0.69
-1 1 7 15.72 0.88
-1 1 7 15.24 0.92
-1 -1 -7 28.01 1.24
1 -1 7 29.61 1.37
-1 -1 -7 29.62 1.2
-1 -1 -7 28.89 1.06
-1 -1 -7 29.77 1.04
1 -1 7 31.36 1.19
1 -1 7 31.29 1.07
1 -1 7 29.12 1.23
-1 1 -7 27.81 1.14
-1 1 -7 28.74 0.99
1 1 7 30.64 1.29
-1 1 -7 30.69 1.32
1 1 7 29.67 1.1
1 1 7 29.09 1.34
1 1 7 29.6 1.08
3 -1 7 34.86 1.3
3 -1 7 33.63 1.52
-3 -1 -7 36.56 1.37
-3 -1 -7 32.43 1.15
3 -1 7 35.15 1.13
-3 -1 -7 34.7 1.11
-3 1 -7 33.82 1.08
3 1 7 34.51 1.15
3 1 7 32.83 1.2
3 1 7 36.57 1.46
-3 1 -7 34.76 1.09
-3 1 -7 35.07 1.32
3 1 7 36.03 1.54
-3 1 -7 34.52 1.46
-5 -1 -7 35.03 1.08
-5 -1 -7 34.86 1.17
5 -1 7 35.51 1.31
-5 -1 -7 36.28 1.41
5 -1 7 31.8 1.53
5 -1 7 36.2 1.09
5 1 7 34.67 1.57
5 1 7 33.06 1.45
-5 1 -7 34.3 1.08
-5 1 -7 35.11 1.34
-5 1 -7 34.77 1.35
5 1 7 36.46 1.25
7 -1 7 5.71 0.79
-7 -1 -7 5.65 0.5
7 -1 7 5.96 0.58
-7 -1 -7 5.56 0.64
-7 1 -7 5.98 0.39
-7 1 -7 5.4 0.62
7 1 7 5.63 0.54
7 1 7 6.8 0.76
7 1 7 6.29 0.81
-9 -1 -7 0.78 0.22
9 -1 7 1.4 0.34
-9 -1 -7 1.09 0.34
9 -1 7 0.73 0.4
-9 1 -7 1.28 0.36
9 1 7 0.91 0.41
9 1 7 1.78 0.33
9 1 7 1.26 0.4
11 -1 7 12.56 0.77
11 -1 7 12.89 1.03
-11 -1 -7 12.29 0.63
-11 -1 -7 11.97 0.87
11 1 7 11.56 1.02
-11 1 -7 11.52 0.83
11 1 7 13.86 0.74
11 1 7 13.19 0.97
-13 -1 -7 40.46 1.72
13 -1 7 41.51 1.97
-13 -1 -7 47.64 1.43
13 -1 7 46.84 1.63
13 1 7 45.81 2.05
-13 1 -7 46.19 1.76
-15 -1 -7 44.91 1.41
15 -1 7 42.66 2.05
15 -1 7 43.9 1.61
-15 -1 -7 43.13 1.79
15 1 7 43.65 2.06
-15 1 -7 44.78 1.79
-17 -1 -7 9.12 0.94
17 -1 7 11.71 1.33
17 -1 7 11.02 0.8
-17 1 -7 10.84 0.88
17 1 7 11.62 1.33
19 -1 7 0.23 0.5
-19 -1 -7 -0.06 0.31
-19 1 -7 -0.08 0.32
19 1 7 -0.41 0.43
-21 -1 -7 3.42 0.66
21 -1 7 3.06 0.81
21 1 7 2.71 0.78
-21 1 -7 2.62 0.58
23 -1 7 4.43 0.99
-23 -1 -7 3.69 0.71
-23 1 -7 5.76 0.82
23 1 7 4.11 0.98
-25 -1 -7 15.77 1.23
25 -1 7 16.45 1.75
25 1 7 15.99 1.78
-25 1 -7 18.26 1.25
-26 -2 7 0.36 0.52
26 -2 -7 0.67 0.38
-26 2 7 0.04 0.53
26 2 -7 0.45 0.36
24 -2 -7 0.43 0.33
-24 -2 7 0.79 0.52
24 2 -7 0.59 0.35
-24 2 7 -0.57 0.46
22 -2 -7 0.06 0.27
-22 -2 7 -0.36 0.37
22 2 -7 -0.15 0.27
-22 2 7 0.06 0.48
-20 -2 7 -0.31 0.37
20 -2 -7 -0.15 0.26
20 2 -7 -0.05 0.27
-20 2 7 -0.17 0.42
18 -2 -7 2.21 0.43
-18 -2 7 1.72 0.5
18 2 -7 2.54 0.38
-18 2 7 1.33 0.5
18 2 -7 1.97 0.41
-16 -2 7 4.37 0.66
-16 -2 7 3.94 0.58
16 -2 -7 4.97 0.54
16 2 -7 4.35 0.55
16 2 -7 5.36 0.5
-16 2 7 4.15 0.68
-14 -2 7 9.09 0.69
14 -2 -7 9.13 0.63
-14 -2 7 9.5 0.8
-14 2 7 10.1 0.82
14 2 -7 11.36 0.62
14 2 -7 9.71 0.67
-12 -2 7 5.46 0.66
-12 -2 7 4.04 0.53
12 -2 -7 4.8 0.5
-12 2 7 4.72 0.66
12 2 -7 5.23 0.53
12 2 -7 4.37 0.5
-10 -2 7 0.9 0.33
10 -2 -7 1.2 0.28
10 -2 -7 0.98 0.25
-10 -2 7 1.42 0.36
-10 2 7 1.81 0.36
10 2 -7 1.7 0.32
10 2 -7 0.93 0.3
-10 2 7 1.42 0.4
8 -2 -7 0.71 0.22
-8 -2 7 -0.02 0.21
-8 -2 7 0.24 0.25
8 -2 -7 0.81 0.24
-8 2 7 0.32 0.26
8 2 -7 0.46 0.23
-8 2 7 0.35 0.22
8 2 -7 0.38 0.26
-8 2 7 0.72 0.3
6 -2 -7 1.24 0.29
-6 -2 7 1.29 0.33
-6 -2 7 0.99 0.29
6 -2 -7 0.8 0.27
6 -2 -7 1.06 0.26
-6 2 7 1.03 0.32
-6 2 7 0.99 0.28
-6 2 7 1.26 0.32
6 2 -7 1.11 0.31
6 2 -7 0.59 0.22
6 2 -7 1.01 0.3
-6 2 7 1.1 0.31
4 -2 -7 1.2 0.28
4 -2 -7 1.21 0.25
4 -2 -7 1.93 0.36
-4 -2 7 1.35 0.37
-4 -2 7 0.97 0.3
-4 -2 7 1.07 0.28
-4 2 7 1.42 0.33
4 2 -7 0.91 0.25
-4 2 7 1.15 0.33
-4 2 7 0.64 0.28
4 2 -7 0.8 0.28
-4 2 7 1.45 0.28
2 -2 -7 9.2 0.59
2 -2 -7 9.3 0.54
2 -2 -7 8.78 0.65
2 -2 -7 9.08 0.57
-2 -2 7 8.87 0.74
-2 -2 7 9.05 0.65
2 -2 -7 9.27 0.64
-2 -2 7 7.86 0.56
-2 2 7 7.91 0.67
-2 2 7 9.27 0.61
2 2 -7 8.46 0.55
2 2 -7 7.97 0.66
-2 2 7 9.54 0.71
-2 2 7 8.54 0.56
0 -2 7 0.65 0.27
0 -2 -7 0.54 0.25
0 -2 7 0.53 0.2
0 -2 -7 0.91 0.25
0 -2 7 0.61 0.33
0 -2 -7 0.69 0.29
0 -2 -7 1.25 0.26
0 -2 -7 0.67 0.23
0 2 7 1.12 0.27
0 2 -7 1.24 0.24
0 2 7 0.65 0.29
0 2 -7 1.23 0.35
0 2 7 1 0.35
0 2 7 1.22 0.29
0 2 -7 0.98 0.28
-2 -2 -7 3.3 0.38
2 -2 7 3.49 0.59
-2 -2 -7 2.31 0.35
2 -2 7 2.4 0.41
-2 -2 -7 3.54 0.39
-2 -2 -7 3.29 0.49
2 -2 7 3.01 0.36
2 2 7 2.96 0.53
-2 2 -7 2.54 0.29
2 2 7 2.56 0.49
-2 2 -7 3.08 0.43
-2 2 -7 2.45 0.47
2 2 7 3.33 0.4
2 2 7 3.01 0.38
4 -2 7 0.18 0.22
-4 -2 -7 0.13 0.14
4 -2 7 0.17 0.27
-4 -2 -7 0.07 0.16
4 -2 7 0.09 0.15
-4 -2 -7 0.05 0.19
4 2 7 0.39 0.29
-4 2 -7 0.05 0.13
-4 2 -7 -0.03 0.19
4 2 7 0.06 0.26
-4 2 -7 0.01 0.22
4 2 7 -0.01 0.17
-6 -2 -7 6.64 0.69
6 -2 7 6.85 0.66
-6 -2 -7 6.34 0.41
-6 -2 -7 5.49 0.51
6 -2 7 5.79 0.76
-6 2 -7 6.35 0.63
6 2 7 6.23 0.73
-6 2 -7 5.37 0.69
6 2 7 6.48 0.8
6 2 7 5.74 0.46
8 -2 7 9.31 0.68
-8 -2 -7 8.49 0.81
8 -2 7 8.94 0.98
-8 -2 -7 9.89 0.59
8 2 7 9.52 0.99
8 2 7 9.65 0.93
-8 2 -7 8.73 0.69
8 2 7 9.25 0.57
10 -2 7 16.86 1.17
-10 -2 -7 16.61 1.01
10 -2 7 16.05 0.89
-10 -2 -7 16.35 0.77
10 2 7 16.71 1.16
10 2 7 15.88 1.06
-10 2 -7 16.32 0.95
12 -2 7 12.45 1.23
-12 -2 -7 11.44 0.89
12 -2 7 15.14 0.88
-12 -2 -7 13.12 0.69
-12 2 -7 13.02 0.88
12 2 7 12.89 1.01
12 2 7 13.56 1.11
-14 -2 -7 0.57 0.23
-14 -2 -7 0.15 0.27
14 -2 7 0.03 0.34
14 -2 7 0.28 0.26
14 2 7 -0.37 0.35
14 2 7 0.16 0.3
-14 2 -7 0.06 0.3
-16 -2 -7 4.12 0.47
-16 -2 -7 3.54 0.61
16 -2 7 3.27 0.53
16 -2 7 4.76 0.86
-16 2 -7 3.51 0.59
16 2 7 3.35 0.74
18 -2 7 12.25 0.87
18 -2 7 10.69 1.26
-18 -2 -7 11.47 0.7
-18 -2 -7 10.95 1.08
-18 2 -7 9.58 0.93
18 2 7 13.74 1.47
-20 -2 -7 4.12 0.71
20 -2 7 3.71 0.76
20 -2 7 3.84 0.83
-20 -2 -7 4.91 0.74
-20 2 -7 5.08 0.73
20 2 7 5.68 0.98
22 -2 7 0.41 0.58
-22 -2 -7 0.26 0.41
22 2 7 0.18 0.55
-22 2 -7 1.39 0.46
24 -2 7 2.28 0.8
-24 -2 -7 2.2 0.65
-24 2 -7 1.94 0.58
24 2 7 2.23 0.84
25 -3 -7 -0.23 0.3
-25 -3 7 0.32 0.51
25 3 -7 0.11 0.33
-25 3 7 -0.11 0.47
23 -3 -7 1.06 0.38
-23 -3 7 0.05 0.48
-23 3 7 0.82 0.53
23 3 -7 1.02 0.39
21 -3 -7 11.56 0.76
-21 -3 7 11.68 1.15
21 3 -7 11.04 0.8
-21 3 7 11.64 1.16
-19 -3 7 6.68 0.87
19 -3 -7 7.1 0.65
-19 3 7 5.84 0.81
19 3 -7 6.46 0.61
19 3 -7 6.22 0.66
-17 -3 7 7.93 0.89
-17 -3 7 8.51 0.82
17 -3 -7 7.79 0.6
-17 3 7 8.62 0.93
17 3 -7 7.93 0.58
17 3 -7 7.75 0.74
-15 -3 7 2.4 0.45
15 -3 -7 2.32 0.38
-15 -3 7 1.71 0.45
15 3 -7 2.25 0.38
15 3 -7 2.07 0.42
-15 3 7 2.12 0.52
-13 -3 7 0.44 0.3
13 -3 -7 0.27 0.23
-13 -3 7 1 0.37
13 -3 -7 0.22 0.29
13 3 -7 0.58 0.28
-13 3 7 0.73 0.35
13 3 -7 0.29 0.22
11 -3 -7 0.87 0.26
11 -3 -7 -0.07 0.26
-11 -3 7 0.95 0.32
-11 -3 7 1.25 0.39
-11 3 7 0.71 0.3
11 3 -7 1.19 0.33
-11 3 7 0.18 0.32
11 3 -7 1.43 0.3
9 -3 -7 2.26 0.34
-9 -3 7 2.05 0.41
9 -3 -7 1.91 0.4
-9 -3 7 2.48 0.44
9 3 -7 2.99 0.45
9 3 -7 2.81 0.43
-9 3 7 2.02 0.41
-9 3 7 1.69 0.4
7 -3 -7 0.99 0.3
7 -3 -7 1.08 0.24
7 -3 -7 1.4 0.3
-7 -3 7 1.32 0.35
-7 -3 7 1.62 0.36
7 3 -7 0.95 0.3
-7 3 7 1.22 0.36
-7 3 7 1.9 0.42
7 3 -7 1.2 0.31
5 -3 -7 0.86 0.22
5 -3 -7 0.79 0.25
-5 -3 7 0.5 0.25
5 -3 -7 0.77 0.26
-5 -3 7 0.66 0.28
-5 3 7 1.1 0.34
-5 3 7 0.61 0.26
5 3 -7 0.85 0.29
-5 3 7 0.76 0.25
5 3 -7 0.71 0.21
-5 3 7 0.65 0.27
-3 -3 7 1.58 0.32
3 -3 -7 0.85 0.27
-3 -3 7 0.83 0.3
3 -3 -7 0.76 0.22
3 -3 -7 0.6 0.26
-3 -3 7 0.45 0.29
3 -3 -7 1.34 0.3
-3 3 7 0.84 0.31
3 3 -7 0.72 0.3
-3 3 7 0.78 0.27
3 3 -7 0.68 0.22
-3 3 7 0.71 0.23
-3 3 7 0.9 0.35
1 -3 -7 0.21 0.2
-1 -3 7 -0.06 0.22
-1 -3 7 0.44 0.2
1 -3 -7 0.39 0.25
1 -3 -7 0.6 0.22
1 -3 -7 0.45 0.17
-1 -3 7 0.13 0.22
-1 3 7 -0.12 0.23
1 3 -7 0.46 0.28
1 3 -7 0.25 0.17
1 3 -7 0.41 0.19
-1 3 7 0.43 0.28
-1 3 7 0.42 0.21
-1 3 7 0.6 0.2
1 -3 7 8.97 0.55
1 -3 7 10.37 0.83
-1 -3 -7 9.44 0.69
-1 -3 -7 10.18 0.59
-1 -3 -7 9.48 0.52
-1 -3 -7 9.28 0.61
1 -3 7 10.09 0.71
1 3 7 9.99 0.63
-1 3 -7 8.85 0.74
1 3 7 9.47 0.75
1 3 7 9.78 0.56
1 3 7 9.77 0.77
-1 3 -7 9.35 0.61
3 -3 7 16.43 1.05
-3 -3 -7 13.85 0.65
3 -3 7 17.68 0.71
3 -3 7 16.13 0.89
-3 -3 -7 16.63 0.73
-3 -3 -7 14.79 0.78
-3 -3 -7 17.88 0.96
3 3 7 16.64 0.72
-3 3 -7 16.83 1
3 3 7 16.05 1
3 3 7 17.09 1.01
-3 3 -7 15.85 0.82
-5 -3 -7 48.2 1.58
-5 -3 -7 48.08 1.42
5 -3 7 50.94 1.74
5 -3 7 50.53 2
-5 -3 -7 52.36 1.48
-5 -3 -7 49.42 1.8
-5 3 -7 48.98 1.89
5 3 7 51.31 1.96
5 3 7 51.88 1.92
5 3 7 52.16 1.49
-5 3 -7 49.75 1.68
7 -3 7 15.92 0.9
-7 -3 -7 15.95 0.66
-7 -3 -7 16.71 0.82
7 -3 7 15.92 1.1
-7 -3 -7 13.48 0.91
7 3 7 15.96 1.04
7 3 7 17.82 1.13
-7 3 -7 18 1.08
-7 3 -7 17.73 0.91
9 -3 7 0.54 0.29
-9 -3 -7 0.67 0.24
9 -3 7 1.22 0.44
-9 -3 -7 0.49 0.29
9 3 7 1.33 0.43
-9 3 -7 0.69 0.35
-9 3 -7 0.76 0.3
9 3 7 0.44 0.37
-11 -3 -7 -0.01 0.31
-11 -3 -7 0.08 0.2
11 -3 7 0.22 0.27
11 -3 7 0.24 0.36
11 3 7 -0.26 0.3
11 3 7 -0.21 0.3
-11 3 -7 0.03 0.22
-13 -3 -7 11.8 0.7
-13 -3 -7 11.82 0.9
13 -3 7 13.08 0.85
13 -3 7 13.21 1.32
13 3 7 10.18 1.1
-13 3 -7 11.66 0.85
13 3 7 12.57 1.2
15 -3 7 11.79 1.21
15 -3 7 11.47 0.84
-15 -3 -7 13.05 0.73
-15 -3 -7 12.29 1.11
15 3 7 13.98 1.3
-15 3 -7 12.2 0.89
15 3 7 12.52 1.33
17 -3 7 3.53 0.8
-17 -3 -7 3.53 0.47
-17 -3 -7 3.33 0.62
17 -3 7 3.88 0.61
17 3 7 1.74 0.61
-17 3 -7 3.55 0.6
17 3 7 3.41 0.7
19 -3 7 0.67 0.36
-19 -3 -7 0.01 0.24
19 -3 7 -0.24 0.43
-19 -3 -7 0.01 0.34
-19 3 -7 -0.3 0.27
19 3 7 0.26 0.5
21 -3 7 3.79 0.89
-21 -3 -7 3.25 0.52
21 -3 7 3.55 0.65
-21 -3 -7 4.19 0.74
21 3 7 3.36 0.88
-21 3 -7 3.23 0.62
-23 -3 -7 9.26 1.06
23 -3 7 12.26 1.47
-23 3 -7 10.82 1.05
23 3 7 8.81 1.38
-24 -4 7 4.07 0.79
24 -4 -7 3.41 0.52
24 -4 -7 4.19 0.72
24 4 -7 3.97 0.6
-24 4 7 2.73 0.71
22 -4 -7 5.11 0.78
-22 -4 7 4.69 0.82
22 -4 -7 4.66 0.59
22 4 -7 5.11 0.6
22 4 -7 4.56 0.61
-22 4 7 3.3 0.71
20 -4 -7 1.68 0.53
20 -4 -7 2.54 0.44
-20 -4 7 2.47 0.63
20 4 -7 2.55 0.46
-20 4 7 1.75 0.55
20 4 -7 2.76 0.46
-18 -4 7 1.95 0.49
18 -4 -7 2.47 0.42
-18 -4 7 3.3 0.66
18 -4 -7 2.01 0.49
-18 4 7 1.87 0.53
18 4 -7 1.71 0.43
18 4 -7 1.79 0.36
16 -4 -7 24.36 1.26
16 -4 -7 26.46 1.06
-16 -4 7 27.92 1.38
-16 -4 7 26.95 1.25
16 4 -7 27.1 1.2
16 4 -7 25.6 1.04
-16 4 7 23.61 1.3
-14 -4 7 39.45 1.57
14 -4 -7 42.85 1.38
14 -4 -7 38.29 1.58
-14 -4 7 41.59 1.68
14 4 -7 40 1.5
14 4 -7 40.21 1.38
-14 4 7 41.1 1.69
12 -4 -7 8.75 0.72
-12 -4 7 8.87 0.82
-12 -4 7 7.93 0.79
12 -4 -7 8.16 0.55
-12 4 7 8.49 0.83
-12 4 7 9.16 0.72
12 4 -7 8.93 0.68
12 4 -7 7.75 0.59
-10 -4 7 0.55 0.31
-10 -4 7 0.96 0.33
10 -4 -7 0.78 0.34
10 -4 -7 0.53 0.22
-10 4 7 0.75 0.37
-10 4 7 0.95 0.34
10 4 -7 0.92 0.29
10 4 -7 1.11 0.35
8 -4 -7 2.4 0.32
-8 -4 7 2.95 0.48
8 -4 -7 2.42 0.42
-8 -4 7 1.85 0.4
8 4 -7 1.7 0.36
8 4 -7 2.22 0.42
-8 4 7 2.5 0.46
-8 4 7 1.73 0.39
-6 -4 7 12.27 0.77
-6 -4 7 11.43 0.79
6 -4 -7 13.42 0.77
6 -4 -7 13.22 0.62
-6 4 7 12.79 0.8
-6 4 7 13.18 0.77
6 4 -7 13.66 0.8
-6 4 7 14.07 0.86
-4 -4 7 15.22 0.88
4 -4 -7 14.85 0.79
-4 -4 7 15.91 0.83
4 -4 -7 15.72 0.85
4 -4 -7 17.06 0.83
4 -4 -7 16.76 0.68
4 4 -7 15.96 0.9
-4 4 7 17.31 0.89
4 4 -7 15.93 0.68
-4 4 7 15.46 0.85
-4 4 7 16 0.96
2 -4 -7 35.7 1.13
2 -4 -7 34.72 1.33
-2 -4 7 35.52 1.29
2 -4 -7 36.88 1.3
-2 -4 7 35.78 1.44
2 -4 -7 35.83 1.35
-2 4 7 37.97 1.19
2 4 -7 36.26 1.2
-2 4 7 38.42 1.46
2 4 -7 37.07 1.48
-2 4 7 39.47 1.38
-2 4 7 38.77 1.53
0 -4 7 12.85 0.68
0 -4 7 13.52 0.83
0 -4 -7 12.3 0.57
0 -4 -7 13.49 0.77
0 -4 7 13.75 0.95
0 -4 -7 13.71 0.71
0 4 7 12.89 0.73
0 4 7 11.53 0.59
0 4 7 14.42 0.92
0 4 7 13.6 0.86
0 4 -7 12.88 0.87
0 4 -7 13.7 0.69
2 -4 7 0.89 0.23
2 -4 7 0.3 0.31
-2 -4 -7 1.31 0.32
-2 -4 -7 0.99 0.21
2 -4 7 0.57 0.28
-2 -4 -7 0.97 0.24
2 4 7 0.99 0.36
-2 4 -7 0.84 0.25
2 4 7 1.02 0.39
2 4 7 0.96 0.23
-2 4 -7 1.49 0.4
-4 -4 -7 4.11 0.42
-4 -4 -7 4.13 0.48
-4 -4 -7 4.05 0.57
4 -4 7 4.3 0.67
4 -4 7 3.59 0.53
-4 4 -7 3.53 0.56
4 4 7 3.28 0.59
-4 4 -7 4.58 0.52
4 4 7 4 0.47
4 4 7 3.38 0.58
-6 -4 -7 59.96 1.68
6 -4 7 57.72 2.24
6 -4 7 61.25 2.01
-6 -4 -7 58.84 2.07
-6 -4 -7 60.26 1.86
-6 4 -7 62.3 1.91
-6 4 -7 60.4 2.17
6 4 7 57.76 2.19
6 4 7 56.91 2.15
8 -4 7 44.41 1.65
-8 -4 -7 45.56 1.33
8 -4 7 42.19 1.87
-8 -4 -7 40.74 1.69
-8 -4 -7 42.35 1.48
-8 4 -7 44.35 1.58
-8 4 -7 41.93 1.77
8 4 7 44.8 1.9
8 4 7 43.37 1.82
10 -4 7 22.31 1.39
-10 -4 -7 22.64 1.24
10 -4 7 27.12 1.24
-10 -4 -7 25.77 1.06
-10 4 -7 25.26 1.37
10 4 7 26.25 1.47
-10 4 -7 26.59 1.18
10 4 7 23.98 1.35
12 -4 7 31.12 1.38
12 -4 7 34.23 1.73
-12 -4 -7 30.08 1.45
-12 -4 -7 31.09 1.22
12 4 7 29.16 1.54
12 4 7 34.9 1.75
-12 4 -7 30.71 1.56
-12 4 -7 31.89 1.36
-14 -4 -7 0.41 0.35
-14 -4 -7 0.3 0.26
14 -4 7 -0.35 0.33
14 -4 7 0.54 0.32
14 4 7 0.12 0.38
14 4 7 -0.01 0.35
-14 4 -7 0.18 0.27
-16 -4 -7 8.75 0.97
16 -4 7 11.4 0.87
-16 -4 -7 9.47 0.69
16 -4 7 11.61 1.3
-16 4 -7 9.84 0.91
16 4 7 8.68 1.11
16 4 7 9.27 1.02
-18 -4 -7 17.25 1.19
18 -4 7 17.26 1.09
-18 -4 -7 15.88 0.88
18 -4 7 14.42 1.43
18 4 7 16.69 1.44
18 4 7 17.81 1.31
-18 4 -7 16.48 1.08
-20 -4 -7 16.22 1.18
20 -4 7 16.6 1.42
20 -4 7 13.53 1.03
-20 -4 -7 13.86 0.86
-20 4 -7 15.34 1.07
20 4 7 12.15 1.47
22 -4 7 1.28 0.48
-22 -4 -7 1.98 0.45
22 -4 7 1.44 0.69
-22 -4 -7 1.46 0.56
22 4 7 2.31 0.85
-22 4 -7 1.76 0.51
-24 -4 -7 0.01 0.44
24 -4 7 0.18 0.47
-24 -4 -7 0.45 0.34
24 -4 7 -0.05 0.61
-24 4 -7 0.24 0.4
24 4 7 0.13 0.64
23 -5 -7 0.85 0.48
-23 -5 7 1.72 0.63
23 -5 -7 1.3 0.42
-23 5 7 2.17 0.67
23 5 -7 2.16 0.49
23 5 -7 2.17 0.47
21 -5 -7 0.58 0.39
-21 -5 7 0.29 0.43
21 -5 -7 -0.2 0.27
21 5 -7 -0.1 0.27
21 5 -7 -0.39 0.26
-21 5 7 -0.01 0.44
-19 -5 7 0.77 0.47
19 -5 -7 1.01 0.32
-19 -5 7 1.37 0.48
19 -5 -7 0.98 0.45
19 5 -7 0.08 0.27
19 5 -7 0.87 0.37
-19 5 7 0.99 0.5
17 -5 -7 2.15 0.53
17 -5 -7 3.38 0.45
-17 -5 7 2.27 0.49
-17 -5 7 3.84 0.68
17 5 -7 3.06 0.52
-17 5 7 2.53 0.59
17 5 -7 2.94 0.44
-15 -5 7 0.07 0.31
15 -5 -7 -0.01 0.32
-15 -5 7 -0.3 0.25
15 -5 -7 0.05 0.22
15 5 -7 0.01 0.24
15 5 -7 -0.2 0.23
-15 5 7 -0.27 0.32
-13 -5 7 1.85 0.45
13 -5 -7 2.13 0.35
-13 -5 7 2.02 0.49
13 -5 -7 1.5 0.42
13 5 -7 1.73 0.41
-13 5 7 1.9 0.51
13 5 -7 1.86 0.37
-13 5 7 1.64 0.43
11 -5 -7 0 0.18
-11 -5 7 -0.22 0.25
11 -5 -7 0.13 0.26
-11 -5 7 0.12 0.29
-11 5 7 0.13 0.27
11 5 -7 -0.14 0.24
11 5 -7 -0.11 0.21
-11 5 7 0.29 0.3
9 -5 -7 0.36 0.19
-9 -5 7 0.14 0.25
9 -5 -7 0.31 0.29
-9 -5 7 0.05 0.26
9 5 -7 0.21 0.22
9 5 -7 0.18 0.25
-9 5 7 -0.29 0.27
-9 5 7 -0.16 0.26
-7 -5 7 2.7 0.48
-7 -5 7 3.62 0.53
7 -5 -7 2.44 0.42
7 -5 -7 2.78 0.33
-7 5 7 3.6 0.56
7 5 -7 3.34 0.48
-7 5 7 2.6 0.46
-5 -5 7 4.5 0.58
5 -5 -7 4.65 0.58
5 -5 -7 4.42 0.39
-5 -5 7 4.42 0.54
5 -5 -7 5.07 0.56
-5 5 7 3.52 0.52
-5 5 7 4.47 0.63
5 5 -7 4.71 0.57
3 -5 -7 0.51 0.17
3 -5 -7 0.54 0.28
-3 -5 7 0.1 0.24
-3 -5 7 0.66 0.26
3 -5 -7 0.43 0.23
3 -5 -7 0.34 0.23
3 5 -7 0.67 0.3
3 5 -7 0.52 0.2
-3 5 7 0.57 0.26
-3 5 7 0.28 0.3
-3 5 7 0.19 0.23
-1 -5 7 1.76 0.39
1 -5 -7 2.31 0.41
-1 -5 7 2.66 0.39
1 -5 -7 2.23 0.27
1 -5 -7 2.23 0.38
-1 5 7 2.72 0.53
1 5 -7 2.24 0.32
-1 5 7 2.3 0.41
1 5 -7 2.02 0.4
-1 5 7 2.68 0.47
1 -5 7 4.4 0.68
-1 -5 -7 3.36 0.48
1 -5 7 3.47 0.42
1 -5 7 4.7 0.6
-1 -5 -7 4.56 0.48
1 5 7 4.9 0.68
-1 5 -7 4.2 0.45
1 5 7 4.69 0.62
-1 5 -7 4.94 0.65
3 -5 7 7.43 0.76
-3 -5 -7 6.73 0.66
-3 -5 -7 6.5 0.5
3 -5 7 6.95 0.82
-3 5 -7 5.06 0.68
3 5 7 5.48 0.71
3 5 7 5.85 0.75
-3 5 -7 5.94 0.56
-5 -5 -7 5.14 0.48
-5 -5 -7 5.18 0.57
5 -5 7 5.21 0.64
5 -5 7 5.59 0.79
5 5 7 3.87 0.63
-5 5 -7 4.9 0.68
5 5 7 5.76 0.74
-5 5 -7 4.89 0.54
-7 -5 -7 9.1 0.67
-7 -5 -7 8.79 0.89
7 -5 7 8.1 0.95
-7 -5 -7 9.59 0.57
7 -5 7 10.57 0.79
-7 5 -7 9.97 0.68
-7 5 -7 9.46 0.94
7 5 7 8.24 0.93
7 5 7 8.98 0.95
-9 -5 -7 1.05 0.33
9 -5 7 1.6 0.4
-9 -5 -7 0.85 0.4
-9 -5 -7 1.44 0.28
9 -5 7 1.2 0.44
9 5 7 0.97 0.42
9 5 7 1.4 0.48
-9 5 -7 0.75 0.39
-9 5 -7 1.13 0.34
11 -5 7 22.41 1.17
-11 -5 -7 21.72 1.23
-11 -5 -7 21.16 1
11 -5 7 22.05 1.39
11 5 7 19.74 1.34
-11 5 -7 19.89 1.05
-11 5 -7 20.29 1.25
11 5 7 20.49 1.29
13 -5 7 4.71 0.67
13 -5 7 6.14 0.93
-13 -5 -7 6.4 0.63
-13 -5 -7 5.89 0.81
13 5 7 4.82 0.85
-13 5 -7 5.97 0.86
-13 5 -7 4.05 0.59
13 5 7 6.46 0.91
15 -5 7 2.73 0.54
-15 -5 -7 2.36 0.54
15 -5 7 1.98 0.66
-15 -5 -7 2.1 0.42
15 5 7 2.95 0.76
15 5 7 1.43 0.51
-15 5 -7 2.55 0.6
-15 5 -7 3.06 0.53
-17 -5 -7 -0.05 0.25
17 -5 7 -0.39 0.4
-17 -5 -7 0.64 0.43
17 -5 7 0.09 0.33
17 5 7 -0.31 0.4
-17 5 -7 0.47 0.34
17 5 7 0.47 0.45
19 -5 7 -0.14 0.48
19 -5 7 -0.2 0.29
-19 -5 -7 0.37 0.28
-19 -5 -7 0.52 0.41
19 5 7 0.49 0.5
19 5 7 0.02 0.51
-19 5 -7 -0.15 0.29
21 -5 7 0.29 0.41
-21 -5 -7 0.22 0.3
-21 -5 -7 -0.05 0.41
21 -5 7 0.13 0.51
21 5 7 -0.14 0.45
21 5 7 0.59 0.61
-21 5 -7 -0.35 0.31
23 -5 7 0.29 0.55
-23 -5 -7 0.07 0.32
23 -5 7 0.66 0.45
-23 -5 -7 -0.01 0.43
-23 5 -7 0.21 0.37
23 5 7 0.5 0.69
-24 -6 7 15.75 1.66
24 -6 -7 13.39 0.93
24 -6 -7 12.17 1.19
24 6 -7 15.25 1.01
-24 6 7 14.13 1.33
24 6 -7 13.4 0.96
22 -6 -7 2.3 0.47
22 -6 -7 2.44 0.62
-22 -6 7 2.81 0.69
22 6 -7 2.88 0.52
22 6 -7 2.27 0.5
-22 6 7 2.77 0.71
20 -6 -7 0.75 0.34
20 -6 -7 0.53 0.42
-20 -6 7 1.1 0.44
-20 -6 7 0.08 0.43
20 6 -7 0.87 0.38
20 6 -7 0.3 0.33
-20 6 7 0.19 0.45
18 -6 -7 15.88 0.86
-18 -6 7 13.88 0.98
-18 -6 7 16.12 1.16
18 -6 -7 16.18 1.1
18 6 -7 16.86 1
-18 6 7 18.04 1.21
18 6 -7 15.9 0.89
16 -6 -7 18.64 1.13
-16 -6 7 16.65 1.13
16 -6 -7 19.29 0.9
-16 -6 7 16.41 1.05
16 6 -7 18.33 1.03
-16 6 7 17.62 1.17
16 6 -7 18.66 0.93
-14 -6 7 32.82 1.48
14 -6 -7 36.63 1.26
-14 -6 7 36.75 1.62
14 -6 -7 33.92 1.5
14 6 -7 37.37 1.35
14 6 -7 36.67 1.47
-14 6 7 34.01 1.7
-14 6 7 35.24 1.57
-12 -6 7 30.24 1.41
-12 -6 7 28.65 1.37
12 -6 -7 31.37 1.1
12 -6 -7 30.22 1.36
12 6 -7 31.2 1.22
-12 6 7 30.98 1.43
-12 6 7 29.83 1.39
12 6 -7 31.29 1.34
10 -6 -7 2.84 0.5
10 -6 -7 2.42 0.35
-10 -6 7 2.71 0.52
-10 -6 7 2.7 0.51
10 6 -7 2.95 0.46
-10 6 7 3.3 0.55
10 6 -7 2.94 0.49
-10 6 7 2.52 0.5
-8 -6 7 4.45 0.6
8 -6 -7 2.26 0.44
-8 -6 7 2.94 0.52
8 -6 -7 3.58 0.37
-8 6 7 3.85 0.57
-8 6 7 3.76 0.57
8 6 -7 3.85 0.51
6 -6 -7 26.64 1.15
-6 -6 7 26.35 1.19
-6 -6 7 26.82 1.26
6 -6 -7 25.15 0.9
6 -6 -7 27.5 1.23
6 6 -7 25.39 1.16
-6 6 7 24.87 1.18
-6 6 7 29.46 1.36
-4 -6 7 33.39 1.3
4 -6 -7 34.14 1.3
4 -6 -7 33.37 1.03
4 -6 -7 32.73 1.36
-4 -6 7 31.27 1.4
4 6 -7 32.81 1.37
-4 6 7 33.3 1.49
-4 6 7 31.95 1.33
-2 -6 7 6.42 0.72
2 -6 -7 6.9 0.5
-2 -6 7 6.92 0.57
2 -6 -7 5.76 0.58
2 -6 -7 6.62 0.69
2 6 -7 5.84 0.44
-2 6 7 7.28 0.83
2 6 -7 7.87 0.78
0 -6 7 3.55 0.45
0 -6 -7 3.58 0.46
0 -6 7 3.62 0.57
0 -6 -7 3.68 0.52
0 6 -7 4.04 0.42
0 6 -7 2.96 0.53
0 6 7 4.3 0.6
0 6 7 3.77 0.63
-2 -6 -7 0.09 0.26
-2 -6 -7 -0.04 0.19
2 -6 7 -0.09 0.27
2 -6 7 0.26 0.28
2 6 7 -0.16 0.26
-2 6 -7 0.26 0.29
2 6 7 0.24 0.28
-2 6 -7 -0.1 0.16
4 -6 7 3.05 0.61
4 -6 7 4.06 0.6
-4 -6 -7 3.71 0.5
-4 -6 -7 3.97 0.46
-4 6 -7 3.81 0.46
4 6 7 4.69 0.7
4 6 7 3.22 0.58
-4 6 -7 4.95 0.69
6 -6 7 14.17 0.95
-6 -6 -7 15.44 0.74
6 -6 7 14.55 1.07
-6 -6 -7 16.86 0.9
6 6 7 13.79 1.04
6 6 7 15.13 1.06
-6 6 -7 14.19 1
-6 6 -7 14.57 0.8
8 -6 7 38.87 1.8
8 -6 7 38.78 1.6
-8 -6 -7 35.49 1.42
-8 -6 -7 36.9 1.64
-8 -6 -7 39.87 1.29
-8 6 -7 38.44 1.43
-8 6 -7 37.62 1.68
8 6 7 39.3 1.81
8 6 7 37.68 1.74
10 -6 7 22.02 1.2
10 -6 7 23.33 1.41
-10 -6 -7 21.78 1.26
-10 -6 -7 20.01 0.87
-10 -6 -7 20.92 1.03
10 6 7 20.09 1.36
-10 6 -7 21.8 1.05
-10 6 -7 20.4 1.24
10 6 7 21.81 1.34
12 -6 7 5.38 0.84
-12 -6 -7 5.39 0.76
12 -6 7 7.49 0.83
-12 -6 -7 6.75 0.69
-12 6 -7 6.59 0.85
-12 6 -7 7.37 0.73
12 6 7 7.24 0.96
12 6 7 6.23 0.95
-14 -6 -7 1.05 0.48
14 -6 7 0.96 0.42
14 -6 7 0.05 0.41
-14 -6 -7 0.47 0.28
-14 6 -7 0.31 0.3
14 6 7 0.29 0.47
14 6 7 0.9 0.47
-14 6 -7 1.12 0.48
-16 -6 -7 2.59 0.47
-16 -6 -7 2.47 0.6
16 -6 7 3.41 0.75
16 -6 7 2.42 0.54
16 6 7 1.74 0.64
-16 6 -7 2.25 0.49
-16 6 -7 2.87 0.66
16 6 7 1.16 0.54
-18 -6 -7 5.47 0.81
18 -6 7 7.51 1.08
-18 -6 -7 6.17 0.69
18 -6 7 6.72 0.85
18 6 7 6.53 1.01
-18 6 -7 5.42 0.89
-18 6 -7 6.15 0.74
18 6 7 6.41 1.06
20 -6 7 10.83 1.35
-20 -6 -7 13 0.87
20 -6 7 11.56 1.16
-20 -6 -7 12.94 1.28
-20 6 -7 11.61 1.28
20 6 7 13.74 1.58
20 6 7 10.36 1.25
-20 6 -7 11.09 1.01
22 -6 7 9.52 1.08
-22 -6 -7 9.99 0.91
22 -6 7 9.69 1.28
-22 -6 -7 10.27 1.17
-22 6 -7 8.78 0.93
-22 6 -7 10.09 1.24
22 6 7 8.61 1.36
22 6 7 8.12 1.16
23 -7 -7 1.38 0.44
-23 -7 7 1.31 0.72
23 -7 -7 1 0.57
23 7 -7 1.15 0.46
23 7 -7 1.69 0.49
-23 7 7 2 0.7
21 -7 -7 2.2 0.45
21 -7 -7 1.96 0.57
-21 -7 7 2.82 0.69
-21 7 7 2.56 0.63
21 7 -7 1.53 0.46
21 7 -7 1.77 0.46
-19 -7 7 0.1 0.45
-19 -7 7 0.53 0.39
19 -7 -7 0.13 0.41
19 -7 -7 0.66 0.33
-19 7 7 0.66 0.49
19 7 -7 0.66 0.39
19 7 -7 0.12 0.31
-17 -7 7 0.54 0.4
17 -7 -7 0.28 0.39
17 -7 -7 0.02 0.24
-17 -7 7 -0.12 0.37
17 7 -7 -0.45 0.23
17 7 -7 -0.15 0.29
-17 7 7 -0.05 0.37
-15 -7 7 0.67 0.43
15 -7 -7 1.14 0.46
-15 -7 7 1.22 0.46
15 -7 -7 1.12 0.32
15 7 -7 1.12 0.4
-15 7 7 0.82 0.43
15 7 -7 1.32 0.36
13 -7 -7 -0.08 0.32
-13 -7 7 -0.12 0.31
13 -7 -7 0.16 0.21
-13 -7 7 0.59 0.39
13 7 -7 -0.25 0.27
-13 7 7 0.66 0.39
-13 7 7 0.66 0.35
13 7 -7 0.44 0.29
-11 -7 7 0.36 0.35
11 -7 -7 0.72 0.36
-11 -7 7 1.05 0.4
11 -7 -7 0.62 0.23
-11 7 7 0.45 0.39
-11 7 7 1 0.41
11 7 -7 0.46 0.3
11 7 -7 0.78 0.32
9 -7 -7 4.75 0.44
-9 -7 7 3.95 0.6
9 -7 -7 4.46 0.65
-9 -7 7 4.58 0.64
9 -7 -7 3.43 0.56
-9 7 7 5.48 0.73
9 7 -7 4.2 0.55
-9 7 7 4.88 0.69
7 -7 -7 8.63 0.71
-7 -7 7 7.76 0.76
7 -7 -7 7.89 0.48
7 -7 -7 7.8 0.76
-7 -7 7 6.83 0.74
7 7 -7 9.37 0.7
-7 7 7 8.43 0.88
-7 7 7 7.64 0.77
5 -7 -7 0.65 0.21
5 -7 -7 0.27 0.32
-5 -7 7 0.93 0.36
5 -7 -7 1.17 0.33
-5 -7 7 1.77 0.39
5 7 -7 1.19 0.36
-5 7 7 0.91 0.38
3 -7 -7 0.26 0.28
-3 -7 7 -0.08 0.26
-3 -7 7 0.48 0.26
3 -7 -7 0.17 0.24
3 7 -7 -0.16 0.23
-3 7 7 -0.04 0.29
1 -7 -7 7.53 0.73
-1 -7 7 8.34 0.86
-1 -7 7 9.04 0.64
1 -7 -7 9.03 0.64
1 7 -7 9.17 0.53
-1 7 7 8.2 0.92
1 7 -7 7.61 0.77
1 -7 7 1.47 0.4
-1 -7 -7 1.65 0.41
-1 -7 -7 1.51 0.34
1 7 7 0.9 0.37
-1 7 -7 1.06 0.37
-1 7 -7 1.5 0.3
1 7 7 1.37 0.44
3 -7 7 3.49 0.59
-3 -7 -7 4.9 0.62
3 -7 7 5.51 0.77
-3 -7 -7 3.97 0.47
3 7 7 4.98 0.75
-3 7 -7 3.76 0.6
-3 7 -7 4.31 0.47
3 7 7 3.54 0.6
-5 -7 -7 4.9 0.6
-5 -7 -7 6.43 0.54
5 -7 7 5.75 0.73
5 -7 7 3.31 0.65
5 7 7 7.64 0.89
-5 7 -7 5.57 0.57
-5 7 -7 6.42 0.78
5 7 7 4.19 0.7
7 -7 7 1.66 0.5
-7 -7 -7 1.51 0.32
7 -7 7 1.76 0.48
-7 -7 -7 1.81 0.42
7 7 7 0.94 0.44
7 7 7 1.98 0.54
-7 7 -7 1.12 0.32
-7 7 -7 1.21 0.43
-9 -7 -7 1.38 0.48
-9 -7 -7 1.34 0.32
-9 -7 -7 1.61 0.4
9 -7 7 1.02 0.41
9 -7 7 1.64 0.53
-9 7 -7 1.81 0.51
9 7 7 1.26 0.49
9 7 7 0.85 0.46
-9 7 -7 0.99 0.33
11 -7 7 1.74 0.58
-11 -7 -7 0.76 0.33
11 -7 7 1.65 0.48
-11 -7 -7 0.71 0.39
-11 -7 -7 1.22 0.31
-11 7 -7 1.29 0.36
-11 7 -7 1.23 0.45
11 7 7 1.42 0.59
11 7 7 2.07 0.57
-13 -7 -7 2.8 0.63
-13 -7 -7 2.7 0.48
13 -7 7 2.76 0.68
13 -7 7 3.51 0.62
-13 7 -7 2.64 0.6
13 7 7 3.15 0.74
-13 7 -7 3.54 0.54
13 7 7 3.17 0.76
15 -7 7 0.97 0.53
15 -7 7 1.83 0.51
-15 -7 -7 2.36 0.62
-15 -7 -7 2.09 0.45
15 7 7 2.08 0.7
15 7 7 2.38 0.69
-15 7 -7 1.94 0.59
-15 7 -7 2.47 0.51
17 -7 7 0.83 0.54
-17 -7 -7 0.37 0.32
-17 -7 -7 -0.35 0.37
17 -7 7 0.4 0.39
17 7 7 0.65 0.59
-17 7 -7 0.12 0.42
17 7 7 0.37 0.52
-17 7 -7 -0.2 0.3
-19 -7 -7 0.41 0.36
19 -7 7 0.29 0.42
19 -7 7 0.66 0.59
-19 -7 -7 1.37 0.55
-19 7 -7 0.37 0.45
-19 7 -7 0.46 0.38
19 7 7 -0.22 0.61
19 7 7 0.47 0.55
-21 -7 -7 1.37 0.41
-21 -7 -7 1.64 0.58
21 -7 7 0.1 0.42
21 -7 7 1.94 0.72
-21 7 -7 1.35 0.47
-21 7 -7 1.76 0.59
21 7 7 2.12 0.66
21 7 7 0.8 0.67
20 -8 -7 -0.08 0.3
-20 -8 7 -0.23 0.38
-20 -8 7 0.42 0.5
20 -8 -7 0.3 0.45
20 8 -7 0.34 0.38
-20 8 7 0.4 0.47
20 8 -7 -0.3 0.32
18 -8 -7 1.8 0.56
-18 -8 7 1.02 0.45
-18 -8 7 0.84 0.52
18 -8 -7 1.32 0.37
18 8 -7 1.93 0.46
18 8 -7 2.08 0.49
-18 8 7 1.21 0.5
-16 -8 7 8.85 0.99
-16 -8 7 8.51 0.92
16 -8 -7 9.32 0.96
16 -8 -7 9.93 0.7
16 8 -7 7.74 0.73
-16 8 7 10.56 1.07
16 8 -7 9.27 0.86
-14 -8 7 12.73 0.98
-14 -8 7 11.3 0.95
14 -8 -7 13.52 0.98
14 -8 -7 11.41 0.69
14 8 -7 12.88 0.92
14 8 -7 11.42 0.77
-14 8 7 14.13 1.04
-14 8 7 10.12 1
-12 -8 7 18.84 1.17
-12 -8 7 18.64 1.13
12 -8 -7 19.51 1.13
12 -8 -7 19.09 0.84
12 8 -7 19.25 0.98
12 8 -7 18.18 1.07
-12 8 7 18.58 1.19
-12 8 7 20.12 1.2
10 -8 -7 2.07 0.49
-10 -8 7 1.95 0.47
10 -8 -7 2.61 0.36
10 -8 -7 2.44 0.51
-10 -8 7 2.15 0.52
-10 8 7 1.94 0.47
10 8 -7 3 0.53
10 8 -7 2.36 0.45
-10 8 7 2.17 0.56
8 -8 -7 0.02 0.22
-8 -8 7 0.05 0.29
-8 -8 7 0.13 0.32
8 -8 -7 0.24 0.34
8 -8 -7 0.57 0.33
8 8 -7 0.37 0.29
-8 8 7 -0.16 0.34
-6 -8 7 2.65 0.52
-6 -8 7 1.89 0.43
6 -8 -7 3.45 0.52
6 -8 -7 2.67 0.53
6 8 -7 3.3 0.5
-6 8 7 2.73 0.57
4 -8 -7 13.36 0.92
-4 -8 7 11.65 0.92
4 -8 -7 13.32 0.83
-4 -8 7 13.44 0.85
-4 8 7 13.82 1.04
4 8 -7 13.25 0.87
2 -8 -7 0.41 0.3
-2 -8 7 1.66 0.38
-2 -8 7 0.39 0.34
2 -8 -7 0.98 0.39
-2 8 7 1.03 0.42
2 8 -7 0.88 0.35
0 -8 -7 1.59 0.38
0 -8 7 2.09 0.49
0 -8 -7 1.69 0.44
0 8 -7 1.27 0.28
0 8 7 0.82 0.43
0 8 -7 1.63 0.43
-2 -8 -7 0.57 0.35
2 -8 7 0.42 0.33
-2 -8 -7 0.56 0.28
-2 8 -7 0.41 0.32
-2 8 -7 0.8 0.25
2 8 7 0.67 0.41
-4 -8 -7 4.95 0.62
4 -8 7 5.77 0.74
-4 -8 -7 5.83 0.58
-4 8 -7 4.6 0.49
4 8 7 3.5 0.63
-4 8 -7 4.43 0.68
4 8 7 4.05 0.71
6 -8 7 7.86 0.87
6 -8 7 10.76 1.09
-6 -8 -7 10.79 0.81
-6 -8 -7 10.51 0.68
6 8 7 10.51 1.12
-6 8 -7 9.59 0.97
-6 8 -7 9.98 0.67
6 8 7 10.41 1.05
-8 -8 -7 10.42 0.93
-8 -8 -7 9.15 0.66
8 -8 7 10.93 1.17
8 -8 7 10.72 1
-8 8 -7 10.92 0.94
8 8 7 10.04 1.1
-8 8 -7 9.57 0.71
8 8 7 8.16 1.02
-10 -8 -7 7.24 0.65
-10 -8 -7 7.33 0.77
10 -8 7 6.49 0.93
10 -8 7 7.92 0.9
10 8 7 7.1 0.97
10 8 7 6.89 0.94
-10 8 -7 6.07 0.65
-10 8 -7 6.68 0.87
-12 -8 -7 2.72 0.53
12 -8 7 2.74 0.67
-12 -8 -7 2.12 0.57
12 -8 7 0.92 0.43
12 8 7 1.32 0.55
-12 8 -7 1.37 0.39
-12 8 -7 1.4 0.53
12 8 7 1.17 0.58
-14 -8 -7 0.71 0.35
14 -8 7 1.12 0.53
14 -8 7 1.56 0.52
-14 -8 -7 0.68 0.45
14 8 7 2.08 0.68
-14 8 -7 1.43 0.43
-14 8 -7 1.38 0.53
14 8 7 2.34 0.73
-16 -8 -7 0.98 0.41
16 -8 7 1.13 0.48
16 -8 7 0.88 0.55
-16 -8 -7 1.72 0.57
-16 8 -7 0.88 0.38
16 8 7 0.78 0.55
16 8 7 0.65 0.53
-16 8 -7 1.28 0.52
18 -8 7 6.13 1.01
18 -8 7 5.84 0.86
-18 -8 -7 6.11 0.74
-18 -8 -7 6.08 0.91
18 8 7 4.22 0.89
18 8 7 6.63 1.11
-18 8 -7 7.03 1
-18 8 -7 4.94 0.67
20 -8 7 2.11 0.63
20 -8 7 2.42 0.8
-20 -8 -7 2.48 0.68
-20 -8 -7 3 0.56
-20 8 -7 2.47 0.55
20 8 7 3.17 0.95
-20 8 -7 1.64 0.66
20 8 7 1.12 0.67
-19 -9 7 7.33 1.01
19 -9 -7 6.45 0.84
-19 -9 7 5.37 0.75
19 -9 -7 6.29 0.64
-19 9 7 7.03 0.94
19 9 -7 7.33 0.84
19 9 -7 4.63 0.66
17 -9 -7 2 0.58
17 -9 -7 1.3 0.36
-17 -9 7 1.22 0.48
-17 -9 7 1.35 0.55
17 9 -7 0.56 0.37
-17 9 7 1.96 0.6
17 9 -7 1.04 0.41
15 -9 -7 1.34 0.36
-15 -9 7 0.38 0.44
-15 -9 7 0.84 0.44
15 -9 -7 0.41 0.4
15 9 -7 1.31 0.44
-15 9 7 0.49 0.46
15 9 -7 0.86 0.38
-15 9 7 0.61 0.45
-13 -9 7 3.75 0.66
13 -9 -7 4.43 0.68
-13 -9 7 2.74 0.58
13 -9 -7 4.37 0.49
13 -9 -7 4.05 0.69
-13 9 7 4.28 0.66
-13 9 7 5.58 0.8
13 9 -7 4.74 0.69
13 9 -7 4 0.56
11 -9 -7 20.63 1.2
-11 -9 7 20.4 1.21
-11 -9 7 19.58 1.2
11 -9 -7 20.11 1.13
11 9 -7 19.01 1.02
-11 9 7 20.45 1.27
11 9 -7 21.09 1.16
-9 -9 7 15.15 1.02
9 -9 -7 16.82 1.08
-9 -9 7 13.68 1.03
9 -9 -7 16.12 0.97
9 9 -7 14.92 0.9
-9 9 7 11.58 1.12
7 -9 -7 7.16 0.75
-7 -9 7 8.28 0.87
7 -9 -7 8.94 0.9
-7 -9 7 9.57 0.95
7 9 -7 8.2 0.8
-7 9 7 7.24 0.9
-5 -9 7 4.56 0.62
5 -9 -7 3.67 0.62
5 -9 -7 4.53 0.59
-5 -9 7 4.28 0.69
-5 9 7 5.48 0.8
5 9 -7 3.91 0.56
3 -9 -7 2.16 0.49
-3 -9 7 2.17 0.54
3 -9 -7 2.15 0.45
-3 -9 7 1.36 0.37
3 9 -7 1.43 0.4
-3 9 7 2.43 0.58
-1 -9 7 1.25 0.42
-1 -9 7 1.13 0.53
1 -9 -7 1.16 0.37
1 -9 -7 0.91 0.39
-1 9 7 1.21 0.47
1 9 -7 1.33 0.41
-1 -9 -7 7.49 0.82
-1 -9 -7 6.18 0.64
1 -9 7 7.9 0.89
-1 9 -7 7.06 0.51
1 9 7 6.2 0.86
-1 9 -7 6.43 0.75
3 -9 7 15.62 1.09
-3 -9 -7 14.18 0.97
-3 -9 -7 14.13 0.83
3 9 7 14.53 1.13
-3 9 -7 13.23 0.73
-3 9 -7 14.62 0.99
-5 -9 -7 14.95 0.84
-5 -9 -7 16.67 1.02
5 -9 7 15.42 1.08
5 9 7 13.85 1.33
-5 9 -7 14.98 0.8
-5 9 -7 14.81 1.05
7 -9 7 0.99 0.5
-7 -9 -7 1.61 0.46
7 -9 7 1.6 0.5
-7 -9 -7 1.19 0.35
-7 9 -7 1.55 0.48
7 9 7 0.63 0.43
-7 9 -7 0.85 0.29
7 9 7 0.38 0.42
-9 -9 -7 0.47 0.3
-9 -9 -7 1.54 0.46
9 -9 7 0.75 0.49
9 -9 7 0.75 0.41
9 9 7 -0.05 0.44
9 9 7 0.78 0.52
-9 9 -7 1.08 0.33
-9 9 -7 1.44 0.51
-11 -9 -7 13.38 0.81
11 -9 7 12.37 1.16
-11 -9 -7 13.59 0.93
11 -9 7 15.92 1.26
-11 9 -7 15.36 1.15
11 9 7 14.45 1.24
-11 9 -7 13.3 0.86
11 9 7 14.34 1.37
-13 -9 -7 17.46 1.08
13 -9 7 17.08 1.34
-13 -9 -7 14.82 1.18
13 -9 7 17.51 1.24
13 9 7 16.39 1.31
13 9 7 14.85 1.5
-13 9 -7 19.05 1.29
-13 9 -7 15.48 0.96
15 -9 7 19.57 1.33
15 -9 7 18.49 1.43
-15 -9 -7 20.42 1.16
-15 -9 -7 19.35 1.39
-15 9 -7 22.1 1.45
15 9 7 19.26 1.51
15 9 7 20.07 1.61
-15 9 -7 20.09 1.11
-17 -9 -7 12.13 0.95
17 -9 7 10.98 1.3
-17 -9 -7 11.07 1.21
17 -9 7 12.84 1.27
-17 9 -7 12.06 0.93
-17 9 -7 12.89 1.31
17 9 7 12.37 1.4
17 9 7 12.84 1.56
19 -9 7 -0.05 0.43
-19 -9 -7 0.15 0.37
-19 -9 -7 0.27 0.49
19 -9 7 0.49 0.57
-19 9 -7 0.33 0.52
19 9 7 0.06 0.55
-19 9 -7 -0.09 0.37
19 9 7 -0.16 0.67
-18 -10 7 0.28 0.45
18 -10 -7 0.6 0.34
-18 -10 7 0.46 0.51
18 -10 -7 0.16 0.45
18 10 -7 0.38 0.39
18 10 -7 0.51 0.39
16 -10 -7 1.78 0.42
-16 -10 7 1.29 0.58
-16 -10 7 1.1 0.5
16 -10 -7 0.84 0.49
16 10 -7 0.66 0.45
16 10 -7 0.5 0.39
-16 10 7 0.95 0.57
-14 -10 7 3.54 0.74
14 -10 -7 4.36 0.74
14 -10 -7 2.58 0.58
-14 -10 7 3.49 0.66
14 10 -7 2.75 0.51
-14 10 7 3.32 0.74
14 10 -7 2.34 0.56
12 -10 -7 0.71 0.46
12 -10 -7 0.47 0.39
-12 -10 7 -0.38 0.33
-12 -10 7 0.59 0.41
12 10 -7 -0.25 0.27
-12 10 7 0.69 0.45
12 10 -7 0.28 0.36
-10 -10 7 -0.34 0.33
10 -10 -7 0.59 0.43
10 -10 -7 0.45 0.38
-10 -10 7 0.03 0.33
-10 10 7 1.13 0.48
10 10 -7 0.19 0.3
8 -10 -7 0.32 0.36
8 -10 -7 0.56 0.43
-8 -10 7 0.97 0.4
-8 -10 7 1.24 0.5
-8 10 7 0.59 0.49
8 10 -7 0.66 0.33
-6 -10 7 3.14 0.61
6 -10 -7 2.93 0.59
-6 -10 7 2.71 0.51
6 -10 -7 2.34 0.52
6 10 -7 1.44 0.41
-6 10 7 2.34 0.65
4 -10 -7 0.86 0.44
-4 -10 7 0.63 0.34
4 -10 -7 -0.18 0.32
-4 -10 7 0.53 0.39
4 10 -7 1.19 0.38
-4 10 7 0.69 0.44
-2 -10 7 0.51 0.4
2 -10 -7 0.48 0.38
2 -10 -7 0.2 0.31
-2 -10 7 0.67 0.51
-2 10 7 0.61 0.46
2 10 -7 0.29 0.32
0 -10 -7 0.56 0.33
0 -10 -7 0.3 0.37
0 -10 7 1.04 0.44
0 10 7 1.29 0.5
0 10 -7 0.99 0.39
-2 -10 -7 0.89 0.34
2 -10 7 0.11 0.36
-2 -10 -7 0.58 0.38
2 10 7 -0.02 0.4
-2 10 -7 0.8 0.28
-2 10 -7 0.87 0.4
4 -10 7 1.1 0.47
-4 -10 -7 1.36 0.48
-4 -10 -7 0.57 0.34
-4 10 -7 1.37 0.45
4 10 7 1.18 0.57
-4 10 -7 0.86 0.3
-6 -10 -7 -0.31 0.26
6 -10 7 0.03 0.36
-6 -10 -7 0.23 0.35
-6 10 -7 0.21 0.23
-6 10 -7 -0.13 0.3
6 10 7 -0.13 0.39
-8 -10 -7 1.06 0.38
8 -10 7 1.92 0.54
-8 -10 -7 1.01 0.43
8 10 7 1.15 0.54
-8 10 -7 1.58 0.53
8 10 7 0.25 0.78
-8 10 -7 1.7 0.37
-10 -10 -7 2.37 0.54
-10 -10 -7 1.74 0.43
10 -10 7 1.64 0.56
10 -10 7 2.61 0.7
10 10 7 2 0.65
-10 10 -7 1.94 0.44
10 10 7 1.42 0.62
-10 10 -7 1.86 0.56
12 -10 7 4.79 0.89
-12 -10 -7 2.75 0.48
-12 -10 -7 3.83 0.65
12 -10 7 2.79 0.62
12 10 7 2.33 0.68
-12 10 -7 2.65 0.66
-12 10 -7 2.46 0.49
12 10 7 2.87 0.77
14 -10 7 2.01 0.69
14 -10 7 2.25 0.65
-14 -10 -7 2.83 0.72
-14 -10 -7 1.11 0.45
-14 10 -7 3.12 0.7
-14 10 -7 2.71 0.52
14 10 7 0.98 0.56
14 10 7 1.8 0.71
-16 -10 -7 0.28 0.5
16 -10 7 1.03 0.62
-16 -10 -7 0.75 0.46
16 -10 7 1.15 0.55
-16 10 -7 0.27 0.48
16 10 7 0.4 0.65
16 10 7 0.76 0.65
-16 10 -7 0.7 0.4
15 -11 -7 0.57 0.49
-15 -11 7 1.22 0.52
15 -11 -7 1.11 0.48
-15 -11 7 0.22 0.47
-15 11 7 -0.36 0.46
15 11 -7 0.28 0.36
15 11 -7 0.64 0.43
13 -11 -7 2.38 0.61
-13 -11 7 2.58 0.61
13 -11 -7 1.62 0.52
-13 -11 7 3.06 0.67
13 11 -7 2.88 0.55
-13 11 7 2.33 0.65
13 11 -7 2.8 0.61
-11 -11 7 5.6 0.81
11 -11 -7 5.9 0.84
-11 -11 7 5.19 0.76
11 -11 -7 4.68 0.71
11 11 -7 6.85 0.83
11 11 -7 5.73 0.69
-11 11 7 5.48 0.86
-9 -11 7 4.68 0.75
-9 -11 7 3.71 0.68
9 -11 -7 4.76 0.69
9 -11 -7 4.65 0.75
9 11 -7 4.29 0.62
-9 11 7 4.86 0.81
-7 -11 7 3.69 0.68
7 -11 -7 3.87 0.71
-7 -11 7 3.4 0.63
7 -11 -7 4.39 0.66
-7 11 7 4.29 0.84
7 11 -7 3.82 0.58
-5 -11 7 0.96 0.46
-5 -11 7 2.08 0.51
5 -11 -7 2.21 0.59
5 -11 -7 1.27 0.44
5 11 -7 1.23 0.41
-5 11 7 1.87 0.62
3 -11 -7 -0.11 0.3
-3 -11 7 0.23 0.39
3 -11 -7 0.11 0.39
-3 11 7 0.74 0.46
3 11 -7 -0.06 0.28
1 -11 -7 11.89 0.85
1 -11 -7 10.66 1.01
-1 -11 7 10.45 1.09
-1 11 7 8.85 1.07
1 11 -7 12.26 0.9
1 -11 7 12.08 1.19
-1 -11 -7 11.15 0.85
-1 -11 -7 11.4 1.07
-1 11 -7 10.33 0.87
1 11 7 9.81 1.12
-3 -11 -7 24.12 1.18
-3 -11 -7 24.47 1.31
3 -11 7 20.86 1.38
-3 11 -7 22.73 1.13
3 11 7 23.55 1.55
-3 11 -7 27.21 1.36
-5 -11 -7 17.73 1.18
-5 -11 -7 21.75 1.1
5 -11 7 19.28 1.29
-5 11 -7 18.41 0.91
-5 11 -7 18.86 1.2
5 11 7 18.89 1.42
7 -11 7 5.84 0.85
-7 -11 -7 5.66 0.67
-7 -11 -7 4.98 0.77
-7 11 -7 5.46 0.77
7 11 7 3.4 0.76
-7 11 -7 4.44 0.55
-9 -11 -7 2.44 0.51
9 -11 7 3.31 0.7
-9 -11 -7 3.24 0.63
-9 11 -7 3.65 0.51
-9 11 -7 3.17 0.67
9 11 7 3.08 0.79
-11 -11 -7 6.9 0.83
-11 -11 -7 6.26 0.7
11 -11 7 5.19 0.88
-11 11 -7 6.21 0.88
-11 11 -7 7.29 0.71
11 11 7 6.28 1.54
11 11 7 5.19 0.97
13 -11 7 9.59 1.12
-13 -11 -7 9.35 1.2
-13 -11 -7 10.34 1
-13 -11 -7 10.81 0.96
-13 11 -7 9.74 0.87
13 11 7 10.12 1.37
13 11 7 8.8 1.25
-13 11 -7 10.97 1.16
15 -11 7 7.72 1.15
-15 -11 -7 9.54 1.15
15 -11 7 7.77 1.11
-15 11 -7 9.85 0.88
15 11 7 8.36 1.2
15 11 7 8.14 1.27
-15 11 -7 8.2 1.05
-12 -12 7 0.67 0.48
12 -12 -7 0.22 0.48
-12 -12 7 0.49 0.45
12 -12 -7 0.07 0.42
12 12 -7 0.55 0.45
12 12 -7 0.24 0.36
-12 12 7 0.59 0.5
-10 -12 7 0.24 0.45
-10 -12 7 0.62 0.49
10 -12 -7 -0.02 0.42
10 -12 -7 0.03 0.42
10 12 -7 0.03 0.34
-10 12 7 0.85 0.55
8 -12 -7 -0.4 0.42
-8 -12 7 0.48 0.43
-8 -12 7 -0.3 0.36
8 -12 -7 -0.26 0.37
8 12 -7 0.53 0.33
-8 12 7 0.79 0.56
6 -12 -7 3.15 0.58
-6 -12 7 1.75 0.58
-6 -12 7 2.35 0.58
6 -12 -7 2.34 0.64
-6 12 7 1.92 0.69
6 12 -7 2.99 0.54
4 -12 -7 1.75 0.48
4 -12 -7 2.73 0.64
-4 -12 7 1.62 0.58
-4 12 7 1.96 0.67
4 12 -7 1.84 0.47
2 -12 -7 2.67 0.56
-2 -12 7 3.47 0.68
2 -12 -7 4.11 0.72
-2 12 7 1.7 0.61
2 12 -7 3.87 0.61
0 -12 -7 -0.15 0.31
0 -12 -7 -0.12 0.38
0 -12 7 0.14 0.44
0 12 -7 0.07 0.33
0 12 7 0.14 0.48
2 -12 7 0.18 0.44
-2 -12 -7 0.03 0.36
-2 -12 -7 0.61 0.44
-2 12 -7 0.99 0.43
2 12 7 0.17 0.48
4 -12 7 0.37 0.45
-4 -12 -7 0.3 0.36
-4 -12 -7 0.53 0.44
-4 12 -7 0.66 0.43
4 12 7 0.11 0.54
-6 -12 -7 1.54 0.47
-6 -12 -7 1.84 0.58
6 -12 7 0.65 0.48
-6 12 -7 1.49 0.5
-6 12 -7 0.38 0.28
6 12 7 0.93 0.57
8 -12 7 3.51 0.76
-8 -12 -7 3.49 0.67
-8 -12 -7 4.68 0.67
-8 12 -7 5.22 0.61
8 12 7 4.15 0.86
-8 12 -7 4.88 0.77
-10 -12 -7 0.92 0.49
-10 -12 -7 1.05 0.42
10 -12 7 1.23 0.59
-10 12 -7 0.44 0.35
-10 12 -7 1.41 0.53
10 12 7 1.4 0.64
-12 -12 -7 2.54 0.54
-12 -12 -7 1.49 0.59
12 -12 7 1.54 0.75
12 12 7 2.65 0.8
-12 12 -7 2.29 0.49
-12 12 -7 2.93 0.72
-9 -13 7 4 0.77
-9 -13 7 2.78 0.71
9 -13 -7 2.71 0.71
9 -13 -7 2.34 0.66
-9 13 7 3.95 0.85
9 13 -7 3.4 0.61
-7 -13 7 0.47 0.49
-7 -13 7 0.53 0.49
7 -13 -7 0.44 0.5
7 -13 -7 0.16 0.43
7 13 -7 0.79 0.39
-7 13 7 0.83 0.67
5 -13 -7 1.57 0.55
-5 -13 7 1.46 0.58
5 -13 -7 0.52 0.53
-5 13 7 -0.23 0.55
5 13 -7 1.09 0.4
-3 -13 7 0.49 0.51
3 -13 -7 1.37 0.5
3 -13 -7 1.46 0.56
-3 13 7 1.99 0.65
3 13 -7 0.46 0.39
1 -13 -7 0.6 0.44
1 -13 -7 0.9 0.52
-1 -13 7 0.52 0.51
-1 13 7 1.33 0.64
1 13 -7 0.52 0.38
-1 -13 -7 5.51 0.83
-1 -13 -7 3.9 0.63
1 -13 7 5.33 0.89
-1 13 -7 4.04 0.65
1 13 7 3.05 0.8
3 -13 7 7.03 0.98
-3 -13 -7 7.71 0.95
-3 -13 -7 7.96 0.84
-3 13 -7 7.49 0.87
3 13 7 6.06 1
-5 -13 -7 1.62 0.53
-5 -13 -7 1.78 0.6
5 -13 7 2.06 0.62
5 13 7 2.25 0.76
-5 13 -7 2.52 0.6
-7 -13 -7 0.98 0.48
-7 -13 -7 1.08 0.51
7 -13 7 0.17 0.53
-7 13 -7 0.83 0.45
7 13 7 0 0.56
-7 13 -7 0.36 0.33
-24 0 8 0.94 0.65
24 0 -8 1.64 0.47
-22 0 8 3.79 0.83
22 0 -8 3.48 0.56
-20 0 8 1.4 0.55
20 0 -8 1.82 0.43
-18 0 8 5.18 0.82
18 0 -8 5.17 0.62
-14 0 8 20.74 1.22
14 0 -8 22.25 1.02
12 0 -8 39.17 1.31
-12 0 8 37.03 1.46
12 0 -8 36.78 1.39
-12 0 8 37.51 1.6
10 0 -8 43.14 1.48
-10 0 8 46.87 1.75
10 0 -8 44.39 1.55
-10 0 8 44.54 1.61
-8 0 8 33.35 1.34
-8 0 8 34.27 1.42
8 0 -8 33.88 1.29
8 0 -8 31.9 1.26
-6 0 8 18.24 0.97
-6 0 8 16.98 0.92
-6 0 8 16.73 0.93
6 0 -8 17.9 0.94
6 0 -8 14.65 0.82
-4 0 8 7.76 0.73
-4 0 8 9.02 0.67
4 0 -8 8.07 0.7
4 0 -8 9.15 0.64
-4 0 8 8.75 0.71
4 0 -8 7.19 0.66
-4 0 8 9.65 0.81
-2 0 8 8.38 0.87
2 0 -8 9.68 0.68
-2 0 8 7.89 0.61
2 0 -8 9.11 0.64
2 0 -8 8.64 0.72
-2 0 8 8.9 0.67
2 0 -8 7.63 0.57
2 0 -8 8.17 0.57
-2 0 8 8.06 0.76
0 0 -8 3.74 0.43
0 0 8 3.49 0.6
0 0 8 3.54 0.48
0 0 8 3.17 0.53
0 0 -8 4.14 0.59
0 0 -8 4.79 0.58
0 0 8 3.11 0.42
0 0 -8 3.8 0.43
-2 0 -8 3.48 0.58
-2 0 -8 4.03 0.53
2 0 8 2.6 0.57
2 0 8 4.18 0.6
2 0 8 3.55 0.5
-2 0 -8 3.74 0.42
-2 0 -8 3.03 0.38
2 0 8 4.31 0.47
4 0 8 0.89 0.3
-4 0 -8 0.25 0.29
4 0 8 0.69 0.38
-4 0 -8 0.74 0.31
-4 0 -8 0.66 0.24
4 0 8 0.21 0.33
6 0 8 0.12 0.32
-6 0 -8 0.06 0.21
6 0 8 -0.04 0.31
-6 0 -8 -0.34 0.19
6 0 8 0.09 0.21
-8 0 -8 4.27 0.61
8 0 8 5.08 0.57
8 0 8 3.09 0.62
-10 0 -8 4.18 0.65
10 0 8 2.91 0.66
10 0 8 5.9 0.63
12 0 8 37.43 1.63
12 0 8 36.28 1.86
-12 0 -8 34.24 1.56
14 0 8 54.46 2.41
-14 0 -8 51.18 2.02
-16 0 -8 42.71 1.87
16 0 8 46.57 2.26
18 0 8 6.27 1.06
-18 0 -8 4.58 0.76
-20 0 -8 1.13 0.48
20 0 8 1.92 0.67
-22 0 -8 10.9 1.15
22 0 8 9.69 1.32
23 -1 -8 -0.16 0.32
-23 -1 8 -0.5 0.47
-23 1 8 0.16 0.52
23 1 -8 0.04 0.31
-21 -1 8 0.66 0.52
21 -1 -8 0.25 0.33
21 1 -8 0 0.3
-21 1 8 0.59 0.48
19 -1 -8 0.44 0.32
-19 -1 8 -0.25 0.37
-19 1 8 0.09 0.43
19 1 -8 -0.02 0.26
-17 -1 8 -0.15 0.37
17 -1 -8 0.22 0.28
17 1 -8 0.45 0.32
-17 1 8 0.36 0.42
-15 -1 8 6.98 0.84
15 -1 -8 7.18 0.69
15 1 -8 6.54 0.69
-15 1 8 5.38 0.75
-13 -1 8 0.05 0.33
13 -1 -8 1.04 0.32
-13 -1 8 0.56 0.29
13 1 -8 0.47 0.25
-13 1 8 0.59 0.38
13 1 -8 0.77 0.31
11 -1 -8 1.01 0.3
-11 -1 8 1.44 0.44
-11 -1 8 1.58 0.41
11 1 -8 0.98 0.32
11 1 -8 1.4 0.32
-11 1 8 0.97 0.36
-11 1 8 0.24 0.33
-9 -1 8 0.68 0.34
-9 -1 8 0.39 0.28
9 -1 -8 0.19 0.23
9 -1 -8 0.3 0.24
9 1 -8 0.76 0.29
-9 1 8 0.6 0.34
-9 1 8 0.73 0.3
9 1 -8 0.69 0.29
7 -1 -8 0.01 0.22
-7 -1 8 0.02 0.24
-7 -1 8 -0.08 0.24
7 -1 -8 0.03 0.2
-7 1 8 -0.27 0.2
7 1 -8 -0.26 0.18
-7 1 8 0.15 0.25
7 1 -8 0.12 0.23
-7 1 8 -0.28 0.24
5 -1 -8 5.29 0.53
5 -1 -8 5.38 0.63
-5 -1 8 5.71 0.64
5 -1 -8 4.29 0.52
-5 -1 8 5.68 0.63
5 -1 -8 6.48 0.63
-5 1 8 6.07 0.6
5 1 -8 5.37 0.8
-5 1 8 4.27 0.59
-5 1 8 5.83 0.64
-5 1 8 4.83 0.59
5 1 -8 5.27 0.62
5 1 -8 6.52 0.64
-3 -1 8 0.6 0.28
3 -1 -8 0.26 0.21
3 -1 -8 0.88 0.26
3 -1 -8 0.88 0.34
3 -1 -8 0.38 0.24
3 -1 -8 0.96 0.31
-3 -1 8 0.98 0.34
-3 -1 8 0.93 0.38
3 1 -8 0.64 0.28
-3 1 8 0.76 0.36
-3 1 8 0.89 0.3
-3 1 8 0.73 0.29
3 1 -8 1.08 0.36
3 1 -8 0.47 0.22
-3 1 8 0.49 0.32
3 1 -8 0.56 0.27
1 -1 -8 1.41 0.39
1 -1 -8 1.58 0.38
1 -1 -8 1.49 0.32
-1 -1 8 0.6 0.28
-1 -1 8 1.02 0.28
1 -1 -8 0.79 0.25
-1 -1 8 0.48 0.36
1 -1 -8 0.58 0.23
1 1 -8 0.77 0.29
1 1 -8 1.1 0.27
1 1 -8 1.27 0.38
-1 1 8 0.95 0.4
-1 1 8 1.21 0.31
-1 1 8 0.9 0.29
-1 1 8 1.02 0.41
-1 -1 -8 0.08 0.22
1 -1 8 0 0.22
-1 -1 -8 -0.08 0.19
1 -1 8 0.17 0.29
-1 -1 -8 -0.1 0.16
1 -1 8 0.18 0.19
-1 -1 -8 -0.03 0.23
-1 -1 -8 -0.07 0.17
-1 1 -8 -0.04 0.16
1 1 8 0.09 0.28
-1 1 -8 0.06 0.22
-1 1 -8 0.18 0.19
1 1 8 0.14 0.21
-1 1 -8 0.38 0.3
1 1 8 0.09 0.21
1 1 8 0.25 0.31
-3 -1 -8 0.74 0.34
-3 -1 -8 0.32 0.22
3 -1 8 0.36 0.26
-3 -1 -8 0.44 0.21
3 -1 8 0.27 0.32
-3 -1 -8 0.17 0.24
3 1 8 0.38 0.23
-3 1 -8 0.1 0.23
3 1 8 0.54 0.27
3 1 8 0.23 0.33
3 1 8 0.01 0.3
-3 1 -8 0.03 0.27
-5 -1 -8 4.13 0.47
-5 -1 -8 3.99 0.59
5 -1 8 4.99 0.59
5 -1 8 5.05 0.77
5 1 8 4.75 0.73
-5 1 -8 4.71 0.61
5 1 8 4.56 0.69
5 1 8 4.34 0.51
-5 1 -8 5.41 0.75
7 -1 8 6.96 0.91
-7 -1 -8 7.1 0.77
7 -1 8 6.14 0.64
-7 -1 -8 6.31 0.51
7 1 8 5.48 0.82
7 1 8 7.01 0.86
-7 1 -8 5.44 0.69
7 1 8 6.07 0.6
-9 -1 -8 0.01 0.16
9 -1 8 -0.09 0.24
-9 -1 -8 -0.01 0.3
9 -1 8 0.17 0.33
9 1 8 0.25 0.34
9 1 8 0.01 0.32
-9 1 -8 0.28 0.3
9 1 8 -0.1 0.21
-11 -1 -8 0.16 0.26
11 -1 8 0.19 0.26
11 -1 8 -0.32 0.31
11 1 8 0.66 0.4
-11 1 -8 -0.39 0.24
13 -1 8 1.28 0.57
13 -1 8 1.59 0.42
-13 -1 -8 1.11 0.42
13 1 8 0.96 0.48
-13 1 -8 0.69 0.37
15 -1 8 1.11 0.53
-15 -1 -8 1.65 0.54
15 1 8 2.36 0.67
-15 1 -8 3.28 0.64
-17 -1 -8 1.27 0.47
17 -1 8 2.03 0.67
17 1 8 1.24 0.63
-17 1 -8 1.28 0.49
19 -1 8 0.68 0.55
-19 -1 -8 0.37 0.43
19 1 8 0.17 0.51
-19 1 -8 1.02 0.48
-21 -1 -8 -0.14 0.43
21 -1 8 0.48 0.63
-21 1 -8 0.07 0.39
21 1 8 0.61 0.64
24 -2 -8 -0.07 0.37
24 2 -8 0.08 0.41
-22 -2 8 0.55 0.51
22 -2 -8 0.4 0.35
-22 2 8 0.28 0.55
22 2 -8 0.66 0.36
20 -2 -8 4.19 0.57
-20 -2 8 3.45 0.7
20 2 -8 5.16 0.65
-20 2 8 4.71 0.83
-18 -2 8 6.89 0.9
18 -2 -8 6.48 0.66
-18 2 8 5.05 0.81
18 2 -8 7.08 0.71
16 -2 -8 -0.05 0.24
-16 -2 8 0 0.34
-16 -2 8 0.21 0.34
16 2 -8 0.21 0.3
16 2 -8 0.04 0.27
-16 2 8 -0.22 0.34
-14 -2 8 0.39 0.35
14 -2 -8 0.51 0.27
-14 -2 8 0.28 0.29
14 2 -8 0.76 0.28
-14 2 8 -0.4 0.37
14 2 -8 0.52 0.29
12 -2 -8 13.91 0.78
-12 -2 8 12.68 0.92
-12 -2 8 11.17 0.84
-12 2 8 14.67 0.98
12 2 -8 12.94 0.75
12 2 -8 12.91 0.83
-10 -2 8 20.92 1.11
10 -2 -8 23.61 0.97
-10 -2 8 22.01 1.16
10 -2 -8 21.39 1.11
-10 2 8 21.05 1.16
10 2 -8 22.9 1.02
10 2 -8 20.71 1.05
-8 -2 8 17.76 0.99
8 -2 -8 17.39 0.83
8 -2 -8 17.59 0.95
8 -2 -8 17.18 1.09
-8 -2 8 16.4 0.97
-8 2 8 17.58 1
8 2 -8 16.8 0.92
8 2 -8 15.93 0.89
-8 2 8 16.72 0.87
-8 2 8 18.4 1.03
6 -2 -8 4.23 0.53
-6 -2 8 4.05 0.55
-6 -2 8 3.41 0.53
6 -2 -8 3.96 0.45
6 -2 -8 2.78 0.44
6 -2 -8 3.55 0.51
6 2 -8 3.59 0.51
-6 2 8 4.46 0.59
6 2 -8 4.72 0.56
-6 2 8 4.68 0.61
-6 2 8 3.9 0.48
-6 2 8 4.25 0.6
4 -2 -8 0.25 0.19
4 -2 -8 -0.25 0.21
-4 -2 8 0.17 0.28
4 -2 -8 0.5 0.25
4 -2 -8 0.58 0.29
-4 -2 8 -0.02 0.21
4 -2 -8 0.07 0.21
-4 2 8 0.43 0.31
-4 2 8 0.07 0.22
4 2 -8 0.08 0.23
-4 2 8 0.22 0.29
4 2 -8 0.24 0.24
-4 2 8 0.4 0.27
4 2 -8 0.13 0.34
-2 -2 8 23.12 1.11
-2 -2 8 22.06 1.23
-2 -2 8 20.92 0.97
2 -2 -8 22.99 0.99
2 -2 -8 22.57 1.01
2 -2 -8 22.67 0.94
2 -2 -8 22.87 1.11
2 -2 -8 19.97 1.05
2 2 -8 23.59 1.18
-2 2 8 22.27 0.98
2 2 -8 20.68 0.95
-2 2 8 22.38 1.17
-2 2 8 22.72 1.18
-2 2 8 21.23 1.01
0 -2 -8 11.64 0.65
0 -2 -8 11.6 0.83
0 -2 -8 11.84 0.67
0 -2 8 11.78 0.8
0 -2 8 11.75 0.93
0 -2 8 11.75 0.69
0 -2 -8 13.28 0.76
0 -2 -8 10.77 0.79
0 2 8 12.29 0.72
0 2 8 11.5 0.89
0 2 -8 12.99 0.9
0 2 8 12.7 0.72
0 2 -8 10.7 0.71
0 2 8 13.58 0.93
-2 -2 -8 7.62 0.6
-2 -2 -8 7.65 0.77
-2 -2 -8 8.37 0.56
2 -2 8 7.8 0.74
-2 -2 -8 8.11 0.55
2 -2 8 8.88 0.91
-2 -2 -8 8.68 0.86
2 -2 8 10.29 0.9
2 2 8 6.99 0.82
2 2 8 9.95 0.94
-2 2 -8 8.31 0.85
-2 2 -8 8.45 0.75
2 2 8 8.44 0.6
2 2 8 9.18 0.61
-4 -2 -8 1.69 0.41
-4 -2 -8 1.16 0.28
-4 -2 -8 0.7 0.27
-4 -2 -8 0.78 0.24
4 -2 8 1.18 0.45
4 -2 8 1.43 0.37
4 2 8 1.27 0.31
-4 2 -8 1.51 0.47
4 2 8 1.11 0.43
-4 2 -8 0.89 0.33
4 2 8 0.75 0.39
-6 -2 -8 1.37 0.39
-6 -2 -8 1.92 0.36
6 -2 8 1.22 0.35
6 -2 8 1.27 0.47
-6 2 -8 1.82 0.42
6 2 8 1.6 0.53
-6 2 -8 1.52 0.46
6 2 8 0.55 0.43
6 2 8 0.88 0.28
8 -2 8 1.19 0.53
-8 -2 -8 0.27 0.34
-8 -2 -8 0.69 0.26
8 -2 8 1.36 0.39
-8 2 -8 0.68 0.31
8 2 8 0.84 0.46
-8 2 -8 0.08 0.32
8 2 8 0.4 0.38
10 -2 8 4.21 0.59
-10 -2 -8 2.92 0.56
10 -2 8 3.84 0.76
-10 -2 -8 4.52 0.49
10 2 8 3 0.63
10 2 8 4.1 0.77
-10 2 -8 3.88 0.6
12 -2 8 9.63 1.16
-12 -2 -8 11.07 0.68
12 -2 8 11.06 0.83
-12 -2 -8 12.53 0.97
12 2 8 10.69 1.1
12 2 8 12.23 1.31
-12 2 -8 11.36 0.87
-14 -2 -8 14.44 1.29
14 -2 8 12.29 0.91
-14 -2 -8 11.74 1.1
14 -2 8 14.45 1.24
-14 2 -8 11.51 0.93
14 2 8 15.68 1.55
-16 -2 -8 2.9 0.61
16 -2 8 4.53 0.87
16 -2 8 4.73 0.67
-16 2 -8 4.45 0.66
16 2 8 4.71 0.9
-18 -2 -8 1.87 0.55
18 -2 8 2.56 0.75
18 2 8 1.81 0.68
-18 2 -8 1.3 0.51
-20 -2 -8 1.33 0.55
20 -2 8 1.25 0.67
-20 2 -8 1.45 0.52
20 2 8 1.95 0.74
22 -2 8 2.29 0.81
-22 -2 -8 2.09 0.6
-22 2 -8 1.86 0.56
22 2 8 2.55 0.84
-23 -3 8 2.77 0.74
23 -3 -8 1.45 0.57
23 -3 -8 1.68 0.44
23 3 -8 1.32 0.45
-23 3 8 1.4 0.67
21 -3 -8 0.27 0.43
-21 -3 8 0.25 0.46
21 -3 -8 -0.01 0.32
-21 3 8 0.72 0.55
21 3 -8 0.39 0.34
-19 -3 8 4.63 0.81
19 -3 -8 5.82 0.8
19 -3 -8 7.05 0.7
-19 3 8 4 0.75
19 3 -8 5.43 0.67
-17 -3 8 20.36 1.31
17 -3 -8 22.81 1.28
-17 -3 8 20.2 1.15
17 -3 -8 22.3 1.02
-17 3 8 18.62 1.28
17 3 -8 21.55 0.97
17 3 -8 20.15 1.09
-15 -3 8 9.34 0.89
15 -3 -8 11 0.92
-15 -3 8 10.49 1.04
15 -3 -8 10.59 0.7
15 3 -8 9.84 0.68
-15 3 8 10.52 1.03
15 3 -8 9.59 0.76
-13 -3 8 3.62 0.59
13 -3 -8 2.24 0.54
13 -3 -8 3.79 0.49
-13 -3 8 3.78 0.63
13 3 -8 3.8 0.48
13 3 -8 3.44 0.53
-13 3 8 3.73 0.69
11 -3 -8 0.03 0.28
-11 -3 8 0.18 0.29
-11 -3 8 0.1 0.27
11 -3 -8 0.11 0.21
-11 3 8 -0.24 0.28
11 3 -8 0.07 0.22
11 3 -8 -0.19 0.24
-9 -3 8 1.26 0.41
9 -3 -8 1.65 0.34
-9 -3 8 1.69 0.44
9 -3 -8 1.15 0.37
-9 3 8 1.27 0.42
9 3 -8 1.77 0.4
-9 3 8 2.27 0.56
9 3 -8 2.07 0.45
7 -3 -8 4.62 0.48
-7 -3 8 4.76 0.62
-7 -3 8 4.67 0.61
7 -3 -8 4.89 0.61
7 3 -8 4.93 0.59
-7 3 8 4.99 0.64
-7 3 8 5.96 0.7
7 3 -8 4.61 0.6
5 -3 -8 10.29 0.6
5 -3 -8 9.43 0.7
5 -3 -8 9.31 0.71
-5 -3 8 8.74 0.7
-5 -3 8 7.85 0.77
5 -3 -8 10.42 0.71
5 3 -8 8.64 0.69
-5 3 8 9.67 0.89
-5 3 8 9.6 0.75
5 3 -8 8.84 0.73
-5 3 8 11.38 0.78
-5 3 8 9.4 0.63
3 -3 -8 27.58 1.22
-3 -3 8 27.43 1.26
-3 -3 8 29.88 1.2
3 -3 -8 28.57 1.18
3 -3 -8 27.01 1.04
3 -3 -8 27.17 1.18
3 -3 -8 26.19 1.23
-3 3 8 31.05 1.34
-3 3 8 31.29 1.4
-3 3 8 31.04 1.13
-3 3 8 29.35 1.23
3 3 -8 27.77 1.24
3 3 -8 31.14 1.36
1 -3 -8 4.17 0.53
1 -3 -8 3.71 0.56
-1 -3 8 3.48 0.62
1 -3 -8 3.81 0.47
-1 -3 8 2.91 0.42
1 -3 -8 3.02 0.51
1 -3 -8 2.34 0.34
-1 -3 8 3.37 0.54
1 3 -8 3.34 0.45
1 3 -8 3.25 0.54
-1 3 8 3.66 0.59
-1 3 8 3.87 0.51
-1 3 8 2.7 0.53
-1 3 8 3.08 0.42
-1 -3 -8 0.33 0.28
1 -3 8 -0.3 0.21
1 -3 8 0.13 0.2
-1 -3 -8 0.09 0.21
-1 -3 -8 0.07 0.16
1 -3 8 -0.13 0.26
-1 -3 -8 -0.01 0.19
1 3 8 0.21 0.24
1 3 8 0.23 0.31
-1 3 -8 -0.06 0.2
1 3 8 0.02 0.31
1 3 8 0 0.2
-1 3 -8 -0.23 0.24
-3 -3 -8 6.4 0.61
-3 -3 -8 5.98 0.54
-3 -3 -8 6.71 0.76
3 -3 8 6.59 0.73
3 -3 8 7.36 0.9
-3 -3 -8 6.46 0.48
3 3 8 6.72 0.82
-3 3 -8 6.17 0.63
-3 3 -8 5.3 0.73
3 3 8 5.96 0.54
3 3 8 6.87 0.85
-5 -3 -8 15.93 0.74
-5 -3 -8 16.15 1.01
-5 -3 -8 15.86 0.84
5 -3 8 17.03 1.19
5 -3 8 16.3 0.97
5 3 8 15.39 1.12
-5 3 -8 15.31 1.07
5 3 8 16.25 1.11
-5 3 -8 17.95 0.96
7 -3 8 6.71 0.73
-7 -3 -8 7.67 0.68
7 -3 8 6.68 0.91
-7 -3 -8 7.36 0.82
7 3 8 6.44 0.88
7 3 8 5.43 0.79
-7 3 -8 7.9 0.76
-7 3 -8 8.49 0.94
-9 -3 -8 29.81 1.44
9 -3 8 29.37 1.63
9 -3 8 29.12 1.34
-9 -3 -8 30.11 1.17
9 3 8 28.64 1.54
-9 3 -8 27.26 1.5
-9 3 -8 31.7 1.36
9 3 8 27.5 1.57
-11 -3 -8 10.01 0.67
11 -3 8 11.28 0.85
11 -3 8 10.66 1.21
-11 -3 -8 10.47 1.07
-11 3 -8 10.89 0.83
11 3 8 11.43 1.24
11 3 8 11.55 1.18
-11 3 -8 9.52 1.05
-13 -3 -8 0.37 0.39
13 -3 8 0.34 0.43
-13 -3 -8 0.31 0.24
13 -3 8 -0.06 0.29
13 3 8 1.09 0.54
13 3 8 0.27 0.42
-13 3 -8 0.16 0.3
15 -3 8 11.1 1.27
15 -3 8 11.47 0.92
-15 -3 -8 9.24 0.99
-15 -3 -8 12.3 0.76
15 3 8 11.6 1.32
15 3 8 12.48 1.24
-15 3 -8 12.94 0.96
17 -3 8 10.89 1.3
-17 -3 -8 12.34 1.09
-17 -3 -8 11.79 1.17
17 -3 8 11.83 1.08
-17 3 -8 12.24 0.97
17 3 8 13.02 1.48
19 -3 8 10.28 1.3
-19 -3 -8 10.7 1.15
19 -3 8 13.82 1.27
-19 3 -8 14.07 1.05
19 3 8 11.02 1.41
-21 -3 -8 1.16 0.54
21 -3 8 1.71 0.73
21 3 8 -0.01 0.62
-21 3 -8 1.2 0.51
22 -4 -8 -0.02 0.43
22 -4 -8 1 0.4
-22 -4 8 0.57 0.56
-22 4 8 1.03 0.61
22 4 -8 0.43 0.36
20 -4 -8 0.05 0.38
-20 -4 8 -0.32 0.45
20 -4 -8 -0.13 0.28
20 4 -8 0.13 0.34
20 4 -8 -0.32 0.29
-20 4 8 -0.03 0.45
18 -4 -8 0.13 0.4
-18 -4 8 -0.1 0.35
18 -4 -8 0.38 0.31
-18 -4 8 -0.12 0.46
18 4 -8 0.08 0.27
18 4 -8 0.37 0.34
-18 4 8 -0.05 0.42
-16 -4 8 0.32 0.38
16 -4 -8 0.69 0.43
-16 -4 8 0.67 0.37
16 -4 -8 0.45 0.31
16 4 -8 0.75 0.38
-16 4 8 0.61 0.46
16 4 -8 1.3 0.37
14 -4 -8 0.5 0.39
-14 -4 8 1.02 0.4
-14 -4 8 1.84 0.51
14 -4 -8 1.38 0.33
14 4 -8 1.73 0.38
-14 4 8 1.16 0.48
14 4 -8 0.95 0.36
12 -4 -8 3.71 0.61
-12 -4 8 3.81 0.58
12 -4 -8 4.57 0.5
-12 -4 8 4.58 0.67
12 4 -8 4.14 0.58
-12 4 8 4.1 0.68
12 4 -8 3.79 0.53
10 -4 -8 6.58 0.54
-10 -4 8 6.9 0.74
10 -4 -8 6.65 0.71
-10 -4 8 7.59 0.81
10 4 -8 7.34 0.72
10 4 -8 8.15 0.65
-10 4 8 6.25 0.76
-10 4 8 7.43 1.04
8 -4 -8 3.1 0.4
-8 -4 8 3.99 0.61
-8 -4 8 2.25 0.47
8 -4 -8 2.69 0.48
8 4 -8 2.55 0.5
-8 4 8 2.84 0.53
8 4 -8 2.92 0.49
-8 4 8 2.39 0.51
6 -4 -8 0.08 0.18
-6 -4 8 0.08 0.27
6 -4 -8 0.23 0.25
-6 -4 8 -0.24 0.24
6 -4 -8 0.27 0.26
6 4 -8 0.17 0.27
-6 4 8 0.2 0.29
-6 4 8 0.16 0.29
6 4 -8 -0.14 0.24
4 -4 -8 7.56 0.63
-4 -4 8 7.97 0.74
4 -4 -8 7.63 0.73
4 -4 -8 8.7 0.52
-4 -4 8 6.54 0.71
-4 4 8 7.2 0.82
-4 4 8 8.5 0.7
-4 4 8 6.42 0.93
4 4 -8 7.41 0.76
-2 -4 8 0.46 0.3
-2 -4 8 0.41 0.26
2 -4 -8 0.25 0.19
2 -4 -8 -0.17 0.22
2 -4 -8 0.16 0.28
2 -4 -8 0.31 0.25
2 4 -8 0.61 0.27
-2 4 8 0.16 0.2
-2 4 8 0.25 0.27
-2 4 8 0.14 0.34
-2 4 8 0.42 0.27
2 4 -8 0.12 0.28
0 -4 8 0.26 0.21
0 -4 -8 -0.22 0.16
0 -4 -8 -0.07 0.2
0 -4 8 -0.35 0.25
0 -4 8 0.13 0.29
0 -4 -8 -0.1 0.25
0 -4 -8 0.07 0.24
0 4 8 -0.23 0.27
0 4 8 0.04 0.33
0 4 -8 -0.09 0.25
0 4 8 0.17 0.19
0 4 8 0.09 0.25
0 4 -8 0.12 0.2
2 -4 8 0.38 0.35
-2 -4 -8 0.3 0.28
-2 -4 -8 0.31 0.22
-2 -4 -8 0.24 0.24
2 -4 8 0.24 0.29
2 4 8 0.39 0.31
-2 4 -8 -0.15 0.18
2 4 8 0.44 0.35
-2 4 -8 0.2 0.29
-4 -4 -8 1.15 0.41
4 -4 8 1.49 0.4
4 -4 8 2.01 0.52
-4 -4 -8 2.41 0.37
-4 -4 -8 1.88 0.39
4 4 8 2.31 0.54
-4 4 -8 1.77 0.45
4 4 8 1.86 0.5
-4 4 -8 2.05 0.4
6 -4 8 0.24 0.33
6 -4 8 0.04 0.26
-6 -4 -8 0.11 0.32
-6 -4 -8 0.21 0.19
-6 -4 -8 0.18 0.24
6 4 8 0.63 0.42
6 4 8 0.04 0.32
-6 4 -8 0.27 0.26
-6 4 -8 0.01 0.28
8 -4 8 5.39 0.86
-8 -4 -8 3.62 0.61
-8 -4 -8 4.51 0.56
8 -4 8 4.44 0.65
8 4 8 2.63 0.63
-8 4 -8 3.2 0.65
-8 4 -8 4.71 0.61
8 4 8 3.88 0.72
10 -4 8 0.2 0.31
10 -4 8 0 0.36
-10 -4 -8 0.07 0.31
-10 -4 -8 0.27 0.23
10 4 8 0.31 0.4
10 4 8 -0.36 0.35
-10 4 -8 -0.08 0.24
-10 4 -8 0.4 0.36
-12 -4 -8 0.66 0.3
12 -4 8 0.87 0.39
12 -4 8 1.64 0.58
-12 -4 -8 1.54 0.49
-12 4 -8 1.05 0.36
12 4 8 0.93 0.5
-12 4 -8 0.84 0.45
12 4 8 0.95 0.49
-14 -4 -8 1.06 0.45
14 -4 8 2.18 0.66
14 -4 8 1.87 0.5
-14 -4 -8 1.6 0.39
-14 4 -8 1.61 0.45
-14 4 -8 2.08 0.6
14 4 8 1.49 0.54
14 4 8 1.72 0.66
16 -4 8 1.1 0.57
16 -4 8 2.28 0.55
-16 -4 -8 2.7 0.46
-16 -4 -8 2.16 0.56
16 4 8 1.36 0.72
-16 4 -8 1.92 0.53
16 4 8 2.61 0.66
18 -4 8 -0.11 0.46
-18 -4 -8 0.6 0.47
-18 -4 -8 0.21 0.28
18 -4 8 0.44 0.4
18 4 8 0.5 0.51
18 4 8 -0.58 0.46
-18 4 -8 0.32 0.37
20 -4 8 0.22 0.44
-20 -4 -8 0.23 0.44
20 -4 8 0.4 0.6
-20 -4 -8 0.26 0.43
20 4 8 0.78 0.66
-20 4 -8 0.05 0.38
-21 -5 8 2.89 0.74
21 -5 -8 1.68 0.57
21 -5 -8 1.94 0.45
21 5 -8 1.68 0.46
-21 5 8 2.93 0.74
21 5 -8 1.56 0.47
-19 -5 8 1.06 0.53
-19 -5 8 1.88 0.56
19 -5 -8 1.18 0.37
19 -5 -8 1.33 0.5
19 5 -8 1.41 0.46
-19 5 8 0.95 0.53
19 5 -8 0.13 0.3
17 -5 -8 12.55 1.01
-17 -5 8 11.68 0.94
-17 -5 8 11.95 1.18
17 -5 -8 12.09 0.76
17 5 -8 11.51 0.77
17 5 -8 11.92 0.9
-17 5 8 10.58 1.11
-15 -5 8 19.43 1.16
15 -5 -8 20.42 0.94
-15 -5 8 17.06 1.21
15 -5 -8 19.74 1.19
15 5 -8 21.37 1.02
-15 5 8 18.73 1.24
15 5 -8 20.8 1.12
-13 -5 8 7.23 0.83
13 -5 -8 6.08 0.75
-13 -5 8 6.61 0.83
13 -5 -8 7.23 0.63
-13 5 8 6.44 0.83
13 5 -8 7.18 0.68
13 5 -8 7.28 0.77
-11 -5 8 1.85 0.49
11 -5 -8 1.72 0.44
11 -5 -8 1.8 0.34
-11 -5 8 2.22 0.52
-11 5 8 2.48 0.56
11 5 -8 3.17 0.53
11 5 -8 1.85 0.41
-9 -5 8 2.21 0.47
9 -5 -8 1.98 0.33
9 -5 -8 1.69 0.43
-9 -5 8 1.89 0.47
-9 5 8 2.4 0.5
9 5 -8 1.57 0.37
9 5 -8 2.04 0.47
-9 5 8 1.76 0.47
7 -5 -8 8.2 0.8
-7 -5 8 8.11 0.81
-7 -5 8 9.55 0.9
7 -5 -8 8.05 0.55
7 -5 -8 9.8 0.74
7 5 -8 10.5 0.78
7 5 -8 9.6 0.75
-7 5 8 10.05 0.95
-7 5 8 9.61 0.78
-5 -5 8 42.16 1.57
5 -5 -8 39.58 1.5
-5 -5 8 39.51 1.63
5 -5 -8 40.15 1.56
5 -5 -8 39.9 1.27
-5 5 8 42.01 1.6
5 5 -8 37.76 1.57
-5 5 8 40.15 1.7
3 -5 -8 22.03 1.11
3 -5 -8 22.42 1.06
-3 -5 8 23.5 1.22
3 -5 -8 23.42 0.87
-3 -5 8 24.31 1.1
-3 5 8 23.82 1.14
3 5 -8 25.36 1.23
-3 5 8 22.95 1.27
1 -5 -8 4.96 0.69
1 -5 -8 4.1 0.52
-1 -5 8 3.27 0.56
1 -5 -8 4.12 0.57
-1 -5 8 4.79 0.55
-1 5 8 3.3 0.55
-1 5 8 3.05 0.59
1 5 -8 4.6 0.56
1 5 -8 3.85 0.6
1 -5 8 3.24 0.56
-1 -5 -8 3.7 0.48
-1 -5 -8 3.13 0.51
1 -5 8 3.58 0.68
-1 5 -8 2.77 0.55
1 5 8 2.89 0.56
-1 5 -8 3.1 0.44
1 5 8 3.89 0.69
-3 -5 -8 2.12 0.51
-3 -5 -8 2.66 0.46
3 -5 8 2.73 0.6
3 -5 8 3.57 0.59
-3 -5 -8 3.41 0.46
-3 5 -8 3.06 0.59
3 5 8 3.91 0.65
-3 5 -8 3.2 0.46
3 5 8 3.15 0.65
-5 -5 -8 42.36 1.79
5 -5 8 44.01 1.75
5 -5 8 43.74 1.96
-5 -5 -8 43.72 1.6
-5 -5 -8 44.17 1.44
-5 5 -8 44.59 1.58
5 5 8 42.92 1.89
-5 5 -8 41.61 1.84
5 5 8 42.61 1.9
7 -5 8 38.45 1.63
-7 -5 -8 38.25 1.53
-7 -5 -8 34.83 1.64
-7 -5 -8 41.7 1.51
7 -5 8 38.84 1.86
7 5 8 35.91 1.79
7 5 8 37.11 1.79
-7 5 -8 35.95 1.72
-7 5 -8 34.45 1.43
9 -5 8 17.97 1.11
9 -5 8 15.93 1.25
-9 -5 -8 16.16 1.13
-9 -5 -8 16.79 0.93
-9 5 -8 18.36 1.01
-9 5 -8 18.92 1.22
9 5 8 17.79 1.27
9 5 8 19.05 1.32
-11 -5 -8 13.6 1.05
-11 -5 -8 14.24 0.85
11 -5 8 13.01 1.34
11 -5 8 12.85 0.97
11 5 8 10.39 1.16
-11 5 -8 14.64 0.93
-11 5 -8 13.87 1.12
11 5 8 11.8 1.3
13 -5 8 0.31 0.34
-13 -5 -8 0.02 0.26
-13 -5 -8 -0.16 0.33
13 -5 8 0.22 0.44
13 5 8 -0.31 0.38
-13 5 -8 0.54 0.42
13 5 8 0.06 0.45
-13 5 -8 0.14 0.32
-15 -5 -8 7.55 0.74
-15 -5 -8 5.29 0.82
15 -5 8 6.28 1.01
15 -5 8 6.33 0.85
15 5 8 5.49 1
-15 5 -8 6.24 0.94
15 5 8 4.72 0.85
-15 5 -8 6.96 0.81
17 -5 8 22.5 1.66
-17 -5 -8 21.7 1.11
17 -5 8 21.53 1.33
-17 -5 -8 23.02 1.44
-17 5 -8 21.03 1.48
-17 5 -8 18.92 1.2
17 5 8 22.59 1.73
17 5 8 20.27 1.49
-19 -5 -8 12.42 1.28
19 -5 8 13.15 1.47
19 -5 8 11.83 1.19
-19 -5 -8 13.15 0.88
19 5 8 13.8 1.59
-19 5 -8 12.13 1.11
19 5 8 13.87 1.42
-19 5 -8 15.61 1.51
-20 -6 8 0.97 0.55
20 -6 -8 0.37 0.34
20 -6 -8 0.65 0.48
-20 -6 8 0.36 0.45
20 6 -8 0.06 0.39
20 6 -8 0.66 0.37
-20 6 8 0.55 0.54
18 -6 -8 5.04 0.59
18 -6 -8 4.7 0.75
-18 -6 8 5.32 0.85
-18 -6 8 5.85 0.74
18 6 -8 4.49 0.59
18 6 -8 2.84 0.57
-18 6 8 6.22 0.89
16 -6 -8 -0.03 0.26
-16 -6 8 -0.24 0.37
-16 -6 8 -0.15 0.37
16 -6 -8 -0.11 0.37
16 6 -8 -0.06 0.26
-16 6 8 0 0.42
16 6 -8 -0.06 0.32
14 -6 -8 0.56 0.27
14 -6 -8 0.56 0.42
-14 -6 8 0.75 0.43
-14 -6 8 1.7 0.54
-14 6 8 0.69 0.46
14 6 -8 0.85 0.41
14 6 -8 0.71 0.34
-12 -6 8 -0.32 0.3
12 -6 -8 -0.52 0.27
12 -6 -8 -0.06 0.21
-12 -6 8 0.03 0.34
12 6 -8 0.13 0.29
12 6 -8 -0.35 0.23
-12 6 8 -0.19 0.31
-10 -6 8 0.72 0.42
-10 -6 8 0.45 0.35
10 -6 -8 0.93 0.38
10 -6 -8 0.32 0.23
10 6 -8 0.83 0.37
-10 6 8 0.25 0.38
-10 6 8 0.46 0.36
10 6 -8 0.67 0.33
8 -6 -8 -0.07 0.27
8 -6 -8 0.13 0.2
-8 -6 8 0.16 0.33
-8 -6 8 0.38 0.33
8 -6 -8 0.37 0.32
8 6 -8 0.17 0.27
-8 6 8 -0.59 0.33
8 6 -8 0.25 0.3
-8 6 8 0.33 0.32
6 -6 -8 0.77 0.37
6 -6 -8 1.07 0.38
-6 -6 8 -0.05 0.29
6 -6 -8 0.53 0.21
-6 -6 8 0.95 0.38
-6 6 8 0.75 0.42
-6 6 8 1.37 0.43
6 6 -8 0.83 0.36
-4 -6 8 0.38 0.33
-4 -6 8 0.45 0.29
4 -6 -8 0.14 0.31
4 -6 -8 0.41 0.31
-4 6 8 0.27 0.42
-4 6 8 0.49 0.31
4 6 -8 0.68 0.33
2 -6 -8 7.18 0.69
-2 -6 8 7.47 0.71
2 -6 -8 6.33 0.72
-2 -6 8 7.49 0.81
2 6 -8 6.58 0.77
-2 6 8 6.49 0.83
0 -6 -8 -0.01 0.22
0 -6 8 0.09 0.29
0 -6 -8 -0.32 0.24
0 6 8 -0.1 0.33
0 6 -8 0.1 0.29
0 6 -8 -0.04 0.23
2 -6 8 1.85 0.46
-2 -6 -8 2.05 0.39
2 -6 8 1.7 0.52
-2 -6 -8 1.99 0.43
2 6 8 1.93 0.51
-2 6 -8 1.17 0.44
2 6 8 1.82 0.57
-2 6 -8 1.45 0.34
4 -6 8 2.8 0.64
-4 -6 -8 3.38 0.45
-4 -6 -8 3.87 0.56
4 -6 8 4.28 0.64
4 6 8 3.15 0.65
-4 6 -8 2.91 0.45
4 6 8 4.26 0.72
-4 6 -8 3.61 0.64
6 -6 8 0.11 0.29
-6 -6 -8 0.3 0.29
-6 -6 -8 0.02 0.21
6 -6 8 0.05 0.38
-6 -6 -8 1.03 0.44
-6 6 -8 -0.01 0.23
6 6 8 -0.52 0.31
-6 6 -8 -0.09 0.29
6 6 8 -0.32 0.34
-8 -6 -8 0.84 0.43
8 -6 8 2.47 0.57
8 -6 8 1.61 0.54
-8 -6 -8 2.71 0.48
-8 6 -8 1.65 0.53
8 6 8 1.32 0.55
8 6 8 1.98 0.59
-8 6 -8 0.89 0.33
-10 -6 -8 0.8 0.47
10 -6 8 1.67 0.61
-10 -6 -8 0.85 0.36
10 -6 8 1.12 0.44
10 6 8 0.76 0.48
10 6 8 1.42 0.57
-10 6 -8 1.81 0.55
-10 6 -8 1.81 0.42
-12 -6 -8 -0.06 0.33
12 -6 8 0.17 0.45
12 -6 8 -0.23 0.3
-12 -6 -8 0.31 0.29
-12 6 -8 0.17 0.35
-12 6 -8 0.54 0.34
12 6 8 0.28 0.47
12 6 8 0.08 0.42
-14 -6 -8 0.16 0.29
-14 -6 -8 0.22 0.43
14 -6 8 0.35 0.49
14 -6 8 0.16 0.36
-14 6 -8 0.3 0.44
14 6 8 -0.14 0.41
-14 6 -8 -0.24 0.31
14 6 8 -0.01 0.47
-16 -6 -8 0.41 0.46
16 -6 8 1.23 0.68
-16 -6 -8 1.39 0.42
16 -6 8 1.12 0.49
16 6 8 0.49 0.56
-16 6 -8 0.69 0.4
-16 6 -8 1.04 0.52
16 6 8 0.95 0.63
18 -6 8 1.43 0.55
-18 -6 -8 1.95 0.49
18 -6 8 1.3 0.65
-18 -6 -8 0.43 0.48
-18 6 -8 0.45 0.48
18 6 8 1.77 0.64
18 6 8 1.16 0.7
-18 6 -8 0.74 0.45
20 -6 8 0.57 0.65
20 6 8 0.41 0.59
20 6 8 0.21 0.67
-20 6 -8 0.37 0.51
19 -7 -8 5.45 0.81
-19 -7 8 4.73 0.86
-19 -7 8 4.96 0.74
19 -7 -8 4.56 0.59
19 7 -8 6.02 0.7
-19 7 8 5.36 0.87
19 7 -8 4.58 0.72
17 -7 -8 3.63 0.68
17 -7 -8 4.26 0.55
-17 -7 8 2.45 0.61
-17 -7 8 3.01 0.71
17 7 -8 3.46 0.62
-17 7 8 2.4 0.61
17 7 -8 2.5 0.49
-15 -7 8 15.36 1.2
-15 -7 8 15.5 1.12
15 -7 -8 16.41 0.84
15 -7 -8 15.4 1.08
15 7 -8 15.76 0.93
15 7 -8 15.46 1.05
-15 7 8 16.28 1.16
-13 -7 8 16.99 1.2
13 -7 -8 20.41 1.19
13 -7 -8 16.96 0.85
-13 -7 8 15.84 1.12
-13 7 8 17.49 1.19
13 7 -8 16.84 0.95
13 7 -8 17.04 1.08
-11 -7 8 0.94 0.44
11 -7 -8 1.64 0.52
11 -7 -8 1.92 0.51
11 -7 -8 1.31 0.31
-11 -7 8 0.23 0.39
11 7 -8 1.56 0.42
-11 7 8 0.48 0.43
-11 7 8 2.09 0.54
11 7 -8 0.99 0.42
9 -7 -8 0.13 0.2
9 -7 -8 -0.15 0.3
-9 -7 8 0.19 0.37
9 -7 -8 0.37 0.36
-9 -7 8 0.1 0.35
-9 7 8 0.23 0.4
-9 7 8 0.02 0.35
9 7 -8 0.3 0.28
9 7 -8 -0.13 0.28
7 -7 -8 13.51 0.89
-7 -7 8 14.76 0.99
-7 -7 8 14.5 1.02
7 -7 -8 13.51 0.97
7 7 -8 13.83 0.91
-7 7 8 15.19 1.16
-7 7 8 13.43 0.95
-5 -7 8 8.61 0.82
-5 -7 8 7.54 0.87
5 -7 -8 8.8 0.74
5 -7 -8 7.64 0.81
-5 7 8 8.68 1
5 7 -8 7.56 0.8
-3 -7 8 1.69 0.4
-3 -7 8 2.03 0.52
3 -7 -8 2.34 0.51
3 -7 -8 1.61 0.39
3 7 -8 1.52 0.44
-3 7 8 1.82 0.55
1 -7 -8 6.14 0.65
-1 -7 8 5.96 0.79
1 -7 -8 6.16 0.72
-1 7 8 5.52 0.82
1 7 -8 5.13 0.7
-1 -7 -8 0.12 0.26
-1 -7 -8 0.18 0.32
1 -7 8 0.39 0.35
-1 7 -8 0.14 0.32
-1 7 -8 0.24 0.28
1 7 8 0.78 0.41
3 -7 8 1.72 0.56
-3 -7 -8 0.97 0.37
3 -7 8 2.12 0.52
-3 -7 -8 1.36 0.33
3 7 8 1.54 0.53
-3 7 -8 1.98 0.53
3 7 8 1.86 0.84
-3 7 -8 2.13 0.39
5 -7 8 6.86 0.84
-5 -7 -8 6.53 0.62
-5 -7 -8 8.6 0.84
5 -7 8 7.11 0.94
5 7 8 6.41 0.9
-5 7 -8 6.63 0.64
-5 7 -8 7.1 0.86
5 7 8 7.03 0.91
7 -7 8 16.68 1.15
7 -7 8 19.36 1.36
-7 -7 -8 17.94 1.23
-7 -7 -8 19.65 0.93
-7 -7 -8 18.23 1.06
-7 7 -8 18.74 0.98
7 7 8 20.43 1.37
-7 7 -8 18.29 1.24
7 7 8 18.06 1.33
-9 -7 -8 10.1 0.89
9 -7 8 8.32 1.05
-9 -7 -8 9.96 1.09
9 -7 8 8.38 0.93
9 7 8 10.13 1.19
-9 7 -8 10.11 1.09
-9 7 -8 9.84 0.77
9 7 8 9.52 1.15
11 -7 8 1.72 0.53
11 -7 8 2.79 0.69
-11 -7 -8 0.86 0.48
-11 -7 -8 1.44 0.42
11 7 8 1.21 0.55
-11 7 -8 1.76 0.43
-11 7 -8 0.89 0.46
11 7 8 1.77 0.66
-13 -7 -8 1.18 0.47
13 -7 8 1.38 0.62
13 -7 8 1.93 0.55
-13 -7 -8 0.71 0.37
-13 7 -8 1.12 0.41
-13 7 -8 0.9 0.49
13 7 8 1.66 0.64
13 7 8 0.84 0.58
-15 -7 -8 2.59 0.68
15 -7 8 2.83 0.68
15 -7 8 4.54 0.89
-15 -7 -8 5.33 0.67
15 7 8 3.34 0.8
15 7 8 4.12 0.94
-15 7 -8 4.27 0.8
-15 7 -8 3.92 0.63
17 -7 8 5.17 0.83
17 -7 8 5.31 1.02
-17 -7 -8 4.58 0.86
-17 -7 -8 5.36 0.69
-17 7 -8 3.81 0.64
-17 7 -8 5.13 0.91
17 7 8 5.25 1.1
17 7 8 2.51 0.78
-18 -8 8 0.35 0.51
18 -8 -8 0.24 0.33
-18 -8 8 -0.01 0.41
18 -8 -8 0.06 0.45
18 8 -8 0.46 0.4
-18 8 8 -0.06 0.47
18 8 -8 0.41 0.39
-16 -8 8 -0.23 0.44
16 -8 -8 -0.24 0.26
16 -8 -8 -0.17 0.39
-16 -8 8 0.91 0.49
-16 8 8 0.22 0.48
16 8 -8 0.14 0.38
16 8 -8 0.08 0.31
14 -8 -8 2.96 0.46
-14 -8 8 3.29 0.71
14 -8 -8 2.43 0.59
-14 -8 8 2.65 0.6
14 8 -8 2.21 0.54
-14 8 8 2.76 0.67
14 8 -8 3.38 0.56
12 -8 -8 18.24 1.16
12 -8 -8 16.78 1.17
12 -8 -8 19.17 1.1
-12 -8 8 17.52 1.23
-12 -8 8 18.22 1.2
12 8 -8 20.13 1.18
-12 8 8 16.96 1.19
-12 8 8 20.99 1.34
12 8 -8 18.36 1.02
10 -8 -8 26.01 1.39
-10 -8 8 22.96 1.32
-10 -8 8 24.77 1.36
10 -8 -8 25.07 1.28
-10 8 8 26.49 1.49
-10 8 8 26.39 1.38
10 8 -8 24.59 1.28
10 8 -8 23.92 1.2
-8 -8 8 22.61 1.24
8 -8 -8 21.71 1.17
8 -8 -8 18.35 1.17
-8 -8 8 18.63 1.2
-8 8 8 19.79 1.35
8 8 -8 21.54 1.12
-6 -8 8 1.2 0.42
6 -8 -8 1.05 0.39
-6 -8 8 0.82 0.45
6 -8 -8 1.11 0.46
6 8 -8 1.83 0.45
-6 8 8 0.44 0.46
4 -8 -8 0.85 0.38
4 -8 -8 0.97 0.43
-4 -8 8 0.64 0.4
-4 -8 8 0.47 0.33
4 8 -8 0.82 0.38
-4 8 8 0.19 0.46
2 -8 -8 3.25 0.6
2 -8 -8 3.34 0.55
-2 -8 8 2.78 0.59
-2 8 8 2.98 0.67
2 8 -8 2.65 0.54
0 -8 -8 10.43 0.96
0 -8 8 11.01 1.07
0 -8 -8 10.28 0.77
0 8 8 11.28 1.17
0 8 -8 8.35 0.88
-2 -8 -8 14.17 0.99
-2 -8 -8 16.73 0.9
2 -8 8 16.01 1.1
-2 8 -8 15.51 1.2
-2 8 -8 13.03 1
2 8 8 12.72 1.26
-4 -8 -8 5.51 0.61
4 -8 8 4.63 0.7
-4 -8 -8 5.66 0.73
4 8 8 4.81 0.81
-4 8 -8 4.75 0.55
-4 8 -8 4.7 0.76
-6 -8 -8 0.57 0.3
6 -8 8 0.14 0.35
-6 -8 -8 -0.06 0.31
6 -8 8 -0.18 0.37
6 8 8 0.5 0.45
-6 8 -8 0.16 0.36
6 8 8 0.25 0.45
-6 8 -8 0.26 0.27
-8 -8 -8 8.51 1.05
8 -8 8 9.74 1.01
-8 -8 -8 8.79 0.88
-8 -8 -8 8.55 0.68
8 -8 8 7.58 1.05
-8 8 -8 9.93 0.76
-8 8 -8 10.82 1.14
8 8 8 9.15 1.11
8 8 8 9.29 1.17
-10 -8 -8 21.18 1.16
10 -8 8 18.66 1.42
-10 -8 -8 20.82 1.36
10 -8 8 20.05 1.31
10 8 8 20.93 1.49
-10 8 -8 19.21 1.06
-10 8 -8 20.08 1.36
10 8 8 19.71 1.49
12 -8 8 14.28 1.16
-12 -8 -8 14.15 0.99
12 -8 8 12.96 1.35
-12 -8 -8 13.68 1.3
-12 8 -8 15.09 0.97
12 8 8 14.8 1.49
12 8 8 14.25 1.5
-12 8 -8 16.54 1.27
14 -8 8 9.75 1.09
-14 -8 -8 10.82 0.95
-14 -8 -8 8.21 1.05
14 -8 8 9.6 1.23
14 8 8 10.82 1.42
-14 8 -8 9.53 1.14
-14 8 -8 10.3 0.94
14 8 8 6.83 1.08
16 -8 8 4.97 0.86
-16 -8 -8 4.3 0.83
16 -8 8 4.07 0.87
-16 -8 -8 4.67 0.7
16 8 8 4.52 1.06
-16 8 -8 5.32 0.92
16 8 8 2.84 0.83
-16 8 -8 4.83 0.71
-17 -9 8 6.35 0.95
-17 -9 8 6.86 0.88
17 -9 -8 6.61 0.66
17 -9 -8 6.92 1.03
17 9 -8 5.56 0.71
17 9 -8 6.52 0.82
-17 9 8 6.29 1.02
15 -9 -8 5.65 0.87
-15 -9 8 6.63 0.88
15 -9 -8 7.99 0.95
-15 -9 8 7.96 1.01
15 9 -8 8.67 0.94
15 9 -8 6.32 0.72
-15 9 8 8.57 1.04
-13 -9 8 1.8 0.6
-13 -9 8 3.17 0.71
13 -9 -8 2.43 0.63
13 -9 -8 2.55 0.59
13 9 -8 1.62 0.47
13 9 -8 1.69 0.53
-13 9 8 2.26 0.64
-11 -9 8 -0.03 0.37
11 -9 -8 -0.12 0.4
11 -9 -8 0.25 0.39
-11 -9 8 0.07 0.42
11 9 -8 0.07 0.36
-11 9 8 0.59 0.52
11 9 -8 -0.11 0.27
9 -9 -8 0.32 0.45
-9 -9 8 -0.15 0.39
9 -9 -8 0.96 0.44
-9 -9 8 0.9 0.45
-9 9 8 0.37 0.46
9 9 -8 0.3 0.32
7 -9 -8 4.11 0.72
7 -9 -8 3.34 0.57
-7 -9 8 2.71 0.6
-7 -9 8 4.11 0.66
-7 9 8 3.34 0.75
7 9 -8 4.73 0.66
-5 -9 8 15.82 1.03
5 -9 -8 13.84 0.94
-5 -9 8 13.23 1.17
5 -9 -8 12.57 1.14
-5 9 8 13.13 1.3
5 9 -8 12.29 0.92
3 -9 -8 4.94 0.64
3 -9 -8 5.46 0.78
-3 -9 8 6.07 0.87
-3 9 8 5.19 0.85
3 9 -8 5.91 0.72
1 -9 -8 -0.08 0.29
-1 -9 8 0.08 0.37
1 -9 -8 -0.21 0.35
-1 9 8 0.35 0.46
1 9 -8 0.13 0.33
-1 -9 -8 0.89 0.42
-1 -9 -8 0.69 0.34
1 -9 8 0.26 0.38
1 9 8 0.56 0.48
-1 9 -8 -0.04 0.32
-3 -9 -8 3.23 0.52
-3 -9 -8 5.29 0.73
3 -9 8 3.37 0.7
-3 9 -8 3.11 0.61
3 9 8 3.46 0.74
-5 -9 -8 6.29 0.65
-5 -9 -8 5.81 0.77
5 -9 8 6.23 0.87
-5 9 -8 7.2 0.89
5 9 8 5.5 0.93
-5 9 -8 7.91 0.69
-7 -9 -8 4.43 0.69
7 -9 8 4.97 0.82
-7 -9 -8 4.29 0.58
-7 9 -8 5.44 0.83
-7 9 -8 5.8 0.64
7 9 8 2.61 0.74
9 -9 8 1.37 0.54
9 -9 8 1.11 0.58
-9 -9 -8 0.98 0.55
-9 -9 -8 1.38 0.46
-9 -9 -8 0.86 0.37
-9 9 -8 1.17 0.37
9 9 8 1.79 0.66
-9 9 -8 0.43 0.44
9 9 8 0.72 0.55
11 -9 8 1.05 0.51
11 -9 8 1.62 0.65
-11 -9 -8 1.88 0.49
-11 -9 -8 1.32 0.56
-11 9 -8 1.49 0.43
-11 9 -8 1.28 0.56
11 9 8 2.08 0.67
11 9 8 1.88 0.73
13 -9 8 0.46 0.52
-13 -9 -8 -0.1 0.35
13 -9 8 0.12 0.44
-13 -9 -8 -0.15 0.45
13 9 8 -0.66 0.52
-13 9 -8 0.08 0.34
-13 9 -8 -0.36 0.42
13 9 8 -0.38 0.5
15 -9 8 3.98 0.91
-15 -9 -8 3.97 0.66
-15 -9 -8 3.29 0.8
15 -9 8 4.2 0.81
15 9 8 3.59 0.96
-15 9 -8 5.27 0.92
-15 9 -8 3.89 0.65
15 9 8 3.9 1.02
-14 -10 8 2.73 0.67
-14 -10 8 5.27 0.84
14 -10 -8 4.96 0.85
14 -10 -8 2.93 0.64
14 10 -8 4.32 0.75
-14 10 8 2.56 0.87
14 10 -8 4.31 0.63
12 -10 -8 10.71 1.09
-12 -10 8 12.05 1.17
-12 -10 8 10.58 1.12
12 -10 -8 9.76 1
-12 10 8 12.4 1.29
12 10 -8 10.12 0.86
12 10 -8 11.99 1.11
-10 -10 8 11.6 1.15
10 -10 -8 12.07 1.18
10 -10 -8 12.75 1.02
-10 -10 8 13.91 1.11
10 10 -8 13.54 0.92
10 10 -8 12.9 1.04
-10 10 8 11.62 1.24
8 -10 -8 16.27 1.09
8 -10 -8 18.89 1.26
-8 -10 8 18.93 1.21
-8 -10 8 15.39 1.19
8 10 -8 17.34 1.06
-8 10 8 17 1.36
-6 -10 8 7.11 0.92
6 -10 -8 8.02 0.95
-6 -10 8 7.58 0.86
6 -10 -8 7.45 0.85
6 10 -8 10.28 0.85
-6 10 8 6.34 0.97
-4 -10 8 -0.23 0.35
4 -10 -8 0.61 0.46
4 -10 -8 0.24 0.4
4 10 -8 0.17 0.31
-4 10 8 0.43 0.48
-2 -10 8 6.87 0.91
2 -10 -8 7.1 0.77
2 -10 -8 5.28 0.79
2 10 -8 6.43 0.78
-2 10 8 5.95 0.98
0 -10 -8 6.41 0.84
0 -10 -8 8.22 0.8
0 -10 8 6.39 0.86
0 10 8 7.18 1.04
0 10 -8 8.6 0.95
-2 -10 -8 16.47 1
-2 -10 -8 17.33 1.17
2 -10 8 20.27 1.31
2 10 8 18.08 1.42
-2 10 -8 16.55 1.15
-4 -10 -8 13.56 0.9
4 -10 8 11.98 1.18
-4 -10 -8 13.22 1.03
4 10 8 11.18 1.27
-4 10 -8 12.19 1.02
-6 -10 -8 -0.23 0.37
6 -10 8 0.38 0.48
-6 -10 -8 0.18 0.34
-6 10 -8 0.16 0.4
-6 10 -8 0.03 0.28
6 10 8 0.36 0.5
-8 -10 -8 4.85 0.63
8 -10 8 2.57 0.65
-8 -10 -8 3.43 0.63
-8 10 -8 4.8 0.62
-8 10 -8 3.48 0.74
8 10 8 3.66 0.84
10 -10 8 6.97 0.97
-10 -10 -8 4.71 0.88
-10 -10 -8 6.84 0.84
-10 10 -8 5.07 0.65
-10 10 -8 6.64 0.96
10 10 8 4.33 0.91
-12 -10 -8 19.73 1.44
12 -10 8 19.55 1.58
-12 -10 -8 20.76 1.25
12 -10 8 17.48 1.35
-12 10 -8 18.72 1.09
12 10 8 18.35 1.83
-12 10 -8 19.01 1.42
12 10 8 15.69 1.6
-11 -11 8 0.06 0.44
-11 -11 8 -0.12 0.43
11 -11 -8 -0.29 0.44
11 -11 -8 -0.7 0.41
-11 11 8 0.17 0.57
11 11 -8 -0.36 0.39
11 11 -8 -0.11 0.33
-9 -11 8 0.13 0.48
9 -11 -8 0.52 0.52
9 -11 -8 0.3 0.46
-9 -11 8 0.22 0.44
9 11 -8 -0.34 0.31
-9 11 8 0.8 0.59
7 -11 -8 -0.15 0.44
-7 -11 8 -0.16 0.39
-7 -11 8 0.37 0.41
7 -11 -8 0.2 0.41
7 11 -8 0.04 0.36
-7 11 8 0.64 0.57
5 -11 -8 -0.29 0.35
5 -11 -8 -0.25 0.42
-5 -11 8 -0.33 0.41
-5 11 8 -0.38 0.46
5 11 -8 0.14 0.33
3 -11 -8 -0.51 0.42
3 -11 -8 0.12 0.38
-3 -11 8 -0.51 0.39
-3 11 8 -0.25 0.5
3 11 -8 0.01 0.32
-1 -11 8 1.42 0.54
1 -11 -8 0.74 0.5
1 -11 -8 1 0.44
-1 11 8 0.21 0.59
1 11 -8 0.83 0.41
-1 -11 -8 -0.24 0.33
1 -11 8 0.6 0.46
-1 -11 -8 0.45 0.44
-1 11 -8 0.24 0.37
1 11 8 0.44 0.51
-3 -11 -8 -0.34 0.4
3 -11 8 0.63 0.49
-3 -11 -8 -0.13 0.34
3 11 8 0.41 0.57
-3 11 -8 0.8 0.46
-5 -11 -8 -0.48 0.32
5 -11 8 -0.08 0.42
-5 -11 -8 -0.41 0.39
-5 11 -8 -0.11 0.38
5 11 8 -0.58 0.42
7 -11 8 0.16 0.47
-7 -11 -8 0.04 0.41
-7 -11 -8 0.46 0.41
-7 11 -8 0.36 0.43
7 11 8 0.79 0.59
-7 11 -8 0.4 0.33
-9 -11 -8 0.83 0.49
9 -11 8 0.14 0.48
-9 -11 -8 0.37 0.38
9 11 8 0.73 0.67
-9 11 -8 0.69 0.36
-9 11 -8 1.01 0.52
-6 -12 8 2.55 0.66
6 -12 -8 1.37 0.51
6 -12 -8 1.26 0.6
-6 12 8 1.62 0.69
6 12 -8 2.37 0.55
4 -12 -8 0.12 0.48
4 -12 -8 0.04 0.4
-4 -12 8 0.54 0.54
-4 12 8 0.11 0.54
4 12 -8 0.54 0.42
2 -12 -8 1.95 0.63
-2 -12 8 -0.08 0.48
2 -12 -8 0.69 0.45
-2 12 8 1.23 0.64
2 12 -8 0.76 0.43
0 -12 8 6.21 0.96
0 -12 -8 6.57 0.79
0 -12 -8 6.65 0.9
0 12 -8 5.7 0.77
0 12 8 7.09 1.13
-2 -12 -8 7.02 0.83
2 -12 8 8.7 1.08
-2 -12 -8 7.44 0.95
2 12 8 7.11 1.13
-2 12 -8 8.14 0.93
-4 -12 -8 2.78 0.58
-4 -12 -8 4.38 0.82
4 -12 8 3.12 0.72
-4 12 -8 5.19 0.81
4 12 8 3.75 0.9
20 0 -9 0.07 0.34
-20 0 9 -0.6 0.45
-18 0 9 1.48 0.58
18 0 -9 1.12 0.4
-16 0 9 0.23 0.44
16 0 -9 -0.34 0.28
14 0 -9 0.32 0.3
-14 0 9 -0.27 0.35
12 0 -9 0.35 0.3
-12 0 9 -0.34 0.36
-12 0 9 -0.7 0.26
-10 0 9 -0.24 0.24
-10 0 9 -0.2 0.32
10 0 -9 -0.34 0.23
-8 0 9 -0.2 0.28
8 0 -9 0.11 0.26
8 0 -9 -0.35 0.23
-8 0 9 -0.17 0.26
6 0 -9 0.08 0.25
6 0 -9 0.03 0.29
-6 0 9 0.3 0.29
-6 0 9 0.21 0.28
4 0 -9 -0.06 0.23
-4 0 9 0.17 0.28
-4 0 9 0.08 0.25
-4 0 9 -0.31 0.3
4 0 -9 0.35 0.27
4 0 -9 0.18 0.24
4 0 -9 -0.16 0.28
2 0 -9 0.25 0.27
2 0 -9 -0.06 0.22
-2 0 9 0.27 0.37
2 0 -9 0.26 0.27
2 0 -9 -0.16 0.22
-2 0 9 -0.04 0.25
-2 0 9 0 0.31
2 0 -9 -0.06 0.28
-2 0 9 -0.19 0.24
0 0 9 -0.17 0.25
0 0 9 0.03 0.24
0 0 -9 0.16 0.21
0 0 9 0.07 0.33
0 0 -9 0.04 0.32
0 0 -9 -0.2 0.22
0 0 9 0.3 0.34
0 0 -9 0.12 0.28
2 0 9 -0.12 0.3
-2 0 -9 -0.11 0.3
2 0 9 0.02 0.27
-2 0 -9 -0.13 0.24
2 0 9 -0.5 0.28
4 0 9 0.03 0.32
-4 0 -9 -0.1 0.29
4 0 9 -0.2 0.22
-4 0 -9 0.15 0.28
6 0 9 -0.08 0.35
6 0 9 -0.02 0.24
-6 0 -9 -0.04 0.29
-6 0 -9 -0.18 0.29
8 0 9 0 0.41
8 0 9 -0.03 0.27
-8 0 -9 -0.01 0.29
10 0 9 0.06 0.42
-10 0 -9 -0.05 0.33
-12 0 -9 -0.29 0.3
12 0 9 0.23 0.45
14 0 9 0.11 0.51
-14 0 -9 0.3 0.4
-16 0 -9 0.22 0.39
16 0 9 -0.26 0.49
-18 0 -9 -0.05 0.39
18 0 9 -0.1 0.52
-21 -1 9 4.35 0.91
21 -1 -9 4.72 0.65
-21 1 9 4.14 0.92
21 1 -9 4.28 0.65
19 -1 -9 3.58 0.59
-19 -1 9 2.9 0.74
19 1 -9 2.82 0.54
-19 1 9 3.97 0.82
-17 -1 9 1.49 0.59
17 -1 -9 1.32 0.42
-17 1 9 1.5 0.57
17 1 -9 0.86 0.39
-15 -1 9 10.26 1.07
15 -1 -9 7.61 0.75
-15 1 9 9.2 1.04
15 1 -9 10.51 0.89
13 -1 -9 15.61 0.91
-13 -1 9 16.57 1.03
-13 -1 9 14.93 1.12
-13 1 9 15.52 1.12
13 1 -9 16.44 0.97
-11 -1 9 22.03 1.17
11 -1 -9 22.66 1.07
-11 -1 9 24.04 1.31
11 1 -9 19.63 1.07
11 1 -9 22.55 1.05
-11 1 9 22.92 1.27
9 -1 -9 19.05 1.07
-9 -1 9 20.36 1.11
-9 -1 9 20.1 1.15
9 -1 -9 19.82 0.99
-9 1 9 21.31 1.07
9 1 -9 19.7 1.04
9 1 -9 19.6 1.03
-9 1 9 20.77 1.18
7 -1 -9 7.27 0.67
-7 -1 9 7.67 0.81
7 -1 -9 7.59 0.74
-7 -1 9 8.41 0.8
7 -1 -9 7.66 0.76
7 1 -9 7.94 0.77
7 1 -9 6.83 0.68
-7 1 9 6.84 0.7
-7 1 9 6.88 0.78
-5 -1 9 2.1 0.45
-5 -1 9 1.75 0.45
5 -1 -9 2.49 0.43
5 -1 -9 1.97 0.46
5 -1 -9 1.7 0.41
5 -1 -9 2.12 0.42
5 1 -9 2.71 0.48
5 1 -9 2.67 0.5
-5 1 9 1.66 0.42
-5 1 9 2.05 0.51
-5 1 9 1.96 0.44
3 -1 -9 23.68 1.05
3 -1 -9 22.25 1.06
3 -1 -9 22.88 1.06
3 -1 -9 22.07 1.2
-3 -1 9 23.41 1.16
-3 -1 9 21.62 1.08
3 -1 -9 21.57 1.1
-3 -1 9 22.42 1.31
3 1 -9 23.03 1.09
-3 1 9 22.92 1.13
-3 1 9 23.98 1.11
-3 1 9 23.6 1.25
3 1 -9 23.34 1.24
-3 1 9 20.76 1.25
1 -1 -9 28.25 1.3
-1 -1 9 29.58 1.31
1 -1 -9 28.74 1.17
1 -1 -9 28.31 1.19
-1 -1 9 30.4 1.54
-1 -1 9 30.71 1.23
1 -1 -9 24.44 1.13
1 -1 -9 30.94 1.44
-1 1 9 28.68 1.41
-1 1 9 29.47 1.49
-1 1 9 30.52 1.28
1 1 -9 28.35 1.22
-1 1 9 26.46 1.18
1 1 -9 28.19 1.15
1 1 -9 26.98 1.23
1 1 -9 30.97 1.46
-1 -1 -9 24.96 1.23
1 -1 9 22.69 1.17
-1 -1 -9 26.54 1.1
-1 -1 -9 26.68 1.11
-1 -1 -9 24.88 1.09
1 -1 9 24.68 1.42
-1 -1 -9 25.42 1.35
1 1 9 24.18 1.32
-1 1 -9 25 1.35
1 1 9 25.44 1.14
-1 1 -9 27.34 1.24
1 1 9 24.8 1.09
1 1 9 23.94 1.4
3 -1 9 3.63 0.73
-3 -1 -9 3.23 0.55
-3 -1 -9 4.94 0.67
-3 -1 -9 3.94 0.5
-3 -1 -9 4 0.66
3 -1 9 3.39 0.55
3 1 9 3.95 0.68
3 1 9 3.65 0.52
-3 1 -9 4.1 0.68
3 1 9 3.25 0.66
-3 1 -9 3.39 0.55
-5 -1 -9 4.27 0.63
5 -1 9 4.09 0.75
5 -1 9 4.03 0.58
-5 -1 -9 2.7 0.58
-5 1 -9 3.34 0.65
-5 1 -9 4.09 0.63
5 1 9 3.48 0.73
5 1 9 3.9 0.69
5 1 9 3.77 0.52
7 -1 9 8.35 0.82
7 -1 9 10.07 1.17
-7 -1 -9 9.46 0.96
-7 1 -9 7.51 0.81
7 1 9 9.3 1.03
-7 1 -9 8.98 1.01
7 1 9 7.96 1.05
-9 -1 -9 22.48 1.28
9 -1 9 24.85 1.21
9 -1 9 23.06 1.54
-9 1 -9 23.4 1.27
-9 1 -9 20.43 1.37
9 1 9 23.45 1.53
11 -1 9 26.42 1.68
11 -1 9 29.08 1.38
-11 -1 -9 28.87 1.49
-11 1 -9 24.53 1.37
11 1 9 26.76 1.71
13 -1 9 15.55 1.56
-13 -1 -9 12.17 1.17
-13 1 -9 14.7 1.1
13 1 9 12.81 1.41
15 -1 9 2.68 0.76
-15 -1 -9 1.67 0.55
15 1 9 0.98 0.58
-15 1 -9 1.57 0.49
17 -1 9 -0.39 0.44
-17 -1 -9 -0.37 0.35
17 1 9 -0.01 0.54
-17 1 -9 -0.5 0.34
-19 -1 -9 1.19 0.5
19 -1 9 0.01 0.63
19 1 9 1.63 0.76
-19 1 -9 0.46 0.46
-20 -2 9 -0.62 0.43
20 -2 -9 0.13 0.35
20 2 -9 -0.34 0.3
-20 2 9 0.43 0.53
18 -2 -9 1.88 0.45
-18 -2 9 1.55 0.61
18 2 -9 2.57 0.56
-18 2 9 2.08 0.62
-16 -2 9 1.57 0.5
16 -2 -9 0.89 0.39
-16 -2 9 1.07 0.52
-16 2 9 0.71 0.52
16 2 -9 1.11 0.41
-14 -2 9 0.72 0.41
14 -2 -9 0.52 0.41
14 -2 -9 0.26 0.3
-14 -2 9 -0.45 0.36
-14 2 9 0.14 0.41
14 2 -9 0.42 0.47
14 2 -9 0.05 0.3
12 -2 -9 0.23 0.28
-12 -2 9 -0.29 0.31
12 -2 -9 0.47 0.37
-12 -2 9 0.52 0.39
12 2 -9 0.37 0.32
12 2 -9 0.22 0.27
-12 2 9 -0.09 0.37
-10 -2 9 0.19 0.33
-10 -2 9 0.39 0.34
10 -2 -9 0.4 0.32
10 -2 -9 0.77 0.29
10 2 -9 0.54 0.3
-10 2 9 0.66 0.37
10 2 -9 0.07 0.29
8 -2 -9 0.47 0.28
8 -2 -9 0.68 0.35
-8 -2 9 0.49 0.35
-8 -2 9 0.48 0.34
-8 2 9 0.9 0.43
8 2 -9 0.29 0.3
8 2 -9 0.49 0.33
-8 2 9 0.64 0.33
6 -2 -9 3.92 0.56
6 -2 -9 4.82 0.54
6 -2 -9 5.03 0.62
-6 -2 9 3.93 0.63
-6 -2 9 4.38 0.62
-6 2 9 4.99 0.66
6 2 -9 3.67 0.59
6 2 -9 5.62 0.68
-6 2 9 3.84 0.55
4 -2 -9 4.69 0.58
4 -2 -9 6.75 0.76
-4 -2 9 6.09 0.68
4 -2 -9 6.04 0.65
4 -2 -9 5.39 0.56
-4 -2 9 5.7 0.7
4 -2 -9 7.11 0.73
-4 2 9 5.01 0.61
-4 2 9 6.03 0.79
-4 2 9 6.86 0.72
-4 2 9 5.94 0.74
4 2 -9 5.42 0.71
4 2 -9 5.65 0.65
2 -2 -9 4.87 0.58
2 -2 -9 4.66 0.52
2 -2 -9 3.39 0.58
-2 -2 9 5.61 0.71
2 -2 -9 4.53 0.58
-2 -2 9 5.08 0.79
2 -2 -9 4.63 0.63
-2 -2 9 4.06 0.54
-2 2 9 4.5 0.56
-2 2 9 5.08 0.75
2 2 -9 5.4 0.64
-2 2 9 4.35 0.69
2 2 -9 3.65 0.65
-2 2 9 4.59 0.58
0 -2 -9 0.7 0.39
0 -2 -9 0.62 0.29
0 -2 9 1.25 0.5
0 -2 -9 0.29 0.28
0 -2 -9 0.47 0.3
0 -2 9 1.22 0.41
0 -2 -9 0.88 0.3
0 2 9 0.81 0.42
0 2 -9 0.8 0.34
0 2 9 1.55 0.51
0 2 -9 0.47 0.34
0 2 9 0.3 0.27
0 2 9 1.18 0.36
-2 -2 -9 -0.03 0.21
-2 -2 -9 -0.33 0.32
-2 -2 -9 0.1 0.25
-2 -2 -9 0.37 0.32
-2 -2 -9 0.02 0.28
2 -2 9 0.24 0.27
2 -2 9 -0.23 0.31
2 2 9 -0.01 0.33
2 2 9 -0.39 0.35
-2 2 -9 -0.06 0.3
-2 2 -9 0.35 0.28
2 2 9 -0.04 0.24
2 2 9 0.12 0.25
-4 -2 -9 1.48 0.38
4 -2 9 2.21 0.48
4 -2 9 1.64 0.53
-4 -2 -9 1.83 0.47
-4 -2 -9 1.47 0.49
-4 2 -9 1.54 0.42
-4 2 -9 1.35 0.47
4 2 9 2.1 0.59
4 2 9 1.58 0.54
-6 -2 -9 0.77 0.39
-6 -2 -9 2.19 0.41
6 -2 9 1.54 0.54
6 -2 9 2.06 0.48
-6 2 -9 0.96 0.45
6 2 9 2.32 0.6
6 2 9 1.51 0.52
-6 2 -9 2.56 0.5
8 -2 9 5.66 0.91
8 -2 9 3.91 0.6
-8 -2 -9 3.21 0.62
-8 2 -9 4.5 0.67
8 2 9 4.57 0.78
-8 2 -9 3.76 0.72
8 2 9 5.69 0.88
10 -2 9 1.87 0.63
-10 -2 -9 2.81 0.62
10 -2 9 2.72 0.55
10 2 9 1.42 0.55
-10 2 -9 1.74 0.57
10 2 9 1.5 0.65
-10 2 -9 2.68 0.54
12 -2 9 0.15 0.33
12 -2 9 -0.2 0.42
-12 -2 -9 0.14 0.37
12 2 9 0.16 0.44
12 2 9 -0.29 0.4
-12 2 -9 -0.2 0.33
-12 2 -9 -0.42 0.35
-14 -2 -9 2.58 0.61
14 -2 9 5.44 1.04
-14 2 -9 2.89 0.63
14 2 9 3.11 0.79
-16 -2 -9 3.97 0.76
16 -2 9 4.98 0.96
-16 2 -9 3.07 0.63
16 2 9 4.11 0.97
18 -2 9 2.98 0.82
-18 -2 -9 3.58 0.75
18 2 9 3.84 0.96
-18 2 -9 3.7 0.71
19 -3 -9 -0.07 0.33
19 -3 -9 -0.07 0.42
-19 -3 9 0.27 0.45
-19 3 9 -0.06 0.48
19 3 -9 -0.03 0.33
17 -3 -9 -0.41 0.36
-17 -3 9 0.07 0.43
-17 -3 9 -0.38 0.34
17 -3 -9 0.28 0.33
17 3 -9 -0.22 0.31
-17 3 9 0.27 0.45
13 -3 -9 1.22 0.37
-13 -3 9 0.75 0.43
13 -3 -9 1.16 0.44
-13 -3 9 1.42 0.5
13 3 -9 1.64 0.43
-13 3 9 1.09 0.51
13 3 -9 0.56 0.34
11 -3 -9 1.56 0.44
-11 -3 9 3.2 0.58
-11 -3 9 1.91 0.5
11 -3 -9 2.58 0.44
11 3 -9 1.81 0.46
-11 3 9 2.12 0.56
11 3 -9 2.26 0.43
-9 -3 9 6.25 0.74
9 3 -9 6.04 0.69
-9 3 9 7.24 0.78
-7 -3 9 3.72 0.61
-7 -3 9 2.8 0.56
7 -3 -9 3.18 0.55
7 -3 -9 3.65 0.45
7 -3 -9 2.68 0.5
-7 3 9 2.97 0.58
7 3 -9 2.9 0.54
7 3 -9 2.76 0.53
-5 -3 9 1.19 0.4
5 -3 -9 1.25 0.37
5 -3 -9 0.66 0.31
5 -3 -9 0.47 0.25
-5 -3 9 1.04 0.4
5 -3 -9 1.31 0.43
-5 3 9 1.69 0.46
-5 3 9 1.02 0.35
5 3 -9 1.9 0.43
5 3 -9 0.82 0.38
-5 3 9 0.75 0.44
3 -3 -9 3.02 0.51
-3 -3 9 3.36 0.57
3 -3 -9 2.85 0.54
3 -3 -9 2.35 0.51
3 -3 -9 3.17 0.48
3 -3 -9 3.36 0.45
-3 -3 9 2.66 0.48
-3 3 9 3.06 0.47
-3 3 9 2.68 0.6
-3 3 9 3.29 0.53
-3 3 9 3.21 0.57
3 3 -9 3.19 0.6
1 -3 -9 5.34 0.71
1 -3 -9 6.25 0.67
-1 -3 9 4.71 0.77
1 -3 -9 4.8 0.67
1 -3 -9 4.69 0.49
1 -3 -9 4.65 0.57
-1 -3 9 4.69 0.65
-1 3 9 4.41 0.72
-1 3 9 5.95 0.82
1 3 -9 5.05 0.73
-1 3 9 4.77 0.54
-1 3 9 5.05 0.61
-1 -3 -9 18.76 0.99
1 -3 9 15.28 1.01
-1 -3 -9 17.02 1.1
-1 -3 -9 19.05 0.91
1 -3 9 17.89 1.25
-1 -3 -9 17.16 1.07
1 3 9 16.79 1.18
-1 3 -9 16.71 1.14
-1 3 -9 17.94 0.97
1 3 9 17.26 1.18
1 3 9 17.48 0.94
-3 -3 -9 3.57 0.66
3 -3 9 3.5 0.59
-3 -3 -9 4.47 0.56
-3 -3 -9 3.66 0.6
3 -3 9 3.89 0.72
3 3 9 3.96 0.7
-3 3 -9 4.19 0.7
3 3 9 2.46 0.6
-3 3 -9 4.66 0.6
5 -3 9 0.48 0.35
-5 -3 -9 0.73 0.4
-5 -3 -9 0.94 0.32
5 -3 9 0.84 0.44
-5 3 -9 0.6 0.41
5 3 9 1.48 0.53
-5 3 -9 1.21 0.4
5 3 9 1.72 0.55
7 -3 9 0.04 0.28
7 -3 9 0.05 0.43
-7 -3 -9 -0.04 0.32
-7 -3 -9 -0.14 0.25
-7 3 -9 0.37 0.38
-7 3 -9 0.25 0.3
7 3 9 -0.07 0.41
7 3 9 0.16 0.44
-9 -3 -9 2.84 0.63
9 -3 9 3.71 0.8
-9 -3 -9 3.14 0.47
9 -3 9 2.94 0.58
9 3 9 2.2 0.62
-9 3 -9 3.12 0.69
-9 3 -9 3.94 0.63
9 3 9 2.49 0.66
11 -3 9 4.72 0.92
-11 -3 -9 3 0.62
11 -3 9 4.93 0.71
11 3 9 3.44 0.73
-11 3 -9 4.42 0.8
11 3 9 5.98 1.01
-11 3 -9 4.32 0.68
13 -3 9 0.95 0.58
13 -3 9 2.02 0.52
-13 -3 -9 2.5 0.61
13 3 9 1.31 0.54
-13 3 -9 1.11 0.46
-13 3 -9 2.52 0.66
13 3 9 2.02 0.69
15 -3 9 2.04 0.67
-15 -3 -9 2.85 0.63
15 -3 9 2.92 0.58
-15 3 -9 2.62 0.56
-15 3 -9 2.8 0.7
15 3 9 3.05 0.79
-17 -3 -9 1.21 0.54
17 -3 9 0.99 0.65
-17 3 -9 0.68 0.42
17 3 9 0.07 0.58
18 -4 -9 5.09 0.62
-18 -4 9 4.58 0.83
18 -4 -9 3.92 0.73
-18 -4 9 5.34 0.78
18 4 -9 4.54 0.68
-18 4 9 4.23 0.82
-16 -4 9 4.68 0.69
-16 -4 9 2.94 0.7
16 -4 -9 5.5 0.8
16 -4 -9 3.32 0.5
16 4 -9 3.63 0.6
-16 4 9 3.3 0.73
16 4 -9 3.5 0.54
14 -4 -9 3.24 0.62
-14 -4 9 2.82 0.61
-14 -4 9 2.82 0.69
14 -4 -9 4.61 0.56
-14 4 9 4.95 0.81
14 4 -9 2.22 0.49
14 4 -9 3.33 0.54
-12 -4 9 0.35 0.42
12 -4 -9 -0.03 0.33
-12 -4 9 0.23 0.37
12 -4 -9 -0.17 0.25
12 4 -9 0.13 0.34
-12 4 9 0.19 0.41
12 4 -9 0.22 0.29
-10 -4 9 2.28 0.55
-10 -4 9 2.24 0.53
10 -4 -9 1.83 0.47
10 -4 -9 2.26 0.38
10 4 -9 2.2 0.5
10 4 -9 2.01 0.44
-10 4 9 2.62 0.58
8 -4 -9 12.56 0.73
-8 -4 9 13.57 0.96
8 -4 -9 12.65 0.9
8 -4 -9 12.97 0.94
-8 -4 9 13.35 0.97
-8 4 9 12.2 0.95
8 4 -9 11.78 0.89
8 4 -9 11.36 0.86
6 -4 -9 62.84 1.84
-6 -4 9 59.44 2.17
6 -4 -9 57.99 2.06
6 -4 -9 61.47 2.04
-6 -4 9 60.87 2.11
6 4 -9 58.67 2.07
6 4 -9 59.77 2.12
-6 4 9 60.8 2.13
-6 4 9 58.66 2.22
4 -4 -9 32.4 1.35
-4 -4 9 31.97 1.38
4 -4 -9 33.84 1.5
4 -4 -9 30.86 1.39
4 -4 -9 33.6 1.17
-4 -4 9 30.86 1.48
4 4 -9 31.71 1.48
-4 4 9 32.12 1.58
-4 4 9 31.7 1.42
2 -4 -9 3.17 0.53
2 -4 -9 3.59 0.62
-2 -4 9 3.73 0.62
2 -4 -9 2.85 0.48
-2 4 9 4.29 0.61
2 4 -9 3.36 0.6
-2 4 9 3.65 0.65
0 -4 -9 0.76 0.4
0 -4 9 0.2 0.4
0 -4 -9 0.91 0.35
0 -4 9 0.84 0.35
0 -4 -9 0.9 0.38
0 -4 -9 0.3 0.27
0 4 9 1.23 0.47
0 4 9 0.79 0.35
0 4 9 0.74 0.48
0 4 -9 2.33 0.55
2 -4 9 15.69 1.2
-2 -4 -9 17.19 0.96
2 -4 9 15.1 1.03
-2 -4 -9 15.86 1.07
-2 -4 -9 15.96 0.84
2 4 9 16.58 1.2
-2 4 -9 13.92 0.86
-2 4 -9 14.94 1.11
2 4 9 16.52 1.18
-4 -4 -9 12.23 0.98
4 -4 9 13.61 1.16
-4 -4 -9 11.54 0.82
4 -4 9 12.3 0.96
4 4 9 13.09 1.1
-4 4 -9 13.02 0.84
4 4 9 13.41 1.25
-4 4 -9 12.64 1.19
-6 -4 -9 11.54 0.81
6 -4 9 12.35 1.25
-6 -4 -9 11.56 1.11
6 -4 9 12.11 0.95
-6 4 -9 12.02 1.17
6 4 9 11.8 1.24
-6 4 -9 12.11 0.85
6 4 9 10.69 1.18
8 -4 9 14.14 1.24
8 -4 9 13.41 1.01
-8 -4 -9 14.42 0.89
-8 -4 -9 13.45 1.08
8 4 9 14.62 1.36
-8 4 -9 13.7 1.13
8 4 9 12.79 1.33
-8 4 -9 13.29 0.93
-10 -4 -9 1.14 0.46
-10 -4 -9 0.8 0.32
10 -4 9 0.08 0.43
10 -4 9 1.07 0.44
-10 4 -9 1.14 0.4
10 4 9 0.9 0.55
10 4 9 0.23 0.46
-10 4 -9 0.93 0.51
12 -4 9 2.28 0.59
-12 -4 -9 2.24 0.6
12 -4 9 3.84 0.84
-12 -4 -9 3.03 0.5
12 4 9 2.33 0.67
12 4 9 3.42 0.79
-12 4 -9 2.55 0.66
-12 4 -9 3.1 0.58
-14 -4 -9 9.93 1.17
-14 -4 -9 9.49 1.09
14 -4 9 10.48 1.06
14 -4 9 9.72 1.24
-14 4 -9 9.91 1
-14 4 -9 8.88 1.14
14 4 9 11.01 1.4
14 4 9 8.43 1.14
-16 -4 -9 17.72 1.34
16 -4 9 18.02 1.57
16 -4 9 18.04 1.28
16 4 9 20.25 1.7
-16 4 -9 15.51 1.16
-16 4 -9 18.68 1.45
16 4 9 21.78 1.56
18 -4 9 5.83 1.13
18 -4 9 5.16 1.07
-18 -4 -9 4.99 0.88
-18 4 -9 4.95 0.77
-18 4 -9 5.54 0.98
18 4 9 5.98 1.16
19 5 -9 0.3 0.39
-17 -5 9 0.24 0.38
-17 -5 9 -0.13 0.46
17 -5 -9 -0.46 0.4
17 -5 -9 0.35 0.33
17 5 -9 0.13 0.32
17 5 -9 -0.06 0.34
-17 5 9 -0.03 0.47
-15 -5 9 0.25 0.43
-15 -5 9 0.36 0.47
15 -5 -9 0.07 0.41
15 -5 -9 0.61 0.31
15 5 -9 0.78 0.42
15 5 -9 0.49 0.34
-15 5 9 0.02 0.46
-13 -5 9 1.28 0.5
13 -5 -9 1.42 0.5
-13 -5 9 0.06 0.42
13 -5 -9 0.73 0.33
13 5 -9 1.44 0.48
-13 5 9 1.39 0.52
13 5 -9 0.61 0.35
11 -5 -9 1.27 0.35
11 -5 -9 0.99 0.43
-11 -5 9 1.32 0.47
-11 -5 9 0.65 0.46
-11 5 9 1.56 0.51
11 5 -9 1.87 0.5
11 5 -9 0.96 0.37
9 -5 -9 0.23 0.35
9 -5 -9 1.46 0.46
-9 -5 9 1.57 0.49
9 -5 -9 1.35 0.33
-9 -5 9 1.05 0.45
9 5 -9 1.72 0.43
9 5 -9 0.62 0.41
-9 5 9 1.35 0.48
7 -5 -9 0.85 0.28
-7 -5 9 0.81 0.39
7 -5 -9 0.88 0.39
-7 -5 9 1.01 0.44
7 -5 -9 1.17 0.4
-7 5 9 0.8 0.5
7 5 -9 1.31 0.44
7 5 -9 0.54 0.36
-7 5 9 0.17 0.36
-5 -5 9 0.16 0.34
5 -5 -9 0.67 0.36
-5 -5 9 0.94 0.41
5 -5 -9 1.5 0.46
-5 5 9 0.84 0.42
5 5 -9 0.27 0.34
-5 5 9 0.76 0.49
-3 -5 9 0.69 0.39
3 -5 -9 0.72 0.36
3 -5 -9 0.3 0.35
3 5 -9 1.38 0.45
-3 5 9 0.98 0.4
-3 5 9 0.52 0.46
-1 -5 9 2.83 0.56
1 -5 -9 2.96 0.47
1 -5 -9 3 0.6
1 -5 -9 2.67 0.52
1 5 -9 2.54 0.57
-1 5 9 3.36 0.69
-1 -5 -9 0.34 0.35
-1 -5 -9 1.53 0.43
-1 -5 -9 0.56 0.31
1 -5 9 0.57 0.39
1 -5 9 0.78 0.46
1 5 9 0.33 0.48
-1 5 -9 0 0.35
1 5 9 0.48 0.41
3 -5 9 2.53 0.65
3 -5 9 2.24 0.53
-3 -5 -9 3.19 0.58
-3 -5 -9 2.36 0.43
-3 -5 -9 2.56 0.64
-3 5 -9 3.17 0.65
3 5 9 2.33 0.63
3 5 9 3.58 0.73
-3 5 -9 2.14 0.43
5 -5 9 3.15 0.63
-5 -5 -9 3.36 0.67
-5 -5 -9 2.78 0.5
5 -5 9 3.27 0.69
5 5 9 2.16 0.62
-5 5 -9 2.91 0.52
-5 5 -9 3.06 0.64
5 5 9 3.09 0.7
-7 -5 -9 9.09 1.03
7 -5 9 8.6 1.1
-7 -5 -9 10.31 0.9
7 -5 9 10.69 1.03
-7 5 -9 10.71 0.83
7 5 9 8.72 1.07
-7 5 -9 10.36 1.11
7 5 9 10.78 1.2
-9 -5 -9 2.4 0.6
9 -5 9 2.52 0.67
9 -5 9 2.26 0.56
-9 -5 -9 2.76 0.48
9 5 9 3.3 0.76
-9 5 -9 2.61 0.53
9 5 9 4.24 0.84
-9 5 -9 2.61 0.65
-11 -5 -9 0.34 0.4
11 -5 9 0.52 0.41
11 -5 9 0.82 0.49
-11 -5 -9 0.29 0.32
11 5 9 0.26 0.49
-11 5 -9 0.71 0.4
-11 5 -9 0.64 0.47
11 5 9 0.64 0.6
-13 -5 -9 0.81 0.49
13 -5 9 0.3 0.53
13 -5 9 0.2 0.38
-13 -5 -9 -0.03 0.29
13 5 9 0.13 0.51
-13 5 -9 -0.14 0.33
13 5 9 0.11 0.5
-13 5 -9 0.37 0.51
15 -5 9 -0.07 0.5
-15 -5 -9 -0.13 0.39
15 -5 9 0.14 0.43
-15 -5 -9 0.48 0.35
-15 5 -9 -0.34 0.41
15 5 9 0.11 0.5
15 5 9 -0.3 0.51
-15 5 -9 0.09 0.34
17 -5 9 0.72 0.64
-17 -5 -9 0.21 0.47
17 -5 9 0.42 0.5
-17 -5 -9 0.58 0.57
17 5 9 0.9 0.6
-17 5 -9 0.19 0.43
-17 5 -9 0.66 0.52
17 5 9 0.93 0.72
16 -6 -9 12.25 0.83
16 -6 -9 12.17 1.14
-16 -6 9 12.04 1.17
-16 -6 9 11.21 1.18
16 6 -9 14.1 0.93
16 6 -9 12.77 0.98
-16 6 9 10.78 1.14
14 -6 -9 10.36 0.73
-14 -6 9 9.73 1.02
14 -6 -9 10.51 1.02
-14 -6 9 7.79 0.96
14 6 -9 11.19 0.82
14 6 -9 9.47 0.96
-14 6 9 9.09 1.03
-12 -6 9 0.74 0.46
-12 -6 9 1.11 0.49
12 -6 -9 0.66 0.3
12 -6 -9 0.42 0.41
12 6 -9 0.69 0.42
12 6 -9 0.54 0.36
-12 6 9 0.52 0.43
10 -6 -9 4.86 0.72
-10 -6 9 3.66 0.67
10 -6 -9 4.06 0.49
10 -6 -9 5.25 0.69
-10 -6 9 2.68 0.59
-10 6 9 4.29 0.71
10 6 -9 4.61 0.71
10 6 -9 4.05 0.61
8 -6 -9 29.31 1.45
-8 -6 9 30.13 1.52
-8 -6 9 29.72 1.46
8 -6 -9 28.45 1.38
-8 6 9 31.05 1.5
8 6 -9 27.55 1.33
8 6 -9 29.91 1.44
-8 6 9 30.51 1.62
6 -6 -9 24.34 1.29
6 -6 -9 23.01 1.2
-6 -6 9 23.75 1.35
-6 -6 9 22.86 1.26
-6 6 9 23.94 1.29
-6 6 9 25.8 1.48
6 6 -9 23.04 1.26
4 -6 -9 11.08 0.84
4 -6 -9 11.76 0.93
-4 -6 9 10.6 1.02
-4 6 9 12.85 1.22
4 6 -9 11.38 0.93
-4 6 9 10.95 1
2 -6 -9 9.3 0.75
-2 -6 9 10.45 1.05
2 -6 -9 9.02 0.89
-2 6 9 9.13 1.07
2 6 -9 8.01 0.9
0 -6 -9 0.29 0.29
0 -6 -9 0.09 0.34
0 -6 9 -0.23 0.32
0 6 -9 0.09 0.36
0 6 9 0.71 0.46
2 -6 9 3.77 0.76
-2 -6 -9 2.91 0.59
-2 -6 -9 3.72 0.52
-2 -6 -9 4.64 0.75
2 -6 9 2.77 0.6
2 6 9 4.1 0.76
-2 6 -9 3.11 0.65
-4 -6 -9 21.56 1.01
-4 -6 -9 19.62 1.3
4 -6 9 19.81 1.43
-4 -6 -9 22.23 1.17
4 -6 9 23.2 1.31
4 6 9 18.64 1.34
4 6 9 22.3 1.47
-4 6 -9 22.49 1.08
-4 6 -9 19.39 1.29
-6 -6 -9 5.31 0.7
-6 -6 -9 6.27 0.88
6 -6 9 5.74 0.92
6 -6 9 6.41 0.86
-6 6 -9 4.64 0.63
6 6 9 5.26 0.88
6 6 9 5.59 0.94
-6 6 -9 4.13 0.78
8 -6 9 1.44 0.58
-8 -6 -9 1.33 0.44
8 -6 9 1.11 0.46
-8 -6 -9 1.83 0.56
-8 6 -9 2.38 0.48
8 6 9 1.48 0.62
8 6 9 1.94 0.61
-8 6 -9 1.88 0.6
-10 -6 -9 0.51 0.37
-10 -6 -9 0.01 0.37
10 -6 9 0.03 0.4
10 -6 9 0.12 0.45
-10 6 -9 0.41 0.44
10 6 9 0.54 0.57
10 6 9 0.06 0.47
-10 6 -9 -0.08 0.3
-12 -6 -9 0 0.41
12 -6 9 0.86 0.47
-12 -6 -9 -0.1 0.32
12 -6 9 -0.39 0.47
-12 6 -9 0.13 0.45
-12 6 -9 0.36 0.34
12 6 9 0.45 0.53
12 6 9 0.09 0.51
14 -6 9 3.9 0.77
-14 -6 -9 3.76 0.77
14 -6 9 5.58 1.05
-14 -6 -9 3.49 0.58
14 6 9 4.99 1.01
-14 6 -9 4.17 0.67
-14 6 -9 5.51 0.93
14 6 9 3.43 0.9
-16 -6 -9 7.38 1.06
16 -6 9 9.76 1.11
16 -6 9 10.4 1.38
-16 -6 -9 10.61 0.95
16 6 9 8.18 1.3
-16 6 -9 8.8 0.95
16 6 9 8.7 1.23
-16 6 -9 10.19 1.28
-15 -7 9 -0.04 0.41
-15 -7 9 0.21 0.49
15 -7 -9 0.57 0.35
15 -7 -9 -0.05 0.43
15 7 -9 -0.5 0.31
-15 7 9 -0.46 0.45
15 7 -9 0.08 0.41
13 -7 -9 1.4 0.58
13 -7 -9 0.96 0.48
-13 -7 9 1.06 0.55
-13 -7 9 1.38 0.55
13 -7 -9 1.65 0.45
13 7 -9 1.17 0.41
-13 7 9 1.34 0.54
13 7 -9 1.42 0.48
-11 -7 9 1.31 0.52
11 -7 -9 2.47 0.57
-11 -7 9 2.32 0.62
11 -7 -9 1.8 0.57
11 7 -9 1.37 0.49
-11 7 9 2.4 0.62
11 7 -9 2.31 0.51
9 -7 -9 2.55 0.56
-9 -7 9 3.02 0.64
9 -7 -9 2.77 0.6
-9 -7 9 2.68 0.65
-9 7 9 2.2 0.6
9 7 -9 2.5 0.53
9 7 -9 2.49 0.6
-9 7 9 3.17 0.7
7 -7 -9 0.41 0.44
-7 -7 9 0.89 0.47
-7 -7 9 1.63 0.5
7 -7 -9 0.25 0.36
7 7 -9 0.66 0.36
-7 7 9 0.36 0.49
-7 7 9 0.96 0.45
5 -7 -9 -0.04 0.37
5 -7 -9 -0.36 0.3
-5 -7 9 0.36 0.42
5 7 -9 0.19 0.33
-5 7 9 0.35 0.45
3 -7 -9 -0.38 0.27
3 -7 -9 -0.07 0.35
-3 -7 9 0 0.36
-3 7 9 0.03 0.44
3 7 -9 0.03 0.33
1 -7 -9 1.25 0.48
-1 -7 9 1.77 0.53
1 -7 -9 0.62 0.35
-1 7 9 1.55 0.6
1 7 -9 1.82 0.52
-1 -7 -9 5.52 0.65
-1 -7 -9 4.99 0.69
1 -7 9 3.48 0.66
-1 7 -9 6.58 0.88
1 7 9 4.12 0.8
-3 -7 -9 4.11 0.65
-3 -7 -9 4.47 0.57
-3 -7 -9 4.58 0.8
3 -7 9 4.56 0.73
3 7 9 6.96 1
-3 7 -9 4.96 0.78
-5 -7 -9 0.55 0.32
-5 -7 -9 0.54 0.44
5 -7 9 0.63 0.52
-5 -7 -9 0.3 0.36
5 -7 9 0.15 0.37
-5 7 -9 -0.03 0.36
5 7 9 0.03 0.44
-5 7 -9 -0.03 0.26
7 -7 9 0.12 0.38
-7 -7 -9 -0.25 0.4
7 -7 9 0.52 0.46
-7 -7 -9 0.22 0.36
-7 7 -9 -0.16 0.36
-7 7 -9 0.46 0.34
7 7 9 0.28 0.48
7 7 9 0.35 0.44
9 -7 9 1.54 0.57
-9 -7 -9 1.91 0.61
-9 -7 -9 1.23 0.43
9 -7 9 1.73 0.65
-9 7 -9 2.02 0.46
9 7 9 1.24 0.61
-9 7 -9 0.85 0.5
9 7 9 1.02 0.63
11 -7 9 1.46 0.67
-11 -7 -9 0.6 0.48
11 -7 9 0.43 0.45
-11 -7 -9 0.98 0.4
11 7 9 0.34 0.57
11 7 9 0.73 0.56
-11 7 -9 0.29 0.47
-11 7 -9 1.08 0.41
-13 -7 -9 1.45 0.59
13 -7 9 2.3 0.65
13 -7 9 1.96 0.72
-13 -7 -9 1.58 0.46
-13 7 -9 2.28 0.54
-13 7 -9 1.88 0.64
13 7 9 0.78 0.59
13 7 9 1.48 0.7
-14 -8 9 1.74 0.57
14 -8 -9 2.09 0.61
14 -8 -9 2.97 0.68
-14 -8 9 2.07 0.66
14 8 -9 3.01 0.59
14 8 -9 2.65 0.63
-14 8 9 1.87 0.66
-12 -8 9 4.28 0.79
12 -8 -9 3.17 0.66
-12 -8 9 1.46 0.57
12 -8 -9 2.6 0.64
12 8 -9 2.91 0.56
12 8 -9 2.09 0.58
-12 8 9 3.79 0.76
10 -8 -9 -0.18 0.4
-10 -8 9 0.46 0.44
10 -8 -9 0.43 0.44
-10 -8 9 0.5 0.44
-10 8 9 0.04 0.55
-10 8 9 0.32 0.45
10 8 -9 -0.25 0.31
10 8 -9 0.34 0.39
8 -8 -9 8.96 1
-8 -8 9 9.99 1.02
-8 -8 9 8.75 0.99
8 -8 -9 8.36 0.91
-8 8 9 10.64 1.21
8 8 -9 9.53 1
8 8 -9 10.11 0.86
6 -8 -9 15.4 1.03
6 -8 -9 15.52 1.15
-6 -8 9 13.92 1.13
-6 8 9 13.85 1.38
6 8 -9 15.56 1.05
4 -8 -9 9.65 1
-4 -8 9 11.84 1.18
4 -8 -9 11.56 0.89
-4 8 9 11.91 1.26
4 8 -9 10.06 1.01
2 -8 -9 1.6 0.53
-2 -8 9 1.56 0.55
2 -8 -9 1.93 0.49
2 8 -9 1.03 0.44
-2 8 9 1.69 0.64
0 -8 9 -0.16 0.35
0 -8 -9 -0.01 0.36
0 -8 -9 0.13 0.35
0 8 9 0.26 0.49
0 8 -9 -0.07 0.34
-2 -8 -9 1.84 0.52
-2 -8 -9 2.93 0.52
2 -8 9 2.54 0.63
2 8 9 2.22 0.74
-2 8 -9 2.54 0.6
-4 -8 -9 1.93 0.51
-4 -8 -9 3.21 0.53
4 -8 9 2.06 0.55
-4 8 -9 1.62 0.55
4 8 9 1.66 0.65
-6 -8 -9 2.31 0.58
6 -8 9 1.38 0.62
-6 -8 -9 3.28 0.73
6 -8 9 1.76 0.59
6 8 9 2.12 0.71
-6 8 -9 2.8 0.66
-6 8 -9 3.29 0.53
8 -8 9 0.1 0.49
-8 -8 -9 0.41 0.5
-8 -8 -9 0.38 0.4
8 -8 9 0.01 0.38
8 8 9 0.11 0.53
-8 8 -9 0.05 0.32
-8 8 -9 -0.07 0.43
-10 -8 -9 0.6 0.53
-10 -8 -9 1.8 0.52
10 -8 9 0.73 0.58
10 -8 9 1.21 0.58
10 8 9 1.73 0.75
-10 8 -9 2.68 0.71
-10 8 -9 2.21 0.5
10 8 9 1.96 0.68
-12 -8 -9 0.34 0.48
12 -8 9 0.28 0.46
-12 -8 -9 -0.18 0.34
12 -8 9 0.26 0.53
-12 8 -9 0.33 0.37
12 8 9 0.56 0.61
12 8 9 -0.06 0.53
-12 8 -9 0.41 0.5
-11 -9 9 9.23 1.05
-11 -9 9 8.15 1.04
11 -9 -9 7.38 0.99
11 -9 -9 8.64 0.93
11 9 -9 8.54 0.97
11 9 -9 7.82 0.82
9 -9 -9 7.99 0.9
9 -9 -9 8.71 0.99
-9 -9 9 8.03 0.98
-9 -9 9 6.89 0.93
9 9 -9 7.29 0.89
-9 9 9 7.55 1.16
9 9 -9 5.94 0.74
7 -9 -9 2.19 0.56
7 -9 -9 1.82 0.57
-7 -9 9 0.9 0.53
7 9 -9 1.59 0.47
-7 9 9 1.86 0.68
5 -9 -9 0.36 0.45
5 -9 -9 0.42 0.41
-5 -9 9 0.57 0.48
-5 9 9 -0.06 0.52
5 9 -9 0.03 0.33
3 -9 -9 0.69 0.42
-3 -9 9 1.55 0.57
3 -9 -9 0.81 0.51
3 9 -9 1.21 0.45
-3 9 9 0.85 0.65
1 -9 -9 4.56 0.67
1 -9 -9 4.22 0.73
-1 -9 9 4.04 0.76
-1 9 9 4.8 0.89
1 9 -9 4.34 0.74
1 -9 9 10.2 1.15
-1 -9 -9 11.35 0.86
-1 -9 -9 10.64 1.07
1 9 9 11.22 1.29
-1 9 -9 9.67 1.05
3 -9 9 9.77 1.14
-3 -9 -9 8.14 0.79
-3 -9 -9 8.27 0.93
3 9 9 7.59 1.11
-3 9 -9 6.86 0.89
-5 -9 -9 0.74 0.4
5 -9 9 1.03 0.52
-5 -9 -9 0.59 0.42
5 9 9 0.49 0.55
-5 9 -9 0.97 0.52
-7 -9 -9 4.65 0.76
7 -9 9 4.16 0.81
-7 -9 -9 4 0.83
7 9 9 5.29 0.98
-7 9 -9 3.21 0.76
-7 9 -9 5.29 0.66
-9 -9 -9 3.73 0.76
-9 -9 -9 5.15 0.72
9 -9 9 5.26 0.94
9 -9 9 6.31 1.04
9 9 9 4.04 0.89
-9 9 -9 5.93 0.92
-9 9 -9 4.81 0.65
-8 -10 9 1.85 0.64
8 -10 -9 1.63 0.64
8 -10 -9 2.17 0.59
8 10 -9 2.39 0.56
-8 10 9 0.8 0.69
6 -10 -9 2.36 0.61
-6 -10 9 0.92 0.55
6 -10 -9 2.13 0.65
-6 10 9 0.44 0.62
6 10 -9 2.04 0.53
4 -10 -9 0.07 0.41
-4 -10 9 0.62 0.5
4 -10 -9 0.25 0.46
4 10 -9 -0.13 0.32
-4 10 9 0.21 0.6
-2 -10 9 -0.15 0.42
2 -10 -9 0.34 0.4
2 -10 -9 0.5 0.48
2 10 -9 0.54 0.42
-2 10 9 0.35 0.58
0 -10 -9 0.08 0.39
0 -10 9 0.29 0.48
0 -10 -9 0.02 0.46
0 10 -9 -0.04 0.37
0 10 9 1.02 0.63
-2 -10 -9 -0.35 0.34
-2 -10 -9 0.21 0.45
2 -10 9 -0.07 0.42
-2 10 -9 0.03 0.39
2 10 9 -0.44 0.51
4 -10 9 -0.42 0.41
-4 -10 -9 0.34 0.4
-4 -10 -9 0.6 0.45
-4 10 -9 -0.13 0.4
4 10 9 -0.03 0.56
-6 -10 -9 0.53 0.46
-6 -10 -9 0.19 0.37
6 -10 9 0.49 0.51
6 10 9 0.12 0.53
-6 10 -9 0.4 0.48
-16 0 10 1.85 0.64
16 0 -10 2.7 0.57
14 0 -10 7.93 0.83
-14 0 10 7.08 0.99
-12 0 10 10.91 1.08
-12 0 10 8.74 0.91
12 0 -10 10.98 0.85
10 0 -10 12.88 0.9
-10 0 10 13.31 0.96
-10 0 10 12.95 1.04
-8 0 10 0.26 0.4
-8 0 10 0.27 0.38
8 0 -10 0.23 0.33
8 0 -10 0.46 0.36
-6 0 10 0.79 0.39
6 0 -10 0.42 0.37
6 0 -10 0.16 0.31
6 0 -10 0.67 0.39
-6 0 10 0.42 0.36
4 0 -10 12.32 0.97
-4 0 10 14.82 1.14
-4 0 10 11.07 0.89
4 0 -10 12.43 0.86
4 0 -10 10.73 0.82
-4 0 10 13.73 0.94
-2 0 10 14.29 0.98
-2 0 10 17.7 1.24
2 0 -10 14.8 1.08
2 0 -10 14.78 0.92
0 0 10 29.35 1.33
0 0 -10 25.6 1.22
0 0 10 23.15 1.46
0 0 -10 26.28 1.32
0 0 -10 26.09 1.44
2 0 10 3.58 0.74
-2 0 -10 4.02 0.57
2 0 10 5 0.67
-2 0 -10 5.83 0.84
-2 0 -10 5.94 0.76
-4 0 -10 0.14 0.36
4 0 10 0.65 0.36
-4 0 -10 0.17 0.42
4 0 10 0.61 0.51
6 0 10 0.4 0.49
-6 0 -10 -0.22 0.39
-6 0 -10 0.14 0.35
-8 0 -10 13.46 1.08
-8 0 -10 12.65 1.29
8 0 10 11.69 1.3
-10 0 -10 29.93 1.76
-10 0 -10 27 1.51
10 0 10 30.88 1.91
12 0 10 18.64 1.59
-12 0 -10 19.57 1.32
-14 0 -10 4.74 0.83
14 0 10 5.29 1.02
17 -1 -10 -0.14 0.33
-17 -1 10 0.13 0.52
17 1 -10 0.33 0.42
-17 1 10 1.1 0.57
15 -1 -10 0.81 0.37
-15 -1 10 0.65 0.58
15 1 -10 1.1 0.44
-15 1 10 1.23 0.56
13 -1 -10 0.88 0.46
-13 -1 10 0.06 0.44
-13 -1 10 0.91 0.5
13 -1 -10 0.85 0.4
-13 1 10 0.61 0.53
13 1 -10 0.78 0.4
11 -1 -10 0.15 0.32
-11 -1 10 -0.04 0.32
11 -1 -10 -0.22 0.34
-11 -1 10 0.34 0.44
11 1 -10 0.19 0.33
-11 1 10 -0.16 0.39
9 -1 -10 0.01 0.32
9 -1 -10 -0.09 0.28
-9 -1 10 -0.1 0.39
-9 -1 10 0.43 0.39
9 1 -10 0.41 0.33
9 1 -10 -0.11 0.32
-9 1 10 0.52 0.4
-9 1 10 0.2 0.38
7 -1 -10 -0.48 0.24
7 -1 -10 0.19 0.35
7 -1 -10 -0.14 0.27
-7 -1 10 0.36 0.35
-7 -1 10 -0.36 0.3
-7 1 10 0.28 0.38
-7 1 10 -0.47 0.28
7 1 -10 0.04 0.29
7 1 -10 0.35 0.36
5 -1 -10 5.1 0.62
-5 -1 10 4.37 0.64
5 -1 -10 4.95 0.75
5 -1 -10 5.9 0.72
-5 -1 10 5.23 0.72
5 1 -10 6.61 0.74
-5 1 10 6.24 0.74
-5 1 10 5.64 0.72
5 1 -10 6.71 0.81
5 1 -10 6.4 0.73
3 -1 -10 0.51 0.32
-3 -1 10 0.91 0.45
-3 -1 10 0.07 0.42
3 -1 -10 0.43 0.32
3 -1 -10 1.06 0.47
3 1 -10 0.85 0.38
-3 1 10 0.23 0.42
-3 1 10 0.39 0.32
3 1 -10 0.75 0.41
-3 1 10 -0.01 0.33
1 -1 -10 0.52 0.37
1 -1 -10 0.42 0.29
-1 -1 10 0.17 0.32
1 -1 -10 0.33 0.41
-1 -1 10 0.23 0.41
-1 1 10 -0.18 0.38
-1 1 10 0.73 0.47
1 1 -10 0.07 0.31
1 1 -10 0.39 0.41
-1 1 10 -0.16 0.29
1 -1 10 5.1 0.87
-1 -1 -10 5.16 0.61
-1 -1 -10 4.35 0.65
1 -1 10 5.32 0.7
-1 -1 -10 4.49 0.75
1 1 10 4.83 0.74
1 1 10 4.93 0.8
-1 1 -10 3.77 0.63
1 1 10 4.15 0.62
-1 1 -10 4.92 0.77
-1 1 -10 5.27 0.67
3 -1 10 1.48 0.45
3 -1 10 1.91 0.62
-3 -1 -10 2.25 0.54
-3 -1 -10 1.76 0.55
3 1 10 2.02 0.62
-3 1 -10 1.14 0.45
-3 1 -10 1.94 0.55
3 1 10 2.38 0.63
-5 -1 -10 0.2 0.39
-5 -1 -10 0.48 0.37
5 -1 10 0.13 0.45
5 -1 10 0.14 0.31
5 1 10 0.48 0.48
-5 1 -10 0.43 0.41
-5 1 -10 0.13 0.37
5 1 10 0.01 0.43
7 -1 10 1.68 0.65
-7 -1 -10 0.42 0.44
-7 -1 -10 0.44 0.42
7 -1 10 1.06 0.41
7 1 10 1.96 0.64
-7 1 -10 0.81 0.42
-7 1 -10 1.08 0.53
-9 -1 -10 0.27 0.4
9 -1 10 -0.16 0.43
9 1 10 -0.59 0.45
-9 1 -10 0.38 0.45
-9 1 -10 0.67 0.43
11 -1 10 1.57 0.69
-11 -1 -10 0.67 0.51
-11 1 -10 1.06 0.49
11 1 10 2.25 0.74
-11 1 -10 2.4 0.69
-13 -1 -10 0.49 0.44
13 -1 10 2.17 0.78
-13 1 -10 0.92 0.46
-13 1 -10 0.88 0.56
13 1 10 1.66 0.74
-15 -1 -10 -0.38 0.4
15 -1 10 -0.03 0.53
15 1 10 0.37 0.58
-15 1 -10 0.03 0.42
-16 -2 10 -0.67 0.51
16 -2 -10 0.28 0.36
16 -2 -10 -0.28 0.4
16 2 -10 -0.12 0.34
-16 2 10 -0.17 0.46
14 -2 -10 2.84 0.53
-14 -2 10 2.43 0.58
-14 -2 10 2.7 0.69
14 -2 -10 1.97 0.57
-14 2 10 2.74 0.71
14 2 -10 2.84 0.58
-12 -2 10 4.63 0.69
-12 -2 10 3.54 0.72
12 -2 -10 4.6 0.7
12 -2 -10 4.08 0.58
-12 2 10 4.57 0.76
12 2 -10 4.41 0.68
10 -2 -10 10.92 0.8
-10 -2 10 10.91 1.01
10 -2 -10 10.72 1.01
-10 -2 10 11.43 1.08
10 2 -10 12.63 0.9
-10 2 10 11.28 1.1
10 2 -10 9.44 0.91
8 -2 -10 4.75 0.68
-8 -2 10 4.66 0.73
8 -2 -10 5.62 0.72
-8 -2 10 3.93 0.66
8 2 -10 3.92 0.63
8 2 -10 3.36 0.59
-8 2 10 3.61 0.63
-6 -2 10 8.9 0.92
-6 -2 10 7.69 0.85
6 -2 -10 7.81 0.8
6 -2 -10 8.08 0.83
6 -2 -10 6.93 0.69
6 2 -10 7.97 0.86
-6 2 10 10.4 0.97
-6 2 10 9.13 0.82
6 2 -10 7.51 0.8
-4 -2 10 7.26 1.24
4 -2 -10 9.65 0.9
4 -2 -10 9.23 0.71
4 -2 -10 9.17 0.86
-4 -2 10 8.78 0.9
-4 2 10 7.8 0.84
-4 2 10 8.33 0.8
4 2 -10 8.57 0.85
4 2 -10 9.36 0.95
2 -2 -10 21.32 1.13
-2 -2 10 21.78 1.24
-2 -2 10 22.92 1.48
2 -2 -10 23.64 1.08
2 -2 -10 21.01 1.09
2 -2 -10 21.05 1.23
2 -2 -10 22.93 1.31
-2 2 10 22.77 1.14
2 2 -10 21.94 1.17
-2 2 10 22.7 1.41
-2 2 10 23.37 1.18
-2 2 10 23.25 1.39
2 2 -10 20.63 1.29
0 -2 -10 19.87 1.18
0 -2 10 18.21 1.34
0 -2 -10 19.57 1.25
0 -2 10 19.21 1.16
0 2 -10 17.5 1.23
0 2 10 20.74 1.36
0 2 10 16.82 1.24
-2 -2 -10 9.9 1.08
2 -2 10 11.03 1
2 -2 10 11.56 1.25
-2 -2 -10 9.42 0.98
-2 2 -10 10.63 1.11
2 2 10 11 1.13
-2 2 -10 8.57 0.87
2 2 10 10.64 1.17
4 -2 10 2.41 0.54
-4 -2 -10 2.51 0.59
4 -2 10 2.36 0.69
-4 -2 -10 2.2 0.53
-4 2 -10 3.57 0.65
-4 2 -10 1.62 0.55
4 2 10 2.14 0.64
4 2 10 3.02 0.69
6 -2 10 1.44 0.46
6 -2 10 1.92 0.66
-6 -2 -10 0.91 0.46
-6 -2 -10 0.92 0.46
-6 2 -10 1.21 0.44
6 2 10 0.99 0.54
-6 2 -10 0.34 0.43
6 2 10 -0.03 0.44
-8 -2 -10 3.53 0.71
8 -2 10 3.8 0.88
8 -2 10 3.76 0.63
-8 2 -10 5.03 0.92
8 2 10 2.84 0.76
-8 2 -10 4.26 0.67
8 2 10 4.97 0.86
10 -2 10 5.79 0.89
10 -2 10 4.2 0.87
-10 -2 -10 5.31 0.83
-10 2 -10 5.25 0.77
-10 2 -10 3.76 0.8
10 2 10 5.06 0.98
12 -2 10 2.73 0.83
-12 -2 -10 3.05 0.67
-12 2 -10 3.8 0.82
12 2 10 2.44 0.81
-12 2 -10 2.55 0.63
14 -2 10 0.68 0.62
-14 -2 -10 -0.4 0.42
14 2 10 -0.41 0.56
-14 2 -10 0.44 0.43
-14 2 -10 0.52 0.51
15 -3 -10 0.11 0.33
15 -3 -10 0.15 0.43
-15 -3 10 -0.21 0.37
-15 -3 10 0.38 0.49
-15 3 10 -0.04 0.45
15 3 -10 0.41 0.41
13 -3 -10 0.07 0.36
-13 -3 10 0.29 0.4
13 -3 -10 0.3 0.32
-13 -3 10 0.89 0.49
-13 3 10 0.41 0.5
13 3 -10 0.31 0.42
13 3 -10 -0.13 0.35
-11 -3 10 0.31 0.4
11 -3 -10 -0.09 0.34
-11 -3 10 0.06 0.4
11 -3 -10 0.03 0.29
11 3 -10 -0.43 0.33
-11 3 10 -0.37 0.36
11 3 -10 -0.25 0.29
-9 -3 10 1.76 0.53
9 -3 -10 2.2 0.55
9 -3 -10 2.36 0.46
-9 -3 10 1.34 0.5
9 -3 -10 2.16 0.54
9 3 -10 1.64 0.49
9 3 -10 2.59 0.56
-9 3 10 2.96 0.63
-7 -3 10 22.02 1.29
7 -3 -10 22.56 1.21
7 -3 -10 21.41 1.2
-7 -3 10 19.27 1.22
7 -3 -10 23.01 1.05
7 3 -10 22.43 1.23
7 3 -10 21.08 1.21
-7 3 10 21.77 1.25
5 -3 -10 3.46 0.56
5 -3 -10 4.11 0.64
-5 -3 10 3.85 0.78
-5 -3 10 5.62 0.77
5 -3 -10 4.2 0.54
5 3 -10 4.06 0.67
5 3 -10 4.37 0.65
-5 3 10 3.77 0.65
3 -3 -10 4.82 0.68
3 -3 -10 2.77 0.59
3 -3 -10 4.2 0.6
-3 -3 10 3.84 0.66
-3 3 10 4.54 0.77
3 3 -10 4.15 0.71
3 3 -10 4.4 0.66
-3 3 10 4.91 0.68
1 -3 -10 0.31 0.34
1 -3 -10 0.42 0.39
-1 -3 10 0.41 0.4
-1 -3 10 0.27 0.42
1 -3 -10 0.59 0.36
1 3 -10 0.27 0.39
-1 3 10 0.67 0.37
-1 3 10 0.49 0.46
-1 -3 -10 1.09 0.45
-1 -3 -10 0.8 0.36
-1 -3 -10 1.23 0.5
1 -3 10 2.3 0.55
1 -3 10 1.21 0.53
1 3 10 1.93 0.65
1 3 10 1.19 0.57
-1 3 -10 1.9 0.57
3 -3 10 9.48 0.97
-3 -3 -10 10.6 1.11
-3 -3 -10 10.74 1.07
3 -3 10 10.68 1.22
-3 -3 -10 10.7 0.96
3 3 10 9.16 1.11
3 3 10 9.39 1.11
-3 3 -10 10.83 1.14
-3 3 -10 10.88 0.85
5 -3 10 18.61 1.19
-5 -3 -10 19.57 1.28
-5 -3 -10 19.29 1.32
5 -3 10 19.13 1.46
-5 3 -10 19.52 1.13
5 3 10 17.81 1.39
5 3 10 22.97 1.53
-5 3 -10 20.83 1.41
7 -3 10 10.2 1.25
-7 -3 -10 11.8 1.17
7 -3 10 10.67 1.04
7 3 10 11.4 1.31
7 3 10 11.15 1.2
-7 3 -10 10.96 1.2
-7 3 -10 13.09 0.97
-9 -3 -10 0.17 0.41
9 -3 10 0.19 0.5
9 -3 10 0.92 0.44
-9 3 -10 0.1 0.37
-9 3 -10 0.01 0.41
9 3 10 -0.01 0.47
9 3 10 0.27 0.51
11 -3 10 5.15 0.98
-11 -3 -10 3.65 0.74
11 -3 10 4.49 0.74
11 3 10 5.31 1.02
-11 3 -10 4.92 0.75
11 3 10 4.36 0.86
-11 3 -10 3.88 0.85
13 -3 10 15.37 1.64
-13 -3 -10 12.79 1.28
13 3 10 11.63 1.46
-13 3 -10 15.61 1.33
-13 3 -10 14.29 1.12
-14 -4 10 0.7 0.5
14 -4 -10 1.09 0.51
-14 -4 10 0.95 0.5
14 -4 -10 1.3 0.42
14 4 -10 1.18 0.42
14 4 -10 1.53 0.47
-14 4 10 1.55 0.58
-12 -4 10 2.47 0.64
-12 -4 10 3.21 0.66
12 -4 -10 2.28 0.58
12 -4 -10 3.21 0.51
-12 4 10 2.57 0.66
12 4 -10 2.39 0.54
12 4 -10 3.39 0.67
10 -4 -10 1.64 0.5
10 -4 -10 0.51 0.44
10 -4 -10 1.18 0.39
-10 -4 10 0.87 0.51
-10 -4 10 0.9 0.46
10 4 -10 1.27 0.44
10 4 -10 2.13 0.56
-10 4 10 1.27 0.5
8 -4 -10 0.09 0.39
8 -4 -10 0.02 0.36
-8 -4 10 0.8 0.43
8 -4 -10 0.2 0.28
-8 -4 10 -0.84 0.35
8 4 -10 -0.2 0.33
8 4 -10 0.03 0.38
-8 4 10 -0.27 0.35
-6 -4 10 0.13 0.45
6 -4 -10 0.49 0.4
-6 -4 10 0.5 0.4
6 -4 -10 0.17 0.34
-6 4 10 -0.07 0.36
6 4 -10 0.29 0.39
6 4 -10 1.04 0.43
-4 -4 10 0.74 0.46
4 -4 -10 1.01 0.47
4 -4 -10 0.18 0.41
4 -4 -10 1.35 0.43
-4 4 10 1.14 0.44
4 4 -10 0.39 0.39
4 4 -10 1.19 0.45
-4 4 10 0.26 0.51
2 -4 -10 7.92 0.78
-2 -4 10 6.61 0.85
2 -4 -10 6.29 0.77
2 -4 -10 5.68 0.79
-2 4 10 5.21 0.87
2 4 -10 6.24 0.84
-2 4 10 5.76 0.77
0 -4 -10 15.18 0.98
0 -4 10 16.62 1.33
0 -4 -10 18.2 1.17
0 -4 10 14.51 1.08
0 -4 -10 13.41 0.99
0 4 10 13.94 1.31
0 4 -10 14.73 1.16
2 -4 10 3.31 0.62
-2 -4 -10 2.74 0.55
-2 -4 -10 4.38 0.74
2 -4 10 3.81 0.8
-2 4 -10 2.28 0.62
2 4 10 4.66 0.86
2 4 10 4.4 0.83
-4 -4 -10 0.25 0.38
4 -4 10 -0.23 0.32
4 -4 10 0.29 0.44
-4 -4 -10 0.02 0.4
-4 -4 -10 0.05 0.34
-4 4 -10 0.22 0.43
4 4 10 -0.17 0.44
4 4 10 -0.45 0.45
-4 4 -10 0.56 0.34
6 -4 10 0.06 0.48
-6 -4 -10 0.09 0.4
-6 -4 -10 -0.09 0.31
6 -4 10 0.21 0.39
-6 4 -10 -0.08 0.42
6 4 10 -0.72 0.42
-6 4 -10 0.03 0.32
6 4 10 -0.06 0.49
8 -4 10 1.87 0.67
8 -4 10 1.35 0.51
-8 -4 -10 1.82 0.59
8 4 10 1.87 0.62
8 4 10 2.77 0.77
-8 4 -10 2.11 0.52
-8 4 -10 1.58 0.61
10 -4 10 2.74 0.61
-10 -4 -10 1.57 0.6
10 -4 10 1.67 0.69
-10 4 -10 2.17 0.53
-10 4 -10 1.41 0.58
10 4 10 2.67 0.8
10 4 10 3.1 0.8
12 -4 10 0.97 0.52
-12 -4 -10 0.89 0.5
12 -4 10 1.63 0.72
12 4 10 0.47 0.58
-12 4 -10 1.52 0.62
12 4 10 1.45 0.69
-12 4 -10 1.45 0.51
-13 -5 10 0.46 0.48
13 -5 -10 0.53 0.38
13 -5 -10 -0.1 0.4
-13 -5 10 0.9 0.49
13 5 -10 -0.42 0.31
-13 5 10 0.21 0.48
13 5 -10 0.59 0.44
11 -5 -10 1.73 0.42
-11 -5 10 0.72 0.48
11 -5 -10 1.33 0.52
-11 -5 10 0.87 0.5
11 -5 -10 1.27 0.51
11 5 -10 1.08 0.44
-11 5 10 0.71 0.49
11 5 -10 1.16 0.49
9 -5 -10 9.08 0.97
-9 -5 10 8.33 1
-9 -5 10 9.41 1
9 -5 -10 8.59 0.94
9 5 -10 9.39 0.91
-9 5 10 9.41 1.02
9 5 -10 11.19 1.05
7 -5 -10 10 0.95
-7 -5 10 7.35 0.91
7 -5 -10 9.1 0.96
-7 -5 10 8.63 1.16
-7 5 10 8.2 0.92
7 5 -10 10.05 1
7 5 -10 9.2 0.93
-5 -5 10 10.22 1.05
5 -5 -10 10.72 0.88
5 -5 -10 10.77 1.01
5 -5 -10 11.93 1.65
5 5 -10 10.23 1.01
-5 5 10 12.24 0.97
5 5 -10 11.36 0.98
-5 5 10 11.15 1.22
-3 -5 10 11.37 1.11
3 -5 -10 12.14 0.98
3 -5 -10 12.48 0.9
3 -5 -10 9.68 1.04
-3 5 10 15.04 1.03
3 5 -10 13.61 1.05
-3 5 10 11.94 1.24
1 -5 -10 1.04 0.52
1 -5 -10 1.8 0.51
-1 -5 10 1.93 0.54
1 -5 -10 0.99 0.38
1 5 -10 0.77 0.46
-1 5 10 1.25 0.61
1 -5 10 11.83 1.13
-1 -5 -10 14.71 1.14
-1 -5 -10 12.18 0.96
1 5 10 11.88 1.27
-1 5 -10 12.64 1.23
-3 -5 -10 13.35 1.25
3 -5 10 16.29 1.37
-3 -5 -10 15.78 1.04
3 -5 10 14.26 1.13
-3 5 -10 15.32 1.24
3 5 10 13.6 1.38
5 -5 10 17.38 1.23
-5 -5 -10 16.7 1.25
-5 -5 -10 17.75 1.1
5 -5 10 17.21 1.42
-5 5 -10 18.86 1.36
5 5 10 17.23 1.4
5 5 10 15.27 1.47
-5 5 -10 16.16 1.05
7 -5 10 9.62 1.23
7 -5 10 10.46 1.12
-7 -5 -10 11.42 0.9
-7 -5 -10 10.01 1.13
7 5 10 11 1.29
-7 5 -10 10.25 0.95
-7 5 -10 10.35 1.2
7 5 10 12.46 1.4
-9 -5 -10 0.2 0.45
-9 -5 -10 0.12 0.34
9 -5 10 -0.01 0.51
9 -5 10 0 0.42
-9 5 -10 0.08 0.35
9 5 10 -0.05 0.53
9 5 10 -0.79 0.48
-9 5 -10 0.2 0.42
-11 -5 -10 3.11 0.77
11 -5 10 3.1 0.82
11 -5 10 2.26 0.66
-11 5 -10 2.9 0.76
-11 5 -10 3.28 0.63
11 5 10 1.99 0.76
11 5 10 3.69 0.92
-12 -6 10 -0.1 0.42
12 -6 -10 0.81 0.52
12 -6 -10 -0.12 0.39
-12 -6 10 0.25 0.49
12 6 -10 0.46 0.45
12 6 -10 -0.01 0.36
-12 6 10 0.25 0.49
10 -6 -10 0.18 0.43
10 -6 -10 -0.72 0.35
-10 -6 10 -0.32 0.46
-10 -6 10 -0.27 0.42
10 6 -10 -0.04 0.35
-10 6 10 -0.22 0.42
10 6 -10 0.39 0.42
-8 -6 10 1.38 0.55
8 -6 -10 0.44 0.46
8 -6 -10 1.1 0.48
-8 -6 10 1.03 0.67
8 6 -10 0.32 0.38
8 6 -10 0.11 0.4
-8 6 10 0.32 0.44
6 -6 -10 0.32 0.44
6 -6 -10 0.02 0.37
-6 -6 10 0.54 0.46
-6 6 10 1.21 0.73
-6 6 10 0.44 0.41
6 6 -10 0.94 0.44
6 6 -10 0.81 0.45
4 -6 -10 -0.28 0.37
-4 -6 10 -0.28 0.36
4 -6 -10 -0.1 0.33
4 -6 -10 -0.34 0.39
4 6 -10 -0.11 0.37
-4 6 10 0.79 0.56
2 -6 -10 0.03 0.38
-2 -6 10 0.24 0.4
2 -6 -10 0.17 0.35
2 -6 -10 0.08 0.42
2 6 -10 -0.12 0.36
-2 6 10 0.18 0.51
0 -6 10 0.35 0.45
0 -6 -10 -0.05 0.33
0 -6 -10 -0.43 0.34
0 -6 -10 -0.52 0.38
0 6 10 0.19 0.5
0 6 -10 0.76 0.47
2 -6 10 0.75 0.45
-2 -6 -10 -0.24 0.44
-2 -6 -10 1.06 0.48
-2 6 -10 0.79 0.45
2 6 10 0.86 0.59
-4 -6 -10 2.91 0.6
4 -6 10 2.02 0.7
-4 -6 -10 1.5 0.59
4 -6 10 3.05 0.67
4 6 10 1.86 0.69
-4 6 -10 1.18 0.54
6 -6 10 1.14 0.6
-6 -6 -10 1.29 0.48
-6 -6 -10 1.41 0.54
6 -6 10 0.81 0.5
6 6 10 1.4 0.65
-6 6 -10 1.28 0.45
-6 6 -10 2.02 0.64
8 -6 10 0.26 0.52
-8 -6 -10 -0.17 0.43
-8 -6 -10 0.28 0.37
8 -6 10 -0.1 0.41
8 6 10 0.23 0.6
8 6 10 -0.06 0.55
-8 6 -10 0.22 0.44
-8 6 -10 0.64 0.37
-10 -6 -10 0.44 0.38
10 -6 10 0.29 0.49
-10 -6 -10 0.19 0.46
10 -6 10 0.56 0.62
10 6 10 0.73 0.59
-10 6 -10 0.46 0.4
10 6 10 0 0.6
-10 6 -10 1.04 0.59
-9 -7 10 2.5 1.09
9 -7 -10 1.39 0.53
-9 -7 10 0.62 0.44
9 -7 -10 0.88 0.55
9 7 -10 1.31 0.47
-9 7 10 0.12 0.44
9 7 -10 0.67 0.45
7 -7 -10 3.13 0.61
-7 -7 10 4.39 0.78
7 -7 -10 3.21 0.68
7 7 -10 1.91 0.59
7 7 -10 3.06 0.6
5 -7 -10 4.97 0.77
-5 -7 10 5.88 0.89
5 -7 -10 5.39 0.73
5 7 -10 7.46 0.92
-5 7 10 4.04 0.89
3 -7 -10 3.15 0.59
3 -7 -10 3.47 0.68
-3 -7 10 3.56 0.72
3 7 -10 3.4 0.68
-3 7 10 3.99 0.88
1 -7 -10 0.76 0.56
-1 -7 10 2.11 0.63
1 -7 -10 0.87 0.46
1 -7 -10 0.96 0.45
-1 7 10 2.43 0.76
1 7 -10 2.18 0.6
-1 -7 -10 0.49 0.44
1 -7 10 0.57 0.47
-1 -7 -10 -0.16 0.43
-1 -7 -10 0.88 0.41
1 7 10 1.25 0.65
-1 7 -10 0.29 0.43
3 -7 10 17.63 1.31
-3 -7 -10 17.76 1.37
-3 -7 -10 16.63 1.18
3 7 10 15.5 1.56
-3 7 -10 16.81 1.3
-5 -7 -10 4.1 0.85
5 -7 10 4.29 0.82
5 -7 10 6.26 1.07
-5 -7 -10 4.71 0.73
5 7 10 4.82 0.97
-5 7 -10 5.07 0.87
-7 -7 -10 1.69 0.63
7 -7 10 1.41 0.54
-7 -7 -10 1.1 0.48
7 -7 10 1.17 0.64
-7 7 -10 0.85 0.57
7 7 10 1.01 0.65
6 -8 -10 1.62 0.52
-6 -8 10 0.65 0.53
6 -8 -10 0.88 0.54
-6 8 10 0.92 0.63
6 8 -10 1.95 0.55
4 -8 -10 3.87 0.68
-4 -8 10 2.93 0.69
4 -8 -10 3.38 0.7
4 8 -10 5.61 0.84
-4 8 10 2.64 0.79
2 -8 -10 5.7 0.85
-2 -8 10 6.5 0.94
2 -8 -10 5.35 0.74
-2 8 10 5.99 1.08
2 8 -10 6.98 0.92
0 -8 -10 8.22 0.95
0 -8 10 12.49 1.21
0 -8 -10 10.98 0.97
0 8 -10 8.47 1
0 8 10 9.02 1.24
-2 -8 -10 2.49 0.72
2 -8 10 3.46 0.77
-2 -8 -10 2.64 0.64
-2 -8 -10 1.87 0.49
2 8 10 0.98 0.69
-2 8 -10 2.8 0.69
-4 -8 -10 2.15 0.59
-4 -8 -10 2.2 0.69
4 -8 10 1.67 0.63
4 8 10 1.85 0.74
-4 8 -10 1.99 0.65
10 0 -11 0.03 0.39
-10 0 11 -0.01 0.4
10 0 -11 -0.42 0.33
-10 0 11 0.33 0.47
8 0 -11 0 0.38
8 0 -11 -0.26 0.34
-8 0 11 0.17 0.39
-8 0 11 -0.39 0.42
6 0 -11 1.01 0.41
-6 0 11 -0.01 0.4
-6 0 11 0.14 0.5
4 0 -11 -0.34 0.61
4 0 -11 -0.36 0.29
-4 0 11 0.36 0.39
2 0 -11 0.44 0.48
-2 0 11 -0.65 0.47
-2 0 11 -0.11 0.35
2 0 -11 0.11 0.35
0 0 -11 0.22 0.49
0 0 -11 0.6 0.37
0 0 11 -0.27 0.47
0 0 11 -0.38 0.35
2 0 11 -0.24 0.48
-2 0 -11 0.16 0.48
-4 0 -11 -0.42 0.35
-4 0 -11 -0.06 0.45
4 0 11 0.69 0.53
-6 0 -11 0.05 0.45
-6 0 -11 -0.46 0.38
6 0 11 -0.42 0.51
8 0 11 0.61 0.59
-8 0 -11 0.13 0.44
-8 0 -11 0.4 0.56
-9 -1 11 0.44 0.44
-9 -1 11 -0.17 0.45
9 -1 -11 0.13 0.35
9 -1 -11 0.69 0.44
-9 1 11 -0.05 0.43
9 1 -11 0.22 0.38
-9 1 11 -0.21 0.39
9 1 -11 0.66 0.43
7 -1 -11 2.64 0.53
7 -1 -11 1.26 0.47
-7 -1 11 2.04 0.59
-7 -1 11 2.08 0.56
-7 1 11 1.95 0.57
7 1 -11 2.49 0.53
-7 1 11 2.38 0.54
-5 -1 11 3 0.63
5 -1 -11 2.44 0.52
5 1 -11 3.02 0.59
-5 1 11 2.69 0.58
5 1 -11 2.28 0.59
-3 -1 11 11.43 1.06
3 -1 -11 10.73 0.83
-3 1 11 9.89 0.95
3 1 -11 10.42 1.11
3 1 -11 9.47 0.91
-1 -1 11 13.66 1.41
1 -1 -11 13.65 1.14
-1 -1 11 11.81 1.11
-1 1 11 12.54 1.31
1 1 -11 11.35 1.2
1 1 -11 12.94 1
1 -1 11 3.32 0.82
-1 -1 -11 3.79 0.73
1 -1 11 3.74 0.69
1 1 11 3.07 0.75
-1 1 -11 2.06 0.51
-1 1 -11 3.57 0.75
-3 -1 -11 1.49 0.57
3 -1 11 1.53 0.5
3 -1 11 2.07 0.73
-3 -1 -11 1.23 0.5
-3 1 -11 1.45 0.5
3 1 11 0.5 0.53
-3 1 -11 1.08 0.56
-5 -1 -11 2.65 0.64
5 -1 11 1.7 0.71
-5 -1 -11 2.43 0.71
5 1 11 2.12 0.76
-5 1 -11 1.67 0.65
-5 1 -11 1.45 0.52
7 -1 11 18.37 1.79
-7 -1 -11 17.47 1.42
-7 -1 -11 14.83 1.35
7 1 11 17.73 1.53
-7 1 -11 15.29 1.19
-7 1 -11 17.47 1.41
10 -2 -11 -0.27 0.39
-10 -2 11 -0.01 0.45
10 -2 -11 0.41 0.69
10 -2 -11 -0.02 0.36
-10 -2 11 -0.47 0.43
-10 2 11 -0.24 0.44
10 2 -11 -0.35 0.34
-8 -2 11 2.51 0.62
-8 -2 11 1.16 0.53
8 -2 -11 2 0.45
8 -2 -11 2.14 0.56
8 2 -11 2.12 0.64
-8 2 11 1.27 0.56
8 2 -11 2.01 0.54
6 -2 -11 0.05 0.31
6 -2 -11 0.15 0.37
-6 -2 11 0.55 0.46
-6 2 11 -0.03 0.42
6 2 -11 0.11 0.39
-6 2 11 -0.24 0.38
6 2 -11 0.28 0.43
-4 -2 11 -0.15 0.39
4 2 -11 0.25 0.41
4 2 -11 0.43 0.39
-2 -2 11 -0.03 0.35
2 2 -11 -0.11 0.39
2 2 -11 0.06 0.36
0 -2 11 0.25 0.55
0 -2 11 1 0.48
0 2 -11 -0.09 0.44
0 2 -11 0.48 0.41
0 2 11 0.39 0.88
-2 -2 -11 0.04 0.43
2 -2 11 0.76 0.58
-2 -2 -11 0.62 0.47
2 -2 11 1.04 0.47
-2 2 -11 1.27 0.57
2 2 11 0.64 0.6
2 2 11 0.25 0.52
-2 2 -11 0.19 0.36
-4 -2 -11 4.75 0.84
4 -2 11 4.16 0.89
4 -2 11 5.03 0.76
-4 -2 -11 6.03 0.87
4 2 11 5.79 0.97
4 2 11 5.02 0.96
-4 2 -11 4.61 0.84
-6 -2 -11 5.63 0.92
-6 -2 -11 5.81 0.9
6 -2 11 7.18 0.96
6 -2 11 6.78 1.13
-6 2 -11 5.89 0.83
6 2 11 5.81 1
-6 2 -11 5.25 0.92
-8 -2 -11 1.6 0.66
8 -2 11 3.18 0.87
-8 -2 -11 0.89 0.51
8 2 11 1.7 0.72
-8 2 -11 2.62 0.72
-8 2 -11 1.22 0.5
-9 -3 11 0.5 0.54
9 -3 -11 -0.24 0.4
9 -3 -11 0.62 0.4
-9 -3 11 0.86 0.5
9 -3 -11 0.46 0.46
9 3 -11 1.34 0.49
9 3 -11 0.8 0.44
-9 3 11 -0.11 0.47
-7 -3 11 0.45 0.48
7 -3 -11 -0.18 0.4
7 -3 -11 0.31 0.41
7 3 -11 0.21 0.41
-7 3 11 0.17 0.44
7 3 -11 0.39 0.43
5 -3 -11 0.1 0.38
-5 -3 11 -0.34 0.38
5 -3 -11 0.16 0.61
5 3 -11 0.52 0.44
-5 3 11 -0.24 0.41
5 3 -11 0.11 0.38
-3 -3 11 2.8 0.64
3 3 -11 2.33 0.59
3 3 -11 1.66 0.59
-1 -3 11 4.84 0.79
1 3 -11 5.12 0.84
1 3 -11 5.61 0.79
1 -3 11 8.95 1.01
-1 -3 -11 7.75 0.96
1 -3 11 12.32 1.41
1 3 11 8.88 1.16
-1 3 -11 8.66 1.09
3 -3 11 2.1 0.61
3 -3 11 2.58 0.79
-3 -3 -11 4.02 1.15
-3 -3 -11 3.54 0.74
-3 3 -11 2.44 0.7
3 3 11 2.81 0.75
3 3 11 2.3 0.77
-5 -3 -11 -0.02 0.47
5 -3 11 0.06 0.41
5 -3 11 0.23 0.53
-5 -3 -11 0.08 0.44
-5 3 -11 -0.11 0.44
5 3 11 0.85 0.62
5 3 11 0.22 0.54
-7 -3 -11 0.67 0.52
7 -3 11 0.54 0.44
-7 -3 -11 0.41 0.55
7 -3 11 1.08 0.66
-7 3 -11 0.06 0.48
7 3 11 1.2 0.68
7 3 11 1.49 0.67
-7 3 -11 1.08 0.49
-6 -4 11 2.19 0.66
6 -4 -11 2.57 0.58
6 -4 -11 3.09 0.65
-6 4 11 2.46 0.64
6 4 -11 2.27 0.59
6 4 -11 3.01 0.66
4 -4 -11 1.91 0.53
-4 -4 11 1.61 0.56
4 -4 -11 1.47 0.51
4 4 -11 1.53 0.55
4 4 -11 1.32 0.5
-4 4 11 1.9 0.56
-2 -4 11 1.9 0.61
2 -4 -11 2.1 0.55
2 4 -11 1.41 0.56
2 4 -11 1.37 0.51
0 -4 11 5.3 0.86
0 -4 -11 4.71 0.79
0 4 -11 5.95 0.92
0 4 11 7.26 1.11
2 -4 11 15.59 1.56
-2 -4 -11 15.78 1.26
2 -4 11 12.26 1.17
2 4 11 15.43 1.53
-2 4 -11 16.98 1.33
4 -4 11 18.31 1.56
4 -4 11 19.9 1.38
-4 -4 -11 20.85 1.43
4 4 11 18.28 1.69
-4 4 -11 23.27 1.56
-3 -5 11 -0.04 0.43
3 -5 -11 -0.18 0.42
3 -5 -11 -0.15 0.38
3 5 -11 -0.22 0.39
3 5 -11 0.2 0.41
1 -5 -11 1.73 0.6
-1 -5 11 0.31 0.46
1 -5 -11 0.91 0.5
1 5 -11 1.71 0.58
-1 5 11 1.44 0.69
1 -5 11 0.18 0.47
-1 -5 -11 0.06 0.43
-1 -5 -11 0.34 0.48
1 5 11 0.07 0.62
-1 5 -11 0.8 0.54
loop_
_smtbx_masks_void_nr
_smtbx_masks_void_average_x
_smtbx_masks_void_average_y
_smtbx_masks_void_average_z
_smtbx_masks_void_volume
_smtbx_masks_void_count_electrons
1 0.000 0.000 -0.807 380.5 96.0
2 0.500 0.500 -0.468 380.5 96.0
