#------------------------------------------------------------------------------
#$Date: 2017-06-05 03:16:50 +0300 (Mon, 05 Jun 2017) $
#$Revision: 197407 $
#$URL: file:///home/coder/svn-repositories/cod/cif/4/12/59/4125932.cif $
#------------------------------------------------------------------------------
#
# This file is available in the Crystallography Open Database (COD),
# http://www.crystallography.net/
#
# All data on this site have been placed in the public domain by the
# contributors.
#
data_4125932
loop_
_publ_author_name
'Marshall, Ross J.'
'Kalinovskyy, Yaroslav'
'Griffin, Sarah L.'
'Wilson, Claire'
'Blight, Barry A.'
'Forgan, Ross S.'
_publ_section_title
;
 Functional Versatility of a Series of Zr Metal-Organic Frameworks Probed
 by Solid-State Photoluminescence Spectroscopy.
;
_journal_issue                   17
_journal_name_full               'Journal of the American Chemical Society'
_journal_page_first              6253
_journal_page_last               6260
_journal_paper_doi               10.1021/jacs.7b02184
_journal_volume                  139
_journal_year                    2017
_chemical_formula_moiety         'C H Cl3, C26 H16 F2 O4'
_chemical_formula_sum            'C27 H17 Cl3 F2 O4'
_chemical_formula_weight         549.76
_space_group_crystal_system      monoclinic
_space_group_IT_number           14
_space_group_name_Hall           '-P 2ybc'
_space_group_name_H-M_alt        'P 1 21/c 1'
_symmetry_space_group_name_Hall  '-P 2ybc'
_symmetry_space_group_name_H-M   'P 1 21/c 1'
_atom_sites_solution_hydrogens   geom
_atom_sites_solution_primary     iterative
_audit_creation_date             2016-06-10
_audit_creation_method
;
Olex2 1.2
(compiled 2016.02.19 svn.r3266 for OlexSys, GUI svn.r5155)
;
_cell_angle_alpha                90
_cell_angle_beta                 96.987(6)
_cell_angle_gamma                90
_cell_formula_units_Z            4
_cell_length_a                   22.110(4)
_cell_length_b                   8.8384(13)
_cell_length_c                   12.3459(19)
_cell_measurement_reflns_used    9936
_cell_measurement_temperature    100(2)
_cell_measurement_theta_max      25.03
_cell_measurement_theta_min      2.48
_cell_volume                     2394.7(7)
_computing_cell_refinement       'APEX2 (Bruker, 2013)'
_computing_data_collection       'Collect (Bruker AXS BV, 1997-2004)'
_computing_data_reduction        'APEX2 (Bruker, 2013)'
_computing_molecular_graphics    'Olex2 (Dolomanov et al., 2009)'
_computing_publication_material  'Olex2 (Dolomanov et al., 2009)'
_computing_structure_refinement  'ShelXL (Sheldrick, 2015)'
_computing_structure_solution
;
Superflip (Palatinus & Chapuis, 2007;Palatinus & van der Lee, 2008;
Palatinus et al., 2012)
;
_diffrn_ambient_temperature      100(2)
_diffrn_detector                 'CCD plate'
_diffrn_measured_fraction_theta_full 0.994
_diffrn_measured_fraction_theta_max 0.994
_diffrn_measurement_device_type  KappaCCD
_diffrn_measurement_method       '\f and \w scans'
_diffrn_radiation_type           MoK\a
_diffrn_radiation_wavelength     0.71073
_diffrn_reflns_av_R_equivalents  0.0519
_diffrn_reflns_av_unetI/netI     0.0367
_diffrn_reflns_Laue_measured_fraction_full 0.994
_diffrn_reflns_Laue_measured_fraction_max 0.994
_diffrn_reflns_limit_h_max       25
_diffrn_reflns_limit_h_min       -26
_diffrn_reflns_limit_k_max       10
_diffrn_reflns_limit_k_min       -10
_diffrn_reflns_limit_l_max       14
_diffrn_reflns_limit_l_min       -14
_diffrn_reflns_number            27885
_diffrn_reflns_point_group_measured_fraction_full 0.994
_diffrn_reflns_point_group_measured_fraction_max 0.994
_diffrn_reflns_theta_full        25.140
_diffrn_reflns_theta_max         25.140
_diffrn_reflns_theta_min         0.928
_diffrn_source                   'Enraf Nonius FR590'
_diffrn_standards_number         0
_exptl_absorpt_coefficient_mu    0.432
_exptl_absorpt_correction_T_max  0.7452
_exptl_absorpt_correction_T_min  0.5556
_exptl_absorpt_correction_type   multi-scan
_exptl_absorpt_process_details
;
SADABS-2014/5 (Bruker,2014/5) was used for absorption correction.
wR2(int) was 0.0837 before and 0.0646 after correction.
The Ratio of minimum to maximum transmission is 0.7456.
The \l/2 correction factor is Not present.
;
_exptl_crystal_colour            colourless
_exptl_crystal_density_diffrn    1.525
_exptl_crystal_description       rod
_exptl_crystal_F_000             1120
_exptl_crystal_size_max          0.62
_exptl_crystal_size_mid          0.08
_exptl_crystal_size_min          0.06
_refine_diff_density_max         0.493
_refine_diff_density_min         -0.429
_refine_diff_density_rms         0.069
_refine_ls_extinction_method     none
_refine_ls_goodness_of_fit_ref   1.067
_refine_ls_hydrogen_treatment    constr
_refine_ls_matrix_type           full
_refine_ls_number_parameters     327
_refine_ls_number_reflns         4269
_refine_ls_number_restraints     0
_refine_ls_restrained_S_all      1.067
_refine_ls_R_factor_all          0.0638
_refine_ls_R_factor_gt           0.0473
_refine_ls_shift/su_max          0.000
_refine_ls_shift/su_mean         0.000
_refine_ls_structure_factor_coef Fsqd
_refine_ls_weighting_details
'w=1/[\s^2^(Fo^2^)+(0.0550P)^2^+2.8380P] where P=(Fo^2^+2Fc^2^)/3'
_refine_ls_weighting_scheme      calc
_refine_ls_wR_factor_gt          0.1145
_refine_ls_wR_factor_ref         0.1234
_reflns_Friedel_coverage         0.000
_reflns_number_gt                3388
_reflns_number_total             4269
_reflns_threshold_expression     'I > 2\s(I)'
_cod_data_source_file            ja7b02184_si_003.cif
_cod_data_source_block           L3-Me2
_cod_depositor_comments
'Adding full bibliography for 4125932--4125938.cif.'
_cod_original_cell_volume        2394.6(6)
_cod_database_code               4125932
_shelx_space_group_comment
;
The symmetry employed for this shelxl refinement is uniquely defined
by the following loop, which should always be used as a source of
symmetry information in preference to the above space-group names.
They are only intended as comments.
;
_olex2_refinement_description
;
1. Fixed Uiso
 At 1.2 times of:
  All C(H) groups
 At 1.5 times of:
  All C(H,H,H) groups
2.a Ternary CH refined with riding coordinates:
 C27(H27)
2.b Aromatic/amide H refined with riding coordinates:
 C20(H20), C21(H21), C5(H5), C7(H7), C12(H12), C13(H13), C8(H8), C24(H24),
 C23(H23), C4(H4)
2.c Idealised Me refined as rotating group:
 C26(H26A,H26B,H26C), C1(H1A,H1B,H1C)
;
_shelx_res_file
;
    rjm_10_089_2.res created by SHELXL-2014/7

TITL RJM_10_089_2 in P2(1)/c
CELL 0.71073 22.1096 8.8384 12.3459 90 96.9866 90
ZERR 4 0.0036 0.0013 0.0019 0 0.006 0
LATT 1
SYMM -X,0.5+Y,0.5-Z
SFAC C H Cl F O
UNIT 108 68 12 8 16

L.S. 20
PLAN  20
fmap 2 53
MORE -1
BOND $H
ACTA 52
CONF
REM <olex2.extras>
REM <HklSrc "%.\\RJM_10_089_2.hkl">
REM </olex2.extras>

WGHT    0.055000    2.838000
FVAR       0.30494
CL1   3    0.457402    0.309780    0.465673    11.00000    0.02988    0.06050 =
         0.03038    0.00767    0.00371   -0.00105
CL3   3    0.492174    0.089062    0.634192    11.00000    0.03258    0.02794 =
         0.06891    0.00595   -0.00021    0.00357
CL2   3    0.411016    0.331018    0.673344    11.00000    0.05056    0.04658 =
         0.04755   -0.01193    0.02499    0.00326
F1    4    0.873484    0.024735    0.440348    11.00000    0.02194    0.02788 =
         0.01549   -0.00086   -0.00252   -0.00394
F2    4    0.954974    0.220927    0.383241    11.00000    0.02974    0.02927 =
         0.01070    0.00406    0.00355   -0.00328
O3    5    1.291349    0.909934    0.430749    11.00000    0.01960    0.02365 =
         0.01352   -0.00110    0.00240   -0.00834
O1    5    0.647866   -0.622753    0.850321    11.00000    0.02232    0.02279 =
         0.01497    0.00080    0.00433   -0.00709
O4    5    1.264010    0.845725    0.255612    11.00000    0.02180    0.03043 =
         0.01100    0.00142    0.00415   -0.00170
O2    5    0.611551   -0.633575    0.672099    11.00000    0.02242    0.02462 =
         0.01963   -0.00062   -0.00103   -0.00485
C27   1    0.473967    0.279232    0.606385    11.00000    0.02357    0.02591 =
         0.02823   -0.00382    0.00368   -0.00433
AFIX  13
H27   2    0.508942    0.342076    0.634294    11.00000   -1.20000
AFIX   0

C22   1    1.211626    0.733665    0.393593    11.00000    0.01797    0.01337 =
         0.01359   -0.00137    0.00331    0.00195
C16   1    0.917631    0.073469    0.516676    11.00000    0.01524    0.01404 =
         0.01565   -0.00373    0.00005    0.00128
C25   1    1.257229    0.834732    0.351482    11.00000    0.01472    0.01711 =
         0.01406    0.00023    0.00047    0.00353
C20   1    1.173299    0.596009    0.538951    11.00000    0.01960    0.01787 =
         0.01082    0.00020    0.00342    0.00060
AFIX  43
H20   2    1.175750    0.570883    0.612505    11.00000   -1.20000
AFIX   0
C14   1    1.006795    0.228908    0.562580    11.00000    0.01809    0.01305 =
         0.01711   -0.00194    0.00593    0.00111
C11   1    0.919663    0.021954    0.623922    11.00000    0.01844    0.01126 =
         0.01698    0.00016    0.00615    0.00250
C3    1    0.694793   -0.469166    0.730648    11.00000    0.01610    0.01431 =
         0.01638   -0.00003    0.00405    0.00329
C15   1    0.959950    0.174469    0.487592    11.00000    0.02031    0.01821 =
         0.01024    0.00199    0.00458    0.00268
C21   1    1.214324    0.697729    0.504373    11.00000    0.01710    0.01740 =
         0.01115   -0.00279    0.00146    0.00024
AFIX  43
H21   2    1.243706    0.742265    0.554706    11.00000   -1.20000
AFIX   0
C5    1    0.779823   -0.311775    0.799748    11.00000    0.01735    0.02128 =
         0.01645   -0.00232    0.00201   -0.00067
AFIX  43
H5    2    0.806072   -0.274611    0.858282    11.00000   -1.20000
AFIX   0
C19   1    1.128002    0.530242    0.464334    11.00000    0.01600    0.01364 =
         0.01853   -0.00171    0.00546    0.00219
C6    1    0.786169   -0.264428    0.693291    11.00000    0.01673    0.01400 =
         0.01964    0.00184    0.00502    0.00195
C7    1    0.746152   -0.321008    0.606424    11.00000    0.02205    0.01906 =
         0.01353    0.00311    0.00547    0.00421
AFIX  43
H7    2    0.750175   -0.290571    0.535547    11.00000   -1.20000
AFIX   0
C17   1    1.049919    0.334571    0.528765    11.00000    0.01901    0.01695 =
         0.01702   -0.00265    0.00195    0.00106
C12   1    0.967247    0.075228    0.699836    11.00000    0.02282    0.01589 =
         0.01290    0.00041    0.00380    0.00186
AFIX  43
H12   2    0.970221    0.041498    0.771641    11.00000   -1.20000
AFIX   0
C13   1    1.009660    0.176460    0.670241    11.00000    0.01860    0.01846 =
         0.01588   -0.00282    0.00050    0.00229
AFIX  43
H13   2    1.040596    0.210459    0.722345    11.00000   -1.20000
AFIX   0
C18   1    1.085465    0.424185    0.499729    11.00000    0.01877    0.01691 =
         0.01475   -0.00261    0.00052    0.00215
C8    1    0.700724   -0.421563    0.624655    11.00000    0.02000    0.01817 =
         0.01382   -0.00044    0.00015    0.00247
AFIX  43
H8    2    0.674053   -0.457623    0.566305    11.00000   -1.20000
AFIX   0
C24   1    1.125134    0.568596    0.353296    11.00000    0.01640    0.02051 =
         0.01390   -0.00247   -0.00127    0.00141
AFIX  43
H24   2    1.095065    0.526684    0.302960    11.00000   -1.20000
AFIX   0
C23   1    1.166829    0.668234    0.318937    11.00000    0.01719    0.01926 =
         0.01094    0.00126    0.00103    0.00310
AFIX  43
H23   2    1.165051    0.692023    0.245240    11.00000   -1.20000
AFIX   0
C2    1    0.647082   -0.581734    0.745871    11.00000    0.01546    0.01642 =
         0.01689   -0.00033    0.00301    0.00245
C4    1    0.734866   -0.413063    0.817814    11.00000    0.02118    0.01860 =
         0.01260    0.00069    0.00356    0.00143
AFIX  43
H4    2    0.731087   -0.444492    0.888566    11.00000   -1.20000
AFIX   0
C9    1    0.833749   -0.161979    0.672357    11.00000    0.02135    0.01657 =
         0.01688    0.00084    0.00285    0.00335
C10   1    0.873668   -0.078972    0.652043    11.00000    0.02133    0.01853 =
         0.01450   -0.00098    0.00215    0.00258
C26   1    1.340968    0.997343    0.397118    11.00000    0.02223    0.02219 =
         0.02228    0.00085    0.00623   -0.00710
AFIX 137
H26A  2    1.325488    1.065981    0.340130    11.00000   -1.50000
H26B  2    1.370089    0.930509    0.370635    11.00000   -1.50000
H26C  2    1.360327    1.053670    0.458222    11.00000   -1.50000
AFIX   0
C1    1    0.608187   -0.745888    0.871632    11.00000    0.02998    0.02689 =
         0.02297    0.00421    0.00665   -0.00980
AFIX 137
H1A   2    0.619228   -0.834825    0.833946    11.00000   -1.50000
H1B   2    0.566762   -0.719208    0.846501    11.00000   -1.50000
H1C   2    0.612155   -0.765604    0.948637    11.00000   -1.50000
AFIX   0
HKLF 4

REM  RJM_10_089_2 in P2(1)/c
REM R1 =  0.0473 for    3388 Fo > 4sig(Fo)  and  0.0638 for all    4269 data
REM    327 parameters refined using      0 restraints

END

WGHT      0.0545      2.8462

REM Highest difference peak  0.493,  deepest hole -0.429,  1-sigma level  0.069
Q1    1   0.4522  0.4153  0.4841  11.00000  0.05    0.49
Q2    1   0.4191  0.4526  0.6630  11.00000  0.05    0.28
Q3    1   1.0013  0.0832  0.6794  11.00000  0.05    0.28
Q4    1   0.4846 -0.0402  0.6401  11.00000  0.05    0.26
Q5    1   1.2017  0.6876  0.3529  11.00000  0.05    0.26
Q6    1   0.9977  0.1785  0.5193  11.00000  0.05    0.26
Q7    1   0.8407 -0.0572  0.6529  11.00000  0.05    0.25
Q8    1   1.0551  0.2601  0.7230  11.00000  0.05    0.25
Q9    1   0.8224 -0.2603  0.6821  11.00000  0.05    0.25
Q10   1   0.9259  0.1618  0.5066  11.00000  0.05    0.24
Q11   1   0.8743 -0.1041  0.6964  11.00000  0.05    0.23
Q12   1   0.4972  0.1080  0.5656  11.00000  0.05    0.23
Q13   1   0.5429  0.1548  0.6522  11.00000  0.05    0.23
Q14   1   0.5114  0.2156  0.6276  11.00000  0.05    0.23
Q15   1   0.6823 -0.5533  0.7376  11.00000  0.05    0.23
Q16   1   0.7359 -0.3191  0.8118  11.00000  0.05    0.23
Q17   1   1.3009  0.7797  0.4307  11.00000  0.05    0.23
Q18   1   1.0481  0.1780  0.6878  11.00000  0.05    0.23
Q19   1   0.4971  0.3025  0.4797  11.00000  0.05    0.21
Q20   1   0.4600  0.3253  0.6640  11.00000  0.05    0.21
;
_shelx_res_checksum              96039
_shelx_hkl_file
;
   0   0   1   -0.10    0.20
   0   0  -1   -0.20    0.50
   0   0  -1   -0.10    0.30
   0   0  -1    0.00    0.50
   0   0  -1    0.30    0.50
   0   0   1    0.10    0.30
   0   0   1    0.00    0.50
   0   0   1   -0.20    0.20
   0   0   2   33.80    2.60
   0   0   2   35.60    2.50
   0   0   2   32.50    2.30
   0   0   2   31.80    2.30
   0   0  -2   36.00    2.60
   0   0  -2   31.60    2.60
   0   0  -2   33.20    2.60
   0   0  -2   33.00    2.60
   0   0   3    0.20    1.10
   0   0  -3    2.30    1.60
   0   0  -3    3.80    1.60
   0   0  -3    0.30    1.60
   0   0  -3    2.70    1.70
   0   0   3    1.20    1.40
   0   0   3    1.70    1.20
   0   0   3    0.20    1.40
   0   0   4  897.01   46.60
   0   0   4  872.01   46.70
   0   0  -4  890.61   46.70
   0   0  -4 1040.50   46.90
   0   0  -4  940.91   46.60
   0   0   4  899.91   46.70
   0   0   4  920.81   46.60
   0   0   5   -1.20    1.40
   0   0   5    1.00    1.90
   0   0  -5    2.80    2.00
   0   0  -5    2.20    2.20
   0   0  -5    1.90    2.00
   0   0   5    0.80    1.70
   0   0  -5    1.40    2.10
   0   0   5    0.50    1.50
   0   0  -6 1288.47   66.69
   0   0  -6 1333.37   66.59
   0   0   6 1223.68   66.59
   0   0  -6 1283.37   66.59
   0   0   6 1329.57   66.59
   0   0  -6 1487.45   66.99
   0   0   6 1291.27   66.79
   0   0   6 1309.77   66.79
   0   0   7   -1.10    1.90
   0   0  -7    0.60    2.70
   0   0   7   -0.30    1.80
   0   0  -7   -0.30    2.40
   0   0   7    0.30    1.70
   0   0  -7   -2.10    2.20
   0   0   8   58.49    5.20
   0   0  -8   68.59    6.00
   0   0  -8   54.79    5.50
   0   0   8   64.29    5.40
   0   0  -8   54.29    5.40
   0   0  -9   -3.00    2.70
   0   0   9   -1.30    2.30
   0   0   9   -1.80    2.00
   0   0  -9   -1.60    3.00
   0   0  -9   -1.90    2.80
   0   0 -10  107.59    7.80
   0   0  10  100.09    7.60
   0   0 -10  106.59    8.20
   0   0 -10  101.19    7.70
   0   0  10  101.99    7.50
   0   0 -11    3.70    3.40
   0   0 -11    1.30    3.50
   0   0 -11   -0.30    3.50
   0   0  11   -0.30    2.40
   0   0 -12   -1.60    3.50
   0   0 -12    1.10    3.70
   0   0 -12   -4.20    3.40
   0   0  12    0.20    2.80
   0   0  13   -4.60    2.80
   0   0 -13   -8.30    3.50
   0   0 -13    7.00    4.40
   0   0 -14  108.89    9.60
   0   0 -14  125.39    9.90
   0   0  14  111.39    9.30
   0   1   0   -0.20    0.80
   0  -1   0    0.40    0.30
   0  -1   0    0.30    0.40
   0  -1   0    0.20    0.60
   0  -1   0   -0.40    0.70
   0   1  -1  203.88   10.40
   0   1   1  185.78   10.70
   0   1  -1  199.38   10.30
   0   1   1  206.48   10.40
   0   1   1  202.88   10.40
   0   1  -1  218.88   10.60
   0   1   1  209.88   10.50
   0  -1  -1  199.08   10.40
   0  -1  -1  217.18   10.60
   0  -1   1  212.58   10.40
   0  -1  -1  194.48   10.80
   0  -1  -1  206.58   10.40
   0  -1   1  189.28   10.30
   0  -1   1  219.28   10.50
   0   1   2  507.65   25.70
   0   1   2  505.65   25.80
   0   1  -2  514.85   25.70
   0   1   2  523.05   25.70
   0   1  -2  517.55   25.80
   0   1  -2  543.05   25.60
   0   1   2  499.15   26.00
   0   1  -2  492.45   25.80
   0  -1  -2  509.15   25.70
   0  -1  -2  497.25   25.80
   0  -1   2  489.55   25.70
   0  -1   2  466.75   25.60
   0  -1   2  509.95   25.60
   0  -1  -2  521.55   25.90
   0  -1  -2  499.75   26.10
   0  -1   2  547.65   25.80
   0   1   3  772.22   39.40
   0   1   3  749.03   39.60
   0   1  -3  857.61   39.50
   0   1  -3  773.92   39.40
   0   1  -3  729.73   39.20
   0   1  -3  808.12   39.20
   0   1   3  790.32   39.40
   0   1   3  705.93   39.30
   0  -1   3  882.71   39.50
   0  -1  -3  775.42   39.40
   0  -1  -3  775.22   39.40
   0  -1  -3  717.13   39.60
   0  -1   3  789.02   39.40
   0  -1  -3  783.32   39.30
   0  -1   3  792.42   39.20
   0  -1   3  766.92   39.30
   0   1   4 1018.30   50.79
   0   1  -4 1013.40   50.29
   0   1   4 1007.60   50.39
   0   1   4  981.40   50.49
   0   1  -4  973.40   50.49
   0   1   4  940.81   50.49
   0   1  -4  999.10   50.29
   0   1  -4 1047.90   50.49
   0  -1  -4  949.21   50.49
   0  -1   4  989.70   50.29
   0  -1   4 1002.30   50.29
   0  -1  -4  980.50   50.49
   0  -1  -4 1067.59   50.79
   0  -1   4 1095.99   50.59
   0  -1   4  953.30   50.49
   0  -1  -4  956.50   50.39
   0   1   5  419.86   23.40
   0   1   5  440.96   23.20
   0   1   5  458.45   23.20
   0   1  -5  470.75   23.30
   0   1   5  446.46   23.10
   0   1  -5  458.15   22.90
   0   1  -5  449.86   23.20
   0   1  -5  443.06   23.00
   0  -1   5  475.55   23.20
   0  -1  -5  420.16   23.10
   0  -1  -5  455.85   23.20
   0  -1   5  446.46   23.00
   0  -1   5  451.85   23.20
   0  -1  -5  454.75   23.20
   0  -1  -5  408.26   23.40
   0  -1   5  448.86   22.90
   0   1   6   11.90    2.60
   0   1  -6   12.10    2.50
   0   1   6   13.10    2.10
   0   1   6   12.20    2.60
   0   1  -6   13.80    2.70
   0   1   6   10.70    2.40
   0   1  -6   12.90    2.80
   0   1  -6   14.30    2.50
   0  -1   6   12.30    2.00
   0  -1   6   13.20    2.50
   0  -1  -6    7.80    2.50
   0  -1   6   10.20    1.90
   0  -1  -6   12.60    3.20
   0  -1  -6   11.10    2.80
   0  -1  -6    9.10    2.50
   0  -1   6   11.60    2.30
   0   1   7    0.60    1.40
   0   1   7    0.70    2.10
   0   1  -7   -1.30    2.30
   0   1  -7    0.90    2.30
   0   1  -7    2.60    2.10
   0   1   7    1.40    2.00
   0  -1   7    1.40    1.60
   0  -1   7    0.80    1.80
   0  -1  -7    0.50    2.40
   0  -1   7    1.90    2.00
   0  -1  -7    2.40    2.90
   0  -1  -7   -0.20    2.60
   0   1  -8   16.50    2.90
   0   1   8   17.00    3.00
   0   1  -8   11.40    2.90
   0   1   8   17.60    3.00
   0   1  -8   14.40    3.00
   0  -1  -8   16.50    3.70
   0  -1  -8   17.70    3.40
   0  -1   8   13.90    2.70
   0  -1   8   15.20    2.40
   0  -1  -8   14.10    3.00
   0  -1   8   14.20    2.80
   0   1  -9   12.70    3.00
   0   1  -9    7.40    2.90
   0   1  -9    7.80    2.80
   0   1   9    7.70    2.70
   0   1   9    9.80    2.80
   0  -1   9    7.90    2.40
   0  -1  -9    7.40    3.60
   0  -1   9   10.50    2.90
   0  -1  -9    5.50    3.10
   0  -1  -9    8.20    3.50
   0   1 -10  336.97   18.60
   0   1 -10  350.26   18.50
   0   1  10  323.77   18.70
   0   1 -10  331.57   18.70
   0  -1 -10  317.97   18.60
   0  -1  10  323.57   18.60
   0  -1  10  331.97   18.80
   0  -1 -10  372.86   19.60
   0  -1 -10  344.37   18.80
   0   1 -11    3.60    3.30
   0   1  11    3.90    2.90
   0   1 -11    1.60    3.00
   0   1 -11    2.20    2.80
   0  -1 -11   -1.00    4.10
   0  -1 -11   -0.60    4.00
   0  -1  11   -2.70    2.50
   0  -1 -11    2.30    3.50
   0   1 -12    8.40    3.10
   0   1 -12    1.90    3.60
   0   1 -12    3.90    3.40
   0   1  12    4.50    3.10
   0  -1 -12   -2.60    4.40
   0  -1  12    3.30    3.10
   0  -1 -12    4.50    4.20
   0  -1 -12    1.50    3.80
   0   1  13   13.20    3.80
   0   1 -13   18.60    4.20
   0   1 -13   16.70    4.20
   0  -1 -13   10.10    4.30
   0  -1  13   12.00    3.60
   0  -1 -13    0.70    4.70
   0  -1 -13   14.10    5.00
   0   1 -14    5.20    3.60
   0   1 -14    1.10    4.00
   0   1  14    2.70    3.40
   0  -1  14    3.50    3.10
   0  -1 -14    6.00    4.50
   0  -1 -14    6.70    5.00
   0   2   0  452.75   24.10
   0  -2   0  488.15   23.90
   0  -2   0  474.45   23.70
   0  -2   0  468.25   23.70
   0  -2   0  479.35   24.10
   0   2  -1   15.90    1.80
   0   2  -1   16.90    2.10
   0   2   1   20.10    2.00
   0   2   1   24.00    2.40
   0   2  -1   20.90    1.60
   0   2   1   20.50    1.90
   0   2   1   17.70    1.60
   0  -2  -1   19.50    2.00
   0  -2  -1   16.90    1.60
   0  -2   1   18.60    2.10
   0  -2  -1   21.70    2.30
   0  -2   1   19.60    1.60
   0  -2  -1   18.90    2.00
   0  -2  -1   18.60    2.60
   0  -2   1   17.20    1.50
   0   2   2    0.80    1.10
   0   2   2    1.00    1.70
   0   2   2    1.50    1.20
   0   2  -2    2.10    1.20
   0   2  -2    0.00    1.70
   0   2   2    2.10    1.50
   0   2  -2    2.00    0.90
   0  -2   2    1.80    0.80
   0  -2  -2    1.30    1.40
   0  -2   2    2.30    1.00
   0  -2  -2    0.90    1.60
   0  -2   2    2.90    1.20
   0  -2  -2    2.80    1.50
   0  -2   2    2.10    1.50
   0  -2  -2    2.30    1.20
   0  -2  -2   -0.70    2.20
   0   2   3  141.69    7.50
   0   2  -3  142.69    7.80
   0   2  -3  140.39    7.30
   0   2   3  136.79    8.30
   0   2  -3  128.79    7.60
   0   2  -3  145.49    7.30
   0   2   3  128.99    7.80
   0   2   3  143.39    7.50
   0  -2  -3  131.99    7.70
   0  -2  -3  133.39    7.90
   0  -2   3  146.29    7.80
   0  -2   3  125.49    7.50
   0  -2  -3  127.59    8.40
   0  -2   3  137.79    7.20
   0  -2   3  133.89    7.30
   0  -2  -3  126.09    7.50
   0   2   4    9.10    2.00
   0   2  -4   11.40    2.20
   0   2  -4   11.60    1.80
   0   2   4    8.60    1.70
   0   2   4   12.30    2.60
   0   2   4   10.60    2.00
   0   2  -4   14.10    2.40
   0   2  -4   10.50    2.20
   0   2  -4   10.90    1.60
   0  -2   4   12.80    1.60
   0  -2   4   15.70    2.10
   0  -2  -4   11.80    2.60
   0  -2  -4   10.60    2.90
   0  -2  -4   13.10    2.10
   0  -2   4   11.30    1.60
   0  -2   4   11.20    2.20
   0  -2  -4   11.60    2.20
   0   2   5  642.24   32.40
   0   2   5  638.74   32.60
   0   2  -5  614.74   32.40
   0   2   5  592.74   32.90
   0   2   5  640.34   32.40
   0   2  -5  654.53   32.20
   0   2  -5  613.74   32.50
   0   2  -5  668.93   32.10
   0  -2   5  621.34   32.20
   0  -2   5  686.23   32.60
   0  -2  -5  624.24   32.60
   0  -2  -5  585.44   32.30
   0  -2   5  646.74   32.10
   0  -2  -5  598.94   32.40
   0  -2   5  646.34   32.40
   0  -2  -5  641.34   33.10
   0   2   6  135.59    9.10
   0   2   6  147.09    8.60
   0   2  -6  138.59    8.70
   0   2  -6  152.18    8.50
   0   2  -6  151.98    8.20
   0   2  -6  143.59    8.70
   0   2   6  144.19    8.60
   0  -2   6  155.98    9.00
   0  -2  -6  147.89    9.60
   0  -2  -6  150.58    9.10
   0  -2   6  154.08    8.30
   0  -2   6  147.79    8.70
   0  -2   6  149.59    8.20
   0  -2  -6  133.79    8.80
   0  -2  -6  144.69    8.60
   0   2   7  111.79    7.30
   0   2  -7  119.99    6.80
   0   2  -7  113.19    7.20
   0   2   7  119.19    7.90
   0   2  -7  117.29    7.30
   0  -2   7  115.99    7.40
   0  -2   7   96.89    6.80
   0  -2  -7  118.99    7.90
   0  -2   7  110.79    6.80
   0  -2  -7  112.29    7.40
   0  -2   7  109.89    7.30
   0  -2  -7  117.19    8.30
   0   2  -8    7.10    2.30
   0   2  -8    5.80    2.50
   0   2  -8    4.10    2.40
   0   2   8    4.00    2.40
   0  -2  -8    4.50    3.30
   0  -2   8    4.90    1.80
   0  -2   8    4.80    2.30
   0  -2   8    3.50    2.40
   0  -2  -8    5.50    2.80
   0  -2  -8    4.80    3.70
   0   2  -9   18.20    3.20
   0   2  -9   25.20    3.20
   0   2  -9   17.70    3.30
   0   2   9   20.10    3.30
   0  -2   9   22.50    3.40
   0  -2   9   15.10    2.90
   0  -2  -9    9.40    3.40
   0  -2  -9   19.60    4.20
   0  -2  -9   22.00    4.60
   0  -2   9   18.70    2.50
   0   2 -10   72.19    6.10
   0   2 -10   73.69    6.20
   0   2  10   77.79    6.50
   0   2 -10   76.29    6.70
   0  -2  10   73.09    6.60
   0  -2 -10   65.29    6.90
   0  -2 -10   73.39    8.20
   0  -2 -10   80.79    8.00
   0   2 -11  103.49    7.30
   0   2  11   95.79    7.80
   0   2 -11   94.09    7.90
   0   2 -11  103.49    7.40
   0  -2 -11   94.09    8.10
   0  -2  11   96.89    7.80
   0  -2 -11  103.79    8.70
   0  -2 -11  102.59    9.70
   0   2  12   -1.10    2.90
   0   2 -12   -5.50    3.30
   0   2 -12   -1.40    2.90
   0  -2 -12   -7.00    4.70
   0  -2 -12    1.00    3.90
   0  -2 -12    0.70    4.50
   0  -2  12    0.70    2.90
   0   2 -13   34.30    5.00
   0   2  13   26.60    4.80
   0   2 -13   38.80    4.40
   0  -2 -13   38.00    5.90
   0  -2 -13   26.80    6.50
   0  -2 -13   33.60    5.40
   0  -2  13   26.00    4.60
   0   2  14   71.69    7.40
   0   2 -14   67.59    6.80
   0  -2 -14   80.49    7.40
   0  -2  14   70.69    7.40
   0  -2 -14   67.09    8.10
   0   3   0    0.60    1.90
   0  -3   0   -0.30    0.80
   0  -3   0   -1.40    1.80
   0  -3   0    0.80    1.40
   0  -3   0    1.00    0.80
   0   3   1  642.54   32.90
   0   3  -1  630.94   32.40
   0   3  -1  644.14   32.40
   0   3   1  659.33   32.80
   0   3  -1  671.23   33.00
   0   3   1  647.64   32.50
   0  -3  -1  664.73   32.90
   0  -3  -1  642.24   32.50
   0  -3  -1  626.34   32.80
   0  -3   1  624.94   32.40
   0  -3   1  646.74   32.90
   0  -3  -1  680.53   32.40
   0  -3   1  652.53   32.40
   0  -3  -1  600.74   33.40
   0   3   2  478.15   24.00
   0   3   2  494.35   24.20
   0   3  -2  480.65   24.00
   0   3   2  478.15   24.50
   0   3  -2  468.35   24.10
   0   3  -2  481.05   24.60
   0  -3   2  476.55   24.00
   0  -3  -2  449.26   25.10
   0  -3  -2  482.25   24.10
   0  -3  -2  478.75   24.50
   0  -3   2  434.16   24.40
   0  -3  -2  489.25   24.20
   0  -3  -2  464.55   24.50
   0  -3   2  499.95   24.10
   0   3  -3   76.29    4.40
   0   3  -3   73.29    4.80
   0   3   3   75.49    4.70
   0   3   3   71.39    5.30
   0   3   3   78.29    4.90
   0   3  -3   74.89    5.60
   0  -3   3   76.39    5.50
   0  -3   3   74.29    4.50
   0  -3  -3   73.29    5.40
   0  -3  -3   70.59    4.90
   0  -3   3   81.19    4.80
   0  -3   3   81.19    5.20
   0  -3  -3   77.99    6.50
   0  -3  -3   71.69    5.30
   0  -3   3   74.09    4.40
   0  -3  -3   81.59    4.80
   0   3   4   46.40    3.90
   0   3  -4   39.70    4.00
   0   3   4   44.80    4.30
   0   3  -4   49.20    4.40
   0   3   4   48.20    5.20
   0   3   4   41.80    3.60
   0   3  -4   44.20    3.40
   0  -3   4   46.30    3.80
   0  -3   4   44.40    3.20
   0  -3  -4   41.90    3.80
   0  -3   4   41.00    4.30
   0  -3   4   47.20    3.20
   0  -3  -4   43.70    4.20
   0  -3  -4   43.20    4.70
   0  -3  -4   43.70    5.70
   0   3   5    0.10    2.50
   0   3  -5   -1.00    1.90
   0   3   5   -0.30    1.60
   0   3  -5   -0.40    1.60
   0   3   5   -0.20    1.50
   0   3   5   -1.30    1.80
   0  -3   5   -0.90    2.20
   0  -3   5   -0.50    1.30
   0  -3  -5   -4.50    2.50
   0  -3   5   -0.20    1.90
   0  -3  -5   -1.40    1.90
   0  -3   5   -0.50    1.30
   0  -3  -5    1.80    2.20
   0  -3  -5    1.00    3.10
   0   3   6    0.80    2.00
   0   3  -6   -1.10    1.80
   0   3   6    0.80    2.30
   0   3  -6    3.30    2.60
   0   3  -6   -0.80    2.00
   0   3  -6   -0.70    1.80
   0  -3   6   -0.80    1.30
   0  -3  -6   -1.70    2.30
   0  -3   6   -1.00    1.80
   0  -3  -6    1.90    3.40
   0  -3   6   -0.40    2.30
   0  -3   6    0.30    1.30
   0  -3  -6    1.40    2.90
   0  -3  -6   -0.10    2.00
   0   3  -7    6.60    2.90
   0   3  -7    4.40    2.10
   0   3   7    7.00    2.20
   0   3  -7    3.90    2.00
   0  -3  -7    4.60    3.60
   0  -3  -7    8.70    2.80
   0  -3   7    4.70    1.60
   0  -3   7    3.60    2.20
   0  -3  -7    4.50    3.00
   0  -3   7    4.10    1.60
   0  -3   7    3.50    2.60
   0   3  -8   25.50    3.00
   0   3  -8   22.90    3.50
   0   3  -8   23.80    3.90
   0   3  -8   24.20    3.10
   0   3   8   24.80    3.30
   0  -3  -8   21.90    3.40
   0  -3   8   21.40    2.60
   0  -3   8   24.70    3.40
   0  -3   8   15.90    3.40
   0   3  -9   35.00    4.80
   0   3  -9   45.40    5.10
   0   3   9   37.30    4.30
   0   3  -9   38.90    3.80
   0   3  -9   35.70    3.90
   0  -3  -9   38.10    4.50
   0  -3  -9   42.80    5.10
   0  -3   9   43.10    4.60
   0  -3   9   31.30    4.10
   0  -3  -9   53.39    7.10
   0  -3   9   28.00    3.30
   0   3 -10   23.10    3.70
   0   3  10   20.40    3.60
   0   3 -10   30.50    4.70
   0   3 -10   21.80    3.30
   0   3 -10   19.50    3.50
   0  -3 -10   15.30    4.70
   0  -3 -10   23.40    5.60
   0  -3  10   20.00    3.70
   0  -3 -10   14.90    4.00
   0   3 -11   38.30    5.50
   0   3 -11   43.40    4.80
   0   3 -11   35.90    4.90
   0   3 -11   46.10    5.00
   0   3  11   37.50    4.80
   0  -3  11   38.90    4.80
   0  -3 -11   56.89    6.50
   0  -3 -11   59.79    8.60
   0   3 -12   24.90    3.40
   0   3 -12   22.50    4.30
   0   3  12   25.40    4.30
   0   3 -12   17.10    4.80
   0  -3 -12   19.00    4.50
   0  -3 -12   24.30    6.50
   0  -3  12   25.50    4.40
   0  -3 -12   28.50    5.90
   0   3  13  100.69    9.00
   0   3 -13  102.59    9.20
   0   3 -13  112.19    8.80
   0  -3 -13   99.59    9.90
   0  -3  13  111.79    8.70
   0  -3 -13   92.49    8.90
   0  -3 -13   89.79   11.40
   0   3 -14    3.80    4.10
   0   3 -14    3.60    4.40
   0  -3 -14    2.10    5.80
   0  -3 -14    0.70    4.40
   0   4   0  165.28    9.20
   0  -4   0  149.29    8.60
   0  -4   0  149.88    8.90
   0  -4   0  154.48    8.00
   0  -4   0  148.29    8.00
   0   4   1  207.28   11.20
   0   4  -1  187.18   10.10
   0   4  -1  192.28   11.10
   0  -4  -1  197.28   12.10
   0  -4  -1  199.68   10.30
   0  -4   1  199.28   10.50
   0  -4  -1  205.18   10.90
   0  -4  -1  187.98   10.20
   0  -4   1  186.28   10.90
   0  -4   1  201.48   10.10
   0   4  -2  289.37   14.70
   0   4   2  287.87   14.60
   0   4  -2  288.97   14.60
   0   4   2  294.27   14.90
   0   4   2  287.87   15.30
   0   4  -2  276.67   15.50
   0  -4  -2  292.17   14.90
   0  -4  -2  296.67   15.50
   0  -4  -2  272.97   16.20
   0  -4   2  255.37   15.20
   0  -4  -2  308.37   14.60
   0  -4   2  292.27   14.70
   0  -4   2  282.47   14.60
   0  -4  -2  274.27   15.50
   0   4   3   51.69    3.70
   0   4   3   55.99    4.60
   0   4   3   51.09    3.90
   0   4  -3   55.39    5.00
   0   4  -3   57.59    3.90
   0   4  -3   53.39    3.50
   0  -4  -3   50.29    4.60
   0  -4  -3   51.09    3.70
   0  -4  -3   51.29    6.20
   0  -4   3   60.99    3.90
   0  -4   3   56.49    3.40
   0  -4  -3   61.99    4.30
   0  -4  -3   51.39    5.00
   0  -4   3   56.79    4.60
   0   4  -4    2.90    1.30
   0   4   4    0.30    1.90
   0   4   4    1.30    1.70
   0   4  -4    6.60    2.50
   0   4   4    0.10    1.50
   0  -4   4    4.20    2.10
   0  -4   4    3.40    1.20
   0  -4  -4    2.40    1.70
   0  -4  -4    0.90    2.50
   0  -4   4    1.90    2.20
   0  -4  -4    1.60    2.10
   0  -4  -4    1.50    1.90
   0  -4   4    4.10    1.80
   0  -4  -4    4.70    3.60
   0   4  -5  382.86   20.30
   0   4  -5  387.06   19.70
   0   4   5  338.67   19.60
   0   4  -5  359.06   19.30
   0   4   5  388.86   19.60
   0  -4   5  366.46   19.30
   0  -4  -5  379.46   19.80
   0  -4  -5  426.86   21.40
   0  -4   5  358.36   19.30
   0  -4   5  381.06   19.70
   0  -4  -5  349.57   19.60
   0  -4  -5  406.26   20.30
   0  -4   5  370.86   20.20
   0   4  -6  589.64   29.70
   0   4  -6  590.24   30.00
   0   4   6  567.34   29.90
   0   4  -6  537.15   30.30
   0  -4   6  602.24   30.10
   0  -4   6  571.04   29.60
   0  -4  -6  595.84   31.50
   0  -4   6  585.34   29.70
   0  -4   6  577.74   30.40
   0  -4  -6  561.24   29.90
   0  -4  -6  613.64   30.50
   0  -4  -6  580.94   30.10
   0   4  -7   16.00    3.40
   0   4   7    5.30    2.20
   0   4  -7    4.10    2.10
   0  -4  -7    7.90    2.80
   0  -4  -7    6.90    4.30
   0  -4  -7    6.40    3.50
   0  -4   7    4.20    1.70
   0  -4   7    7.40    2.80
   0  -4   7    4.40    1.70
   0  -4   7    6.10    2.40
   0   4  -8    1.90    2.40
   0   4  -8    3.70    3.30
   0   4   8   -0.10    2.30
   0  -4   8    3.90    1.90
   0  -4  -8    6.50    3.90
   0  -4  -8    4.30    2.90
   0  -4   8    4.20    3.20
   0  -4   8    4.40    2.50
   0  -4  -8    2.10    4.30
   0   4  -9   53.99    5.00
   0   4  -9   50.79    4.70
   0   4  -9   50.09    5.60
   0   4   9   57.99    5.60
   0  -4  -9   76.89    8.70
   0  -4   9   49.00    5.10
   0  -4  -9   61.59    6.20
   0  -4  -9   69.19    7.40
   0   4 -10   96.29    7.20
   0   4 -10   85.99    7.90
   0   4  10   93.39    7.20
   0   4 -10   91.29    6.50
   0  -4 -10   94.29    7.80
   0  -4 -10  115.69   10.30
   0  -4  10   90.39    7.40
   0  -4 -10   99.89    9.00
   0   4 -11   62.29    7.30
   0   4 -11   68.39    6.50
   0   4  11   66.59    6.50
   0  -4  11   71.59    7.20
   0  -4 -11   78.99    7.40
   0  -4 -11   97.89    9.00
   0   4 -12  135.69   10.70
   0   4  12  149.59   10.10
   0   4 -12  140.69    9.80
   0  -4 -12  141.89   13.00
   0  -4  12  152.28   10.80
   0  -4 -12  136.79   11.40
   0  -4 -12  149.88   10.50
   0   4  13    4.30    3.80
   0   4 -13    5.90    4.20
   0   4 -13   -1.50    3.70
   0  -4  13    2.60    3.50
   0  -4 -13    1.90    4.30
   0  -4 -13    7.10    6.10
   0  -4 -13    9.10    6.60
   0   5   0    0.60    2.50
   0  -5   0   -2.80    2.00
   0  -5   0   -0.70    1.00
   0  -5   0   -2.80    1.00
   0  -5   0   -2.30    2.80
   0  -5   1  211.38   10.60
   0  -5   1  178.58    9.90
   0  -5  -1  229.28   12.50
   0  -5  -1  155.88   10.00
   0  -5   1  176.78    9.90
   0  -5  -1  221.28   11.00
   0  -5  -1  189.78   10.10
   0   5  -2   37.80    2.60
   0   5  -2   46.00    5.00
   0   5  -2   30.20    2.60
   0  -5   2   31.80    3.20
   0  -5  -2   41.80    3.30
   0  -5  -2   39.60    3.10
   0  -5   2   32.30    2.40
   0  -5   2   37.40    2.60
   0   5  -3   15.00    1.50
   0   5   3   10.30    1.90
   0   5   3   10.40    1.50
   0  -5   3   12.80    1.30
   0  -5  -3   12.50    1.60
   0  -5  -3   12.00    4.10
   0  -5  -3   13.10    3.10
   0  -5  -3   10.90    2.10
   0   5   4  227.78   12.00
   0   5  -4  214.68   12.10
   0   5   4  240.08   12.30
   0   5  -4  215.88   13.00
   0   5  -4  217.28   11.80
   0  -5  -4  235.08   14.10
   0  -5  -4  230.68   12.00
   0  -5   4  225.18   11.80
   0  -5  -4  247.18   13.10
   0  -5  -4  236.38   12.30
   0  -5   4  232.48   12.10
   0  -5   4  206.48   11.90
   0  -5   4  217.68   13.20
   0   5  -5   79.49    4.90
   0   5   5   73.89    5.10
   0  -5   5   72.09    4.70
   0  -5   5   92.49    5.40
   0  -5  -5   88.69    8.40
   0  -5  -5   69.89    5.20
   0  -5  -5   67.89    5.70
   0  -5  -5   80.59    6.70
   0   5  -6   24.60    3.90
   0   5   6   20.10    2.60
   0   5  -6   18.10    2.30
   0   5  -6   21.30    2.90
   0  -5  -6   16.70    5.10
   0  -5  -6   16.80    2.60
   0  -5   6   16.80    2.70
   0  -5   6   16.90    2.10
   0  -5   6   17.40    2.10
   0  -5   6   30.70    4.40
   0  -5  -6   20.60    3.20
   0  -5  -6   14.00    4.00
   0   5   7    3.10    2.20
   0   5  -7    2.70    2.00
   0   5  -7    5.30    3.40
   0  -5   7    8.60    2.90
   0  -5   7    1.20    1.60
   0  -5  -7   18.00    4.90
   0  -5  -7   14.40    4.10
   0  -5  -7    7.30    2.90
   0  -5   7    3.30    2.50
   0  -5   7    4.10    1.70
   0   5   8    4.90    2.50
   0   5  -8   10.80    3.80
   0   5  -8    6.80    2.20
   0  -5  -8   -1.10    4.60
   0  -5   8    2.20    2.80
   0  -5  -8    1.30    3.20
   0  -5  -8    5.80    4.30
   0   5   9   12.30    3.10
   0   5  -9    8.40    2.70
   0   5  -9   12.40    4.00
   0  -5  -9   14.00    5.70
   0  -5  -9   16.90    3.80
   0  -5   9    7.90    3.10
   0  -5  -9    9.50    4.70
   0   5 -10   46.30    5.60
   0   5 -10   39.60    4.20
   0   5  10   39.80    4.70
   0  -5 -10   30.50    5.60
   0  -5  10   48.50    5.10
   0  -5 -10   35.50    5.10
   0  -5 -10   41.70    7.50
   0   5 -11    3.20    3.10
   0   5 -11   19.30    4.70
   0   5  11    0.70    2.90
   0  -5 -11    2.40    4.20
   0  -5  11    3.80    3.20
   0  -5 -11    2.40    5.20
   0  -5 -11    0.20    6.50
   0   5  12   10.00    3.80
   0   5 -12   16.20    4.60
   0   5 -12    8.00    3.60
   0  -5  12   12.40    4.10
   0  -5 -12    6.40    6.70
   0  -5 -12    4.20    4.10
   0  -5 -12   13.40    6.20
   0   6   0    1.50    2.80
   0  -6   0    2.20    2.20
   0  -6   0    4.30    1.10
   0  -6   0    2.60    1.20
   0  -6   0    4.70    3.80
   0   6  -1   25.80    4.00
   0   6   1   24.30    3.90
   0  -6  -1   22.90    2.10
   0  -6  -1   21.80    3.30
   0  -6   1   27.00    3.00
   0  -6   1   23.30    2.10
   0  -6  -1   20.00    2.10
   0  -6   1   24.00    2.10
   0  -6  -1   26.60    4.90
   0   6  -2   12.00    3.40
   0   6   2   12.90    3.40
   0  -6  -2    8.70    3.00
   0  -6  -2   10.50    3.90
   0  -6   2    9.50    1.20
   0  -6  -2   12.90    1.90
   0  -6   2   12.80    2.20
   0  -6  -2    9.30    1.60
   0  -6   2   11.30    1.20
   0   6  -3   32.50    2.90
   0   6  -3   39.50    2.80
   0   6  -3   45.00    4.80
   0  -6  -3   40.10    6.00
   0  -6   3   37.30    3.60
   0  -6  -3   33.20    2.60
   0  -6   3   34.50    2.60
   0  -6  -3   41.10    4.40
   0  -6  -3   39.50    3.40
   0  -6   3   46.70    3.00
   0  -6  -3   39.30    3.80
   0   6  -4  124.39    8.90
   0   6   4  122.39    7.00
   0   6   4  103.29    7.30
   0   6  -4  125.79    6.80
   0   6  -4  121.69    7.10
   0  -6  -4  137.69    9.00
   0  -6  -4  114.19    7.00
   0  -6   4  123.79    6.80
   0  -6   4  136.59    7.20
   0  -6  -4  132.39    7.60
   0  -6   4  123.29    7.30
   0  -6  -4  135.09   10.50
   0   6   5    5.00    1.80
   0   6  -5    5.00    3.40
   0   6  -5    0.20    1.80
   0   6  -5    2.40    1.50
   0  -6   5    3.80    1.80
   0  -6  -5    5.90    2.50
   0  -6  -5    6.90    1.90
   0  -6   5    4.20    1.30
   0  -6   5    5.10    1.90
   0  -6  -5   11.10    5.00
   0  -6  -5    5.50    3.70
   0   6  -6   52.69    5.60
   0   6  -6   42.60    4.50
   0   6  -6   53.59    3.80
   0   6   6   38.10    4.10
   0  -6  -6   49.60    4.50
   0  -6  -6   47.90    5.50
   0  -6   6   55.29    4.50
   0  -6  -6   43.90    6.90
   0  -6  -6   32.70    3.70
   0   6  -7   55.49    6.20
   0   6   7   64.39    5.00
   0   6  -7   49.90    4.50
   0  -6   7   51.59    5.30
   0  -6  -7   61.09    6.30
   0  -6  -7   64.69    5.70
   0  -6  -7   71.59    9.20
   0   6  -8   76.59    5.50
   0   6  -8   81.59    7.80
   0   6   8   58.09    5.70
   0  -6  -8   67.09    7.10
   0  -6   8   71.29    6.20
   0  -6  -8   75.29    6.80
   0  -6  -8   82.79   10.00
   0   6   9    4.10    2.70
   0   6  -9    2.90    2.50
   0   6  -9    9.00    4.20
   0  -6  -9    6.90    5.70
   0  -6   9    0.30    2.70
   0  -6  -9    4.60    3.60
   0  -6  -9    1.20    4.90
   0   6 -10   -2.10    2.30
   0   6 -10    6.60    4.40
   0   6  10    1.70    2.90
   0  -6 -10    4.90    6.30
   0  -6 -10    2.50    5.20
   0  -6  10    0.80    3.20
   0  -6 -10   -0.90    3.80
   0   6 -11   -0.30    4.00
   0   6  11   -2.00    3.00
   0  -6 -11   -4.40    5.20
   0  -6  11   -0.50    3.40
   0  -6 -11   -3.80    6.20
   0  -6 -11    2.10    4.10
   0   6 -12   32.60    6.00
   0  -6 -12   44.60    7.70
   0  -6 -12   36.40    5.30
   0   7   0    4.60    3.50
   0  -7   0    2.50    2.60
   0  -7   0    0.20    1.10
   0  -7   0   -0.50    3.90
   0  -7   0    1.50    1.20
   0   7  -1    4.30    3.60
   0   7   1   14.70    3.90
   0  -7  -1    4.40    1.40
   0  -7   1    1.90    1.10
   0  -7  -1    9.90    4.50
   0  -7  -1    6.30    3.00
   0  -7  -1    4.00    1.50
   0  -7   1    2.00    1.00
   0  -7   1   -0.10    2.40
   0  -7   1    1.50    3.90
   0   7  -2    3.60    3.60
   0  -7  -2    6.10    1.80
   0  -7   2    4.00    2.40
   0  -7   2    3.60    1.00
   0  -7  -2   11.80    5.00
   0  -7  -2    7.60    3.40
   0  -7  -2    6.80    1.60
   0  -7   2    4.80    1.10
   0   7  -3   80.39    7.60
   0  -7  -3   70.89    7.10
   0  -7  -3   64.39    8.80
   0  -7  -3   79.99    5.40
   0  -7   3   73.29    4.30
   0  -7   3   83.99    5.50
   0   7  -4  180.38   10.10
   0   7  -4  187.68   12.60
   0  -7  -4  191.08   12.30
   0  -7   4  202.18   10.80
   0  -7  -4  193.28   10.90
   0  -7   4  193.48   10.40
   0  -7  -4  210.18   14.20
   0   7  -5    4.70    1.40
   0   7  -5    7.20    4.10
   0  -7  -5    5.30    2.60
   0  -7  -5   10.70    5.80
   0  -7   5    9.40    2.00
   0  -7   5    6.80    2.10
   0  -7  -5    5.90    3.90
   0   7   6    0.40    1.80
   0   7  -6    0.30    0.80
   0   7  -6    3.30    4.00
   0  -7  -6    3.10    2.80
   0  -7   6    2.80    2.10
   0  -7  -6    4.10    4.30
   0  -7  -6    5.30    5.10
   0   7  -7    0.70    4.00
   0  -7  -7   30.20    6.80
   0  -7  -7   14.80    3.40
   0  -7  -7   28.30    5.10
   0   7  -8   28.20    5.40
   0  -7  -8   27.10    5.50
   0  -7   8   24.30    3.50
   0  -7  -8   29.80    4.40
   0  -7  -8   32.60    6.70
   0   7  -9   18.60    5.20
   0  -7   9   20.10    3.80
   0  -7  -9   20.10    4.30
   0  -7  -9   33.10    7.50
   0  -7  -9   28.90    6.30
   0   7 -10    8.30    4.80
   0  -7 -10    6.00    5.40
   0  -7 -10    4.30    4.10
   0  -7 -10    5.20    6.20
   0  -7  10    1.40    2.60
   0   8   0  206.98   14.00
   0  -8   0  232.28   15.60
   0  -8   0  248.08   13.50
   0   8   1   38.90    5.50
   0   8  -1   28.00    5.10
   0  -8   1   30.70    4.00
   0  -8  -1   34.80    6.60
   0  -8   1   24.50    5.60
   0  -8  -1   30.30    4.40
   0   8  -2    7.00    4.40
   0  -8   2    5.50    2.80
   0  -8  -2    9.50    3.60
   0  -8  -2    4.60    5.00
   0  -8  -2    3.10    1.80
   0  -8   2    6.80    4.90
   0   8  -3   78.89    7.90
   0  -8   3   69.39    7.90
   0  -8  -3   68.49    7.40
   0  -8  -3   61.59    8.50
   0  -8  -3   69.59    5.20
   0  -8   3   69.39    5.60
   0   8  -4   63.19    7.10
   0  -8  -4   58.79    6.30
   0  -8  -4   56.59    5.00
   0  -8  -4   52.69    7.50
   0  -8  -5  -12.60   14.70
   0  -8  -5    1.30   14.30
   0   8  -6  107.19   10.60
   0  -8  -6  131.69    8.70
   0  -8  -6  137.99   10.50
   0  -8  -6  160.78   13.30
   0   8  -7  413.26   24.70
   0  -8  -7  443.56   24.80
   0  -8  -7  439.26   26.80
   0  -8  -7  431.96   23.20
   0   8  -8   10.40    5.10
   0  -8  -8    3.80    5.60
   0  -8  -8    4.00    3.40
   0  -8  -8    1.90    6.30
   0   8  -9    9.00    5.10
   0  -8  -9   -0.60    5.70
   0  -8  -9    9.00    6.50
   0  -8  -9   10.30    4.00
   0   9   0    6.60    4.70
   0  -9   0   -0.60    3.60
   0  -9   0   11.70    5.50
   0   9  -1   35.20    6.00
   0   9   1   24.90    5.60
   0  -9  -1   25.70    4.70
   0  -9   1   34.60    6.50
   0  -9  -1   38.10    7.20
   0  -9   1   28.10    4.30
   0   9  -2   28.80    5.30
   0  -9   2   25.40    5.90
   0  -9  -2   19.90    4.70
   0  -9  -2   18.80    6.30
   0   9  -3   26.30    5.70
   0  -9   3   22.20    5.60
   0  -9  -3   11.10    4.70
   0  -9  -3   10.80    6.60
   0   9  -4   75.79    8.10
   0  -9  -4   62.59    7.00
   0  -9  -4   75.69   10.60
   0  -9   4   66.79    8.30
   0   9  -5   24.30    5.90
   0  -9  -5   39.20    7.50
   0  -9   5   27.20    5.70
   0  -9  -5   34.60    6.10
   0   9  -6   20.80    5.60
   0  -9  -6    1.60    5.50
   0  -9  -6    6.10    6.10
   0  -9   6   13.60    4.80
   0  -9  -7    5.80    5.60
   0  -9  -7   -0.60    6.80
   0  10   0   14.60    5.60
   0 -10   0    7.70    6.20
   0  10  -1    6.60    5.70
   0 -10   1   11.80    6.70
   0 -10  -1    5.70    5.50
   0 -10  -1    6.80    4.40
   0  10  -2   26.20    6.50
   0 -10  -2   23.70    5.50
   0 -10  -2   15.60    7.10
   0 -10   2   24.70    6.40
   0  10  -3  107.09   10.60
   0 -10  -3   81.89    9.20
   0 -10  -3   74.69   11.40
   0 -10   3   99.39   10.20
   0  10  -4    6.00    5.20
   0 -10  -4    4.00    6.60
   0 -10   4    8.10    5.00
   0 -10  -4   -1.20    5.40
   1   0 -14    2.10    4.20
  -1   0  14    2.00    3.10
   1   0 -14   -3.10    4.30
   1   0 -13    1.10    3.80
  -1   0  13   -1.30    2.70
   1   0 -13   -0.40    3.90
   1   0 -12   -3.00    3.60
  -1   0  12    1.00    2.70
   1   0 -12    3.90    3.90
   1   0 -12   -3.70    3.30
  -1   0  11   -2.00    1.10
   1   0 -11   -1.50    3.40
   1   0 -11   -1.00    3.60
   1   0 -11   -0.80    3.50
  -1   0  11    1.70    2.60
  -1   0  10   38.00    4.60
   1   0 -10   50.89    4.80
  -1   0  10   37.00    4.50
   1   0 -10   38.10    4.50
   1   0 -10   42.80    5.70
  -1   0   9   -0.80    2.30
   1   0  -9   -3.50    2.90
   1   0  -9   -4.50    2.70
   1   0  -9   -3.10    2.80
  -1   0   9   -0.70    1.80
  -1   0   8   17.50    3.00
   1   0  -8   18.50    3.20
   1   0  -8    8.30    2.90
  -1   0   8   12.60    2.30
   1   0  -8   19.20    3.30
  -1   0   8   14.00    2.60
   1   0  -7   -0.40    2.20
  -1   0   7    0.50    2.10
  -1   0   7   -0.30    1.70
   1   0  -7   -1.20    2.30
   1   0  -7    2.90    2.50
  -1   0   7    0.90    1.70
   1   0  -6   25.70    3.10
   1   0  -6   24.70    3.10
   1   0  -6   39.60    4.30
  -1   0   6   28.40    2.80
   1   0  -6   26.60    3.20
  -1   0   6   32.80    3.00
  -1   0   6   26.80    3.50
  -1   0   6   26.10    3.10
  -1   0   5   -0.90    1.50
  -1   0   5   -0.10    1.40
   1   0  -5    2.90    2.10
   1   0  -5    0.80    2.20
  -1   0   5   -0.80    1.70
   1   0  -5   -1.10    2.00
   1   0  -5    0.60    1.90
  -1   0   5   -0.80    1.50
   1   0  -4  742.03   36.30
   1   0  -4  778.42   36.40
  -1   0   4  693.63   36.20
  -1   0   4  697.43   36.30
   1   0  -4  704.83   36.30
  -1   0   4  694.03   36.20
  -1   0   4  722.43   36.30
   1   0  -4  688.53   36.30
  -1   0   3    1.60    1.10
   1   0  -3    2.70    1.40
   1   0  -3    0.80    1.40
   1   0  -3    1.00    1.60
  -1   0   3    0.80    1.20
   1   0  -3    1.40    1.50
  -1   0   3    2.20    1.20
  -1   0   3    1.80    1.60
   1   0  -2   38.10    2.80
   1   0  -2   45.40    2.70
   1   0  -2   41.00    2.80
  -1   0   2   42.80    2.60
  -1   0   2   39.80    2.60
   1   0  -2   39.90    2.80
  -1   0   2   39.20    2.60
  -1   0   2   40.50    2.90
   1   0  -1    0.20    0.50
  -1   0   1    0.10    0.30
  -1   0   1    0.20    0.60
   1   0  -1    0.30    0.40
   1   0  -1    0.60    0.50
   1   0  -1    0.00    0.40
  -1   0   1   -0.10    0.30
  -1   0   0    0.10    0.10
  -1   0   0    0.00    0.10
  -1   0   0    0.00    0.10
   1   0   0    0.10    0.10
   1   0   0    0.00    0.10
   1   0   0    0.00    0.10
  -1   0  -1    1.60    0.60
   1   0   1    0.90    0.50
  -1   0  -1    2.30    0.50
   1   0   1    1.40    0.50
  -1   0  -1    2.20    0.90
  -1   0  -1    2.40    0.60
   1   0   1    1.70    0.50
   1   0   1    2.40    0.70
   1   0   2 3290.17  164.18
  -1   0  -2 3136.59  164.18
   1   0   2 3362.16  164.18
   1   0   2 3240.08  164.18
  -1   0  -2 3277.27  164.38
   1   0   2 3185.08  164.28
  -1   0  -2 3371.76  164.18
  -1   0  -2 3413.96  164.18
  -1   0  -3   -1.30    1.50
  -1   0  -3    0.50    1.60
  -1   0  -3    0.20    1.40
  -1   0  -3    2.90    2.00
   1   0   3   -0.50    1.50
   1   0   3    1.00    1.50
   1   0   3    0.60    1.20
   1   0   3   -0.50    1.20
   1   0   4  663.93   34.70
  -1   0  -4  656.63   34.70
  -1   0  -4  705.33   34.70
   1   0   4  663.63   34.80
   1   0   4  665.53   34.70
  -1   0  -4  674.73   34.70
   1   0   4  670.33   34.90
  -1   0  -4  764.62   35.10
   1   0   5   -1.40    1.50
  -1   0  -5   -1.40    2.00
   1   0   5   -1.40    1.80
   1   0   5    0.20    1.80
   1   0   5    0.60    1.60
  -1   0  -5    0.60    2.10
  -1   0  -5    0.50    1.90
  -1   0  -5    1.80    2.50
   1   0   6   24.20    2.70
   1   0   6   28.20    2.90
  -1   0  -6   34.90    4.70
  -1   0  -6   23.60    3.10
  -1   0  -6   26.40    3.20
   1   0   6   23.10    3.20
  -1   0  -6   25.70    3.10
   1   0   6   23.90    3.10
   1   0   7    0.60    1.80
  -1   0  -7   -0.80    2.30
  -1   0  -7   -1.60    2.30
   1   0   7   -1.10    2.10
   1   0   7   -0.30    2.00
  -1   0  -7    1.40    2.80
  -1   0  -8   63.79    5.90
   1   0   8   57.69    5.10
  -1   0  -8   55.89    5.60
  -1   0  -8   55.69    4.80
   1   0   8   55.29    5.20
   1   0   9   -1.40    2.30
  -1   0  -9    0.90    2.90
  -1   0  -9   -4.40    3.00
  -1   0  -9   -1.50    2.60
   1   0   9   -2.60    2.20
  -1   0 -10  224.28   12.90
  -1   0 -10  215.58   13.40
   1   0  10  201.88   12.70
  -1   0 -10  210.48   12.70
   1   0  11    1.40    2.70
  -1   0 -11    1.60    3.70
  -1   0 -11    0.10    3.50
  -1   0 -11   -1.20    3.30
   1   0  12   -0.70    3.00
  -1   0 -12   -3.40    4.00
  -1   0 -12    1.80    3.80
  -1   0 -12   -5.50    3.50
   1   0  13   -1.30    3.00
  -1   0 -13   -3.10    4.20
  -1   0 -13   -2.40    3.70
  -1   0 -14   82.59    8.30
  -1   0 -14   92.69    8.80
   1   0  14   82.79    8.10
   1   1 -14   10.30    3.40
  -1   1  14    5.60    3.50
   1   1 -14    7.20    4.30
  -1  -1  14    5.50    3.30
   1  -1 -14    4.60    5.00
   1  -1 -14    4.80    4.60
   1   1 -13   14.40    4.10
  -1   1  13    9.70    3.50
   1   1 -13    9.50    4.20
   1  -1 -13   10.80    4.70
   1  -1 -13    7.90    4.20
  -1  -1  13   13.80    3.80
   1   1 -12    2.30    3.80
   1   1 -12    6.80    3.60
  -1   1  12    5.80    3.20
   1  -1 -12    3.70    3.70
   1  -1 -12   -0.70    4.20
  -1  -1  12    6.30    3.40
   1  -1 -12    5.60    4.60
   1   1 -11   16.50    3.80
   1   1 -11   23.80    4.10
  -1   1  11   14.70    3.40
   1   1 -11   21.70    3.50
   1  -1 -11   16.70    4.60
  -1  -1  11   19.30    3.70
   1  -1 -11   20.10    4.10
   1  -1 -11   23.40    4.50
   1   1 -10    9.40    3.00
  -1   1  10    5.30    2.70
   1   1 -10    3.80    3.20
   1   1 -10   11.30    3.20
   1  -1 -10    4.10    3.50
   1  -1 -10    3.30    3.60
  -1  -1  10    4.00    2.40
   1  -1 -10    4.70    3.80
  -1  -1  10    8.90    2.90
   1   1  -9   20.60    3.40
   1   1  -9   15.70    3.00
  -1   1   9   16.30    3.10
  -1   1   9   16.30    3.10
   1   1  -9   21.20    3.10
   1  -1  -9   17.10    3.70
   1  -1  -9   13.60    3.20
   1  -1  -9   19.00    4.00
  -1  -1   9   15.90    3.00
  -1  -1   9   15.40    2.70
   1   1  -8  506.15   26.00
  -1   1   8  482.85   26.00
   1   1  -8  513.15   25.70
  -1   1   8  502.95   26.20
   1   1  -8  483.55   25.80
  -1  -1   8  490.55   25.80
   1  -1  -8  518.95   26.50
  -1  -1   8  492.25   26.00
   1  -1  -8  504.25   26.00
  -1  -1   8  474.45   25.60
   1  -1  -8  458.25   25.80
  -1   1   7   36.60    3.90
   1   1  -7   26.70    3.20
  -1   1   7   31.20    3.50
  -1   1   7   32.30    3.30
   1   1  -7   34.60    3.80
   1   1  -7   34.30    3.90
   1  -1  -7   32.80    3.60
   1  -1  -7   39.00    4.80
  -1  -1   7   34.60    3.40
  -1  -1   7   29.10    3.30
   1  -1  -7   38.80    3.90
  -1  -1   7   39.60    3.80
  -1   1   6  151.28    9.40
  -1   1   6  161.28    9.20
   1   1  -6  175.68    9.20
  -1   1   6  173.58    9.70
   1   1  -6  161.38    9.50
   1   1  -6  157.78    9.30
  -1   1   6  166.78    9.40
   1   1  -6  170.58    9.50
  -1  -1   6  160.58    9.50
   1  -1  -6  167.98    9.60
   1  -1  -6  163.48    9.90
  -1  -1   6  161.78    9.10
  -1  -1   6  158.08    9.10
  -1  -1   6  165.48    9.20
   1  -1  -6  151.88    9.50
   1  -1  -6  159.08    9.60
   1   1  -5  131.49    7.50
  -1   1   5  130.29    7.80
  -1   1   5  123.59    7.60
   1   1  -5  129.69    7.30
   1   1  -5  137.59    7.50
  -1   1   5  126.39    7.50
   1   1  -5  124.89    7.70
  -1   1   5  125.79    7.40
   1  -1  -5  127.49    7.80
   1  -1  -5  135.99    8.10
  -1  -1   5  127.29    7.20
  -1  -1   5  121.29    7.60
  -1  -1   5  121.19    7.30
   1  -1  -5  129.19    7.80
  -1  -1   5  126.99    7.30
   1  -1  -5  139.59    7.80
   1   1  -4  454.95   23.70
   1   1  -4  518.25   23.70
  -1   1   4  462.25   24.00
  -1   1   4  464.05   23.80
  -1   1   4  449.46   23.80
   1   1  -4  456.55   23.80
   1   1  -4  485.75   23.60
  -1   1   4  451.35   23.70
   1  -1  -4  486.85   24.10
  -1  -1   4  457.25   23.80
  -1  -1   4  495.35   23.70
   1  -1  -4  446.06   23.70
   1  -1  -4  464.45   23.80
  -1  -1   4  450.75   23.50
   1  -1  -4  417.66   23.70
  -1  -1   4  440.16   23.60
   1   1  -3  127.89    7.60
   1   1  -3  147.39    7.40
  -1   1   3  136.99    7.80
  -1   1   3  137.59    7.40
  -1   1   3  126.09    7.50
   1   1  -3  128.49    7.30
  -1   1   3  128.39    7.50
   1   1  -3  130.39    7.20
  -1  -1   3  130.59    7.20
   1  -1  -3  137.59    7.90
   1  -1  -3  134.69    7.60
  -1  -1   3  159.78    7.40
   1  -1  -3  144.89    7.60
  -1  -1   3  133.69    7.50
  -1  -1   3  133.09    7.30
   1  -1  -3  137.79    7.70
   1   1  -2    4.50    0.80
   1   1  -2    5.20    1.40
  -1   1   2    4.10    1.30
  -1   1   2    5.60    1.20
   1   1  -2    6.20    1.50
   1   1  -2    3.70    1.10
  -1   1   2    5.20    1.40
  -1   1   2    4.70    1.60
   1  -1  -2    4.30    1.80
  -1  -1   2    3.10    1.00
  -1  -1   2    4.60    0.80
   1  -1  -2    3.40    1.30
  -1  -1   2    4.60    1.20
  -1  -1   2    5.00    0.90
   1  -1  -2    2.90    1.20
   1  -1  -2    3.90    1.50
  -1   1   1  311.97   15.60
   1   1  -1  315.17   15.60
   1   1  -1  303.77   15.50
  -1   1   1  303.57   15.60
   1   1  -1  303.77   15.40
  -1   1   1  302.97   15.50
  -1   1   1  296.07   15.50
  -1  -1   1  308.47   15.40
   1  -1  -1  305.57   15.60
  -1  -1   1  293.57   15.50
   1  -1  -1  299.87   15.60
   1  -1  -1  317.37   15.50
   1  -1  -1  301.77   15.40
  -1  -1   1  324.57   15.50
  -1   1   0  196.08   10.40
   1   1   0  211.28   10.30
   1   1   0  186.18   10.50
   1   1   0  201.38   10.40
   1   1   0  223.28   10.20
  -1   1   0  203.08   10.20
   1  -1   0  190.58   10.20
  -1  -1   0  180.68   10.30
  -1  -1   0  200.28   10.50
  -1  -1   0  209.98   10.30
  -1  -1   0  215.98   10.20
   1  -1   0  207.58   10.40
   1   1   1   77.69    4.70
   1   1   1   76.99    4.40
   1   1   1   81.19    4.20
   1   1   1   78.59    4.20
  -1   1  -1   79.59    4.50
  -1   1  -1   76.79    4.20
  -1   1  -1   82.79    4.20
  -1   1  -1   74.89    4.60
   1  -1   1   70.89    4.40
   1  -1   1   80.69    4.20
  -1  -1  -1   80.49    4.40
  -1  -1  -1   80.09    4.20
   1  -1   1   77.59    4.60
  -1  -1  -1   74.59    4.80
   1  -1   1   78.69    4.20
  -1  -1  -1   80.49    4.20
   1   1   2  455.05   21.60
  -1   1  -2  440.16   21.50
  -1   1  -2  390.56   21.60
   1   1   2  400.86   21.70
   1   1   2  443.86   21.60
  -1   1  -2  405.66   21.80
   1   1   2  398.96   21.90
  -1   1  -2  458.85   21.50
  -1  -1  -2  429.36   21.60
   1  -1   2  421.16   21.50
  -1  -1  -2  427.86   21.70
  -1  -1  -2  402.76   21.90
   1  -1   2  436.26   21.80
   1  -1   2  444.86   21.60
   1  -1   2  421.96   21.50
  -1  -1  -2  427.26   21.60
   1   1   3    3.00    1.50
  -1   1  -3    1.90    1.40
   1   1   3    1.80    1.40
   1   1   3    2.10    1.70
  -1   1  -3    2.30    1.50
   1   1   3    2.40    1.30
  -1   1  -3    1.10    1.30
  -1   1  -3    0.70    1.50
   1  -1   3    4.00    1.70
   1  -1   3    1.60    1.20
  -1  -1  -3    2.30    1.50
   1  -1   3    0.60    1.40
  -1  -1  -3    1.20    2.00
   1  -1   3    1.50    1.20
  -1  -1  -3    1.70    1.90
  -1  -1  -3    1.20    1.60
   1   1   4  327.87   16.90
  -1   1  -4  348.77   17.20
   1   1   4  285.57   16.90
   1   1   4  304.27   17.30
  -1   1  -4  330.87   16.90
  -1   1  -4  343.47   16.90
   1   1   4  336.97   17.00
  -1   1  -4  295.47   17.00
   1  -1   4  333.97   17.10
  -1  -1  -4  337.67   17.00
   1  -1   4  356.96   17.30
  -1  -1  -4  317.87   17.00
   1  -1   4  329.27   16.80
  -1  -1  -4  308.97   17.10
  -1  -1  -4  332.07   17.40
   1  -1   4  324.67   16.80
  -1   1  -5  183.88   10.60
   1   1   5  177.68   10.60
   1   1   5  194.88   10.20
   1   1   5  177.38   10.30
  -1   1  -5  191.68   10.00
  -1   1  -5  185.38   10.10
   1   1   5  168.68   10.10
  -1   1  -5  183.08   10.30
  -1  -1  -5  189.58   10.40
   1  -1   5  182.78   10.00
   1  -1   5  202.78   10.50
  -1  -1  -5  184.08   10.30
  -1  -1  -5  164.18   10.70
   1  -1   5  177.18   10.30
   1  -1   5  189.28   10.00
  -1  -1  -5  179.18   10.30
   1   1   6  867.01   45.30
  -1   1  -6  905.41   45.30
  -1   1  -6  901.91   45.70
   1   1   6  893.71   45.50
  -1   1  -6  889.11   45.50
   1   1   6  832.32   45.80
  -1   1  -6  936.31   45.30
   1   1   6  901.21   45.50
   1  -1   6  893.11   45.50
   1  -1   6  906.61   45.30
  -1  -1  -6  862.01   45.40
  -1  -1  -6  859.31   45.80
  -1  -1  -6  952.50   45.60
   1  -1   6  885.01   45.30
   1  -1   6  896.01   45.60
   1   1   7  109.99    7.20
  -1   1  -7   91.19    6.80
  -1   1  -7  107.99    6.70
   1   1   7  103.09    7.00
   1  -1   7  106.89    7.00
  -1  -1  -7  104.59    7.60
   1  -1   7  102.89    6.50
   1  -1   7  108.69    7.00
  -1  -1  -7   99.79    7.10
  -1  -1  -7  102.89    7.00
  -1   1  -8   20.70    3.10
   1   1   8   25.40    3.40
  -1   1  -8   17.90    3.10
  -1   1  -8   22.40    3.50
   1   1   8   18.10    3.20
   1  -1   8   21.20    2.40
  -1  -1  -8   18.10    3.50
  -1  -1  -8   21.70    4.10
  -1  -1  -8   13.50    3.00
   1  -1   8   16.60    2.90
   1  -1   8   19.20    3.10
   1   1   9   38.60    4.40
  -1   1  -9   35.10    4.80
  -1   1  -9   42.00    4.00
  -1   1  -9   34.80    4.00
  -1  -1  -9   37.30    4.60
  -1  -1  -9   34.10    5.00
  -1  -1  -9   25.60    3.90
   1  -1   9   33.40    4.60
   1  -1   9   37.30    4.30
  -1   1 -10  188.28   11.10
  -1   1 -10  181.68   11.10
  -1   1 -10  178.58   11.50
   1   1  10  173.38   11.30
  -1  -1 -10  189.58   12.50
  -1  -1 -10  178.18   11.40
  -1  -1 -10  181.18   11.50
   1  -1  10  180.48   11.30
  -1   1 -11    8.80    3.60
  -1   1 -11    7.40    3.30
  -1   1 -11   10.00    3.50
   1   1  11    7.80    3.00
  -1  -1 -11    4.60    4.00
  -1  -1 -11    0.10    4.30
   1  -1  11    6.20    3.10
  -1  -1 -11    4.20    3.60
  -1   1 -12   27.50    4.60
  -1   1 -12   49.70    5.00
   1   1  12   36.10    5.00
  -1   1 -12   36.10    5.30
  -1  -1 -12   23.90    4.60
  -1  -1 -12   31.50    5.90
  -1  -1 -12   30.20    5.10
   1  -1  12   29.60    4.60
   1   1  13   -2.00    3.20
  -1   1 -13   -0.80    3.70
  -1   1 -13    0.60    3.90
  -1  -1 -13    3.50    3.90
   1  -1  13   -2.50    3.00
  -1  -1 -13   -2.20    4.70
  -1  -1 -13  -10.10    4.20
  -1   1 -14   12.70    4.40
   1   1  14   14.20    4.20
  -1   1 -14   19.80    4.20
   1  -1  14   12.10    4.00
  -1  -1 -14   12.90    4.70
  -1  -1 -14   11.70    5.30
   1   2 -14   14.10    4.70
  -1   2  14    1.20    3.50
   1  -2 -14    7.50    4.50
  -1  -2  14    9.80    3.70
   1  -2 -14    5.90    5.30
   1   2 -13   60.19    6.00
  -1   2  13   62.19    6.70
   1   2 -13   59.89    5.70
   1  -2 -13   52.39    7.60
  -1  -2  13   62.69    6.70
   1  -2 -13   61.59    7.10
   1  -2 -13   49.60    6.20
   1   2 -12    2.20    2.80
  -1   2  12    0.10    2.90
   1   2 -12    1.90    3.40
   1  -2 -12   -1.80    4.60
   1  -2 -12   12.10    5.00
  -1  -2  12    1.70    3.00
   1  -2 -12    4.00    3.70
   1   2 -11  136.69    8.70
   1   2 -11  137.99    8.70
  -1   2  11  123.59    9.30
   1   2 -11  144.99    9.40
   1  -2 -11  127.99   10.70
  -1  -2  11  130.49    9.20
   1  -2 -11  128.39    9.50
   1  -2 -11  122.29   10.40
  -1   2  10  134.99    8.90
   1   2 -10  136.19    8.30
   1   2 -10  126.19    8.70
   1   2 -10  129.29    8.40
  -1  -2  10  136.39    9.00
   1  -2 -10  125.19   10.20
   1  -2 -10  132.79    9.20
   1  -2 -10  134.19    9.70
   1   2  -9   79.59    5.40
   1   2  -9   66.19    5.90
   1   2  -9   73.19    5.60
  -1   2   9   73.59    6.00
  -1  -2   9   62.19    5.10
   1  -2  -9   64.49    6.80
   1  -2  -9   67.69    6.40
  -1  -2   9   62.79    5.30
  -1  -2   9   73.09    6.00
   1  -2  -9   86.79    7.70
   1   2  -8   35.00    3.90
   1   2  -8   34.50    3.60
  -1   2   8   31.20    4.40
  -1   2   8   30.70    3.60
   1   2  -8   35.30    3.70
   1  -2  -8   28.80    4.00
   1  -2  -8   40.90    5.80
  -1  -2   8   31.00    3.60
  -1  -2   8   31.20    3.40
   1  -2  -8   26.00    3.50
  -1  -2   8   31.10    3.60
  -1   2   7   21.80    3.10
  -1   2   7   27.50    4.10
   1   2  -7   27.70    3.10
   1   2  -7   23.30    3.40
   1   2  -7   28.20    2.80
  -1  -2   7   29.10    2.80
  -1  -2   7   26.90    3.00
   1  -2  -7   30.30    3.90
   1  -2  -7   23.60    3.20
  -1  -2   7   34.70    3.60
  -1  -2   7   24.00    3.60
   1  -2  -7   27.80    4.20
  -1   2   6  189.48   11.00
  -1   2   6  194.28   10.50
  -1   2   6  184.58   10.50
   1   2  -6  181.38   10.40
   1   2  -6  189.28   10.40
   1   2  -6  174.68   10.60
   1   2  -6  201.28   10.10
  -1  -2   6  200.38   10.60
  -1  -2   6  178.38   10.10
   1  -2  -6  194.28   11.40
   1  -2  -6  182.68   10.90
   1  -2  -6  181.78   10.60
  -1  -2   6  178.18   10.00
   1  -2  -6  170.48   10.50
  -1  -2   6  182.38   10.60
   1   2  -5  529.85   26.20
   1   2  -5  493.05   25.90
   1   2  -5  500.05   26.10
  -1   2   5  460.55   26.50
  -1   2   5  498.25   26.00
  -1   2   5  508.05   26.20
   1   2  -5  520.75   25.60
  -1   2   5  504.65   26.00
   1   2  -5  498.65   25.80
   1  -2  -5  518.25   26.30
   1  -2  -5  472.25   26.60
  -1  -2   5  504.95   25.80
  -1  -2   5  489.95   25.60
  -1  -2   5  538.55   26.10
   1  -2  -5  485.95   26.00
  -1  -2   5  520.45   26.10
   1  -2  -5  528.55   26.10
  -1   2   4  106.69    6.20
  -1   2   4  106.09    6.10
   1   2  -4  108.69    5.70
  -1   2   4   91.89    6.20
  -1   2   4  101.39    6.80
   1   2  -4  102.69    6.50
   1   2  -4  104.59    6.30
   1   2  -4   99.09    6.00
  -1  -2   4  106.89    6.20
   1  -2  -4   99.09    7.10
   1  -2  -4  103.49    6.70
   1  -2  -4   97.89    6.20
   1  -2  -4  101.69    6.40
  -1  -2   4  119.89    5.90
  -1  -2   4  107.99    6.20
  -1  -2   4   99.79    5.70
  -1   2   3  277.17   14.00
  -1   2   3  245.58   13.70
  -1   2   3  270.27   13.80
   1   2  -3  271.67   13.90
   1   2  -3  281.47   13.50
   1   2  -3  260.97   13.80
   1   2  -3  264.87   13.60
  -1  -2   3  260.17   13.80
   1  -2  -3  254.97   14.50
   1  -2  -3  256.17   13.70
  -1  -2   3  268.87   13.50
   1  -2  -3  240.78   13.90
   1  -2  -3  256.47   13.80
  -1  -2   3  254.57   13.40
  -1  -2   3  292.37   13.90
   1   2  -2    6.60    1.00
   1   2  -2   14.50    1.60
   1   2  -2   13.90    1.90
  -1   2   2    8.50    1.40
  -1   2   2    8.90    1.30
  -1   2   2    9.50    1.80
  -1  -2   2    9.10    1.60
   1  -2  -2   11.50    1.90
  -1  -2   2    8.60    1.00
  -1  -2   2   10.30    1.40
  -1  -2   2    7.40    1.00
   1   2  -1  301.27   15.80
  -1   2   1  320.37   16.10
  -1   2   1  300.07   15.80
   1   2  -1  302.77   16.10
  -1   2   1  307.47   15.70
   1  -2  -1  306.17   15.70
  -1  -2   1  299.37   15.70
  -1  -2   1  313.07   15.80
   1  -2  -1  313.37   15.80
   1  -2  -1  320.57   16.10
   1  -2  -1  333.37   16.10
  -1  -2   1  318.37   16.10
  -1   2   0  163.88    8.80
   1   2   0  170.58    8.90
   1   2   0  169.18    9.20
   1   2   0  168.18    8.70
  -1   2   0  169.08    9.20
   1  -2   0  163.98    8.80
  -1  -2   0  166.08    9.50
  -1  -2   0  179.68    9.20
  -1  -2   0  180.18    9.00
  -1  -2   0  174.38    8.70
   1  -2   0  173.28    9.20
   1   2   1   53.59    4.50
   1   2   1   58.79    3.40
   1   2   1   55.89    3.30
  -1   2  -1   59.19    3.40
  -1   2  -1   56.79    3.90
   1   2   1   58.69    3.80
  -1   2  -1   58.09    3.30
   1  -2   1   55.49    3.30
  -1  -2  -1   60.39    3.90
  -1  -2  -1   51.09    4.70
   1  -2   1   59.29    3.30
   1  -2   1   55.49    3.90
  -1  -2  -1   60.49    4.10
  -1  -2  -1   59.29    3.40
  -1  -2  -1   56.69    3.30
   1   2   2  362.76   20.50
  -1   2  -2  398.86   19.80
   1   2   2  386.86   19.80
   1   2   2  367.66   20.00
  -1   2  -2  398.06   19.90
   1   2   2  404.66   19.90
  -1   2  -2  401.06   20.10
   1  -2   2  382.96   20.10
  -1  -2  -2  396.66   19.80
  -1  -2  -2  419.56   20.10
   1  -2   2  381.36   19.80
   1  -2   2  380.46   19.80
  -1  -2  -2  381.06   20.50
   1  -2   2  370.06   20.20
  -1  -2  -2  426.46   19.90
   1  -2   2  386.86   19.80
  -1   2  -3  874.41   42.30
   1   2   3  870.41   42.40
  -1   2  -3  884.61   42.60
  -1   2  -3  842.32   42.70
  -1   2  -3  803.72   42.40
   1   2   3  853.71   42.40
   1   2   3  835.42   43.00
   1   2   3  802.92   42.50
  -1   2  -3  892.41   42.30
   1  -2   3  811.42   42.20
  -1  -2  -3  792.12   43.00
  -1  -2  -3  812.62   42.40
  -1  -2  -3  800.42   42.50
   1  -2   3  855.71   42.40
   1  -2   3  831.82   42.20
   1  -2   3  895.71   42.70
  -1  -2  -3  807.82   42.30
   1   2   4   37.90    4.30
   1   2   4   40.30    3.40
  -1   2  -4   41.30    3.40
   1   2   4   36.60    3.50
  -1   2  -4   35.50    3.10
  -1   2  -4   34.20    3.90
  -1   2  -4   40.80    3.80
   1   2   4   42.00    3.70
  -1  -2  -4   40.60    4.80
   1  -2   4   39.50    3.50
   1  -2   4   39.50    3.10
  -1  -2  -4   38.10    3.70
   1  -2   4   42.00    3.00
  -1  -2  -4   39.10    4.20
   1  -2   4   43.20    4.00
  -1  -2  -4   37.70    3.40
  -1   2  -5   27.00    2.60
   1   2   5   27.30    4.10
  -1   2  -5   20.00    2.60
   1   2   5   31.60    3.30
   1   2   5   29.20    2.70
  -1   2  -5   22.20    3.10
   1   2   5   24.30    2.80
  -1   2  -5   21.90    3.00
  -1  -2  -5   31.40    3.30
  -1  -2  -5   26.50    3.00
  -1  -2  -5   26.00    3.50
  -1  -2  -5   24.50    3.80
   1  -2   5   24.80    2.40
   1  -2   5   31.10    4.50
   1  -2   5   25.10    2.90
   1  -2   5   23.00    2.80
  -1   2  -6   15.50    2.50
  -1   2  -6   15.60    2.20
   1   2   6   13.20    3.00
   1   2   6   12.60    2.50
  -1   2  -6   11.50    2.60
  -1   2  -6   13.50    2.80
   1   2   6   12.50    2.50
   1  -2   6   16.70    3.10
   1  -2   6   14.10    2.10
  -1  -2  -6   11.40    2.70
  -1  -2  -6   16.40    3.80
   1  -2   6   13.70    2.50
  -1  -2  -6   11.40    2.50
  -1  -2  -6   13.80    3.10
   1  -2   6   11.80    2.00
  -1   2  -7   11.70    2.60
   1   2   7   11.30    2.80
  -1   2  -7   15.30    2.40
   1   2   7   13.40    2.70
  -1   2  -7   15.30    2.80
  -1  -2  -7   12.70    3.40
   1  -2   7   13.80    2.60
   1  -2   7   12.40    2.10
  -1  -2  -7   15.70    3.00
  -1  -2  -7   11.80    3.80
   1  -2   7   12.90    2.90
  -1   2  -8   43.40    4.00
   1   2   8   47.70    4.50
  -1   2  -8   43.10    4.30
  -1   2  -8   47.10    4.60
  -1  -2  -8   36.90    4.50
  -1  -2  -8   46.40    4.40
   1  -2   8   37.10    3.90
   1  -2   8   35.90    4.60
  -1  -2  -8   46.10    6.40
   1  -2   8   50.29    5.00
  -1   2  -9  342.77   17.20
  -1   2  -9  323.57   17.30
   1   2   9  312.87   17.60
  -1   2  -9  313.17   17.60
  -1  -2  -9  316.17   18.70
   1  -2   9  320.37   17.60
   1  -2   9  293.07   17.50
  -1  -2  -9  318.17   17.80
  -1  -2  -9  316.17   17.50
  -1   2 -10    2.60    2.70
  -1   2 -10    6.50    3.00
  -1   2 -10    9.10    3.10
   1   2  10    5.40    2.80
  -1  -2 -10    2.90    3.90
  -1  -2 -10    4.00    4.90
  -1  -2 -10    0.30    3.30
   1  -2  10    5.40    2.90
   1   2  11    1.00    2.70
  -1   2 -11    1.40    3.10
  -1   2 -11    3.40    3.00
  -1   2 -11    0.90    2.90
  -1  -2 -11   -2.90    3.50
   1  -2  11    1.30    2.70
  -1  -2 -11    1.10    4.30
  -1  -2 -11   -2.50    4.80
   1   2  12   41.90    5.10
  -1   2 -12   36.60    4.40
  -1   2 -12   27.50    4.50
  -1  -2 -12   33.90    6.50
   1  -2  12   39.50    4.90
  -1  -2 -12   31.10    4.70
  -1  -2 -12   35.50    5.70
  -1   2 -13   -4.10    3.60
  -1   2 -13   -1.90    3.10
   1   2  13   -1.00    3.10
  -1  -2 -13   -3.10    3.70
  -1  -2 -13  -11.80    5.00
  -1  -2 -13    1.80    5.30
   1  -2  13   -3.30    3.20
   1   2  14    3.80    3.90
  -1   2 -14   -0.90    4.00
  -1   2 -14   -1.10    3.10
   1  -2  14    2.70    3.30
  -1  -2 -14    4.20    4.10
  -1  -2 -14    8.20    5.90
  -1   3  14    0.50    3.50
   1   3 -14   -2.60    4.00
   1   3 -14   -3.60    3.70
   1  -3 -14    1.50    5.70
   1  -3 -14   -0.80    4.30
  -1  -3  14   -0.20    3.40
   1   3 -13   16.60    4.50
   1   3 -13    8.30    3.80
  -1   3  13   12.70    3.80
   1  -3 -13    1.90    5.60
  -1  -3  13   11.20    3.70
   1  -3 -13    4.70    4.10
   1  -3 -13    4.10    5.60
   1   3 -12   48.70    5.10
  -1   3  12   45.30    5.40
   1   3 -12   44.60    4.70
   1   3 -12   50.49    6.20
   1  -3 -12   49.40    5.80
  -1  -3  12   46.30    5.40
   1  -3 -12   55.09    7.30
   1  -3 -12   52.79    6.50
  -1   3  11  270.07   15.80
   1   3 -11  274.67   15.10
   1   3 -11  253.17   16.10
   1   3 -11  271.87   15.50
   1  -3 -11  270.37   16.40
   1  -3 -11  272.87   16.00
  -1  -3  11  288.07   16.00
   1  -3 -11  281.07   17.60
   1   3 -10   19.10    3.40
  -1   3  10   21.60    3.60
   1   3 -10   23.50    4.40
   1   3 -10   22.20    3.10
   1  -3 -10   21.70    4.00
  -1  -3  10   17.70    3.60
   1   3  -9  121.59    8.60
  -1   3   9  108.09    8.00
   1   3  -9  127.89    8.00
   1   3  -9  139.09    7.70
  -1  -3   9  114.09    7.30
   1  -3  -9  121.29    9.80
   1  -3  -9  118.09    9.00
  -1  -3   9  109.89    7.90
  -1  -3   9  128.39    8.50
   1  -3  -9  124.29    8.50
  -1   3   8  363.06   19.00
   1   3  -8  370.36   18.40
   1   3  -8  345.17   18.60
   1   3  -8  333.37   19.20
  -1  -3   8  350.86   19.00
   1  -3  -8  357.46   20.20
   1  -3  -8  363.66   19.00
  -1  -3   8  339.77   18.30
   1  -3  -8  341.87   19.30
  -1  -3   8  335.77   18.90
   1   3  -7   -1.00    2.60
   1   3  -7    2.80    1.80
   1   3  -7    2.20    2.00
  -1   3   7    2.50    2.00
  -1  -3   7    0.70    1.40
  -1  -3   7    0.60    2.30
  -1  -3   7    1.50    1.40
   1  -3  -7    1.60    3.00
   1  -3  -7    3.10    3.20
   1  -3  -7    1.80    2.60
  -1  -3   7    1.50    2.10
   1   3  -6   31.30    3.70
  -1   3   6   34.80    4.60
   1   3  -6   34.40    3.10
  -1   3   6   35.40    3.30
   1   3  -6   33.00    3.40
   1   3  -6   37.40    4.00
   1  -3  -6   33.70    4.70
  -1  -3   6   35.00    3.10
  -1  -3   6   35.40    4.10
   1  -3  -6   32.10    3.40
  -1  -3   6   30.10    2.80
  -1  -3   6   36.40    3.50
   1  -3  -6   34.60    4.10
   1  -3  -6   30.20    3.30
  -1   3   5    4.30    1.70
  -1   3   5    3.10    1.80
  -1   3   5    1.10    1.80
   1   3  -5   -0.80    2.00
   1   3  -5    0.20    2.30
   1   3  -5   -0.80    1.50
  -1  -3   5   -0.10    1.20
   1  -3  -5    2.80    2.20
   1  -3  -5    1.00    2.70
   1  -3  -5    0.70    1.90
   1  -3  -5    1.10    3.20
  -1  -3   5    0.00    1.70
  -1  -3   5   -0.30    1.20
  -1  -3   5   -2.50    2.00
  -1   3   4    7.50    1.90
   1   3  -4    4.40    2.10
  -1   3   4    5.70    1.80
  -1   3   4    6.50    2.20
   1   3  -4    7.90    2.50
   1   3  -4    6.00    1.50
   1  -3  -4    6.70    2.20
   1  -3  -4    5.50    1.90
  -1  -3   4    6.20    1.90
  -1  -3   4    8.90    1.30
   1  -3  -4    4.80    2.20
  -1  -3   4    7.60    1.30
  -1  -3   4    4.40    2.20
   1  -3  -4    5.80    2.80
   1  -3  -4    8.80    3.40
  -1   3   3   -1.20    1.30
  -1   3   3    0.90    1.90
   1   3  -3   -0.20    1.10
   1   3  -3   -2.90    1.50
  -1   3   3   -1.50    1.50
   1   3  -3   -1.60    2.00
   1  -3  -3    0.40    1.40
  -1  -3   3   -0.90    0.90
  -1  -3   3    0.70    1.00
   1  -3  -3    0.00    2.60
  -1  -3   3    0.70    1.70
  -1  -3   3   -0.40    1.40
   1  -3  -3   -0.50    1.60
   1  -3  -3    0.00    2.10
   1  -3  -3    1.70    2.00
   1   3  -2  135.29    6.60
  -1   3   2  129.99    7.00
  -1   3   2  124.09    6.80
  -1   3   2  126.39    7.40
   1   3  -2  127.19    7.50
   1   3  -2  123.99    6.90
   1  -3  -2  142.69    7.10
   1  -3  -2  121.69    8.40
   1  -3  -2  124.29    7.50
  -1  -3   2  129.69    6.90
   1  -3  -2  124.39    6.80
  -1  -3   2  123.79    6.60
  -1  -3   2  122.99    7.20
   1  -3  -2  124.29    7.50
   1   3  -1  316.17   16.10
  -1   3   1  320.37   16.10
   1   3  -1  293.37   15.40
   1  -3  -1  311.67   15.60
   1  -3  -1  299.57   15.50
  -1  -3   1  308.47   15.60
   1  -3  -1  309.87   15.90
  -1  -3   1  285.57   15.30
  -1  -3   1  295.77   15.90
  -1  -3   1  305.17   15.40
   1   3   0  163.58    9.50
  -1   3   0  172.28    9.50
  -1   3   0  171.78    8.80
  -1  -3   0  170.48   10.00
  -1  -3   0  162.18    8.70
   1  -3   0  167.68    8.80
  -1  -3   0  164.48    8.60
  -1  -3   0  177.38    9.40
  -1  -3   0  176.18    9.10
  -1  -3   0  179.98    8.70
   1  -3   0  161.18    9.40
   1   3   1  616.94   29.50
   1   3   1  597.14   29.30
  -1   3  -1  609.84   29.50
  -1   3  -1  562.24   28.90
  -1   3  -1  557.24   28.90
   1   3   1  582.94   29.00
   1  -3   1  559.04   28.90
   1  -3   1  554.74   29.30
  -1  -3  -1  583.04   29.30
  -1  -3  -1  530.85   29.30
  -1  -3  -1  582.64   29.00
  -1  -3  -1  548.65   28.90
   1  -3   1  570.84   28.80
  -1  -3  -1  591.84   30.00
   1   3   2  141.49    7.30
  -1   3  -2  142.49    8.00
   1   3   2  135.19    8.70
  -1   3  -2  131.99    7.30
  -1   3  -2  137.19    7.20
   1   3   2  147.29    7.90
   1   3   2  142.29    7.40
   1  -3   2  136.09    7.20
  -1  -3  -2  126.89    7.30
  -1  -3  -2  127.29    7.90
   1  -3   2  133.39    7.80
  -1  -3  -2  138.89    7.40
   1  -3   2  136.69    7.30
  -1  -3  -2  134.39    8.00
  -1  -3  -2  131.49    8.60
  -1   3  -3  294.97   15.20
   1   3   3  291.07   14.80
   1   3   3  276.57   15.10
   1   3   3  270.97   15.90
  -1   3  -3  295.07   14.60
  -1   3  -3  283.97   14.80
   1   3   3  314.97   14.80
  -1  -3  -3  268.27   14.70
  -1  -3  -3  302.97   15.30
   1  -3   3  281.77   14.60
   1  -3   3  290.37   15.20
   1  -3   3  268.57   14.70
   1  -3   3  296.97   15.50
  -1  -3  -3  255.97   15.80
  -1  -3  -3  275.57   14.80
   1  -3   3  273.57   14.70
  -1   3  -4  229.18   12.70
   1   3   4  248.18   13.90
  -1   3  -4  240.28   12.50
   1   3   4  246.28   13.10
   1   3   4  249.97   12.70
   1   3   4  251.07   12.70
  -1   3  -4  227.98   13.10
  -1  -3  -4  238.58   14.00
  -1  -3  -4  239.58   13.20
  -1  -3  -4  238.78   12.80
   1  -3   4  223.18   12.50
   1  -3   4  232.18   13.20
   1  -3   4  241.18   12.50
  -1  -3  -4  225.78   12.70
   1  -3   4  242.68   12.80
   1   3   5  569.14   29.90
   1   3   5  577.04   28.90
  -1   3  -5  570.74   28.70
   1   3   5  515.95   29.20
   1   3   5  592.74   28.90
  -1   3  -5  580.74   29.00
  -1   3  -5  555.74   29.20
   1  -3   5  539.05   28.60
  -1  -3  -5  534.05   29.20
  -1  -3  -5  560.84   29.90
   1  -3   5  544.65   28.70
  -1  -3  -5  535.95   28.90
   1  -3   5  589.34   29.40
   1  -3   5  574.14   29.00
  -1  -3  -5  595.44   29.00
  -1   3  -6    4.70    2.20
   1   3   6    2.70    2.00
  -1   3  -6    4.90    1.90
  -1   3  -6    3.50    1.90
  -1   3  -6    5.90    2.80
  -1  -3  -6    2.00    2.90
   1  -3   6    3.60    1.50
  -1  -3  -6    2.40    2.40
   1  -3   6    1.60    1.50
   1  -3   6    3.20    2.00
  -1  -3  -6    3.40    2.10
  -1  -3  -6    3.50    3.40
   1  -3   6    3.40    2.70
  -1   3  -7   66.69    4.90
  -1   3  -7   70.99    5.70
   1   3   7   58.79    5.20
  -1   3  -7   67.89    6.00
  -1   3  -7   61.79    4.90
   1  -3   7   57.19    5.80
  -1  -3  -7   59.89    6.10
   1  -3   7   64.39    5.20
   1  -3   7   55.99    4.40
  -1  -3  -7   57.49    5.40
  -1  -3  -7   63.89    7.00
   1   3   8    4.20    2.50
  -1   3  -8    2.20    2.30
  -1   3  -8    7.90    2.90
  -1   3  -8    3.90    3.20
  -1   3  -8    2.20    2.30
   1  -3   8   -1.70    2.90
   1  -3   8    5.10    2.50
  -1  -3  -8    3.30    2.90
  -1  -3  -8    6.20    4.40
  -1  -3  -8    4.60    3.60
   1  -3   8    4.70    1.90
   1   3   9    3.20    2.70
  -1   3  -9    8.70    2.90
  -1   3  -9    8.70    3.10
  -1   3  -9    4.20    2.70
  -1  -3  -9   10.20    4.90
  -1  -3  -9    7.80    3.40
  -1  -3  -9    6.10    3.80
   1  -3   9    0.90    1.00
   1  -3   9   -0.90    3.10
   1  -3   9    5.30    2.80
  -1   3 -10  112.49    7.40
  -1   3 -10  114.39    8.10
  -1   3 -10  104.89    7.70
   1   3  10   92.19    7.60
   1  -3  10   98.79    7.70
  -1  -3 -10  105.29    8.90
  -1  -3 -10   89.49    8.00
  -1  -3 -10   90.89   10.10
  -1   3 -11   25.50    3.90
  -1   3 -11   30.40    3.90
   1   3  11   24.10    4.10
  -1   3 -11   26.60    4.20
   1  -3  11   21.00    3.90
  -1  -3 -11   18.10    6.10
  -1  -3 -11   14.30    5.30
  -1  -3 -11   20.10    4.30
  -1   3 -12   54.69    5.60
  -1   3 -12   53.69    5.50
   1   3  12   59.69    6.20
  -1  -3 -12   54.09    6.00
   1  -3  12   65.59    6.60
  -1  -3 -12   65.09    7.30
  -1  -3 -12   55.19    8.20
  -1   3 -13   11.50    4.10
   1   3  13   14.40    4.10
  -1   3 -13   11.00    4.70
  -1  -3 -13    7.50    6.00
  -1  -3 -13   16.50    6.10
   1  -3  13   13.10    3.90
  -1  -3 -13   12.40    4.50
   1   4 -13   38.10    4.90
   1   4 -13   40.50    5.80
  -1   4  13   47.40    5.70
   1  -4 -13   24.20    5.20
   1  -4 -13   43.50    7.40
   1  -4 -13   40.30    7.90
  -1  -4  13   31.50    5.30
   1   4 -12   42.10    5.50
   1   4 -12   27.30    4.30
  -1   4  12   21.50    4.20
   1  -4 -12   24.00    4.90
  -1  -4  12   26.80    4.60
   1  -4 -12   27.80    6.30
   1  -4 -12   25.20    7.00
   1   4 -11  301.87   17.30
  -1   4  11  324.67   17.50
   1   4 -11  275.57   17.70
   1  -4 -11  289.87   17.60
   1  -4 -11  337.47   18.50
  -1  -4  11  298.37   17.60
   1  -4 -11  325.67   19.50
   1   4 -10  128.49    7.00
   1   4 -10  100.39    8.60
   1   4 -10   98.79    7.60
  -1   4  10  103.09    7.80
   1  -4 -10  118.09   10.50
   1  -4 -10  110.99    8.70
  -1  -4  10   97.49    7.90
   1  -4 -10  112.39    9.30
   1   4  -9  126.59    8.10
  -1   4   9  128.39    8.40
   1   4  -9  119.09    8.90
   1   4  -9  118.39    7.40
  -1  -4   9  129.59    8.50
   1  -4  -9  121.39    8.70
   1  -4  -9  111.59    9.40
   1  -4  -9  120.49   10.40
   1   4  -8    1.90    2.20
   1   4  -8    1.20    3.10
  -1   4   8   -0.50    2.30
   1  -4  -8    0.20    4.10
  -1  -4   8    0.40    2.40
  -1  -4   8   -2.60    2.80
   1  -4  -8    0.90    2.90
  -1  -4   8   -0.20    1.60
   1  -4  -8   -0.40    3.80
   1   4  -7   13.20    3.30
  -1   4   7   12.60    2.50
   1   4  -7   10.80    2.20
  -1  -4   7    7.20    2.50
   1  -4  -7   14.40    3.70
   1  -4  -7   14.50    3.00
  -1  -4   7    9.90    1.70
  -1  -4   7   10.40    1.80
  -1  -4   7   10.30    2.80
  -1   4   6    3.50    1.90
   1   4  -6    0.50    1.60
   1  -4  -6    4.30    3.80
   1  -4  -6    1.20    2.30
  -1  -4   6    4.20    2.00
   1  -4  -6    1.00    2.00
   1  -4  -6    2.30    3.00
   1   4  -5  498.25   26.50
  -1   4   5  514.45   25.90
   1   4  -5  540.65   26.10
   1   4  -5  490.35   25.70
   1  -4  -5  536.65   26.20
  -1  -4   5  500.65   26.00
   1  -4  -5  468.55   26.50
  -1  -4   5  501.55   25.70
  -1  -4   5  527.95   26.50
   1  -4  -5  503.75   27.40
   1  -4  -5  478.45   25.90
  -1  -4   5  487.05   25.50
   1   4  -4  110.49    6.00
  -1   4   4  113.59    6.60
   1   4  -4  109.99    6.40
  -1   4   4  108.49    6.30
   1   4  -4  102.89    7.20
   1  -4  -4  103.79    7.40
  -1  -4   4  104.39    7.10
   1  -4  -4  110.99    6.70
  -1  -4   4   99.59    6.70
   1  -4  -4   95.69    6.90
  -1  -4   4  121.99    6.50
  -1  -4   4  113.69    6.00
  -1  -4   4   99.39    5.90
   1  -4  -4  116.49    8.60
   1  -4  -4  110.69    6.30
  -1   4   3   16.40    2.70
   1   4  -3   17.00    1.50
   1   4  -3   15.70    3.00
  -1   4   3   16.50    2.10
  -1   4   3   15.40    1.80
   1   4  -3   16.10    2.00
  -1  -4   3   17.20    1.70
  -1  -4   3   15.60    2.50
   1  -4  -3   14.90    2.70
   1  -4  -3   19.10    3.10
   1  -4  -3   18.60    4.10
  -1  -4   3   20.70    2.00
   1  -4  -3   16.60    1.90
   1  -4  -3   11.90    2.10
  -1   4   2   22.40    2.10
   1   4  -2   20.20    1.90
  -1   4   2   16.90    1.90
   1   4  -2   25.50    3.30
   1   4  -2   25.50    1.80
  -1   4   2   24.40    3.20
  -1  -4   2   20.40    2.70
   1  -4  -2   21.60    3.00
  -1  -4   2   26.30    1.70
   1  -4  -2   18.80    2.10
  -1  -4   2   21.80    2.40
   1  -4  -2   18.20    2.10
   1  -4  -2   17.20    2.80
   1  -4  -2   17.70    3.70
  -1  -4   2   21.90    2.30
   1  -4  -2   17.80    1.90
   1   4  -1  174.18   10.00
  -1   4   1  187.58    9.90
  -1  -4   1  176.58    9.20
  -1  -4   1  166.28    8.70
  -1  -4   1  158.88    9.70
   1  -4  -1  175.98    9.10
   1  -4  -1  165.58    9.00
  -1  -4   1  157.78    8.80
   1  -4  -1  178.28    9.60
  -1  -4   1  166.28    8.70
   1  -4  -1  164.88    9.80
   1   4   0  466.15   23.80
  -1   4   0  466.25   23.80
   1  -4   0  461.35   23.80
  -1  -4   0  474.05   23.50
   1  -4   0  455.25   23.50
  -1  -4   0  471.85   23.80
   1  -4   0  449.16   23.10
  -1  -4   0  451.25   24.50
  -1  -4   0  435.36   23.00
  -1  -4   0  462.45   23.00
   1  -4   0  433.56   23.10
   1   4   1  156.08    8.80
  -1   4  -1  149.59    9.20
   1   4   1  155.38    9.10
  -1   4  -1  148.99    8.10
   1   4   1  150.18    8.10
  -1  -4  -1  148.09    7.90
  -1  -4  -1  165.68    8.90
  -1  -4  -1  153.88    8.20
   1  -4   1  150.18    8.10
  -1  -4  -1  163.78   10.20
   1  -4   1  156.28    8.90
  -1  -4  -1  141.69    8.90
   1   4   2   25.60    2.20
  -1   4  -2   23.80    2.00
  -1   4  -2   23.90    2.30
   1   4   2   23.50    2.80
  -1   4  -2   21.70    3.10
  -1  -4  -2   24.10    2.30
   1  -4   2   23.90    2.20
   1  -4   2   27.60    2.30
  -1  -4  -2   26.10    3.10
  -1  -4  -2   25.00    3.20
   1  -4   2   18.90    2.80
  -1  -4  -2   22.10    2.30
  -1  -4  -2   23.50    4.00
  -1   4  -3   99.89    5.70
   1   4   3  100.29    6.60
   1   4   3  107.59    5.90
  -1   4  -3  104.09    6.00
  -1   4  -3  102.19    6.90
   1   4   3  103.79    6.00
   1  -4   3  101.49    5.70
   1  -4   3  108.19    5.90
  -1  -4  -3  100.79    6.90
  -1  -4  -3   99.79    7.70
  -1  -4  -3  106.09    6.20
   1  -4   3   96.99    6.60
   1  -4   3   88.89    7.00
  -1  -4  -3   99.09    5.90
  -1  -4  -3  103.59    6.70
   1   4   4  271.87   13.90
   1   4   4  281.57   14.10
  -1   4  -4  252.67   14.60
  -1   4  -4  270.87   13.80
  -1   4  -4  273.77   14.00
   1  -4   4  270.47   14.00
   1  -4   4  256.07   13.70
  -1  -4  -4  228.48   14.50
  -1  -4  -4  261.07   15.60
  -1  -4  -4  273.47   14.00
  -1  -4  -4  264.77   14.10
   1  -4   4  247.78   13.80
   1  -4   4  274.77   14.90
   1   4   5  375.26   20.10
  -1   4  -5  409.56   20.20
  -1   4  -5  373.26   19.90
   1   4   5  360.66   20.10
  -1   4  -5  419.76   20.80
  -1  -4  -5  360.56   20.10
   1  -4   5  370.96   20.10
  -1  -4  -5  429.56   21.90
  -1  -4  -5  387.76   20.70
   1  -4   5  378.96   20.70
  -1  -4  -5  380.16   20.30
   1  -4   5  403.06   19.90
   1  -4   5  364.86   19.90
   1   4   6    5.50    2.00
  -1   4  -6    5.30    2.20
  -1   4  -6    7.70    2.90
  -1   4  -6    3.80    1.70
   1  -4   6    6.50    2.50
   1  -4   6    1.60    2.10
   1  -4   6    1.60    1.50
   1  -4   6    3.00    1.40
  -1   4  -7   81.29    5.50
   1   4   7   80.39    5.90
  -1   4  -7   83.39    6.90
   1  -4   7   85.89    6.70
   1  -4   7   80.99    5.40
  -1  -4  -7   68.99    6.60
   1  -4   7   88.89    6.20
   1  -4   7   80.69    5.90
  -1  -4  -7   79.69    8.10
  -1  -4  -7   76.49    6.20
  -1   4  -8    2.20    3.20
   1   4   8    2.30    2.40
  -1   4  -8    3.50    2.30
  -1  -4  -8   -2.60    2.80
  -1  -4  -8    3.30    4.60
   1  -4   8    3.20    2.40
   1  -4   8   -3.60    3.20
  -1  -4  -8    7.70    3.90
   1  -4   8   -1.50    1.70
  -1   4  -9    5.40    2.50
  -1   4  -9    9.60    3.80
  -1   4  -9    3.60    2.60
   1   4   9    1.20    2.60
   1  -4   9    2.90    2.70
  -1  -4  -9   12.90    5.70
  -1  -4  -9    5.50    3.40
  -1  -4  -9    9.90    4.60
  -1   4 -10    6.60    2.90
   1   4  10    7.00    3.10
  -1   4 -10    8.10    2.70
  -1   4 -10    6.80    3.90
  -1  -4 -10   23.50    6.20
   1  -4  10    6.80    3.10
  -1  -4 -10   11.40    3.80
  -1  -4 -10   18.50    5.10
  -1   4 -11   59.99    5.50
  -1   4 -11   56.39    6.40
   1   4  11   60.89    6.00
  -1   4 -11   51.89    5.20
  -1  -4 -11   68.09    8.60
  -1  -4 -11   51.49    5.80
  -1  -4 -11   66.89    7.30
   1  -4  11   61.99    6.70
  -1   4 -12   22.30    4.90
   1   4  12   22.80    4.30
  -1   4 -12   14.70    4.00
  -1  -4 -12   37.10    6.30
   1  -4  12   23.30    4.50
  -1  -4 -12   31.70    4.90
  -1   4 -13    4.00    4.20
  -1   4 -13    6.20    3.80
   1   4  13   -0.10    3.30
   1  -4  13    0.70    3.60
  -1  -4 -13   -1.40    5.80
  -1  -4 -13    0.10    4.00
  -1  -4 -13   -1.70    6.20
   1   5 -12   11.70    3.60
  -1   5  12   17.50    3.90
   1   5 -12   16.50    4.60
   1  -5 -12   14.10    6.20
   1  -5 -12   20.80    4.80
  -1  -5  12   11.30    4.00
   1  -5 -12   17.40    7.40
   1   5 -11    8.50    3.20
   1   5 -11    5.40    3.90
  -1   5  11    5.50    3.10
   1  -5 -11   11.90    5.70
   1  -5 -11    7.00    4.10
   1  -5 -11   19.30    6.90
  -1  -5  11    4.70    3.30
   1   5 -10    1.70    2.60
  -1   5  10    1.00    2.70
   1   5 -10   10.20    3.90
   1  -5 -10    1.60    5.50
  -1  -5  10   -0.50    2.80
   1  -5 -10   -2.50    4.90
   1  -5 -10    0.10    3.70
  -1   5   9   36.50    4.10
   1   5  -9   33.30    4.90
   1   5  -9   33.90    3.60
   1  -5  -9   32.40    4.50
   1  -5  -9   38.70    5.80
  -1  -5   9   31.20    4.20
   1  -5  -9   34.10    6.70
   1   5  -8   -1.30    3.30
  -1   5   8   -3.30    2.10
   1   5  -8    1.60    2.10
  -1  -5   8   -3.20    2.60
   1  -5  -8   -5.60    3.90
   1  -5  -8   -5.10    3.00
   1  -5  -8   -3.60    4.80
   1   5  -7   77.79    7.30
   1   5  -7   86.79    5.60
  -1   5   7   82.39    6.00
  -1  -5   7   98.69    6.70
   1  -5  -7   86.09    7.70
   1  -5  -7   83.19    8.40
  -1  -5   7   91.99    6.40
   1  -5  -7   89.79    6.90
  -1  -5   7   87.89    5.40
  -1  -5   7   74.19    5.20
  -1   5   6   -1.70    1.70
   1   5  -6    0.90    1.60
   1   5  -6    2.30    3.00
   1   5  -6    0.50    2.10
  -1  -5   6    0.20    1.20
   1  -5  -6    1.30    2.00
   1  -5  -6   -0.40    4.20
  -1  -5   6    0.40    2.10
  -1  -5   6    2.20    2.40
   1  -5  -6   -1.80    3.20
   1  -5  -6   -0.60    2.40
  -1  -5   6   -0.50    1.30
  -1   5   5  121.29    7.00
   1   5  -5  117.29    6.60
   1   5  -5  111.39    7.10
   1   5  -5  115.79    8.20
  -1  -5   5  114.59    6.60
   1  -5  -5  123.09    9.80
  -1  -5   5  110.79    6.50
   1  -5  -5  120.49    7.50
   1  -5  -5  132.29    8.50
   1  -5  -5  119.69    7.00
  -1  -5   5  115.49    8.00
  -1  -5   5  125.49    7.20
  -1   5   4  167.18    9.30
  -1   5   4  157.78    9.60
   1   5  -4  178.98    9.10
   1   5  -4  180.98   10.50
   1   5  -4  179.58    9.50
   1  -5  -4  166.28   10.50
   1  -5  -4  170.88   11.80
   1  -5  -4  163.98    9.70
  -1  -5   4  188.68    9.50
   1  -5  -4  171.18    9.30
  -1  -5   4  165.68    9.00
  -1  -5   4  167.98    9.10
  -1   5   3    2.70    1.20
   1   5  -3   -0.40    2.70
   1   5  -3    2.60    1.40
  -1   5   3   -0.80    1.50
   1   5  -3    0.70    0.90
   1  -5  -3    1.60    1.20
   1  -5  -3    2.10    3.30
   1  -5  -3    0.60    2.50
  -1  -5   3    1.00    0.80
  -1  -5   3    3.60    1.30
  -1  -5   3    1.40    1.30
   1  -5  -3    1.60    1.70
   1   5  -2  255.37   14.10
  -1   5   2  247.88   14.00
   1   5  -2  244.68   12.90
  -1  -5   2  253.97   13.20
   1  -5  -2  243.48   13.10
   1  -5  -2  253.17   13.80
   1  -5  -2  259.37   13.20
  -1  -5   2  261.17   12.90
  -1  -5   2  242.38   12.70
   1  -5  -2  236.88   14.80
   1   5  -1  582.54   31.20
  -1   5   1  608.84   31.20
   1  -5  -1  576.84   30.50
  -1  -5   1  607.34   32.00
  -1  -5   1  621.94   30.80
  -1  -5   1  570.54   30.20
   1  -5  -1  626.64   32.30
   1  -5  -1  602.94   31.00
   1  -5  -1  616.14   30.60
  -1  -5   1  609.84   30.20
   1   5   0    1.30    2.60
  -1   5   0    7.20    2.60
  -1  -5   0    1.30    0.90
   1  -5   0    2.80    1.20
  -1  -5   0    3.60    3.40
   1  -5   0    3.00    2.10
   1  -5   0    1.60    1.20
  -1  -5   0    0.10    0.90
  -1  -5   0    1.40    2.10
  -1   5  -1  680.93   35.90
   1   5   1  712.93   35.90
  -1  -5  -1  651.03   35.00
   1  -5   1  734.93   35.50
  -1  -5  -1  708.23   35.60
   1  -5   1  700.93   35.00
  -1  -5  -1  646.84   36.50
  -1  -5  -1  719.33   35.10
  -1   5  -2  117.39    7.90
   1   5   2  121.09    7.40
  -1   5  -2  110.39    6.40
   1   5   2  120.19    6.80
  -1   5  -2  120.19    6.60
  -1  -5  -2  124.89    6.40
  -1  -5  -2  127.49    7.80
   1  -5   2  115.59    6.50
  -1  -5  -2  115.39    6.80
  -1  -5  -2  122.39    9.10
   1  -5   2  123.99    6.40
   1   5   3  189.98   10.40
  -1   5  -3  192.98   10.20
  -1   5  -3  193.98   10.20
  -1   5  -3  177.08   11.30
  -1  -5  -3  192.98   10.50
  -1  -5  -3  190.38   12.50
  -1  -5  -3  194.98   11.20
   1  -5   3  208.18   10.20
  -1  -5  -3  195.28   10.20
   1  -5   3  187.18   10.10
  -1   5  -4    4.50    1.90
  -1   5  -4    6.90    3.00
   1   5   4    7.70    1.90
  -1   5  -4    7.20    1.60
   1  -5   4    7.90    1.80
   1  -5   4   10.10    3.00
   1  -5   4    5.90    1.30
   1  -5   4    6.50    1.70
  -1   5  -5  368.16   18.30
   1   5   5  362.56   18.50
  -1   5  -5  353.26   18.60
  -1   5  -5  349.47   19.40
  -1  -5  -5  362.16   18.50
   1  -5   5  359.66   18.30
  -1  -5  -5  373.46   20.70
   1  -5   5  351.46   19.50
  -1  -5  -5  314.97   18.60
   1  -5   5  367.16   18.60
   1  -5   5  330.47   18.30
  -1  -5  -5  348.77   19.30
  -1   5  -6   55.69    5.70
   1   5   6   44.90    4.30
  -1   5  -6   54.09    4.00
  -1   5  -6   48.10    4.60
  -1  -5  -6   55.29    6.10
  -1  -5  -6   50.99    7.50
   1  -5   6   58.19    5.60
   1  -5   6   44.60    3.90
  -1  -5  -6   42.80    4.50
   1  -5   6   54.69    4.60
   1  -5   6   50.99    3.80
  -1  -5  -6   46.50    4.40
  -1   5  -7    8.20    2.20
   1   5   7    4.10    2.40
  -1   5  -7   12.40    3.60
   1  -5   7    9.20    2.70
  -1  -5  -7    7.90    3.00
  -1  -5  -7    4.20    3.90
   1  -5   7    4.40    1.90
   1  -5   7    6.90    2.90
   1  -5   7    3.10    1.60
  -1  -5  -7    5.10    4.80
   1   5   8   22.00    3.30
  -1   5  -8   25.50    4.50
  -1   5  -8   22.70    3.00
  -1  -5  -8   20.80    4.90
  -1  -5  -8   21.80    3.80
  -1  -5  -8   23.00    5.80
   1  -5   8   22.20    3.60
  -1   5  -9   -1.10    3.50
  -1   5  -9    3.10    2.60
   1   5   9   -0.10    2.50
  -1  -5  -9   -2.10    3.20
   1  -5   9   -2.10    2.70
  -1  -5  -9   -3.00    5.40
  -1  -5  -9   -0.40    4.20
  -1   5 -10   36.60    5.30
  -1   5 -10   28.80    3.70
   1   5  10   20.40    3.80
  -1  -5 -10   29.30    6.00
  -1  -5 -10   39.30    7.30
   1  -5  10   26.00    4.10
  -1  -5 -10   24.20    4.50
  -1   5 -11   79.19    6.60
   1   5  11   78.39    7.20
  -1   5 -11   81.49    8.00
  -1  -5 -11   72.49    9.50
  -1  -5 -11   77.09    7.60
   1  -5  11   82.09    7.50
  -1  -5 -11   60.19    7.50
  -1   5 -12    8.40    3.60
  -1   5 -12   12.90    4.50
   1   5  12    7.60    3.60
  -1  -5 -12    8.20    6.60
  -1  -5 -12    6.80    4.30
  -1  -5 -12   12.60    6.30
   1  -5  12    6.00    3.50
  -1   6  12    5.30    3.50
   1   6 -12   20.30    5.30
   1  -6 -12   12.50    5.00
   1  -6 -12    9.40    6.60
  -1  -6  12    9.60    4.10
   1  -6 -12    8.80    6.70
  -1   6  11    0.00    2.90
   1   6 -11   -3.10    3.90
   1  -6 -11   -0.40    4.00
  -1  -6  11   -0.40    3.30
   1  -6 -11   -0.40    5.60
   1  -6 -11    1.90    6.50
  -1   6  10   22.60    3.70
   1   6 -10   24.60    4.90
   1  -6 -10   20.30    5.70
  -1  -6  10   21.20    3.90
   1  -6 -10   28.50    7.00
   1  -6 -10   26.70    4.50
  -1   6   9   40.00    4.20
   1   6  -9   38.60    3.70
   1   6  -9   41.60    5.60
   1  -6  -9   35.00    4.80
   1  -6  -9   41.10    7.50
   1  -6  -9   33.80    5.70
  -1  -6   9   34.50    4.40
   1   6  -8   30.10    3.20
  -1   6   8   29.40    3.60
   1   6  -8   43.70    5.60
   1  -6  -8   27.20    5.30
   1  -6  -8   42.90    7.10
   1  -6  -8   26.30    4.10
  -1  -6   8   25.60    3.80
   1   6  -7   76.39    5.30
   1   6  -7   82.39    7.60
  -1   6   7   74.49    5.70
   1  -6  -7   73.69    8.00
  -1  -6   7   84.19    6.20
   1  -6  -7   85.29    9.80
   1  -6  -7   75.49    6.70
   1   6  -6    5.20    1.60
   1   6  -6    2.60    2.30
   1   6  -6    5.00    3.50
  -1   6   6   -1.50    1.90
  -1  -6   6   -0.30    0.80
   1  -6  -6    1.30    3.70
   1  -6  -6    2.20    5.00
  -1  -6   6    2.10    2.00
   1  -6  -6   -1.80    2.00
   1  -6  -6   -0.40    2.50
  -1   6   5   11.80    2.00
   1   6  -5   11.20    1.60
   1   6  -5   10.20    2.20
   1   6  -5   12.40    3.70
   1  -6  -5   17.20    5.40
   1  -6  -5   14.70    3.90
  -1  -6   5   13.20    2.20
   1  -6  -5    9.50    2.00
  -1  -6   5    9.90    1.80
   1  -6  -5    7.50    2.60
  -1  -6   5   10.30    1.40
  -1   6   4   44.00    3.10
   1   6  -4   35.40    2.70
   1   6  -4   39.00    3.60
   1   6  -4   36.50    4.60
  -1  -6   4   46.80    3.60
   1  -6  -4   42.50    4.10
   1  -6  -4   57.99    7.50
  -1  -6   4   42.10    3.40
   1  -6  -4   27.80    3.20
  -1  -6   4   49.60    3.50
  -1  -6   4   34.60    2.60
   1  -6  -4   38.50    4.70
   1   6  -3   38.30    3.10
   1   6  -3   45.50    5.10
   1  -6  -3   42.50    6.20
  -1  -6   3   45.90    3.60
   1  -6  -3   38.30    3.50
   1  -6  -3   38.80    4.50
  -1  -6   3   48.70    3.10
   1  -6  -3   36.50    3.50
   1   6  -2    2.50    3.10
  -1   6   2   12.10    3.40
  -1  -6   2    0.30    0.90
  -1  -6   2    0.00    1.70
   1  -6  -2   -2.10    1.20
   1  -6  -2    2.40    2.80
   1  -6  -2    1.20    1.60
   1  -6  -2    7.20    4.10
   1   6  -1    0.80    2.90
  -1   6   1    2.30    2.90
   1  -6  -1    1.00    2.40
   1  -6  -1    2.10    1.30
  -1  -6   1    2.40    3.40
  -1  -6   1    0.60    1.90
   1  -6  -1    2.10    3.80
   1  -6  -1    1.60    1.40
  -1  -6   1    1.50    0.80
  -1  -6   1    1.70    0.80
  -1   6   0    0.00    2.70
   1   6   0    0.50    3.00
  -1  -6   0    1.40    1.00
  -1  -6   0    4.30    3.70
  -1  -6   0    1.40    1.00
   1  -6   0    0.40    1.10
   1  -6   0    1.80    2.30
  -1  -6   0   -0.20    2.10
   1  -6   0    0.90    1.20
  -1   6  -1   19.60    3.70
   1   6   1   20.80    3.80
   1  -6   1   20.00    2.90
  -1  -6  -1   19.80    1.90
  -1  -6  -1   19.10    4.20
  -1  -6  -1   22.00    2.10
   1  -6   1   19.50    1.80
  -1  -6  -1   20.90    3.20
   1  -6   1   19.00    1.80
  -1   6  -2    0.00    1.20
  -1   6  -2    1.00    3.00
  -1  -6  -2    1.60    1.20
   1  -6   2    3.20    2.00
  -1  -6  -2    0.90    1.40
   1  -6   2    0.50    1.00
  -1  -6  -2   -4.60    3.60
  -1  -6  -2    1.50    2.70
  -1   6  -3   24.80    2.20
  -1   6  -3   22.50    2.10
   1   6   3   25.60    2.60
  -1   6  -3   22.10    4.00
   1  -6   3   22.90    2.40
  -1  -6  -3   30.10    4.00
  -1  -6  -3   25.90    2.70
  -1  -6  -3   25.80    5.00
  -1  -6  -3   26.00    2.40
   1  -6   3   34.00    2.50
   1   6   4   57.39    4.60
  -1   6  -4   46.80    4.20
  -1   6  -4   56.19    6.30
  -1   6  -4   54.59    4.00
   1  -6   4   56.89    3.90
  -1  -6  -4   81.39    7.60
  -1  -6  -4   69.39    4.90
   1  -6   4   54.09    4.70
  -1  -6  -4   69.39    4.20
  -1  -6  -4   85.39    6.30
   1  -6   4   63.89    4.30
  -1   6  -5   12.10    1.90
  -1   6  -5   24.00    2.50
  -1  -6  -5    4.70    2.00
  -1  -6  -5    3.30    5.00
   1  -6   5    5.90    1.50
  -1  -6  -5    0.80    3.60
  -1  -6  -5    2.90    2.50
  -1   6  -6   38.50    5.10
   1   6   6   38.00    3.90
  -1   6  -6   37.20    3.60
  -1   6  -6   27.90    3.40
  -1  -6  -6   49.60    6.70
   1  -6   6   28.90    2.90
  -1  -6  -6   26.50    3.00
   1  -6   6   38.90    4.10
  -1  -6  -6   48.90    5.50
  -1  -6  -6   40.50    3.80
   1  -6   6   22.70    2.80
  -1   6  -7    9.10    3.90
   1   6   7   -0.90    2.20
  -1   6  -7    3.50    2.00
   1  -6   7   -4.40    2.20
  -1  -6  -7    2.20    2.90
  -1  -6  -7   13.50    5.50
  -1  -6  -7    5.80    4.10
  -1   6  -8   63.09    6.70
  -1   6  -8   45.30    4.70
   1   6   8   39.70    4.40
  -1  -6  -8   64.09    8.20
  -1  -6  -8   40.60    4.80
   1  -6   8   44.50    4.70
  -1  -6  -8   54.89    6.50
  -1   6  -9   24.80    3.30
  -1   6  -9   29.50    5.20
   1   6   9   26.60    3.80
  -1  -6  -9   20.60    5.50
  -1  -6  -9   21.50    6.60
   1  -6   9   23.60    3.70
  -1  -6  -9   19.50    4.20
   1   6  10   -1.70    2.80
  -1   6 -10   13.00    4.50
  -1   6 -10    2.10    2.70
  -1  -6 -10   -1.00    5.00
  -1  -6 -10   -4.30    6.00
   1  -6  10    1.00    2.80
  -1  -6 -10    0.70    3.80
  -1   6 -11    0.30    1.50
  -1   6 -11    2.30    4.10
   1   6  11   -2.90    3.00
  -1  -6 -11    1.50    5.80
   1  -6  11   -0.70    3.10
  -1  -6 -11   -2.20    6.50
  -1  -6 -11    0.50    4.00
   1   7 -11   -2.40    4.40
   1   7 -10   28.60    5.70
  -1  -7  10   21.20    4.20
   1  -7 -10   33.20    6.60
   1  -7 -10   41.00    5.10
   1  -7 -10   43.60    7.70
   1   7  -9   25.70    5.30
   1  -7  -9   28.60    4.40
   1  -7  -9   21.50    6.30
  -1  -7   9   19.30    3.60
   1  -7  -9   25.10    7.40
   1   7  -8   24.00    5.20
  -1  -7   8   17.30    3.30
   1  -7  -8   24.90    4.20
   1  -7  -8   28.90    7.00
   1  -7  -8   28.10    5.70
   1   7  -7  128.19   10.50
   1  -7  -7  149.88   10.90
   1  -7  -7  145.79    9.40
  -1  -7   7  139.39    8.70
   1  -7  -7  148.19   13.10
  -1   7   6   10.00    2.10
   1   7  -6   13.80    4.30
   1  -7  -6   14.00    3.10
   1  -7  -6   10.20    6.00
  -1  -7   6   10.20    2.40
   1  -7  -6   12.80    4.50
  -1   7   5   26.40    2.60
   1   7  -5   28.60    4.90
   1  -7  -5   23.20    5.40
   1  -7  -5   20.20    4.50
   1  -7  -5   19.90    3.10
  -1  -7   5   15.50    2.30
  -1  -7   5   19.20    2.40
   1  -7  -4   24.50    4.50
   1  -7  -4   26.60    6.20
   1  -7  -4   24.70    3.10
   1   7  -3   20.40    4.30
  -1  -7   3   20.80    2.10
  -1  -7   3   15.40    4.10
   1  -7  -3    9.10    2.30
   1  -7  -3   14.60    4.80
  -1  -7   3   11.80    2.30
   1  -7  -3   14.20    3.90
  -1   7   2   45.40    5.30
   1   7  -2   40.70    5.20
   1  -7  -2   35.30    3.60
  -1  -7   2   43.90    4.20
   1  -7  -2   37.80    4.60
   1  -7  -2   43.00    3.80
  -1  -7   2   44.80    6.10
   1  -7  -2   49.00    6.90
   1   7  -1   95.19    8.30
  -1   7   1   97.79    8.30
   1  -7  -1  110.89    9.80
  -1  -7   1   96.29    6.80
  -1  -7   1   98.79    9.10
   1  -7  -1  121.09    7.80
   1  -7  -1  104.89    6.10
   1  -7  -1  100.69    6.10
   1   7   0   31.20    4.70
  -1  -7   0   35.90    3.90
  -1  -7   0   25.70    2.40
  -1  -7   0   29.40    2.50
  -1  -7   0   26.20    5.50
   1   7   1   53.99    5.70
  -1   7  -1   62.09    6.50
  -1  -7  -1   45.50    5.30
  -1  -7  -1   44.00    3.60
   1  -7   1   54.49    3.50
   1  -7   1   52.69    3.50
   1  -7   1   67.39    5.30
  -1  -7  -1   46.90    6.80
  -1  -7  -1   46.00    3.60
  -1   7  -2   10.90    3.90
  -1  -7  -2    8.60    1.70
   1  -7   2   13.70    2.80
  -1  -7  -2   11.20    2.00
   1  -7   2   11.60    1.50
  -1  -7  -2   14.80    3.60
   1  -7   2   11.10    1.50
  -1  -7  -2   12.30    5.10
  -1   7  -3   56.79    4.00
  -1   7  -3   64.89    7.00
  -1  -7  -3   52.99    4.20
  -1  -7  -3   69.89    6.80
   1  -7   3   66.69    5.20
  -1  -7  -3   78.99    8.80
  -1  -7  -3   65.59    4.70
  -1   7  -4    5.30    3.80
  -1   7  -4   -0.10    1.40
   1  -7   4   -1.00    2.00
   1  -7   4    2.30    1.50
   1  -7   4   -1.10    1.20
  -1   7  -5    4.00    1.60
  -1   7  -5    7.10    4.00
   1  -7   5    7.80    1.90
  -1  -7  -5    9.80    4.20
  -1  -7  -5    6.50    5.40
  -1  -7  -5    7.80    2.60
  -1   7  -6   16.70    4.50
   1   7   6    3.10    2.00
  -1   7  -6    8.40    1.70
  -1  -7  -6    8.50    5.90
   1  -7   6    6.20    2.20
  -1  -7  -6    4.00    4.40
  -1  -7  -6    4.00    2.70
  -1   7  -7    0.60    0.90
  -1   7  -7    7.60    4.10
   1   7   7    0.70    2.00
  -1  -7  -7   -3.70    4.60
  -1  -7  -7    2.60    5.10
   1  -7   7    2.90    2.40
  -1  -7  -7    0.60    3.00
  -1   7  -8   13.80    4.60
  -1  -7  -8    9.00    3.50
  -1  -7  -8   11.90    5.30
  -1  -7  -8   16.60    6.60
   1  -7   8   10.40    2.80
  -1   7  -9    7.00    4.80
  -1  -7  -9    9.50    6.50
   1  -7   9    1.20    2.70
  -1  -7  -9    5.90    3.70
  -1  -7  -9    1.70    5.10
  -1   7 -10   35.80    6.20
  -1  -7 -10   31.70    8.00
  -1  -7 -10   39.90    6.90
  -1  -7 -10   35.50    5.00
   1   8  -9   12.00    5.30
   1  -8  -9    9.70    3.90
   1  -8  -9   21.40    7.20
   1  -8  -9   13.60    6.10
   1   8  -8    8.00    4.50
   1  -8  -8    5.50    6.80
   1  -8  -8    4.60    5.80
   1  -8  -8    4.80    3.60
   1  -8  -7   13.90    5.60
   1   8  -6  161.28   11.50
   1  -8  -6  147.09   11.60
   1  -8  -6  128.39   12.20
   1  -8  -6  146.09    9.20
   1   8  -5  216.58   14.60
  -1  -8   5  224.08   14.90
   1  -8  -5  234.68   16.60
   1  -8  -5  239.08   14.60
   1  -8  -5  235.78   13.10
   1   8  -4   20.60    4.80
   1  -8  -4    7.00    2.60
  -1  -8   4   16.80    4.70
   1  -8  -4   22.50    6.20
   1  -8  -4   12.70    4.30
   1   8  -3   12.50    4.50
  -1  -8   3    5.70    2.30
   1  -8  -3   -1.20    2.00
   1  -8  -3    6.00    5.30
   1  -8  -3    7.00    4.00
  -1  -8   3   12.20    4.40
   1   8  -2   22.10    5.10
  -1  -8   2   24.90    5.60
  -1  -8   2   21.70    3.30
   1  -8  -2   25.40    6.50
   1  -8  -2   22.00    2.70
   1  -8  -2   18.10    4.50
  -1   8   1   65.09    7.40
   1   8  -1   59.69    7.40
  -1  -8   1   65.19    8.20
   1  -8  -1   67.39    6.50
  -1  -8   1   63.79    5.80
   1  -8  -1   67.79    9.00
   1  -8  -1   50.09    4.10
  -1   8   0   18.70    4.50
   1  -8   0   14.00    3.70
   1  -8   0   19.30    5.90
  -1   8  -1   16.20    4.30
   1   8   1   14.40    4.40
   1  -8   1   11.50    5.00
  -1  -8  -1    8.80    3.50
  -1  -8  -1    7.70    5.00
   1  -8   1    9.80    3.20
  -1   8  -2    7.20    4.20
  -1  -8  -2   -1.30    4.90
  -1  -8  -2    2.40    3.50
   1  -8   2   -0.70    2.70
  -1  -8  -2   -1.00    1.00
  -1   8  -3   26.60    5.10
   1  -8   3   22.80    3.50
  -1  -8  -3   21.80    2.80
  -1  -8  -3   38.10    6.90
  -1  -8  -3   33.00    4.70
  -1   8  -4    9.00    4.60
  -1  -8  -4   22.80    6.50
  -1  -8  -4   15.10    4.50
  -1  -8  -4   11.00    2.40
  -1   8  -5  210.28   14.60
  -1  -8  -5  213.88   12.50
  -1  -8  -5  233.58   16.40
  -1  -8  -5  236.08   14.30
  -1   8  -6   15.20    4.90
  -1  -8  -6   37.30    5.70
  -1  -8  -6   20.80    3.40
  -1  -8  -7  187.28   14.50
  -1  -8  -7  133.49   11.80
  -1   8  -8   46.00    6.80
  -1  -8  -8   43.60    7.50
  -1  -8  -8   53.49    5.30
  -1  -8  -8   44.80    8.70
  -1   8  -9    9.00    4.70
  -1  -8  -9    4.40    6.80
  -1  -8  -9   -0.80    3.40
  -1  -8  -9    1.10    5.80
   1   9  -7    1.20    4.90
   1  -9  -7    0.10    6.70
   1  -9  -7    4.20    6.30
   1   9  -6   28.90    6.30
  -1  -9   6   37.70    6.10
   1  -9  -6   37.10    6.50
   1  -9  -6   31.30    8.00
   1   9  -5   78.19    9.70
  -1  -9   5  102.19    9.50
   1  -9  -5   86.89   10.50
   1  -9  -5   87.69    9.60
   1   9  -4   56.49    7.10
   1  -9  -4   41.30    8.00
   1  -9  -4   47.40    6.80
  -1  -9   4   67.49    7.80
   1   9  -3   10.60    5.20
   1  -9  -3    0.80    4.30
  -1  -9   3    9.10    4.90
   1  -9  -3    5.00    6.10
   1   9  -2   13.50    5.20
   1  -9  -2    9.20    6.20
  -1  -9   2   19.00    5.60
   1  -9  -2   16.60    4.70
   1   9  -1    7.40    4.80
  -1   9   1   11.60    5.10
   1  -9  -1   11.10    4.20
  -1  -9   1    6.50    3.30
   1  -9  -1   14.40    5.90
  -1  -9   1   21.90    6.10
  -1   9   0   28.60    5.70
   1   9   0   32.60    5.70
  -1  -9   0   38.00    4.80
  -1  -9   0   39.30    7.00
   1  -9   0   33.80    4.90
   1  -9   0   46.90    7.70
  -1   9  -1   37.00    5.80
   1  -9   1   36.60    4.70
  -1  -9  -1   29.50    6.50
   1  -9   1   40.00    7.30
  -1  -9  -1   26.20    4.70
  -1   9  -2   22.50    5.70
   1  -9   2   26.50    6.40
  -1  -9  -2   25.00    4.90
  -1  -9  -2   29.90    7.00
  -1   9  -3   48.70    6.80
   1  -9   3   53.39    7.60
  -1  -9  -3   48.10    6.10
  -1  -9  -3   48.70    7.60
  -1   9  -4   48.90    6.90
  -1  -9  -4   65.79    6.80
  -1  -9  -4   73.49   10.30
   1  -9   4   58.69    8.50
  -1   9  -5   10.50    5.20
  -1  -9  -5   15.90    6.70
  -1  -9  -5    6.60    4.80
  -1   9  -6  124.99   10.80
  -1  -9  -6   92.19   11.10
  -1  -9  -6   98.69    9.90
  -1   9  -7   41.10    6.70
  -1  -9  -7   25.80    7.60
  -1  -9  -7   17.30    6.20
   1  10  -4    5.20    6.10
   1 -10  -4   19.50    6.00
   1 -10  -4    8.80    6.90
  -1 -10   4   15.10    5.70
   1  10  -3   14.00    5.80
  -1 -10   3   15.10    5.30
   1 -10  -3   -2.90    5.10
   1 -10  -3   -0.40    6.30
   1  10  -2   -6.40    4.80
   1 -10  -2   -0.50    5.50
   1 -10  -2   -3.40    4.80
  -1 -10   2    4.60    5.70
   1  10  -1   -3.50    5.10
  -1  10   1   -7.80    4.80
   1 -10  -1   -3.40    5.60
  -1 -10   1   -2.10    5.40
   1 -10  -1   -4.90    4.20
   1  10   0   23.30    6.40
  -1  10   0   24.90    5.90
  -1 -10   0   23.30    6.70
   1 -10   0   28.50    7.40
  -1  10  -1    2.00    4.70
  -1 -10  -1   11.50    6.40
   1 -10   1   17.40    6.60
  -1 -10  -1   -6.50    1.80
  -1  10  -2   21.20    6.20
  -1 -10  -2   15.40    5.70
  -1 -10  -2   19.20    7.00
   1 -10   2   27.10    7.40
  -1  10  -3  137.09   11.90
   1 -10   3  151.68   12.60
  -1 -10  -3  126.59   13.20
  -1 -10  -3  121.29   10.70
  -1  10  -4   18.80    6.30
   1 -10   4   32.40    7.20
  -1 -10  -4   20.30    6.80
  -1 -10  -4   27.40    6.50
   2   0 -14    1.60    4.30
  -2   0  14    7.00    3.40
   2   0 -14    3.60    4.40
   2   0 -13    1.20    3.80
   2   0 -13   -4.80    4.00
  -2   0  13    0.50    3.10
  -2   0  12   94.99    7.80
   2   0 -12   91.39    7.80
   2   0 -12  106.09    8.60
   2   0 -12   91.59    8.10
  -2   0  11   -0.80    2.50
   2   0 -11   -1.80    3.10
   2   0 -11   -1.30    3.40
   2   0 -11   -1.40    3.50
   2   0 -10   26.60    4.10
   2   0 -10   35.80    4.50
  -2   0  10   29.50    4.00
   2   0 -10   28.00    4.00
  -2   0  10   24.20    3.40
   2   0  -9   -1.50    2.70
  -2   0   9   -0.20    2.20
  -2   0   9    0.80    1.70
   2   0  -9   -2.40    2.70
   2   0  -9    0.80    2.90
   2   0  -8   69.59    5.50
  -2   0   8   63.89    4.90
  -2   0   8   61.49    4.60
  -2   0   8   59.69    5.30
   2   0  -8   58.69    5.50
   2   0  -8   64.59    5.40
  -2   0   7   -0.50    2.00
   2   0  -7    0.90    2.40
  -2   0   7    0.00    1.70
   2   0  -7    1.70    2.30
   2   0  -7   -0.10    2.30
  -2   0   7    1.20    1.60
   2   0  -6 1955.50   87.39
  -2   0   6 1676.13   87.19
   2   0  -6 1668.83   87.39
  -2   0   6 1779.52   87.29
   2   0  -6 1686.43   87.29
   2   0  -6 1720.73   87.19
  -2   0   6 1701.23   87.39
  -2   0   6 1670.43   87.19
   2   0  -5    1.40    1.80
   2   0  -5    1.20    2.00
  -2   0   5    1.20    1.40
  -2   0   5    1.10    1.50
   2   0  -5   -2.00    1.90
  -2   0   5   -0.20    1.30
   2   0  -5   -0.60    1.90
  -2   0   5   -0.90    1.80
   2   0  -4 1757.62   88.89
   2   0  -4 1822.82   88.79
  -2   0   4 1787.82   88.79
  -2   0   4 1835.32   88.79
   2   0  -4 1758.32   88.79
  -2   0   4 1778.32   88.79
  -2   0   4 1647.54   88.89
  -2   0   3   -0.70    1.00
   2   0  -3   -0.20    1.40
  -2   0   3    0.30    1.00
   2   0  -3   -0.50    1.10
   2   0  -3   -0.10    1.40
  -2   0   3    0.00    1.20
   2   0  -3    0.30    1.50
  -2   0   3   -0.20    1.40
   2   0  -2  200.98   10.20
  -2   0   2  202.78   10.20
   2   0  -2  190.48   10.40
   2   0  -2  196.58   10.30
  -2   0   2  203.48   10.30
   2   0  -1    0.20    0.60
  -2   0   1   -0.80    0.70
   2   0  -1   -0.10    0.70
   2   0  -1   -0.20    0.60
   2   0  -1   -0.20    0.60
  -2   0   1    0.10    0.50
  -2   0   0  125.39    6.20
   2   0   0   99.19    6.00
  -2   0   0  131.09    6.00
   2   0   0  114.99    6.00
   2   0   0  114.49    6.20
   2   0   1    0.20    0.70
   2   0   1    0.50    1.10
   2   0   1   -0.20    0.70
  -2   0  -1    1.00    1.10
  -2   0  -1    0.10    0.80
   2   0   1   -0.30    0.70
  -2   0  -1    0.40    0.70
  -2   0  -1    0.40    0.80
   2   0   2 2998.30  158.68
   2   0   2 3265.17  158.78
  -2   0  -2 3017.50  158.98
  -2   0  -2 3388.36  158.78
  -2   0  -2 3238.28  158.68
   2   0   2 2991.70  158.98
   2   0   2 3322.17  158.68
   2   0   3    1.10    1.30
  -2   0  -3    1.00    1.60
  -2   0  -3    2.10    2.10
   2   0   3   -0.10    1.50
   2   0   3   -0.20    1.60
  -2   0  -3   -0.10    1.40
  -2   0  -3   -0.70    1.40
   2   0   3    0.80    1.20
  -2   0  -4 2836.62  142.59
  -2   0  -4 2895.21  142.59
  -2   0  -4 2809.32  142.59
   2   0   4 2896.11  142.59
   2   0   4 2862.91  142.59
   2   0   4 2686.43  142.89
   2   0   4 2941.21  142.69
  -2   0  -4 2842.12  142.99
  -2   0  -5    1.60    2.10
   2   0   5    0.10    1.90
   2   0   5   -0.90    1.90
   2   0   5    1.20    1.60
  -2   0  -5    2.60    2.60
  -2   0  -5   -0.10    2.00
  -2   0  -5    0.40    2.00
   2   0   5   -0.20    1.60
   2   0   6   -0.60    1.80
  -2   0  -6   -1.30    2.30
  -2   0  -6   -1.10    2.20
  -2   0  -6   -1.20    2.20
   2   0   6    1.20    2.20
   2   0   6    2.10    2.20
   2   0   6    0.00    1.70
  -2   0  -6    1.60    2.90
  -2   0  -7    1.10    2.90
  -2   0  -7    0.30    2.40
   2   0   7   -0.50    2.00
  -2   0  -7    1.40    2.30
   2   0   7    0.20    1.40
   2   0   7    0.20    2.10
  -2   0  -8  306.97   16.20
  -2   0  -8  279.17   15.30
  -2   0  -8  260.47   15.20
   2   0   8  264.47   15.70
   2   0   8  276.07   15.50
  -2   0  -9    0.10    2.90
   2   0   9   -1.40    2.40
  -2   0  -9   -2.20    3.40
   2   0   9   -0.70    2.30
  -2   0  -9   -0.50    2.70
  -2   0 -10   66.79    7.30
  -2   0 -10   75.79    6.90
  -2   0 -10   73.69    6.60
   2   0  10   66.59    6.30
  -2   0 -11    0.10    3.30
  -2   0 -11   -1.20    3.90
   2   0  11    2.50    2.90
  -2   0 -11    1.70    3.60
  -2   0 -12   48.70    7.40
  -2   0 -12   64.09    6.00
  -2   0 -12   43.90    5.30
   2   0  12   46.40    5.50
  -2   0 -13   -0.80    4.10
   2   0  13   -0.80    3.20
  -2   0 -13   -5.00    3.80
  -2   0 -13   -5.80    3.60
  -2   0 -14   -4.00    4.10
  -2   0 -14    1.90    4.00
   2   0  14    6.00    3.80
   2   1 -14   36.60    4.40
  -2   1  14   38.40    5.30
   2   1 -14   31.10    5.40
   2  -1 -14   21.40    5.00
   2  -1 -14   25.00    6.00
  -2  -1  14   22.20    4.80
   2   1 -13   12.40    4.10
   2   1 -13   13.50    4.60
  -2   1  13   21.60    4.10
   2  -1 -13   16.30    4.90
   2  -1 -13   16.40    4.60
  -2  -1  13   14.40    3.80
  -2   1  12   27.30    4.10
   2   1 -12   16.00    4.40
   2   1 -12   24.20    4.20
   2  -1 -12   18.50    4.40
   2  -1 -12   15.60    4.60
   2  -1 -12   17.60    4.80
  -2  -1  12   21.80    4.10
   2   1 -11   68.89    6.10
   2   1 -11   55.59    5.70
  -2   1  11   58.09    6.10
   2   1 -11   67.39    5.40
   2  -1 -11   65.39    6.90
  -2  -1  11   61.19    6.20
   2  -1 -11   55.99    5.70
   2  -1 -11   63.79    7.30
  -2   1  10    6.40    2.70
   2   1 -10    7.40    3.20
   2   1 -10   10.10    3.10
  -2   1  10    7.30    2.50
   2   1 -10    9.20    2.60
   2  -1 -10    7.80    3.50
   2  -1 -10    2.90    3.80
   2  -1 -10   11.70    3.70
  -2  -1  10    8.50    2.90
  -2  -1  10    9.20    2.40
   2   1  -9    0.20    2.60
   2   1  -9    1.10    2.20
   2   1  -9    0.80    2.70
  -2   1   9   -0.40    2.30
  -2   1   9    0.40    1.90
   2  -1  -9   -0.90    3.10
  -2  -1   9   -1.30    1.30
   2  -1  -9    0.00    3.20
  -2  -1   9    1.20    1.70
  -2  -1   9   -0.70    2.30
   2  -1  -9    0.50    2.80
  -2   1   8   -0.50    2.00
   2   1  -8    2.60    2.10
   2   1  -8   -1.50    2.30
   2   1  -8   -0.10    2.40
  -2   1   8    1.40    1.90
   2  -1  -8    4.50    2.70
  -2  -1   8    0.00    1.60
   2  -1  -8    4.20    2.90
   2  -1  -8    0.90    2.90
  -2  -1   8    2.90    2.10
  -2  -1   8   -2.00    1.70
  -2   1   7  144.39    8.70
   2   1  -7  144.89    8.60
   2   1  -7  146.79    8.40
  -2   1   7  132.99    8.60
   2   1  -7  152.08    8.40
  -2   1   7  143.19    8.40
  -2  -1   7  143.09    8.20
  -2  -1   7  145.19    8.20
  -2  -1   7  138.59    8.60
   2  -1  -7  151.58    9.10
  -2  -1   7  129.59    8.20
   2  -1  -7  144.59    9.00
   2  -1  -7  132.79    8.70
   2   1  -6    2.80    2.40
  -2   1   6    4.10    2.00
  -2   1   6    4.20    1.90
   2   1  -6    4.90    2.00
   2   1  -6    4.50    2.00
  -2   1   6    2.70    2.00
  -2   1   6    4.50    2.00
   2   1  -6    3.60    2.20
   2  -1  -6    4.40    2.30
   2  -1  -6    4.10    2.20
  -2  -1   6    4.30    1.60
  -2  -1   6    3.50    1.60
  -2  -1   6    4.00    2.10
   2  -1  -6    7.70    2.80
   2  -1  -6    6.50    2.50
  -2  -1   6    4.10    1.60
   2   1  -5   -1.50    1.60
   2   1  -5    0.40    1.50
  -2   1   5    0.30    1.80
   2   1  -5    0.80    2.10
  -2   1   5    1.10    1.70
  -2   1   5    1.20    1.80
  -2   1   5    1.30    1.60
   2   1  -5    1.70    2.00
  -2  -1   5    1.20    1.30
   2  -1  -5    2.60    2.20
  -2  -1   5    1.90    1.40
   2  -1  -5    2.00    2.20
   2  -1  -5    1.00    1.90
  -2  -1   5    1.20    1.30
  -2  -1   5    0.00    1.90
   2  -1  -5    1.60    2.20
   2   1  -4   71.49    3.90
   2   1  -4   60.99    4.50
   2   1  -4   64.29    4.40
   2   1  -4   61.29    4.00
  -2   1   4   58.99    4.00
  -2   1   4   55.39    4.30
  -2   1   4   64.89    4.50
  -2   1   4   61.49    4.30
   2  -1  -4   62.89    4.50
   2  -1  -4   59.49    4.50
  -2  -1   4   60.69    3.80
  -2  -1   4   65.29    3.80
  -2  -1   4   62.69    3.90
   2  -1  -4   69.59    4.90
   2  -1  -4   68.89    4.70
  -2  -1   4   58.89    4.40
  -2   1   3   18.10    1.80
   2   1  -3   12.90    2.00
  -2   1   3   18.30    2.00
  -2   1   3   14.00    1.90
   2   1  -3   17.80    1.80
   2  -1  -3   12.10    1.90
  -2  -1   3   20.10    1.70
  -2  -1   3   15.70    1.50
   2  -1  -3   16.90    2.20
  -2  -1   3   14.20    1.60
   2  -1  -3   13.60    2.00
  -2  -1   3   15.80    1.90
   2  -1  -3   16.00    2.20
  -2   1   2 1037.40   52.29
   2   1  -2  979.80   51.99
  -2   1   2 1001.90   52.19
   2   1  -2 1019.00   52.19
   2   1  -2 1084.99   52.19
   2   1  -2 1060.99   52.09
  -2   1   2 1042.50   52.19
  -2  -1   2  998.50   52.09
  -2  -1   2 1054.59   52.19
  -2  -1   2  984.10   51.99
   2  -1  -2  957.30   52.19
   2  -1  -2 1079.39   52.19
  -2  -1   2 1190.38   52.19
   2  -1  -2 1068.39   52.29
   2   1  -1   22.80    1.50
  -2   1   1   22.70    2.00
   2   1  -1   21.50    2.10
   2   1  -1   18.50    1.90
  -2   1   1   22.50    1.80
   2   1  -1   19.50    1.90
   2   1  -1   22.30    1.50
   2  -1  -1   23.60    2.00
  -2  -1   1   24.20    1.90
  -2  -1   1   23.50    1.90
  -2  -1   1   22.40    1.90
   2  -1  -1   22.40    2.00
   2  -1  -1   22.10    1.80
   2  -1  -1   22.40    1.90
  -2   1   0  165.58    8.30
   2   1   0  158.98    8.50
   2   1   0  164.98    8.20
  -2   1   0  158.28    8.20
   2   1   0  157.88    8.10
  -2  -1   0  165.08    8.50
  -2  -1   0  152.78    8.30
  -2  -1   0  158.28    8.10
   2  -1   0  164.38    8.30
   2  -1   0  153.98    8.20
  -2  -1   0  156.88    8.20
  -2   1  -1  241.48   12.00
   2   1   1  247.48   12.00
   2   1   1  244.98   12.10
   2   1   1  227.48   12.40
  -2   1  -1  212.18   12.40
  -2   1  -1  228.88   12.00
   2   1   1  239.68   12.10
   2  -1   1  241.68   12.40
  -2  -1  -1  235.58   12.50
  -2  -1  -1  224.58   12.10
  -2  -1  -1  236.78   12.00
   2  -1   1  245.88   12.10
   2  -1   1  236.58   12.00
  -2  -1  -1  242.28   12.00
   2  -1   1  226.28   12.00
   2   1   2   12.20    1.50
  -2   1  -2   15.40    1.60
   2   1   2   15.50    1.70
  -2   1  -2   13.40    1.60
  -2   1  -2   12.40    2.10
   2   1   2   12.10    2.00
   2   1   2   15.30    1.80
  -2   1  -2   15.60    1.60
   2  -1   2   13.70    1.50
  -2  -1  -2   16.10    2.50
   2  -1   2   12.40    1.70
   2  -1   2   12.60    1.50
  -2  -1  -2   11.60    1.60
  -2  -1  -2   10.80    1.60
   2  -1   2   11.60    2.10
  -2  -1  -2   13.70    2.00
   2   1   3  518.75   25.60
  -2   1  -3  497.15   25.60
  -2   1  -3  532.35   25.50
   2   1   3  454.25   25.90
  -2   1  -3  531.05   25.90
   2   1   3  486.75   25.60
   2   1   3  509.45   25.70
  -2   1  -3  530.05   25.50
   2  -1   3  517.95   25.60
  -2  -1  -3  458.05   26.00
  -2  -1  -3  488.85   25.60
   2  -1   3  523.15   25.50
   2  -1   3  486.85   25.50
  -2  -1  -3  490.05   25.60
   2  -1   3  515.15   26.00
  -2  -1  -3  497.35   25.70
   2   1   4  224.68   13.10
  -2   1  -4  244.28   13.50
   2   1   4  239.68   13.60
   2   1   4  262.97   13.10
  -2   1  -4  252.87   13.10
   2   1   4  250.97   13.20
  -2   1  -4  234.18   13.20
  -2   1  -4  258.87   13.00
   2  -1   4  280.37   13.70
  -2  -1  -4  221.28   13.60
   2  -1   4  245.08   13.20
   2  -1   4  251.17   13.00
  -2  -1  -4  245.68   13.20
   2  -1   4  254.47   13.10
  -2  -1  -4  252.07   13.20
  -2  -1  -4  245.18   13.30
  -2   1  -5  261.67   13.00
  -2   1  -5  235.08   13.20
  -2   1  -5  246.58   13.00
  -2   1  -5  236.98   13.70
   2   1   5  261.57   13.30
   2   1   5  242.88   13.70
   2   1   5  229.68   13.00
   2   1   5  231.68   13.10
  -2  -1  -5  236.88   13.30
   2  -1   5  241.38   13.30
   2  -1   5  272.07   13.70
   2  -1   5  242.58   13.00
  -2  -1  -5  222.28   13.00
   2  -1   5  233.48   12.90
  -2  -1  -5  255.07   14.00
  -2  -1  -5  238.88   13.20
   2   1   6   27.00    3.30
   2   1   6   33.70    3.10
  -2   1  -6   24.20    3.10
   2   1   6   25.70    3.60
  -2   1  -6   27.80    3.10
  -2   1  -6   27.50    3.80
   2   1   6   22.40    2.90
  -2   1  -6   33.40    3.20
  -2  -1  -6   27.20    3.20
  -2  -1  -6   29.40    3.50
  -2  -1  -6   23.70    3.10
  -2  -1  -6   28.40    4.10
   2  -1   6   31.50    2.90
   2  -1   6   29.60    3.00
   2  -1   6   29.90    3.30
   2  -1   6   32.60    4.30
   2   1   7   32.40    3.70
  -2   1  -7   32.30    4.70
  -2   1  -7   40.80    3.70
   2   1   7   32.20    4.30
  -2   1  -7   35.50    3.50
   2  -1   7   32.10    4.20
  -2  -1  -7   34.10    3.80
  -2  -1  -7   34.00    3.60
  -2  -1  -7   42.00    5.30
   2  -1   7   33.40    3.60
   2  -1   7   38.40    3.80
  -2   1  -8    0.90    2.70
   2   1   8    1.50    2.30
   2   1   8    0.60    2.30
  -2   1  -8    0.70    2.50
  -2   1  -8    0.10    2.50
  -2  -1  -8   -2.40    2.50
   2  -1   8    1.10    2.30
  -2  -1  -8    1.60    3.30
   2  -1   8    0.10    2.30
  -2  -1  -8    0.40    2.90
  -2   1  -9  412.56   23.20
  -2   1  -9  442.56   22.70
   2   1   9  396.06   22.90
  -2   1  -9  442.96   22.60
   2  -1   9  443.26   23.00
  -2  -1  -9  408.16   23.60
  -2  -1  -9  423.86   22.70
  -2  -1  -9  447.66   23.00
   2  -1   9  414.06   23.10
  -2   1 -10  130.59    9.00
  -2   1 -10  133.69    9.60
   2   1  10  129.79    9.20
  -2   1 -10  141.59    9.10
  -2  -1 -10  142.49   10.80
  -2  -1 -10  125.49    9.30
   2  -1  10  128.19    9.10
  -2  -1 -10  154.68    9.70
   2   1  11    1.60    2.80
  -2   1 -11    3.40    3.40
  -2   1 -11   -1.70    3.20
  -2   1 -11    4.00    3.40
  -2  -1 -11   -2.40    4.40
  -2  -1 -11    1.80    4.00
   2  -1  11    2.60    2.80
  -2  -1 -11    1.20    3.40
  -2   1 -12    4.10    3.60
  -2   1 -12    7.90    3.60
  -2   1 -12    8.00    3.50
   2   1  12    6.20    3.30
  -2  -1 -12   14.80    4.10
  -2  -1 -12   13.00    4.70
   2  -1  12    6.20    3.30
  -2  -1 -12    1.20    4.60
  -2   1 -13   -8.50    3.50
   2   1  13   -0.40    3.40
  -2   1 -13    0.90    3.80
  -2  -1 -13   -6.40    4.70
   2  -1  13   -1.60    2.90
  -2  -1 -13    0.90    3.70
   2   1  14   22.00    4.80
  -2   1 -14   22.50    4.60
  -2   1 -14   26.10    4.80
   2  -1  14   31.40    5.10
  -2  -1 -14   18.00    4.60
  -2  -1 -14   21.30    5.50
   2   2 -14   10.50    4.30
  -2   2  14    4.90    3.90
   2  -2 -14    7.80    4.60
   2  -2 -14   10.30    5.40
  -2  -2  14    5.90    3.70
  -2   2  13   12.10    3.60
   2   2 -13   13.70    4.30
   2   2 -13    6.30    3.20
  -2  -2  13    8.00    3.40
   2  -2 -13    6.70    5.40
   2  -2 -13    8.50    4.20
   2   2 -12   -1.20    3.60
  -2   2  12    0.20    2.90
   2   2 -12   -5.10    2.60
   2  -2 -12   -2.90    4.40
  -2  -2  12   -2.40    2.60
   2  -2 -12   14.30    5.00
   2  -2 -12   -0.70    3.80
   2   2 -11   25.20    3.60
   2   2 -11   23.70    4.00
   2   2 -11   24.90    3.70
  -2   2  11   20.60    3.80
  -2  -2  11   30.50    4.30
   2  -2 -11   23.60    5.10
   2  -2 -11   19.00    4.20
   2  -2 -11   25.00    5.10
   2   2 -10   17.10    2.80
  -2   2  10   17.80    3.30
   2   2 -10   14.80    3.40
   2   2 -10   18.50    3.00
   2  -2 -10   24.70    4.50
  -2  -2  10   10.10    3.00
   2  -2 -10   10.50    3.70
   2  -2 -10   12.90    4.50
   2   2  -9  240.38   13.30
  -2   2   9  235.98   13.80
   2   2  -9  249.28   13.80
   2   2  -9  261.37   13.40
  -2  -2   9  233.48   13.30
  -2  -2   9  259.07   14.00
   2  -2  -9  233.68   14.10
   2  -2  -9  230.08   13.90
   2  -2  -9  255.07   14.80
  -2  -2   9  228.58   13.20
   2   2  -8   23.60    3.10
   2   2  -8   22.20    3.30
  -2   2   8   26.00    3.60
  -2   2   8   23.20    3.20
   2   2  -8   21.90    2.70
   2  -2  -8   20.60    3.40
   2  -2  -8   23.80    3.80
   2  -2  -8   21.10    4.00
  -2  -2   8   19.70    3.10
  -2  -2   8   20.00    2.50
  -2  -2   8   18.90    2.50
  -2   2   7    3.40    2.20
   2   2  -7    3.80    1.90
  -2   2   7    3.40    2.10
   2   2  -7    3.20    1.80
   2   2  -7    3.10    2.30
   2  -2  -7    2.10    2.30
  -2  -2   7    1.90    2.10
  -2  -2   7    2.00    1.50
   2  -2  -7    1.40    2.80
   2  -2  -7    1.90    3.00
  -2  -2   7    3.20    1.70
  -2  -2   7    3.00    1.60
  -2   2   6   59.19    4.60
  -2   2   6   68.19    4.70
   2   2  -6   56.79    4.40
   2   2  -6   59.39    5.30
   2   2  -6   49.50    4.60
   2   2  -6   66.99    4.20
  -2   2   6   60.09    5.10
  -2  -2   6   66.79    4.60
  -2  -2   6   57.99    4.80
   2  -2  -6   51.69    4.70
  -2  -2   6   56.89    4.00
   2  -2  -6   59.59    5.40
   2  -2  -6   67.19    5.80
   2  -2  -6   59.29    5.10
  -2  -2   6   59.59    4.20
  -2   2   5   85.29    5.80
   2   2  -5   80.79    6.00
  -2   2   5   91.89    5.70
   2   2  -5   90.59    6.00
   2   2  -5   91.89    5.20
  -2   2   5   88.49    6.30
   2   2  -5   78.79    5.60
  -2   2   5   87.49    5.90
  -2  -2   5   85.19    5.30
  -2  -2   5   84.99    5.10
  -2  -2   5   86.19    6.00
   2  -2  -5   95.29    6.10
  -2  -2   5   97.49    5.70
   2  -2  -5   87.89    6.80
   2  -2  -5   81.19    5.70
   2  -2  -5   89.39    6.40
  -2   2   4    5.10    1.70
   2   2  -4    8.40    2.10
  -2   2   4    6.60    2.10
  -2   2   4    6.40    1.70
   2   2  -4    7.80    2.00
   2   2  -4    4.20    1.60
   2   2  -4    5.10    1.10
   2  -2  -4    6.00    1.90
   2  -2  -4    5.80    2.40
  -2  -2   4    6.80    1.10
   2  -2  -4    6.40    1.90
  -2  -2   4    5.10    1.30
  -2  -2   4    3.40    1.50
   2  -2  -4    5.70    2.70
  -2  -2   4    4.10    1.70
  -2   2   3  704.13   37.30
   2   2  -3  754.22   37.40
   2   2  -3  734.63   37.40
   2   2  -3  734.03   37.10
  -2   2   3  687.33   37.30
  -2   2   3  749.13   37.50
   2  -2  -3  704.33   37.40
  -2  -2   3  725.63   37.30
   2  -2  -3  730.73   37.50
   2  -2  -3  730.93   37.30
  -2  -2   3  741.83   37.10
  -2  -2   3  810.42   37.30
  -2  -2   3  807.52   37.40
   2  -2  -3  754.22   38.00
  -2  -2   3  696.93   37.00
   2  -2  -3  741.83   37.40
  -2   2   2   38.60    2.80
  -2   2   2   40.20    3.00
   2   2  -2   40.20    3.00
   2   2  -2   39.70    3.40
   2   2  -2   37.50    2.50
  -2  -2   2   40.30    2.40
   2  -2  -2   40.40    3.40
  -2  -2   2   39.20    3.10
   2  -2  -2   41.50    3.10
  -2  -2   2   38.60    3.00
   2  -2  -2   41.70    3.60
   2  -2  -2   38.20    2.90
   2   2  -1  791.72   39.20
   2   2  -1  776.02   39.00
  -2   2   1  787.42   38.90
  -2   2   1  813.22   39.20
  -2  -2   1  766.92   39.20
   2  -2  -1  757.62   39.10
  -2  -2   1  781.32   39.40
   2  -2  -1  790.02   39.10
   2  -2  -1  738.13   38.90
   2  -2  -1  754.22   39.20
  -2  -2   1  786.82   38.90
  -2  -2   1  778.22   39.00
   2   2   0  132.29    6.70
   2   2   0  133.79    7.10
  -2   2   0  133.09    7.00
   2   2   0  139.59    7.40
   2   2   0  133.19    7.70
  -2   2   0  139.39    7.40
   2  -2   0  118.29    7.20
  -2  -2   0  132.79    6.70
  -2  -2   0  121.89    7.20
  -2  -2   0  137.69    7.00
  -2  -2   0  127.09    7.70
   2  -2   0  127.09    6.90
  -2   2  -1   35.20    3.40
   2   2   1   32.60    3.60
  -2   2  -1   37.40    2.60
  -2   2  -1   33.40    2.40
   2   2   1   37.20    2.40
   2   2   1   34.50    2.90
  -2  -2  -1   33.20    2.50
  -2  -2  -1   36.40    3.00
   2  -2   1   35.30    2.30
   2  -2   1   33.40    3.00
  -2  -2  -1   29.90    2.90
   2  -2   1   31.70    2.40
  -2  -2  -1   31.50    3.60
  -2  -2  -1   32.80    2.40
   2   2   2  745.23   39.10
  -2   2  -2  798.72   38.90
  -2   2  -2  799.42   39.00
   2   2   2  774.12   39.00
  -2   2  -2  812.12   39.20
   2   2   2  767.62   39.60
   2   2   2  799.52   39.00
  -2  -2  -2  758.42   39.60
   2  -2   2  782.02   39.00
   2  -2   2  742.93   39.40
  -2  -2  -2  731.23   38.90
   2  -2   2  745.93   39.00
  -2  -2  -2  758.32   39.20
   2  -2   2  764.72   38.90
  -2  -2  -2  819.22   39.00
   2   2   3  566.14   28.20
  -2   2  -3  567.84   27.80
   2   2   3  548.45   27.90
  -2   2  -3  581.54   27.90
  -2   2  -3  519.25   28.30
   2   2   3  552.54   28.70
   2   2   3  567.84   28.00
  -2   2  -3  584.54   28.20
  -2   2  -3  531.45   27.90
   2  -2   3  578.24   28.40
  -2  -2  -3  499.15   28.50
  -2  -2  -3  555.14   27.90
   2  -2   3  544.25   27.80
  -2  -2  -3  482.55   28.10
   2  -2   3  558.74   28.00
   2  -2   3  522.05   27.80
  -2  -2  -3  578.84   28.00
   2   2   4    3.80    1.80
  -2   2  -4    1.70    2.10
   2   2   4    5.70    2.10
   2   2   4    2.00    2.30
  -2   2  -4    1.50    1.80
  -2   2  -4    3.90    1.70
   2   2   4    2.70    1.60
  -2   2  -4    1.00    1.70
  -2  -2  -4    2.10    2.60
   2  -2   4    2.20    1.40
  -2  -2  -4    0.80    1.80
   2  -2   4    4.30    2.40
   2  -2   4    0.30    1.40
  -2  -2  -4    2.80    1.80
   2  -2   4    3.70    1.80
  -2  -2  -4    2.60    2.40
   2   2   5   58.79    4.70
   2   2   5   59.09    5.50
   2   2   5   60.19    4.80
  -2   2  -5   55.99    5.20
  -2   2  -5   60.79    4.50
   2   2   5   57.79    4.40
  -2   2  -5   63.89    4.40
  -2   2  -5   52.79    4.70
  -2  -2  -5   54.99    5.20
   2  -2   5   63.59    5.60
  -2  -2  -5   61.69    6.20
   2  -2   5   54.59    4.80
  -2  -2  -5   57.59    4.80
  -2  -2  -5   53.79    4.50
   2  -2   5   56.59    4.10
   2  -2   5   60.99    4.30
  -2   2  -6   24.20    2.80
  -2   2  -6   19.00    3.00
  -2   2  -6   29.50    3.00
   2   2   6   31.10    4.00
   2   2   6   21.90    2.90
  -2   2  -6   23.20    3.40
   2  -2   6   23.10    3.00
  -2  -2  -6   24.60    3.30
   2  -2   6   26.00    2.70
  -2  -2  -6   24.60    4.20
   2  -2   6   29.10    3.80
  -2  -2  -6   25.90    3.10
   2  -2   6   22.90    2.50
  -2  -2  -6   24.80    2.90
   2   2   7  108.69    7.20
  -2   2  -7  114.89    6.90
  -2   2  -7  108.89    7.10
  -2   2  -7  112.39    7.60
  -2  -2  -7  109.79    7.70
  -2  -2  -7  106.19    8.30
   2  -2   7  106.89    6.70
   2  -2   7  114.99    7.30
  -2  -2  -7  105.99    7.30
   2  -2   7  105.59    7.60
  -2   2  -8  166.48    9.30
  -2   2  -8  159.08    9.90
  -2   2  -8  160.78    9.30
   2   2   8  159.68    9.60
  -2  -2  -8  160.98   10.00
   2  -2   8  153.58    9.70
  -2  -2  -8  148.09    9.60
   2  -2   8  139.79    8.80
  -2  -2  -8  163.38   11.00
   2  -2   8  145.89    9.80
   2   2   9   65.39    5.80
  -2   2  -9   57.39    5.60
  -2   2  -9   66.69    6.10
  -2   2  -9   62.39    5.60
  -2  -2  -9   60.69    7.30
   2  -2   9   68.19    6.10
   2  -2   9   52.69    5.80
  -2  -2  -9   54.79    5.40
  -2  -2  -9   63.29    6.60
  -2   2 -10  273.67   14.90
  -2   2 -10  262.27   15.30
  -2   2 -10  262.27   14.90
   2   2  10  251.17   15.20
  -2  -2 -10  256.57   15.60
  -2  -2 -10  272.07   16.90
  -2  -2 -10  258.97   15.20
   2  -2  10  268.17   15.30
   2   2  11   10.70    3.30
  -2   2 -11   14.20    3.70
  -2   2 -11    6.80    3.20
  -2   2 -11    7.80    3.30
  -2  -2 -11    6.10    5.10
  -2  -2 -11    7.80    4.50
  -2  -2 -11    8.00    3.60
   2  -2  11   10.50    3.40
  -2   2 -12   20.40    4.20
  -2   2 -12   23.30    4.10
  -2   2 -12   17.80    3.80
   2   2  12   15.30    4.00
  -2  -2 -12   16.20    5.30
   2  -2  12   21.40    4.20
  -2  -2 -12   21.50    4.50
  -2  -2 -12   10.80    6.00
  -2   2 -13    4.60    4.00
   2   2  13    5.30    3.70
  -2   2 -13    6.10    3.30
  -2  -2 -13    4.70    5.30
   2  -2  13    5.10    3.60
  -2  -2 -13   -9.70    5.30
  -2  -2 -13    6.60    4.10
  -2   2 -14   31.90    4.90
  -2   2 -14   36.60    5.30
   2   2  14   49.50    6.10
   2  -2  14   45.50    5.80
  -2  -2 -14   32.20    5.70
  -2  -2 -14   51.39    7.20
   2   3 -14   -0.20    3.80
  -2   3  14    5.30    4.00
   2   3 -14   -2.30    3.80
   2  -3 -14    9.50    4.90
  -2  -3  14    3.30    3.20
   2  -3 -14   10.90    6.00
   2   3 -13    6.10    3.60
  -2   3  13    7.80    3.60
   2   3 -13    3.60    4.10
  -2  -3  13    6.80    3.30
   2  -3 -13    0.20    5.70
   2  -3 -13    8.20    5.70
   2  -3 -13    7.80    4.50
  -2   3  12   43.00    5.20
   2   3 -12   43.40    5.00
   2   3 -12   41.90    5.50
  -2  -3  12   41.90    5.10
   2  -3 -12   41.40    6.80
   2  -3 -12   44.90    6.60
   2  -3 -12   32.70    5.20
   2   3 -11   81.99    5.90
   2   3 -11   89.59    7.50
   2   3 -11   76.59    7.10
  -2   3  11   82.49    7.00
   2  -3 -11   76.29    9.20
   2  -3 -11   78.99    7.60
   2  -3 -11   74.29    8.40
  -2  -3  11   98.19    7.50
   2   3 -10  213.48   12.30
   2   3 -10  229.28   12.00
  -2   3  10  211.18   12.60
   2   3 -10  208.18   13.00
  -2  -3  10  221.48   12.80
   2  -3 -10  192.38   12.70
   2  -3 -10  213.68   14.30
   2  -3 -10  198.88   13.50
  -2   3   9    1.00    2.40
   2   3  -9   -0.20    2.10
   2   3  -9   11.60    3.40
   2   3  -9    2.80    2.60
  -2  -3   9    3.70    2.50
   2  -3  -9    6.20    3.10
  -2  -3   9    0.90    2.10
   2  -3  -9    2.00    3.60
  -2  -3   9    1.30    1.80
  -2   3   8    6.80    2.50
   2   3  -8    7.20    2.10
   2   3  -8    4.90    2.40
   2  -3  -8   10.70    3.00
   2  -3  -8    7.90    3.60
  -2  -3   8    6.30    2.40
   2  -3  -8    8.70    3.80
  -2  -3   8    4.50    2.30
  -2  -3   8    5.90    1.80
  -2   3   7   37.40    3.60
   2   3  -7   37.50    3.30
   2   3  -7   36.70    3.30
   2   3  -7   40.70    4.10
  -2  -3   7   34.10    3.30
   2  -3  -7   42.90    5.80
  -2  -3   7   28.20    3.90
  -2  -3   7   34.40    3.00
  -2  -3   7   35.70    3.70
   2  -3  -7   38.40    4.40
   2  -3  -7   40.20    4.00
   2   3  -6  226.78   11.10
  -2   3   6  198.78   11.60
   2   3  -6  205.18   11.90
   2   3  -6  209.08   11.40
   2   3  -6  217.48   11.90
  -2  -3   6  206.28   11.20
   2  -3  -6  216.08   11.80
  -2  -3   6  197.48   11.00
  -2  -3   6  209.98   11.60
   2  -3  -6  212.38   12.20
  -2  -3   6  209.48   11.70
   2  -3  -6  213.78   12.90
   2  -3  -6  205.38   11.60
  -2   3   5  483.15   25.90
  -2   3   5  481.85   26.10
  -2   3   5  485.55   25.90
   2   3  -5  510.05   25.60
   2   3  -5  519.55   26.00
   2   3  -5  487.45   26.10
   2  -3  -5  507.35   26.30
  -2  -3   5  521.25   26.00
  -2  -3   5  535.65   26.00
   2  -3  -5  526.55   27.00
   2  -3  -5  472.45   25.90
  -2  -3   5  490.85   25.40
   2  -3  -5  520.15   26.10
  -2  -3   5  496.35   25.60
   2   3  -4    7.80    2.10
  -2   3   4    6.10    2.00
   2   3  -4    7.60    1.50
  -2   3   4    9.60    1.90
   2   3  -4    3.50    2.50
  -2   3   4    7.70    1.80
  -2  -3   4    8.00    1.30
   2  -3  -4    5.50    2.10
  -2  -3   4    9.20    1.10
   2  -3  -4    9.10    1.90
  -2  -3   4    9.60    2.00
   2  -3  -4   11.00    2.40
   2  -3  -4    7.20    3.40
  -2  -3   4    6.50    2.10
   2  -3  -4    8.20    2.80
   2   3  -3  176.18    9.30
  -2   3   3  168.68    9.10
   2   3  -3  167.18    8.80
  -2   3   3  169.78    9.60
   2   3  -3  172.48    9.70
  -2   3   3  168.68    9.20
   2  -3  -3  178.58   10.70
  -2  -3   3  175.08    8.80
   2  -3  -3  167.48    9.10
  -2  -3   3  159.38    8.70
   2  -3  -3  179.58    9.90
  -2  -3   3  169.88    9.20
   2  -3  -3  172.38    9.40
  -2  -3   3  164.98    9.40
   2  -3  -3  164.88    9.60
   2   3  -2  568.94   28.40
  -2   3   2  547.35   28.00
  -2   3   2  539.25   28.10
   2   3  -2  551.54   28.10
  -2   3   2  571.54   28.40
  -2  -3   2  556.24   27.80
   2  -3  -2  564.34   28.20
   2  -3  -2  543.95   28.10
   2  -3  -2  522.25   28.40
   2  -3  -2  546.15   28.00
  -2  -3   2  550.94   28.30
  -2  -3   2  540.45   27.90
  -2  -3   2  576.74   28.10
   2  -3  -2  586.14   28.50
  -2   3   1    3.00    2.00
  -2   3   1    2.30    0.80
   2   3  -1    3.40    2.00
   2  -3  -1    5.70    1.30
  -2  -3   1    3.50    1.00
   2  -3  -1    1.30    1.80
  -2  -3   1    2.90    1.10
   2  -3  -1    5.70    1.30
   2  -3  -1    4.60    2.00
  -2  -3   1    1.90    1.70
  -2  -3   1    2.50    2.00
  -2   3   0    1.40    1.10
  -2   3   0    1.00    2.00
   2   3   0    1.60    1.40
   2   3   0    2.40    2.00
   2   3   0    2.70    0.70
   2  -3   0    0.70    1.90
   2  -3   0    2.50    1.10
  -2  -3   0    0.40    2.30
  -2  -3   0    0.00    1.40
  -2  -3   0    0.50    0.70
  -2  -3   0    0.10    1.70
   2   3   1  130.09    7.10
  -2   3  -1  127.59    7.30
  -2   3  -1  120.59    6.50
   2   3   1  138.59    6.60
  -2   3  -1  121.79    6.60
   2   3   1  125.19    7.90
  -2  -3  -1  117.99    8.00
   2  -3   1  122.49    7.20
  -2  -3  -1  120.09    6.60
  -2  -3  -1  118.59    7.20
   2  -3   1  122.19    6.60
   2  -3   1  118.99    6.40
  -2  -3  -1  118.59    6.50
  -2  -3  -1  114.99    7.10
  -2   3  -2  213.88   10.90
   2   3   2  212.18   12.10
  -2   3  -2  213.08   10.90
  -2   3  -2  210.88   11.40
   2   3   2  214.48   10.90
   2   3   2  209.48   10.90
   2   3   2  202.38   11.30
  -2  -3  -2  205.88   11.30
  -2  -3  -2  220.38   12.30
   2  -3   2  203.28   10.80
   2  -3   2  201.48   11.30
  -2  -3  -2  206.18   10.90
   2  -3   2  186.18   11.70
   2  -3   2  210.58   10.80
  -2  -3  -2  212.18   11.40
  -2  -3  -2  205.98   10.90
   2   3   3  471.55   23.60
  -2   3  -3  461.35   23.50
   2   3   3  471.45   23.90
  -2   3  -3  440.56   23.60
   2   3   3  466.65   24.70
   2   3   3  474.25   23.60
  -2   3  -3  452.65   24.00
   2  -3   3  454.15   24.20
  -2  -3  -3  493.45   23.70
   2  -3   3  454.85   23.50
  -2  -3  -3  458.05   24.70
   2  -3   3  469.85   23.60
   2  -3   3  432.66   23.50
  -2  -3  -3  447.26   23.60
  -2  -3  -3  470.35   24.00
   2   3   4   22.90    2.40
   2   3   4   14.50    3.10
   2   3   4   19.40    2.20
  -2   3  -4   17.90    2.90
  -2   3  -4   16.40    2.40
  -2   3  -4   14.30    2.00
   2   3   4   18.80    2.60
   2  -3   4   14.90    3.10
  -2  -3  -4   12.70    2.40
   2  -3   4   17.80    2.40
   2  -3   4   15.00    1.90
  -2  -3  -4   19.20    2.30
  -2  -3  -4   21.10    3.20
  -2  -3  -4   16.30    3.70
   2  -3   4   14.80    2.00
   2   3   5    0.20    1.70
  -2   3  -5   -0.20    2.10
  -2   3  -5    2.50    1.80
   2   3   5    6.20    1.70
  -2   3  -5    1.30    2.60
   2   3   5    2.10    2.50
  -2   3  -5    0.30    2.40
   2   3   5    6.30    2.00
  -2  -3  -5    1.70    1.90
   2  -3   5    1.60    1.90
  -2  -3  -5    1.50    2.20
   2  -3   5    2.10    1.60
   2  -3   5    2.40    2.50
  -2  -3  -5    0.90    2.70
   2  -3   5    1.60    1.40
  -2   3  -6  189.38   11.40
  -2   3  -6  203.08   10.70
  -2   3  -6  206.48   10.70
  -2   3  -6  192.28   10.90
  -2   3  -6  185.98   11.40
   2   3   6  199.58   11.00
  -2  -3  -6  178.38   10.70
  -2  -3  -6  175.18   11.90
   2  -3   6  198.78   11.70
   2  -3   6  189.98   10.50
   2  -3   6  199.98   11.00
   2  -3   6  190.88   10.50
  -2  -3  -6  195.98   11.40
  -2  -3  -6  189.98   10.90
  -2   3  -7  111.49    8.30
   2   3   7  120.89    7.80
  -2   3  -7  127.09    7.50
  -2   3  -7  116.29    8.10
  -2   3  -7  126.59    7.40
   2  -3   7  113.99    7.20
   2  -3   7  114.29    8.50
  -2  -3  -7  118.49    7.80
  -2  -3  -7  127.19    8.40
   2  -3   7  124.69    7.70
  -2  -3  -7  119.89    8.90
   2   3   8   76.59    6.20
  -2   3  -8   84.49    5.70
  -2   3  -8   79.39    5.90
  -2   3  -8   75.69    6.40
  -2  -3  -8   78.59    6.30
  -2  -3  -8   89.19    7.10
   2  -3   8   67.79    6.70
  -2  -3  -8   68.69    7.80
   2  -3   8   65.09    5.20
   2  -3   8   77.19    6.20
  -2   3  -9  165.08    9.50
  -2   3  -9  157.48    9.70
   2   3   9  163.68   10.10
  -2   3  -9  153.78   10.10
  -2  -3  -9  152.68   10.10
  -2  -3  -9  148.59   11.60
  -2  -3  -9  142.89   10.50
   2  -3   9  150.18    9.90
   2   3  10  251.47   14.40
  -2   3 -10  255.47   14.20
  -2   3 -10  236.08   14.60
  -2   3 -10  252.17   13.90
  -2  -3 -10  257.27   15.10
   2  -3  10  235.08   14.30
  -2  -3 -10  243.18   16.00
  -2  -3 -10  232.48   14.40
  -2   3 -11   64.99    6.50
  -2   3 -11   58.29    5.60
   2   3  11   61.99    6.40
  -2   3 -11   64.09    6.00
  -2  -3 -11   65.59    6.20
  -2  -3 -11   58.89    8.00
  -2  -3 -11   59.79    6.90
   2  -3  11   70.89    6.90
  -2   3 -12   83.39    7.50
  -2   3 -12   97.29    7.00
   2   3  12   90.79    8.10
  -2  -3 -12   92.69    9.30
   2  -3  12   95.99    7.90
  -2  -3 -12   91.39    8.30
  -2  -3 -12   84.99   10.20
  -2   3 -13   -4.20    3.40
  -2   3 -13   -5.20    2.70
   2   3  13    2.60    3.60
   2  -3  13   -0.40    3.00
  -2  -3 -13  -14.50    6.00
  -2  -3 -13   -1.20    4.10
  -2  -3 -13   -1.50    5.40
   2   4 -13    7.30    4.40
  -2   4  13    5.10    3.70
   2   4 -13    6.00    3.60
   2  -4 -13    0.40    5.90
   2  -4 -13    0.60    6.00
   2  -4 -13    2.90    4.30
  -2  -4  13    2.90    3.50
   2   4 -12   21.20    4.80
  -2   4  12   27.90    4.50
   2   4 -12   25.70    4.10
   2  -4 -12   23.00    4.90
  -2  -4  12   27.50    4.60
   2  -4 -12   21.30    6.80
   2  -4 -12   16.00    6.10
   2   4 -11  237.38   13.90
  -2   4  11  212.98   13.50
   2   4 -11  209.88   12.90
   2  -4 -11  210.98   15.20
  -2  -4  11  231.18   13.50
   2  -4 -11  224.98   14.50
   2  -4 -11  211.38   13.50
   2   4 -10  118.59    7.10
  -2   4  10  108.19    8.10
   2   4 -10  115.49    8.00
   2   4 -10  120.99    8.80
   2  -4 -10  102.59    9.40
  -2  -4  10  116.09    8.50
   2  -4 -10  115.09    8.60
   2  -4 -10  104.79   10.90
   2   4  -9    0.50    2.50
  -2   4   9   -0.10    2.50
   2   4  -9    6.00    1.90
   2  -4  -9    3.60    3.90
  -2  -4   9    2.70    2.70
   2  -4  -9    0.90    3.20
   2  -4  -9    4.30    4.60
  -2   4   8   -0.90    2.10
   2   4  -8   -1.20    2.20
   2   4  -8    0.90    3.10
  -2  -4   8   -0.90    1.50
  -2  -4   8   -3.60    2.50
   2  -4  -8   -0.80    2.90
   2  -4  -8    1.20    4.30
  -2  -4   8   -0.50    2.30
   2  -4  -8    2.50    3.80
   2   4  -7  131.89    9.10
  -2   4   7  145.89    8.60
   2   4  -7  144.89    8.20
   2  -4  -7  128.19    9.50
  -2  -4   7  134.89    7.80
   2  -4  -7  155.98   10.70
  -2  -4   7  143.79    8.10
  -2  -4   7  147.89    8.80
  -2  -4   7  140.49    8.70
   2  -4  -7  153.58    9.20
   2   4  -6  132.89    7.50
   2   4  -6  129.29    8.10
   2   4  -6  123.09    8.60
  -2   4   6  140.19    7.90
   2  -4  -6  132.39    7.90
   2  -4  -6  130.49    8.80
   2  -4  -6  142.89    8.30
  -2  -4   6  131.59    7.40
   2  -4  -6  139.69   10.00
  -2  -4   6  134.09    8.20
  -2  -4   6  137.39    8.10
  -2  -4   6  123.09    7.10
  -2   4   5    1.00    1.60
   2  -4  -5    1.00    1.80
   2  -4  -5    2.00    3.60
   2  -4  -5   -1.90    2.80
   2  -4  -5    0.00    2.20
  -2  -4   5    2.20    1.80
  -2   4   4   43.40    4.00
   2   4  -4   50.89    3.20
  -2   4   4   46.80    3.70
   2   4  -4   43.70    4.80
   2   4  -4   51.39    3.90
   2  -4  -4   47.10    3.80
   2  -4  -4   47.90    6.10
   2  -4  -4   42.60    4.60
  -2  -4   4   58.59    3.10
   2  -4  -4   48.90    4.70
  -2  -4   4   51.59    4.00
   2  -4  -4   48.60    4.30
  -2  -4   4   42.40    4.20
  -2  -4   4   50.69    3.10
  -2   4   3   14.00    2.00
   2   4  -3    8.90    2.70
  -2   4   3   12.80    1.70
   2   4  -3   12.40    1.90
   2   4  -3   14.00    1.20
  -2  -4   3   13.90    1.40
   2  -4  -3   13.60    3.90
   2  -4  -3   12.80    2.10
   2  -4  -3   11.40    2.70
  -2  -4   3   18.20    2.00
   2  -4  -3   14.90    2.90
  -2  -4   3   11.90    2.30
  -2  -4   3   12.80    1.20
   2  -4  -3   11.50    1.70
  -2   4   2   37.30    4.20
   2   4  -2   33.70    2.80
  -2   4   2   32.30    2.40
   2  -4  -2   36.20    3.60
  -2  -4   2   31.60    2.70
   2  -4  -2   31.20    2.30
   2  -4  -2   34.30    3.20
  -2  -4   2   29.60    2.60
   2  -4  -2   31.50    3.00
  -2  -4   2   30.50    3.70
  -2   4   1  574.84   28.90
   2   4  -1  555.44   28.90
  -2  -4   1  581.24   29.40
  -2  -4   1  542.85   28.20
  -2  -4   1  553.94   28.40
   2  -4  -1  563.34   28.40
   2  -4  -1  591.04   28.80
  -2  -4   1  556.24   28.80
   2  -4  -1  513.25   28.80
   2  -4  -1  555.84   28.30
   2   4   0   11.60    2.80
  -2   4   0   11.30    1.60
  -2   4   0   13.30    2.70
  -2  -4   0   11.90    2.40
   2  -4   0   11.90    1.50
  -2  -4   0   10.40    3.20
  -2  -4   0   10.40    1.20
  -2  -4   0   13.20    2.10
   2  -4   0    8.00    2.60
   2   4   1   33.50    2.80
  -2   4  -1   40.90    4.50
  -2   4  -1   43.20    3.10
   2   4   1   40.60    3.80
   2   4   1   48.10    4.80
   2  -4   1   33.90    3.90
   2  -4   1   38.80    2.90
  -2  -4  -1   39.00    2.90
  -2  -4  -1   36.80    4.00
  -2  -4  -1   34.50    2.70
  -2  -4  -1   39.80    3.70
  -2  -4  -1   34.20    4.80
   2   4   2   23.50    2.20
  -2   4  -2   23.20    2.10
  -2   4  -2   23.90    2.10
  -2   4  -2   22.40    3.10
   2   4   2   25.00    2.90
   2  -4   2   19.40    2.80
   2  -4   2   26.50    2.40
   2  -4   2   24.20    2.30
  -2  -4  -2   27.60    3.20
  -2  -4  -2   25.60    3.10
  -2  -4  -2   21.50    2.20
  -2  -4  -2   19.60    3.80
  -2  -4  -2   21.90    2.40
  -2   4  -3    2.00    1.60
   2   4   3    1.00    2.10
   2   4   3    1.60    2.70
  -2   4  -3    1.80    1.40
   2   4   3   -0.10    1.40
  -2   4  -3   -0.40    2.30
   2   4   3    0.50    1.40
   2  -4   3    3.10    1.50
  -2  -4  -3    3.00    2.50
   2  -4   3    1.10    2.60
  -2  -4  -3    0.10    1.70
  -2  -4  -3   -0.10    1.50
  -2  -4  -3    0.30    2.20
   2  -4   3    0.50    1.10
   2  -4   3   -0.60    1.90
  -2  -4  -3    4.60    3.40
  -2   4  -4    5.70    1.90
  -2   4  -4    4.20    1.60
   2   4   4    5.50    1.70
  -2   4  -4    3.20    2.70
   2   4   4    1.00    1.80
   2   4   4    6.40    1.80
  -2  -4  -4    6.00    1.80
  -2  -4  -4    5.60    2.00
   2  -4   4    4.50    1.70
   2  -4   4    4.70    2.70
   2  -4   4    4.90    1.40
   2  -4   4    2.00    1.60
   2   4   5  618.84   32.30
  -2   4  -5  630.84   32.80
  -2   4  -5  628.64   32.20
   2   4   5  630.74   32.20
  -2   4  -5  638.24   32.10
   2  -4   5  619.64   32.00
   2  -4   5  595.24   32.00
  -2  -4  -5  625.84   32.30
   2  -4   5  646.54   33.10
  -2  -4  -5  598.44   32.20
  -2  -4  -5  653.83   33.60
  -2  -4  -5  646.14   32.80
   2  -4   5  644.64   32.30
   2   4   6   58.09    4.90
  -2   4  -6   66.69    5.90
  -2   4  -6   57.09    5.00
  -2   4  -6   64.69    4.70
  -2  -4  -6   64.39    5.40
  -2  -4  -6   53.09    5.90
  -2  -4  -6   57.39    4.90
  -2  -4  -6   60.29    6.60
   2  -4   6   63.79    5.70
   2  -4   6   60.89    4.30
   2  -4   6   68.69    5.10
   2  -4   6   57.79    4.50
  -2   4  -7   71.69    5.50
   2   4   7   80.49    5.90
  -2   4  -7   83.39    6.80
  -2  -4  -7   78.69    6.10
  -2  -4  -7   81.99    7.10
  -2  -4  -7   88.99    7.90
   2  -4   7   79.09    6.00
   2  -4   7   71.39    5.40
   2  -4   7   72.39    6.80
  -2   4  -8   -1.90    2.30
   2   4   8    0.60    2.40
  -2   4  -8   12.70    3.50
  -2  -4  -8    2.60    3.60
   2  -4   8   -0.30    1.90
   2  -4   8    1.60    2.40
   2  -4   8   -0.60    3.50
  -2  -4  -8    4.40    3.00
  -2  -4  -8    3.90    4.70
  -2   4  -9   41.50    4.20
   2   4   9   43.60    4.60
  -2   4  -9   41.30    5.30
  -2   4  -9   42.60    4.20
  -2  -4  -9   43.50    5.70
  -2  -4  -9   39.00    4.60
   2  -4   9   41.00    4.70
  -2  -4  -9   37.90    6.80
  -2   4 -10    1.30    3.60
  -2   4 -10    0.00    2.80
  -2   4 -10    2.10    2.60
   2   4  10    0.60    2.70
  -2  -4 -10    0.80    5.20
  -2  -4 -10    0.50    4.50
  -2  -4 -10    1.50    3.50
   2  -4  10    2.10    2.90
  -2   4 -11    6.00    2.50
   2   4  11    2.60    2.90
  -2   4 -11    7.90    3.40
  -2   4 -11    8.00    4.10
  -2  -4 -11   12.00    5.30
  -2  -4 -11    0.20    3.80
   2  -4  11    5.10    3.20
  -2  -4 -11   12.40    6.20
   2   4  12    9.50    3.60
  -2   4 -12   10.40    3.80
  -2   4 -12   12.00    4.50
  -2  -4 -12    4.80    6.00
  -2  -4 -12    7.50    4.00
   2  -4  12   13.10    3.80
  -2  -4 -12    8.20    5.60
  -2   4 -13    6.40    4.30
   2   4  13    4.30    3.70
  -2   4 -13    6.90    4.00
  -2  -4 -13   -6.90    6.40
  -2  -4 -13   -2.30    4.00
  -2  -4 -13    1.10    5.80
   2  -4  13    3.40    3.60
   2   5 -12   59.99    7.30
  -2   5  12   56.29    6.00
   2   5 -12   51.49    5.40
  -2  -5  12   54.99    6.40
   2  -5 -12   69.09    9.30
   2  -5 -12   51.49    6.20
   2  -5 -12   54.19    7.70
   2   5 -11   70.99    6.30
   2   5 -11   62.99    7.60
  -2   5  11   67.39    6.60
  -2  -5  11   63.09    6.40
   2  -5 -11   64.59    7.70
   2  -5 -11   73.59    9.20
   2  -5 -11   56.99    6.30
   2   5 -10    9.80    4.10
   2   5 -10    3.80    2.70
  -2  -5  10    6.60    3.20
   2   5  -9    3.00    2.40
   2   5  -9   11.30    3.90
  -2  -5   9    3.50    2.90
   2  -5  -9    5.40    3.50
  -2   5   8   -3.10    2.20
   2   5  -8   -0.80    3.30
   2   5  -8   -2.10    2.00
   2  -5  -8   -3.50    4.00
  -2  -5   8   -6.40    2.50
   2  -5  -8   -4.90    3.00
  -2  -5   8   -0.30    0.60
   2  -5  -8   -2.60    4.70
   2   5  -7   14.40    3.70
   2   5  -7   -0.40    1.70
  -2  -5   7    2.70    2.30
  -2  -5   7   -0.60    1.40
   2  -5  -7    6.60    2.90
  -2  -5   7    1.90    1.30
  -2   5   6   14.50    2.30
   2   5  -6    6.80    1.60
   2   5  -6    5.80    2.20
   2   5  -6    7.40    3.30
   2  -5  -6    9.10    2.60
  -2  -5   6    8.00    2.60
   2  -5  -6   15.90    3.90
  -2  -5   6    9.90    2.30
   2  -5  -6   17.10    4.70
  -2  -5   6    6.40    1.40
   2  -5  -6   11.10    2.30
  -2  -5   6    6.20    1.30
   2   5  -5   54.49    5.40
  -2   5   5   42.60    3.80
   2   5  -5   48.50    3.40
   2   5  -5   47.40    4.10
  -2  -5   5   48.60    3.30
   2  -5  -5   40.70    6.00
  -2  -5   5   63.79    5.10
   2  -5  -5   38.70    3.90
   2  -5  -5   38.60    4.80
  -2  -5   5   57.29    4.20
  -2  -5   5   54.09    3.20
   2  -5  -5   43.10    4.10
   2   5  -4   23.90    1.90
   2   5  -4   16.70    2.10
  -2   5   4   12.40    2.30
  -2   5   4   14.80    1.90
   2  -5  -4   11.20    3.80
  -2  -5   4   19.50    1.70
   2  -5  -4   17.60    3.50
   2  -5  -4   14.00    2.40
   2  -5  -4   13.10    1.90
  -2   5   3   37.10    2.70
   2   5  -3   35.80    3.10
   2   5  -3   45.30    4.50
   2  -5  -3   36.70    3.50
  -2  -5   3   36.70    2.90
  -2  -5   3   41.60    3.10
   2  -5  -3   35.80    5.10
   2  -5  -3   37.10    2.70
   2  -5  -3   38.70    3.70
   2  -5  -3   34.10    4.00
   2  -5  -2   18.30    2.00
   2  -5  -2   20.50    2.30
  -2   5   1  277.77   16.20
   2   5  -1  312.47   16.30
   2  -5  -1  271.27   15.90
  -2  -5   1  302.57   15.10
  -2  -5   1  341.17   17.10
  -2  -5   1  335.77   15.70
   2  -5  -1  281.87   15.40
   2  -5  -1  258.37   15.40
   2   5   0  137.09    9.00
  -2  -5   0  138.79    8.20
  -2  -5   0  130.29    7.30
  -2  -5   0  141.09    7.40
   2  -5   0  151.58    8.40
  -2  -5   0  129.09    9.60
   2  -5   0  151.28    7.70
   2  -5   0  147.19    7.70
   2   5   1  464.25   24.70
  -2   5  -1  454.55   24.20
   2   5   1  491.15   25.10
  -2  -5  -1  488.65   24.20
  -2  -5  -1  525.45   26.10
   2  -5   1  438.16   24.20
  -2  -5  -1  540.95   24.80
  -2  -5  -1  467.55   24.00
  -2  -5  -1  430.06   24.10
  -2   5  -2    6.00    1.30
  -2   5  -2    7.20    2.90
   2   5   2    8.90    1.60
   2   5   2    9.60    2.30
  -2   5  -2    8.40    1.60
  -2  -5  -2    6.90    1.60
   2  -5   2    6.70    1.30
  -2  -5  -2   14.70    2.80
  -2  -5  -2   15.00    1.50
  -2  -5  -2   20.90    4.20
   2  -5   2    9.30    1.20
  -2   5  -3    4.70    2.60
  -2   5  -3    1.80    1.40
   2   5   3    4.00    1.50
  -2   5  -3    6.50    1.60
  -2  -5  -3   16.30    2.90
   2  -5   3    3.50    1.40
   2  -5   3    1.10    2.60
   2  -5   3    0.20    1.10
  -2  -5  -3    4.30    1.70
   2   5   4   11.10    2.10
   2   5   4    8.60    1.90
  -2   5  -4   10.40    3.20
  -2   5  -4   13.00    1.90
  -2   5  -4   11.30    2.10
  -2  -5  -4   10.20    1.90
   2  -5   4   12.70    2.00
   2  -5   4    9.60    1.60
  -2  -5  -4   12.00    3.10
   2  -5   4   12.00    3.30
  -2  -5  -4   11.80    2.20
  -2  -5  -4   13.00    4.30
   2  -5   4    8.40    2.00
  -2   5  -5   25.00    4.00
  -2   5  -5   28.90    3.00
   2   5   6   70.99    5.20
  -2   5  -6   72.09    5.00
  -2   5  -6   70.69    6.80
  -2   5  -6   68.89    5.30
  -2  -5  -6   79.69    7.80
   2  -5   6   67.59    4.80
  -2  -5  -6   73.59    5.50
  -2  -5  -6   76.59    5.80
   2  -5   6   61.99    5.00
   2  -5   6   71.99    5.40
  -2  -5  -6   75.99    7.00
  -2   5  -7   49.50    5.30
   2   5   7   43.20    4.60
  -2   5  -7   49.20    4.40
   2  -5   7   42.00    4.10
  -2  -5  -7   41.40    5.30
  -2  -5  -7   51.89    6.90
   2  -5   7   43.70    4.70
  -2  -5  -7   45.40    4.50
  -2   5  -8    0.60    2.30
   2   5   8   -1.20    2.40
  -2   5  -8    6.90    3.60
  -2  -5  -8    5.60    5.40
  -2  -5  -8    0.00    3.20
   2  -5   8   -1.00    2.50
  -2  -5  -8    3.90    4.30
  -2   5  -9    4.20    2.60
   2   5   9    6.00    2.90
  -2   5  -9    5.80    3.80
   2  -5   9    5.70    2.80
  -2  -5  -9    5.80    5.50
  -2  -5  -9   -0.30    3.50
  -2  -5  -9    5.50    4.70
  -2   5 -10   72.29    7.80
   2   5  10   69.79    6.60
  -2   5 -10   72.59    6.70
  -2  -5 -10   73.09   10.10
   2  -5  10   78.29    6.90
  -2  -5 -10   77.59    7.20
  -2  -5 -10   62.39    7.20
  -2   5 -11   75.89    7.20
  -2   5 -11   74.39    8.00
   2   5  11   73.59    7.30
  -2  -5 -11   90.59    8.60
  -2  -5 -11   96.39   12.00
  -2  -5 -11   76.59    7.60
   2  -5  11   79.29    7.60
   2   5  12   -0.40    3.00
  -2   5 -12   -0.60    3.20
  -2   5 -12   -1.50    3.90
  -2  -5 -12    2.70    5.50
  -2  -5 -12   -4.00    3.80
  -2  -5 -12   -3.00    6.10
   2  -5  12   -0.70    3.40
   2   6 -12    4.30    4.20
  -2   6  12   -1.20    3.10
   2  -6 -12   -7.90    3.90
   2  -6 -12   -8.50    6.40
  -2  -6  12    1.40    3.70
   2  -6 -12   -7.10    6.00
  -2   6  11   18.50    4.20
   2   6 -11   25.50    5.00
   2  -6 -11   23.60    7.20
   2  -6 -11   21.10    4.60
  -2  -6  11   21.10    4.40
   2  -6 -11   17.70    6.20
  -2   6  10   32.60    4.30
   2   6 -10   37.30    5.60
   2  -6 -10   33.60    6.40
   2  -6 -10   41.70    5.10
   2  -6 -10   39.30    7.50
  -2  -6  10   35.50    4.70
   2   6  -9    9.10    4.20
  -2   6   9    5.10    2.60
   2   6  -9    6.10    2.00
   2  -6  -9    7.30    5.70
  -2  -6   9    2.40    2.80
   2  -6  -9    2.40    4.90
   2  -6  -9    1.20    3.60
   2   6  -8   77.59    5.40
   2   6  -8   74.29    7.70
  -2  -6   8   80.49    6.50
  -2   6   7   43.90    4.50
   2   6  -7   60.09    6.60
   2   6  -7   54.49    4.00
   2  -6  -7   46.70    4.80
   2  -6  -7   54.89    6.30
   2  -6  -7   44.90    7.20
  -2  -6   7   57.39    5.20
  -2   6   6   18.60    2.50
   2   6  -6   13.20    3.90
   2   6  -6    7.80    2.60
   2   6  -6   14.80    1.90
   2  -6  -6   14.80    3.10
   2  -6  -6   21.20    4.20
   2  -6  -6   20.00    5.10
   2  -6  -6   12.70    2.40
  -2  -6   6   14.70    2.70
  -2   6   5    7.20    1.80
   2   6  -5   13.60    3.80
   2   6  -5    7.30    2.10
   2   6  -5    8.60    1.40
  -2  -6   5   14.50    2.30
   2  -6  -5   12.40    4.00
   2  -6  -5   11.80    5.20
   2  -6  -5    8.90    2.70
  -2  -6   5    9.10    1.30
  -2  -6   5    8.60    1.60
   2  -6  -5    6.60    1.90
  -2  -6   5   10.80    1.60
   2   6  -4  142.29    9.70
   2   6  -4  127.29    8.00
  -2  -6   4  137.59    7.80
  -2  -6   4  149.59    8.00
   2  -6  -4  167.58    8.60
   2  -6  -4  141.89    7.80
  -2  -6   4  133.09    7.80
   2   6  -3    5.20    3.20
   2  -6  -3    1.50    1.90
   2  -6  -3    5.10    3.00
  -2  -6   3    5.20    1.60
   2  -6  -3    0.40    1.50
  -2  -6   3    5.60    1.40
   2  -6  -3    3.90    4.20
  -2  -6   3    4.20    3.10
   2   6  -2   68.69    6.60
  -2   6   2   67.19    6.40
   2  -6  -2   77.39    6.20
  -2  -6   2   82.49    5.10
  -2  -6   2   82.49    7.20
  -2  -6   2   73.29    4.40
   2  -6  -2   81.69    8.20
   2  -6  -2   78.19    4.90
   2  -6  -2   82.59    5.10
   2   6  -1   11.40    3.40
   2   6   0   12.00    3.40
  -2   6   0    7.90    3.30
  -2  -6   0   13.70    1.30
  -2  -6   0   14.80    2.60
   2  -6   0   13.40    2.70
  -2  -6   0   12.40    4.00
   2  -6   0   13.50    1.70
   2  -6   0    9.60    1.70
  -2  -6   0   13.30    1.20
   2   6   1   19.10    3.60
  -2   6  -1   17.90    3.50
  -2  -6  -1   21.70    3.10
  -2  -6  -1   14.20    1.50
   2  -6   1   16.80    2.70
   2  -6   1   16.90    1.80
  -2  -6  -1   20.00    4.50
   2  -6   1   17.00    1.80
  -2  -6  -1   17.80    1.80
  -2   6  -2   33.50    2.90
  -2   6  -2   32.50    4.40
  -2  -6  -2   32.00    2.40
   2  -6   2   27.50    2.70
  -2  -6  -2   32.30    2.80
  -2  -6  -2   42.60    4.10
  -2  -6  -2   34.50    3.10
  -2  -6  -2   30.00    5.10
  -2   6  -3    2.20    3.00
  -2   6  -3   -0.90    1.20
   2   6   3    0.40    1.60
  -2   6  -3    1.60    1.40
   2  -6   3   -0.80    1.10
  -2  -6  -3    2.70    1.40
  -2  -6  -3    2.30    3.00
   2  -6   3    2.70    1.20
  -2  -6  -3    0.90    1.70
  -2  -6  -3    5.70    4.20
  -2   6  -4   -0.40    1.50
  -2   6  -4    0.70    3.10
   2   6   4    3.00    1.90
  -2   6  -4   -2.60    1.60
  -2  -6  -4    5.60    1.70
   2  -6   4    3.10    1.60
  -2  -6  -4   10.70    3.40
   2  -6   4    0.30    2.10
  -2  -6  -4   13.50    4.40
  -2  -6  -4    6.60    2.10
   2  -6   4   -0.40    1.30
  -2   6  -5  174.38   10.90
  -2   6  -5  172.78    9.30
  -2   6  -5  158.48    9.50
   2   6   5  167.58    9.50
  -2  -6  -5  175.08   12.60
  -2  -6  -5  153.78    9.70
  -2  -6  -5  165.28    9.50
   2  -6   5  168.88    9.20
   2  -6   5  179.38    9.50
   2  -6   5  157.68    9.50
  -2  -6  -5  175.98   11.00
  -2   6  -6   20.30    4.40
   2   6   6   21.30    2.80
  -2   6  -6   16.30    2.50
  -2   6  -6   11.90    2.80
  -2  -6  -6   19.40    3.10
  -2  -6  -6   26.30    4.70
   2  -6   6   18.50    2.80
  -2  -6  -6   24.20    5.60
   2  -6   6   15.00    2.40
   2   6   7   27.00    3.30
  -2   6  -7   26.70    3.10
  -2   6  -7   28.50    5.00
  -2  -6  -7   19.10    5.00
   2  -6   7   24.80    3.40
  -2  -6  -7   28.80    6.60
  -2  -6  -7   26.00    3.90
  -2   6  -8   84.89    8.20
   2   6   8   77.59    6.40
  -2   6  -8   80.39    6.10
  -2  -6  -8   90.69    9.50
  -2  -6  -8   92.89    8.60
   2  -6   8   82.09    6.80
  -2  -6  -8   88.99    7.00
  -2   6  -9    6.30    2.80
  -2   6  -9    8.60    4.20
   2   6   9    2.40    2.70
   2  -6   9    6.80    3.00
  -2  -6  -9   10.40    5.00
  -2  -6  -9   10.20    3.70
  -2  -6  -9    8.90    6.50
   2   6  10   38.90    4.70
  -2   6 -10   44.80    4.50
  -2   6 -10   41.40    6.10
   2  -6  10   38.90    4.80
  -2  -6 -10   42.70    8.30
  -2  -6 -10   38.50    5.20
  -2  -6 -10   41.70    6.30
   2   6  11    2.70    3.30
  -2   6 -11   16.50    4.80
  -2   6 -11    1.40    2.20
   2  -6  11    2.50    3.30
  -2  -6 -11   -1.70    6.40
  -2  -6 -11    4.50    3.90
  -2  -6 -11    4.90    5.80
   2   7 -11    7.10    4.90
   2   7 -10   65.89    7.80
   2  -7 -10   51.59    8.50
  -2  -7  10   58.09    6.30
   2  -7 -10   64.29    6.60
   2  -7 -10   63.39    8.00
   2   7  -9    6.90    4.20
   2  -7  -9    1.50    6.20
   2  -7  -9   -0.60    5.10
   2  -7  -9    3.40    3.50
  -2  -7   9    3.20    2.90
   2   7  -8   58.49    6.70
   2  -7  -8   63.59    5.80
   2  -7  -8   57.49    6.90
  -2  -7   8   56.29    5.90
   2  -7  -8   72.89   10.20
   2   7  -7   43.30    5.50
   2  -7  -7   23.30    3.90
  -2  -7   7   25.30    3.30
   2  -7  -7   20.70    5.10
   2  -7  -7   28.40    6.70
   2   7  -6   10.40    4.10
  -2  -7   6    6.10    2.20
  -2   7   5   58.29    4.30
   2   7  -5   66.09    7.60
  -2  -7   5   82.49    5.00
   2  -7  -5   69.79    6.80
   2  -7  -5   73.89    9.50
   2  -7  -5   79.29    6.00
   2   7  -4    6.50    3.70
   2  -7  -4   -1.10    3.70
  -2  -7   4    2.00    3.30
  -2  -7   4    3.90    1.60
   2  -7  -4   -2.60    4.80
   2  -7  -4    0.30    2.30
  -2  -7   4    2.60    1.80
   2   7  -3   59.79    6.80
  -2  -7   3   62.69    4.80
   2  -7  -3   74.59    5.10
  -2  -7   3   71.89    7.50
  -2  -7   3   58.79    4.20
   2  -7  -3   92.09    8.50
   2   7  -2    7.00    3.70
  -2  -7   2    8.10    2.30
  -2  -7   2    8.60    4.00
   2   7  -1   76.69    6.90
  -2   7   1   54.69    6.90
  -2  -7   1   88.49    7.90
   2  -7  -1   61.59    4.70
   2  -7  -1   61.49    4.70
  -2  -7   1   84.09    5.50
   2  -7  -1   69.19    8.50
   2   7   0  304.47   18.70
  -2   7   0  336.47   18.70
   2  -7   0  347.47   17.10
  -2  -7   0  336.17   19.60
   2  -7   0  351.86   18.10
   2  -7   0  323.97   17.10
  -2  -7   0  318.87   17.70
  -2  -7   0  318.37   16.70
   2   7   1   83.69    7.70
  -2   7  -1   95.09    7.80
  -2  -7  -1   90.29    8.90
  -2  -7  -1   87.89    6.70
  -2  -7  -1   80.29    5.00
   2  -7   1   83.79    5.30
  -2  -7  -1   86.69    5.10
   2  -7   1   86.19    5.20
   2  -7   1   97.99    6.60
  -2   7  -2    2.10    3.40
   2  -7   2    0.20    1.40
  -2  -7  -2    3.50    1.60
   2  -7   2    1.00    1.30
  -2  -7  -2    5.70    4.70
   2  -7   2    3.70    2.60
  -2  -7  -2   -0.90    1.20
  -2  -7  -2    2.90    3.00
  -2   7  -3   65.69    4.70
  -2   7  -3   61.99    7.10
  -2  -7  -3   84.39    9.10
  -2  -7  -3   78.69    5.10
  -2  -7  -3   86.59    7.10
  -2  -7  -3   74.29    4.80
   2  -7   3   73.89    5.70
  -2   7  -4   -1.20    3.50
  -2   7  -4   -0.60    1.60
   2  -7   4    2.30    1.40
  -2  -7  -4    0.50    2.00
  -2  -7  -4   -1.10    3.80
  -2  -7  -4   -2.40    4.70
  -2   7  -5   18.50    4.40
  -2   7  -5   14.40    2.20
   2  -7   5   15.50    2.30
  -2  -7  -5   17.60    2.90
  -2  -7  -5   16.90    5.40
  -2  -7  -5   17.50    4.50
  -2   7  -6   46.00    4.00
  -2   7  -6   46.80    5.80
   2  -7   6   42.00    4.40
  -2  -7  -6   56.39    6.20
  -2  -7  -6   40.20    7.10
  -2  -7  -6   45.30    4.40
   2   7   7   44.40    4.60
  -2   7  -7   56.29    6.50
  -2  -7  -7   54.29    8.30
   2  -7   7   45.50    4.90
  -2  -7  -7   38.40    6.10
  -2  -7  -7   56.39    5.60
   2   7   8    4.10    2.10
  -2   7  -8   11.30    4.70
  -2  -7  -8   11.50    3.50
   2  -7   8    9.60    2.80
  -2  -7  -8   13.20    6.60
  -2  -7  -8    7.40    5.00
  -2   7  -9   45.50    6.30
   2  -7   9   20.30    3.70
  -2  -7  -9   39.80    4.80
  -2  -7  -9   30.60    7.90
  -2  -7  -9   41.50    6.60
  -2   7 -10    5.60    4.40
  -2  -7 -10    5.90    3.80
  -2  -7 -10    7.00    6.80
  -2  -7 -10   11.90    5.90
   2   8  -9   55.49    7.40
   2  -8  -9   53.19    5.80
   2  -8  -9   48.60    8.40
   2  -8  -9   56.19    7.90
   2   8  -8    8.40    4.80
   2  -8  -8    1.00    6.70
   2  -8  -8    3.20    5.50
   2  -8  -8    3.20    3.60
   2   8  -7    5.10    4.80
   2  -8  -7   -0.50    5.30
   2  -8  -7   -3.00    3.10
   2  -8  -7   -3.80    5.90
  -2  -8   7    3.60    3.70
   2   8  -6   20.30    5.00
   2  -8  -6    6.50    4.80
   2  -8  -6    8.30    3.30
   2  -8  -6    5.80    6.10
   2  -8  -5   79.59   10.50
   2  -8  -5   86.19    8.50
   2  -8  -5   81.79    6.50
   2   8  -4   59.39    6.90
   2  -8  -4   56.69    8.30
   2  -8  -4   70.49    6.90
   2  -8  -4   71.59    5.50
  -2  -8   4   70.39    7.60
   2   8  -3   51.79    6.50
  -2  -8   3   42.90    6.20
   2  -8  -3   38.20    3.80
   2  -8  -3   48.50    5.70
   2  -8  -3   38.90    6.70
   2   8  -2    2.80    4.10
  -2   8   2   -2.90    4.00
   2  -8  -2    0.40    1.90
   2  -8  -2    1.80    3.50
  -2  -8   2    5.40    4.50
  -2  -8   2    1.90    2.40
   2  -8  -2    4.30    4.80
  -2   8   1   14.70    4.60
   2   8  -1   10.50    4.40
   2  -8  -1    2.40    1.80
   2  -8  -1    6.60    3.40
  -2  -8   1   16.20    5.00
  -2  -8   1    6.20    2.90
   2  -8  -1    8.70    4.80
  -2   8   0   33.20    5.20
   2   8   0   22.80    5.00
  -2  -8   0   26.20    3.80
   2  -8   0   16.60    2.20
   2  -8   0   23.20    5.90
  -2  -8   0   27.10    5.80
   2  -8   0   19.40    3.90
  -2   8  -1   61.19    6.40
  -2  -8  -1   46.50    5.00
   2  -8   1   49.99    5.60
  -2  -8  -1   46.40    6.90
  -2   8  -2   22.60    4.70
   2  -8   2   26.90    3.80
  -2  -8  -2   20.20    4.30
  -2  -8  -2   31.00    6.40
  -2   8  -3   19.30    4.70
  -2  -8  -3   13.00    4.10
  -2  -8  -3   19.60    6.10
   2  -8   3   12.30    3.30
  -2  -8  -4    2.00    4.30
   2  -8   4    2.60    2.50
  -2  -8  -4    0.70    2.10
  -2  -8  -4   -0.10    5.00
  -2  -8  -5   69.89    9.10
  -2  -8  -5   53.79    5.40
  -2  -8  -5   93.79    8.40
  -2   8  -6   27.80    5.50
  -2  -8  -6   23.40    3.50
  -2  -8  -6   27.60    5.50
  -2  -8  -6   24.20    6.70
  -2   8  -7    9.70    4.60
  -2  -8  -7   11.00    3.40
  -2  -8  -7   12.30    5.30
  -2   8  -8   -4.80    4.20
  -2  -8  -8    9.30    6.50
  -2  -8  -8    3.80    3.70
  -2  -8  -8    8.70    5.60
  -2   8  -9   50.29    6.70
  -2  -8  -9   31.20    4.70
  -2  -8  -9   23.50    7.80
  -2  -8  -9   29.10    6.70
   2   9  -7   15.40    5.70
   2  -9  -7    4.50    7.00
   2  -9  -7   17.50    6.10
   2  -9  -7   -1.20    1.50
   2   9  -6    6.80    5.20
   2  -9  -6    6.60    6.70
  -2  -9   6   13.50    5.00
   2  -9  -6   -0.70    5.60
   2   9  -5   31.70    6.30
   2  -9  -5   19.90    5.60
   2  -9  -5   24.20    7.20
   2   9  -4   12.00    5.30
   2  -9  -4    7.50    5.10
  -2  -9   4   15.80    5.00
   2  -9  -4    9.20    6.00
   2   9  -3    1.60    4.60
  -2  -9   3   -1.60    4.30
   2  -9  -3    2.90    5.30
   2  -9  -3   -4.40    4.30
   2   9  -2    7.30    5.20
  -2  -9   2    9.30    5.20
   2  -9  -2    8.30    4.50
   2  -9  -2   17.30    6.50
  -2   9   1    9.40    5.00
   2   9  -1   -2.10    4.30
  -2  -9   1   -4.10    1.30
   2  -9  -1    5.70    5.70
   2  -9  -1    1.30    3.90
  -2  -9   1    2.20    4.80
   2   9   0    4.00    4.80
  -2   9   0    3.30    4.70
   2  -9   0    5.70    5.60
  -2  -9   0    7.90    3.50
  -2  -9   0    2.30    5.20
   2  -9   0    6.80    3.80
  -2   9  -1   43.20    6.30
  -2  -9  -1   40.20    5.10
   2  -9   1   37.10    5.00
  -2  -9  -1   53.59    7.70
   2  -9   1   43.60    7.20
  -2   9  -2   10.90    4.60
  -2  -9  -2   13.10    4.30
   2  -9   2   11.90    5.40
  -2  -9  -2   14.50    5.70
  -2   9  -3   28.50    5.90
  -2  -9  -3   25.90    5.10
  -2  -9  -3   37.20    7.50
  -2   9  -4    6.10    4.80
  -2  -9  -4   14.10    5.00
  -2  -9  -4   12.00    5.70
  -2   9  -5   20.10    5.50
  -2  -9  -5   15.00    5.40
  -2  -9  -5   26.70    7.60
  -2   9  -6  198.28   15.20
  -2  -9  -6  224.28   17.20
  -2  -9  -6  219.48   14.50
  -2   9  -7   47.00    7.20
  -2  -9  -7   34.80    6.70
  -2  -9  -7   34.30    7.80
   2  10  -4    5.20    6.00
   2 -10  -4    7.70    7.00
  -2 -10   4    4.10    4.90
   2 -10  -4   -1.70    5.90
   2  10  -3   30.90    6.80
   2 -10  -3   33.20    6.20
  -2 -10   3   33.30    6.50
   2 -10  -3   36.20    8.30
   2  10  -2   -3.80    5.00
   2 -10  -2    0.60    6.50
  -2 -10   2   -5.70    4.80
   2 -10  -2    1.60    4.80
   2  10  -1   -7.00    4.60
  -2  10   1    2.20    5.50
   2 -10  -1    6.30    6.70
   2 -10  -1    3.60    4.70
  -2 -10   1   -8.20    5.20
  -2  10   0    5.10    5.00
  -2 -10   0   12.50    6.10
   2 -10   0   -0.90    3.20
   2 -10   0    8.50    6.50
  -2  10  -1    9.80    5.40
  -2 -10  -1    3.50    5.80
   2 -10   1   10.40    6.50
  -2  10  -2   58.79    7.70
  -2 -10  -2   48.60    6.50
   2 -10   2   63.79    9.30
  -2 -10  -2   71.69   10.30
  -2  10  -3  148.89   13.50
  -2 -10  -3  195.18   15.20
  -2 -10  -3  193.98   12.70
   2 -10   3  175.88   15.20
  -2  10  -4   19.30    6.30
   2 -10   4   24.60    6.30
  -2 -10  -4   29.00    6.70
  -2 -10  -4   15.70    7.40
  -3   0  14    4.70    3.20
   3   0 -14    6.00    4.60
   3   0 -14    7.40    4.40
   3   0 -13   -2.50    4.00
   3   0 -13    3.00    4.00
  -3   0  13   -3.40    2.70
   3   0 -12    5.10    3.90
   3   0 -12    8.30    4.00
  -3   0  12   13.50    3.50
  -3   0  11   -0.60    2.50
   3   0 -11    0.70    3.30
   3   0 -11   -2.00    3.10
   3   0 -11    1.70    3.50
  -3   0  10    1.30    1.90
   3   0 -10    3.20    3.10
  -3   0  10    3.30    2.50
   3   0 -10    3.80    3.30
   3   0 -10    0.00    3.00
  -3   0   9    0.60    1.60
   3   0  -9   -0.60    2.90
   3   0  -9   -3.60    2.60
  -3   0   9   -1.40    2.20
   3   0  -9   -1.80    2.70
   3   0  -8   23.30    3.40
   3   0  -8   31.40    4.00
  -3   0   8   25.60    3.10
  -3   0   8   31.90    3.70
   3   0  -8   25.90    3.40
  -3   0   8   26.60    3.20
   3   0  -7    1.20    2.30
  -3   0   7   -1.20    1.90
  -3   0   7   -0.60    1.40
   3   0  -7    1.90    2.10
   3   0  -7    1.20    2.40
  -3   0   7    0.30    1.80
  -3   0   6 1154.08   58.09
   3   0  -6 1169.58   58.09
  -3   0   6 1140.29   58.09
   3   0  -6 1273.07   58.09
  -3   0   6 1144.19   58.29
  -3   0   6 1079.89   58.09
   3   0  -6 1076.29   58.09
  -3   0   5   -0.80    1.80
  -3   0   5   -0.60    1.20
   3   0  -5   -2.40    1.90
   3   0  -5    0.30    2.20
   3   0  -5    2.10    1.70
  -3   0   5    0.80    1.40
  -3   0   5    1.00    1.50
   3   0  -5    0.60    2.00
   3   0  -4   17.70    2.30
  -3   0   4   28.20    2.60
   3   0  -4   23.30    2.40
   3   0  -4   23.30    2.60
  -3   0   4   23.60    2.50
   3   0  -4   23.10    2.40
  -3   0   4   26.50    2.30
   3   0  -3   -0.10    1.10
  -3   0   3   -0.50    1.20
   3   0  -3   -0.80    1.50
   3   0  -3   -1.00    1.40
  -3   0   3    1.20    1.10
   3   0  -3   -0.20    1.40
  -3   0   3   -1.00    1.40
   3   0  -2   86.59    5.00
  -3   0   2   88.89    4.90
   3   0  -2   90.19    5.00
   3   0  -2   88.49    5.10
  -3   0   2   89.09    5.10
   3   0  -1    1.10    1.00
   3   0  -1   -0.50    1.00
   3   0  -1    1.20    0.80
  -3   0   1    0.40    0.80
  -3   0   1    0.10    0.90
   3   0   0   33.30    2.10
  -3   0   0   35.70    2.10
   3   0   0   31.30    2.50
   3   0   0   32.00    2.00
  -3   0   0   25.60    2.40
   3   0   1    0.40    0.90
  -3   0  -1    1.00    1.10
   3   0   1   -0.70    0.90
  -3   0  -1    1.60    1.50
  -3   0  -1    1.10    1.00
  -3   0  -1    0.00    1.20
   3   0   1   -1.00    1.10
   3   0   1    2.10    1.70
   3   0   2 2938.91  140.29
  -3   0  -2 2738.73  140.39
   3   0   2 2791.52  140.39
  -3   0  -2 2575.54  140.69
  -3   0  -2 3006.90  140.29
  -3   0  -2 3017.60  140.39
   3   0   2 2564.14  140.59
   3   0   2 2807.12  140.39
   3   0   3   -0.30    1.30
  -3   0  -3    0.60    1.60
  -3   0  -3    1.30    2.00
  -3   0  -3   -0.10    1.50
   3   0   3   -0.10    1.40
   3   0   3    1.50    2.00
   3   0   3   -1.00    1.50
  -3   0  -3    0.60    1.60
  -3   0  -4    2.70    1.90
   3   0   4   -0.30    1.40
  -3   0  -4    1.00    1.70
   3   0   4    1.10    1.90
  -3   0  -4    1.10    2.40
   3   0   4   -0.10    1.70
  -3   0  -4   -1.50    1.70
   3   0   5    0.90    1.60
  -3   0  -5    0.30    2.10
   3   0   5    1.10    2.20
  -3   0  -5    0.40    2.10
  -3   0  -5    3.10    2.90
  -3   0  -5   -0.80    2.00
   3   0   5    0.80    1.90
   3   0   5    1.10    1.80
   3   0   6    7.30    2.10
  -3   0  -6    6.80    2.40
   3   0   6    7.40    2.60
  -3   0  -6    8.00    3.30
   3   0   6    7.30    2.00
   3   0   6    6.30    2.20
  -3   0  -6    6.50    2.20
  -3   0  -6    7.90    2.50
   3   0   7    0.50    2.20
   3   0   7   -1.20    2.10
  -3   0  -7   -0.30    2.90
  -3   0  -7   -2.20    2.20
  -3   0  -7   -2.40    2.40
   3   0   8  212.38   13.30
   3   0   8  225.58   13.00
  -3   0  -8  230.28   13.60
  -3   0  -8  222.78   12.80
  -3   0  -8  235.68   12.80
   3   0   9    0.10    2.30
  -3   0  -9   -4.90    3.50
  -3   0  -9    0.80    2.90
  -3   0  -9   -1.60    2.80
   3   0  10   26.20    4.00
  -3   0 -10   32.00    4.30
  -3   0 -10   31.70    4.30
  -3   0 -10   25.70    4.90
  -3   0 -11   -1.10    3.60
   3   0  11   -0.70    2.60
  -3   0 -11   -3.50    3.30
  -3   0 -11   -5.40    3.80
  -3   0 -12  143.59   10.50
  -3   0 -12  153.78   11.40
  -3   0 -12  167.48   10.70
   3   0  12  150.58   10.70
   3   0  13    0.30    3.20
  -3   0 -13   -0.50    4.00
  -3   0 -13   -2.60    3.60
  -3   0 -13   -0.70    4.00
  -3   0 -14   12.10    4.40
   3   0  14   15.00    4.20
  -3   0 -14   10.70    4.80
  -3   1  14   20.50    4.20
   3   1 -14   20.30    5.00
   3   1 -14   20.40    4.00
   3  -1 -14   16.90    4.60
   3  -1 -14   17.50    5.70
  -3  -1  14   22.20    4.30
  -3   1  13   39.10    5.10
   3   1 -13   50.69    5.30
   3   1 -13   50.29    5.60
   3  -1 -13   40.80    6.10
   3  -1 -13   37.10    5.50
  -3  -1  13   46.00    5.50
   3   1 -12   55.79    5.70
   3   1 -12   52.39    5.30
  -3   1  12   59.69    5.90
  -3  -1  12   43.60    5.10
   3  -1 -12   44.70    5.50
   3  -1 -12   51.89    6.20
   3  -1 -12   50.09    6.80
  -3   1  11   17.50    3.50
   3   1 -11   17.90    3.70
   3   1 -11   19.00    2.90
   3   1 -11   17.10    3.80
   3  -1 -11   14.40    4.30
   3  -1 -11   13.90    3.80
   3  -1 -11   14.50    4.30
  -3  -1  11   20.90    3.80
   3   1 -10    5.60    2.90
  -3   1  10    4.10    2.20
   3   1 -10    1.10    3.00
  -3   1  10    2.20    2.50
   3   1 -10    5.90    2.20
   3  -1 -10    0.80    3.30
  -3  -1  10    2.50    1.80
   3  -1 -10    2.70    3.20
   3  -1 -10    4.70    3.60
  -3  -1  10    2.20    2.60
   3   1  -9   23.00    3.20
   3   1  -9   24.30    3.50
   3   1  -9   20.20    3.50
  -3   1   9   27.00    3.70
  -3   1   9   23.80    3.40
   3  -1  -9   22.80    4.00
   3  -1  -9   18.90    3.90
   3  -1  -9   24.70    3.70
  -3  -1   9   24.20    3.00
  -3  -1   9   24.50    2.70
  -3  -1   9   21.00    3.30
  -3   1   8  159.48   10.20
  -3   1   8  176.88   10.30
   3   1  -8  166.58   10.20
   3   1  -8  187.08    9.90
   3   1  -8  182.08   10.10
   3  -1  -8  160.98   10.20
  -3  -1   8  170.38    9.90
   3  -1  -8  181.18   10.60
   3  -1  -8  184.28   10.70
  -3  -1   8  173.68    9.70
  -3  -1   8  179.78   10.40
   3   1  -7    0.20    2.20
   3   1  -7    1.70    1.70
  -3   1   7    1.00    1.80
  -3   1   7    1.50    2.00
   3   1  -7   -0.20    2.00
  -3   1   7    1.10    1.70
  -3  -1   7    0.00    1.30
   3  -1  -7    2.80    2.50
  -3  -1   7    0.20    1.50
   3  -1  -7    0.90    2.40
  -3  -1   7    0.20    2.10
   3  -1  -7    0.20    2.50
  -3  -1   7    0.20    1.60
  -3   1   6 1026.90   56.19
  -3   1   6 1093.09   56.19
  -3   1   6 1112.29   56.19
   3   1  -6 1120.99   56.09
   3   1  -6 1224.48   55.89
   3   1  -6 1111.89   56.39
   3   1  -6 1148.29   55.99
  -3   1   6 1168.68   56.49
  -3  -1   6 1056.49   56.29
   3  -1  -6 1106.39   56.29
   3  -1  -6 1067.39   56.19
   3  -1  -6 1078.39   56.29
   3  -1  -6 1123.19   56.39
  -3  -1   6 1091.79   56.09
  -3  -1   6 1092.09   55.79
  -3  -1   6 1118.69   55.99
  -3   1   5  540.75   28.30
   3   1  -5  530.75   28.10
   3   1  -5  547.65   28.40
  -3   1   5  556.74   28.20
   3   1  -5  532.15   28.00
   3   1  -5  603.14   27.80
  -3   1   5  575.04   28.30
  -3  -1   5  514.35   28.00
   3  -1  -5  541.05   28.30
  -3  -1   5  548.35   28.30
   3  -1  -5  579.64   28.50
   3  -1  -5  538.25   28.20
   3  -1  -5  532.95   28.30
  -3  -1   5  554.64   27.90
  -3  -1   5  550.14   27.80
  -3   1   4  133.39    7.70
   3   1  -4  133.89    7.40
  -3   1   4  141.19    7.70
   3   1  -4  135.59    7.90
   3   1  -4  133.99    7.60
  -3   1   4  140.69    7.70
  -3  -1   4  142.39    7.50
   3  -1  -4  135.39    7.90
  -3  -1   4  136.99    7.80
   3  -1  -4  148.09    8.10
   3  -1  -4  138.59    8.00
  -3  -1   4  136.79    7.30
   3  -1  -4  131.39    7.80
  -3   1   3  398.36   21.20
  -3   1   3  422.46   21.20
   3   1  -3  422.76   21.30
  -3   1   3  425.56   21.20
   3   1  -3  438.86   21.10
   3   1  -3  395.46   20.90
   3   1  -3  410.36   21.10
   3  -1  -3  421.66   21.30
  -3  -1   3  429.16   21.30
  -3  -1   3  402.76   20.90
   3  -1  -3  426.36   21.50
  -3  -1   3  402.96   21.00
   3  -1  -3  412.16   21.30
   3  -1  -3  397.26   21.20
  -3   1   2  580.14   29.50
   3   1  -2  592.24   29.40
   3   1  -2  578.04   29.50
   3   1  -2  578.14   29.20
  -3   1   2  600.04   29.50
   3   1  -2  594.44   29.40
  -3  -1   2  592.24   29.50
   3  -1  -2  543.85   29.40
  -3  -1   2  633.24   29.40
   3  -1  -2  591.84   29.60
   3  -1  -2  600.14   29.40
  -3  -1   2  566.04   29.30
  -3  -1   2  537.55   29.30
   3  -1  -2  578.74   29.50
   3   1  -1   61.59    3.40
  -3   1   1   66.19    3.70
   3   1  -1   58.79    3.70
  -3   1   1   62.39    3.60
   3   1  -1   64.79    3.70
  -3   1   1   65.09    3.60
   3   1  -1   59.09    3.60
   3   1  -1   54.79    3.30
   3  -1  -1   59.09    3.60
   3  -1  -1   62.09    3.70
  -3  -1   1   56.59    3.70
   3  -1  -1   62.89    3.70
  -3  -1   1   60.29    3.70
  -3  -1   1   61.29    3.30
  -3  -1   1   64.19    3.60
  -3   1   0  110.49    6.00
  -3   1   0  108.19    6.40
   3   1   0  109.69    5.70
   3   1   0  111.59    6.20
  -3   1   0  118.19    5.90
   3   1   0  111.99    5.90
   3  -1   0  112.29    6.00
  -3  -1   0  113.29    5.70
  -3  -1   0  110.89    5.80
  -3  -1   0  102.89    6.20
   3  -1   0  111.99    5.90
   3  -1   0  100.19    6.30
  -3   1  -1  377.36   18.90
   3   1   1  337.77   18.90
  -3   1  -1  399.26   18.90
   3   1   1  352.46   19.30
  -3   1  -1  359.96   19.30
   3   1   1  399.56   18.90
  -3  -1  -1  375.76   19.40
   3  -1   1  343.37   19.30
   3  -1   1  363.86   18.90
   3  -1   1  382.36   19.00
   3  -1   1  374.66   18.90
  -3  -1  -1  377.76   19.00
  -3  -1  -1  379.16   18.90
  -3  -1  -1  391.66   18.90
  -3   1  -2   18.30    1.90
   3   1   2   20.70    2.00
   3   1   2   26.40    2.90
   3   1   2   22.20    1.90
   3   1   2   22.70    2.20
  -3   1  -2   19.40    2.00
  -3   1  -2   20.40    2.60
  -3   1  -2   22.30    2.10
   3  -1   2   18.60    1.90
   3  -1   2   19.30    1.80
   3  -1   2   22.20    2.40
  -3  -1  -2   21.40    2.00
   3  -1   2   21.50    2.80
  -3  -1  -2   21.00    2.20
  -3  -1  -2   22.40    3.20
  -3  -1  -2   26.60    2.10
  -3   1  -3   27.00    2.50
   3   1   3   28.70    2.90
  -3   1  -3   30.00    2.90
   3   1   3   26.80    2.70
   3   1   3   23.30    3.20
   3   1   3   28.90    2.90
  -3   1  -3   25.10    2.50
  -3   1  -3   25.40    3.60
  -3  -1  -3   32.80    3.60
   3  -1   3   27.20    2.60
   3  -1   3   25.40    2.80
  -3  -1  -3   27.30    2.80
  -3  -1  -3   31.00    2.80
   3  -1   3   23.40    2.40
  -3  -1  -3   26.90    2.50
   3  -1   3   24.60    3.60
  -3   1  -4  666.93   31.90
   3   1   4  628.74   32.10
  -3   1  -4  616.54   32.00
  -3   1  -4  590.64   32.40
   3   1   4  617.24   32.00
   3   1   4  656.33   32.00
  -3   1  -4  660.63   31.90
   3   1   4  568.84   32.40
   3  -1   4  630.94   31.90
  -3  -1  -4  621.54   32.50
   3  -1   4  607.44   32.00
  -3  -1  -4  638.24   32.10
  -3  -1  -4  627.94   32.00
   3  -1   4  647.54   32.50
  -3  -1  -4  635.04   31.90
   3  -1   4  617.54   31.90
   3   1   5  101.79    6.40
  -3   1  -5  107.49    6.70
   3   1   5  100.19    7.20
  -3   1  -5  113.09    6.50
  -3   1  -5   99.69    7.30
   3   1   5  103.49    6.60
  -3   1  -5  108.09    6.60
   3   1   5  106.29    6.80
  -3  -1  -5   99.29    7.70
  -3  -1  -5  111.59    6.70
   3  -1   5  104.29    6.30
   3  -1   5  103.49    6.70
  -3  -1  -5  104.39    6.70
   3  -1   5  103.59    7.30
   3  -1   5  106.69    6.50
  -3  -1  -5  101.19    6.90
   3   1   6 1064.99   55.99
  -3   1  -6 1171.08   55.89
  -3   1  -6 1071.49   56.49
  -3   1  -6 1124.69   55.99
   3   1   6 1083.49   55.99
   3   1   6 1065.99   56.49
  -3   1  -6 1134.29   55.89
   3  -1   6 1162.48   56.49
  -3  -1  -6 1044.40   55.89
   3  -1   6 1102.29   56.09
   3  -1   6 1099.19   55.89
  -3  -1  -6 1101.89   56.59
  -3  -1  -6 1074.19   55.89
  -3  -1  -6 1135.09   55.99
   3  -1   6 1100.59   55.79
   3   1   7    9.50    2.90
  -3   1  -7    7.20    2.40
  -3   1  -7   12.30    3.20
  -3   1  -7    9.90    2.50
   3   1   7    9.00    2.50
   3  -1   7    7.60    2.70
  -3  -1  -7    9.70    3.70
  -3  -1  -7    5.30    2.60
  -3  -1  -7   10.70    3.00
   3  -1   7    7.90    2.00
   3  -1   7    7.70    2.50
  -3   1  -8   62.79    5.30
  -3   1  -8   61.59    6.00
   3   1   8   56.09    5.30
  -3   1  -8   65.29    5.40
   3  -1   8   54.69    5.40
  -3  -1  -8   59.79    5.40
  -3  -1  -8   52.99    5.60
  -3  -1  -8   60.39    7.20
   3  -1   8   50.39    5.10
   3   1   9   52.69    5.20
  -3   1  -9   48.00    5.40
  -3   1  -9   53.59    6.10
  -3   1  -9   49.70    4.70
  -3  -1  -9   48.80    5.20
  -3  -1  -9   45.90    5.90
  -3  -1  -9   53.79    4.90
   3  -1   9   51.69    5.20
  -3   1 -10  292.67   16.80
  -3   1 -10  302.77   17.60
   3   1  10  287.27   17.10
  -3   1 -10  325.97   17.10
  -3  -1 -10  284.17   16.90
  -3  -1 -10  329.07   17.50
  -3  -1 -10  291.87   18.20
   3  -1  10  301.27   17.20
   3   1  11  169.58   11.50
  -3   1 -11  171.58   11.70
  -3   1 -11  175.58   11.10
  -3   1 -11  181.58   11.10
  -3  -1 -11  179.48   11.30
  -3  -1 -11  175.78   11.70
   3  -1  11  173.78   11.30
  -3  -1 -11  169.88   12.70
  -3   1 -12   31.60    4.70
  -3   1 -12   26.60    4.50
   3   1  12   25.60    4.40
  -3   1 -12   29.10    4.70
   3  -1  12   31.70    4.80
  -3  -1 -12   26.70    4.40
  -3  -1 -12   22.90    5.80
  -3  -1 -12   31.50    5.30
   3   1  13    0.10    3.40
  -3   1 -13   -0.20    3.50
  -3   1 -13    1.80    3.80
   3  -1  13    4.00    3.40
  -3  -1 -13   -4.20    4.80
  -3  -1 -13    0.00    3.90
  -3  -1 -13    0.60    4.40
  -3   1 -14    1.60    3.80
  -3   1 -14    1.40    4.00
   3   1  14    1.70    3.40
  -3  -1 -14   -4.60    4.50
   3  -1  14   -0.80    3.60
  -3  -1 -14   -0.90    4.20
  -3   2  14   23.00    4.40
   3   2 -14   22.10    4.90
   3  -2 -14   17.90    5.30
  -3  -2  14   22.20    4.30
   3  -2 -14   17.60    5.80
   3   2 -13   39.50    5.30
  -3   2  13   44.40    5.50
   3   2 -13   28.10    4.20
   3  -2 -13   40.90    6.40
   3  -2 -13   41.40    5.80
  -3  -2  13   43.10    5.40
   3   2 -12   41.10    4.30
  -3   2  12   44.60    5.20
   3   2 -12   43.50    5.00
   3  -2 -12   39.20    6.20
  -3  -2  12   38.30    4.80
   3  -2 -12   41.00    6.20
   3  -2 -12   33.60    5.10
   3   2 -11    5.40    3.20
  -3   2  11    4.00    2.80
   3   2 -11    3.00    2.60
   3  -2 -11    2.50    4.00
  -3  -2  11   -1.70    2.60
   3  -2 -11    5.00    4.30
   3  -2 -11    1.80    3.50
   3   2 -10   36.30    3.70
   3   2 -10   38.20    3.80
  -3   2  10   39.10    4.30
   3   2 -10   36.50    4.20
   3  -2 -10   35.70    5.40
  -3  -2  10   30.50    4.10
   3  -2 -10   36.50    4.60
   3  -2 -10   30.90    5.00
   3   2  -9  215.08   12.20
   3   2  -9  214.38   11.70
   3   2  -9  227.68   11.90
  -3   2   9  211.78   12.40
   3  -2  -9  222.88   13.30
  -3  -2   9  208.68   12.50
  -3  -2   9  193.08   11.70
   3  -2  -9  233.98   13.00
  -3  -2   9  202.68   11.60
   3  -2  -9  213.68   12.70
   3   2  -8    1.10    2.30
   3   2  -8   -0.90    1.90
  -3   2   8    1.40    2.10
   3   2  -8    1.80    1.70
   3  -2  -8    2.10    2.90
   3  -2  -8    2.40    3.20
   3  -2  -8   -1.80    2.50
  -3  -2   8   -0.50    1.40
  -3  -2   8    0.70    1.40
  -3  -2   8   -1.90    2.10
  -3   2   7   18.70    2.70
   3   2  -7   16.90    2.20
   3   2  -7   18.20    2.70
   3  -2  -7   16.00    2.70
  -3  -2   7   14.30    2.10
  -3  -2   7   15.60    1.90
   3  -2  -7   19.90    3.60
  -3  -2   7   16.50    2.00
  -3  -2   7   18.10    2.90
   3  -2  -7   17.00    3.30
   3   2  -6  150.98    8.70
  -3   2   6  152.28    8.80
   3   2  -6  145.89    8.20
   3   2  -6  162.18    9.00
  -3   2   6  139.79    8.70
   3   2  -6  150.98    9.00
   3  -2  -6  158.08    9.00
  -3  -2   6  158.48    9.00
   3  -2  -6  153.18    9.10
  -3  -2   6  148.49    8.40
  -3  -2   6  152.98    8.30
   3  -2  -6  157.38    9.70
  -3  -2   6  146.79    8.20
   3  -2  -6  146.39    9.30
  -3   2   5  496.45   25.90
   3   2  -5  524.35   25.80
   3   2  -5  509.85   26.00
  -3   2   5  490.25   25.80
   3   2  -5  470.45   25.40
  -3   2   5  498.25   25.80
   3   2  -5  485.15   25.60
   3  -2  -5  497.05   25.90
   3  -2  -5  484.95   26.10
  -3  -2   5  514.95   25.60
  -3  -2   5  528.25   25.50
  -3  -2   5  498.05   25.40
   3  -2  -5  470.25   25.80
  -3  -2   5  503.15   25.90
   3  -2  -5  546.85   26.60
   3   2  -4  619.44   32.60
  -3   2   4  645.04   33.00
   3   2  -4  648.64   32.90
  -3   2   4  657.93   32.80
   3   2  -4  596.44   32.40
   3   2  -4  660.83   32.80
  -3   2   4  594.74   32.80
   3  -2  -4  670.93   33.50
  -3  -2   4  744.43   32.60
  -3  -2   4  628.14   32.60
  -3  -2   4  653.13   32.90
  -3  -2   4  619.24   32.40
   3  -2  -4  657.33   32.90
   3  -2  -4  676.93   33.10
   3  -2  -4  601.84   32.80
  -3   2   3   65.29    4.20
   3   2  -3   67.29    4.50
  -3   2   3   68.29    4.30
   3   2  -3   67.39    4.00
   3   2  -3   60.59    4.40
  -3  -2   3   63.09    4.40
  -3  -2   3   66.39    3.80
  -3  -2   3   68.39    4.30
   3  -2  -3   65.49    4.50
   3  -2  -3   69.49    4.50
   3  -2  -3   68.49    4.80
   3  -2  -3   64.39    4.30
   3   2  -2 2456.05  118.69
   3   2  -2 2398.76  118.39
   3   2  -2 2210.18  118.59
  -3   2   2 2577.54  118.69
  -3   2   2 2269.27  118.49
  -3   2   2 2373.66  118.59
   3  -2  -2 2330.07  118.59
   3  -2  -2 2542.25  118.69
   3  -2  -2 2431.86  118.69
  -3  -2   2 2400.96  118.69
   3  -2  -2 2432.66  118.79
  -3  -2   2 2357.66  118.59
  -3  -2   2 2232.68  118.39
  -3  -2   2 2263.67  118.69
   3  -2  -2 2266.67  118.59
   3   2  -1  511.95   27.20
   3   2  -1  536.45   27.00
  -3   2   1  525.95   26.90
  -3   2   1  558.34   27.00
  -3   2   1  509.65   26.80
   3   2  -1  547.35   26.70
  -3  -2   1  513.75   26.70
  -3  -2   1  547.65   27.00
  -3  -2   1  525.85   27.20
   3  -2  -1  554.54   27.10
   3  -2  -1  527.85   26.90
  -3  -2   1  520.25   26.80
   3   2   0   41.10    2.90
   3   2   0   42.20    2.50
   3   2   0   43.20    3.70
  -3   2   0   46.30    3.10
  -3   2   0   41.40    3.40
   3  -2   0   43.40    3.30
   3  -2   0   47.80    3.00
  -3  -2   0   34.80    3.30
  -3  -2   0   40.40    3.00
  -3  -2   0   42.60    3.90
  -3  -2   0   41.70    2.50
  -3   2  -1  308.27   15.50
   3   2   1  316.17   15.20
   3   2   1  283.77   15.80
  -3   2  -1  308.07   15.20
   3   2   1  293.27   15.40
  -3   2  -1  301.27   15.20
   3  -2   1  285.27   15.90
   3  -2   1  299.57   15.20
  -3  -2  -1  286.67   15.40
  -3  -2  -1  293.87   15.10
  -3  -2  -1  294.07   16.00
  -3  -2  -1  315.67   15.20
   3  -2   1  296.37   15.20
   3  -2   1  279.97   15.40
  -3   2  -2  390.26   19.00
  -3   2  -2  376.76   19.30
   3   2   2  403.36   19.00
   3   2   2  352.56   19.00
  -3   2  -2  334.27   19.40
  -3   2  -2  357.66   19.00
   3   2   2  384.76   19.20
   3   2   2  381.56   19.80
   3  -2   2  363.26   19.60
  -3  -2  -2  357.56   18.90
  -3  -2  -2  381.26   19.80
  -3  -2  -2  369.56   18.90
   3  -2   2  386.86   19.00
   3  -2   2  364.36   18.90
   3  -2   2  360.76   19.00
  -3  -2  -2  370.76   19.20
   3   2   3  557.04   29.20
  -3   2  -3  551.74   28.50
   3   2   3  565.94   28.50
   3   2   3  586.14   28.70
  -3   2  -3  585.04   29.10
   3   2   3  577.64   28.40
  -3   2  -3  570.94   28.40
   3  -2   3  538.25   28.40
   3  -2   3  580.94   28.50
  -3  -2  -3  524.05   29.10
   3  -2   3  502.65   28.90
  -3  -2  -3  596.64   28.50
   3  -2   3  547.35   28.40
  -3  -2  -3  550.04   28.60
  -3  -2  -3  548.85   28.40
  -3   2  -4   25.50    2.80
   3   2   4   25.30    2.90
   3   2   4   24.30    2.40
  -3   2  -4   23.90    2.50
   3   2   4   24.70    3.60
  -3   2  -4   24.40    3.40
  -3   2  -4   23.20    2.50
   3   2   4   21.30    2.60
  -3  -2  -4   26.50    3.90
  -3  -2  -4   27.10    2.70
   3  -2   4   24.90    2.70
   3  -2   4   22.90    2.50
   3  -2   4   22.80    3.30
  -3  -2  -4   24.90    2.60
   3  -2   4   21.50    2.20
  -3  -2  -4   22.10    3.00
  -3   2  -5  477.05   25.40
  -3   2  -5  512.25   24.80
  -3   2  -5  459.05   24.90
   3   2   5  452.45   24.90
  -3   2  -5  492.35   24.70
   3   2   5  493.05   24.90
   3   2   5  503.95   24.80
   3   2   5  454.75   25.60
   3  -2   5  533.75   25.70
   3  -2   5  467.35   24.60
   3  -2   5  481.85   24.90
  -3  -2  -5  459.75   25.70
  -3  -2  -5  457.75   25.00
   3  -2   5  472.95   24.70
  -3  -2  -5  483.05   24.80
  -3  -2  -5  469.55   24.80
  -3   2  -6  392.76   18.90
  -3   2  -6  373.66   18.80
  -3   2  -6  370.06   19.50
   3   2   6  352.86   19.00
  -3   2  -6  346.37   18.90
   3   2   6  354.26   19.70
   3  -2   6  364.46   18.70
   3  -2   6  382.86   19.70
  -3  -2  -6  349.96   18.90
   3  -2   6  370.76   19.10
  -3  -2  -6  312.67   18.80
   3  -2   6  357.36   18.80
  -3  -2  -6  312.07   19.70
  -3  -2  -6  353.86   19.10
   3   2   7   47.70    4.60
  -3   2  -7   44.80    5.00
  -3   2  -7   47.30    4.20
  -3   2  -7   47.80    4.40
  -3  -2  -7   44.50    5.10
  -3  -2  -7   46.40    6.10
   3  -2   7   44.20    3.90
   3  -2   7   48.60    4.60
  -3  -2  -7   46.20    4.70
   3  -2   7   41.80    5.20
  -3   2  -8    1.00    2.40
  -3   2  -8    2.20    2.80
   3   2   8    1.70    2.50
  -3   2  -8    4.10    2.50
   3  -2   8   -1.70    2.20
   3  -2   8   -3.30    2.60
  -3  -2  -8    3.90    3.20
  -3  -2  -8    2.50    3.80
  -3  -2  -8   -2.10    2.60
  -3   2  -9  316.37   16.50
   3   2   9  293.87   16.80
  -3   2  -9  292.37   16.40
  -3   2  -9  294.27   17.20
  -3  -2  -9  292.07   17.00
  -3  -2  -9  284.77   16.60
   3  -2   9  290.17   16.80
  -3  -2  -9  326.47   18.50
  -3   2 -10  201.98   12.00
  -3   2 -10  208.88   12.00
  -3   2 -10  187.38   12.50
   3   2  10  201.28   12.50
  -3  -2 -10  205.68   14.30
  -3  -2 -10  192.38   12.30
  -3  -2 -10  214.58   12.90
   3  -2  10  202.48   12.40
  -3   2 -11  145.39    9.60
   3   2  11  143.19   10.00
  -3   2 -11  149.49   10.20
  -3   2 -11  151.08   10.10
  -3  -2 -11  141.89   10.80
  -3  -2 -11  141.79   11.90
  -3  -2 -11  146.59   10.10
   3  -2  11  144.49   10.00
   3   2  12   71.19    7.20
  -3   2 -12   69.39    7.00
  -3   2 -12   74.49    6.90
  -3   2 -12   83.39    7.40
   3  -2  12   67.69    7.00
  -3  -2 -12   82.49    8.40
  -3  -2 -12   55.09    6.10
  -3  -2 -12   59.39    8.90
   3   2  13   29.30    4.80
  -3   2 -13   24.80    4.60
  -3   2 -13   30.10    4.50
  -3  -2 -13   17.20    6.60
   3  -2  13   27.00    4.90
  -3  -2 -13   29.80    4.90
  -3  -2 -13   25.70    5.90
   3   2  14   24.80    4.80
  -3   2 -14   21.30    4.70
  -3   2 -14   28.00    4.00
  -3  -2 -14   35.70    6.70
   3  -2  14   19.20    5.00
  -3  -2 -14   25.10    5.00
  -3   3  14   26.70    4.90
   3   3 -14   26.70    5.00
   3   3 -14   26.80    5.10
   3  -3 -14   32.90    6.90
   3  -3 -14   20.60    5.10
  -3  -3  14   23.50    4.50
   3   3 -13    4.60    3.70
  -3   3  13    4.00    3.10
   3   3 -13    5.00    4.00
   3  -3 -13    8.50    5.70
   3  -3 -13    6.10    4.40
   3  -3 -13   -0.20    5.10
  -3  -3  13    3.70    3.30
   3   3 -12   25.40    4.20
   3   3 -12   26.10    4.70
  -3   3  12   28.40    4.30
  -3  -3  12   32.60    4.60
   3  -3 -12   20.50    4.60
   3  -3 -12   20.90    5.80
   3  -3 -12   23.50    5.90
  -3   3  11   13.70    3.40
   3   3 -11   10.60    2.30
   3   3 -11   18.50    4.00
   3   3 -11    8.00    3.50
  -3  -3  11   11.00    3.20
   3  -3 -11   11.60    4.60
   3  -3 -11    5.70    3.60
   3  -3 -11    8.20    5.00
   3   3 -10   23.00    3.70
   3   3 -10   34.60    4.40
  -3   3  10   31.30    4.00
   3   3 -10   26.40    3.20
   3  -3 -10   20.70    5.20
  -3  -3  10   31.40    4.30
   3  -3 -10   27.20    5.60
   3  -3 -10   20.40    4.10
   3   3  -9  204.08   11.10
  -3   3   9  207.08   11.40
   3   3  -9  179.38   11.40
   3   3  -9  194.68   10.40
   3  -3  -9  209.08   12.90
  -3  -3   9  178.78   10.30
  -3  -3   9  161.18   10.30
   3  -3  -9  176.08   11.40
   3  -3  -9  196.68   11.90
  -3  -3   9  183.48   11.20
   3   3  -8  156.18    9.40
   3   3  -8  151.38    9.80
   3   3  -8  173.88    8.90
  -3   3   8  163.88    9.70
   3  -3  -8  156.08    9.90
   3  -3  -8  155.38   10.80
  -3  -3   8  151.58    9.10
   3  -3  -8  166.78   10.50
  -3  -3   8  153.98    8.80
  -3  -3   8  173.58    9.90
   3   3  -7   73.89    5.20
  -3   3   7   67.59    5.30
   3   3  -7   74.29    5.90
   3   3  -7   83.19    4.70
   3  -3  -7   78.29    5.90
   3  -3  -7   67.59    6.30
  -3  -3   7   72.79    5.50
  -3  -3   7   75.19    4.60
  -3  -3   7   71.59    5.10
   3  -3  -7   77.59    7.00
  -3  -3   7   65.79    4.70
   3   3  -6   85.49    4.80
   3   3  -6   81.39    5.90
   3   3  -6   88.79    6.10
  -3   3   6   86.39    5.60
   3   3  -6   79.59    5.30
  -3  -3   6   80.29    4.90
  -3  -3   6   80.89    5.80
  -3  -3   6   72.09    4.60
   3  -3  -6   79.19    6.50
   3  -3  -6   78.69    7.10
   3  -3  -6   80.99    6.00
   3  -3  -6   79.09    5.70
  -3  -3   6   80.49    5.30
   3   3  -5   56.59    4.70
  -3   3   5   66.19    4.60
  -3   3   5   62.89    4.50
  -3   3   5   61.29    4.50
   3   3  -5   59.09    4.20
   3   3  -5   72.29    5.20
  -3  -3   5   63.29    4.30
   3  -3  -5   58.59    4.80
   3  -3  -5   58.19    4.60
  -3  -3   5   59.89    3.50
   3  -3  -5   65.99    5.00
  -3  -3   5   61.99    4.60
   3  -3  -5   65.99    6.30
  -3  -3   5   54.29    3.90
   3  -3  -5   65.49    5.60
   3   3  -4  116.79    6.20
  -3   3   4  110.39    6.50
  -3   3   4  109.19    7.00
  -3   3   4  114.99    6.60
   3   3  -4  112.89    6.80
   3   3  -4  107.19    7.00
  -3  -3   4  110.19    6.70
   3  -3  -4  119.59    7.50
   3  -3  -4  110.19    6.90
  -3  -3   4  106.29    6.70
   3  -3  -4  108.09    7.00
   3  -3  -4  114.49    6.60
  -3  -3   4  109.19    6.10
   3  -3  -4  113.69    8.20
  -3   3   3   20.00    2.20
   3   3  -3   18.80    2.20
   3   3  -3   19.30    2.80
   3   3  -3   19.10    1.60
  -3   3   3   18.30    2.00
  -3  -3   3   15.20    1.60
   3  -3  -3   19.10    2.80
   3  -3  -3   18.80    3.50
   3  -3  -3   18.60    2.00
   3  -3  -3   18.60    2.70
   3  -3  -3   18.20    2.30
  -3  -3   3   21.20    2.30
  -3  -3   3   19.70    2.30
   3   3  -2   25.00    2.40
  -3   3   2   24.30    2.70
  -3   3   2   22.90    1.80
  -3  -3   2   21.00    2.00
   3  -3  -2   17.30    2.10
   3  -3  -2   20.50    2.10
   3  -3  -2   17.10    2.40
  -3  -3   2   19.70    2.70
  -3  -3   2   16.40    1.70
   3  -3  -2   18.80    2.10
  -3  -3   2   19.00    2.20
  -3   3   1  415.26   21.30
   3   3  -1  409.16   20.90
   3   3  -1  410.46   21.40
  -3   3   1  408.46   20.80
  -3  -3   1  413.36   20.90
  -3  -3   1  406.26   20.90
   3  -3  -1  416.46   21.10
  -3  -3   1  439.36   21.30
  -3  -3   1  377.26   21.60
   3  -3  -1  433.66   21.40
   3  -3  -1  408.56   21.00
   3   3   0  132.79    8.00
   3   3   0  130.59    7.20
  -3   3   0  123.79    6.60
   3   3   0  131.49    6.60
  -3   3   0  121.59    7.00
   3   3   0  113.09    7.50
  -3   3   0  123.69    7.40
  -3  -3   0  129.79    8.10
   3  -3   0  126.49    7.00
  -3  -3   0  130.89    7.10
  -3  -3   0  129.99    6.60
  -3  -3   0  137.99    7.40
   3  -3   0  128.89    7.40
   3   3   1  207.88   10.00
   3   3   1  198.68   10.40
  -3   3  -1  188.28   10.60
  -3   3  -1  200.88   10.10
   3   3   1  192.58   11.20
  -3   3  -1  194.18   10.00
  -3  -3  -1  197.48   11.30
  -3  -3  -1  192.58   10.00
   3  -3   1  190.98   10.10
  -3  -3  -1  189.18   10.50
  -3  -3  -1  177.88   10.30
   3  -3   1  175.88   10.40
  -3  -3  -1  189.18   10.00
   3   3   2    6.60    1.90
   3   3   2    7.80    1.40
  -3   3  -2    8.60    2.30
   3   3   2    7.90    2.80
  -3   3  -2    5.90    1.50
  -3   3  -2    5.50    1.50
  -3  -3  -2    5.30    1.50
  -3  -3  -2    3.80    2.10
  -3  -3  -2    5.90    2.00
  -3  -3  -2    5.30    2.90
   3  -3   2    5.20    1.40
   3  -3   2    5.10    1.30
   3  -3   2    4.50    2.00
  -3  -3  -2    4.20    1.50
   3  -3   2    6.50    2.50
   3   3   3   97.89    5.50
  -3   3  -3   86.69    5.30
  -3   3  -3   92.79    5.50
   3   3   3   85.49    5.80
   3   3   3   85.09    6.90
   3   3   3   88.79    5.50
   3  -3   3   86.69    5.50
  -3  -3  -3   89.19    5.60
   3  -3   3   83.59    5.20
  -3  -3  -3   82.29    5.40
  -3  -3  -3   82.19    6.10
   3  -3   3   79.59    6.50
   3  -3   3   92.29    5.40
  -3  -3  -3  108.79    7.40
  -3   3  -4    5.80    1.70
  -3   3  -4    3.50    1.90
   3   3   4    6.50    1.70
   3   3   4    4.40    2.20
  -3   3  -4    3.20    2.60
   3   3   4    4.20    2.50
   3   3   4    6.10    1.90
  -3  -3  -4    4.00    1.90
   3  -3   4    4.60    1.70
  -3  -3  -4    5.00    3.30
   3  -3   4    3.60    1.50
  -3  -3  -4    4.10    2.00
   3  -3   4    4.70    1.90
   3  -3   4    1.80    2.80
  -3  -3  -4    3.20    2.70
  -3   3  -5   -1.30    1.60
   3   3   5   -1.70    1.70
   3   3   5    1.60    1.90
   3   3   5    0.50    2.20
  -3   3  -5    2.80    2.10
  -3  -3  -5    1.30    3.30
   3  -3   5   -0.50    1.40
  -3  -3  -5   -2.50    1.80
  -3  -3  -5   -2.60    2.10
  -3  -3  -5   -1.10    2.70
   3  -3   5   -0.30    1.80
   3  -3   5    0.90    2.70
   3  -3   5   -0.40    1.60
  -3   3  -6    3.20    2.80
  -3   3  -6   -0.60    2.00
  -3   3  -6    1.50    2.00
  -3   3  -6    2.80    2.50
   3   3   6    4.70    2.10
  -3   3  -6    1.10    1.90
  -3  -3  -6   -0.80    2.20
   3  -3   6    1.50    1.50
   3  -3   6    0.40    1.60
   3  -3   6   -0.60    2.90
  -3  -3  -6    8.40    3.00
   3  -3   6   -0.90    1.90
  -3  -3  -6    2.10    2.10
   3   3   7   50.39    4.70
  -3   3  -7   54.69    4.70
  -3   3  -7   55.09    4.80
  -3   3  -7   48.80    5.40
  -3  -3  -7   56.39    5.80
   3  -3   7   46.00    4.40
   3  -3   7   55.49    5.00
  -3  -3  -7   71.09    7.20
  -3  -3  -7   53.79    5.10
   3  -3   7   49.20    5.90
  -3   3  -8   30.00    3.50
  -3   3  -8   30.00    4.30
  -3   3  -8   34.70    3.70
   3   3   8   34.40    3.90
  -3  -3  -8   31.70    4.40
   3  -3   8   28.80    3.70
  -3  -3  -8   38.40    5.80
  -3  -3  -8   28.70    3.80
   3  -3   8   20.20    4.30
  -3   3  -9  187.58   12.60
  -3   3  -9  217.58   12.00
   3   3   9  193.98   12.20
  -3   3  -9  204.68   12.10
  -3  -3  -9  213.38   12.90
  -3  -3  -9  221.98   14.20
  -3  -3  -9  205.78   12.30
   3  -3   9  203.98   12.30
  -3   3 -10   10.10    3.60
   3   3  10   11.10    3.20
  -3   3 -10    5.10    3.10
  -3   3 -10    6.30    3.20
  -3  -3 -10   17.10    3.80
  -3  -3 -10   16.90    5.50
   3  -3  10    7.60    3.10
  -3   3 -11   12.60    3.80
  -3   3 -11    9.60    3.40
  -3   3 -11   10.50    3.60
   3   3  11    9.40    3.30
   3  -3  11    3.20    3.00
  -3  -3 -11    6.20    6.10
  -3  -3 -11   12.10    4.90
  -3  -3 -11   11.90    3.90
  -3   3 -12   26.80    4.50
  -3   3 -12   33.90    4.50
   3   3  12   31.50    4.60
  -3  -3 -12   29.50    4.80
  -3  -3 -12   28.50    7.00
  -3  -3 -12   41.80    6.20
   3  -3  12   31.50    4.80
   3   3  13    1.90    3.20
  -3   3 -13    0.70    3.50
  -3   3 -13   -2.30    3.60
  -3  -3 -13   -1.30    5.40
  -3  -3 -13   -1.00    3.90
   3  -3  13    0.80    3.20
  -3   4  13    3.80    3.30
   3   4 -13    2.70    3.90
   3   4 -13    1.20    3.80
   3  -4 -13    5.60    5.80
   3  -4 -13   -2.50    4.30
   3  -4 -13    5.60    5.90
  -3  -4  13    4.60    3.90
   3   4 -12    2.40    3.90
  -3   4  12    0.60    3.00
   3   4 -12    3.80    3.40
  -3  -4  12    3.00    3.20
   3  -4 -12   -2.20    5.70
   3  -4 -12   -3.60    5.20
   3  -4 -12   -0.50    4.10
   3   4 -11  116.19    8.00
   3   4 -11  116.69    8.80
  -3   4  11  109.29    8.20
   3  -4 -11  108.09   10.90
   3  -4 -11   88.89    9.20
   3  -4 -11   89.49    8.40
  -3  -4  11  111.19    8.30
   3   4 -10   10.70    3.60
   3   4 -10    2.10    1.80
   3   4 -10   -0.10    2.70
  -3   4  10   -1.00    2.60
  -3  -4  10    2.20    2.90
   3  -4 -10   -0.50    3.50
   3  -4 -10   -4.50    4.60
   3  -4 -10   -0.60    4.30
   3   4  -9   35.80    3.20
   3   4  -9   33.70    4.60
  -3   4   9   31.00    4.00
   3   4  -9   32.40    3.60
   3  -4  -9   30.00    4.40
  -3  -4   9   34.20    4.20
   3  -4  -9   36.30    6.20
   3  -4  -9   26.70    5.20
   3   4  -8    0.10    3.00
  -3   4   8    0.10    2.20
   3   4  -8    0.00    2.10
   3  -4  -8   -1.00    2.70
   3  -4  -8    0.50    4.20
   3  -4  -8   -2.70    3.70
  -3  -4   8   -0.20    1.30
  -3  -4   8   -0.30    1.40
  -3  -4   8   -3.90    2.40
  -3  -4   8    0.80    2.30
  -3   4   7   39.60    4.10
   3   4  -7   31.90    3.00
   3   4  -7   44.90    5.00
  -3  -4   7   31.50    3.10
   3  -4  -7   27.90    3.70
  -3  -4   7   32.70    2.60
  -3  -4   7   37.50    3.80
   3  -4  -7   28.70    5.00
   3  -4  -7   35.10    4.60
  -3   4   6    4.70    1.90
   3   4  -6    4.80    2.70
   3   4  -6    1.00    2.00
   3   4  -6    2.20    1.60
  -3  -4   6    1.40    1.20
   3  -4  -6    2.50    2.40
   3  -4  -6    5.00    3.20
   3  -4  -6    4.40    3.80
  -3  -4   6    2.20    2.00
   3  -4  -6    0.30    2.00
   3   4  -5   50.59    4.10
   3   4  -5   50.79    3.40
   3   4  -5   46.50    4.90
  -3   4   5   47.10    3.90
   3  -4  -5   45.10    4.60
   3  -4  -5   46.20    4.50
   3  -4  -5   43.90    4.50
   3  -4  -5   50.29    5.70
  -3  -4   5   51.09    4.20
   3  -4  -5   48.70    4.00
  -3  -4   5   43.60    4.20
  -3  -4   5   48.30    3.20
   3   4  -4   69.29    5.50
   3   4  -4   65.59    4.60
   3   4  -4   65.09    3.90
  -3   4   4   70.99    4.70
  -3   4   4   66.29    4.40
   3  -4  -4   64.99    6.40
  -3  -4   4   59.29    4.80
   3  -4  -4   66.29    5.10
   3  -4  -4   71.69    4.50
   3  -4  -4   63.99    5.80
   3  -4  -4   65.29    5.30
  -3  -4   4   72.39    4.70
  -3  -4   4   67.49    3.80
   3   4  -3   64.19    4.40
  -3   4   3   68.89    4.10
   3   4  -3   65.29    5.50
  -3  -4   3   66.99    3.70
  -3  -4   3   64.39    4.80
   3  -4  -3   76.09    5.60
   3  -4  -3   67.39    4.60
   3  -4  -3   61.29    6.20
   3  -4  -3   67.19    5.20
  -3  -4   3   54.39    5.20
   3  -4  -3   61.89    4.10
   3  -4  -3   63.19    4.80
  -3  -4   3   67.99    4.30
   3   4  -2   13.70    2.90
   3   4  -2   11.90    1.70
  -3   4   2   11.80    2.60
  -3   4   2   10.30    1.30
  -3  -4   2   12.70    1.50
   3  -4  -2   10.10    2.00
  -3  -4   2   12.00    1.60
  -3  -4   2   12.40    2.90
   3  -4  -2   11.40    1.30
   3  -4  -2    8.20    2.60
   3  -4  -2    8.10    2.70
   3  -4  -2    8.90    1.80
  -3  -4   2    9.30    2.20
  -3   4   1  254.57   13.40
   3   4  -1  243.48   13.40
   3  -4  -1  224.18   13.20
   3  -4  -1  237.58   13.20
  -3  -4   1  253.77   12.60
  -3  -4   1  238.78   12.50
   3  -4  -1  225.78   12.60
  -3  -4   1  244.78   13.70
   3  -4  -1  245.58   12.70
  -3  -4   1  247.08   13.20
  -3   4   0   10.30    1.60
   3   4   0    9.90    2.90
   3   4   0    9.40    2.00
  -3  -4   0   11.20    1.30
  -3  -4   0   10.40    3.00
  -3  -4   0   10.20    2.00
  -3  -4   0    9.20    1.00
   3  -4   0    8.10    2.30
  -3  -4   0    8.00    2.40
   3  -4   0    9.30    1.60
   3   4   1  166.08    9.00
  -3   4  -1  166.48    8.10
   3   4   1  155.58    8.30
  -3   4  -1  158.98    8.50
  -3   4  -1  165.68    9.40
  -3  -4  -1  149.88    8.30
  -3  -4  -1  145.69    9.10
  -3  -4  -1  151.28    8.30
  -3  -4  -1  155.38    8.90
  -3  -4  -1  163.88   10.20
   3  -4   1  150.58    9.10
   3  -4   1  146.09    8.40
  -3   4  -2   22.20    2.10
   3   4   2   19.10    2.00
   3   4   2   23.20    2.90
   3   4   2   20.40    3.70
  -3   4  -2   23.30    2.40
  -3   4  -2   22.90    3.20
  -3  -4  -2   17.60    2.10
  -3  -4  -2   20.30    2.00
   3  -4   2   22.40    2.30
  -3  -4  -2   21.50    4.20
   3  -4   2   21.10    1.90
   3  -4   2   17.70    3.50
   3  -4   2   19.50    2.80
  -3  -4  -2   21.60    3.10
  -3  -4  -2   24.50    3.00
  -3   4  -3   24.10    2.30
  -3   4  -3   18.90    3.10
  -3   4  -3   18.60    2.10
   3   4   3   19.00    2.80
   3   4   3   21.40    2.20
   3   4   3   19.30    2.20
   3   4   3   14.70    3.70
  -3  -4  -3   16.00    2.10
  -3  -4  -3   13.40    3.00
   3  -4   3   19.10    3.30
   3  -4   3   17.70    2.40
  -3  -4  -3   16.80    3.60
   3  -4   3   21.70    3.50
  -3  -4  -3   14.60    2.20
   3  -4   3   16.90    1.90
  -3  -4  -3   19.80    3.10
   3  -4   3   21.50    2.10
  -3   4  -4   14.90    3.10
  -3   4  -4   17.20    2.30
   3   4   4   14.60    2.20
   3   4   4   18.10    2.20
  -3   4  -4   12.60    2.10
   3  -4   4   14.90    2.20
   3  -4   4   11.00    1.80
  -3  -4  -4   17.00    2.40
  -3  -4  -4   15.00    4.00
  -3  -4  -4   15.80    3.20
   3  -4   4   14.90    2.10
   3  -4   4   16.60    3.30
  -3  -4  -4   14.80    2.20
   3   4   5  205.08   11.40
  -3   4  -5  203.88   12.10
  -3   4  -5  213.08   11.30
   3   4   5  190.18   11.30
  -3   4  -5  201.18   11.40
   3  -4   5  190.48   11.20
  -3  -4  -5  221.88   11.40
  -3  -4  -5  224.68   11.50
   3  -4   5  202.08   11.10
   3  -4   5  207.88   11.40
   3  -4   5  212.08   12.50
   3   4   6    7.80    2.30
  -3   4  -6    6.90    3.00
  -3   4  -6    8.70    2.10
  -3   4  -6    9.80    2.40
  -3  -4  -6    6.10    2.50
  -3  -4  -6    8.30    2.40
  -3  -4  -6   10.60    3.50
   3  -4   6    4.80    2.20
   3  -4   6    5.10    2.00
   3  -4   6   10.70    3.20
   3  -4   6    6.60    1.80
  -3  -4  -6   16.80    4.50
   3   4   7  102.49    7.00
  -3   4  -7  102.09    6.70
  -3   4  -7  108.79    8.00
   3  -4   7  110.79    7.10
   3  -4   7   90.39    6.60
  -3  -4  -7   99.39    7.20
  -3  -4  -7  110.99    8.90
  -3  -4  -7  109.39    8.10
  -3   4  -8   77.59    7.20
  -3   4  -8   80.49    6.10
   3   4   8   84.79    6.40
  -3  -4  -8   83.19    9.20
  -3  -4  -8   78.99    6.90
  -3  -4  -8   74.69    7.00
   3  -4   8   86.59    6.40
  -3   4  -9   -2.20    2.60
   3   4   9   -0.20    2.60
  -3   4  -9    1.40    3.40
  -3  -4  -9    0.70    3.20
  -3  -4  -9   10.80    5.30
   3  -4   9    0.40    2.70
  -3  -4  -9    9.40    4.40
  -3   4 -10    3.70    2.90
  -3   4 -10    0.30    2.90
   3   4  10    3.10    3.00
  -3   4 -10    5.40    3.80
  -3  -4 -10   -2.90    4.60
   3  -4  10    0.40    2.90
  -3  -4 -10    7.50    3.60
  -3  -4 -10    4.60    5.50
  -3   4 -11   13.00    4.40
  -3   4 -11    6.80    3.40
   3   4  11    6.20    3.40
  -3   4 -11   12.10    2.90
   3  -4  11    7.80    3.40
  -3  -4 -11    8.10    3.90
  -3  -4 -11    7.00    6.10
  -3  -4 -11    8.10    5.20
  -3   4 -12   32.40    5.60
  -3   4 -12   24.50    4.40
   3   4  12   35.20    5.00
  -3  -4 -12   23.20    6.10
  -3  -4 -12   28.30    7.40
   3  -4  12   27.20    4.90
  -3  -4 -12   21.50    4.80
  -3   4 -13   27.60    4.70
  -3   4 -13   32.60    5.70
   3   4  13   33.60    5.10
  -3  -4 -13   24.30    5.00
   3  -4  13   29.50    5.00
  -3  -4 -13   21.40    8.10
  -3  -4 -13   25.70    6.40
  -3   5  12   27.70    4.70
   3   5 -12   21.10    4.00
   3   5 -12   43.20    5.70
   3  -5 -12   27.70    7.60
  -3  -5  12   35.00    5.00
   3  -5 -12   22.50    5.20
   3  -5 -12   21.90    6.20
   3   5 -11   27.50    4.90
   3   5 -11    9.40    3.00
  -3   5  11    7.90    3.30
   3  -5 -11    6.00    5.20
   3  -5 -11   15.40    4.30
  -3  -5  11   11.00    3.70
   3  -5 -11   10.90    6.00
   3   5 -10  187.08   11.00
  -3   5  10  196.18   11.50
   3   5 -10  179.88   12.30
   3  -5 -10  192.18   12.00
   3  -5 -10  175.78   13.90
  -3  -5  10  194.98   11.90
   3  -5 -10  181.88   12.90
   3   5  -9  186.88   13.00
   3   5  -9  203.28   11.70
  -3   5   9  219.68   12.20
   3  -5  -9  211.78   13.60
   3  -5  -9  224.18   14.80
  -3  -5   9  206.58   12.50
   3  -5  -9  201.18   12.60
   3   5  -8    0.70    3.30
   3   5  -8   -0.40    2.10
  -3   5   8    0.60    2.30
   3  -5  -8   -6.00    3.80
  -3  -5   8   -0.70    0.60
  -3  -5   8   -0.60    2.50
   3  -5  -8   -2.40    3.00
   3  -5  -8   -2.30    4.90
   3   5  -7  252.37   14.70
  -3   5   7  254.67   13.80
   3   5  -7  254.97   13.40
  -3  -5   7  240.58   14.10
   3  -5  -7  264.57   15.10
   3  -5  -7  265.97   16.30
   3  -5  -7  253.67   14.20
  -3  -5   7  237.28   13.30
  -3  -5   7  245.18   14.10
   3   5  -6  111.49    8.10
   3   5  -6  112.79    6.40
  -3   5   6  119.69    7.00
   3   5  -6   88.19    6.90
   3  -5  -6  125.99    9.90
  -3  -5   6  112.39    6.30
  -3  -5   6  120.39    7.30
   3  -5  -6  121.19    8.70
   3  -5  -6  113.79    7.50
  -3  -5   6  113.09    7.40
   3  -5  -6  115.99    7.10
  -3   5   5    0.20    1.50
   3   5  -5    1.30    1.10
   3   5  -5   -0.20    1.80
   3   5  -5    0.70    2.80
   3  -5  -5   -4.10    3.00
   3  -5  -5    0.40    2.10
  -3  -5   5    2.30    1.00
  -3  -5   5    5.90    1.80
  -3  -5   5    5.50    2.30
   3  -5  -5    0.70    1.60
   3  -5  -5   -1.20    3.90
   3   5  -4    8.20    1.00
   3   5  -4    6.90    1.90
  -3   5   4    7.60    1.60
  -3   5   4    2.70    1.70
   3   5  -4    4.50    2.90
   3  -5  -4    6.30    4.10
   3  -5  -4    5.90    1.50
  -3  -5   4    6.10    0.90
   3  -5  -4    4.80    2.10
  -3  -5   4    7.90    1.20
   3  -5  -4    6.10    3.00
  -3  -5   4   10.10    1.90
  -3  -5   4    7.00    1.10
   3  -5  -4    5.00    1.90
   3   5  -3    0.40    2.70
  -3   5   3    3.30    1.20
   3   5  -3    1.20    1.50
  -3  -5   3    3.70    1.40
  -3  -5   3    3.20    1.20
   3  -5  -3   -1.90    1.40
   3  -5  -3    1.40    3.90
  -3  -5   3    5.90    2.60
   3  -5  -3    1.10    1.70
   3  -5  -3    2.70    1.20
   3   5  -2  198.18   11.80
  -3   5   2  200.08   11.60
  -3  -5   2  202.78   10.70
   3  -5  -2  189.98   10.80
  -3  -5   2  206.08   12.10
   3  -5  -2  207.58   10.90
  -3  -5   2  204.18   10.60
   3  -5  -2  200.68   11.50
  -3   5   1   82.79    6.00
   3   5  -1   86.79    6.20
  -3  -5   1   91.59    5.10
  -3  -5   1   75.19    4.40
   3  -5  -1   59.99    4.80
  -3  -5   1   94.39    6.80
   3  -5  -1   65.29    5.00
   3  -5  -1   66.79    5.90
  -3   5   0  578.94   30.60
   3   5   0  609.44   30.60
  -3  -5   0  586.04   29.50
  -3  -5   0  586.94   29.70
  -3  -5   0  582.74   29.60
   3  -5   0  558.44   29.80
  -3  -5   0  605.34   30.10
  -3  -5   0  570.54   29.50
  -3  -5   0  596.24   31.30
   3  -5   0  608.34   29.90
  -3   5  -1  431.26   22.50
   3   5   1  434.06   22.10
  -3   5  -1  417.36   21.70
   3   5   1  383.46   21.50
   3  -5   1  406.06   21.70
  -3  -5  -1  425.96   23.20
  -3  -5  -1  431.46   21.50
  -3  -5  -1  452.35   22.10
  -3  -5  -1  434.26   21.50
   3   5   2   -1.70    1.80
  -3   5  -2    4.90    2.60
  -3   5  -2    5.70    1.20
   3   5   2    0.80    1.30
  -3   5  -2    1.10    1.50
  -3  -5  -2    1.10    1.30
  -3  -5  -2    0.90    3.60
  -3  -5  -2   -1.60    2.30
   3  -5   2    0.00    1.10
  -3  -5  -2   -0.90    1.30
  -3   5  -3   64.59    4.30
   3   5   3   64.09    4.40
  -3   5  -3   61.99    4.20
  -3   5  -3   53.59    5.40
  -3  -5  -3   62.09    7.10
  -3  -5  -3   60.99    4.40
  -3  -5  -3   62.09    4.20
  -3  -5  -3   65.69    5.70
   3  -5   3   67.79    4.10
   3  -5   3   60.89    4.10
  -3   5  -4   -0.70    1.60
   3   5   4   -1.10    1.60
  -3   5  -4    2.20    2.80
  -3   5  -4    3.70    1.80
   3   5   4    1.90    1.80
   3  -5   4    0.20    1.80
  -3  -5  -4    2.50    1.90
  -3  -5  -4    1.00    1.60
   3  -5   4    0.20    1.60
  -3  -5  -4    4.60    3.50
  -3  -5  -4    3.50    2.90
   3  -5   4   -0.20    1.30
   3   5   5  142.99    8.60
  -3   5  -5  158.68    9.80
  -3   5  -5  157.68    8.50
  -3   5  -5  158.78    8.60
  -3  -5  -5  139.19    8.50
   3  -5   5  148.79    8.60
   3  -5   5  140.59    8.20
   3  -5   5  140.89    8.50
  -3  -5  -5  134.79    8.70
  -3  -5  -5  140.39    9.60
  -3  -5  -5  156.68   11.20
  -3   5  -6   15.30    2.80
  -3   5  -6   21.10    3.90
   3   5   6   16.50    2.70
  -3   5  -6   14.60    2.50
  -3  -5  -6   34.40    5.40
  -3  -5  -6   21.50    3.00
   3  -5   6   18.60    2.80
  -3  -5  -6   20.60    3.10
   3  -5   6   18.10    2.40
  -3  -5  -6   34.00    4.40
  -3   5  -7   32.50    3.30
  -3   5  -7   35.20    4.80
   3   5   7   29.10    3.50
  -3  -5  -7   30.10    3.80
   3  -5   7   24.90    3.00
  -3  -5  -7   44.10    6.80
   3  -5   7   29.70    3.70
  -3  -5  -7   31.20    4.80
  -3   5  -8   17.00    4.30
  -3   5  -8   13.30    2.80
   3   5   8   12.00    3.00
  -3  -5  -8   14.50    4.50
  -3  -5  -8   16.90    3.50
  -3  -5  -8   11.50    5.60
   3  -5   8   13.00    3.10
  -3   5  -9    0.20    3.70
   3   5   9    2.30    2.70
  -3   5  -9   -0.80    2.60
  -3  -5  -9   -0.90    4.50
  -3  -5  -9    0.40    5.70
  -3  -5  -9   -6.40    3.20
   3  -5   9    0.80    2.70
  -3   5 -10    3.00    2.80
  -3   5 -10   10.00    4.20
   3   5  10    0.20    2.80
  -3  -5 -10   20.50    5.40
  -3  -5 -10    7.60    3.70
   3  -5  10    0.30    2.70
  -3  -5 -10   22.90    6.70
  -3   5 -11    5.60    3.30
  -3   5 -11    9.20    4.50
   3   5  11    6.00    3.40
  -3  -5 -11   23.20    7.30
  -3  -5 -11   15.60    4.20
  -3  -5 -11   19.10    5.70
   3  -5  11    3.10    3.30
   3   5  12   -1.60    3.40
  -3   5 -12    6.50    4.30
  -3   5 -12    0.90    3.40
  -3  -5 -12   -1.60    6.60
   3  -5  12   -2.50    3.40
  -3  -5 -12   -7.60    3.70
  -3  -5 -12    0.60    5.40
   3   6 -12    3.60    4.30
  -3   6  12    2.30    3.30
   3  -6 -12    2.70    4.10
   3  -6 -12    0.80    6.00
   3  -6 -12    9.50    6.70
  -3  -6  12   -2.40    3.70
  -3   6  11   11.30    3.50
   3   6 -11   17.50    5.00
   3  -6 -11    8.10    6.00
  -3  -6  11   11.90    3.80
   3  -6 -11   12.10    4.40
   3  -6 -11   14.40    6.50
  -3   6  10   31.40    4.30
   3   6 -10   35.70    5.40
   3  -6 -10   30.80    7.10
  -3  -6  10   31.80    4.50
   3  -6 -10   30.50    6.30
   3  -6 -10   26.40    4.80
   3   6  -9   14.20    4.60
  -3   6   9   20.50    3.20
   3  -6  -9   22.90    6.30
   3  -6  -9   13.70    3.90
   3  -6  -9   18.60    5.40
  -3  -6   9   15.60    3.40
   3   6  -8  251.97   16.90
  -3   6   8  333.07   16.10
   3   6  -8  256.57   15.30
  -3  -6   8  274.47   16.20
   3  -6  -8  294.57   16.40
   3  -6  -8  345.37   17.70
  -3   6   7   11.30    2.40
   3   6  -7    9.70    3.70
   3   6  -7    2.60    1.60
  -3  -6   7    5.30    2.50
   3  -6  -7    8.00    4.50
   3  -6  -7    6.00    5.40
   3  -6  -7    0.30    2.90
   3   6  -6   96.69    8.20
   3   6  -6   99.89    5.90
  -3   6   6  102.99    6.40
  -3  -6   6  111.89    6.90
   3  -6  -6  110.29   10.30
   3  -6  -6  111.59    7.50
   3  -6  -6  107.09    8.50
   3  -6  -6   93.39    6.50
  -3   6   5   10.60    1.80
   3   6  -5   -0.60    2.00
   3   6  -5    0.40    1.00
   3   6  -5    6.60    3.60
   3  -6  -5    7.00    4.20
  -3  -6   5    5.20    1.90
  -3  -6   5    2.40    0.80
   3  -6  -5    3.60    3.70
   3  -6  -5    4.30    1.70
   3  -6  -5    1.70    2.40
  -3  -6   5   -1.00    3.00
   3   6  -4  336.47   18.60
   3   6  -4  344.37   19.70
  -3   6   4  388.26   18.40
  -3  -6   4  370.26   18.30
  -3  -6   4  329.87   18.20
   3  -6  -4  422.46   19.90
   3  -6  -4  331.07   18.40
  -3  -6   4  362.16   18.60
  -3  -6   4  344.07   20.00
   3  -6  -4  358.66   19.00
   3   6  -3   25.50    4.10
  -3  -6   3   26.80    4.20
   3  -6  -3   26.10    3.90
   3  -6  -3   13.50    2.40
  -3  -6   3   24.20    2.60
  -3  -6   3   25.40    2.30
   3  -6  -3   23.90    5.20
   3  -6  -3   24.40    2.70
   3   6  -2    5.80    3.20
  -3   6   2    8.40    3.40
   3  -6  -2    3.30    1.90
   3  -6  -2    5.30    3.00
   3  -6  -2    3.70    4.00
   3  -6  -2    1.90    1.50
   3   6  -1  392.46   22.30
  -3   6   1  429.16   22.40
   3  -6  -1  402.86   21.40
   3  -6  -1  421.76   22.10
   3  -6  -1  430.16   21.50
  -3  -6   1  428.66   21.60
  -3  -6   1  401.46   21.10
  -3  -6   1  423.26   23.10
   3   6   0    9.90    3.40
  -3   6   0   14.00    3.50
  -3  -6   0    5.40    1.10
  -3  -6   0    8.70    1.10
   3  -6   0    8.10    1.70
   3  -6   0   11.20    2.70
  -3  -6   0   10.00    2.40
   3  -6   0    9.10    1.60
  -3  -6   0    7.30    3.70
  -3   6  -1    6.20    1.70
  -3   6  -1    6.50    3.10
   3  -6   1    7.30    1.50
  -3  -6  -1   14.70    4.20
  -3  -6  -1    6.40    1.20
  -3  -6  -1   11.10    2.60
  -3  -6  -1    7.90    1.40
  -3  -6  -1    8.30    1.20
  -3  -6  -1   11.30    1.30
   3   6   2   11.30    1.70
  -3   6  -2   10.70    3.40
  -3   6  -2   12.60    1.90
  -3  -6  -2   15.80    1.70
   3  -6   2   10.90    1.70
  -3  -6  -2   17.50    3.10
  -3  -6  -2   13.20    1.80
  -3  -6  -2   20.00    4.70
  -3   6  -3   10.50    3.50
  -3   6  -3   10.70    1.90
  -3   6  -3    9.00    1.60
   3   6   3    6.60    1.80
   3  -6   3   10.80    1.50
   3  -6   3    7.70    1.60
  -3  -6  -3    5.70    1.90
  -3  -6  -3    8.00    4.00
  -3  -6  -3    6.60    1.60
  -3  -6  -3   11.00    3.30
  -3   6  -4    0.80    1.70
  -3   6  -4    3.00    3.20
   3   6   4    1.00    1.90
  -3   6  -4   -2.40    1.60
   3  -6   4   -4.60    2.10
  -3  -6  -4    1.50    1.60
  -3  -6  -4    1.40    4.20
  -3  -6  -4   -0.90    1.90
   3  -6   4    0.50    1.60
   3  -6   4   -0.30    1.30
  -3  -6  -4   -1.90    3.10
  -3   6  -5   18.20    2.60
  -3   6  -5   35.40    4.70
  -3   6  -5   29.50    3.10
  -3  -6  -5   45.20    4.90
  -3  -6  -5   29.80    3.00
  -3  -6  -5   25.30    3.10
  -3   6  -6    0.50    3.60
  -3   6  -6    1.10    2.00
  -3   6  -6    3.20    1.90
   3   6   6    0.20    2.10
   3  -6   6    0.00    0.60
  -3  -6  -6   -3.30    2.40
  -3  -6  -6   -0.70    0.80
  -3  -6  -6    0.00    3.70
  -3  -6  -6    4.90    5.10
   3  -6   6   -0.50    2.10
  -3   6  -7    7.50    2.40
   3   6   7   -2.00    2.20
  -3   6  -7    4.00    3.60
   3  -6   7   -4.50    2.20
  -3  -6  -7    7.60    5.50
  -3  -6  -7    4.10    4.50
  -3  -6  -7    1.90    2.90
  -3   6  -8    5.00    4.10
  -3   6  -8    1.10    2.50
   3   6   8    2.90    2.60
  -3  -6  -8   27.30    7.00
  -3  -6  -8   20.60    5.10
   3  -6   8    2.20    2.70
  -3  -6  -8   11.50    3.50
   3   6   9    2.90    2.70
  -3   6  -9    4.60    2.80
  -3   6  -9   19.70    4.70
  -3  -6  -9    5.40    6.30
  -3  -6  -9   -3.00    3.20
   3  -6   9    0.50    2.70
  -3  -6  -9    7.70    5.00
  -3   6 -10   28.10    5.10
   3   6  10   12.60    3.50
  -3   6 -10   15.40    3.50
  -3  -6 -10   14.00    4.20
  -3  -6 -10   30.80    7.50
   3  -6  10   15.60    3.60
  -3  -6 -10   21.50    6.00
  -3   6 -11   25.80    4.10
  -3   6 -11   43.30    6.00
   3   6  11   30.20    4.80
   3  -6  11   39.30    5.10
  -3  -6 -11   42.20    7.00
  -3  -6 -11   39.80    5.10
  -3  -6 -11   35.60    8.10
   3   7 -11    2.20    4.30
   3   7 -10   31.70    5.60
  -3  -7  10   25.60    4.80
   3  -7 -10   19.70    6.40
   3  -7 -10   20.30    7.00
   3  -7 -10   22.20    4.90
   3   7  -9   -4.40    3.80
  -3  -7   9   -1.80    2.80
   3  -7  -9    3.10    5.30
   3  -7  -9    3.90    3.50
   3  -7  -9   -1.00    6.00
   3   7  -8   58.49    6.50
   3  -7  -8   57.99    8.60
   3  -7  -8   56.39    7.10
  -3  -7   8   59.09    5.50
   3  -7  -8   48.10    5.30
   3   7  -7   76.59    8.20
   3  -7  -7  104.09   10.90
   3  -7  -7   94.39    9.00
  -3  -7   7   84.79    7.70
  -3  -7   7   83.49    6.30
   3  -7  -7   81.49    6.80
   3   7  -6  348.27   22.20
  -3  -7   6  403.36   22.40
   3  -7  -6  415.66   24.10
   3  -7  -6  397.36   21.30
   3  -7  -6  427.96   22.40
  -3  -7   6  386.06   20.90
   3   7  -5   22.90    4.60
  -3   7   5    9.60    1.50
   3  -7  -5   13.90    3.00
   3  -7  -5   16.70    4.50
   3  -7  -5   13.00    5.70
   3   7  -4    0.10    3.80
   3  -7  -4   -1.40    2.20
   3  -7  -4    1.60    3.60
   3  -7  -4   -0.80    4.50
  -3  -7   4   -0.70    3.30
  -3  -7   4    6.10    1.60
  -3  -7   4   -0.40    1.60
   3   7  -3  114.09    9.10
  -3  -7   3  118.79    7.00
  -3  -7   3  116.09    6.60
   3  -7  -3  111.99    7.30
  -3  -7   3  125.49    9.40
   3  -7  -3  118.59    9.00
   3  -7  -3  115.09   10.80
  -3   7   2  189.08   12.10
   3   7  -2  200.58   12.40
  -3  -7   2  187.88   10.00
  -3  -7   2  199.58   12.70
   3  -7  -2  207.38   14.00
   3  -7  -2  202.28   10.70
   3  -7  -2  199.38   12.00
   3  -7  -2  162.68   10.40
  -3  -7   2  189.78   10.60
   3   7  -1    6.60    3.60
  -3   7   1    6.80    3.70
   3  -7  -1    2.40    3.10
   3  -7  -1    1.70    1.80
   3  -7  -1    2.20    1.70
  -3  -7   1   15.70    4.20
  -3  -7   1    9.20    2.40
  -3   7   0   27.00    4.50
   3  -7   0   25.70    3.80
   3  -7   0   20.80    2.50
   3  -7   0   22.90    2.40
  -3   7  -1   91.39    7.80
  -3  -7  -1  115.59    7.10
  -3  -7  -1  106.09    5.40
   3  -7   1   91.69    7.00
  -3  -7  -1   97.89    8.60
   3  -7   1   94.89    5.80
   3  -7   1   91.49    5.70
  -3  -7  -1   80.49    5.20
   3  -7   2    5.00    1.50
  -3  -7  -2    6.30    4.80
  -3  -7  -2    1.70    1.20
  -3  -7  -2    2.90    1.60
  -3  -7  -2    3.20    3.20
   3   7   3   -1.50    1.50
  -3   7  -3    1.60    1.60
  -3   7  -3    7.90    3.80
  -3  -7  -3   16.50    5.30
  -3  -7  -3   11.60    3.70
  -3  -7  -3    5.10    1.90
  -3   7  -4    1.30    1.80
  -3   7  -4    5.10    3.80
   3   7   4    0.60    0.90
   3  -7   4    2.80    1.50
  -3  -7  -4   -1.10    3.50
  -3  -7  -4   -1.00    5.00
  -3  -7  -4    0.00    2.00
  -3   7  -5   11.50    4.10
  -3   7  -5    9.90    2.20
  -3  -7  -5   11.20    5.60
  -3  -7  -5    7.70    2.60
  -3  -7  -5   13.80    4.30
   3  -7   5   11.30    2.20
  -3   7  -6   -0.40    3.70
  -3   7  -6    1.10    2.00
   3  -7   6    1.90    2.10
  -3  -7  -6   19.20    6.20
  -3  -7  -6    7.70    4.40
  -3  -7  -6    5.30    2.70
  -3   7  -7   21.50    5.10
  -3   7  -7    9.90    2.50
  -3  -7  -7   21.90    5.10
  -3  -7  -7   31.30    7.10
   3  -7   7   10.00    2.80
  -3  -7  -7   16.50    3.40
   3   7   8    5.80    2.50
  -3   7  -8    9.70    4.70
  -3   7  -8    0.10    1.20
  -3  -7  -8    4.80    4.90
   3  -7   8    4.80    2.60
  -3  -7  -8    5.50    6.30
  -3  -7  -8   10.00    3.40
  -3   7  -9   26.30    5.70
  -3  -7  -9   27.00    4.20
  -3  -7  -9   43.70    6.50
  -3  -7  -9   34.30    7.90
  -3   7 -10    4.70    4.70
  -3  -7 -10   -0.80    6.40
   3  -7  10   -1.00    1.20
  -3  -7 -10    1.30    3.60
  -3  -7 -10   -3.00    5.30
   3   8  -9   18.60    5.30
   3  -8  -9   -5.00    6.30
   3  -8  -9    1.30    3.80
   3  -8  -9   -2.70    5.90
   3   8  -8    7.70    4.80
   3  -8  -8    0.30    5.50
   3  -8  -8    5.70    3.70
   3  -8  -8    5.10    6.70
   3  -8  -7   -4.50    5.10
  -3  -8   7    0.30    1.50
   3  -8  -7   -1.80    5.10
   3  -8  -7    1.80    3.00
   3   8  -6   38.50    6.00
   3  -8  -6   33.20    4.30
  -3  -8   6   37.00    5.70
   3  -8  -6   38.00    6.20
   3  -8  -6   42.80    8.20
   3   8  -5   12.80    4.60
   3  -8  -5    5.90    2.80
   3  -8  -5    6.30    4.50
  -3  -8   5   18.70    4.50
   3  -8  -5    9.10    6.00
   3   8  -4   11.70    4.60
   3  -8  -4    3.80    5.70
  -3  -8   4   19.50    4.60
   3  -8  -4    4.20    2.50
   3  -8  -4    4.90    4.30
   3   8  -3    9.00    4.60
  -3  -8   3   11.80    4.20
   3  -8  -3    5.10    3.80
   3  -8  -3    5.00    2.30
   3  -8  -3    7.20    5.60
   3   8  -2    8.40    4.60
  -3   8   2    7.00    4.20
   3  -8  -2    6.60    5.60
   3  -8  -2    5.60    2.10
   3  -8  -2    5.70    3.80
  -3  -8   2    7.50    4.10
  -3  -8   2    8.30    2.40
  -3   8   1   61.19    7.60
   3   8  -1   65.29    7.70
  -3  -8   1   60.89    8.00
   3  -8  -1   77.39    9.60
   3  -8  -1   69.69    4.90
   3  -8  -1   68.19    6.80
  -3  -8   1   73.79    5.80
   3   8   0   32.60    5.60
  -3   8   0   46.20    5.70
  -3  -8   0   42.80    6.60
  -3  -8   0   35.40    4.30
   3  -8   0   35.80    3.60
   3  -8   0   35.60    4.70
  -3   8  -1   74.79    8.20
  -3  -8  -1   92.89    7.30
  -3  -8  -1  101.89    9.70
   3  -8   1   82.29    7.30
  -3   8  -2    4.90    3.90
  -3  -8  -2    7.30    5.50
  -3  -8  -2    1.80    3.50
   3  -8   2   -0.70    3.10
  -3   8  -3    0.80    4.00
  -3  -8  -3    2.30    3.90
   3  -8   3    1.70    3.00
  -3  -8  -3    1.10    4.80
  -3  -8  -3   -0.50    0.70
  -3   8  -4   46.90    6.10
  -3  -8  -4   29.30    5.30
  -3  -8  -4   32.40    7.20
  -3   8  -5   -2.60    4.00
  -3  -8  -5   10.50    6.10
  -3  -8  -5    1.10    2.20
  -3  -8  -5    2.90    4.40
  -3   8  -6    1.90    4.10
  -3  -8  -6    1.70    2.80
  -3  -8  -6    8.90    6.30
  -3  -8  -6    4.40    4.90
  -3   8  -7    5.90    4.60
  -3  -8  -7    4.00    3.00
  -3  -8  -7    0.50    5.10
  -3  -8  -7    4.50    6.40
  -3   8  -8    2.20    4.50
  -3  -8  -8    0.80    5.70
  -3  -8  -8   -0.30    3.20
  -3  -8  -8   -4.80    5.60
  -3   8  -9   98.69    9.90
  -3  -8  -9  107.19   12.10
  -3  -8  -9  111.29    8.40
  -3  -8  -9  100.59   12.40
   3   9  -7    3.70    5.20
   3  -9  -7   -3.30    5.70
   3  -9  -7    1.50    5.80
   3  -9  -7   -2.00    1.60
   3   9  -6   10.70    5.20
   3  -9  -6   17.20    5.80
   3  -9  -6   18.80    7.60
   3   9  -5   34.30    6.50
   3  -9  -5   35.90    6.40
  -3  -9   5   45.10    6.50
   3  -9  -5   38.90    8.40
   3   9  -4    2.40    4.90
   3  -9  -4    5.60    4.80
   3  -9  -4   -0.30    1.40
   3  -9  -4   -0.40    6.20
  -3  -9   4    4.50    4.40
   3   9  -3    0.30    4.80
   3  -9  -3    3.70    4.40
  -3  -9   3    1.70    4.30
   3  -9  -3    4.90    5.50
  -3   9   2   63.69    7.20
   3   9  -2   58.59    7.30
   3  -9  -2   55.89    6.50
   3  -9  -2   66.79   10.00
  -3  -9   2   50.49    7.70
  -3   9   1   44.60    6.40
   3   9  -1   50.79    6.90
  -3  -9   1   47.60    7.10
   3  -9  -1   52.09    6.00
   3  -9  -1   57.69    8.70
  -3   9   0   29.90    5.90
  -3  -9   0   36.50    4.60
   3  -9   0   38.80    7.00
  -3  -9   0   37.80    6.70
   3  -9   0   37.90    5.20
  -3   9  -1    1.90    4.50
  -3  -9  -1   11.90    3.90
  -3  -9  -1   17.00    5.90
   3  -9   1    0.00    3.70
   3  -9   1    7.10    5.70
  -3   9  -2   15.60    5.00
   3  -9   2    6.80    3.70
  -3  -9  -2   12.10    6.20
  -3  -9  -2   13.30    4.40
  -3   9  -3    8.90    4.70
  -3  -9  -3    8.70    4.60
  -3  -9  -3    7.70    5.50
  -3   9  -4   24.30    5.50
  -3  -9  -4   -0.80    4.80
  -3  -9  -4   10.70    6.50
  -3   9  -5   17.30    5.50
  -3  -9  -5   18.80    5.40
  -3  -9  -5   23.20    7.30
  -3  -9  -6  123.89   11.20
  -3  -9  -6  149.88   14.10
  -3   9  -7   24.90    5.90
  -3  -9  -7   35.70    7.00
  -3  -9  -7   26.70    7.10
   3  10  -4    2.00    5.30
   3 -10  -4    3.60    7.10
   3 -10  -4   -0.70    5.60
  -3 -10   4   -6.60    4.30
   3  10  -3    6.60    5.70
   3 -10  -3   -4.80    6.10
  -3 -10   3   10.10    5.00
   3 -10  -3    0.60    5.30
   3  10  -2   15.90    6.40
   3 -10  -2   31.50    5.80
   3 -10  -2   32.00    8.20
  -3 -10   2   26.90    6.40
   3  10  -1    0.40    5.30
   3 -10  -1   10.70    5.00
  -3 -10   1    8.10    5.40
   3 -10  -1   25.10    7.20
  -3  10   0    5.10    5.60
   3 -10   0    9.80    4.70
  -3 -10   0   14.90    6.10
   3 -10   0   17.20    6.90
  -3  10  -1   12.90    5.60
   3 -10   1    7.30    6.20
   3 -10   1   -2.30    1.60
  -3 -10  -1    1.70    5.60
  -3  10  -2    5.10    5.00
  -3 -10  -2    9.00    5.90
   3 -10   2    4.40    6.10
  -3  10  -3   62.99    8.10
   3 -10   3   76.39    9.80
  -3 -10  -3   98.99   10.50
  -3  10  -4   14.50    5.50
  -3 -10  -4   16.10    6.20
  -3 -10  -4   20.10    7.30
   4   0 -14    0.70    3.90
   4   0 -14   -5.80    3.60
  -4   0  14    2.30    2.90
   4   0 -13   -3.70    3.80
   4   0 -13   -3.30    4.10
  -4   0  13   -2.00    3.20
   4   0 -12    0.70    3.90
   4   0 -12    0.80    3.70
  -4   0  12    5.50    2.90
   4   0 -11   -0.50    3.20
   4   0 -11    1.50    2.90
  -4   0  11   -0.30    2.50
   4   0 -11    2.80    3.50
   4   0 -10  188.08   11.70
  -4   0  10  188.48   11.20
  -4   0  10  176.58   11.60
   4   0 -10  210.28   11.60
   4   0 -10  202.78   11.80
  -4   0   9   -2.80    2.10
   4   0  -9   -1.50    2.80
   4   0  -9   -2.60    2.40
   4   0  -9   -3.60    2.70
  -4   0   9    0.30    1.60
  -4   0   8  527.05   27.00
   4   0  -8  584.44   27.20
  -4   0   8  501.25   27.40
  -4   0   8  494.55   27.00
   4   0  -8  530.15   27.20
   4   0  -8  485.65   27.20
  -4   0   7    1.00    2.00
   4   0  -7   -0.10    2.30
  -4   0   7    0.20    1.70
   4   0  -7    1.00    2.00
   4   0  -7    0.90    2.20
  -4   0   7   -0.10    1.40
  -4   0   6  137.99    8.20
  -4   0   6  141.69    8.20
  -4   0   6  140.69    8.40
   4   0  -6  131.39    8.50
   4   0  -6  145.89    8.50
   4   0  -6  159.18    8.20
   4   0  -6  134.89    8.60
   4   0  -5    1.30    1.50
  -4   0   5    0.00    1.80
   4   0  -5    1.70    2.00
   4   0  -5   -1.20    2.00
  -4   0   5    0.10    1.40
   4   0  -5   -1.70    2.10
  -4   0   5   -1.00    1.40
  -4   0   4   63.99    4.00
   4   0  -4   59.39    4.30
   4   0  -4   59.59    4.50
   4   0  -4   59.59    4.50
  -4   0   4   57.09    3.90
  -4   0   4   60.79    4.30
   4   0  -4   61.09    3.90
   4   0  -3   -1.40    1.40
   4   0  -3   -0.90    1.50
  -4   0   3   -1.00    1.40
  -4   0   3    0.70    1.20
   4   0  -3   -0.10    1.40
   4   0  -2  129.79    6.60
  -4   0   2  132.29    6.70
   4   0  -2  108.69    6.50
   4   0  -2  113.59    6.70
   4   0  -2  125.19    6.60
   4   0  -1    0.50    1.00
  -4   0   1   -1.90    1.30
  -4   0   1    0.20    1.00
  -4   0   1   -0.40    1.10
   4   0  -1   -0.80    1.20
   4   0   0  328.57   17.00
   4   0   0  362.36   17.40
  -4   0   0  319.47   17.20
  -4   0   0  350.36   16.90
   4   0   0  304.67   16.90
  -4   0  -1   -0.20    1.10
   4   0   1   -0.30    1.20
   4   0   1    3.70    2.10
  -4   0  -1    0.80    1.20
   4   0   1    0.50    1.00
  -4   0  -1    1.60    1.80
  -4   0  -1   -0.80    1.20
   4   0   2  181.88    9.60
   4   0   2  175.08    9.50
   4   0   2  168.58   10.10
  -4   0  -2  167.58    9.60
   4   0   2  182.18    9.60
  -4   0  -2  208.18    9.60
  -4   0  -2  183.88    9.50
  -4   0  -2  174.28   10.30
   4   0   3   -0.40    2.10
  -4   0  -3    2.60    2.30
  -4   0  -3   -0.50    1.60
   4   0   3    0.60    1.50
  -4   0  -3    0.00    1.60
   4   0   3    0.90    1.20
  -4   0  -3   -0.60    1.50
   4   0   3    0.40    1.50
   4   0   4    4.10    1.90
  -4   0  -4    4.70    2.10
   4   0   4    2.80    1.80
  -4   0  -4    4.30    2.00
   4   0   4    3.50    1.60
  -4   0  -4    4.60    1.90
  -4   0  -4    3.70    2.60
   4   0   4    4.90    2.40
  -4   0  -5   -2.20    2.00
   4   0   5   -1.20    1.80
   4   0   5   -0.30    2.30
  -4   0  -5    4.60    3.20
  -4   0  -5   -0.10    1.90
  -4   0  -5   -0.40    2.20
   4   0   5   -0.30    1.60
   4   0   5    2.80    2.10
  -4   0  -6  435.06   22.40
  -4   0  -6  444.36   22.50
   4   0   6  420.06   23.00
   4   0   6  415.96   22.40
  -4   0  -6  458.85   23.40
   4   0   6  395.76   22.50
  -4   0  -7    0.70    3.10
  -4   0  -7    2.60    2.50
  -4   0  -7   -0.20    2.30
   4   0   7    0.20    2.20
   4   0   7   -3.00    2.10
  -4   0  -8    2.20    3.50
   4   0   8    1.80    2.50
  -4   0  -8    2.70    2.60
  -4   0  -8    4.10    2.70
  -4   0  -9   -0.40    3.60
  -4   0  -9    0.70    3.10
   4   0   9    2.00    2.70
  -4   0  -9    0.50    2.70
   4   0  10   96.09    7.40
  -4   0 -10   79.89    8.10
  -4   0 -10   96.69    7.50
  -4   0 -10   87.89    7.20
  -4   0 -11   -2.70    4.10
   4   0  11    0.70    2.80
  -4   0 -11   -2.00    3.10
  -4   0 -11    0.90    3.60
  -4   0 -12  216.48   13.00
  -4   0 -12  196.58   13.60
   4   0  12  183.98   12.60
  -4   0 -12  185.18   12.30
  -4   0 -13   -1.40    4.20
  -4   0 -13   -2.90    4.00
   4   0  13   -2.30    3.00
  -4   0 -13   -2.40    3.50
   4   0  14   17.20    4.20
  -4   0 -14    8.80    4.80
  -4   0 -14   12.60    4.50
   4   1 -14   35.70    5.20
  -4   1  14   20.20    4.10
   4   1 -14   22.50    4.40
  -4  -1  14   31.90    4.80
   4  -1 -14   27.30    5.20
   4  -1 -14   27.20    5.90
  -4   1  13    0.70    3.10
   4   1 -13    1.20    3.80
   4   1 -13   -2.60    3.20
  -4  -1  13   -0.60    2.70
   4  -1 -13    9.30    4.80
   4  -1 -13   -4.10    4.20
  -4   1  12  141.89   10.10
   4   1 -12  160.58   10.60
   4   1 -12  164.18   10.00
  -4  -1  12  143.09    9.90
   4  -1 -12  138.39   10.30
   4  -1 -12  145.19   10.60
   4  -1 -12  136.19   10.10
  -4   1  11    6.30    2.90
   4   1 -11    6.00    3.20
   4   1 -11    3.10    3.40
   4   1 -11    3.70    1.80
   4  -1 -11    5.20    3.50
  -4  -1  11    6.80    2.90
   4  -1 -11   -1.10    3.40
   4  -1 -11    2.30    4.00
  -4   1  10    8.00    2.90
   4   1 -10    8.00    2.00
   4   1 -10    7.50    2.90
   4   1 -10    8.20    3.00
   4  -1 -10    9.30    3.70
  -4  -1  10    4.60    1.60
   4  -1 -10    8.50    3.40
  -4  -1  10    5.60    2.80
   4  -1 -10    6.10    3.40
   4   1  -9    1.90    2.50
  -4   1   9    1.40    2.40
   4   1  -9    3.90    1.70
   4   1  -9    0.20    2.70
   4  -1  -9    1.30    2.90
   4  -1  -9   -0.20    2.70
  -4  -1   9   -0.50    1.80
  -4  -1   9    2.30    1.40
  -4  -1   9    2.50    2.50
   4  -1  -9    3.80    3.10
   4   1  -8   47.40    4.40
   4   1  -8   48.20    3.60
   4   1  -8   36.80    3.90
  -4   1   8   39.70    4.40
   4  -1  -8   44.80    5.00
  -4  -1   8   39.40    3.80
   4  -1  -8   41.40    4.40
  -4  -1   8   44.70    4.50
   4  -1  -8   43.70    4.30
  -4  -1   8   42.80    3.30
  -4   1   7    5.50    2.30
   4   1  -7    5.10    2.40
   4   1  -7    7.30    1.50
  -4   1   7    6.70    2.10
   4   1  -7    6.60    2.30
  -4  -1   7    6.40    1.30
   4  -1  -7    6.70    2.70
  -4  -1   7    4.60    1.70
  -4  -1   7    7.20    2.30
  -4  -1   7    9.30    1.80
   4  -1  -7    4.30    2.60
   4  -1  -7    5.60    2.70
   4   1  -6   16.30    2.50
  -4   1   6   15.00    2.30
   4   1  -6   14.40    1.90
   4   1  -6   17.00    2.30
  -4   1   6   18.40    2.50
   4   1  -6   11.70    2.80
  -4   1   6   12.30    2.40
  -4  -1   6   15.80    2.60
   4  -1  -6   12.30    2.70
  -4  -1   6   16.90    2.10
   4  -1  -6   15.70    2.80
  -4  -1   6   18.10    2.10
  -4  -1   6   11.80    1.70
   4  -1  -6   15.80    2.80
   4  -1  -6   15.00    2.80
  -4   1   5   55.89    4.20
  -4   1   5   58.89    4.20
   4   1  -5   56.79    4.00
   4   1  -5   52.99    4.40
   4   1  -5   58.79    4.80
  -4   1   5   57.59    4.50
  -4  -1   5   55.69    4.40
   4  -1  -5   59.49    4.90
  -4  -1   5   53.09    3.70
  -4  -1   5   56.59    3.90
   4  -1  -5   50.89    4.70
   4  -1  -5   54.19    4.60
   4  -1  -5   56.89    5.00
   4   1  -4   24.30    2.70
  -4   1   4   22.70    2.20
   4   1  -4   17.20    2.50
  -4   1   4   22.40    2.30
   4   1  -4   19.70    2.20
  -4   1   4   21.60    2.30
   4   1  -4   21.30    2.40
   4  -1  -4   20.40    2.70
  -4  -1   4   19.90    2.30
   4  -1  -4   19.80    2.50
   4  -1  -4   21.80    2.40
  -4  -1   4   21.30    2.00
   4   1  -3 1383.66   65.79
  -4   1   3 1345.77   65.99
  -4   1   3 1291.17   65.89
   4   1  -3 1272.37   65.99
   4   1  -3 1325.27   65.79
   4   1  -3 1307.47   65.69
   4  -1  -3 1317.27   65.99
  -4  -1   3 1280.47   65.79
   4  -1  -3 1324.17   65.99
   4  -1  -3 1264.57   65.99
  -4  -1   3 1319.87   65.99
   4   1  -2  168.68    8.80
   4   1  -2  158.28    8.90
   4   1  -2  175.48    8.70
  -4   1   2  162.08    8.80
   4   1  -2  172.58    8.70
   4   1  -2  154.68    8.70
   4  -1  -2  170.88    9.00
  -4  -1   2  156.08    8.70
   4  -1  -2  164.38    8.90
   4  -1  -2  162.58    8.90
  -4  -1   2  177.78    9.00
   4  -1  -2  172.28    8.70
  -4  -1   2  176.48    8.70
  -4   1   1  122.49    6.30
   4   1  -1  114.69    6.60
   4   1  -1  116.89    6.20
  -4   1   1  128.69    6.40
   4   1  -1  109.39    6.20
  -4   1   1  125.69    6.40
   4  -1  -1  121.99    6.40
  -4  -1   1  106.29    6.50
   4  -1  -1  112.59    6.90
  -4  -1   1  123.79    6.50
  -4  -1   1  122.09    6.20
   4  -1  -1  111.99    6.30
  -4  -1   1  122.09    6.30
  -4   1   0 1190.68   57.89
   4   1   0 1118.29   57.39
  -4   1   0 1213.98   57.49
   4   1   0 1131.89   57.39
  -4   1   0 1177.58   57.49
   4   1   0 1106.89   57.69
  -4  -1   0 1141.99   57.69
   4  -1   0 1102.59   57.39
  -4  -1   0 1176.78   57.39
  -4  -1   0 1057.69   57.39
   4  -1   0 1180.48   57.89
  -4   1  -1   31.30    3.70
   4   1   1   33.40    2.40
   4   1   1   34.40    2.80
  -4   1  -1   32.30    2.70
   4   1   1   33.20    3.20
  -4   1  -1   34.20    2.50
  -4  -1  -1   31.50    2.80
  -4  -1  -1   32.40    3.50
   4  -1   1   30.90    2.50
  -4  -1  -1   33.80    2.70
  -4  -1  -1   30.30    2.50
   4  -1   1   31.10    3.60
   4  -1   1   29.80    2.80
  -4   1  -2  630.44   33.30
  -4   1  -2  703.03   32.80
  -4   1  -2  618.84   32.80
   4   1   2  696.43   32.70
   4   1   2  624.74   32.80
   4   1   2  625.24   32.80
   4   1   2  641.24   33.30
  -4   1  -2  680.03   32.80
  -4  -1  -2  593.94   33.20
  -4  -1  -2  654.33   32.90
   4  -1   2  662.13   33.40
  -4  -1  -2  681.83   32.80
  -4  -1  -2  666.13   32.70
   4  -1   2  645.84   32.80
   4  -1   2  602.34   32.80
   4  -1   2  637.04   32.70
  -4   1  -3   91.39    5.20
  -4   1  -3   76.09    5.80
  -4   1  -3   85.89    5.20
   4   1   3   83.69    5.30
   4   1   3   79.49    5.20
  -4   1  -3   92.49    5.20
   4   1   3   88.69    5.10
   4   1   3   72.39    5.60
   4  -1   3   83.69    5.20
   4  -1   3   84.69    5.00
  -4  -1  -3   85.89    5.30
   4  -1   3   89.59    5.30
  -4  -1  -3   84.29    5.20
  -4  -1  -3   81.29    5.40
  -4  -1  -3   80.89    6.30
   4  -1   3   87.39    6.20
   4   1   4    2.60    2.40
   4   1   4   -0.60    1.50
  -4   1  -4    0.10    1.90
   4   1   4    0.80    1.70
  -4   1  -4   -0.20    1.80
   4   1   4    0.10    1.80
  -4   1  -4   -0.30    2.40
  -4   1  -4    0.00    1.80
   4  -1   4    2.00    2.50
   4  -1   4    0.30    1.80
   4  -1   4    0.70    1.40
  -4  -1  -4    1.30    1.80
  -4  -1  -4    3.60    3.00
  -4  -1  -4    0.40    1.90
   4  -1   4    1.40    1.60
  -4  -1  -4    3.10    2.20
   4   1   5  426.26   22.60
  -4   1  -5  454.05   22.50
   4   1   5  441.26   22.60
  -4   1  -5  400.56   23.10
  -4   1  -5  447.86   22.40
   4   1   5  455.95   22.50
   4   1   5  421.16   23.20
  -4   1  -5  432.56   22.50
  -4  -1  -5  425.16   22.50
   4  -1   5  436.36   23.20
  -4  -1  -5  416.56   22.40
  -4  -1  -5  438.56   23.40
   4  -1   5  427.36   22.40
   4  -1   5  440.46   22.60
  -4  -1  -5  416.56   22.60
   4  -1   5  438.66   22.40
  -4   1  -6  205.98   11.80
  -4   1  -6  196.68   10.60
  -4   1  -6  187.88   10.60
   4   1   6  182.68   10.80
   4   1   6  181.68   11.40
   4  -1   6  185.18   10.90
   4  -1   6  206.78   11.70
   4  -1   6  188.08   10.60
  -4  -1  -6  182.88   10.90
  -4  -1  -6  160.58   10.60
  -4  -1  -6  194.68   12.00
   4   1   7   52.69    5.10
  -4   1  -7   54.19    4.80
  -4   1  -7   58.79    5.60
  -4   1  -7   59.09    4.80
  -4  -1  -7   52.79    5.30
   4  -1   7   50.99    5.50
  -4  -1  -7   51.09    4.90
  -4  -1  -7   42.20    6.10
   4  -1   7   52.59    5.00
  -4   1  -8   -0.30    2.50
  -4   1  -8    3.50    2.70
   4   1   8    1.80    2.50
  -4   1  -8    3.20    3.10
  -4  -1  -8    2.70    2.60
  -4  -1  -8    5.10    3.10
  -4  -1  -8    1.80    3.90
   4  -1   8    2.80    2.30
  -4   1  -9   24.00    4.40
  -4   1  -9   22.90    3.50
   4   1   9   19.10    3.50
  -4   1  -9   23.90    3.70
  -4  -1  -9   28.10    5.20
  -4  -1  -9   18.20    3.60
   4  -1   9   21.20    3.70
  -4  -1  -9   20.30    4.20
  -4   1 -10    2.20    3.50
  -4   1 -10    1.60    3.20
  -4   1 -10    1.00    2.90
   4   1  10    4.20    3.00
  -4  -1 -10   -0.30    3.60
   4  -1  10    2.70    2.90
  -4  -1 -10   -2.20    4.50
  -4  -1 -10    1.10    3.20
   4   1  11   35.90    4.90
  -4   1 -11   48.20    5.20
  -4   1 -11   58.79    6.40
  -4   1 -11   51.59    6.50
  -4  -1 -11   52.89    5.40
  -4  -1 -11   47.50    5.90
   4  -1  11   44.30    5.30
  -4  -1 -11   47.70    6.90
  -4   1 -12   48.30    5.50
  -4   1 -12   51.29    5.40
   4   1  12   45.00    5.60
  -4   1 -12   58.79    6.50
  -4  -1 -12   40.30    5.20
  -4  -1 -12   42.30    6.70
  -4  -1 -12   53.89    5.90
   4  -1  12   46.30    5.70
  -4   1 -13   -1.90    3.90
   4   1  13   -2.00    3.10
  -4   1 -13    0.30    3.50
  -4   1 -13    3.90    3.30
  -4  -1 -13   -2.80    3.60
  -4  -1 -13   -8.20    4.60
   4  -1  13   -1.90    3.10
  -4  -1 -13   -1.00    4.50
  -4   1 -14    1.60    3.90
  -4   1 -14   -1.00    3.80
   4   1  14   -2.10    3.40
  -4  -1 -14   -5.40    3.80
  -4  -1 -14    3.40    4.90
   4  -1  14   -2.70    3.30
  -4   2  14   16.10    4.00
   4   2 -14   14.10    4.60
   4  -2 -14    7.10    4.60
  -4  -2  14   13.30    3.80
   4  -2 -14    8.70    5.60
   4   2 -13   25.90    4.80
  -4   2  13   24.50    4.60
   4  -2 -13   25.60    6.00
  -4  -2  13   20.60    4.10
   4  -2 -13   21.30    4.80
  -4   2  12    8.50    3.40
   4   2 -12   11.30    2.70
   4   2 -12    8.90    3.90
   4  -2 -12    9.00    4.50
   4  -2 -12    1.10    4.40
  -4  -2  12    7.40    3.20
   4  -2 -12    6.70    3.90
   4   2 -11  148.69    8.80
   4   2 -11  155.08    9.70
  -4   2  11  138.29    9.40
   4  -2 -11  138.59   10.60
   4  -2 -11  132.89   10.10
   4  -2 -11  123.69    9.70
  -4  -2  11  139.49    9.50
  -4   2  10   82.69    6.60
   4   2 -10   83.89    6.10
   4   2 -10   91.09    6.70
   4  -2 -10   79.39    7.50
  -4  -2  10   76.69    6.60
   4  -2 -10   83.09    7.70
   4  -2 -10   75.19    7.30
  -4   2   9  214.88   12.50
   4   2  -9  232.98   12.60
   4   2  -9  233.68   12.00
   4  -2  -9  217.08   13.30
   4  -2  -9  210.98   13.00
  -4  -2   9  226.18   12.60
  -4  -2   9  202.48   11.40
  -4  -2   9  202.78   11.80
   4  -2  -9  211.48   12.50
   4   2  -8   11.40    2.20
   4   2  -8    9.80    2.60
  -4   2   8   12.60    2.70
   4  -2  -8   11.60    3.50
  -4  -2   8   13.80    2.70
  -4  -2   8   11.00    1.60
   4  -2  -8    9.70    3.30
   4  -2  -8    9.60    3.00
   4   2  -7  380.66   19.70
   4   2  -7  397.06   20.20
  -4   2   7  398.06   20.30
   4   2  -7  377.56   20.10
   4  -2  -7  385.26   20.50
  -4  -2   7  375.76   19.70
  -4  -2   7  380.96   19.90
  -4  -2   7  372.46   20.30
   4  -2  -7  391.46   20.80
   4  -2  -7  362.86   20.30
   4   2  -6    9.60    2.40
  -4   2   6    9.10    2.20
   4   2  -6    6.60    1.70
   4   2  -6    4.50    2.30
  -4   2   6   10.30    2.10
   4   2  -6    4.80    2.10
   4  -2  -6    8.30    2.40
   4  -2  -6   10.30    3.10
   4  -2  -6    8.00    2.50
   4  -2  -6    7.80    2.90
  -4  -2   6    8.00    2.10
  -4  -2   6    7.40    1.40
  -4  -2   6    8.70    1.70
  -4   2   5  325.77   17.20
   4   2  -5  334.77   17.20
  -4   2   5  328.17   17.20
   4   2  -5  319.17   17.40
   4   2  -5  326.07   17.10
  -4   2   5  318.97   17.40
   4   2  -5  318.57   16.70
  -4  -2   5  325.97   16.70
  -4  -2   5  328.67   17.00
   4  -2  -5  335.57   17.40
  -4  -2   5  319.47   17.30
   4  -2  -5  354.86   18.00
   4  -2  -5  326.87   17.60
   4  -2  -5  325.97   17.30
   4   2  -4  393.06   21.00
  -4   2   4  439.96   21.60
   4   2  -4  409.16   21.60
  -4   2   4  416.06   21.50
   4   2  -4  422.46   21.50
   4   2  -4  417.26   21.30
   4  -2  -4  435.66   21.50
  -4  -2   4  419.36   21.30
   4  -2  -4  402.86   21.80
   4  -2  -4  420.96   21.50
   4  -2  -4  420.26   21.60
   4  -2  -4  436.86   22.20
  -4  -2   4  428.56   21.60
  -4  -2   4  386.96   21.10
   4   2  -3   19.90    2.20
  -4   2   3   18.20    2.00
  -4   2   3   17.40    2.00
   4   2  -3   16.20    1.70
   4   2  -3   18.20    2.20
   4  -2  -3   16.30    2.50
  -4  -2   3   21.30    2.00
   4  -2  -3   15.70    2.10
   4  -2  -3   17.80    2.00
  -4  -2   3   16.10    1.50
  -4  -2   3   18.20    2.10
   4  -2  -3   18.90    2.20
  -4  -2   3   13.80    2.00
  -4   2   2 2759.42  144.49
  -4   2   2 2956.40  144.59
   4   2  -2 3103.59  144.59
   4   2  -2 2862.11  144.39
   4   2  -2 2937.71  144.39
   4   2  -2 2755.82  144.59
  -4  -2   2 2947.71  144.59
   4  -2  -2 2949.80  144.59
  -4  -2   2 2951.90  144.59
   4  -2  -2 2870.51  144.59
  -4  -2   2 2635.14  144.59
   4  -2  -2 3034.30  144.59
   4  -2  -2 2795.42  144.49
   4   2  -1 9532.05  463.55
  -4   2   1 8840.82  463.25
   4   2  -1 9271.67  463.35
   4  -2  -1 8949.90  463.25
  -4  -2   1 9734.53  463.35
   4  -2  -1 9999.00  463.35
  -4  -2   1 8688.03  463.05
  -4  -2   1 9192.68  463.55
  -4   2   0 2166.98  110.49
   4   2   0 2173.48  110.19
   4   2   0 2152.68  110.79
   4   2   0 2265.47  110.39
  -4   2   0 2247.18  110.39
  -4  -2   0 2179.58  110.19
  -4  -2   0 2209.38  110.79
  -4  -2   0 2099.49  110.29
   4  -2   0 2264.67  110.99
   4  -2   0 2131.79  110.39
   4  -2   0 2192.58  110.49
  -4  -2   0 2375.16  110.49
   4   2   1 1710.23   81.69
   4   2   1 1611.64   81.79
   4   2   1 1576.44   82.29
  -4   2  -1 1592.04   81.69
  -4   2  -1 1527.85   81.89
  -4   2  -1 1598.34   81.69
  -4  -2  -1 1692.73   82.29
  -4  -2  -1 1782.02   81.79
   4  -2   1 1695.73   82.39
  -4  -2  -1 1579.24   81.59
   4  -2   1 1591.14   81.69
  -4  -2  -1 1608.04   81.79
  -4   2  -2    5.40    1.50
   4   2   2    5.30    1.60
  -4   2  -2    7.20    2.10
   4   2   2    6.50    2.40
  -4   2  -2    7.30    1.60
   4   2   2    5.90    1.40
   4   2   2    6.90    1.70
  -4   2  -2    4.60    2.30
  -4  -2  -2    6.40    2.00
  -4  -2  -2    4.60    1.40
   4  -2   2    6.30    1.40
   4  -2   2    7.60    2.40
  -4  -2  -2    5.10    2.40
   4  -2   2    7.50    1.70
  -4  -2  -2    5.70    1.60
   4  -2   2    6.70    1.30
   4   2   3   19.10    3.00
   4   2   3   17.30    2.20
  -4   2  -3   21.50    2.20
   4   2   3   24.60    2.60
  -4   2  -3   18.80    3.10
  -4   2  -3   22.30    2.30
   4   2   3   20.90    2.10
  -4  -2  -3   20.10    2.70
  -4  -2  -3   15.70    3.20
  -4  -2  -3   18.90    2.20
  -4  -2  -3   17.70    2.20
   4  -2   3   23.70    2.30
   4  -2   3   20.70    3.00
   4  -2   3   18.20    2.00
   4  -2   3   20.30    2.30
   4   2   4   38.50    3.30
  -4   2  -4   36.50    3.60
   4   2   4   32.50    3.10
   4   2   4   37.80    4.80
   4   2   4   31.30    3.60
  -4   2  -4   36.60    3.00
  -4   2  -4   29.60    3.00
  -4   2  -4   35.10    4.10
   4  -2   4   34.20    3.20
  -4  -2  -4   35.60    3.50
  -4  -2  -4   36.90    3.70
   4  -2   4   31.80    3.30
   4  -2   4   39.10    5.30
  -4  -2  -4   36.60    4.50
   4  -2   4   34.70    3.60
  -4  -2  -4   27.30    3.00
   4   2   5  475.55   24.40
  -4   2  -5  508.65   24.30
   4   2   5  425.06   24.30
   4   2   5  494.45   24.30
  -4   2  -5  491.65   24.20
  -4   2  -5  475.45   25.00
   4   2   5  425.66   25.00
  -4   2  -5  457.15   24.30
  -4  -2  -5  432.16   24.20
   4  -2   5  430.86   24.10
   4  -2   5  497.25   24.40
  -4  -2  -5  451.65   24.50
   4  -2   5  490.65   25.20
  -4  -2  -5  492.05   25.30
   4  -2   5  474.95   24.10
  -4  -2  -5  458.85   24.20
  -4   2  -6  110.99    7.10
  -4   2  -6  112.79    8.10
   4   2   6  112.29    7.30
  -4   2  -6  119.29    7.20
  -4  -2  -6  107.49    7.70
   4  -2   6  112.29    8.20
   4  -2   6  116.09    7.50
   4  -2   6  109.49    7.10
  -4  -2  -6  120.59    7.30
  -4  -2  -6  126.29    8.80
  -4   2  -7   48.60    4.60
  -4   2  -7   41.30    3.80
  -4   2  -7   39.90    4.80
   4   2   7   35.10    3.80
  -4  -2  -7   43.60    6.20
   4  -2   7   40.70    4.40
   4  -2   7   34.60    3.30
   4  -2   7   34.20    4.80
  -4  -2  -7   34.30    3.80
  -4  -2  -7   43.80    4.50
  -4   2  -8    0.60    2.80
  -4   2  -8    0.70    2.50
   4   2   8    0.00    2.30
  -4   2  -8   -3.50    2.30
  -4  -2  -8    1.90    3.00
  -4  -2  -8   -1.40    2.80
   4  -2   8   -0.70    2.30
  -4  -2  -8   -1.20    4.00
  -4   2  -9    1.80    2.70
  -4   2  -9    0.60    3.10
   4   2   9    0.40    2.60
  -4   2  -9    0.20    2.70
  -4  -2  -9    0.70    3.00
  -4  -2  -9   -0.20    4.40
  -4  -2  -9    1.80    3.70
   4  -2   9   -0.10    2.60
  -4   2 -10  156.78   10.90
  -4   2 -10  174.68   10.40
   4   2  10  152.08   10.40
  -4   2 -10  159.78   10.20
  -4  -2 -10  147.99   10.40
  -4  -2 -10  160.08   12.80
   4  -2  10  161.08   10.60
  -4  -2 -10  170.88   11.20
  -4   2 -11  131.19    9.50
   4   2  11  145.39    9.90
  -4   2 -11  145.99   10.40
  -4   2 -11  151.78    9.70
   4  -2  11  138.39    9.80
  -4  -2 -11  139.59   12.40
  -4  -2 -11  134.49   10.50
  -4  -2 -11  135.29    9.80
  -4   2 -12   48.90    6.00
  -4   2 -12   35.40    4.90
  -4   2 -12   47.10    5.20
   4   2  12   34.70    5.00
  -4  -2 -12   41.30    6.00
   4  -2  12   36.10    5.10
  -4  -2 -12   30.90    4.80
  -4  -2 -12   24.90    6.90
  -4   2 -13    2.50    3.70
   4   2  13    1.20    3.50
  -4   2 -13   -2.00    3.40
  -4  -2 -13   -1.00    3.90
  -4  -2 -13   -6.20    4.80
   4  -2  13    0.80    3.20
  -4  -2 -13  -13.30    5.30
   4   3 -14    9.10    4.30
  -4   3  14   11.30    4.00
   4   3 -14   12.40    4.50
   4  -3 -14    9.60    6.00
  -4  -3  14    7.90    3.90
   4  -3 -14    7.50    4.60
  -4   3  13   39.90    5.10
   4   3 -13   24.40    5.00
   4   3 -13   31.70    4.80
   4  -3 -13   25.10    6.20
  -4  -3  13   39.20    5.20
   4  -3 -13   24.90    5.10
   4   3 -12   17.30    4.10
   4   3 -12   23.60    4.50
  -4   3  12   19.60    3.90
   4  -3 -12   18.70    5.20
   4  -3 -12   16.50    4.40
  -4  -3  12   19.00    3.90
   4  -3 -12   18.20    5.70
   4   3 -11    3.40    3.40
  -4   3  11    0.90    2.70
   4   3 -11    2.80    3.30
   4   3 -11   -0.70    2.20
   4  -3 -11    5.40    4.60
   4  -3 -11   -0.30    3.60
   4  -3 -11   -0.30    4.60
  -4  -3  11    0.40    2.60
   4   3 -10    9.60    3.20
   4   3 -10   13.10    2.30
  -4   3  10   13.50    3.10
   4   3 -10    9.40    3.50
   4  -3 -10    7.90    4.70
   4  -3 -10    7.80    3.70
  -4  -3  10   12.70    3.20
   4  -3 -10    8.00    4.20
   4   3  -9  178.18   10.40
   4   3  -9  189.58    9.70
  -4   3   9  166.78   10.50
   4   3  -9  176.58   10.80
  -4  -3   9  159.28    9.40
   4  -3  -9  166.78   10.80
   4  -3  -9  169.18   11.60
   4  -3  -9  187.68   12.10
  -4  -3   9  175.38   10.70
  -4   3   8   24.20    3.10
   4   3  -8   20.10    3.00
   4   3  -8   18.30    2.30
   4   3  -8   21.90    3.40
  -4  -3   8   25.90    2.60
  -4  -3   8   20.30    3.30
   4  -3  -8   14.60    3.70
   4  -3  -8   22.40    4.50
   4  -3  -8   18.00    3.40
  -4   3   7   52.89    4.70
   4   3  -7   54.09    4.50
   4   3  -7   53.69    5.00
   4   3  -7   58.39    3.70
   4  -3  -7   51.59    5.20
  -4  -3   7   53.99    4.80
   4  -3  -7   53.19    5.80
   4  -3  -7   51.79    6.50
  -4  -3   7   54.99    3.90
  -4  -3   7   54.79    4.00
   4   3  -6   13.80    2.70
   4   3  -6   11.00    1.30
  -4   3   6   11.10    2.20
   4   3  -6   11.20    2.10
   4   3  -6    7.40    2.30
   4  -3  -6    5.80    2.20
   4  -3  -6   11.90    3.20
  -4  -3   6    8.90    1.60
   4  -3  -6   10.90    2.70
  -4  -3   6   10.10    2.30
  -4  -3   6    9.30    1.20
   4  -3  -6    9.30    2.40
   4  -3  -6    9.10    3.40
  -4  -3   6    6.80    1.80
   4   3  -5  217.38   11.90
   4   3  -5  216.18   12.00
   4   3  -5  215.68   11.50
  -4   3   5  232.98   11.80
  -4   3   5  207.08   11.70
   4  -3  -5  190.48   12.10
  -4  -3   5  220.88   11.50
   4  -3  -5  230.38   13.10
   4  -3  -5  202.48   11.90
  -4  -3   5  222.78   11.90
  -4  -3   5  215.08   11.30
   4  -3  -5  218.98   11.80
   4  -3  -5  217.58   12.00
   4   3  -4   33.30    3.50
   4   3  -4   34.50    3.60
  -4   3   4   37.00    3.40
  -4   3   4   34.80    3.30
   4   3  -4   39.60    2.90
  -4  -3   4   32.80    2.50
  -4  -3   4   36.50    3.40
   4  -3  -4   36.20    3.30
   4  -3  -4   37.30    5.50
   4  -3  -4   36.90    3.50
   4  -3  -4   39.40    3.40
  -4  -3   4   33.70    3.40
  -4  -3   4   28.60    3.30
   4  -3  -4   33.30    3.60
   4   3  -3  229.68   12.00
  -4   3   3  216.98   11.50
   4   3  -3  222.28   11.70
   4   3  -3  218.68   11.20
  -4  -3   3  211.78   11.60
   4  -3  -3  219.58   11.90
   4  -3  -3  228.88   11.80
   4  -3  -3  221.08   12.10
  -4  -3   3  206.38   11.60
  -4  -3   3  202.98   11.80
  -4  -3   3  207.68   11.10
   4  -3  -3  229.28   11.80
   4  -3  -3  218.38   11.50
   4   3  -2  124.49    7.70
  -4   3   2  129.29    7.60
  -4   3   2  125.29    7.00
   4   3  -2  129.39    7.10
   4  -3  -2  133.69    7.70
  -4  -3   2  119.49    7.70
  -4  -3   2  143.99    7.50
   4  -3  -2  131.49    7.20
  -4  -3   2  126.19    7.10
   4  -3  -2  133.29    7.80
   4  -3  -2  140.29    7.40
   4  -3  -2  128.79    7.00
  -4  -3   2  119.29    6.60
  -4   3   1  116.29    6.80
  -4   3   1  121.49    7.20
   4   3  -1  117.59    7.60
  -4   3   1  118.89    6.50
   4   3  -1  121.89    6.60
   4   3  -1  126.19    7.40
  -4  -3   1  116.79    7.60
  -4  -3   1  115.79    6.50
  -4  -3   1  123.29    6.70
   4  -3  -1  132.29    7.30
  -4  -3   1  130.59    7.10
   4  -3  -1  118.99    6.80
   4   3   0   24.40    2.60
  -4   3   0   25.50    2.80
  -4   3   0   22.20    2.10
  -4   3   0   26.10    2.20
   4   3   0   24.40    1.90
   4   3   0   26.20    3.30
  -4  -3   0   25.10    3.30
  -4  -3   0   21.90    1.80
  -4  -3   0   23.40    2.60
   4  -3   0   23.90    2.10
   4  -3   0   26.10    3.20
  -4  -3   0   27.10    2.70
  -4   3  -1    4.70    2.20
  -4   3  -1    3.80    1.40
   4   3   1    5.20    1.80
   4   3   1    6.60    1.20
   4   3   1    6.10    2.60
  -4   3  -1    5.30    1.20
   4  -3   1    4.50    2.00
  -4  -3  -1    5.70    1.90
  -4  -3  -1    4.80    2.00
   4  -3   1    4.90    1.30
  -4  -3  -1    5.70    2.70
   4  -3   1    4.00    2.50
  -4  -3  -1    4.60    1.20
  -4  -3  -1    5.00    1.40
   4   3   2  282.57   13.80
  -4   3  -2  274.27   13.80
   4   3   2  271.97   14.10
   4   3   2  251.87   14.80
  -4   3  -2  279.77   14.40
  -4   3  -2  260.67   13.80
   4  -3   2  265.47   13.70
   4  -3   2  254.77   13.70
  -4  -3  -2  264.27   13.70
  -4  -3  -2  254.07   13.80
  -4  -3  -2  244.08   14.10
   4  -3   2  267.17   14.80
  -4  -3  -2  265.57   15.00
  -4   3  -3  839.12   40.40
   4   3   3  791.52   41.40
  -4   3  -3  826.82   40.80
  -4   3  -3  757.22   40.30
   4   3   3  830.42   40.40
   4   3   3  788.72   40.60
   4   3   3  817.42   40.40
  -4  -3  -3  749.53   40.60
  -4  -3  -3  828.82   41.50
   4  -3   3  798.72   40.30
   4  -3   3  775.32   40.40
   4  -3   3  820.22   41.20
  -4  -3  -3  790.22   40.30
  -4  -3  -3  735.83   40.30
   4  -3   3  806.32   40.40
   4   3   4    9.50    2.10
   4   3   4   10.60    2.40
  -4   3  -4   12.20    2.10
  -4   3  -4   14.30    2.20
   4   3   4   11.60    3.30
   4   3   4   12.40    2.00
   4  -3   4    9.80    2.90
  -4  -3  -4   10.30    2.10
  -4  -3  -4   11.30    3.40
   4  -3   4   11.80    1.80
   4  -3   4   11.30    2.10
  -4  -3  -4   12.30    2.90
  -4  -3  -4   10.00    2.20
   4  -3   4   11.10    2.10
   4   3   5  585.74   30.30
   4   3   5  581.34   30.20
  -4   3  -5  588.44   30.20
  -4   3  -5  621.64   31.10
  -4   3  -5  632.24   30.70
  -4   3  -5  611.64   30.10
   4  -3   5  595.94   30.30
   4  -3   5  549.25   30.10
   4  -3   5  597.34   31.10
  -4  -3  -5  568.74   30.20
  -4  -3  -5  585.44   31.40
  -4  -3  -5  537.45   30.20
  -4  -3  -5  593.34   30.60
   4  -3   5  577.84   30.10
  -4   3  -6   20.50    3.60
  -4   3  -6   18.50    2.60
  -4   3  -6   23.60    3.80
  -4   3  -6   23.20    3.00
   4   3   6   20.90    2.90
  -4  -3  -6   20.60    3.00
   4  -3   6   24.10    3.00
  -4  -3  -6   21.10    3.70
  -4  -3  -6   20.50    4.50
   4  -3   6   18.70    2.50
   4  -3   6   22.10    4.10
  -4   3  -7    1.50    2.40
  -4   3  -7    1.50    2.30
   4   3   7    2.80    2.30
  -4   3  -7    2.60    2.80
   4  -3   7   -1.60    3.20
   4  -3   7    0.40    2.20
   4  -3   7    1.90    1.40
  -4  -3  -7    3.90    3.30
  -4  -3  -7    0.40    2.50
  -4  -3  -7    3.10    4.00
  -4   3  -8   17.80    3.10
  -4   3  -8   20.00    3.90
   4   3   8   17.90    3.20
  -4   3  -8   19.60    3.50
   4  -3   8   15.90    3.10
  -4  -3  -8   15.20    3.70
  -4  -3  -8   17.00    3.40
  -4  -3  -8   20.60    5.20
  -4   3  -9   18.10    3.50
   4   3   9   16.40    3.40
  -4   3  -9   18.70    3.60
  -4   3  -9   18.90    4.20
  -4  -3  -9   24.10    3.90
  -4  -3  -9   27.20    5.90
   4  -3   9   16.90    3.50
  -4   3 -10    2.70    3.40
  -4   3 -10    3.90    3.00
   4   3  10   -0.10    2.80
  -4   3 -10   -0.50    3.10
  -4  -3 -10    2.40    3.30
   4  -3  10    0.60    2.80
  -4  -3 -10   -1.30    4.20
  -4  -3 -10    0.30    5.20
  -4   3 -11   13.80    3.60
  -4   3 -11   16.70    4.30
   4   3  11   13.00    3.70
  -4   3 -11   27.40    4.30
  -4  -3 -11   12.90    3.90
  -4  -3 -11   17.20    5.20
   4  -3  11   12.30    3.60
  -4  -3 -11   14.70    6.20
  -4   3 -12   41.90    5.80
   4   3  12   58.89    6.10
  -4   3 -12   44.60    5.30
  -4   3 -12   47.90    5.40
  -4  -3 -12   37.90    8.20
  -4  -3 -12   54.99    6.90
   4  -3  12   43.00    5.40
  -4  -3 -12   44.60    5.50
  -4   3 -13    7.00    3.30
   4   3  13    9.00    4.00
  -4   3 -13    8.70    4.30
  -4  -3 -13    8.50    5.80
  -4  -3 -13  -10.70    6.00
  -4  -3 -13    2.50    3.90
   4  -3  13    4.00    3.50
   4   4 -13   83.29    7.50
  -4   4  13   79.79    7.90
   4   4 -13   65.99    7.60
   4  -4 -13   77.19   10.10
  -4  -4  13   78.69    7.70
   4  -4 -13   73.09    8.40
   4  -4 -13   70.19    7.30
  -4   4  12   22.90    4.30
   4   4 -12   21.10    4.00
   4   4 -12   19.80    4.50
   4  -4 -12   20.10    6.60
   4  -4 -12   17.20    4.60
  -4  -4  12   25.90    4.40
   4  -4 -12   20.60    6.00
   4   4 -11   44.60    5.20
   4   4 -11   29.90    4.10
  -4   4  11   29.70    4.30
   4  -4 -11   34.30    6.70
   4  -4 -11   26.50    4.70
   4  -4 -11   30.20    5.80
  -4  -4  11   35.20    4.70
  -4   4  10    1.80    2.60
   4   4 -10    3.00    3.40
   4   4 -10    0.00    2.70
   4  -4 -10   -0.10    4.30
  -4  -4  10   -0.90    2.70
   4  -4 -10    5.00    4.90
   4  -4 -10   -2.30    3.50
  -4   4   9   -4.60    2.40
   4   4  -9    2.70    3.10
   4   4  -9   -2.90    2.40
   4  -4  -9   -4.30    4.00
  -4  -4   9    0.30    2.60
   4  -4  -9   -2.30    4.50
   4  -4  -9   -2.20    3.10
   4   4  -8   39.40    4.60
  -4   4   8   39.00    3.90
   4   4  -8   35.10    3.40
  -4  -4   8   30.90    2.70
  -4  -4   8   27.50    3.40
  -4  -4   8   41.10    4.10
  -4  -4   8   36.10    3.20
   4  -4  -8   35.20    5.20
   4  -4  -8   39.30    5.90
   4  -4  -8   32.50    4.10
   4   4  -7  112.89    7.00
  -4   4   7  116.79    7.30
   4   4  -7  109.49    8.00
  -4  -4   7  114.09    6.70
  -4  -4   7  115.29    7.10
   4  -4  -7  111.49    7.80
   4  -4  -7  124.49    9.40
   4  -4  -7  117.89    8.60
  -4  -4   7  117.29    7.60
   4   4  -6  105.59    6.70
  -4   4   6  129.79    7.20
   4   4  -6  118.99    7.90
   4  -4  -6  111.99    7.30
  -4  -4   6  112.79    7.40
   4  -4  -6  121.49    9.20
   4  -4  -6  110.99    7.90
  -4  -4   6  118.99    7.00
   4  -4  -6  124.39    7.60
  -4  -4   6  114.89    6.60
   4   4  -5    1.30    1.80
  -4   4   5   -1.00    1.50
   4   4  -5    1.50    1.20
   4   4  -5    1.10    2.50
  -4  -4   5   -1.00    1.70
   4  -4  -5   -1.50    3.30
   4  -4  -5   -1.40    2.20
  -4  -4   5    0.60    1.70
   4  -4  -5   -1.80    2.70
  -4  -4   5    0.50    1.80
  -4  -4   5   -2.60    1.70
   4  -4  -5    1.50    1.70
   4  -4  -5   -5.50    2.00
  -4  -4   5   -0.70    1.00
   4   4  -4   17.40    3.00
   4   4  -4   17.70    2.30
  -4   4   4   18.60    2.40
  -4   4   4   18.80    2.20
   4   4  -4   20.60    1.60
  -4  -4   4   17.00    2.40
  -4  -4   4   21.00    2.90
   4  -4  -4   15.70    2.50
   4  -4  -4   17.40    2.10
   4  -4  -4   17.40    3.20
   4  -4  -4   14.60    2.90
  -4  -4   4   19.20    2.30
   4  -4  -4   15.80    2.40
   4  -4  -4   17.30    3.80
  -4  -4   4   14.80    1.40
   4   4  -3  138.09    8.40
  -4   4   3  140.79    7.40
  -4   4   3  132.99    8.20
   4  -4  -3  134.99    8.40
  -4  -4   3  135.29    8.30
   4  -4  -3  133.19    7.30
  -4  -4   3  138.59    7.60
   4  -4  -3  138.89    7.90
   4  -4  -3  129.19    7.70
  -4  -4   3  121.39    7.80
  -4   4   2   21.50    2.10
  -4   4   2   19.90    2.90
   4   4  -2   23.30    3.30
  -4  -4   2   17.90    3.00
   4  -4  -2   22.60    3.10
  -4  -4   2   20.60    2.10
   4  -4  -2   23.00    2.50
   4  -4  -2   18.00    2.20
  -4  -4   2   18.30    2.70
   4  -4  -2   19.70    3.00
  -4  -4   2   18.10    1.70
   4   4  -1  248.48   13.50
  -4   4   1  275.97   13.10
  -4   4   1  267.87   14.10
   4   4  -1  260.57   14.20
  -4  -4   1  256.27   13.90
   4  -4  -1  230.48   13.50
  -4  -4   1  267.77   13.40
  -4  -4   1  265.27   13.40
   4  -4  -1  253.87   13.60
  -4  -4   1  265.97   14.60
   4  -4  -1  241.18   14.10
  -4   4   0    5.00    1.00
  -4   4   0    4.80    1.50
   4   4   0    4.30    1.80
  -4   4   0    4.20    2.50
   4   4   0    3.40    0.80
   4   4   0    5.50    2.70
  -4  -4   0    3.10    2.00
  -4  -4   0    2.00    1.20
   4  -4   0    3.00    1.40
  -4  -4   0    4.10    1.80
  -4  -4   0    3.50    0.80
   4  -4   0    3.00    2.20
  -4  -4   0    2.70    2.70
  -4   4  -1  186.98    8.90
   4   4   1  172.38    9.50
   4   4   1  169.38    8.90
  -4   4  -1  181.68    9.90
  -4   4  -1  176.68    9.20
   4   4   1  161.78   10.60
  -4  -4  -1  169.58    9.00
  -4  -4  -1  175.38    9.50
  -4  -4  -1  157.78    8.80
   4  -4   1  155.38    9.00
  -4  -4  -1  157.68    9.70
  -4  -4  -1  177.68   10.80
   4  -4   1  146.69    9.60
  -4   4  -2   61.29    4.00
   4   4   2   62.59    4.70
   4   4   2   54.09    5.80
  -4   4  -2   58.59    5.00
   4   4   2   60.89    4.00
  -4   4  -2   60.99    4.30
  -4  -4  -2   55.99    5.10
  -4  -4  -2   63.69    4.10
   4  -4   2   54.19    5.80
  -4  -4  -2   63.09    6.40
   4  -4   2   58.89    3.90
  -4  -4  -2   64.09    4.10
   4  -4   2   59.49    5.00
  -4  -4  -2   64.09    5.10
   4  -4   2   61.29    4.00
  -4   4  -3   50.39    4.10
   4   4   3   56.79    4.50
   4   4   3   56.99    3.90
  -4   4  -3   56.19    5.00
  -4   4  -3   57.79    4.00
   4  -4   3   51.49    3.70
   4  -4   3   51.19    4.30
  -4  -4  -3   50.89    3.90
  -4  -4  -3   50.19    4.00
   4  -4   3   52.59    5.40
  -4  -4  -3   52.59    4.90
   4  -4   3   50.19    3.80
  -4  -4  -3   57.39    6.30
   4   4   4   34.20    3.40
  -4   4  -4   36.60    3.50
  -4   4  -4   47.10    3.60
  -4   4  -4   44.20    4.70
   4   4   4   28.40    3.00
  -4  -4  -4   36.80    5.10
   4  -4   4   31.40    3.50
  -4  -4  -4   29.40    3.00
  -4  -4  -4   32.30    3.80
   4  -4   4   28.20    3.00
  -4  -4  -4   31.00    3.00
   4  -4   4   31.30    3.30
   4  -4   4   36.00    5.00
  -4   4  -5   17.50    3.40
  -4   4  -5   17.40    2.70
   4   4   5   18.00    2.60
  -4   4  -5   18.90    2.50
   4  -4   5   19.20    2.30
  -4  -4  -5   20.30    2.60
   4  -4   5   20.40    2.70
   4  -4   5   16.90    2.40
   4  -4   5   17.40    3.40
  -4  -4  -5   21.60    2.80
  -4   4  -6   32.20    3.20
   4   4   6   35.10    3.60
  -4   4  -6   43.20    4.60
   4  -4   6   27.00    3.20
  -4  -4  -6   32.00    3.60
  -4  -4  -6   39.60    5.80
  -4  -4  -6   35.50    4.50
   4  -4   6   32.50    3.50
   4   4   7   44.70    4.80
  -4   4  -7   59.19    6.10
  -4   4  -7   50.19    4.60
  -4  -4  -7   58.99    6.40
  -4  -4  -7   46.80    4.40
   4  -4   7   36.90    3.60
  -4  -4  -7   66.59    7.80
   4  -4   7   43.20    4.80
  -4   4  -8    7.60    3.50
   4   4   8    4.40    2.80
  -4   4  -8    4.10    2.70
   4  -4   8    4.10    2.60
  -4  -4  -8   22.90    5.60
  -4  -4  -8    5.80    3.10
  -4  -4  -8   14.50    4.20
   4   4   9   48.70    5.10
  -4   4  -9   50.79    6.50
  -4   4  -9   44.40    5.70
  -4   4  -9   43.60    4.60
  -4  -4  -9   55.69    5.30
   4  -4   9   53.59    5.30
  -4  -4  -9   63.09    7.80
  -4  -4  -9   45.70    5.80
  -4   4 -10    5.10    4.20
  -4   4 -10    5.50    3.10
  -4   4 -10    8.70    3.40
  -4   4 -10   10.40    4.00
   4   4  10    9.20    3.30
  -4  -4 -10    8.70    4.70
   4  -4  10   11.60    3.30
  -4  -4 -10    6.10    3.60
  -4  -4 -10    8.10    5.80
  -4   4 -11   20.40    4.50
  -4   4 -11   14.90    4.80
  -4   4 -11   22.60    3.60
   4   4  11   17.80    4.10
  -4   4 -11   13.80    3.60
  -4  -4 -11   15.80    6.30
  -4  -4 -11   22.00    4.20
  -4  -4 -11   21.40    5.40
   4  -4  11   13.90    3.80
   4   4  12   15.10    4.30
  -4   4 -12   13.30    4.70
  -4   4 -12    9.40    3.40
  -4   4 -12   15.50    3.90
  -4  -4 -12    1.50    6.70
   4  -4  12    9.60    3.90
  -4  -4 -12   14.10    6.20
  -4  -4 -12   16.50    4.30
   4   4  13   18.10    4.80
  -4   4 -13   22.90    5.20
  -4   4 -13   20.60    4.20
  -4  -4 -13   22.00    5.00
  -4  -4 -13   20.00    6.90
   4  -4  13   15.60    4.70
  -4  -4 -13    8.60    7.40
   4   5 -12    6.00    2.50
   4   5 -12   11.80    4.10
  -4   5  12   12.70    3.80
   4  -5 -12    8.50    4.20
   4  -5 -12   17.40    6.70
  -4  -5  12    4.60    3.90
   4  -5 -12    3.00    5.50
  -4   5  11    9.00    3.30
   4   5 -11   11.80    4.20
   4   5 -11   11.80    3.20
   4  -5 -11    7.80    5.70
  -4  -5  11   11.90    3.60
   4  -5 -11   12.20    5.60
   4  -5 -11   11.80    4.20
   4   5 -10    6.60    2.60
  -4   5  10   12.40    3.10
   4  -5 -10    4.00    4.90
   4  -5 -10    5.10    5.40
   4  -5 -10    2.00    3.70
  -4   5   9  108.39    8.00
   4   5  -9  110.99    7.40
   4   5  -9  144.09    9.30
   4  -5  -9  119.29    9.90
  -4  -5   9  131.99    8.40
   4  -5  -9  103.09   10.70
   4  -5  -9  112.09    8.60
   4   5  -8   10.30    3.80
   4   5  -8    5.70    2.30
  -4   5   8   18.70    2.90
   4  -5  -8    6.10    3.40
   4  -5  -8    8.20    5.10
   4  -5  -8   27.10    4.80
  -4  -5   8    6.90    2.80
  -4   5   7    3.40    2.20
   4   5  -7    3.10    1.80
   4  -5  -7    5.40    2.90
   4  -5  -7    1.00    4.60
   4  -5  -7    4.90    4.00
   4   5  -6   15.90    1.80
  -4   5   6   19.10    2.50
   4   5  -6   14.70    3.50
   4  -5  -6   16.80    5.00
   4  -5  -6    9.60    2.80
   4  -5  -6   13.90    4.00
  -4  -5   6   19.90    3.10
   4  -5  -6   12.50    2.40
  -4  -5   6   13.10    1.60
  -4  -5   6   20.50    2.70
   4   5  -5    6.00    3.00
  -4   5   5    4.60    1.70
   4   5  -5    3.30    2.00
   4   5  -5    3.00    1.10
   4  -5  -5    3.90    2.40
  -4  -5   5    2.50    0.90
  -4  -5   5    5.00    2.10
  -4  -5   5    3.60    2.40
   4  -5  -5    4.20    1.80
   4  -5  -5    3.70    3.10
   4  -5  -5    6.90    4.20
   4   5  -4   12.40    3.30
  -4   5   4   13.70    1.80
   4   5  -4   11.30    2.00
   4  -5  -4    8.70    4.20
  -4  -5   4   10.30    2.80
  -4  -5   4   16.80    2.10
   4  -5  -4    8.00    2.20
   4  -5  -4   10.40    3.20
   4  -5  -4   11.30    1.80
  -4   5   3   24.00    3.40
   4   5  -3   22.20    2.30
  -4   5   3   21.80    2.20
   4   5  -3   21.60    3.50
   4  -5  -3   21.90    2.40
  -4  -5   3   19.90    2.00
   4  -5  -3   24.40    2.30
   4  -5  -3   22.90    3.40
   4  -5  -3   21.80    2.60
  -4  -5   3   26.40    2.70
  -4  -5   3   23.60    3.50
  -4   5   2  126.49    6.60
  -4   5   2  121.39    8.10
   4   5  -2  135.49    8.30
   4  -5  -2  114.39    7.20
  -4  -5   2  130.99    7.00
   4  -5  -2  112.69    8.00
  -4  -5   2  131.29    8.40
   4  -5  -2  114.79    7.40
  -4  -5   2  141.19    7.00
  -4   5   1  227.98   12.70
   4   5  -1  224.48   12.80
   4  -5  -1  218.48   11.90
  -4  -5   1  214.48   13.10
   4  -5  -1  239.28   12.60
  -4  -5   1  224.68   11.80
  -4  -5   1  217.58   11.60
   4  -5  -1  216.28   11.90
  -4   5   0   44.40    4.90
  -4   5   0   43.70    3.60
   4  -5   0   45.00    3.50
  -4   5  -1  184.08   10.10
   4   5   1  179.78   10.20
  -4   5  -1  186.38   10.50
  -4   5  -1  189.88   11.40
   4   5   1  195.38   10.90
  -4  -5  -1  214.78   10.20
   4  -5   1  183.98   10.50
  -4  -5  -1  232.48   10.40
  -4   5  -2   70.49    5.30
  -4   5  -2   58.19    3.90
   4   5   2   52.59    3.60
   4   5   2   46.80    4.30
  -4  -5  -2   43.50    6.30
   4  -5   2   48.30    3.60
  -4  -5  -2   49.90    3.60
  -4  -5  -2   46.70    3.60
  -4  -5  -2   46.00    4.80
  -4   5  -3    8.70    1.70
  -4   5  -3    4.00    1.70
   4   5   3    1.40    1.60
  -4   5  -3    4.50    2.70
  -4  -5  -3   13.30    3.10
  -4  -5  -3    8.50    1.70
   4  -5   3    1.20    1.30
  -4  -5  -3    4.00    1.70
   4  -5   3    3.90    1.50
   4   5   4   33.10    3.10
  -4   5  -4   48.30    3.70
   4  -5   4   35.70    3.50
   4  -5   4   35.00    3.70
  -4  -5  -4   29.90    3.00
  -4  -5  -4   32.50    3.10
   4  -5   4   37.60    3.20
  -4  -5  -4   36.40    5.60
  -4  -5  -4   34.70    4.20
  -4   5  -5  103.89    7.60
   4   5   5   98.09    6.60
  -4   5  -5   95.19    6.50
  -4   5  -5   93.79    6.40
  -4  -5  -5  109.09    6.60
   4  -5   5   91.59    6.50
   4  -5   5   92.69    6.20
   4  -5   5   97.89    6.50
  -4  -5  -5  114.09    6.70
  -4  -5  -5  132.99    9.60
  -4  -5  -5  122.79    7.90
   4   5   6   14.10    2.70
  -4   5  -6   19.00    2.70
  -4   5  -6   19.70    4.00
  -4  -5  -6   20.30    4.90
  -4  -5  -6   19.80    3.10
   4  -5   6   17.40    2.80
  -4  -5  -6   21.00    4.20
   4  -5   6   12.70    2.30
  -4   5  -7   15.50    2.80
  -4   5  -7   16.00    4.00
   4   5   7   14.70    2.90
  -4  -5  -7   25.00    4.60
   4  -5   7   18.50    3.00
  -4  -5  -7   15.40    3.10
  -4  -5  -7   24.00    6.00
  -4   5  -8    4.50    3.60
  -4   5  -8   -0.20    2.50
   4   5   8   -2.40    2.50
  -4  -5  -8   -4.60    2.70
  -4  -5  -8   -0.40    4.30
   4  -5   8    1.80    2.50
  -4  -5  -8    4.70    5.60
  -4   5  -9    9.00    4.20
  -4   5  -9    5.70    2.80
   4   5   9    8.20    3.10
  -4  -5  -9    5.10    3.40
  -4  -5  -9    5.40    4.60
  -4  -5  -9    7.50    6.00
   4  -5   9    5.90    2.90
  -4   5 -10   62.09    6.20
  -4   5 -10   66.69    7.30
   4   5  10   64.09    6.50
  -4  -5 -10   65.19    9.00
   4  -5  10   60.19    6.40
  -4  -5 -10   67.09    7.30
  -4  -5 -10   63.39    6.20
  -4   5 -11   25.40    5.10
  -4   5 -11   16.60    3.80
   4   5  11   15.00    3.90
  -4  -5 -11   19.40    4.40
   4  -5  11   15.30    3.90
  -4  -5 -11    8.50    6.90
  -4  -5 -11   16.30    5.90
  -4   5 -12   27.10    4.50
   4   5  12   29.10    4.80
  -4   5 -12   27.10    5.50
  -4  -5 -12   27.70    4.70
   4  -5  12   27.90    5.20
  -4  -5 -12   26.40    7.90
  -4  -5 -12   29.30    6.80
   4   6 -12   11.80    4.70
  -4  -6  12   11.30    4.20
  -4   6  11   21.10    3.90
   4   6 -11   16.50    4.90
   4  -6 -11   20.70    6.80
   4  -6 -11   16.00    4.60
  -4  -6  11   12.80    3.90
   4  -6 -11   16.80    6.10
  -4   6  10    4.50    2.90
   4   6 -10    3.30    4.10
   4  -6 -10    4.50    5.80
   4  -6 -10   -0.50    4.90
  -4  -6  10    5.60    3.10
   4  -6 -10    1.60    3.70
   4   6  -9   59.09    7.20
  -4   6   9   68.89    5.80
  -4  -6   9   72.79    6.40
   4  -6  -9   73.69    7.60
   4  -6  -9   70.99    9.50
   4  -6  -9   65.69    6.60
   4   6  -8  451.55   23.50
  -4   6   8  412.86   22.40
   4  -6  -8  398.36   22.80
   4  -6  -8  416.66   23.80
  -4  -6   8  445.06   22.70
   4  -6  -8  407.56   25.00
  -4   6   7  122.29    7.00
   4   6  -7   92.99    6.10
   4   6  -7   87.49    8.30
   4  -6  -7  131.69    9.40
   4  -6  -7  126.19   10.10
  -4  -6   7  102.59    7.20
   4  -6  -7  110.99    7.70
  -4  -6   7   98.09    7.90
   4   6  -6   66.39    4.30
   4   6  -6   78.19    7.00
  -4  -6   6   83.49    5.70
   4  -6  -6   60.49    5.00
  -4  -6   6   76.29    6.70
  -4   6   5   84.49    5.20
   4   6  -5   80.09    5.80
   4   6  -5   70.29    7.30
   4  -6  -5   83.89    6.20
   4  -6  -5   91.69    9.30
   4  -6  -5   88.79    7.60
  -4  -6   5   76.99    6.80
   4  -6  -5   77.59    5.40
  -4  -6   5   96.49    5.70
   4   6  -4  461.35   24.90
   4   6  -4  512.65   26.00
  -4   6   4  464.45   24.50
   4  -6  -4  475.45   25.20
   4  -6  -4  477.35   25.90
  -4  -6   4  534.35   24.90
   4  -6  -4  419.66   24.60
  -4  -6   4  516.15   24.40
  -4  -6   4  465.55   26.00
   4  -6  -4  503.65   27.40
   4   6  -3    1.30    3.30
  -4   6   3    2.60    3.00
  -4  -6   3    3.70    1.50
   4  -6  -3   -0.10    2.00
  -4  -6   3    6.30    3.00
  -4  -6   3    3.20    1.40
   4  -6  -3    1.00    3.10
   4  -6  -3    3.10    4.40
   4   6  -2   10.70    3.60
  -4   6   2   13.20    3.30
  -4  -6   2    8.80    1.60
  -4  -6   2    9.90    1.80
   4  -6  -2    7.90    2.10
  -4  -6   2    6.40    3.20
   4  -6  -2    7.10    1.90
   4  -6  -2    6.70    3.10
  -4   6   1   48.80    5.80
  -4  -6   1   60.59    3.70
   4   6   0   49.90    5.10
   4  -6   0   40.80    3.40
  -4  -6   0   30.70    2.80
   4  -6   0   47.50    3.60
   4  -6   0   52.29    4.80
  -4  -6   0   37.10    2.80
  -4  -6   0   41.60    5.40
  -4  -6   0   38.50    4.10
   4   6   1    0.50    2.00
  -4   6  -1    1.70    1.60
  -4  -6  -1    1.90    0.90
  -4  -6  -1    2.60    1.30
  -4  -6  -1    5.90    2.50
  -4  -6  -1    0.40    1.20
  -4  -6  -1    2.90    1.10
   4  -6   1    2.50    1.50
  -4  -6  -1    4.70    3.80
  -4   6  -2    0.10    1.00
  -4   6  -2    0.50    1.70
   4   6   2    1.00    1.30
  -4   6  -2    0.80    2.90
  -4  -6  -2    3.50    1.40
  -4  -6  -2    4.30    2.80
  -4  -6  -2    3.20    4.00
  -4  -6  -2    0.70    1.40
   4  -6   2    2.10    1.30
  -4   6  -3   13.10    2.10
  -4   6  -3   13.50    1.80
  -4   6  -3   17.10    3.80
   4   6   3   13.20    2.00
  -4  -6  -3   15.00    2.00
   4  -6   3    8.50    1.80
  -4  -6  -3   15.20    4.80
  -4  -6  -3   17.80    3.70
  -4  -6  -3   12.70    2.10
  -4   6  -4   17.80    4.00
  -4   6  -4   15.50    2.30
  -4   6  -4   14.80    2.20
   4   6   4   14.70    2.40
   4  -6   4   14.00    2.10
  -4  -6  -4   14.90    2.40
  -4  -6  -4   15.10    3.70
   4  -6   4   11.40    1.90
   4  -6   4   11.20    2.10
  -4  -6  -4   14.50    5.00
  -4  -6  -4   15.70    2.20
  -4   6  -5  157.78    9.50
  -4   6  -5  164.28   10.90
  -4   6  -5  157.18    9.40
   4  -6   5  158.28    9.50
  -4  -6  -5  181.58    9.70
  -4  -6  -5  157.28    9.50
  -4  -6  -5  175.08   10.80
  -4  -6  -5  179.98   12.70
  -4   6  -6   43.40    4.20
   4   6   6   35.40    3.70
  -4   6  -6   46.20    5.50
  -4  -6  -6   33.60    3.80
  -4  -6  -6   36.10    5.10
   4  -6   6   33.70    3.60
  -4  -6  -6   42.70    7.10
  -4   6  -7   19.50    2.90
   4   6   7   13.10    2.90
  -4   6  -7   14.40    4.20
  -4  -6  -7   14.70    4.60
  -4  -6  -7   21.70    6.50
   4  -6   7   14.70    3.00
  -4  -6  -7   20.00    3.40
  -4   6  -8   12.10    4.20
  -4   6  -8    9.50    2.70
   4   6   8    4.00    2.80
  -4  -6  -8    4.40    3.20
  -4  -6  -8    7.70    6.10
  -4  -6  -8    6.70    4.50
   4  -6   8    4.00    2.90
  -4   6  -9  109.19    9.20
   4   6   9   98.39    7.70
  -4   6  -9  100.09    7.30
  -4  -6  -9   92.59    9.30
  -4  -6  -9   88.89    7.70
   4  -6   9  105.29    7.90
  -4  -6  -9  109.59   11.30
   4   6  10   66.19    6.50
  -4   6 -10   55.99    6.90
  -4   6 -10   61.29    6.10
   4  -6  10   64.49    6.60
  -4  -6 -10   65.79    6.20
  -4  -6 -10   59.19    9.00
  -4  -6 -10   56.99    7.10
  -4   6 -11    0.00    3.20
  -4   6 -11    1.70    4.20
   4   6  11    6.00    3.40
   4  -6  11   -0.40    3.40
  -4  -6 -11   12.20    7.00
  -4  -6 -11    7.50    5.50
  -4  -6 -11    9.30    3.90
   4   7 -10   25.30    5.60
   4  -7 -10   30.70    7.50
   4  -7 -10   26.20    4.90
  -4  -7  10   23.50    4.20
   4  -7 -10   28.30    6.60
   4   7  -9    4.50    4.40
   4  -7  -9   10.20    6.40
   4  -7  -9    6.60    3.90
   4  -7  -9    3.40    5.50
  -4  -7   9    9.60    3.20
   4   7  -8   25.30    5.20
  -4  -7   8   21.80    3.50
   4  -7  -8   18.80    5.60
   4  -7  -8   21.60    4.00
   4  -7  -8   24.70    6.70
   4   7  -7  128.59    9.80
   4  -7  -7  106.59   11.80
   4  -7  -7  125.89   10.20
  -4  -7   7  123.19    8.20
  -4  -7   7  132.49    9.20
   4  -7  -7  119.39    8.60
   4  -7  -6   95.29   10.70
   4  -7  -6   87.99    7.10
   4  -7  -6   98.69    9.00
   4   7  -5   36.00    5.20
   4  -7  -5   31.30    3.90
  -4  -7   5   36.60    5.10
  -4  -7   5   37.40    3.70
   4  -7  -5   31.30    5.20
   4  -7  -5   35.90    6.90
   4   7  -4   11.40    4.20
   4  -7  -4   12.70    4.10
  -4  -7   4   10.10    2.00
  -4  -7   4   11.70    3.90
   4  -7  -4   13.90    5.70
   4  -7  -4   11.00    2.80
  -4   7   3    0.30    3.60
   4  -7  -3    2.10    4.80
   4  -7  -3    2.20    2.10
   4  -7  -3    1.00    3.50
   4   7  -2  113.59    8.00
  -4   7   2   69.89    7.50
   4  -7  -2   73.09    6.00
   4  -7  -2   74.69    9.50
  -4  -7   2  111.29    8.20
  -4  -7   2   90.59    5.10
   4  -7  -2   69.89    7.40
   4   7  -1   16.80    4.40
  -4   7   1   33.10    4.60
  -4  -7   1   14.60    1.60
  -4  -7   1   16.90    2.70
   4  -7  -1   15.90    2.40
   4  -7  -1   22.40    4.00
  -4  -7   1   10.50    1.50
   4  -7  -1   13.40    2.20
  -4  -7   1   20.10    4.50
   4   7   0   35.10    5.00
  -4   7   0   27.60    4.70
   4  -7   0   24.50    2.90
  -4  -7   0   34.70    3.60
   4  -7   0   33.40    4.20
  -4  -7   0   28.20    5.40
   4  -7   0   21.70    2.60
  -4   7  -1   28.60    4.70
   4  -7   1   20.70    3.60
   4  -7   1   17.70    2.50
   4  -7   1   16.60    2.20
  -4  -7  -1   27.50    2.20
  -4   7  -2  210.68   10.20
  -4  -7  -2  158.78   12.40
  -4  -7  -2  170.88   11.10
   4  -7   2  180.88    9.90
  -4  -7  -2  183.98    9.80
  -4   7  -3   31.20    4.80
  -4   7  -3   27.30    2.80
  -4  -7  -3   20.70    2.50
  -4  -7  -3   24.50    4.30
  -4  -7  -3   23.60    6.00
  -4   7  -4    6.30    2.00
   4   7   4   -0.50    0.90
  -4   7  -4    6.50    3.80
  -4  -7  -4   -0.30    5.10
  -4  -7  -4   -2.30    3.60
  -4  -7  -4    1.20    2.00
  -4   7  -5   10.10    2.30
  -4   7  -5   10.30    4.10
  -4  -7  -5   11.50    5.80
  -4  -7  -5   14.10    2.60
   4  -7   5   11.20    2.20
  -4  -7  -5   11.10    4.30
  -4   7  -6    2.30    2.20
  -4   7  -6    3.40    4.00
  -4  -7  -6    1.00    2.60
   4  -7   6   -0.60    2.00
  -4  -7  -6   -2.30    5.30
  -4  -7  -6    1.00    4.20
  -4   7  -7   40.00    5.80
  -4   7  -7   30.30    3.50
  -4  -7  -7   41.80    5.90
   4  -7   7   24.90    3.50
  -4  -7  -7   33.50    4.00
  -4  -7  -7   28.40    7.00
  -4   7  -8   17.00    4.90
   4   7   8    6.10    2.80
  -4   7  -8    4.00    2.00
  -4  -7  -8    8.00    5.30
   4  -7   8    1.80    2.00
  -4  -7  -8    3.10    3.20
  -4  -7  -8    5.10    6.40
  -4   7  -9   15.30    5.00
   4   7   9   -0.40    1.40
  -4  -7  -9    5.40    3.50
  -4  -7  -9    9.10    6.80
  -4  -7  -9   -0.60    5.30
  -4   7 -10   21.90    5.40
  -4  -7 -10   23.10    7.80
  -4  -7 -10   22.70    6.50
  -4  -7 -10   23.50    4.50
   4   8  -9    7.40    4.80
   4  -8  -9   -1.90    6.60
   4  -8  -9   -4.10    5.90
   4  -8  -9   -1.80    3.70
   4  -8  -8    7.60    5.80
   4  -8  -8   14.60    7.30
   4  -8  -8   16.80    4.20
   4   8  -7    0.80    4.40
   4  -8  -7   -6.30    2.90
  -4  -8   7   -0.50    1.80
   4  -8  -7    2.00    5.40
   4  -8  -7    3.70    5.40
   4   8  -6    9.00    4.90
   4  -8  -6    5.00    6.40
  -4  -8   6   13.80    4.30
   4  -8  -6    6.70    3.30
   4  -8  -6   -5.20    4.70
   4   8  -5   38.00    6.30
   4  -8  -5   52.49    6.40
   4  -8  -5   38.90    7.20
   4  -8  -5   44.60    4.40
  -4  -8   5   45.20    6.60
   4   8  -4    4.80    4.40
   4  -8  -4    5.20    5.90
  -4  -8   4    5.50    3.80
   4  -8  -4    4.30    4.50
   4  -8  -4    4.80    2.60
   4   8  -3   -2.10    4.20
   4  -8  -3    3.00    4.10
  -4  -8   3   -1.30    3.70
   4  -8  -3    6.50    5.60
   4  -8  -3   -0.90    2.10
   4   8  -2    3.00    4.30
  -4   8   2    2.20    4.00
   4  -8  -2   -2.70    3.50
  -4  -8   2    3.50    3.90
   4  -8  -2    2.70    2.10
   4  -8  -2    2.80    4.80
  -4  -8   2   -0.80    1.90
  -4   8   1   12.90    4.40
   4   8  -1   13.50    4.80
   4  -8  -1   15.00    2.50
  -4  -8   1   23.70    3.10
   4  -8  -1   14.40    4.20
   4  -8  -1   11.10    5.40
  -4   8   0   64.49    7.70
   4  -8   0   78.69    7.10
   4  -8   0   79.89    5.40
  -4  -8   0   81.09    6.40
  -4  -8   0   69.59    8.40
  -4   8  -1   17.80    4.80
   4  -8   1   10.70    2.30
  -4  -8  -1   26.60    5.60
   4  -8   1   17.50    3.90
  -4  -8  -1   22.60    3.80
  -4   8  -2   28.70    5.20
  -4  -8  -2   20.60    4.30
  -4  -8  -2   22.60    6.00
   4  -8   2   26.40    4.10
  -4   8  -3    1.50    1.10
   4  -8   3    5.10    3.10
  -4  -8  -3   -2.10    5.10
  -4  -8  -3   -9.20    3.40
  -4   8  -4  108.79    9.30
  -4  -8  -4  100.19   11.00
  -4  -8  -4   82.19    8.60
  -4   8  -5    4.60    4.30
  -4  -8  -5    1.50    4.20
  -4  -8  -5   -2.40    5.00
  -4  -8  -5   -2.40    1.20
  -4   8  -6    3.30    4.50
  -4  -8  -6   -2.50    4.60
  -4  -8  -6   -1.30    2.10
  -4  -8  -6   -4.60    5.80
  -4   8  -7   28.20    5.60
  -4  -8  -7   11.70    6.90
  -4  -8  -7   18.40    5.50
  -4  -8  -7   11.70    3.10
  -4   8  -8   17.30    5.20
  -4  -8  -8    3.40    3.40
  -4  -8  -8    2.80    5.50
  -4  -8  -8    2.70    6.60
  -4   8  -9    8.70    4.90
   4   9  -7    4.80    5.00
   4  -9  -7    0.60    6.20
   4  -9  -7   -0.20    3.00
   4  -9  -7    1.80    6.50
   4   9  -6   11.10    5.50
   4  -9  -6   10.10    6.00
   4  -9  -6    7.80    6.90
   4  -9  -6    6.10    2.30
   4   9  -5   -0.10    4.80
  -4  -9   5   -0.30    4.30
   4  -9  -5    2.70    5.00
   4  -9  -5   -1.70    6.30
   4  -9  -5   -1.50    1.20
   4   9  -4   17.20    5.50
   4  -9  -4   16.10    5.50
  -4  -9   4    7.30    4.40
   4  -9  -4   11.60    6.80
   4   9  -3   41.40    6.70
   4  -9  -3   36.10    6.10
  -4  -9   3   31.20    5.70
   4  -9  -3   49.70    8.50
   4   9  -2   18.20    5.40
  -4   9   2    9.80    5.10
   4  -9  -2   16.30    6.20
  -4  -9   2   27.40    5.50
   4  -9  -2   14.70    4.90
  -4   9   1   18.50    5.30
   4   9  -1   24.40    5.90
  -4  -9   1   24.60    5.70
   4  -9  -1   14.40    6.50
   4  -9  -1   15.20    4.50
  -4   9   0   16.70    5.30
   4  -9   0    6.70    4.20
   4  -9   0   15.80    6.40
  -4  -9   0   19.30    5.50
  -4   9  -1    9.40    5.00
  -4  -9  -1    1.10    4.80
   4  -9   1    2.20    3.80
  -4  -9  -1   -3.00    3.60
  -4   9  -2   31.20    5.70
   4  -9   2   28.80    4.60
  -4  -9  -2   25.90    6.60
  -4  -9  -2   20.20    4.80
  -4   9  -3   27.70    5.50
  -4  -9  -3   29.90    5.30
  -4  -9  -3   28.90    7.10
  -4   9  -4  113.49    9.80
  -4  -9  -4  100.39   11.80
  -4  -9  -4  103.59    9.40
  -4   9  -5   45.00    6.80
  -4  -9  -5   48.70    6.30
  -4  -9  -5   37.60    8.00
  -4  -9  -6   45.80    8.60
  -4  -9  -6   41.80    6.70
  -4   9  -7   10.20    5.30
   4  10  -4   19.70    6.50
   4 -10  -4   18.60    6.30
   4 -10  -4   12.80    6.70
  -4 -10   4   15.00    5.30
   4  10  -3   18.70    6.40
   4 -10  -3   19.50    7.60
   4 -10  -3   22.00    6.20
  -4 -10   3   23.30    5.60
   4  10  -2    4.50    5.50
   4 -10  -2   -4.10    5.00
  -4 -10   2    4.60    5.20
   4 -10  -2    2.20    6.40
  -4  10   1  145.09   12.80
   4 -10  -1  185.48   13.30
   4 -10  -1  181.78   15.20
  -4 -10   1  160.48   13.50
  -4  10   0   31.90    6.60
   4 -10   0   37.50    5.80
  -4 -10   0   28.90    7.30
   4 -10   0   35.10    7.90
  -4  10  -1   40.40    6.80
   4 -10   1   49.50    8.30
  -4 -10  -1   30.40    7.30
  -4  10  -2    7.80    5.10
   4 -10   2   17.90    6.60
  -4 -10  -2   23.30    6.80
  -4  10  -3   22.00    5.70
  -4 -10  -3   30.00    5.60
  -5   0  14   28.10    4.60
   5   0 -14   22.80    4.50
   5   0 -14   25.60    4.90
   5   0 -13    4.60    4.30
  -5   0  13   -1.50    2.90
   5   0 -13   -3.00    3.90
   5   0 -12  206.38   13.00
   5   0 -12  218.98   13.00
  -5   0  12  199.08   12.80
   5   0 -11   -3.50    2.60
   5   0 -11    0.80    3.20
  -5   0  11    1.10    2.60
   5   0 -11    0.30    3.60
   5   0 -10   16.80    3.70
   5   0 -10   14.30    3.40
   5   0 -10    8.20    2.90
  -5   0  10   12.70    3.00
   5   0  -9   -2.60    2.80
   5   0  -9   -3.30    2.20
   5   0  -9    0.60    2.70
  -5   0   9    1.10    2.30
  -5   0   8  715.03   39.30
   5   0  -8  720.33   39.20
   5   0  -8  864.91   39.10
  -5   0   8  729.93   39.10
   5   0  -8  779.12   39.20
   5   0  -7    2.00    2.40
   5   0  -7    0.40    1.80
  -5   0   7    0.90    1.50
   5   0  -7    0.90    2.30
  -5   0   7   -1.30    1.80
  -5   0   6  200.28   11.00
   5   0  -6  185.98   11.20
   5   0  -6  202.18   11.20
   5   0  -6  223.38   10.90
  -5   0   6  198.28   10.90
  -5   0   6  195.98   11.20
   5   0  -6  193.58   11.40
  -5   0   5   -1.50    1.90
   5   0  -5    0.90    2.20
  -5   0   5    0.00    1.40
   5   0  -5    0.20    2.00
   5   0  -5    1.40    2.00
   5   0  -5    0.00    1.50
   5   0  -4  531.95   26.80
   5   0  -4  508.95   26.80
  -5   0   4  534.85   26.80
   5   0  -4  521.85   27.00
  -5   0   4  525.15   26.90
   5   0  -4  528.25   26.70
   5   0  -3   -1.00    1.40
   5   0  -3    0.30    1.40
   5   0  -3   -1.80    1.60
  -5   0   3    0.10    1.50
   5   0  -3   -1.30    1.20
  -5   0   3   -0.80    1.20
   5   0  -2  159.28    8.30
   5   0  -2  143.19    8.40
   5   0  -2  145.59    8.30
  -5   0   2  148.19    8.30
  -5   0   2  169.78    8.40
  -5   0   2  165.08    8.20
   5   0  -2  153.48    8.30
   5   0  -1   -0.90    1.10
   5   0  -1    1.60    1.60
  -5   0   1   -0.30    1.10
  -5   0   1   -2.40    1.50
  -5   0   1   -0.30    1.30
  -5   0   0   45.90    3.10
   5   0   0   43.90    3.20
  -5   0   0   44.40    4.00
   5   0   0   41.10    3.00
   5   0   0   44.70    4.00
  -5   0  -1    1.00    1.20
   5   0   1    0.00    1.90
  -5   0  -1    0.00    1.30
  -5   0  -1    0.90    2.20
  -5   0  -1   -0.70    1.30
   5   0   1   -0.40    1.10
   5   0   1    0.40    1.40
  -5   0  -2 1523.25   78.59
   5   0   2 1601.64   79.19
   5   0   2 1452.85   78.59
  -5   0  -2 1598.04   79.09
   5   0   2 1526.45   78.49
   5   0   2 1496.45   78.59
  -5   0  -2 1670.73   78.59
  -5   0  -2 1647.74   78.49
   5   0   3    0.70    1.50
  -5   0  -3    0.10    1.60
  -5   0  -3   -0.90    1.50
   5   0   3   -0.20    1.50
   5   0   3   -0.90    1.30
  -5   0  -3   -0.70    1.80
  -5   0  -3    0.00    2.50
   5   0   3    0.60    2.20
   5   0   4  674.73   39.40
  -5   0  -4  741.13   38.90
   5   0   4  798.72   38.90
  -5   0  -4  848.72   38.90
   5   0   4  785.02   39.00
  -5   0  -4  726.03   38.90
  -5   0  -4  789.52   39.70
   5   0   4  755.52   39.00
   5   0   5    1.20    2.40
  -5   0  -5   -0.30    2.10
   5   0   5   -1.80    1.90
  -5   0  -5    4.20    3.40
   5   0   5    0.30    2.00
  -5   0  -5    0.10    2.10
  -5   0  -5   -0.50    2.30
   5   0   5    0.90    1.70
  -5   0  -6  951.90   45.90
  -5   0  -6  909.31   44.80
   5   0   6  888.01   45.60
   5   0   6  926.51   45.10
   5   0   6  782.42   44.90
  -5   0  -6  821.72   44.80
  -5   0  -7   -1.90    2.20
   5   0   7   -1.30    2.00
  -5   0  -7    0.00    3.30
  -5   0  -7   -1.50    2.40
  -5   0  -8  267.27   14.70
  -5   0  -8  262.17   14.80
  -5   0  -8  257.67   15.70
   5   0   8  264.67   14.90
  -5   0  -9    2.00    3.20
  -5   0  -9    0.90    2.80
  -5   0  -9   -1.00    3.90
   5   0   9   -0.70    2.50
   5   0  10  269.17   15.40
  -5   0 -10  236.38   16.10
  -5   0 -10  265.57   15.20
  -5   0 -10  288.17   15.70
  -5   0 -11   -1.20    3.50
  -5   0 -11    1.50    3.20
   5   0  11   -1.00    2.80
  -5   0 -11   -1.10    4.00
  -5   0 -12    4.00    3.50
   5   0  12    3.10    3.20
  -5   0 -12    2.70    4.50
  -5   0 -12    5.10    4.20
  -5   0 -13   -4.40    3.60
  -5   0 -13   -2.00    4.10
  -5   0 -13   -0.70    4.20
   5   0  13   -0.50    2.90
  -5   0 -14   76.79    7.30
  -5   1  14   77.29    7.40
   5   1 -14   70.19    6.80
   5  -1 -14   74.99    7.40
  -5  -1  14   67.49    7.20
   5  -1 -14   66.29    7.40
   5   1 -13    4.60    4.10
  -5   1  13    2.80    3.10
   5   1 -13    5.60    3.10
   5  -1 -13    9.40    4.60
  -5  -1  13    1.30    2.90
   5  -1 -13    3.30    4.00
   5   1 -12   61.39    6.20
  -5   1  12   69.59    6.50
   5   1 -12   70.29    6.30
  -5  -1  12   70.09    6.50
   5  -1 -12   59.89    6.10
   5  -1 -12   69.89    6.90
   5   1 -11   67.59    6.30
   5   1 -11   62.59    5.80
  -5   1  11   60.09    5.90
   5  -1 -11   41.10    5.20
   5  -1 -11   58.29    5.90
  -5  -1  11   60.39    5.90
   5  -1 -11   57.89    6.10
   5   1 -10   47.20    5.30
   5   1 -10   54.79    3.80
  -5   1  10   50.49    5.50
   5   1 -10   37.50    4.50
   5  -1 -10   55.99    6.10
   5  -1 -10   41.70    5.00
   5  -1 -10   49.20    5.70
  -5  -1  10   51.49    5.20
   5   1  -9   40.40    3.00
  -5   1   9   38.60    4.10
   5   1  -9   38.30    3.80
   5   1  -9   31.20    3.90
   5  -1  -9   30.70    4.30
  -5  -1   9   36.50    4.10
   5  -1  -9   27.20    3.80
  -5  -1   9   35.10    3.80
   5  -1  -9   34.10    5.00
   5   1  -8  299.27   15.30
  -5   1   8  271.67   15.50
   5   1  -8  282.37   15.50
   5   1  -8  299.07   14.60
   5  -1  -8  243.28   15.50
  -5  -1   8  273.27   15.00
  -5  -1   8  282.67   15.60
   5  -1  -8  308.57   15.80
   5  -1  -8  271.17   15.60
  -5   1   7   15.30    2.70
   5   1  -7   12.90    2.50
   5   1  -7   15.60    2.80
  -5   1   7   18.20    2.40
  -5  -1   7   17.70    2.20
  -5  -1   7   14.40    2.20
  -5  -1   7   14.40    2.50
   5  -1  -7   13.90    2.80
   5  -1  -7   10.40    3.00
   5  -1  -7   12.20    2.80
  -5   1   6   -1.20    1.80
  -5   1   6    0.20    1.70
   5   1  -6   -0.50    2.20
   5   1  -6   -1.60    1.90
   5   1  -6    1.70    1.80
  -5   1   6   -0.20    1.80
  -5  -1   6    1.00    1.30
  -5  -1   6    0.80    1.90
   5  -1  -6   -0.30    2.10
   5  -1  -6    0.90    2.10
   5  -1  -6    1.80    2.30
   5  -1  -6    2.20    2.30
  -5  -1   6   -0.30    1.40
   5   1  -5    1.00    2.00
   5   1  -5   -1.40    1.80
   5   1  -5   -0.40    1.60
  -5   1   5   -1.10    1.80
  -5   1   5    0.60    1.50
  -5  -1   5    0.80    1.30
   5  -1  -5    0.60    2.30
   5  -1  -5    1.10    2.10
  -5  -1   5    0.40    1.80
   5  -1  -5    1.60    2.20
   5  -1  -5    0.00    2.00
   5   1  -4  334.67   17.90
  -5   1   4  343.87   17.90
   5   1  -4  347.27   18.20
   5   1  -4  350.06   17.70
  -5   1   4  352.16   18.00
   5   1  -4  380.86   17.80
  -5  -1   4  345.57   18.10
   5  -1  -4  322.97   18.00
   5  -1  -4  336.07   18.10
   5  -1  -4  345.67   18.10
  -5  -1   4  347.87   17.80
  -5   1   3  589.94   29.10
   5   1  -3  546.55   29.20
  -5   1   3  559.94   29.20
   5   1  -3  606.44   28.90
   5   1  -3  580.84   29.10
   5   1  -3  521.55   28.80
   5  -1  -3  550.14   29.20
  -5  -1   3  578.84   29.00
   5  -1  -3  564.14   29.20
   5  -1  -3  606.34   28.90
  -5  -1   3  601.54   28.80
   5  -1  -3  572.94   29.20
  -5  -1   3  573.84   29.20
   5   1  -2    3.90    1.50
  -5   1   2    3.60    1.40
   5   1  -2    3.10    1.20
   5   1  -2    4.50    1.30
   5   1  -2    3.30    1.20
   5   1  -2    3.10    1.20
  -5   1   2    6.00    1.10
  -5   1   2    4.00    1.40
  -5  -1   2    4.60    1.10
   5  -1  -2    4.00    1.60
   5  -1  -2    3.70    1.40
   5  -1  -2    2.10    1.40
  -5  -1   2    3.00    1.50
  -5  -1   2    3.00    1.30
   5  -1  -2    2.80    1.20
  -5   1   1 1324.67   65.99
  -5   1   1 1344.37   65.99
   5   1  -1 1277.77   65.89
   5   1  -1 1290.57   65.79
   5   1  -1 1306.97   66.09
  -5   1   1 1391.06   65.89
  -5  -1   1 1374.76   65.89
  -5  -1   1 1340.47   65.79
   5  -1  -1 1223.98   65.89
   5  -1  -1 1278.17   66.29
  -5  -1   1 1349.56   65.99
  -5  -1   1 1237.98   66.09
   5  -1  -1 1346.37   65.89
  -5   1   0  984.10   46.60
   5   1   0  907.41   46.60
  -5   1   0  960.70   47.10
  -5   1   0  881.81   46.60
   5   1   0  965.10   47.00
   5   1   0  883.01   46.50
  -5  -1   0  981.70   46.50
   5  -1   0 1003.30   47.10
  -5  -1   0  891.81   46.60
  -5  -1   0  926.41   47.00
   5  -1   0  809.22   46.60
  -5   1  -1   66.69    4.20
  -5   1  -1   64.89    5.00
   5   1   1   68.69    4.00
   5   1   1   65.19    4.90
   5   1   1   66.89    4.10
  -5   1  -1   71.09    4.10
  -5  -1  -1   59.99    4.90
   5  -1   1   65.89    5.00
  -5  -1  -1   58.99    4.20
   5  -1   1   60.09    4.00
   5  -1   1   66.39    4.30
  -5  -1  -1   66.49    4.00
   5   1   2  137.59    9.00
  -5   1  -2  169.88    8.50
   5   1   2  164.08    8.60
  -5   1  -2  170.28    8.60
   5   1   2  161.98    8.30
  -5   1  -2  146.79    9.00
  -5   1  -2  156.78    8.40
   5   1   2  157.18    8.60
  -5  -1  -2  159.78    8.50
   5  -1   2  146.09    8.50
   5  -1   2  156.28    8.40
  -5  -1  -2  157.28    8.40
   5  -1   2  158.78    8.50
  -5  -1  -2  147.59    9.20
   5  -1   2  159.48    9.20
  -5  -1  -2  135.29    8.40
  -5   1  -3   12.10    1.90
  -5   1  -3   13.90    2.20
   5   1   3   15.50    1.90
   5   1   3   11.40    2.10
   5   1   3   10.10    2.60
  -5   1  -3   10.20    2.80
  -5   1  -3   12.50    2.00
   5   1   3   14.00    2.10
  -5  -1  -3   10.20    1.80
   5  -1   3   10.80    1.90
   5  -1   3   13.90    3.10
  -5  -1  -3   10.40    2.20
  -5  -1  -3   13.20    2.10
  -5  -1  -3   14.40    3.30
   5  -1   3   12.80    1.70
   5   1   4   76.29    6.20
  -5   1  -4   79.39    5.40
   5   1   4   78.49    5.40
   5   1   4   75.69    5.10
  -5   1  -4   76.79    5.30
  -5   1  -4   66.19    6.30
   5   1   4   79.79    5.40
  -5   1  -4   83.29    5.30
  -5  -1  -4   80.19    5.60
   5  -1   4   77.29    5.40
   5  -1   4   84.29    6.70
  -5  -1  -4   80.99    5.20
  -5  -1  -4   78.29    5.30
  -5  -1  -4   80.09    6.90
   5  -1   4   75.29    5.20
   5  -1   4   77.89    5.00
  -5   1  -5  222.18   13.20
   5   1   5  224.78   12.20
  -5   1  -5  237.68   12.30
  -5   1  -5  214.88   12.30
   5   1   5  228.08   12.40
   5   1   5  222.48   12.30
   5   1   5  212.78   13.10
  -5   1  -5  232.78   12.20
  -5  -1  -5  216.38   12.20
  -5  -1  -5  234.88   13.60
  -5  -1  -5  214.08   12.40
   5  -1   5  229.58   13.30
   5  -1   5  230.48   12.40
  -5  -1  -5  219.88   12.30
   5  -1   5  218.48   12.20
   5  -1   5  218.08   12.10
  -5   1  -6  312.97   16.60
   5   1   6  280.67   17.30
  -5   1  -6  300.57   16.60
  -5   1  -6  297.27   17.50
   5   1   6  299.97   16.80
   5  -1   6  324.57   16.90
   5  -1   6  304.17   17.60
  -5  -1  -6  326.77   16.70
  -5  -1  -6  340.17   16.90
   5  -1   6  295.87   16.50
  -5  -1  -6  344.67   18.00
   5   1   7    0.50    2.30
  -5   1  -7    1.20    2.30
  -5   1  -7    1.70    2.30
  -5   1  -7    2.00    3.10
  -5  -1  -7    1.40    2.80
  -5  -1  -7    1.30    3.50
   5  -1   7    1.80    2.70
  -5  -1  -7    1.60    2.30
   5  -1   7    3.40    2.20
  -5   1  -8   77.79    7.30
  -5   1  -8   94.09    6.60
   5   1   8   83.19    6.70
  -5   1  -8   91.49    6.60
  -5  -1  -8   90.69    7.00
   5  -1   8   97.79    6.70
  -5  -1  -8   87.69    8.20
  -5  -1  -8   84.29    6.60
  -5   1  -9  174.08   10.10
   5   1   9  160.58   10.30
  -5   1  -9  159.68    9.90
  -5   1  -9  151.98   10.80
  -5  -1  -9  148.29    9.80
  -5  -1  -9  164.98   11.70
  -5  -1  -9  164.58   10.50
   5  -1   9  154.48   10.20
  -5   1 -10  174.88   10.70
  -5   1 -10  180.78   10.80
   5   1  10  165.78   11.00
  -5   1 -10  176.98   11.80
  -5  -1 -10  153.08   12.20
  -5  -1 -10  171.58   11.30
   5  -1  10  165.18   10.90
  -5  -1 -10  168.68   10.90
  -5   1 -11   67.89    7.50
  -5   1 -11   69.29    6.70
  -5   1 -11   79.29    7.20
   5   1  11   59.59    6.60
  -5  -1 -11   65.49    7.40
   5  -1  11   68.49    6.70
  -5  -1 -11   68.49    6.80
  -5  -1 -11   60.79    7.80
  -5   1 -12    7.80    4.10
  -5   1 -12   12.60    4.00
  -5   1 -12    4.50    3.50
   5   1  12    9.30    3.50
  -5  -1 -12    7.20    4.60
   5  -1  12    4.00    3.20
  -5  -1 -12    1.00    4.80
  -5  -1 -12    7.20    3.60
  -5   1 -13   13.00    4.20
   5   1  13    8.30    3.80
  -5   1 -13   17.30    4.30
  -5   1 -13    9.70    4.40
  -5  -1 -13    5.80    3.90
  -5  -1 -13   15.70    4.90
  -5  -1 -13    1.30    5.00
   5  -1  13   10.30    3.70
  -5   2  14    3.30    3.40
   5   2 -14   -0.10    2.90
   5   2 -14    4.10    4.50
  -5  -2  14    5.40    3.40
   5  -2 -14    3.60    5.40
   5  -2 -14    0.50    4.20
   5   2 -13  111.59    8.70
  -5   2  13   86.99    7.60
   5   2 -13   87.79    8.00
   5  -2 -13   84.39    8.30
  -5  -2  13   84.59    7.70
   5  -2 -13   85.09    9.50
  -5   2  12    3.40    3.10
   5   2 -12   -0.10    3.40
   5   2 -12    5.60    3.50
   5   2 -12    6.90    2.40
   5  -2 -12    0.80    4.10
  -5  -2  12   -1.00    2.70
   5  -2 -12    3.80    4.50
   5  -2 -12    4.30    3.70
   5   2 -11    9.30    3.60
   5   2 -11    8.30    2.60
  -5   2  11   10.20    3.20
   5  -2 -11    6.40    3.60
   5  -2 -11    5.70    4.20
  -5  -2  11    8.10    3.00
   5  -2 -11    7.50    4.30
   5   2 -10   18.40    3.70
   5   2 -10   20.30    3.00
  -5   2  10   19.10    3.40
   5   2 -10   14.20    3.40
   5  -2 -10   17.10    3.80
   5  -2 -10   13.60    4.20
  -5  -2  10   23.10    3.70
   5  -2 -10   24.40    4.40
   5   2  -9   15.00    3.00
  -5   2   9   14.00    3.00
   5   2  -9   13.90    2.50
   5   2  -9   15.50    3.30
   5  -2  -9   14.20    3.80
   5  -2  -9   11.10    3.10
  -5  -2   9   17.20    3.20
   5  -2  -9   13.60    3.90
  -5  -2   9   12.70    2.20
   5   2  -8   26.50    3.30
   5   2  -8   31.30    3.40
  -5   2   8   30.50    3.50
   5   2  -8   37.70    3.70
  -5  -2   8   39.50    4.10
  -5  -2   8   33.00    3.10
   5  -2  -8   21.00    3.40
   5  -2  -8   30.70    4.30
   5  -2  -8   28.30    4.00
   5   2  -7   14.30    2.50
   5   2  -7   11.90    2.00
   5   2  -7   17.70    2.70
  -5   2   7   15.80    2.70
  -5  -2   7   15.70    2.10
   5  -2  -7   12.70    3.30
   5  -2  -7   15.80    2.90
   5  -2  -7   11.20    3.00
  -5  -2   7   18.70    2.70
  -5  -2   7   14.40    1.80
   5   2  -6   99.89    6.30
   5   2  -6   93.79    6.50
   5   2  -6   97.79    5.70
  -5   2   6  104.49    6.40
  -5   2   6  103.29    6.30
   5   2  -6  105.59    6.40
   5  -2  -6   95.09    6.80
   5  -2  -6  103.59    7.40
  -5  -2   6   91.79    6.40
   5  -2  -6  101.59    6.70
  -5  -2   6  102.39    5.90
   5  -2  -6   99.79    7.20
   5   2  -5  626.04   32.70
   5   2  -5  681.23   33.10
  -5   2   5  626.34   33.20
  -5   2   5  645.94   33.20
   5   2  -5  631.64   33.40
   5   2  -5  667.83   33.10
   5  -2  -5  637.74   33.30
   5  -2  -5  682.33   33.90
  -5  -2   5  628.24   33.00
  -5  -2   5  658.13   33.30
   5  -2  -5  648.24   33.30
   5  -2  -5  671.93   33.50
  -5   2   4  240.08   12.90
   5   2  -4  260.27   12.80
   5   2  -4  248.58   12.90
   5   2  -4  242.58   12.30
   5   2  -4  244.08   13.10
  -5   2   4  230.38   12.90
  -5  -2   4  241.18   12.60
  -5  -2   4  249.97   13.00
  -5  -2   4  217.08   12.40
   5  -2  -4  241.98   13.10
   5  -2  -4  235.98   13.30
   5  -2  -4  248.68   13.00
   5  -2  -4  258.87   12.90
   5   2  -3    3.70    1.70
   5   2  -3    4.90    1.30
  -5   2   3    4.30    1.60
   5   2  -3    5.80    1.30
   5   2  -3    6.40    1.90
   5  -2  -3    2.10    2.00
  -5  -2   3    6.80    1.50
   5  -2  -3    5.90    1.70
   5  -2  -3    5.90    1.80
  -5  -2   3    5.20    1.30
  -5  -2   3    4.80    1.60
   5  -2  -3    5.20    1.90
   5  -2  -3    4.40    1.60
   5   2  -2    5.70    1.70
   5   2  -2    7.60    1.70
   5   2  -2    7.70    1.10
  -5   2   2    8.10    1.50
   5   2  -2    7.00    1.90
  -5   2   2    9.40    1.70
   5   2  -2    5.50    1.20
   5  -2  -2    9.20    1.70
  -5  -2   2    7.20    1.70
   5  -2  -2    6.00    1.80
   5  -2  -2    8.20    1.50
   5  -2  -2    9.50    1.80
  -5  -2   2    9.60    1.60
  -5  -2   2    6.70    1.70
  -5   2   1   47.00    3.30
  -5   2   1   46.10    3.50
  -5   2   1   40.20    3.10
  -5  -2   1   45.20    2.70
  -5  -2   1   40.70    3.40
   5  -2  -1   41.30    3.30
   5  -2  -1   47.30    3.50
  -5  -2   1   38.20    3.70
  -5  -2   1   42.60    3.40
   5   2   0 4888.51  246.08
  -5   2   0 5097.69  246.18
  -5   2   0 5086.89  246.28
   5   2   0 5002.90  246.18
   5   2   0 4878.91  246.68
  -5  -2   0 5172.28  246.08
  -5  -2   0 4696.93  246.28
   5  -2   0 4803.12  246.28
  -5  -2   0 4955.70  246.68
  -5  -2   0 4801.82  246.18
   5  -2   0 4664.53  246.18
   5  -2   0 5058.29  246.78
  -5   2  -1 3909.11  189.78
   5   2   1 3816.42  190.38
   5   2   1 3789.82  189.88
  -5   2  -1 3876.21  189.78
   5   2   1 3839.22  189.68
  -5   2  -1 3749.32  189.98
  -5   2  -1 3846.12  190.48
   5  -2   1 3906.31  190.48
  -5  -2  -1 3818.82  189.68
   5  -2   1 3580.74  189.78
  -5  -2  -1 3536.95  189.78
  -5  -2  -1 3871.01  190.38
  -5   2  -2    0.10    1.40
   5   2   2    1.20    1.30
   5   2   2    1.90    1.60
  -5   2  -2   -0.60    1.50
   5   2   2    0.20    2.00
  -5   2  -2    1.90    2.10
  -5   2  -2   -1.50    2.20
   5  -2   2   -0.10    2.00
  -5  -2  -2   -0.20    1.40
   5  -2   2    1.30    1.50
  -5  -2  -2    1.50    2.70
  -5  -2  -2    0.70    1.40
  -5  -2  -2    0.20    1.80
   5  -2   2    0.90    1.50
   5  -2   2    2.00    1.20
   5   2   3  155.38    8.50
   5   2   3  153.38    8.30
  -5   2  -3  156.88    8.20
  -5   2  -3  138.69    9.20
   5   2   3  160.48    8.20
  -5   2  -3  142.49    8.30
   5   2   3  148.49    9.30
  -5  -2  -3  147.99    9.30
   5  -2   3  140.49    9.00
  -5  -2  -3  142.29    8.20
   5  -2   3  134.99    8.20
   5  -2   3  147.39    8.30
  -5  -2  -3  136.09    8.40
  -5  -2  -3  151.28    8.20
   5  -2   3  145.89    8.10
  -5   2  -4   69.99    6.30
   5   2   4   74.99    5.40
   5   2   4   80.29    5.50
  -5   2  -4   81.19    5.20
  -5   2  -4   78.49    5.40
   5   2   4   80.69    5.10
   5   2   4   75.69    6.50
  -5   2  -4   88.39    5.60
  -5  -2  -4   66.59    5.20
   5  -2   4   75.39    5.00
  -5  -2  -4   81.19    7.10
  -5  -2  -4   79.79    5.30
   5  -2   4   72.19    5.30
  -5  -2  -4   77.19    5.80
   5  -2   4   79.89    5.30
   5  -2   4   76.99    6.80
   5   2   5    2.10    2.00
   5   2   5    3.30    1.80
   5   2   5    0.80    2.00
  -5   2  -5    1.10    2.20
  -5   2  -5    0.90    2.00
  -5   2  -5    1.30    2.90
  -5   2  -5    0.80    2.00
   5   2   5    1.10    2.30
  -5  -2  -5    1.50    2.00
   5  -2   5    2.90    3.10
   5  -2   5    2.70    1.80
  -5  -2  -5    0.50    2.00
  -5  -2  -5    4.60    2.70
   5  -2   5    0.00    1.90
   5  -2   5    0.80    1.50
  -5   2  -6   75.69    5.40
  -5   2  -6   74.19    5.50
  -5   2  -6   70.99    6.50
   5   2   6   67.89    5.40
  -5  -2  -6   70.89    7.10
   5  -2   6   70.29    5.40
  -5  -2  -6   69.19    6.00
  -5  -2  -6   67.59    5.40
   5  -2   6   65.29    6.50
   5  -2   6   66.39    5.00
  -5   2  -7   31.60    4.40
  -5   2  -7   37.30    3.70
  -5   2  -7   29.90    3.40
   5   2   7   25.90    3.50
  -5  -2  -7   26.20    3.30
  -5  -2  -7   29.70    4.80
  -5  -2  -7   29.00    3.90
   5  -2   7   35.60    3.70
  -5   2  -8   22.40    3.40
   5   2   8   14.40    3.10
  -5   2  -8   16.30    3.10
  -5   2  -8   17.80    3.90
  -5  -2  -8   16.50    5.00
  -5  -2  -8   12.70    3.10
   5  -2   8   15.00    3.10
  -5  -2  -8   16.40    3.90
  -5   2  -9   15.10    3.30
   5   2   9   15.60    3.40
  -5   2  -9   13.10    3.40
  -5   2  -9   12.90    3.90
  -5  -2  -9   13.20    5.40
   5  -2   9    8.90    3.20
  -5  -2  -9    8.30    3.30
  -5  -2  -9   12.40    4.30
  -5   2 -10   21.10    4.30
   5   2  10   20.70    3.80
  -5   2 -10   13.70    3.70
  -5   2 -10   19.10    4.00
   5  -2  10   15.80    3.60
  -5  -2 -10   11.60    5.80
  -5  -2 -10   19.70    4.60
  -5  -2 -10   21.30    4.00
  -5   2 -11   15.20    4.00
   5   2  11   17.40    3.90
  -5   2 -11   18.80    4.30
  -5   2 -11   11.10    3.80
   5  -2  11   13.20    3.50
  -5  -2 -11    9.30    5.60
  -5  -2 -11   15.60    3.90
  -5  -2 -11   12.70    5.00
   5   2  12    3.00    3.30
  -5   2 -12   -1.60    3.50
  -5   2 -12    9.30    3.80
  -5   2 -12    3.00    3.60
   5  -2  12    0.20    3.00
  -5  -2 -12   -2.00    4.90
  -5  -2 -12   -0.90    3.60
   5   2  13    1.90    3.40
  -5   2 -13   -1.80    3.80
  -5   2 -13   -3.30    3.60
   5  -2  13   -0.60    3.00
  -5  -2 -13   -3.70    3.70
  -5  -2 -13   -0.20    4.80
   5   3 -14   -1.90    1.80
  -5   3  14   -1.50    3.40
   5   3 -14   -4.00    3.70
   5  -3 -14   -8.40    5.60
   5  -3 -14    0.10    4.30
  -5  -3  14    3.10    3.30
   5   3 -13   36.10    4.90
   5   3 -13   39.60    5.40
  -5   3  13   33.10    5.10
   5  -3 -13   33.40    6.50
   5  -3 -13   33.20    5.30
  -5  -3  13   40.20    5.20
  -5   3  12    1.30    2.90
   5   3 -12    2.80    3.40
   5   3 -12   -2.10    3.30
   5  -3 -12   12.10    5.10
  -5  -3  12    0.90    3.00
   5  -3 -12   -3.20    3.60
   5  -3 -12   -4.10    4.60
   5   3 -11   28.20    4.40
  -5   3  11   31.00    4.30
   5   3 -11   39.70    4.40
   5  -3 -11   29.90    5.80
   5  -3 -11   25.50    5.40
   5  -3 -11   26.50    4.50
  -5  -3  11   35.90    4.60
   5   3 -10   13.60    3.60
   5   3 -10   11.80    2.00
  -5   3  10    9.60    3.00
   5   3 -10   15.10    3.30
   5  -3 -10    8.40    3.70
   5  -3 -10    6.10    4.50
  -5  -3  10   11.90    3.30
   5  -3 -10    7.10    4.10
  -5   3   9   36.00    4.00
   5   3  -9   44.90    5.10
   5   3  -9   35.10    3.30
   5   3  -9   35.00    3.80
   5  -3  -9   30.70    4.80
  -5  -3   9   30.40    4.00
   5  -3  -9   36.00    5.40
  -5  -3   9   27.20    3.20
   5  -3  -9   26.30    3.90
   5   3  -8  142.49    7.60
   5   3  -8  134.29    8.80
   5   3  -8  137.09    8.40
  -5   3   8  156.08    8.70
   5  -3  -8  130.99    9.40
   5  -3  -8  130.69   10.00
   5  -3  -8  125.09    8.90
  -5  -3   8  145.79    8.80
  -5  -3   8  132.59    7.50
   5   3  -7    7.80    1.40
   5   3  -7    9.90    2.30
   5   3  -7   10.30    2.70
  -5   3   7    9.40    2.40
  -5  -3   7   11.60    2.60
   5  -3  -7    9.50    3.70
   5  -3  -7   11.80    3.30
   5  -3  -7    6.80    2.70
  -5  -3   7   11.50    1.80
   5   3  -6   13.50    1.30
   5   3  -6   14.40    2.80
   5   3  -6   15.10    2.10
  -5   3   6   16.90    2.50
  -5  -3   6   19.10    2.60
   5  -3  -6   14.60    2.50
   5  -3  -6   13.50    3.20
   5  -3  -6   13.80    3.60
  -5  -3   6    9.40    1.70
   5  -3  -6   12.70    2.50
  -5  -3   6   13.20    1.90
  -5  -3   6   16.40    1.80
   5  -3  -6   13.10    2.80
   5   3  -5   -1.40    2.20
   5   3  -5    1.00    1.50
   5   3  -5    0.80    1.90
  -5   3   5   -0.60    1.60
  -5  -3   5    0.60    1.80
  -5  -3   5   -0.90    1.20
   5  -3  -5   -1.90    1.90
   5  -3  -5    0.10    2.00
   5  -3  -5    0.30    1.80
   5  -3  -5   -0.50    3.10
   5  -3  -5   -0.20    2.30
  -5  -3   5   -1.70    1.00
  -5  -3   5    0.90    1.30
   5   3  -4   17.60    2.80
   5   3  -4   18.50    1.80
  -5   3   4   14.40    2.20
  -5   3   4   17.90    2.20
   5   3  -4   15.00    2.40
  -5  -3   4   15.70    2.10
   5  -3  -4   15.00    2.40
   5  -3  -4   16.50    2.20
  -5  -3   4   15.00    1.50
   5  -3  -4   14.60    2.50
   5  -3  -4   20.20    3.20
  -5  -3   4   14.90    2.30
   5  -3  -4   12.50    2.40
  -5  -3   4   16.70    2.30
  -5   3   3  751.32   37.20
   5   3  -3  737.73   36.90
   5   3  -3  737.13   36.90
  -5   3   3  772.82   37.40
   5   3  -3  753.72   37.40
   5  -3  -3  738.93   37.40
   5  -3  -3  769.62   37.60
  -5  -3   3  715.03   37.20
  -5  -3   3  686.83   37.40
   5  -3  -3  730.83   37.40
   5  -3  -3  745.03   37.30
  -5  -3   3  680.03   37.20
   5  -3  -3  728.73   37.10
  -5   3   2  182.98    9.10
  -5   3   2  172.08    8.60
   5   3  -2  152.58    9.10
   5   3  -2  163.48    8.20
   5   3  -2  153.58    8.10
   5   3  -2  155.88    8.20
  -5  -3   2  137.89    9.10
  -5  -3   2  147.39    8.20
  -5  -3   2  154.38    8.70
  -5  -3   2  158.28    8.90
   5  -3  -2  172.38    9.00
   5  -3  -2  158.08    9.10
   5  -3  -2  167.68    8.90
  -5   3   1   16.80    1.90
   5   3  -1   15.00    2.80
   5   3  -1   17.50    1.80
  -5   3   1   21.00    2.50
   5   3  -1   17.20    1.40
   5   3  -1   16.00    2.70
  -5  -3   1   13.00    2.60
   5  -3  -1   17.90    2.50
  -5  -3   1   16.80    1.30
  -5  -3   1   16.40    1.90
  -5  -3   1   15.70    1.60
  -5  -3   1   16.20    2.30
   5   3   0  120.59    6.10
   5   3   0  111.39    6.50
  -5   3   0  113.49    6.50
  -5   3   0  116.59    7.00
   5   3   0  114.09    7.40
  -5  -3   0  115.19    6.90
  -5  -3   0  113.29    7.40
   5  -3   0  107.79    7.50
   5  -3   0  115.79    6.50
   5  -3   0  110.79    6.90
  -5  -3   0  115.59    6.00
  -5  -3   0  115.29    6.50
   5   3   1    7.80    1.90
   5   3   1    6.70    1.30
  -5   3  -1    5.70    1.70
  -5   3  -1    5.70    2.20
  -5   3  -1    7.60    1.50
   5   3   1    8.80    2.90
  -5  -3  -1    7.80    2.00
  -5  -3  -1    7.10    2.10
   5  -3   1    8.10    1.50
  -5  -3  -1    7.40    2.60
  -5  -3  -1    8.00    1.70
   5  -3   1    7.90    2.20
  -5  -3  -1    6.40    1.30
   5  -3   1    9.00    2.90
  -5   3  -2  116.49    6.30
  -5   3  -2  113.49    6.40
   5   3   2  108.59    7.70
  -5   3  -2  113.99    6.90
   5   3   2  123.29    6.20
   5   3   2  103.59    6.50
   5  -3   2   94.49    7.30
   5  -3   2  101.79    6.20
  -5  -3  -2  103.29    6.70
  -5  -3  -2  110.79    7.60
   5  -3   2  101.19    6.20
  -5  -3  -2  103.09    6.20
  -5  -3  -2  102.19    6.30
  -5   3  -3   28.90    4.10
   5   3   3   32.70    3.10
  -5   3  -3   39.40    3.40
  -5   3  -3   35.80    4.30
  -5   3  -3   32.60    2.80
   5   3   3   28.30    4.30
   5   3   3   29.40    3.20
   5  -3   3   32.00    3.00
   5  -3   3   28.70    2.70
  -5  -3  -3   28.70    2.80
   5  -3   3   33.20    3.40
   5  -3   3   28.80    4.00
  -5  -3  -3   26.60    2.70
  -5  -3  -3   29.10    3.30
  -5   3  -4  431.16   22.30
  -5   3  -4  446.36   23.30
  -5   3  -4  379.36   22.60
   5   3   4  390.86   24.00
   5   3   4  444.46   22.30
  -5   3  -4  468.35   22.30
   5   3   4  449.46   22.60
   5   3   4  468.25   22.30
   5  -3   4  416.36   22.30
  -5  -3  -4  472.45   22.30
  -5  -3  -4  427.06   22.30
  -5  -3  -4  418.96   22.60
   5  -3   4  406.96   23.10
   5  -3   4  437.66   22.20
   5  -3   4  454.15   22.30
  -5  -3  -4  360.36   23.20
  -5   3  -5  576.94   30.80
  -5   3  -5  588.44   31.20
  -5   3  -5  614.04   31.70
   5   3   5  624.84   30.90
  -5   3  -5  607.54   30.70
   5   3   5  559.74   30.70
   5  -3   5  578.04   30.60
  -5  -3  -5  565.34   30.70
  -5  -3  -5  616.04   31.10
  -5  -3  -5  617.24   30.70
   5  -3   5  625.04   31.90
   5  -3   5  602.24   30.80
  -5  -3  -5  639.34   32.00
   5  -3   5  556.84   30.70
  -5   3  -6    6.20    3.30
   5   3   6    5.00    2.20
  -5   3  -6    3.30    2.20
  -5   3  -6    4.30    2.50
  -5  -3  -6    4.40    2.40
   5  -3   6    0.30    3.40
   5  -3   6    4.10    2.10
   5  -3   6    4.00    1.80
  -5  -3  -6    6.20    3.10
  -5  -3  -6    1.60    3.40
  -5   3  -7  106.89    8.10
  -5   3  -7   98.79    6.80
  -5   3  -7  110.99    7.00
   5   3   7   98.19    7.00
  -5  -3  -7   87.59    8.30
   5  -3   7  102.99    6.90
  -5  -3  -7   89.89    7.50
  -5  -3  -7   97.89    6.90
  -5   3  -8    7.00    3.60
   5   3   8    3.20    2.70
  -5   3  -8    8.60    2.90
  -5   3  -8    6.00    2.70
  -5  -3  -8    6.80    2.90
  -5  -3  -8    6.20    4.70
  -5  -3  -8    8.70    3.90
   5  -3   8    5.00    2.70
  -5   3  -9    1.70    3.50
  -5   3  -9   -2.60    3.00
   5   3   9   -1.80    2.80
  -5   3  -9   -2.90    2.70
  -5  -3  -9   -1.50    4.80
  -5  -3  -9    0.40    3.00
  -5  -3  -9    2.10    4.00
   5  -3   9   -2.00    2.40
  -5   3 -10   20.00    3.90
  -5   3 -10   18.10    4.20
  -5   3 -10   12.60    3.60
   5   3  10   12.00    3.40
   5  -3  10   15.20    3.70
  -5  -3 -10   12.10    3.70
  -5  -3 -10   15.60    5.00
  -5  -3 -10   16.70    6.00
  -5   3 -11  124.39    9.90
   5   3  11  122.89    9.20
  -5   3 -11  125.79    8.90
  -5   3 -11  129.89    9.10
  -5  -3 -11  118.19    9.20
   5  -3  11  126.19    9.30
  -5  -3 -11  134.99   10.90
  -5  -3 -11  128.59   12.20
  -5   3 -12   15.50    4.10
  -5   3 -12   19.40    4.50
  -5   3 -12   14.80    4.00
   5   3  12   11.50    4.20
  -5  -3 -12   22.80    5.60
   5  -3  12   19.70    4.10
  -5  -3 -12    9.80    4.30
  -5  -3 -12    4.20    6.40
  -5   3 -13    1.50    2.70
   5   3  13    0.80    3.60
  -5   3 -13    5.80    4.20
  -5  -3 -13  -14.70    6.10
  -5  -3 -13   -3.80    3.70
  -5  -3 -13   -0.30    5.60
   5  -3  13    4.60    3.60
   5   4 -13  105.19    8.90
   5   4 -13  115.39    8.80
  -5   4  13  106.19    8.50
  -5  -4  13  115.99    9.30
   5  -4 -13  101.09   10.90
   5  -4 -13  106.49    9.30
   5   4 -12   10.50    3.70
  -5   4  12   14.90    3.70
   5   4 -12   14.10    4.40
  -5  -4  12   10.20    3.80
   5  -4 -12   14.90    4.60
   5  -4 -12   16.80    5.30
   5  -4 -12   19.40    6.20
   5   4 -11   22.50    4.10
   5   4 -11   14.80    3.50
  -5   4  11   16.50    3.60
   5  -4 -11   14.40    5.20
   5  -4 -11   10.10    4.00
   5  -4 -11   14.00    5.60
  -5  -4  11   13.40    3.50
  -5   4  10   72.69    6.20
   5   4 -10   65.49    6.60
   5   4 -10   65.69    6.10
   5  -4 -10   62.19    6.90
   5  -4 -10   66.39    8.30
   5  -4 -10   57.69    5.80
  -5  -4  10   73.29    6.60
   5   4  -9    4.40    2.60
  -5   4   9    0.50    2.60
   5   4  -9    2.70    3.10
   5  -4  -9    5.50    3.40
   5  -4  -9   -0.50    4.60
  -5  -4   9    5.80    2.80
   5  -4  -9    0.60    3.90
   5   4  -8    9.50    2.50
  -5   4   8    9.30    2.60
   5   4  -8   10.70    3.40
   5  -4  -8   10.90    4.10
   5  -4  -8    8.60    4.50
   5  -4  -8    8.10    3.20
  -5  -4   8    6.40    1.80
  -5  -4   8   10.60    2.90
  -5  -4   8   12.20    1.90
  -5  -4   8    5.00    2.10
   5   4  -7   67.59    5.90
  -5   4   7   69.19    5.30
   5   4  -7   64.79    4.80
   5  -4  -7   61.09    7.30
  -5  -4   7   68.49    5.70
   5  -4  -7   63.09    5.80
  -5  -4   7   78.49    4.80
  -5  -4   7   68.79    4.70
  -5  -4   7   63.09    4.40
   5  -4  -7   64.89    6.80
   5   4  -6  135.09    8.60
  -5   4   6  140.49    7.90
   5   4  -6  138.19    7.50
   5  -4  -6  127.99    8.00
  -5  -4   6  132.89    7.80
  -5  -4   6  122.79    7.30
   5  -4  -6  132.29    9.10
   5  -4  -6  125.69    8.40
  -5  -4   6  145.79    7.70
   5  -4  -6  112.49    9.10
  -5  -4   6  141.79    8.20
   5  -4  -6  133.49    9.90
   5   4  -5   -1.90    1.90
   5   4  -5   -1.70    2.30
   5   4  -5    0.50    1.30
  -5   4   5    3.30    1.70
   5  -4  -5   -2.50    2.10
   5  -4  -5   -1.70    3.50
   5  -4  -5    1.90    2.90
   5  -4  -5    0.60    2.20
   5  -4  -5   -1.60    1.80
  -5  -4   5   -2.90    1.60
  -5  -4   5   -0.30    1.80
  -5  -4   5    0.60    1.70
  -5  -4   5   -0.90    0.90
   5   4  -4   -2.40    1.00
   5   4  -4   -2.00    2.40
  -5   4   4   -2.00    1.50
   5   4  -4   -2.00    1.70
  -5  -4   4   -1.30    1.70
   5  -4  -4   -2.40    1.70
   5  -4  -4   -2.00    2.40
   5  -4  -4   -2.20    2.00
   5  -4  -4    0.10    1.60
  -5  -4   4   -2.10    1.80
  -5  -4   4    0.00    1.60
   5  -4  -4   -5.60    2.20
  -5   4   3    4.60    2.40
   5   4  -3    4.40    2.50
  -5   4   3    4.70    1.50
   5   4  -3    6.80    1.80
  -5  -4   3    7.00    1.70
   5  -4  -3    1.90    1.70
   5  -4  -3    2.40    2.30
   5  -4  -3    3.00    1.50
   5  -4  -3    3.00    2.50
  -5  -4   3    7.10    1.90
   5  -4  -3    3.80    2.00
  -5  -4   3    6.60    2.30
  -5   4   2   50.79    3.40
   5   4  -2   48.50    4.90
  -5   4   2   51.89    4.70
   5  -4  -2   47.00    3.80
  -5  -4   2   53.49    4.30
  -5  -4   2   47.60    3.20
   5  -4  -2   51.89    4.60
  -5  -4   2   48.30    4.80
  -5  -4   2   51.09    3.80
   5  -4  -2   54.89    5.10
   5  -4  -2   55.39    4.20
   5   4  -1  347.27   17.70
  -5   4   1  341.67   17.80
  -5   4   1  342.17   18.30
  -5   4   1  346.67   17.50
   5   4  -1  346.07   18.40
  -5  -4   1  359.66   17.70
   5  -4  -1  320.27   18.20
  -5  -4   1  352.56   18.70
  -5  -4   1  334.67   18.20
  -5  -4   1  349.47   17.70
   5  -4  -1  338.77   17.80
   5   4   0   20.40    1.80
  -5   4   0   21.60    3.10
   5   4   0   22.00    2.50
  -5   4   0   22.50    2.30
  -5   4   0   20.50    2.00
   5   4   0   18.20    3.50
  -5  -4   0   22.80    3.60
  -5  -4   0   24.90    2.90
  -5  -4   0   20.20    1.70
  -5  -4   0   23.40    2.40
   5  -4   0   18.50    2.20
   5  -4   0   18.30    2.70
   5   4   1  294.37   14.30
   5   4   1  270.67   15.80
  -5   4  -1  276.27   14.30
   5   4   1  290.57   14.80
  -5   4  -1  278.37   14.60
  -5   4  -1  262.47   15.10
   5  -4   1  259.47   15.80
  -5  -4  -1  298.57   14.80
   5  -4   1  260.97   15.00
  -5  -4  -1  274.17   14.20
  -5  -4  -1  291.07   14.50
   5  -4   1  257.67   14.50
  -5  -4  -1  264.77   15.00
  -5  -4  -1  303.17   16.00
  -5   4  -2    3.10    1.80
  -5   4  -2    3.90    1.50
   5   4   2    2.50    2.00
   5   4   2    4.20    1.40
   5   4   2    3.40    2.90
  -5   4  -2    0.80    2.30
  -5  -4  -2   12.50    3.50
  -5  -4  -2    2.10    2.20
   5  -4   2    5.20    2.40
  -5  -4  -2    4.70    1.60
   5  -4   2    1.90    1.30
  -5  -4  -2    3.10    1.50
   5  -4   2    2.40    2.70
  -5  -4  -2    9.10    2.50
   5   4   3   67.59    5.30
  -5   4  -3   81.19    6.10
  -5   4  -3   75.49    5.00
  -5   4  -3   79.09    4.90
   5   4   3   76.79    4.90
   5  -4   3   75.79    4.80
  -5  -4  -3   80.59    5.70
   5  -4   3   67.79    5.20
  -5  -4  -3   77.29    4.90
  -5  -4  -3   70.99    4.90
  -5  -4  -3   81.19    7.20
   5  -4   3   73.29    6.40
   5  -4   3   70.29    4.80
  -5   4  -4  152.88    7.60
  -5   4  -4  133.99    7.50
  -5   4  -4  145.29    8.30
   5   4   4  130.59    7.40
   5   4   4  122.49    7.60
   5  -4   4  100.09    8.70
  -5  -4  -4  119.59    7.40
  -5  -4  -4  129.49    8.20
   5  -4   4  113.79    7.50
  -5  -4  -4  116.29    7.40
   5  -4   4  123.19    7.40
   5  -4   4  126.59    7.30
  -5  -4  -4  135.59    9.70
  -5   4  -5    2.50    2.70
  -5   4  -5    5.90    2.10
   5   4   5    0.80    1.90
  -5   4  -5    0.10    1.80
   5  -4   5    0.70    1.90
  -5  -4  -5    5.70    3.10
   5  -4   5    2.00    1.50
  -5  -4  -5   -0.50    2.00
  -5  -4  -5    5.10    4.00
   5  -4   5    2.20    1.90
  -5  -4  -5   -0.40    2.10
  -5   4  -6    1.60    2.10
   5   4   6    5.00    2.30
  -5   4  -6    6.50    3.10
   5  -4   6    4.70    1.50
  -5  -4  -6    3.90    3.30
   5  -4   6    1.80    2.20
  -5  -4  -6   13.30    4.70
  -5  -4  -6    2.00    2.40
  -5   4  -7  151.58    9.60
   5   4   7  129.39    8.60
  -5   4  -7  132.19    8.40
  -5   4  -7  134.89   10.00
  -5  -4  -7  135.19   10.90
  -5  -4  -7  127.79    9.40
   5  -4   7  130.29    8.70
  -5  -4  -7  139.99    8.70
  -5   4  -8  117.89    9.60
  -5   4  -8  122.69    9.20
  -5   4  -8  122.09    8.00
   5   4   8  121.99    8.30
  -5  -4  -8  115.59   10.80
  -5  -4  -8  122.49    8.40
  -5  -4  -8  119.89    9.30
   5  -4   8  138.89    8.60
  -5   4  -9   11.40    4.10
   5   4   9    6.80    3.10
  -5   4  -9    8.80    4.10
  -5   4  -9    5.60    3.00
  -5  -4  -9   15.10    4.40
  -5  -4  -9   12.60    5.70
  -5  -4  -9    7.20    3.40
   5  -4   9    7.60    3.10
   5   4  10   13.60    3.60
  -5   4 -10   18.70    4.50
  -5   4 -10   12.90    4.50
  -5   4 -10   15.80    3.50
  -5  -4 -10   13.60    6.10
  -5  -4 -10   10.50    4.90
   5  -4  10   15.60    3.80
  -5  -4 -10   14.30    3.80
   5   4  11    9.70    3.50
  -5   4 -11   12.90    4.20
  -5   4 -11   11.20    4.60
  -5   4 -11   11.30    3.70
  -5   4 -11   13.60    3.60
  -5  -4 -11    8.10    4.00
  -5  -4 -11    8.70    6.40
   5  -4  11    8.10    3.60
  -5  -4 -11   10.00    5.30
   5   4  12    2.50    3.50
  -5   4 -12   -0.10    3.30
  -5   4 -12   -0.80    3.40
  -5   4 -12   -2.40    4.20
   5  -4  12   -2.80    3.20
  -5  -4 -12    3.80    5.70
  -5  -4 -12  -10.50    6.60
  -5  -4 -12    2.00    3.70
  -5   5  12   77.19    7.20
   5   5 -12   79.29    8.10
   5  -5 -12   69.49    8.10
  -5  -5  12   84.09    7.50
   5  -5 -12   85.49    8.10
   5  -5 -12   82.29   11.00
   5   5 -11    2.90    3.70
   5   5 -11   -0.10    2.80
  -5  -5  11    2.70    3.30
   5  -5 -11    4.80    3.80
   5   5 -10   68.89    7.10
   5   5 -10   62.79    5.60
  -5   5  10   75.29    6.10
   5  -5 -10   54.89    6.80
   5  -5 -10   57.89    6.00
   5  -5 -10   66.09    8.90
  -5  -5  10   64.99    6.40
   5   5  -9    5.50    2.50
   5   5  -9   18.70    4.00
  -5   5   9   19.40    3.10
   5  -5  -9    3.90    4.40
   5  -5  -9    3.40    3.20
   5  -5  -9   10.70    5.30
  -5  -5   9   10.10    3.10
   5   5  -8  105.39    6.70
   5   5  -8  107.09    8.40
  -5  -5   8  109.39    7.60
  -5  -5   8  101.29    6.80
   5  -5  -8  118.69    8.00
   5   5  -7    9.60    2.10
   5   5  -7   16.70    3.80
  -5  -5   7   10.10    1.80
  -5  -5   7   17.80    3.10
   5  -5  -7   16.30    3.20
  -5  -5   7   13.50    2.70
  -5   5   6   54.39    4.10
   5   5  -6   45.50    5.60
   5   5  -6   41.30    3.30
   5  -5  -6   52.29    5.50
  -5  -5   6   47.80    4.60
   5  -5  -6   50.79    7.40
  -5  -5   6   50.79    4.60
  -5  -5   6   52.29    4.50
   5  -5  -6   39.50    4.20
  -5  -5   6   41.20    3.10
   5  -5  -6   46.40    4.40
   5   5  -5    1.30    2.90
   5   5  -5   -3.00    2.00
   5   5  -5   -2.80    1.00
   5  -5  -5    1.50    2.20
   5  -5  -5    0.70    4.00
  -5  -5   5    0.60    2.30
  -5  -5   5    0.20    0.80
  -5  -5   5    2.70    1.90
   5  -5  -5    0.20    1.70
   5  -5  -5    3.60    3.20
   5   5  -4   25.40    3.70
   5   5  -4   18.70    2.60
  -5  -5   4   24.90    3.50
   5  -5  -4   23.60    2.40
   5  -5  -4   23.00    3.00
   5  -5  -4   18.60    3.40
   5  -5  -4   21.90    4.50
  -5  -5   4   27.50    2.70
  -5   5   3   -2.20    2.60
  -5   5   3    0.80    1.20
   5   5  -3   -0.90    2.70
  -5  -5   3    3.10    1.50
  -5  -5   3    3.50    2.50
   5  -5  -3   -0.60    2.70
   5  -5  -3   -0.20    1.80
  -5   5   2  135.79    7.20
  -5   5   2  119.39    8.40
   5   5  -2  138.89    8.80
   5  -5  -2  123.89    7.80
  -5  -5   2  140.09    8.90
  -5  -5   2  136.19    7.50
   5  -5  -2  133.09    8.00
   5  -5  -2  145.89    8.70
  -5  -5   2  142.19    7.30
  -5   5   1  221.68   13.30
   5   5  -1  235.88   13.40
  -5  -5   1  241.78   12.40
  -5  -5   1  264.77   14.10
  -5  -5   1  251.87   12.50
   5  -5  -1  229.18   12.70
   5  -5  -1  208.08   12.50
  -5   5   0    6.40    1.70
   5   5   0    2.60    1.80
  -5   5   0    5.30    2.80
  -5  -5   0   12.30    2.10
   5  -5   0    4.80    1.60
  -5  -5   0   15.10    3.60
  -5  -5   0    4.90    1.40
  -5  -5  -1   26.40    2.80
  -5  -5  -1   41.50    3.80
   5   5   2  194.28   10.40
  -5   5  -2  218.58   10.80
   5   5   2  191.48   11.10
  -5   5  -2  215.78   11.60
   5  -5   2  185.28   10.50
  -5  -5  -2  201.38   12.60
  -5  -5  -2  183.78   10.50
  -5  -5  -2  187.78   10.40
  -5  -5  -2  195.08   11.20
  -5   5  -3   52.29    4.10
  -5   5  -3   59.19    5.10
   5   5   3   45.50    3.70
  -5  -5  -3   41.90    5.90
   5  -5   3   40.50    3.60
  -5  -5  -3   48.60    4.50
  -5  -5  -3   43.30    3.70
  -5  -5  -3   42.40    3.70
  -5   5  -4  265.77   14.40
   5   5   4  302.97   14.60
  -5   5  -4  263.27   15.30
  -5   5  -4  275.37   14.40
  -5  -5  -4  274.27   16.40
   5  -5   4  276.77   14.40
  -5  -5  -4  258.67   14.40
  -5  -5  -4  279.57   14.50
  -5  -5  -4  272.97   15.30
   5  -5   4  244.58   14.50
   5  -5   4  267.47   14.40
   5   5   5   23.10    3.00
  -5  -5  -5   28.60    3.20
  -5  -5  -5   47.10    6.50
   5  -5   5   24.10    3.00
  -5  -5  -5   44.50    4.70
  -5  -5  -5   29.50    3.20
   5  -5   5   27.20    3.10
  -5   5  -6   16.70    3.80
   5   5   6   15.50    2.90
  -5   5  -6   21.50    2.90
   5  -5   6   17.20    2.90
  -5  -5  -6   14.40    5.00
  -5  -5  -6   22.10    4.40
  -5  -5  -6   15.30    3.00
  -5   5  -7    1.50    3.40
  -5   5  -7    0.50    2.30
   5   5   7   -1.90    2.30
  -5  -5  -7    2.50    4.00
  -5  -5  -7    6.10    4.70
  -5  -5  -7    2.00    2.80
   5  -5   7    2.20    2.40
  -5   5  -8   20.30    3.30
   5   5   8   15.50    3.30
  -5   5  -8   27.80    4.70
  -5  -5  -8   18.40    4.70
   5  -5   8   18.20    3.30
  -5  -5  -8   17.40    3.60
  -5  -5  -8   20.70    6.20
  -5   5  -9   50.39    6.20
  -5   5  -9   41.90    4.40
   5   5   9   43.60    4.90
   5  -5   9   35.10    4.60
  -5  -5  -9   44.70    7.60
  -5  -5  -9   40.30    5.90
  -5  -5  -9   42.50    4.80
  -5   5 -10    7.60    3.30
  -5   5 -10    7.60    4.40
   5   5  10    5.10    3.20
  -5  -5 -10   23.20    5.50
   5  -5  10    9.00    3.50
  -5  -5 -10   21.20    6.70
  -5  -5 -10   14.40    3.90
  -5   5 -11   76.59    7.20
  -5   5 -11   64.49    8.00
   5   5  11   84.29    7.80
  -5  -5 -11   74.69    7.60
  -5  -5 -11   76.19   10.10
   5  -5  11   78.09    7.80
  -5  -5 -11   88.09    8.70
  -5   5 -12   -0.90    3.50
   5   5  12    4.00    3.90
  -5   5 -12    2.00    4.20
  -5  -5 -12    0.70    6.80
  -5  -5 -12    3.50    4.20
  -5  -5 -12    9.20    6.40
   5  -5  12    6.40    3.70
   5   6 -12  250.67   17.20
  -5   6  12  286.87   17.20
  -5  -6  12  266.97   17.20
   5  -6 -12  274.37   17.20
   5  -6 -12  283.97   18.40
   5  -6 -12  291.67   19.60
   5   6 -11   62.39    7.60
  -5   6  11   60.79    6.30
   5  -6 -11   60.29    9.00
   5  -6 -11   50.69    7.80
   5  -6 -11   63.19    6.70
  -5  -6  11   69.99    6.90
   5   6 -10    7.30    4.10
  -5   6  10   28.20    3.90
   5  -6 -10    9.80    4.00
   5  -6 -10   12.40    5.20
  -5  -6  10   12.50    3.60
   5   6  -9    6.40    3.80
  -5   6   9    1.30    2.40
   5  -6  -9   -1.70    3.10
  -5  -6   9    4.20    2.90
   5  -6  -9   -2.70    5.10
   5  -6  -9   -1.00    5.00
  -5   6   8    2.10    2.30
  -5  -6   8   -0.20    0.90
   5  -6  -8   -2.20    4.90
   5  -6  -8    2.90    4.40
   5  -6  -8    1.40    3.20
  -5   6   7  165.68   10.20
   5   6  -7  186.68   11.70
   5  -6  -7  167.98   12.10
   5  -6  -7  172.38   13.50
   5  -6  -7  163.58   10.90
  -5  -6   7  187.98   10.60
  -5  -6   7  192.68   11.10
  -5   6   6  705.73   36.00
   5   6  -6  684.83   37.00
   5   6  -6  670.93   35.40
   5  -6  -6  689.43   38.20
  -5  -6   6  691.83   36.30
   5  -6  -6  756.52   37.30
  -5  -6   6  706.53   36.80
   5  -6  -6  731.43   36.50
  -5   6   5   19.40    2.30
   5   6  -5   17.80    2.70
   5   6  -5   26.20    4.30
   5  -6  -5   20.70    4.50
   5  -6  -5   18.00    3.20
   5  -6  -5   21.80    5.80
  -5  -6   5   34.20    4.90
   5  -6  -5   14.40    2.40
  -5   6   4  137.59    7.60
   5  -6  -4  144.49    8.60
   5  -6  -4  137.29   10.80
   5   6  -3   -1.50    3.20
  -5  -6   3    0.80    1.50
  -5  -6   3   -4.70    2.50
  -5  -6   3   -3.90    1.10
   5  -6  -3    3.70    3.20
   5  -6  -3    1.40    2.10
   5   6  -2   35.90    4.70
  -5   6   2   38.80    4.40
   5  -6  -2   30.40    3.00
  -5  -6   2   29.40    3.00
   5  -6  -2   31.50    3.20
  -5  -6   2   40.00    4.80
  -5  -6   2   28.60    3.00
   5  -6  -2   29.40    4.00
   5   6  -1  246.18   13.90
  -5   6   1  230.18   13.60
   5  -6  -1  247.58   12.80
  -5  -6   1  237.28   14.30
   5  -6  -1  244.88   13.50
  -5  -6   1  228.18   12.30
  -5  -6   1  237.08   12.70
   5  -6  -1  222.28   12.70
  -5   6   0  279.97   14.90
  -5   6   0  271.37   13.80
  -5  -6   0  252.97   13.50
  -5  -6   0  265.47   15.60
   5  -6   0  233.28   13.60
  -5  -6   0  270.07   14.00
   5  -6   0  260.47   13.80
  -5  -6   0  241.28   13.40
   5   6   1    7.50    1.30
   5   6   1    7.80    2.20
  -5   6  -1   13.10    2.10
  -5   6  -1   20.60    3.80
  -5  -6  -1   11.50    1.40
   5  -6   1    8.00    1.80
  -5  -6  -1   10.30    2.80
  -5  -6  -1   11.50    4.00
  -5  -6  -1   11.30    1.80
  -5   6  -2    1.70    1.90
  -5   6  -2    3.90    3.10
   5   6   2    2.10    1.40
  -5   6  -2    4.60    1.20
  -5  -6  -2    0.30    3.40
  -5  -6  -2    3.70    1.50
  -5  -6  -2    3.20    2.70
   5  -6   2   -1.10    1.40
  -5  -6  -2   -0.10    1.50
  -5   6  -3   23.60    2.30
   5   6   3   23.50    2.50
  -5   6  -3   21.90    4.10
  -5   6  -3   20.50    2.60
  -5  -6  -3   34.30    5.60
  -5  -6  -3   27.30    3.70
   5  -6   3   18.40    2.30
  -5  -6  -3   23.00    2.50
  -5  -6  -3   24.20    2.50
   5   6   4   17.80    2.50
  -5   6  -4   27.30    2.80
   5  -6   4   19.10    2.40
  -5  -6  -4   26.00    4.10
   5  -6   4   12.80    2.20
  -5  -6  -4   28.30    5.60
  -5  -6  -4   23.60    2.70
  -5  -6  -4   18.80    2.60
  -5  -6  -5   16.10    2.70
  -5   6  -6   65.59    6.60
  -5   6  -6   51.19    4.80
   5  -6   6   47.20    4.90
  -5  -6  -6   56.69    5.40
  -5  -6  -6   62.39    6.20
  -5  -6  -6   67.59    8.20
  -5   6  -7    5.30    3.80
   5   6   7   -0.60    2.40
  -5   6  -7    4.10    2.60
  -5  -6  -7    0.30    4.30
  -5  -6  -7   -1.20    2.70
  -5  -6  -7    3.10    5.70
   5  -6   7    2.60    2.50
   5   6   8   -2.90    2.40
  -5   6  -8   10.40    2.80
  -5   6  -8    4.40    3.60
  -5  -6  -8    3.10    3.10
  -5  -6  -8   -1.30    5.60
   5  -6   8   -1.20    2.60
  -5  -6  -8   -2.30    4.40
   5   6   9   21.40    3.90
  -5   6  -9   19.50    3.60
  -5   6  -9   21.70    4.80
   5  -6   9   17.30    3.80
  -5  -6  -9   36.40    4.40
   5   6  10    8.60    3.50
  -5   6 -10    5.40    3.30
  -5   6 -10    9.40    4.50
  -5  -6 -10   29.00    6.10
   5  -6  10   11.40    3.80
  -5  -6 -10   27.00    7.50
  -5  -6 -10   19.60    4.00
  -5   6 -11    3.00    3.30
   5   6  11   -1.00    3.30
  -5   6 -11    6.00    4.20
  -5  -6 -11    1.90    3.70
  -5  -6 -11    4.30    5.80
  -5  -6 -11   -2.50    6.30
   5  -6  11   -0.60    3.60
   5   7 -10   40.10    6.00
   5  -7 -10   33.50    5.40
   5  -7 -10   32.40    8.10
   5  -7 -10   32.40    6.90
  -5  -7  10   30.40    4.50
   5   7  -9   12.90    4.70
   5  -7  -9    7.60    5.60
   5  -7  -9    6.20    6.10
   5  -7  -9    9.00    3.90
  -5  -7   9   15.70    3.50
   5   7  -8   68.69    8.00
   5  -7  -8   67.19    7.50
  -5  -7   8   74.89    6.30
   5  -7  -8   73.59    6.90
   5  -7  -8   56.79    8.50
   5  -7  -7   15.60    3.70
  -5  -7   7   31.00    3.50
   5  -7  -7   12.40    5.20
   5  -7  -7   14.70    5.60
   5   7  -6   62.69    7.60
  -5  -7   6   75.69    5.30
   5  -7  -6   52.89    7.80
   5  -7  -6   52.19    6.60
   5  -7  -6   49.99    5.20
  -5  -7   6   73.99    6.80
   5   7  -5    6.50    4.30
   5  -7  -5    7.00    2.90
  -5  -7   5   12.70    3.80
   5  -7  -5   11.40    4.40
   5  -7  -5    0.80    4.80
  -5  -7   5   17.20    2.40
   5   7  -4   60.19    7.10
   5  -7  -4   65.49    7.10
  -5  -7   4   61.79    4.50
  -5  -7   4   51.99    6.60
   5  -7  -4   66.99    5.50
  -5   7   3   10.70    3.90
   5   7  -3    9.40    3.90
   5  -7  -3    1.20    2.20
   5  -7  -3    2.70    3.70
  -5  -7   3   -0.30    1.50
   5  -7  -3    8.00    5.30
  -5  -7   3    2.60    1.50
  -5  -7   3   -1.50    3.10
  -5   7   2   18.50    4.20
   5   7  -2   32.20    5.00
  -5  -7   2   27.60    2.80
  -5  -7   2   34.90    4.90
   5  -7  -2   19.70    2.90
  -5  -7   2   27.30    2.70
   5  -7  -2   22.10    4.20
  -5   7   1   68.99    7.00
   5   7  -1   66.69    6.90
   5  -7  -1   71.99    5.30
  -5  -7   1   69.89    5.10
   5  -7  -1   65.49    6.70
  -5  -7   1   73.19    7.40
  -5  -7   1   63.79    4.30
  -5   7   0   17.10    4.10
   5  -7   0    8.70    2.20
  -5  -7   0   12.90    2.70
  -5  -7   0   17.00    4.70
   5  -7   0    9.60    3.40
  -5  -7   0    6.30    1.50
  -5   7  -1   44.80    5.50
  -5   7  -1   37.20    4.00
  -5  -7  -1   47.40    3.00
  -5  -7  -1   47.00    3.40
  -5  -7  -1   48.20    7.20
  -5  -7  -1   44.00    4.90
  -5   7  -2  320.27   18.20
  -5   7  -2  334.67   19.80
  -5  -7  -2  344.77   17.90
  -5  -7  -2  361.36   19.00
  -5  -7  -2  380.46   21.10
  -5   7  -3   61.99    5.00
  -5   7  -3   61.99    7.00
  -5  -7  -3   71.39    6.70
  -5  -7  -3   70.89    8.80
  -5  -7  -3   66.49    4.70
  -5   7  -4   27.60    4.80
  -5   7  -4   24.60    2.90
  -5  -7  -4   26.10    3.00
  -5  -7  -4   25.90    6.20
  -5  -7  -4   22.40    4.50
  -5   7  -5    6.30    2.30
  -5   7  -5   13.00    4.20
  -5  -7  -5    7.10    3.80
  -5  -7  -5    7.20    2.40
  -5  -7  -5    8.50    5.10
   5  -7   5    4.10    2.00
  -5   7  -6    4.20    3.90
  -5   7  -6    4.90    2.40
  -5  -7  -6    2.30    4.40
   5  -7   6    1.50    2.00
  -5  -7  -6    1.00    5.50
  -5  -7  -6    1.50    2.60
  -5   7  -7   29.20    5.50
  -5   7  -7   21.60    3.40
  -5  -7  -7   35.60    7.60
  -5  -7  -7   35.90    5.90
  -5  -7  -7   32.10    3.90
  -5   7  -8   15.80    3.10
  -5   7  -8   19.80    5.20
  -5  -7  -8   20.30    3.70
  -5  -7  -8   18.10    7.30
  -5  -7  -8   15.50    5.30
  -5   7  -9   38.40    6.20
  -5  -7  -9   29.40    4.50
  -5  -7  -9   31.20    6.20
  -5  -7  -9   41.50    8.20
  -5   7 -10    2.60    4.50
   5  -7  10   -0.10    1.50
  -5  -7 -10    8.20    3.80
  -5  -7 -10    3.90    5.50
  -5  -7 -10    7.40    6.80
   5  -8  -9    0.20    6.30
   5  -8  -9    3.20    4.00
   5  -8  -9   -1.00    6.10
   5   8  -8    6.40    4.80
   5  -8  -8   -0.80    6.30
   5  -8  -8    3.30    3.70
   5  -8  -8    4.90    5.80
   5   8  -7    0.20    4.60
   5  -8  -7   -1.70    5.40
   5  -8  -7   -0.70    3.20
   5  -8  -7   -1.20    5.50
   5   8  -6   -1.70    4.20
   5  -8  -6    5.70    5.10
   5  -8  -6    2.30    3.00
  -5  -8   6   -0.50    3.50
   5  -8  -6   -3.00    5.80
   5   8  -5   34.80    5.70
  -5  -8   5   35.50    5.20
   5  -8  -5   25.30    3.70
   5  -8  -5   25.50    7.20
   5  -8  -5   28.20    5.50
   5   8  -4    6.90    4.90
   5  -8  -4   12.50    6.10
  -5  -8   4   14.90    4.10
   5  -8  -4    9.90    2.80
   5  -8  -4   13.60    4.80
  -5   8   3   17.90    4.70
   5   8  -3   14.40    5.10
  -5  -8   3   21.40    4.70
   5  -8  -3   16.90    5.70
   5  -8  -3   18.10    3.00
   5  -8  -3   18.00    4.50
  -5   8   2    4.10    4.20
   5   8  -2   -0.60    4.30
   5  -8  -2   -0.10    3.70
   5  -8  -2    0.00    5.30
  -5  -8   2    2.10    3.70
   5  -8  -2    2.20    2.30
  -5   8   1    7.30    4.20
   5   8  -1    4.90    4.60
   5  -8  -1    2.30    2.20
  -5  -8   1    6.70    4.30
  -5  -8   1    4.70    2.50
   5  -8  -1    7.10    3.60
  -5   8   0   18.20    4.60
  -5  -8   0   33.70    5.50
   5  -8   0   16.00    4.20
   5  -8   0   18.80    2.90
  -5  -8   0   30.80    3.70
  -5   8  -1   19.90    4.70
   5  -8   1   10.80    3.70
   5  -8   1   10.40    2.30
  -5  -8  -1   12.20    3.50
  -5  -8  -1    9.60    4.90
  -5   8  -2   68.39    7.40
  -5  -8  -2   43.60    5.00
  -5  -8  -2   39.10    6.70
   5  -8   2   38.80    3.90
   5  -8   2   54.99    6.00
  -5   8  -3  123.59    7.20
  -5  -8  -3  118.29   11.50
  -5  -8  -3  116.39    9.00
  -5   8  -5   25.80    5.20
  -5  -8  -5   20.80    4.80
  -5  -8  -5   24.30    7.00
  -5   8  -6    6.80    4.50
  -5  -8  -6    0.20    4.80
  -5  -8  -6   -0.80    1.10
  -5  -8  -6    0.20    5.40
  -5   8  -7   52.19    6.80
  -5  -8  -7   56.59    9.10
  -5  -8  -7   57.79    7.20
  -5   8  -8   52.69    6.80
  -5  -8  -8   34.80    6.70
  -5  -8  -8   48.10    9.10
   5   9  -7   -0.30    4.90
   5  -9  -7   -1.10    3.40
   5  -9  -7    1.10    6.50
   5  -9  -7   -0.70    6.10
   5   9  -6    4.70    5.30
   5  -9  -6    5.10    3.10
   5  -9  -6    7.40    5.60
   5  -9  -6   10.50    6.50
   5   9  -5    1.60    5.10
   5  -9  -5    1.10    6.50
   5  -9  -5   -5.30    5.00
  -5  -9   5   -1.30    3.80
   5  -9  -5   -0.30    2.20
   5   9  -4   22.20    6.00
   5  -9  -4   29.00    5.80
   5  -9  -4   30.10    7.70
  -5  -9   4   25.80    5.20
   5   9  -3   11.70    5.20
   5  -9  -3    8.30    6.60
  -5  -9   3    8.50    4.40
   5  -9  -3   -0.90    4.50
   5   9  -2    0.60    4.80
  -5   9   2   19.30    5.10
   5  -9  -2    4.50    4.30
  -5  -9   2    5.70    4.50
   5  -9  -2    6.50    5.50
  -5   9   1   10.20    5.00
  -5  -9   1   10.00    5.10
   5  -9  -1    2.20    4.30
   5  -9  -1    7.10    6.10
  -5   9   0   16.80    5.20
  -5  -9   0   11.80    5.00
   5  -9   0   15.70    4.50
  -5   9  -1   53.79    6.90
  -5  -9  -1   43.40    5.10
   5  -9   1   43.90    5.60
  -5  -9  -1   43.00    7.20
  -5   9  -2   30.60    5.90
   5  -9   2   38.00    5.20
  -5  -9  -2   43.80    7.50
  -5  -9  -2   43.10    5.30
  -5   9  -3    6.60    4.50
   5  -9   3   12.00    3.90
  -5  -9  -3    2.20    5.20
  -5  -9  -3    2.30    4.00
  -5   9  -4   20.00    5.40
  -5  -9  -4   31.90    7.40
  -5  -9  -4   29.50    5.30
  -5   9  -5    9.20    5.10
  -5  -9  -5    7.80    4.80
  -5  -9  -5    9.10    6.70
  -5   9  -6   18.60    5.40
  -5  -9  -6    7.90    5.70
  -5  -9  -6    5.10    7.00
   5  10  -4   29.90    6.80
   5  10  -3   11.70    6.90
  -5 -10   3   20.90    5.50
   5 -10  -3   11.70    5.90
   5 -10  -3   21.30    7.70
  -5  10   2    2.90    5.10
   5  10  -2   -7.80    5.50
  -5 -10   2    3.10    4.70
   5 -10  -2    1.30    5.90
   5 -10  -2   -0.30    4.80
  -5  10   1   17.10    5.70
   5 -10  -1   21.00    5.60
   5 -10  -1   20.40    8.00
  -5  10   0   42.70    7.10
  -5 -10   0   39.60    7.20
   5 -10   0   29.70    6.00
   5 -10   0   43.00    8.50
  -5  10  -1   59.99    7.90
   5 -10   1   74.09   10.60
  -5 -10  -1   75.29   10.00
  -5  10  -2   -1.30    5.20
  -5 -10  -2    1.40    5.80
  -5  10  -3   26.00    6.00
  -5 -10  -3   31.70    7.80
   6   0 -14   38.30    5.50
  -6   0  14   51.59    5.90
   6   0 -14   43.40    5.20
   6   0 -13    2.90    3.90
   6   0 -13    0.50    3.90
  -6   0  13    0.50    2.80
   6   0 -12   68.89    7.10
  -6   0  12   60.29    6.20
   6   0 -12   49.70    5.60
  -6   0  11   -0.10    2.60
   6   0 -11    1.40    3.70
   6   0 -11   -1.60    3.10
   6   0 -10  104.19    6.90
  -6   0  10   92.89    7.30
   6   0 -10  110.09    7.70
   6   0 -10   94.39    7.60
   6   0  -9   -3.90    2.00
   6   0  -9   -1.00    2.70
   6   0  -9   -2.00    2.80
  -6   0   9   -1.60    2.30
  -6   0   8  338.77   18.90
  -6   0   8  328.57   18.50
   6   0  -8  350.26   18.80
   6   0  -8  400.76   18.50
   6   0  -8  331.17   18.90
  -6   0   7    0.20    2.00
   6   0  -7   -0.70    2.30
   6   0  -7   -0.30    1.70
   6   0  -7    1.20    2.30
   6   0  -6   25.40    3.10
  -6   0   6   41.40    3.60
   6   0  -6   34.30    3.70
  -6   0   6   32.80    3.30
   6   0  -6   33.50    3.30
   6   0  -6   38.80    3.20
   6   0  -5   -0.10    1.50
  -6   0   5   -1.10    1.80
   6   0  -5    1.20    2.00
  -6   0   5    0.40    1.50
   6   0  -5   -1.90    2.10
   6   0  -5   -0.20    2.00
   6   0  -4   -1.10    1.30
  -6   0   4   -0.70    1.70
   6   0  -4   -1.20    1.70
  -6   0   4   -1.40    1.40
   6   0  -4   -1.50    1.70
   6   0  -4   -1.50    1.80
   6   0  -3   -0.50    1.40
  -6   0   3    0.80    1.50
   6   0  -3    0.50    1.60
   6   0  -3   -0.70    1.30
   6   0  -3   -1.40    1.60
  -6   0   2  728.13   36.10
   6   0  -2  714.33   36.20
  -6   0   2  663.43   36.20
   6   0  -2  673.13   36.20
  -6   0   2  796.32   36.20
   6   0  -2  714.83   36.10
  -6   0   1    0.50    1.30
  -6   0   1   -1.10    1.70
   6   0  -1    0.20    1.20
   6   0  -1    0.80    1.80
  -6   0   0    0.30    1.90
   6   0   0    0.50    1.30
  -6   0   0    1.90    1.30
   6   0   0    0.60    2.00
   6   0   0    0.10    1.20
  -6   0  -1    1.30    1.50
   6   0   1    1.00    1.50
   6   0   1   -0.50    1.20
   6   0   1    0.30    2.00
  -6   0  -1   -1.60    2.10
  -6   0  -1   -0.20    1.40
  -6   0  -2  680.53   34.00
  -6   0  -2  712.63   34.00
   6   0   2  652.53   34.00
   6   0   2  641.94   33.90
   6   0   2  656.23   34.70
  -6   0  -2  669.83   34.10
  -6   0  -2  675.53   34.70
  -6   0  -3    0.90    2.70
   6   0   3    0.70    1.60
   6   0   3   -1.90    1.60
  -6   0  -3    0.30    1.90
   6   0   3    1.00    2.50
   6   0   3    0.20    1.30
  -6   0  -3   -1.30    1.50
  -6   0  -3   -0.60    1.50
  -6   0  -4  705.13   35.30
  -6   0  -4  701.53   35.40
  -6   0  -4  688.53   36.30
  -6   0  -4  683.83   35.40
   6   0   4  691.43   35.50
   6   0   4  658.23   35.40
   6   0   4  707.13   36.30
   6   0   4  710.33   35.30
  -6   0  -5    3.20    3.40
   6   0   5   -0.70    2.60
  -6   0  -5   -0.60    1.90
  -6   0  -5   -1.30    2.20
   6   0   5   -1.50    1.60
   6   0   5    1.90    2.10
  -6   0  -5   -2.00    1.90
   6   0   5    0.70    2.00
  -6   0  -6  196.38   12.40
  -6   0  -6  196.78   11.00
  -6   0  -6  194.08   11.20
   6   0   6  183.78   11.90
   6   0   6  209.28   11.30
  -6   0  -7   -0.90    3.30
  -6   0  -7   -0.30    2.30
   6   0   7    2.00    2.20
  -6   0  -7   -0.50    2.60
   6   0   8  393.56   21.60
  -6   0  -8  406.06   21.30
  -6   0  -8  393.66   22.50
  -6   0  -8  403.86   21.50
  -6   0  -9   -1.80    3.90
  -6   0  -9   -0.70    3.10
  -6   0  -9    0.10    2.80
   6   0   9   -2.40    2.50
   6   0  10  599.64   31.10
  -6   0 -10  618.64   31.00
  -6   0 -10  538.15   31.90
  -6   0 -10  572.54   30.70
  -6   0 -11    0.00    3.30
  -6   0 -11    2.40    3.90
   6   0  11    2.20    3.10
  -6   0 -11   -1.90    4.00
   6   0  12    1.70    3.20
  -6   0 -12   -1.10    4.10
  -6   0 -12   -2.60    3.90
  -6   0 -12    3.30    3.50
   6   0  13    2.20    3.30
  -6   0 -13    1.40    4.10
  -6   0 -13    1.10    4.20
  -6   0 -13    1.40    4.00
   6   1 -14  108.59    9.10
  -6   1  14  109.19    8.70
   6  -1 -14  112.39    9.90
   6  -1 -14   97.29    9.20
  -6  -1  14   95.29    8.60
  -6   1  13   43.80    5.30
   6   1 -13   37.50    4.40
   6   1 -13   37.20    5.30
   6  -1 -13   36.10    5.80
  -6  -1  13   38.90    5.10
   6  -1 -13   39.20    5.40
  -6   1  12   29.50    4.20
   6   1 -12   25.00    4.30
   6   1 -12   29.30    4.70
  -6  -1  12   33.30    4.50
   6  -1 -12   27.70    5.00
   6  -1 -12   28.90    4.90
  -6   1  11    7.00    3.00
   6   1 -11    3.30    3.00
   6   1 -11    7.40    3.50
   6  -1 -11    1.70    3.20
   6  -1 -11    8.00    3.70
  -6  -1  11    1.40    2.70
   6  -1 -11    4.30    4.00
  -6   1  10   67.49    6.10
   6   1 -10   76.09    6.00
   6   1 -10   70.29    6.50
   6  -1 -10   53.89    5.60
  -6  -1  10   63.09    6.10
   6  -1 -10   76.49    6.30
   6  -1 -10   65.89    6.60
   6   1  -9   84.19    6.70
   6   1  -9   90.59    6.30
  -6   1   9   87.99    6.60
   6  -1  -9   99.29    6.80
  -6  -1   9   86.59    5.80
   6  -1  -9   80.59    6.90
   6  -1  -9   82.19    7.20
  -6  -1   9   86.79    6.90
   6   1  -8   75.39    6.00
   6   1  -8   86.29    5.80
  -6   1   8   79.29    5.90
  -6  -1   8   74.19    6.00
  -6  -1   8   77.29    5.20
   6  -1  -8   78.99    6.40
   6  -1  -8   72.79    6.40
   6  -1  -8   88.59    6.20
   6   1  -7    3.60    2.30
  -6   1   7    2.90    2.10
   6   1  -7    0.50    2.00
   6  -1  -7    2.80    2.60
   6  -1  -7   -1.50    2.20
   6  -1  -7    1.90    2.40
  -6  -1   7    0.30    1.90
   6   1  -6    6.20    2.20
  -6   1   6    5.40    2.10
   6   1  -6    8.10    2.00
   6   1  -6    7.50    2.20
  -6  -1   6    4.30    2.10
  -6  -1   6    5.40    1.60
   6  -1  -6    3.00    2.30
   6  -1  -6    5.60    2.30
   6  -1  -6    5.90    2.60
   6  -1  -6    8.00    2.40
  -6   1   5  146.49    8.50
   6   1  -5  170.28    8.10
  -6   1   5  147.29    8.30
   6   1  -5  143.79    8.30
   6   1  -5  145.49    8.10
   6   1  -5  135.59    8.60
  -6  -1   5  144.79    8.50
   6  -1  -5  137.09    8.50
  -6  -1   5  140.99    8.00
   6  -1  -5  141.39    8.50
   6  -1  -5  140.39    8.70
   6  -1  -5  144.79    8.70
  -6   1   4   43.10    3.30
   6   1  -4   46.00    3.80
   6   1  -4   43.90    3.20
  -6   1   4   48.10    3.80
   6   1  -4   42.20    3.40
   6   1  -4   40.00    4.00
  -6  -1   4   45.40    3.80
   6  -1  -4   38.00    4.00
   6  -1  -4   47.60    3.20
   6  -1  -4   42.20    4.00
  -6  -1   4   44.90    3.30
   6  -1  -4   40.30    3.60
   6  -1  -4   41.30    4.10
   6   1  -3  830.52   44.50
   6   1  -3  901.91   44.20
   6   1  -3  882.51   44.40
  -6   1   3  942.51   44.50
   6   1  -3  907.01   44.40
   6   1  -3  811.02   44.20
   6  -1  -3  918.71   44.20
   6  -1  -3  894.91   44.50
  -6  -1   3  882.01   44.20
   6  -1  -3  829.82   44.50
   6  -1  -3  845.32   44.50
  -6  -1   3  919.61   44.60
   6   1  -2  405.16   21.50
  -6   1   2  417.76   21.20
   6   1  -2  401.16   21.50
  -6   1   2  437.96   21.50
  -6   1   2  444.16   21.50
   6   1  -2  424.46   21.30
  -6  -1   2  397.16   21.50
  -6  -1   2  434.06   21.60
  -6  -1   2  430.56   21.20
   6  -1  -2  382.16   21.80
   6  -1  -2  418.86   21.50
  -6  -1   2  424.86   21.30
   6  -1  -2  431.36   21.20
   6  -1  -2  431.76   21.50
  -6   1   1   11.40    2.30
   6   1  -1   13.60    1.50
  -6   1   1   14.60    1.80
   6   1  -1   15.90    1.60
   6   1  -1   12.10    2.00
  -6   1   1   15.60    1.60
   6  -1  -1   12.70    1.80
  -6  -1   1   22.80    3.00
   6  -1  -1   11.90    2.30
  -6  -1   1   14.40    1.60
  -6   1   0 1322.77   67.29
   6   1   0 1288.77   67.19
   6   1   0 1281.67   66.79
  -6   1   0 1359.36   66.79
   6   1   0 1388.16   66.69
  -6  -1   0 1359.56   66.69
   6  -1   0 1217.48   66.69
  -6  -1   0 1315.27   66.79
  -6  -1   0 1381.36   67.29
   6  -1   0 1385.86   67.29
   6   1   1  341.57   17.20
  -6   1  -1  344.27   18.10
   6   1   1  310.07   17.30
  -6   1  -1  351.26   17.40
   6   1   1  331.27   17.90
  -6   1  -1  357.76   17.30
   6  -1   1  344.37   18.10
  -6  -1  -1  362.46   17.30
  -6  -1  -1  333.87   17.40
  -6  -1  -1  324.07   18.00
   6  -1   1  303.57   17.20
   6  -1   1  336.17   17.40
  -6   1  -2  332.07   18.40
  -6   1  -2  375.56   18.40
   6   1   2  352.16   19.10
  -6   1  -2  371.86   18.40
   6   1   2  368.46   18.50
  -6   1  -2  324.87   19.00
   6   1   2  374.06   18.30
  -6  -1  -2  372.86   18.30
  -6  -1  -2  327.17   19.00
  -6  -1  -2  379.06   18.40
  -6  -1  -2  348.57   18.40
   6  -1   2  338.37   18.40
   6  -1   2  334.17   18.30
   6  -1   2  380.66   19.30
  -6   1  -3   13.00    2.00
   6   1   3   14.20    3.00
  -6   1  -3   12.80    2.00
   6   1   3   15.80    2.30
  -6   1  -3   15.00    2.30
  -6   1  -3   15.00    3.00
   6   1   3   16.00    2.00
   6   1   3   16.40    2.40
  -6  -1  -3   15.10    2.20
   6  -1   3   12.30    2.20
  -6  -1  -3   13.50    2.10
  -6  -1  -3   16.50    3.60
   6  -1   3   14.50    2.20
  -6  -1  -3   14.20    2.50
   6  -1   3   10.70    1.80
  -6   1  -4  672.83   35.50
   6   1   4  698.73   34.70
  -6   1  -4  700.63   34.70
   6   1   4  660.03   34.70
   6   1   4  683.43   35.50
  -6   1  -4  695.63   34.70
  -6   1  -4  723.03   34.60
   6   1   4  660.93   34.60
   6  -1   4  683.83   34.60
   6  -1   4  653.83   34.60
  -6  -1  -4  622.54   35.40
  -6  -1  -4  698.73   34.70
   6  -1   4  706.13   34.70
  -6  -1  -4  737.53   34.60
   6  -1   4  650.93   35.50
  -6  -1  -4  601.34   34.60
   6   1   5   55.89    4.80
   6   1   5   54.49    5.60
  -6   1  -5   65.49    5.10
  -6   1  -5   60.89    4.70
  -6   1  -5   45.70    5.80
  -6   1  -5   55.39    4.70
   6   1   5   58.39    4.40
   6   1   5   54.59    4.30
  -6  -1  -5   56.79    4.70
   6  -1   5   56.09    4.80
  -6  -1  -5   53.39    4.80
  -6  -1  -5   65.89    6.70
   6  -1   5   55.99    4.60
   6  -1   5   58.59    4.30
   6  -1   5   58.49    6.10
  -6  -1  -5   57.19    4.90
  -6   1  -6  238.08   13.80
  -6   1  -6  234.28   12.70
   6   1   6  223.38   12.80
  -6   1  -6  235.58   12.80
   6  -1   6  218.88   13.70
   6  -1   6  234.18   12.90
  -6  -1  -6  216.88   14.00
  -6  -1  -6  233.38   12.90
  -6  -1  -6  224.58   12.60
   6   1   7  208.78   12.40
  -6   1  -7  233.58   12.40
  -6   1  -7  213.08   12.20
  -6   1  -7  225.48   13.50
  -6  -1  -7  215.68   13.70
   6  -1   7  218.08   12.40
  -6  -1  -7  186.58   12.20
  -6  -1  -7  221.98   12.20
  -6   1  -8  547.95   31.10
  -6   1  -8  576.94   30.10
   6   1   8  587.14   30.40
  -6   1  -8  603.34   30.30
  -6  -1  -8  554.94   30.30
  -6  -1  -8  583.44   30.20
  -6  -1  -8  587.84   31.50
   6  -1   8  576.94   30.40
  -6   1  -9    6.40    2.90
  -6   1  -9    4.80    3.10
  -6   1  -9    4.60    3.90
   6   1   9    6.60    2.90
   6  -1   9    5.70    2.90
  -6  -1  -9    9.50    4.70
  -6  -1  -9    5.40    3.50
  -6  -1  -9    6.20    3.00
   6   1  10    3.70    3.10
  -6   1 -10    4.80    3.30
  -6   1 -10    2.30    3.80
  -6   1 -10    2.20    3.10
  -6  -1 -10   -2.80    4.50
  -6  -1 -10    3.30    3.30
   6  -1  10   -0.80    2.70
  -6  -1 -10    4.30    3.70
   6   1  11  125.39    9.40
  -6   1 -11  133.59    9.50
  -6   1 -11  122.79    9.80
  -6   1 -11  127.29    9.10
  -6  -1 -11  110.39   10.70
   6  -1  11  131.39    9.40
  -6  -1 -11  151.18   10.60
  -6  -1 -11  126.59    9.40
  -6   1 -12   21.90    4.70
  -6   1 -12   20.90    4.70
   6   1  12   16.60    3.90
  -6   1 -12   22.30    4.30
  -6  -1 -12   17.80    4.00
  -6  -1 -12   10.80    5.70
   6  -1  12   19.20    4.20
   6   1  13   -1.50    3.10
  -6   1 -13    3.30    3.50
  -6   1 -13    9.50    3.90
  -6   1 -13   -0.70    3.80
  -6  -1 -13   -7.30    4.60
  -6  -1 -13   -2.20    4.60
   6  -1  13    2.80    3.40
  -6  -1 -13    0.70    3.70
   6   2 -14    9.70    4.50
  -6   2  14    3.90    3.40
   6  -2 -14   -1.10    4.20
   6  -2 -14   -1.60    5.30
  -6  -2  14   -1.30    3.20
   6   2 -13    7.00    3.70
   6   2 -13   10.90    4.00
  -6   2  13    4.60    3.00
   6  -2 -13    6.40    3.90
   6  -2 -13    4.30    4.80
  -6  -2  13    9.10    3.50
   6   2 -12   24.70    4.20
   6   2 -12   23.50    4.30
   6   2 -12   19.60    3.40
  -6   2  12   25.30    4.30
  -6  -2  12   23.50    4.00
   6  -2 -12   15.40    4.30
   6  -2 -12   26.70    5.40
  -6   2  11    0.80    2.70
   6   2 -11   -2.20    3.00
   6   2 -11   -0.70    3.10
   6   2 -11   -3.30    2.20
  -6  -2  11    0.20    2.60
   6  -2 -11   -0.20    3.70
   6  -2 -11   -0.40    3.90
   6  -2 -11   -3.30    4.10
   6   2 -10   41.40    4.60
  -6   2  10   56.39    5.10
   6   2 -10   37.20    4.30
   6   2 -10   46.60    4.40
   6  -2 -10   34.40    5.10
   6  -2 -10   30.40    4.40
   6  -2 -10   41.20    5.30
  -6  -2  10   46.80    4.80
   6   2  -9    3.20    2.60
  -6   2   9    1.70    2.40
   6   2  -9    0.70    2.10
   6   2  -9    0.20    2.60
   6  -2  -9   -0.60    3.30
   6  -2  -9    0.40    2.90
  -6  -2   9    0.70    2.40
   6  -2  -9    1.50    3.30
  -6  -2   9    0.00    1.60
   6   2  -8    3.90    2.50
   6   2  -8    4.70    2.00
  -6   2   8    6.80    2.40
   6   2  -8    7.70    2.50
  -6  -2   8    8.10    2.50
   6  -2  -8    1.00    2.50
   6  -2  -8    5.90    3.10
   6  -2  -8    8.90    3.30
   6   2  -7  483.35   24.40
   6   2  -7  467.45   24.10
  -6   2   7  484.15   24.70
   6   2  -7  476.45   24.40
  -6  -2   7  453.45   24.20
   6  -2  -7  481.25   25.20
   6  -2  -7  463.95   24.90
   6  -2  -7  438.36   24.60
  -6  -2   7  481.45   24.70
   6   2  -6  150.08    8.30
   6   2  -6  147.19    8.30
   6   2  -6  143.79    7.80
  -6   2   6  140.59    8.50
  -6  -2   6  141.99    8.50
   6  -2  -6  145.99    8.60
   6  -2  -6  146.69    9.30
  -6  -2   6  144.69    8.00
   6  -2  -6  124.39    9.00
   6  -2  -6  137.39    8.70
   6   2  -5   60.19    3.80
  -6   2   5   62.29    4.60
   6   2  -5   62.49    4.50
   6   2  -5   59.29    4.60
  -6   2   5   59.79    4.30
   6   2  -5   53.39    5.00
  -6  -2   5   57.69    4.00
  -6  -2   5   71.69    4.80
   6  -2  -5   65.09    5.40
   6  -2  -5   59.49    4.90
   6  -2  -5   62.89    5.90
   6  -2  -5   63.89    4.40
   6  -2  -5   63.49    5.00
  -6   2   4  262.77   13.80
   6   2  -4  262.67   13.30
   6   2  -4  270.57   13.70
  -6   2   4  261.97   13.90
   6   2  -4  251.27   14.00
   6   2  -4  265.37   13.70
   6  -2  -4  255.57   14.20
  -6  -2   4  270.77   13.90
   6  -2  -4  257.87   13.90
   6  -2  -4  272.87   13.70
  -6  -2   4  255.27   13.50
   6  -2  -4  260.07   14.00
  -6  -2   4  244.98   13.30
   6  -2  -4  256.27   14.00
   6   2  -3    8.80    2.00
   6   2  -3   10.40    1.90
   6   2  -3   10.60    1.50
   6   2  -3    9.50    1.40
   6   2  -3    8.60    1.70
   6   2  -3    8.90    1.00
  -6   2   3    9.80    1.80
  -6  -2   3    8.90    1.90
   6  -2  -3    8.20    2.00
  -6  -2   3   10.50    1.60
  -6  -2   3    8.60    1.70
   6  -2  -3    8.10    1.90
   6  -2  -3    6.50    1.80
   6   2  -2  386.16   19.50
  -6   2   2  401.86   19.70
   6   2  -2  393.56   19.70
  -6   2   2  394.96   19.80
  -6   2   2  378.06   19.70
   6   2  -2  382.56   19.50
   6   2  -2  352.66   19.90
   6   2  -2  372.46   19.40
  -6  -2   2  400.06   19.80
  -6  -2   2  388.36   19.70
   6  -2  -2  396.96   19.80
  -6  -2   2  331.17   19.80
   6  -2  -2  423.16   19.80
  -6   2   1   93.69    5.40
   6   2  -1   95.99    5.10
   6   2  -1   87.59    5.80
  -6   2   1   93.49    5.50
   6   2  -1   92.89    5.20
  -6   2   1   96.19    5.50
   6  -2  -1   93.49    5.50
  -6  -2   1   85.29    5.90
  -6  -2   1   92.59    5.10
   6  -2  -1   97.79    6.50
  -6  -2   1   97.29    5.50
  -6  -2   1   88.19    5.20
  -6  -2   1   97.09    5.60
   6  -2  -1   87.19    5.50
   6   2   0  281.77   15.50
   6   2   0  300.97   15.30
  -6   2   0  328.57   15.60
  -6   2   0  303.57   15.70
   6   2   0  286.47   16.10
   6  -2   0  280.17   15.50
  -6  -2   0  305.77   15.50
   6  -2   0  301.57   16.40
  -6  -2   0  311.97   15.30
   6   2   1   29.20    3.90
  -6   2  -1   26.30    2.70
  -6   2  -1   42.40    3.10
  -6   2  -1   28.50    2.90
   6   2   1   29.90    3.10
  -6   2  -1   25.10    3.50
   6   2   1   30.30    2.50
   6  -2   1   25.50    3.40
   6  -2   1   33.60    2.80
  -6  -2  -1   38.50    4.00
  -6  -2  -1   26.00    2.30
  -6  -2  -1   27.90    3.20
   6   2   2    0.70    2.30
   6   2   2    0.70    1.20
  -6   2  -2   -0.10    2.50
  -6   2  -2    1.40    1.60
   6   2   2    0.50    1.60
  -6   2  -2    0.10    1.40
  -6  -2  -2    1.70    2.90
   6  -2   2    1.30    1.70
  -6  -2  -2    1.50    1.50
  -6  -2  -2    2.40    1.90
   6  -2   2    2.80    1.40
   6  -2   2   -0.60    2.10
  -6  -2  -2    2.70    1.50
  -6   2  -3  488.05   24.70
   6   2   3  508.35   24.60
   6   2   3  446.06   24.70
  -6   2  -3  501.05   24.60
  -6   2  -3  514.75   25.60
   6   2   3  477.05   24.70
   6   2   3  442.86   25.50
   6  -2   3  485.55   24.60
  -6  -2  -3  491.75   25.70
   6  -2   3  455.55   25.40
  -6  -2  -3  468.45   24.50
  -6  -2  -3  470.55   24.80
   6  -2   3  484.35   24.60
   6  -2   3  463.05   24.70
  -6  -2  -3  481.95   24.60
  -6   2  -4   22.80    3.90
   6   2   4   23.50    2.90
   6   2   4   24.10    3.80
  -6   2  -4   24.50    2.60
   6   2   4   22.80    2.50
   6   2   4   28.90    3.00
  -6   2  -4   23.80    3.00
  -6   2  -4   20.20    2.80
  -6  -2  -4   23.40    2.70
  -6  -2  -4   22.40    4.10
   6  -2   4   22.50    2.50
  -6  -2  -4   19.90    2.60
   6  -2   4   27.30    4.10
   6  -2   4   21.20    2.70
  -6  -2  -4   21.80    3.10
   6  -2   4   24.00    2.80
  -6   2  -5   60.99    4.90
  -6   2  -5   51.29    5.60
   6   2   5   46.60    4.70
  -6   2  -5   62.39    4.50
  -6   2  -5   54.29    4.70
  -6  -2  -5   58.09    6.60
   6  -2   5   54.89    4.60
   6  -2   5   47.60    4.30
   6  -2   5   55.29    6.10
   6  -2   5   43.00    4.30
  -6  -2  -5   53.29    4.60
  -6  -2  -5   57.09    4.50
  -6  -2  -5   56.59    5.10
  -6   2  -6   11.70    3.60
  -6   2  -6   18.80    3.00
  -6   2  -6   12.70    2.60
   6   2   6   15.40    2.70
  -6  -2  -6   17.10    2.80
  -6  -2  -6   12.00    2.90
  -6  -2  -6   15.90    4.40
   6  -2   6    8.00    3.70
   6  -2   6   12.90    2.60
   6   2   7   32.50    3.80
  -6   2  -7   30.70    3.50
  -6   2  -7   32.00    4.60
  -6   2  -7   32.00    3.80
  -6  -2  -7   33.10    4.30
  -6  -2  -7   29.90    3.50
   6  -2   7   31.20    3.80
  -6  -2  -7   32.90    5.70
  -6   2  -8  125.19    7.90
   6   2   8  113.69    8.00
  -6   2  -8  110.19    7.70
  -6   2  -8  108.79    8.70
  -6  -2  -8  104.89    9.80
   6  -2   8  125.19    8.10
  -6  -2  -8  111.29    7.80
  -6  -2  -8  111.79    8.40
  -6   2  -9    4.60    2.90
   6   2   9    7.00    3.10
  -6   2  -9    2.30    3.50
  -6   2  -9    7.90    3.30
  -6  -2  -9    1.60    3.10
  -6  -2  -9    4.30    4.00
   6  -2   9    3.20    2.80
  -6  -2  -9    5.80    5.40
  -6   2 -10    2.60    3.60
   6   2  10    4.40    3.10
  -6   2 -10    6.90    3.20
  -6   2 -10    7.50    3.60
   6  -2  10    2.20    2.90
  -6  -2 -10   -0.80    5.00
  -6  -2 -10   10.20    4.50
  -6  -2 -10    1.90    3.20
  -6   2 -11    1.00    3.40
  -6   2 -11    2.20    3.80
   6   2  11    1.60    3.20
  -6   2 -11    5.80    3.70
  -6  -2 -11   -0.50    3.50
   6  -2  11   -0.40    2.90
  -6  -2 -11    1.10    4.30
  -6  -2 -11   -5.80    5.30
  -6   2 -12    0.70    3.60
  -6   2 -12   -3.50    3.60
   6   2  12    1.30    3.50
  -6   2 -12    5.20    3.60
  -6  -2 -12   -2.00    4.80
   6  -2  12    2.80    3.40
  -6  -2 -12    1.40    3.50
  -6   2 -13   17.00    4.80
   6   2  13   25.00    5.20
  -6   2 -13   32.60    4.90
  -6   2 -13    7.40    3.20
  -6  -2 -13   12.80    6.60
  -6  -2 -13   20.50    4.40
   6  -2  13   31.70    5.00
  -6  -2 -13   19.00    5.50
  -6   3  14   -2.60    3.50
   6   3 -14    0.50    3.90
   6  -3 -14    1.30    4.10
  -6  -3  14   -0.30    3.10
   6  -3 -14   -2.00    5.40
  -6   3  13    5.00    3.40
   6   3 -13    9.60    4.00
   6   3 -13    5.10    3.70
  -6  -3  13    3.80    3.10
   6  -3 -13   -0.90    5.40
   6  -3 -13    2.50    4.00
  -6   3  12    0.30    2.90
   6   3 -12   -1.20    3.20
   6   3 -12    5.20    3.60
   6  -3 -12   -4.90    3.80
   6  -3 -12   10.60    5.00
  -6  -3  12   -2.10    2.80
   6  -3 -12   -5.30    4.60
   6   3 -11    1.30    3.10
  -6   3  11    0.50    2.70
   6   3 -11    1.50    3.00
   6  -3 -11   -1.80    4.30
  -6  -3  11    2.10    2.80
   6  -3 -11   -5.40    4.00
   6  -3 -11    1.70    3.60
  -6   3  10    2.70    2.50
   6   3 -10    5.10    3.00
   6   3 -10    0.70    2.80
   6   3 -10    7.90    1.70
   6  -3 -10    0.90    3.10
   6  -3 -10    1.10    4.00
   6  -3 -10    1.30    4.00
  -6  -3  10   -1.70    2.50
  -6   3   9  159.78    9.80
   6   3  -9  151.88    9.60
   6   3  -9  158.78    8.60
   6   3  -9  145.49    9.40
   6  -3  -9  154.58   11.10
   6  -3  -9  145.19   10.60
   6  -3  -9  143.99   10.00
  -6  -3   9  166.78   10.00
   6   3  -8   62.59    4.00
   6   3  -8   62.39    5.10
   6   3  -8   64.49    5.40
  -6   3   8   59.49    5.10
   6  -3  -8   60.29    5.80
   6  -3  -8   50.79    5.50
  -6  -3   8   69.79    5.70
   6  -3  -8   61.89    7.00
   6   3  -7    2.80    2.10
  -6   3   7    4.30    2.10
   6   3  -7    2.60    1.20
   6   3  -7    4.10    2.50
   6  -3  -7    5.50    3.30
   6  -3  -7    2.90    2.60
   6  -3  -7    4.10    3.00
  -6  -3   7    2.50    1.40
   6  -3  -7    3.50    2.10
  -6  -3   7    4.10    2.20
   6   3  -6   33.60    2.90
  -6   3   6   34.80    3.30
   6   3  -6   36.00    3.50
   6  -3  -6   28.20    4.30
   6  -3  -6   33.90    4.10
   6  -3  -6   24.50    3.20
  -6  -3   6   28.00    2.60
   6  -3  -6   27.00    3.20
   6  -3  -6   28.30    3.60
  -6  -3   6   39.70    3.60
   6   3  -5    8.80    2.40
   6   3  -5    7.70    2.30
  -6   3   5    6.90    2.00
   6   3  -5    8.70    1.80
   6  -3  -5    9.80    3.50
   6  -3  -5    5.90    2.20
  -6  -3   5    8.90    1.40
  -6  -3   5    9.00    1.40
   6  -3  -5    8.20    2.10
   6  -3  -5    9.80    2.90
   6  -3  -5   11.50    2.30
  -6  -3   5    6.10    2.10
  -6   3   4    7.10    1.90
   6   3  -4    8.50    1.60
   6   3  -4    9.60    2.10
   6   3  -4    5.60    1.40
   6   3  -4    9.50    2.40
   6  -3  -4    7.80    2.20
  -6  -3   4    8.00    1.80
   6  -3  -4    7.20    2.20
  -6  -3   4    8.90    2.00
   6  -3  -4    9.20    2.30
  -6  -3   4    9.00    1.80
   6  -3  -4    7.90    2.70
   6  -3  -4    9.50    2.00
  -6   3   3  198.98   10.80
   6   3  -3  200.68   10.90
  -6   3   3  194.78   10.50
   6   3  -3  189.48   10.70
   6   3  -3  218.58   10.20
   6   3  -3  195.38   10.20
   6  -3  -3  189.38   10.70
  -6  -3   3  188.88   10.80
   6  -3  -3  192.58   10.80
   6  -3  -3  202.38   10.90
   6  -3  -3  185.28   10.50
  -6  -3   3  190.38   10.60
   6  -3  -3  196.08   11.30
  -6  -3   3  198.08   10.70
   6   3  -2 2011.90   93.29
  -6   3   2 1859.41   93.19
  -6   3   2 1849.81   93.19
   6   3  -2 1824.12   92.79
   6   3  -2 1877.11   92.79
   6   3  -2 1919.51   92.79
   6   3  -2 1795.32   93.49
  -6   3   2 1817.02   92.99
  -6  -3   2 1693.03   93.39
  -6  -3   2 1901.81   93.19
  -6  -3   2 1772.72   92.79
   6  -3  -2 1767.02   93.19
   6  -3  -2 1885.41   93.19
  -6  -3   2 1834.82   93.09
   6  -3  -2 2017.60   93.29
   6   3  -1 1389.86   67.39
  -6   3   1 1339.17   67.69
  -6   3   1 1329.47   67.49
  -6   3   1 1324.47   67.39
   6   3  -1 1329.77   67.19
   6   3  -1 1373.26   68.09
  -6  -3   1 1319.57   67.99
  -6  -3   1 1303.37   67.29
  -6  -3   1 1385.46   67.59
  -6  -3   1 1339.47   67.49
  -6  -3   1 1364.66   67.19
   6  -3  -1 1336.37   67.59
   6  -3  -1 1310.97   67.49
   6   3   0   -0.50    2.30
   6   3   0    0.10    1.50
   6   3   0    0.60    1.00
  -6   3   0    1.20    2.00
  -6   3   0    0.80    1.60
   6  -3   0    0.40    2.00
  -6  -3   0    0.60    1.80
  -6  -3   0    6.80    2.50
  -6  -3   0    1.20    1.00
   6  -3   0    0.20    1.50
  -6  -3   0    4.00    1.50
   6  -3   0   -1.00    2.70
  -6   3  -1   78.89    4.90
  -6   3  -1   84.09    5.30
   6   3   1   83.19    4.80
   6   3   1   84.79    5.30
  -6   3  -1   86.89    5.90
   6   3   1   80.29    6.40
  -6  -3  -1   76.19    5.40
   6  -3   1   82.99    6.70
   6  -3   1   78.09    5.10
  -6  -3  -1   77.79    4.80
  -6  -3  -1   85.39    6.70
  -6  -3  -1   83.29    5.40
   6   3   2  364.86   18.50
  -6   3  -2  350.66   18.30
  -6   3  -2  349.96   18.20
   6   3   2  329.97   19.20
  -6   3  -2  355.06   18.70
   6   3   2  376.06   18.20
  -6  -3  -2  349.27   18.50
   6  -3   2  360.66   19.40
  -6  -3  -2  351.76   18.10
  -6  -3  -2  352.26   18.30
  -6  -3  -2  343.07   19.30
   6  -3   2  342.17   18.20
   6   3   3  152.48    9.00
  -6   3  -3  148.19    8.70
   6   3   3  165.28    8.60
  -6   3  -3  141.09    9.20
  -6   3  -3  161.18   10.00
  -6   3  -3  158.08    8.70
   6   3   3  160.78   10.10
  -6  -3  -3  155.78    9.10
   6  -3   3  152.78    8.90
  -6  -3  -3  160.18   10.40
   6  -3   3  156.68    8.70
  -6  -3  -3  155.48    8.60
   6  -3   3  148.29   10.00
   6  -3   3  150.48    8.60
  -6  -3  -3  145.99    8.70
  -6   3  -4   40.10    4.00
  -6   3  -4   43.90    5.20
  -6   3  -4   44.80    3.90
   6   3   4   47.90    4.20
  -6   3  -4   49.99    4.80
   6   3   4   49.00    3.90
  -6  -3  -4   43.90    3.90
   6  -3   4   50.79    5.30
   6  -3   4   45.50    4.00
   6  -3   4   41.90    3.60
   6  -3   4   38.80    3.90
  -6  -3  -4   41.00    3.80
  -6   3  -5   75.79    5.20
  -6   3  -5   70.09    5.20
   6   3   5   66.89    5.10
  -6   3  -5   69.09    5.80
  -6   3  -5   63.39    6.20
  -6  -3  -5   69.69    5.10
   6  -3   5   60.59    6.60
  -6  -3  -5   63.99    5.00
   6  -3   5   67.09    5.20
   6  -3   5   65.89    5.00
  -6   3  -6  340.07   17.60
  -6   3  -6  324.07   18.70
   6   3   6  348.57   17.90
  -6   3  -6  341.37   17.80
  -6  -3  -6  296.97   18.80
  -6  -3  -6  335.07   18.10
  -6  -3  -6  325.17   17.60
   6  -3   6  330.57   17.80
  -6   3  -7  144.99    9.00
  -6   3  -7  138.99    8.80
  -6   3  -7  137.29    9.90
   6   3   7  137.89    8.90
  -6  -3  -7  147.79   11.00
  -6  -3  -7  149.19    9.60
  -6  -3  -7  129.69    8.70
   6  -3   7  144.59    8.90
  -6   3  -8    2.80    2.90
  -6   3  -8    0.50    3.20
   6   3   8    0.00    2.60
  -6   3  -8    1.10    2.60
   6  -3   8   -0.70    2.50
  -6  -3  -8   -1.70    4.60
  -6  -3  -8    3.70    3.80
  -6  -3  -8   -1.20    2.70
  -6   3  -9    5.20    3.40
   6   3   9    0.90    2.80
  -6   3  -9    3.50    3.70
  -6   3  -9    4.40    2.90
   6  -3   9    3.80    2.80
  -6  -3  -9   -2.60    4.00
  -6  -3  -9    1.10    5.00
  -6  -3  -9   -2.80    3.00
  -6   3 -10    0.50    3.00
  -6   3 -10    1.30    3.70
   6   3  10   -0.40    2.80
  -6   3 -10    3.60    3.50
  -6  -3 -10   -0.10    3.10
  -6  -3 -10   -4.70    5.20
  -6  -3 -10   -2.40    4.10
   6  -3  10   -0.10    2.80
  -6   3 -11   39.20    5.60
  -6   3 -11   39.60    5.10
   6   3  11   32.70    5.10
  -6   3 -11   33.00    4.70
  -6  -3 -11   28.50    4.60
  -6  -3 -11   40.30    6.30
   6  -3  11   33.60    4.80
  -6  -3 -11   34.80    7.70
  -6   3 -12   17.40    4.80
   6   3  12   15.40    4.10
  -6   3 -12   16.20    4.30
  -6   3 -12   13.70    4.10
  -6  -3 -12   -1.20    6.40
  -6  -3 -12   17.60    4.20
   6  -3  12   17.90    4.10
  -6  -3 -12   16.10    5.80
  -6   3 -13    6.70    4.20
   6   3  13    6.30    4.30
  -6   3 -13    7.90    3.20
  -6  -3 -13    9.50    4.30
   6  -3  13    2.70    3.80
  -6  -3 -13    7.10    5.80
  -6  -3 -13   -6.20    6.50
   6   4 -13   43.90    5.20
  -6   4  13   41.40    5.60
   6   4 -13   39.60    5.10
  -6  -4  13   39.10    5.60
   6  -4 -13   46.70    6.00
   6  -4 -13   46.90    7.10
   6   4 -12   49.00    5.30
   6   4 -12   49.20    5.90
  -6   4  12   49.00    5.60
   6  -4 -12   57.89    7.60
   6  -4 -12   47.90    6.00
   6  -4 -12   48.40    6.80
  -6  -4  12   51.89    6.00
   6   4 -11    4.10    3.40
   6   4 -11    2.60    3.00
  -6   4  11    4.60    2.90
  -6  -4  11    4.50    3.10
   6  -4 -11    4.00    4.70
   6  -4 -11    1.30    4.80
   6  -4 -11    4.60    3.60
  -6   4  10   41.60    4.50
   6   4 -10   37.80    4.20
   6   4 -10   39.30    4.80
   6  -4 -10   58.79    8.20
   6  -4 -10   34.20    4.90
  -6  -4  10   33.50    4.50
   6  -4 -10   32.40    5.80
   6   4  -9    2.90    3.20
   6   4  -9   -0.10    2.50
  -6  -4   9    3.00    2.70
   6  -4  -9    4.30    4.20
   6  -4  -9    7.50    4.60
   6  -4  -9   -1.90    3.00
   6   4  -8   18.10    3.70
   6   4  -8   18.90    2.70
  -6   4   8   20.30    3.10
   6  -4  -8   15.70    4.00
   6  -4  -8    9.90    3.20
  -6  -4   8   18.90    3.30
   6  -4  -8   15.50    4.80
  -6  -4   8   12.60    2.00
   6   4  -7   11.50    3.20
   6   4  -7   16.90    2.40
  -6   4   7   16.00    2.70
  -6  -4   7   20.10    3.00
  -6  -4   7   22.30    2.60
   6  -4  -7   20.10    3.40
  -6  -4   7   12.70    1.90
   6  -4  -7   15.90    4.00
   6  -4  -7   21.60    4.70
  -6  -4   7   22.90    2.50
   6   4  -6   37.90    4.00
   6   4  -6   36.80    3.20
  -6   4   6   35.70    3.40
   6  -4  -6   32.20    4.40
   6  -4  -6   34.90    3.80
  -6  -4   6   46.60    4.20
   6  -4  -6   29.00    3.70
  -6  -4   6   29.20    2.70
   6  -4  -6   36.40    5.30
   6  -4  -6   30.60    3.30
   6   4  -5   72.39    4.30
   6   4  -5   73.89    5.60
  -6   4   5   76.49    4.90
   6   4  -5   66.19    5.00
   6  -4  -5   74.99    5.10
  -6  -4   5   60.39    4.80
  -6  -4   5   64.59    4.80
   6  -4  -5   78.69    6.30
   6  -4  -5   64.89    5.30
   6  -4  -5   66.69    5.50
  -6  -4   5   66.09    4.00
  -6  -4   5   66.49    5.20
   6  -4  -5   71.89    7.20
  -6   4   4    5.70    1.90
   6   4  -4   10.50    2.80
   6   4  -4    8.30    1.20
   6   4  -4    7.20    1.30
   6   4  -4   12.20    2.10
  -6  -4   4    5.50    2.00
   6  -4  -4    5.10    2.20
   6  -4  -4    8.90    1.90
  -6  -4   4    9.30    2.20
   6  -4  -4    5.20    2.50
  -6  -4   4    6.80    2.10
   6  -4  -4    8.70    3.00
   6  -4  -3   12.10    2.70
   6  -4  -3   18.30    3.20
  -6  -4   3   11.70    2.60
   6  -4  -3    8.30    2.10
  -6   4   2   28.00    2.80
  -6   4   2   30.00    3.40
   6   4  -2   27.00    2.60
   6   4  -2   34.20    3.60
  -6  -4   2   30.00    3.00
   6  -4  -2   27.10    2.80
  -6  -4   2   31.50    3.80
   6  -4  -2   32.50    3.50
   6  -4  -2   28.70    3.00
  -6  -4   2   35.90    3.60
  -6  -4   2   32.20    2.40
  -6   4   1  186.58   10.20
   6   4  -1  193.28   10.40
   6   4  -1  199.78   11.20
   6   4  -1  193.68   11.60
  -6   4   1  187.18   10.60
  -6  -4   1  221.38   10.40
  -6  -4   1  204.28   10.50
   6  -4  -1  184.18   10.90
   6  -4  -1  180.48   10.50
   6   4   0    4.00    1.00
   6   4   0    4.50    1.80
   6   4   0    2.60    2.60
  -6   4   0    4.50    1.80
  -6   4   0    3.60    1.30
  -6   4   0    1.70    2.30
  -6  -4   0   10.10    1.90
   6  -4   0    1.10    2.20
  -6  -4   0    7.50    2.90
  -6  -4   0    3.80    2.10
   6  -4   0    3.40    1.50
   6  -4   0    5.70    2.80
  -6  -4   0    4.70    1.00
  -6   4  -1    4.90    2.40
   6   4   1    2.70    1.20
   6   4   1    4.90    2.00
   6   4   1    2.90    2.80
  -6   4  -1    4.40    1.70
   6  -4   1    3.80    1.50
   6  -4   1    4.50    2.20
   6  -4   1    2.90    2.60
  -6  -4  -1    5.60    2.20
  -6   4  -2   47.70    3.30
  -6   4  -2   47.00    4.40
   6   4   2   39.00    3.10
   6   4   2   36.30    3.70
  -6   4  -2   38.90    3.60
  -6  -4  -2   34.80    3.50
   6  -4   2   32.50    3.20
  -6  -4  -2   35.20    3.10
  -6  -4  -2   34.30    4.70
  -6  -4  -2   36.70    3.60
   6  -4   2   29.40    4.30
  -6   4  -3   98.59    6.70
  -6   4  -3   98.99    5.70
  -6   4  -3   87.49    5.80
   6   4   3   93.19    5.50
   6   4   3   86.49    5.90
   6  -4   3   83.89    5.60
  -6  -4  -3  107.29    8.10
   6  -4   3   79.89    5.90
  -6  -4  -3   85.69    5.60
  -6  -4  -3   87.59    5.70
   6  -4   3   83.79    5.60
  -6  -4  -3   93.19    6.30
  -6   4  -4  253.07   14.20
  -6   4  -4  263.47   14.20
   6   4   4  280.77   14.30
  -6   4  -4  276.57   15.00
   6  -4   4  240.18   14.30
  -6  -4  -4  289.67   15.00
   6  -4   4  257.57   14.30
  -6  -4  -4  284.57   14.30
  -6  -4  -4  248.98   14.30
  -6  -4  -4  307.47   16.40
   6  -4   4  245.08   14.20
  -6   4  -5  110.89    8.00
  -6   4  -5  121.39    7.10
  -6   4  -5  107.29    7.00
   6   4   5  115.89    7.10
  -6  -4  -5  114.79    8.90
   6  -4   5   94.99    6.80
  -6  -4  -5  115.19    7.10
  -6  -4  -5  112.09    7.80
   6  -4   5  119.19    7.10
  -6  -4  -5   97.29    7.30
  -6   4  -6   11.00    2.60
   6   4   6   12.10    2.60
  -6   4  -6   14.80    3.70
  -6   4  -6   13.90    3.80
  -6  -4  -6   13.90    5.00
  -6  -4  -6   12.80    3.60
  -6  -4  -6    9.70    2.80
   6  -4   6   12.80    2.70
   6   4   7  178.88   11.10
  -6   4  -7  180.28   11.90
  -6   4  -7  184.98   12.40
  -6   4  -7  183.28   10.80
  -6  -4  -7  192.58   11.00
  -6  -4  -7  206.18   13.50
   6  -4   7  179.18   11.10
  -6  -4  -7  189.58   11.80
  -6   4  -8   13.30    4.00
   6   4   8    8.50    3.10
  -6   4  -8    6.90    3.80
  -6   4  -8    9.00    3.00
  -6  -4  -8   22.20    5.70
   6  -4   8    8.20    3.00
  -6  -4  -8   11.90    3.20
  -6  -4  -8   23.60    4.60
   6   4   9   27.50    4.10
  -6   4  -9   28.20    5.10
  -6   4  -9   24.00    3.80
  -6   4  -9   31.80    5.10
  -6  -4  -9   23.20    5.10
   6  -4   9   31.20    4.20
  -6  -4  -9   27.70    4.00
  -6  -4  -9   31.60    6.60
  -6   4 -10    0.10    3.10
  -6   4 -10    2.00    3.70
  -6   4 -10    0.00    3.70
   6   4  10    0.10    2.80
  -6  -4 -10   -0.10    4.80
   6  -4  10   -1.40    3.00
  -6  -4 -10   -0.10    3.30
  -6  -4 -10   -0.90    5.50
   6   4  11    7.80    3.40
  -6   4 -11    6.20    3.60
  -6   4 -11    7.80    4.30
  -6   4 -11   11.30    4.40
  -6   4 -11   11.50    3.70
  -6  -4 -11    3.70    3.70
   6  -4  11    9.40    3.80
  -6  -4 -11    8.30    5.20
  -6  -4 -11    5.20    6.50
   6   4  12   15.40    4.10
  -6   4 -12   17.90    4.10
  -6   4 -12   18.30    5.30
  -6   4 -12   18.50    3.70
   6  -4  12   24.50    4.70
  -6  -4 -12   10.80    7.50
  -6  -4 -12   24.30    6.50
  -6  -4 -12   14.20    4.20
   6   5 -12   46.30    5.80
  -6   5  12   41.90    5.10
  -6  -5  12   45.20    5.70
   6  -5 -12   34.50    6.60
   6  -5 -12   37.70    7.20
   6  -5 -12   35.50    5.60
   6   5 -11  164.88   12.00
  -6   5  11  190.78   11.60
  -6  -5  11  188.78   11.90
   6  -5 -11  194.18   13.30
   6  -5 -11  180.88   11.90
   6  -5 -11  173.58   13.70
  -6   5  10    1.30    2.60
   6   5 -10    2.00    2.60
   6   5 -10    9.20    3.80
  -6  -5  10    4.10    2.90
   6  -5 -10   -2.90    4.40
   6  -5 -10   -0.30    3.20
   6  -5 -10   -1.50    5.10
  -6   5   9  112.59    7.80
   6   5  -9  109.59    7.10
   6   5  -9   99.89    8.30
   6  -5  -9  100.29    9.30
  -6  -5   9  107.69    7.90
   6  -5  -9  110.59    8.30
   6  -5  -9  103.99   10.20
   6   5  -8  272.57   14.60
   6   5  -8  271.27   15.80
  -6   5   8  271.17   15.10
   6  -5  -8  255.87   16.10
   6  -5  -8  280.57   17.40
   6  -5  -8  276.37   15.70
  -6  -5   8  285.77   15.50
   6   5  -7  323.57   17.40
   6   5  -7  301.67   18.40
   6  -5  -7  351.26   19.10
   6  -5  -7  345.17   18.40
  -6  -5   7  312.17   17.70
   6  -5  -7  380.96   20.30
  -6  -5   7  334.37   18.10
  -6   5   6   68.29    4.60
   6   5  -6   49.99    3.70
   6   5  -6   52.99    5.70
   6  -5  -6   61.79    6.80
   6  -5  -6   51.39    5.40
  -6  -5   6   65.09    4.80
   6  -5  -6   55.99    7.70
  -6  -5   6   54.79    4.90
  -6  -5   6   51.39    3.50
   6  -5  -6   50.59    4.90
  -6  -5   6   57.19    4.90
   6   5  -5  105.59    5.60
   6   5  -5  100.79    5.50
  -6   5   5  105.39    6.30
   6   5  -5  102.79    7.60
   6  -5  -5  106.29    7.90
   6  -5  -5   99.99    6.40
   6  -5  -5  109.39    7.00
   6  -5  -5   97.39    9.30
  -6  -5   5  104.19    6.60
  -6  -5   5   91.49    6.80
   6   5  -4  175.08   10.50
   6   5  -4  186.78   11.20
  -6   5   4  212.38   10.30
   6  -5  -4  190.18   10.80
  -6  -5   4  185.98   10.50
  -6  -5   4  187.08   11.10
   6  -5  -4  185.28   10.20
   6  -5  -4  185.38   11.40
  -6   5   3    5.70    2.80
   6   5  -3    7.60    3.00
  -6   5   3    8.00    1.60
   6  -5  -3    6.50    2.20
   6  -5  -3    5.30    2.90
  -6  -5   3    4.00    2.50
  -6  -5   3    5.00    1.70
   6   5  -2    6.50    2.90
   6  -5  -2    4.20    1.70
   6  -5  -2    2.70    2.00
   6  -5  -2    1.10    2.80
   6   5  -1   13.60    3.20
  -6   5   1   18.40    2.20
   6   5  -1    6.80    1.90
   6  -5  -1   10.10    1.90
   6  -5  -1    9.60    2.10
  -6   5   0   23.60    2.20
  -6   5   0   30.40    3.80
  -6   5   0   23.60    2.60
  -6   5   0   26.40    2.20
   6   5   0   28.00    2.80
  -6  -5   0   23.80    4.00
  -6  -5   0   26.10    2.40
   6  -5   0   23.90    2.50
  -6  -5   0   29.60    3.20
   6   5   1    0.20    1.10
  -6   5  -1    2.20    2.60
  -6   5  -1    0.20    1.30
   6   5   1    0.50    1.90
  -6   5  -1    0.80    1.80
  -6  -5  -1   -0.30    1.10
  -6  -5  -1    3.40    3.30
  -6  -5  -1    0.30    1.50
   6  -5   1   -2.10    1.50
  -6  -5  -1    1.30    2.20
  -6   5  -2  400.26   21.70
   6   5   2  439.66   21.80
  -6   5  -2  423.66   22.00
   6   5   2  431.56   22.30
  -6   5  -2  398.86   22.70
   6  -5   2  384.06   21.80
  -6  -5  -2  422.66   21.90
  -6  -5  -2  447.56   23.60
  -6  -5  -2  451.65   22.40
  -6  -5  -2  444.36   21.70
  -6   5  -3  155.88    8.60
   6   5   3  159.48    8.30
  -6   5  -3  145.39    8.30
  -6   5  -3  131.59    9.40
   6  -5   3  124.79    8.70
  -6  -5  -3  155.58    8.40
   6  -5   3  140.89    8.30
  -6  -5  -3  157.08    9.20
  -6  -5  -3  165.18   10.80
  -6  -5  -3  145.29    8.50
  -6  -5  -4   23.30    2.70
  -6   5  -5  360.86   19.70
  -6   5  -5  373.26   20.70
  -6   5  -5  377.76   19.80
   6  -5   5  363.06   19.70
  -6  -5  -5  397.16   20.50
  -6  -5  -5  368.06   21.70
  -6  -5  -5  385.06   19.80
  -6   5  -6   19.10    4.00
  -6   5  -6   20.70    3.00
   6   5   6   16.00    3.00
  -6  -5  -6   22.30    3.10
  -6  -5  -6   24.80    4.40
  -6  -5  -6   21.20    5.70
   6  -5   6   19.10    3.00
  -6   5  -7    3.00    2.60
  -6   5  -7    9.00    3.70
   6   5   7    7.20    2.70
  -6  -5  -7    6.60    5.40
   6  -5   7    5.80    2.60
  -6  -5  -7    6.00    4.10
  -6  -5  -7    4.20    2.80
  -6   5  -8   21.70    3.50
   6   5   8   14.50    3.40
  -6   5  -8   28.00    4.90
  -6  -5  -8   23.80    3.70
  -6  -5  -8   29.70    6.70
  -6  -5  -8   27.70    5.00
   6  -5   8   19.90    3.50
  -6   5  -9    4.90    2.80
   6   5   9    1.20    3.00
  -6   5  -9    3.00    4.00
   6  -5   9    1.80    3.00
  -6  -5  -9   11.30    6.10
  -6  -5  -9   15.00    5.10
  -6  -5  -9    1.80    3.40
   6   5  10   30.60    4.60
  -6   5 -10   26.70    4.20
  -6   5 -10   24.30    5.20
  -6  -5 -10   28.30    7.30
  -6  -5 -10   27.70    5.90
  -6  -5 -10   25.10    4.30
   6  -5  10   25.00    4.30
  -6   5 -11    6.20    3.40
  -6   5 -11    7.10    4.40
   6   5  11    7.80    3.60
  -6  -5 -11   21.40    5.90
  -6  -5 -11    9.00    3.90
   6  -5  11    5.10    3.70
  -6  -5 -11   15.60    6.70
  -6   5 -12    3.50    3.80
  -6   5 -12    3.00    4.40
  -6  -5 -12    0.50    3.70
  -6  -5 -12   -4.90    6.80
  -6  -5 -12    2.30    5.70
  -6   6  11    4.60    3.00
   6   6 -11    8.60    4.00
   6  -6 -11    2.20    4.00
  -6  -6  11    7.40    3.40
   6  -6 -11    0.70    5.70
   6  -6 -11    6.50    6.20
   6   6 -10  141.69   11.30
  -6   6  10  166.18   10.40
   6  -6 -10  172.58   14.10
   6  -6 -10  161.38   10.90
  -6  -6  10  173.28   10.70
   6  -6 -10  149.79   12.30
   6   6  -9   -0.80    3.80
  -6   6   9    6.30    2.80
   6  -6  -9    1.50    4.90
   6  -6  -9    3.10    5.50
  -6  -6   9    2.80    2.80
   6  -6  -9    2.80    3.40
  -6   6   8    6.80    2.60
   6   6  -8    3.50    3.60
   6  -6  -8    9.40    4.90
   6  -6  -8    9.80    3.50
   6  -6  -8    1.60    5.30
  -6  -6   8    5.20    2.80
  -6   6   7    8.40    2.30
   6  -6  -7    3.70    2.90
   6  -6  -7    6.10    5.00
   6  -6  -7    1.90    4.10
  -6   6   6  202.78   11.40
   6  -6  -6  195.48   13.20
   6  -6  -6  209.88   14.70
   6  -6  -6  220.98   12.30
   6   6  -5   -1.30    3.40
   6   6  -5    0.40    2.20
  -6   6   5   -1.00    1.50
   6  -6  -5    1.20    2.50
   6  -6  -5    3.50    3.70
  -6  -6   5    5.20    2.10
  -6  -6   5    3.20    2.90
   6  -6  -5    0.80    4.70
   6  -6  -5    0.00    1.80
  -6   6   4    2.30    1.40
   6   6  -4    6.70    3.50
   6  -6  -4    4.70    3.60
   6  -6  -4    3.30    4.70
   6  -6  -4    0.90    2.30
  -6   6   3   96.79    5.30
   6   6  -3   95.59    7.70
  -6   6   3   93.69    7.40
   6  -6  -3   95.69    7.90
  -6  -6   3   90.69    7.50
  -6  -6   3  101.29    5.90
  -6  -6   3   85.19    5.20
   6  -6  -3  101.59    6.50
   6   6  -2   25.10    4.30
  -6   6   2   48.70    5.10
  -6  -6   2   32.50    4.50
  -6  -6   2   33.30    2.90
  -6  -6   2   26.70    3.00
   6  -6  -2   26.90    3.20
   6  -6  -2   27.10    4.10
  -6  -6   1   51.29    3.70
  -6   6   0  182.68   10.50
   6   6   0  177.38   10.50
  -6   6   0  182.88   11.40
  -6  -6   0  199.68   10.10
   6  -6   0  154.08   10.20
  -6  -6   0  222.78   10.60
  -6  -6   0  192.48   10.20
   6   6   1   40.60    4.00
  -6   6  -1   49.50    5.70
   6   6   1   33.50    2.70
  -6   6  -1   47.00    4.00
  -6   6  -1   44.20    2.70
  -6  -6  -1   39.80    2.80
  -6  -6  -1   39.20    4.30
  -6  -6  -1   37.30    5.30
   6  -6   1   30.00    3.10
  -6  -6  -1   34.90    3.40
  -6   6  -2   33.40    3.10
  -6   6  -2   34.70    4.60
  -6   6  -2   28.10    2.60
   6   6   2   28.40    2.80
   6  -6   2   24.40    2.60
  -6  -6  -2   28.70    2.80
  -6  -6  -2   28.80    3.60
  -6  -6  -2   28.50    2.80
  -6  -6  -2   31.20    5.50
  -6   6  -3    8.40    3.50
   6   6   3    4.00    1.80
  -6   6  -3    7.00    2.10
  -6   6  -3    4.10    1.70
  -6  -6  -3    6.30    1.80
   6  -6   3    1.20    1.80
  -6  -6  -3   10.30    4.50
  -6  -6  -3    8.30    3.20
  -6  -6  -3    6.90    2.10
  -6   6  -4  143.79   10.30
   6   6   4  160.78    8.80
  -6   6  -4  135.59    8.50
  -6   6  -4  151.68    8.80
  -6  -6  -4  137.79    8.60
  -6  -6  -4  164.88    8.70
  -6  -6  -4  147.69    9.70
  -6  -6  -4  153.08   11.80
  -6   6  -5    5.60    3.80
  -6   6  -5    3.60    2.30
  -6   6  -5    5.50    2.30
  -6  -6  -5    5.70    5.20
   6  -6   5    4.10    2.10
  -6  -6  -5    7.40    2.40
  -6  -6  -5    6.30    3.80
  -6   6  -6   42.60    4.00
  -6   6  -6   41.00    5.40
  -6  -6  -6   38.00    5.20
  -6  -6  -6   50.69    7.10
   6  -6   6   41.10    4.10
  -6  -6  -6   46.50    4.30
  -6   6  -7   16.80    4.30
  -6   6  -7   13.90    2.90
  -6  -6  -7    9.30    3.10
  -6  -6  -7   10.90    5.90
  -6  -6  -7    9.40    4.40
   6  -6   7    9.90    2.90
  -6   6  -8   39.80    4.20
  -6   6  -8   38.90    5.50
   6   6   8   28.40    4.00
   6  -6   8   32.70    4.30
  -6  -6  -8   34.50    4.20
  -6  -6  -8   31.40    5.60
  -6  -6  -8   36.40    7.50
  -6   6  -9    3.30    4.00
   6   6   9    1.10    2.80
  -6   6  -9    3.70    3.00
  -6  -6  -9    9.10    5.00
  -6  -6  -9    3.90    3.40
  -6  -6  -9    4.60    6.40
   6  -6   9   -0.40    3.00
  -6   6 -10   12.90    4.70
  -6   6 -10    8.30    3.60
   6   6  10    8.90    3.50
  -6  -6 -10   11.90    5.60
  -6  -6 -10   13.70    3.90
   6  -6  10   13.20    4.00
  -6  -6 -10    9.30    6.70
  -6   6 -11   22.10    5.50
  -6   6 -11   22.20    4.40
   6   6  11   16.80    4.30
  -6  -6 -11   21.50    6.50
  -6  -6 -11   22.50    7.80
   6  -6  11   29.70    5.00
  -6  -6 -11   23.30    4.40
   6   7 -10    9.50    5.10
  -6  -7  10   11.90    3.70
   6  -7 -10    3.40    6.60
   6  -7 -10    3.20    5.80
   6  -7 -10    6.70    3.90
   6   7  -9    2.90    4.50
   6  -7  -9    3.60    3.40
   6  -7  -9   -2.20    5.00
   6  -7  -9   -4.00    5.60
  -6  -7   9   -1.30    2.80
   6  -7  -8    1.70    5.00
   6  -7  -8   -1.60    5.40
   6  -7  -8    2.30    3.40
  -6  -7   8    8.60    2.90
   6   7  -7   35.70    5.80
  -6  -7   7   35.10    3.90
   6  -7  -7   29.50    4.20
   6  -7  -7   29.60    5.80
   6  -7  -7   34.80    7.20
   6   7  -6    3.60    4.30
  -6   7   6   -0.40    0.70
   6  -7  -6   -4.00    5.30
  -6  -7   6   12.50    3.70
  -6  -7   6    8.50    2.40
   6  -7  -6   -3.20    4.10
   6  -7  -6   -0.50    2.70
  -6   7   5   -0.50    0.60
   6   7  -5    2.00    3.90
   6  -7  -5    0.80    4.30
   6  -7  -5    2.80    5.40
  -6  -7   5    8.90    2.20
   6  -7  -5    1.50    2.70
  -6  -7   5    3.80    3.50
   6   7  -4  181.48   12.20
  -6  -7   4  181.78   10.40
   6  -7  -4  191.68   14.30
  -6  -7   4  195.88   12.30
   6  -7  -4  183.78   11.00
   6   7  -3   40.80    5.50
  -6   7   3   56.09    5.50
   6  -7  -3   37.10    6.60
  -6  -7   3   38.30    5.20
   6  -7  -3   43.00    5.10
  -6  -7   3   25.20    2.60
  -6  -7   3   35.00    3.30
   6  -7  -3   39.10    3.80
  -6   7   2   12.10    3.80
   6   7  -2   10.70    4.10
  -6  -7   2   11.50    2.00
   6  -7  -2    8.90    3.70
  -6  -7   2   13.20    3.90
  -6  -7   2   11.00    1.90
   6  -7  -2   10.40    2.60
   6   7  -1    2.80    3.80
  -6   7   1   -0.60    3.40
  -6  -7   1   12.30    2.30
  -6  -7   1   16.70    4.00
   6  -7  -1    3.80    3.50
  -6  -7   1    6.00    1.60
   6  -7  -1    1.10    2.20
  -6   7   0   57.39    6.30
  -6  -7   0   55.49    4.90
  -6  -7   0   52.79    3.90
   6  -7   0   58.69    6.40
  -6  -7   0   51.79    7.20
   6  -7   0   58.09    4.80
  -6   7  -1   -1.10    3.60
  -6   7  -1   -0.50    2.00
  -6  -7  -1    9.90    4.50
  -6  -7  -1    2.50    1.60
  -6  -7  -1    8.30    2.80
  -6  -7  -1    3.00    1.00
  -6   7  -2  126.39   10.10
  -6   7  -2  137.39    8.60
  -6  -7  -2  164.08    8.10
  -6   7  -3    6.80    2.40
  -6   7  -3   14.30    4.20
  -6  -7  -3   18.30    3.80
  -6  -7  -3   14.40    2.20
  -6  -7  -3   19.90    5.50
  -6   7  -4   26.40    5.00
  -6   7  -4   31.00    3.30
  -6  -7  -4   37.10    6.60
  -6  -7  -4   34.40    4.80
  -6  -7  -4   29.30    3.10
  -6   7  -5   33.50    5.20
  -6   7  -5   33.60    3.60
  -6  -7  -5   33.90    6.80
  -6  -7  -5   34.90    3.60
  -6  -7  -5   37.10    5.40
  -6   7  -6   17.50    2.90
  -6   7  -6   17.10    4.50
  -6  -7  -6   15.00    3.10
  -6  -7  -6   11.50    4.60
  -6  -7  -6   11.00    6.30
  -6   7  -7   29.80    3.90
  -6   7  -7   32.60    5.60
  -6  -7  -7   27.70    4.00
  -6  -7  -7   35.70    7.10
  -6  -7  -7   38.80    5.80
  -6   7  -8    1.70    3.00
  -6   7  -8   -1.60    4.20
  -6  -7  -8    7.50    4.90
  -6  -7  -8    4.30    3.00
  -6  -7  -8    7.80    6.80
  -6   7  -9   28.20    5.60
  -6  -7  -9   43.30    8.50
  -6  -7  -9   45.00    6.60
  -6  -7  -9   30.90    4.50
  -6   7 -10   27.40    5.70
   6   8  -9   11.90    5.60
   6  -8  -9   12.30    6.50
   6  -8  -9   14.30    7.10
   6  -8  -9    6.30    4.30
   6   8  -8   20.30    5.60
   6  -8  -8   19.70    7.30
   6  -8  -8   24.60    4.30
   6  -8  -8   26.60    6.70
   6   8  -7   10.30    4.90
   6  -8  -7    6.50    5.30
   6  -8  -7    9.90    6.10
   6  -8  -7   11.00    3.80
   6   8  -6   12.80    5.40
   6  -8  -6    5.10    5.20
   6  -8  -6    7.90    6.30
   6  -8  -6    1.90    3.00
   6   8  -5    0.40    4.80
  -6  -8   5    4.40    3.60
   6  -8  -5    0.20    2.50
   6  -8  -5   -2.40    4.60
   6  -8  -5   -1.40    5.80
   6   8  -4    0.00    4.40
   6  -8  -4    0.60    2.60
   6  -8  -4    2.70    4.30
   6  -8  -4   -2.10    5.60
  -6  -8   4   -1.40    3.30
   6   8  -3   15.10    5.20
  -6   8   3   16.70    4.50
  -6  -8   3   13.80    4.10
   6  -8  -3   11.40    5.50
   6  -8  -3    6.90    4.40
   6  -8  -3   12.30    2.90
  -6   8   2    9.70    4.20
   6   8  -2    9.40    4.50
   6  -8  -2    5.80    2.50
   6  -8  -2    9.30    4.00
  -6  -8   2    9.80    4.30
  -6   8   1    4.70    3.90
   6  -8  -1    1.10    2.30
   6  -8  -1    2.90    3.70
  -6  -8   1    4.60    4.00
  -6  -8   1    0.70    2.30
  -6   8   0   17.90    4.70
  -6  -8   0   19.90    3.30
  -6  -8   0   15.30    5.10
   6  -8   0   15.90    2.90
   6  -8   0   18.80    4.40
  -6   8  -1   62.29    6.80
  -6  -8  -1   62.69    8.50
  -6  -8  -1   54.99    5.90
   6  -8   1   54.79    5.90
   6  -8   1   54.89    4.90
  -6   8  -2  138.99    8.80
  -6   8  -2  151.78   11.10
  -6  -8  -2  147.29    9.90
  -6  -8  -2  158.88   12.50
  -6   8  -3  300.27   16.60
  -6   8  -3  343.57   18.70
  -6  -8  -3  313.57   20.00
  -6  -8  -3  293.07   17.60
  -6   8  -4   46.60    5.90
  -6  -8  -4   34.30    5.30
  -6  -8  -4   41.40    7.30
  -6   8  -5   20.90    5.10
  -6  -8  -5   19.80    5.10
  -6  -8  -5    9.70    5.70
  -6   8  -6   38.60    6.00
  -6  -8  -6   24.00    5.40
  -6  -8  -6   35.90    7.80
  -6   8  -7    8.90    4.50
  -6  -8  -7   20.70    7.20
  -6  -8  -7   10.90    5.10
  -6   8  -8   23.50    5.50
  -6  -8  -8   32.00    6.20
  -6  -8  -8   35.20    8.30
   6   9  -7    0.00    5.00
   6  -9  -7    3.80    3.40
   6  -9  -7    2.90    6.30
   6  -9  -7    6.90    7.40
   6   9  -6   16.70    5.90
   6  -9  -6   14.40    7.00
   6  -9  -6   17.80    3.80
   6  -9  -6   18.30    6.50
   6   9  -5   17.10    5.80
   6  -9  -5   17.80    5.90
   6  -9  -5    9.00    3.30
   6  -9  -5   20.40    6.90
   6   9  -4   15.80    5.50
   6  -9  -4    7.40    6.30
   6  -9  -4    1.70    2.40
   6  -9  -4    7.60    5.20
  -6  -9   4    5.90    4.30
  -6   9   3   23.70    5.50
   6   9  -3   32.40    6.50
  -6  -9   3   31.00    5.80
   6  -9  -3   30.80    8.00
   6  -9  -3   31.70    5.80
  -6   9   2  109.49   10.00
   6   9  -2  111.59   10.40
  -6  -9   2  126.59   10.50
   6  -9  -2  128.09   11.90
  -6   9   1   22.60    5.60
  -6  -9   1   28.20    5.80
   6  -9  -1   27.40    5.30
  -6   9   0   68.99    7.50
  -6  -9   0   64.09    9.20
   6  -9   0   70.09    7.70
  -6   9  -1   34.00    6.10
  -6  -9  -1   33.00    6.70
   6  -9   1   28.20    5.20
  -6   9  -2   -2.80    4.50
   6  -9   2    5.30    4.00
  -6  -9  -2    0.80    5.30
  -6  -9  -2    5.80    3.90
  -6   9  -3   15.40    5.50
  -6  -9  -3   18.80    6.80
  -6  -9  -3   18.20    4.70
   6  -9   3   17.70    4.60
  -6  -9  -4   71.69   10.50
  -6  -9  -4   55.79    6.70
  -6   9  -5    3.70    4.70
  -6  -9  -5    3.70    6.60
  -6  -9  -5   -3.50    4.50
  -6   9  -6   59.49    7.40
  -6  -9  -6   63.99    7.20
  -6  -9  -6   54.29    8.70
   6  10  -3   -3.90    5.60
  -6 -10   3    5.80    4.80
   6 -10  -3    1.00    5.50
   6 -10  -3    2.00    7.10
  -6  10   2   -7.10    4.90
  -6 -10   2   -1.40    4.20
   6 -10  -2    5.80    6.80
   6 -10  -2    4.80    5.50
  -6  10   1   10.00    5.20
   6 -10  -1   -2.40    4.90
   6 -10  -1    7.20    6.80
  -6  10   0   38.10    6.90
   6 -10   0   36.10    6.30
  -6 -10   0   40.60    7.00
   6 -10   0   41.10    8.70
  -6  10  -1    1.60    5.30
  -6 -10  -1   19.10    6.60
   6 -10   1    3.60    4.70
  -6  10  -2    0.10    5.30
  -6 -10  -2   -7.00    5.40
   6 -10   2   -0.50    1.90
   7   0 -14    6.10    3.70
  -7   0  14    2.10    3.20
   7   0 -14    9.80    4.30
   7   0 -13   -0.70    3.90
   7   0 -13   -4.20    3.70
  -7   0  13    0.70    2.80
   7   0 -12   10.20    4.30
  -7   0  12    7.10    3.30
   7   0 -12    6.30    3.80
   7   0 -11   -3.40    3.50
   7   0 -11   -2.40    3.20
  -7   0  11   -1.10    2.60
  -7   0  10   34.90    4.30
   7   0 -10   25.30    3.90
   7   0 -10   30.10    4.10
   7   0 -10   21.30    3.00
  -7   0   9   -1.10    2.30
   7   0  -9   -0.70    2.80
   7   0  -9   -3.40    2.70
   7   0  -9   -4.20    1.80
   7   0  -8  858.01   45.80
   7   0  -8  818.02   45.90
   7   0  -8 1025.80   45.60
  -7   0   8  875.31   46.00
   7   0  -7   -0.20    2.30
   7   0  -7    0.30    1.60
   7   0  -7   -2.90    2.10
  -7   0   7    1.00    2.00
   7   0  -6  880.71   44.50
  -7   0   6  848.42   44.40
   7   0  -6  872.61   44.50
  -7   0   6  893.31   44.60
   7   0  -6  876.31   44.20
   7   0  -5    1.50    1.90
   7   0  -5   -1.60    1.50
   7   0  -5    1.40    2.30
  -7   0   5   -0.30    1.90
  -7   0   5    0.00    1.50
   7   0  -5    0.00    2.00
  -7   0   4  180.58    9.90
   7   0  -4  172.48    9.60
   7   0  -4  181.88    9.90
   7   0  -4  178.78   10.00
   7   0  -4  182.48    9.90
   7   0  -3   -0.60    1.40
   7   0  -3    0.30    1.70
   7   0  -3    0.00    1.50
   7   0  -3   -0.30    1.60
  -7   0   3   -0.80    1.60
  -7   0   2   17.40    7.90
   7   0  -2   10.90    7.80
   7   0  -2    3.70    6.10
  -7   0   2   12.00    6.10
  -7   0   1   -0.80    1.70
  -7   0   1   -0.60    1.30
   7   0  -1   -0.40    1.30
   7   0  -1   -0.50    1.80
   7   0   0    5.90    1.60
  -7   0   0    4.90    2.20
  -7   0   0    5.40    1.50
   7   0   0    5.60    2.30
   7   0   0    5.90    1.40
   7   0   1   -0.70    1.30
   7   0   1   -0.30    1.50
  -7   0  -1   -1.90    1.70
  -7   0  -1    0.00    2.30
  -7   0  -1   -1.50    1.40
   7   0   1    0.70    2.30
  -7   0  -2  150.48    8.00
  -7   0  -2  132.09    8.10
  -7   0  -2  152.18    8.00
   7   0   2  141.79    8.00
   7   0   2  144.29    7.90
   7   0   2  134.99    8.80
  -7   0  -2  137.99    9.00
   7   0   3   -1.50    1.80
  -7   0  -3   -0.20    1.80
   7   0   3    0.10    2.50
   7   0   3    0.20    1.50
  -7   0  -3   -1.80    1.90
   7   0   3   -0.30    1.70
  -7   0  -3    0.60    1.60
  -7   0  -3    1.50    3.00
   7   0   4    8.30    2.10
   7   0   4   10.80    3.10
  -7   0  -4    8.10    2.10
   7   0   4    7.20    1.80
  -7   0  -4    6.50    2.20
  -7   0  -4   12.20    3.70
   7   0   4    7.20    2.10
  -7   0  -4    7.90    2.20
   7   0   5   -1.00    1.90
  -7   0  -5   -0.70    2.30
  -7   0  -5   -1.70    3.20
   7   0   5   -0.70    2.80
  -7   0  -5   -1.90    2.00
   7   0   5   -0.80    2.00
  -7   0  -6  237.78   13.10
   7   0   6  245.08   13.40
  -7   0  -6  231.28   14.40
  -7   0  -6  233.68   13.30
  -7   0  -7    0.90    2.70
  -7   0  -7    0.70    2.40
   7   0   7    0.70    2.30
  -7   0  -7    0.10    3.30
  -7   0  -8  728.23   38.60
  -7   0  -8  746.73   38.50
   7   0   8  748.03   38.80
  -7   0  -8  758.22   39.90
   7   0   9   -2.00    2.70
  -7   0  -9    2.70    2.90
  -7   0  -9   -1.70    3.90
  -7   0  -9   -1.20    3.30
  -7   0 -10  554.84   28.70
   7   0  10  549.05   29.10
  -7   0 -10  513.15   30.00
  -7   0 -10  541.45   28.80
   7   0  11   -2.90    3.00
  -7   0 -11   -1.60    4.10
  -7   0 -11    1.10    3.30
  -7   0 -11    0.30    3.70
  -7   0 -12   24.10    5.10
   7   0  12   28.80    4.80
  -7   0 -12   28.60    5.70
  -7   0 -12   27.80    4.60
  -7   0 -13   -5.00    3.70
  -7   0 -13   -1.50    4.20
  -7   0 -13   -1.90    4.00
   7   0  13    1.10    3.50
  -7   1  14    3.30    3.20
   7   1 -14    2.20    4.10
   7  -1 -14   -0.80    4.70
  -7  -1  14    0.90    3.00
   7  -1 -14   -2.40    4.40
  -7   1  13   56.59    5.90
   7   1 -13   47.30    5.50
   7   1 -13   47.80    5.20
   7  -1 -13   42.90    6.20
  -7  -1  13   43.30    5.60
   7  -1 -13   36.70    5.50
   7   1 -12    0.30    3.40
  -7   1  12   -0.70    2.80
   7   1 -12   -0.40    3.00
   7  -1 -12    2.50    3.90
   7  -1 -12   -1.50    4.20
  -7  -1  12    3.50    3.00
   7   1 -11   22.00    3.70
   7   1 -11   18.70    3.90
  -7   1  11   23.10    3.80
   7  -1 -11   23.70    3.80
   7  -1 -11   16.10    3.90
  -7  -1  11   32.10    4.50
   7  -1 -11   27.30    4.80
   7   1 -10    2.40    3.20
   7   1 -10    0.90    2.80
  -7   1  10   -0.50    2.50
  -7  -1  10   -0.60    2.60
   7  -1 -10    0.70    3.00
   7  -1 -10   -0.90    2.80
   7  -1 -10   -4.00    3.10
   7   1  -9   18.70    3.10
  -7   1   9   20.00    3.30
   7   1  -9   18.00    3.30
  -7  -1   9   15.70    3.10
   7  -1  -9   12.20    3.20
   7  -1  -9   21.90    3.70
   7  -1  -9   17.30    3.30
  -7   1   8    2.80    2.30
   7   1  -8    2.20    2.40
   7   1  -8    1.10    2.30
   7  -1  -8    0.70    2.90
   7  -1  -8    1.20    2.50
   7  -1  -8    1.90    2.70
  -7  -1   8    2.20    2.20
   7   1  -7  567.14   29.40
   7   1  -7  591.54   29.20
  -7   1   7  553.84   29.50
   7  -1  -7  543.05   29.50
   7  -1  -7  542.85   29.60
   7  -1  -7  605.74   29.60
  -7  -1   7  570.94   29.60
  -7   1   6   74.59    5.70
   7   1  -6   90.49    5.10
   7   1  -6   86.29    5.40
   7   1  -6   85.09    5.80
   7  -1  -6   81.79    5.90
   7  -1  -6   59.09    5.40
  -7  -1   6   74.29    5.00
  -7  -1   6   83.89    5.70
   7  -1  -6   70.99    5.80
   7  -1  -6   84.49    5.90
   7   1  -5   -1.00    1.80
   7   1  -5    1.20    1.50
   7   1  -5    0.60    2.20
  -7   1   5    1.20    1.60
  -7   1   5    1.60    1.90
   7  -1  -5    2.30    2.20
  -7  -1   5    1.70    1.90
  -7  -1   5    1.20    1.40
   7  -1  -5    1.60    2.20
   7  -1  -5   -1.40    2.10
   7   1  -4  341.67   17.00
   7   1  -4  332.27   16.80
   7   1  -4  327.37   17.00
   7   1  -4  302.17   16.50
   7   1  -4  307.57   17.20
  -7   1   4  361.66   17.10
   7   1  -4  336.27   16.60
   7  -1  -4  331.97   16.60
   7  -1  -4  310.97   17.00
  -7  -1   4  349.67   17.20
   7  -1  -4  293.27   17.10
   7  -1  -4  325.27   17.20
   7  -1  -4  309.37   17.10
  -7   1   3  141.29    7.30
   7   1  -3  124.79    7.10
   7   1  -3  114.69    7.30
   7   1  -3  120.89    6.90
   7   1  -3  124.09    7.10
  -7  -1   3  127.19    6.60
  -7  -1   3  137.59    7.40
  -7  -1   3  129.59    7.00
   7  -1  -3  124.29    7.60
   7  -1  -3  120.99    7.20
   7  -1  -3  128.79    6.70
   7  -1  -3  125.49    7.30
   7  -1  -3  112.39    7.20
   7   1  -2    8.10    1.80
  -7   1   2    5.80    1.60
  -7   1   2    4.40    1.40
  -7   1   2    7.20    1.20
   7   1  -2    3.60    1.30
   7  -1  -2    2.80    1.60
   7  -1  -2    4.30    2.10
  -7  -1   2    6.40    1.80
  -7  -1   2    4.70    1.10
  -7  -1   2    6.50    1.30
  -7   1   1   72.19    4.50
   7   1  -1   64.09    4.20
   7   1  -1   66.39    4.70
   7   1  -1   65.59    4.30
  -7   1   1   72.59    5.10
  -7   1   1   70.29    4.10
   7  -1  -1   69.29    4.30
  -7  -1   1   75.19    5.10
   7  -1  -1   65.89    5.10
  -7  -1   1   73.79    4.20
  -7   1   0  216.78   11.60
   7   1   0  196.78   10.90
   7   1   0  204.78   10.70
   7   1   0  200.88   11.40
  -7   1   0  220.28   10.90
   7  -1   0  215.98   11.60
  -7  -1   0  210.18   10.70
   7  -1   0  198.48   10.80
  -7  -1   0  187.08   10.80
  -7  -1   0  198.38   11.50
   7   1   1  163.18   10.00
  -7   1  -1  177.98    9.30
   7   1   1  184.18    9.10
   7   1   1  169.98    9.30
  -7   1  -1  170.08   10.10
  -7  -1  -1  173.78    9.20
   7  -1   1  164.68   10.00
  -7  -1  -1  158.68    9.30
  -7  -1  -1  166.58   10.00
   7  -1   1  171.08    9.40
   7  -1   1  169.48    9.20
  -7   1  -2  102.79    7.80
   7   1   2  123.39    7.80
  -7   1  -2  110.79    7.10
   7   1   2  113.89    6.60
   7   1   2  123.59    7.00
  -7   1  -2  123.39    6.90
  -7   1  -2  117.79    6.80
  -7  -1  -2  125.59    6.90
   7  -1   2  119.39    7.00
  -7  -1  -2  116.69    6.70
   7  -1   2  121.99    8.20
   7  -1   2  118.79    6.70
  -7  -1  -2  120.59    7.90
  -7  -1  -2  111.49    6.80
  -7   1  -3  623.44   32.60
  -7   1  -3  649.83   31.70
   7   1   3  613.24   31.60
  -7   1  -3  608.14   31.70
   7   1   3  624.94   31.90
   7   1   3  608.44   32.60
  -7   1  -3  656.43   31.90
   7   1   3  617.94   31.80
   7  -1   3  598.84   31.80
   7  -1   3  601.34   31.80
  -7  -1  -3  595.34   31.80
  -7  -1  -3  628.44   31.70
  -7  -1  -3  645.34   31.80
  -7  -1  -3  622.84   32.70
   7  -1   3  617.74   32.70
   7  -1   3  623.24   31.70
  -7   1  -4   26.60    2.90
   7   1   4   19.80    2.70
   7   1   4   16.50    2.30
  -7   1  -4   17.20    3.60
   7   1   4   27.90    4.00
  -7   1  -4   19.20    2.90
  -7   1  -4   19.00    2.60
   7   1   4   27.20    3.00
  -7  -1  -4   17.40    2.60
   7  -1   4   27.20    4.30
  -7  -1  -4   16.00    2.50
  -7  -1  -4   17.90    2.80
   7  -1   4   20.40    2.30
   7  -1   4   19.60    2.70
  -7  -1  -4   25.80    4.10
   7  -1   4   18.80    2.50
   7   1   5   98.59    6.20
  -7   1  -5   89.19    6.00
  -7   1  -5   92.89    6.30
  -7   1  -5   87.09    7.40
   7  -1   5   95.39    6.20
  -7  -1  -5   88.09    6.40
   7  -1   5   89.59    7.60
  -7  -1  -5   85.39    6.00
   7  -1   5   84.59    5.80
  -7  -1  -5   86.19    7.90
   7   1   6   28.80    3.40
  -7   1  -6   31.10    4.50
  -7   1  -6   26.90    3.10
  -7   1  -6   32.40    3.60
  -7  -1  -6   33.30    3.90
  -7  -1  -6   29.90    3.30
   7  -1   6   24.30    3.30
  -7  -1  -6   26.40    4.50
   7   1   7   44.70    5.00
  -7   1  -7   47.80    4.90
  -7   1  -7   55.69    5.30
  -7   1  -7   56.59    6.30
  -7  -1  -7   52.99    5.00
   7  -1   7   48.50    5.20
  -7  -1  -7   61.99    5.60
  -7  -1  -7   45.40    6.80
  -7   1  -8   23.00    3.60
  -7   1  -8   22.80    3.80
  -7   1  -8   17.60    4.40
   7   1   8   23.70    3.70
  -7  -1  -8   17.10    4.80
   7  -1   8   17.60    3.40
  -7  -1  -8   22.00    4.00
  -7  -1  -8   19.10    3.50
  -7   1  -9  296.37   16.10
  -7   1  -9  327.67   16.50
  -7   1  -9  261.07   17.10
   7   1   9  272.07   16.30
  -7  -1  -9  269.57   17.70
  -7  -1  -9  281.07   16.50
  -7  -1  -9  283.57   16.10
   7  -1   9  298.77   16.50
   7   1  10  501.75   26.40
  -7   1 -10  554.64   26.30
  -7   1 -10  459.35   27.00
  -7   1 -10  490.05   25.90
   7  -1  10  476.15   26.30
  -7  -1 -10  446.16   27.40
  -7  -1 -10  453.85   25.80
  -7  -1 -10  490.55   26.30
  -7   1 -11   63.39    7.00
  -7   1 -11   67.49    7.50
   7   1  11   67.69    6.60
  -7   1 -11   58.09    5.80
  -7  -1 -11   49.80    7.60
   7  -1  11   46.90    5.60
  -7  -1 -11   65.29    6.60
  -7  -1 -11   54.39    5.60
  -7   1 -12   25.80    4.90
  -7   1 -12   23.80    4.50
  -7   1 -12   32.50    5.00
   7   1  12   25.50    4.60
  -7  -1 -12   24.30    5.40
  -7  -1 -12   26.00    4.40
   7  -1  12   23.10    4.40
  -7  -1 -12   15.20    5.90
  -7   1 -13   17.00    4.50
  -7   1 -13    5.90    4.20
  -7   1 -13    8.60    4.30
   7   1  13   10.20    4.00
   7  -1  13   15.50    4.20
  -7  -1 -13    2.20    5.20
  -7  -1 -13    7.50    4.80
  -7  -1 -13   10.80    4.30
   7   2 -14    2.80    4.20
  -7   2  14    4.50    3.30
   7  -2 -14    4.60    4.60
  -7  -2  14    2.70    3.40
   7  -2 -14   -3.50    5.30
   7   2 -13   12.20    4.00
  -7   2  13    5.10    3.20
  -7  -2  13    3.50    3.20
   7  -2 -13    6.60    4.10
   7  -2 -13    3.10    4.90
  -7   2  12   14.20    3.60
   7   2 -12   14.70    4.00
   7   2 -12   15.80    3.80
  -7  -2  12   15.40    3.60
   7  -2 -12   21.50    4.90
   7  -2 -12   12.30    4.30
   7   2 -11   37.10    4.50
   7   2 -11   38.40    4.10
  -7   2  11   38.00    4.70
   7   2 -11   43.50    4.60
  -7  -2  11   52.79    5.30
   7  -2 -11   33.00    4.70
   7  -2 -11   38.40    5.20
   7  -2 -11   32.90    5.30
   7   2 -10   23.60    3.60
   7   2 -10   18.20    2.90
  -7   2  10   19.30    3.60
   7   2 -10   22.10    3.50
   7  -2 -10   19.30    4.30
   7  -2 -10   12.30    4.20
   7  -2 -10   15.40    3.80
  -7  -2  10   19.20    3.60
   7   2  -9   30.50    3.60
   7   2  -9   26.20    3.70
   7   2  -9   33.40    3.70
  -7   2   9   31.60    3.90
   7  -2  -9   24.20    4.00
  -7  -2   9   27.50    3.80
   7  -2  -9   30.60    4.40
   7  -2  -9   27.80    4.40
   7   2  -8  158.78    9.50
   7   2  -8  158.98    9.30
   7   2  -8  150.48    8.80
  -7   2   8  162.58    9.50
   7  -2  -8  140.59    9.70
   7  -2  -8  167.78   10.30
  -7  -2   8  166.28    9.70
   7  -2  -8  155.88   10.10
  -7   2   7   86.89    5.80
   7   2  -7   74.29    4.90
   7   2  -7   76.49    5.40
   7   2  -7   71.79    5.40
  -7  -2   7   76.99    5.70
   7  -2  -7   72.09    6.00
   7  -2  -7   74.29    6.30
  -7  -2   7   68.89    4.90
   7  -2  -7   81.89    6.50
   7   2  -6    8.40    2.20
  -7   2   6    8.60    2.20
   7   2  -6    6.30    1.60
   7   2  -6    7.70    2.20
   7  -2  -6    5.00    2.30
   7  -2  -6    6.50    2.00
  -7  -2   6    6.90    1.60
  -7  -2   6    7.20    2.20
   7  -2  -6    5.90    2.40
   7  -2  -6    6.60    3.00
   7   2  -5  473.15   23.80
   7   2  -5  477.65   24.00
   7   2  -5  513.15   24.10
   7   2  -5  433.76   24.40
  -7   2   5  450.65   24.30
   7  -2  -5  470.35   24.00
  -7  -2   5  462.05   23.90
   7  -2  -5  462.25   24.40
   7  -2  -5  459.95   24.60
   7  -2  -5  457.15   24.30
  -7  -2   5  495.05   24.40
   7   2  -4    6.30    1.80
  -7   2   4    6.60    2.00
   7   2  -4    5.10    2.00
   7   2  -4    5.30    1.60
   7   2  -4    5.80    1.30
   7   2  -4    5.20    2.00
   7  -2  -4    8.50    2.10
   7  -2  -4    5.90    2.10
  -7  -2   4    5.10    1.40
   7  -2  -4    5.10    2.70
  -7  -2   4    8.70    1.50
   7  -2  -4    7.40    2.20
  -7  -2   4    6.50    2.00
   7   2  -3   76.49    4.60
   7   2  -3   76.39    4.90
  -7   2   3   82.79    4.70
  -7   2   3   71.49    4.80
   7   2  -3   73.79    4.30
   7   2  -3   77.49    4.70
   7   2  -3   70.09    4.80
   7   2  -3   68.59    5.00
  -7  -2   3   79.59    5.20
   7  -2  -3   76.79    5.30
  -7  -2   3   67.69    4.90
   7  -2  -3   75.59    4.90
   7  -2  -3   73.79    5.00
  -7  -2   3   73.79    4.50
   7  -2  -3   78.79    5.20
  -7   2   2    0.70    1.50
  -7   2   2   -0.90    1.50
   7   2  -2    0.80    1.80
  -7   2   2    0.30    1.50
   7   2  -2   -0.20    1.10
   7   2  -2   -1.30    1.10
   7  -2  -2   -1.30    1.60
   7  -2  -2    0.00    2.30
  -7  -2   2    0.20    1.10
  -7  -2   2    0.80    1.80
   7  -2  -2    0.40    1.50
  -7  -2   2   -0.60    1.60
   7   2  -1   27.80    3.50
  -7   2   1   28.60    2.80
   7   2  -1   31.00    2.40
   7   2  -1   29.00    2.60
  -7   2   1   34.20    3.10
  -7  -2   1   33.00    3.70
   7  -2  -1   29.50    2.60
   7  -2  -1   25.40    3.00
  -7  -2   1   30.70    3.00
   7  -2  -1   24.20    3.70
  -7  -2   1   29.80    2.70
  -7  -2   1   29.60    2.50
  -7   2   0   26.40    3.00
   7   2   0   23.30    3.50
   7   2   0   25.30    2.70
   7   2   0   22.60    2.30
  -7   2   0   23.00    3.20
  -7   2   0   26.70    2.40
   7  -2   0   25.60    2.30
  -7  -2   0   22.80    2.40
  -7  -2   0   28.70    2.90
   7  -2   0   24.00    3.20
   7   2   1   36.30    3.00
   7   2   1   38.00    3.50
  -7   2  -1   39.90    3.50
  -7   2  -1   36.40    4.60
  -7   2  -1   40.40    3.80
  -7   2  -1   39.80    3.30
   7   2   1   37.00    4.40
   7  -2   1   33.10    3.10
  -7  -2  -1   36.70    3.10
  -7  -2  -1   36.60    3.40
  -7  -2  -1   41.80    4.90
   7  -2   1   37.40    4.20
   7   2   2   60.89    5.70
  -7   2  -2   61.49    4.40
  -7   2  -2   57.79    5.80
   7   2   2   52.19    4.40
   7   2   2   65.79    4.20
  -7   2  -2   63.39    4.50
  -7  -2  -2   59.79    4.90
   7  -2   2   61.09    4.60
   7  -2   2   59.59    4.20
  -7  -2  -2   62.49    4.40
  -7  -2  -2   63.89    4.30
  -7  -2  -2   57.79    5.60
   7  -2   2   58.79    5.70
  -7   2  -3   63.89    4.60
   7   2   3   63.49    4.70
  -7   2  -3   53.09    6.00
  -7   2  -3   60.79    4.40
   7   2   3   64.59    5.90
   7   2   3   58.29    4.20
  -7  -2  -3   56.69    4.40
   7  -2   3   58.09    4.30
   7  -2   3   63.19    5.70
  -7  -2  -3   58.59    4.40
   7  -2   3   58.09    4.50
  -7  -2  -3   54.69    4.80
   7  -2   3   55.79    4.60
   7   2   4   40.80    3.70
  -7   2  -4   39.60    3.80
  -7   2  -4   32.70    3.70
   7   2   4   42.40    3.80
  -7   2  -4   38.30    3.70
   7   2   4   42.70    3.70
   7   2   4   39.10    5.00
  -7   2  -4   37.50    5.30
   7  -2   4   42.40    3.90
  -7  -2  -4   38.30    3.80
   7  -2   4   36.40    4.00
  -7  -2  -4   47.90    6.20
   7  -2   4   38.20    3.50
   7  -2   4   34.70    5.10
  -7  -2  -4   39.50    4.00
  -7  -2  -4   38.50    3.90
   7   2   5  102.29    6.60
  -7   2  -5  110.09    6.40
  -7   2  -5   86.99    7.20
  -7   2  -5   90.09    6.50
   7  -2   5   88.89    8.40
  -7  -2  -5   98.59    6.40
  -7  -2  -5   92.79    6.80
   7  -2   5   91.69    6.10
  -7  -2  -5  116.69    8.70
   7  -2   5  103.39    6.60
  -7   2  -6  100.99    6.60
  -7   2  -6  108.79    6.90
   7   2   6   99.29    6.70
  -7   2  -6   88.49    7.60
  -7  -2  -6   94.49    6.60
  -7  -2  -6   99.79    7.10
  -7  -2  -6   88.79    8.10
   7  -2   6  103.69    6.70
  -7   2  -7   25.60    3.30
   7   2   7   26.20    3.40
  -7   2  -7   27.50    3.70
  -7   2  -7   24.00    4.30
  -7  -2  -7   20.20    4.80
  -7  -2  -7   27.20    3.50
   7  -2   7   29.80    3.60
  -7  -2  -7   20.50    3.80
  -7   2  -8  281.97   15.60
   7   2   8  279.77   15.90
  -7   2  -8  244.28   16.50
  -7   2  -8  307.77   15.80
  -7  -2  -8  276.87   16.10
  -7  -2  -8  292.27   17.80
  -7  -2  -8  283.77   15.60
   7  -2   8  279.57   15.90
  -7   2  -9   -3.00    3.10
  -7   2  -9   -1.30    3.40
  -7   2  -9    0.30    3.00
   7   2   9   -1.70    2.70
   7  -2   9   -2.20    2.60
  -7  -2  -9   -1.60    3.00
  -7  -2  -9   -2.90    3.60
  -7  -2  -9   -2.20    5.00
   7   2  10    6.90    3.20
  -7   2 -10    8.90    3.90
  -7   2 -10    7.50    3.40
  -7   2 -10    9.00    4.20
   7  -2  10   10.20    3.40
  -7  -2 -10    5.10    3.30
  -7  -2 -10    6.70    5.60
  -7  -2 -10    8.60    4.30
  -7   2 -11    0.50    3.30
  -7   2 -11    1.30    3.80
   7   2  11    5.80    3.40
  -7   2 -11    9.40    4.20
   7  -2  11    3.10    3.40
  -7  -2 -11   -7.00    5.40
  -7  -2 -11   -1.80    4.40
  -7  -2 -11   -4.70    3.10
   7   2  12    9.30    3.80
  -7   2 -12   13.00    4.10
  -7   2 -12   21.30    4.70
  -7   2 -12   24.30    4.90
  -7  -2 -12   15.70    4.30
  -7  -2 -12    4.90    6.10
  -7  -2 -12   18.10    5.30
   7  -2  12   15.40    4.10
  -7   2 -13   28.90    5.10
  -7   2 -13   22.80    4.80
  -7   2 -13   16.50    4.40
   7   2  13   24.20    4.90
  -7  -2 -13    4.70    6.20
  -7  -2 -13   21.80    6.30
  -7  -2 -13   23.30    4.60
   7  -2  13   22.60    4.80
  -7   3  13    8.40    3.60
   7   3 -13   15.20    4.30
   7  -3 -13    8.40    4.30
  -7  -3  13   16.80    3.90
   7  -3 -13   11.80    5.80
   7   3 -12   -2.00    3.10
  -7   3  12    2.30    2.80
   7   3 -12    0.90    3.40
   7  -3 -12   -6.10    3.90
  -7  -3  12    0.80    2.90
   7  -3 -12   -1.20    4.60
   7  -3 -12    3.10    3.80
   7   3 -11    9.50    3.40
   7   3 -11   10.50    3.40
  -7   3  11    7.80    3.00
   7  -3 -11    7.10    4.50
   7  -3 -11    5.20    3.60
   7  -3 -11    5.00    4.40
  -7  -3  11   10.80    3.20
   7   3 -10   48.00    4.60
   7   3 -10   47.70    3.80
   7   3 -10   44.50    5.30
  -7   3  10   50.09    5.40
   7  -3 -10   43.60    6.00
   7  -3 -10   42.70    5.70
  -7  -3  10   46.30    4.90
   7  -3 -10   48.20    5.40
   7   3  -9  224.48   13.40
   7   3  -9  244.08   13.40
   7   3  -9  229.88   12.50
  -7   3   9  259.17   13.80
   7  -3  -9  220.28   13.90
  -7  -3   9  254.47   13.90
   7  -3  -9  232.48   14.70
   7  -3  -9  233.58   14.30
   7   3  -8   70.89    5.60
  -7   3   8   78.99    5.90
   7   3  -8   71.79    4.40
   7   3  -8   75.29    5.90
   7  -3  -8   66.29    6.90
   7  -3  -8   66.49    6.20
  -7  -3   8   79.79    5.90
   7  -3  -8   72.09    7.30
   7  -3  -8   73.19    5.50
   7   3  -7  155.98    8.60
   7   3  -7  138.69    7.70
   7   3  -7  144.69    8.80
  -7   3   7  148.19    8.80
   7  -3  -7  141.49    8.60
  -7  -3   7  139.99    8.20
   7  -3  -7  158.58   10.20
   7  -3  -7  146.79    9.70
   7  -3  -7  144.79    9.20
  -7  -3   7  155.88    9.10
  -7   3   6   31.00    3.20
   7   3  -6   29.50    2.80
   7   3  -6   36.00    3.40
   7  -3  -6   22.60    3.30
  -7  -3   6   35.50    3.50
  -7  -3   6   28.50    2.60
   7  -3  -6   32.40    4.50
   7  -3  -6   30.30    3.50
   7  -3  -6   31.20    3.20
   7   3  -5   -0.70    1.60
   7   3  -5   -1.00    1.90
  -7   3   5   -1.70    1.80
   7   3  -5    0.00    1.40
   7   3  -5   -0.30    2.20
   7  -3  -5   -0.10    1.90
  -7  -3   5   -1.20    1.80
   7  -3  -5    0.80    2.50
  -7  -3   5    0.50    1.10
   7  -3  -5   -2.00    1.80
   7  -3  -5    0.10    2.10
   7   3  -4  121.99    7.40
  -7   3   4  118.59    7.20
   7   3  -4  128.39    6.80
   7   3  -4  128.79    7.40
   7   3  -4  126.99    6.70
  -7  -3   4  125.49    7.20
   7  -3  -4  127.59    7.40
  -7  -3   4  119.79    7.00
   7  -3  -4   98.49    7.40
   7  -3  -4  124.69    7.90
   7  -3  -4  114.59    7.50
   7  -3  -4  117.39    7.20
  -7  -3   4  120.49    7.00
   7   3  -3  117.59    6.40
   7   3  -3  124.09    6.50
   7   3  -3  117.39    7.30
   7   3  -3  109.59    7.20
  -7   3   3  120.79    7.10
   7   3  -3  111.39    7.00
  -7   3   3  113.39    6.90
  -7  -3   3  127.69    7.20
   7  -3  -3  116.79    7.20
  -7  -3   3  114.19    6.80
   7  -3  -3  125.09    7.20
  -7  -3   3  119.09    7.00
   7  -3  -3  113.09    6.80
   7  -3  -3  119.99    7.10
  -7   3   2   12.40    2.10
   7   3  -2   15.50    1.50
  -7   3   2   21.70    2.60
  -7   3   2   20.00    2.10
   7   3  -2   22.60    2.10
   7   3  -2   13.30    2.70
   7  -3  -2   12.40    2.10
   7  -3  -2   13.80    2.50
  -7  -3   2   16.00    2.30
   7   3  -1  341.77   17.20
  -7   3   1  338.67   17.80
  -7   3   1  343.87   17.50
   7   3  -1  336.77   17.40
   7   3  -1  323.27   18.30
  -7   3   1  331.67   17.60
   7  -3  -1  329.37   18.70
   7  -3  -1  327.57   17.70
  -7  -3   1  347.87   17.70
  -7  -3   1  359.76   17.60
  -7  -3   1  353.16   17.20
   7  -3  -1  321.67   17.60
   7   3   0    4.20    1.70
  -7   3   0    2.50    2.00
  -7   3   0    3.00    1.90
   7   3   0    4.10    1.10
   7   3   0    1.60    2.50
  -7  -3   0    4.40    1.90
  -7  -3   0    6.30    2.70
  -7  -3   0    4.40    2.10
  -7  -3   0    1.70    1.20
   7  -3   0    1.00    2.10
   7  -3   0    4.00    1.60
   7  -3   0    2.40    2.70
   7   3   1  113.99    6.90
  -7   3  -1  123.49    6.70
  -7   3  -1  122.59    7.40
   7   3   1  114.29    8.10
  -7   3  -1  122.59    7.00
   7   3   1  120.39    6.60
  -7  -3  -1  128.09    8.40
   7  -3   1  112.39    8.30
  -7  -3  -1  113.99    7.00
   7  -3   1  113.09    6.80
  -7  -3  -1  114.59    6.60
  -7   3  -2  183.58   10.60
   7   3   2  183.98   10.30
   7   3   2  168.98   11.10
  -7   3  -2  177.48   10.00
  -7   3  -2  187.88   10.10
   7   3   2  188.88    9.90
  -7   3  -2  172.28   11.40
   7  -3   2  174.08   10.00
   7  -3   2  178.58   11.40
  -7  -3  -2  185.78    9.90
   7  -3   2  183.18   10.30
  -7  -3  -2  208.68   10.50
  -7  -3  -2  195.08   10.10
  -7   3  -3   -1.70    1.70
   7   3   3   -0.10    1.50
   7   3   3   -0.10    1.90
  -7   3  -3    1.20    2.90
  -7   3  -3    1.30    2.50
  -7   3  -3   -0.50    1.80
   7   3   3    0.70    2.30
  -7  -3  -3    3.20    2.40
   7  -3   3    0.60    1.90
   7  -3   3   -0.60    1.60
   7  -3   3    1.70    1.50
  -7  -3  -3   -1.20    1.60
   7  -3   3    0.20    2.60
  -7  -3  -3    5.70    3.40
  -7  -3  -3    2.20    1.70
  -7   3  -4   23.80    3.90
  -7   3  -4   24.90    2.90
  -7   3  -4   29.70    3.80
   7   3   4   25.80    2.70
  -7   3  -4   28.10    3.00
  -7  -3  -4   31.00    4.80
   7  -3   4   25.80    2.90
  -7  -3  -4   28.90    3.50
   7  -3   4   21.50    2.50
  -7  -3  -4   25.20    2.90
  -7  -3  -4   25.20    2.80
   7  -3   4   25.10    2.80
  -7   3  -5   60.59    5.00
   7   3   5   67.19    5.30
  -7   3  -5   65.89    6.40
  -7  -3  -5   67.49    5.90
   7  -3   5   71.29    5.20
  -7  -3  -5   71.39    7.40
  -7  -3  -5   65.39    5.30
  -7   3  -6    9.40    3.60
  -7   3  -6   10.70    2.50
   7   3   6    8.50    2.60
  -7  -3  -6    8.50    2.60
   7  -3   6    8.90    2.60
  -7   3  -7   39.10    3.90
   7   3   7   33.30    3.90
  -7   3  -7   34.20    5.20
  -7   3  -7   34.90    4.10
  -7  -3  -7   38.90    4.90
   7  -3   7   35.80    4.10
  -7  -3  -7   54.99    7.60
  -7  -3  -7   37.70    4.00
   7   3   8   17.20    3.50
  -7   3  -8   16.20    3.30
  -7   3  -8   21.00    3.70
  -7   3  -8   15.50    4.30
  -7  -3  -8   15.60    5.80
  -7  -3  -8   17.20    3.30
  -7  -3  -8   19.60    4.50
   7  -3   8   18.10    3.40
  -7   3  -9    2.60    3.30
  -7   3  -9    0.90    3.00
  -7   3  -9    1.00    3.60
   7   3   9   -1.40    2.80
  -7  -3  -9   -2.90    5.20
  -7  -3  -9    0.00    4.20
   7  -3   9    1.70    2.60
  -7  -3  -9    4.40    3.10
  -7   3 -10   30.80    5.30
  -7   3 -10   35.70    4.70
   7   3  10   36.40    4.90
  -7   3 -10   33.70    4.50
  -7  -3 -10   39.20    7.50
  -7  -3 -10   27.00    4.30
   7  -3  10   35.40    4.80
  -7  -3 -10   39.80    5.90
  -7   3 -11    1.20    3.30
   7   3  11    0.40    3.20
  -7   3 -11    4.30    3.70
  -7   3 -11    2.30    3.90
   7  -3  11    2.50    3.30
  -7  -3 -11    4.30    3.60
  -7  -3 -11   -6.50    6.00
  -7  -3 -11    3.10    4.70
  -7   3 -12    9.60    4.20
   7   3  12    7.70    3.60
  -7   3 -12    5.30    3.90
  -7   3 -12    4.50    3.80
  -7  -3 -12    2.90    5.30
   7  -3  12    7.20    3.60
  -7  -3 -12    4.40    3.80
  -7  -3 -12  -11.90    6.30
   7   4 -13   32.30    4.90
  -7   4  13   32.40    5.00
   7  -4 -13   40.30    5.80
  -7  -4  13   33.30    5.00
   7  -4 -13   47.10    7.20
   7   4 -12   15.00    4.10
  -7   4  12   14.50    3.70
   7   4 -12   17.00    3.90
   7  -4 -12    6.00    4.20
   7  -4 -12    7.50    5.20
  -7  -4  12   14.90    3.60
   7  -4 -12    9.00    5.60
   7   4 -11   15.30    3.50
   7   4 -11   17.20    4.10
  -7   4  11   18.20    3.60
   7  -4 -11   10.20    5.20
   7  -4 -11   10.20    3.80
   7  -4 -11    9.70    4.70
  -7  -4  11   18.00    3.90
   7   4 -10  149.19    9.90
  -7   4  10  155.28    9.80
   7   4 -10  158.98    9.50
   7  -4 -10  125.99   10.80
   7  -4 -10  138.59   11.60
   7  -4 -10  142.59   10.00
  -7  -4  10  153.48   10.00
  -7   4   9  395.26   21.20
   7   4  -9  415.86   20.90
   7   4  -9  372.06   21.40
   7  -4  -9  379.66   22.00
   7  -4  -9  409.06   22.90
   7  -4  -9  380.86   21.50
  -7  -4   9  394.56   21.40
   7   4  -8   10.20    2.40
   7   4  -8    7.90    3.30
   7  -4  -8   11.90    4.60
   7  -4  -8    6.20    4.00
  -7  -4   8   14.10    3.10
   7  -4  -8    6.30    3.10
  -7   4   7    6.60    2.30
   7   4  -7    1.10    1.90
   7   4  -7   -4.20    2.60
   7  -4  -7    2.50    3.80
  -7  -4   7   -2.10    2.20
  -7  -4   7    0.20    1.20
   7  -4  -7    2.90    2.70
   7  -4  -7   -4.70    3.20
   7   4  -6    1.20    2.60
   7   4  -6    1.70    1.60
   7  -4  -6    1.70    2.20
  -7  -4   6    0.20    1.10
   7  -4  -6    0.00    2.30
  -7  -4   6    1.50    2.10
   7  -4  -6   -3.60    2.30
   7  -4  -6    1.10    3.90
   7   4  -5   19.80    2.80
   7   4  -5   15.40    1.90
  -7   4   5   24.50    2.70
   7   4  -5   18.90    3.10
   7   4  -5   17.90    1.80
   7  -4  -5   16.40    2.90
  -7  -4   5   24.50    3.10
  -7  -4   5   14.00    2.40
   7  -4  -5   21.90    3.80
  -7  -4   5   19.90    2.70
   7  -4  -5   18.00    2.50
   7   4  -4    9.70    2.20
   7   4  -4    9.40    1.40
   7   4  -4    9.60    1.30
   7   4  -4   10.80    2.80
  -7   4   4   13.30    2.10
   7  -4  -4    9.30    2.70
  -7  -4   4   12.90    2.40
   7  -4  -4   10.10    3.10
   7  -4  -4   10.70    2.10
  -7  -4   4   10.50    2.10
   7  -4  -4    9.00    2.40
  -7  -4   4    9.30    2.10
   7   4  -3 2245.98  113.79
   7   4  -3 2388.06  114.59
  -7   4   3 2316.07  114.19
  -7   4   3 2156.88  114.39
   7   4  -3 2362.06  113.79
   7  -4  -3 2390.16  114.59
  -7  -4   3 2148.98  114.69
  -7  -4   3 2197.88  114.29
   7  -4  -3 2394.26  114.89
  -7  -4   3 2073.89  114.39
   7  -4  -3 2381.86  114.49
   7   4  -2    7.60    2.80
   7   4  -2    5.60    1.40
  -7  -4   2   11.60    2.70
  -7  -4   2    8.60    1.30
   7  -4  -2    5.40    1.90
   7  -4  -2    6.00    2.40
   7  -4  -2    7.30    2.10
  -7  -4   2   10.50    2.30
  -7  -4   2    5.70    1.80
  -7   4   1   99.59    5.40
   7   4  -1   78.49    4.40
  -7   4   1  106.19    6.20
   7   4  -1   74.49    5.10
   7   4  -1   65.69    6.20
   7  -4  -1   82.69    5.40
  -7  -4   1   84.99    5.30
  -7  -4   1   72.99    5.60
  -7  -4   1   79.49    4.40
   7  -4  -1   75.29    5.70
  -7  -4   1   99.29    5.00
   7   4   0   16.40    1.50
   7   4   0   12.90    3.10
  -7   4   0   16.10    1.80
  -7   4   0   13.80    2.20
  -7   4   0   16.00    2.80
   7   4   0   13.80    2.10
   7  -4   0   14.10    2.00
  -7  -4   0   14.80    2.50
  -7  -4   0   15.50    1.50
  -7  -4   0   16.60    3.30
  -7  -4   0   16.50    2.20
   7  -4   0   13.90    2.60
   7   4   1  107.19    7.90
  -7   4  -1  110.39    6.60
  -7   4  -1  109.99    7.10
   7   4   1  109.19    6.00
  -7   4  -1  116.39    6.20
   7   4   1  110.49    6.70
   7  -4   1  106.19    7.00
   7  -4   1   98.59    6.40
  -7  -4  -1   99.29    6.90
  -7  -4  -1  103.49    8.00
  -7  -4  -1  102.89    6.60
  -7  -4  -1  107.49    6.00
  -7  -4  -1  107.09    6.50
  -7   4  -2  109.09    7.40
   7   4   2  112.59    6.90
  -7   4  -2  108.99    6.70
  -7   4  -2  108.99    6.40
   7   4   2  109.19    6.20
  -7  -4  -2  102.79    6.60
  -7  -4  -2  109.59    7.00
  -7  -4  -2  106.49    8.00
  -7  -4  -2  110.79    6.30
   7  -4   2   94.99    6.40
   7   4   3  122.89    6.90
  -7   4  -3  114.19    7.00
  -7   4  -3  119.19    7.90
  -7   4  -3  116.19    7.20
  -7  -4  -3  122.79    7.00
  -7  -4  -3  118.49    7.60
   7  -4   3  105.99    6.90
  -7  -4  -3  140.59    9.40
  -7  -4  -3  116.29    7.10
   7  -4   3  106.09    7.00
  -7   4  -4   92.19    7.00
  -7   4  -4   85.39    6.10
  -7   4  -4   92.79    6.00
   7   4   4   91.79    5.90
  -7  -4  -4   93.99    6.00
  -7  -4  -4  113.09    6.90
  -7  -4  -4   78.99    6.00
   7  -4   4   83.99    6.00
  -7   4  -5    2.60    2.20
  -7   4  -5   -1.50    1.60
  -7   4  -5    1.80    2.70
  -7   4  -5    0.60    3.20
  -7  -4  -5    3.00    2.10
  -7  -4  -5   13.70    3.30
   7  -4   5   -0.90    1.80
  -7   4  -6   12.40    3.70
  -7   4  -6   13.10    4.00
  -7   4  -6    6.90    2.50
   7   4   6   11.20    2.80
   7  -4   6   11.90    2.70
  -7  -4  -6   12.60    3.70
  -7  -4  -6   10.20    2.80
  -7  -4  -6   15.30    5.00
  -7   4  -7   24.90    4.40
  -7   4  -7   23.10    4.70
   7   4   7   15.90    3.30
  -7   4  -7   24.60    3.40
  -7  -4  -7   33.40    4.60
  -7  -4  -7   26.50    3.50
   7  -4   7   19.00    3.40
   7   4   8   20.10    3.70
  -7   4  -8   20.00    3.40
  -7   4  -8   18.40    4.70
  -7   4  -8   26.90    4.80
  -7  -4  -8   16.90    3.40
   7  -4   8   23.00    3.70
  -7  -4  -8   21.50    4.70
  -7  -4  -8   23.10    6.30
   7   4   9   37.30    4.60
  -7   4  -9   34.60    5.30
  -7   4  -9   37.70    5.70
  -7   4  -9   33.00    4.20
  -7  -4  -9   28.70    4.30
  -7  -4  -9   42.50    5.80
  -7  -4  -9   37.00    7.20
   7  -4   9   34.30    4.60
  -7   4 -10   37.20    4.70
   7   4  10   46.70    5.10
  -7   4 -10   49.70    7.30
  -7   4 -10   45.50    6.10
  -7  -4 -10   32.70    6.00
  -7  -4 -10   34.20    4.70
  -7  -4 -10   31.70    7.30
   7  -4  10   35.70    5.00
  -7   4 -11   35.50    4.70
  -7   4 -11   53.79    7.40
  -7   4 -11   41.20    6.20
   7   4  11   25.30    4.80
   7  -4  11   32.90    5.00
  -7  -4 -11   31.50    6.50
  -7  -4 -11   42.00    5.20
  -7  -4 -11   24.80    8.00
  -7   4 -12   21.20    4.90
   7   4  12   19.30    4.50
  -7   4 -12   19.90    4.30
  -7   4 -12   17.30    5.10
  -7  -4 -12    5.90    7.70
  -7  -4 -12   23.00    6.20
  -7  -4 -12   21.80    4.50
   7  -4  12   21.50    4.90
  -7   5  12   16.80    3.90
   7   5 -12   17.50    4.50
   7  -5 -12   12.10    5.50
   7  -5 -12   11.80    4.50
   7  -5 -12    8.70    6.00
  -7  -5  12   21.00    4.00
   7   5 -11    2.00    1.60
  -7   5  11    1.80    2.90
   7  -5 -11    5.00    5.50
   7  -5 -11   -2.40    5.00
  -7  -5  11   23.30    3.80
   7  -5 -11    6.80    3.80
   7   5 -10    6.50    3.60
  -7   5  10    3.00    2.70
   7   5 -10    4.00    2.50
   7  -5 -10    1.40    4.80
   7  -5 -10    3.60    5.30
   7  -5 -10    5.40    3.60
  -7  -5  10    4.70    3.10
  -7   5   9    5.80    2.70
   7   5  -9    8.10    3.60
   7   5  -9    4.00    2.30
   7  -5  -9    3.70    4.50
   7  -5  -9   -1.80    4.90
   7  -5  -9    1.90    3.30
  -7  -5   9   12.50    3.00
  -7   5   8   12.10    2.70
   7   5  -8    7.10    2.10
   7  -5  -8    5.30    5.00
   7  -5  -8    5.10    4.30
   7  -5  -8    4.00    3.10
  -7   5   7  588.84   28.00
   7   5  -7  495.45   28.40
   7   5  -7  510.25   27.40
  -7  -5   7  527.15   28.10
   7  -5  -7  529.65   29.90
  -7  -5   7  566.44   27.80
   7  -5  -7  513.95   28.30
   7  -5  -7  555.84   29.00
  -7   5   6   92.89    5.80
   7   5  -6   81.39    5.00
   7   5  -6   81.49    4.90
  -7  -5   6   90.39    6.20
   7  -5  -6   75.29    8.70
   7  -5  -6   79.69    6.00
  -7  -5   6   86.59    6.00
   7  -5  -6   79.39    7.50
   7  -5  -6   81.99    6.50
  -7   5   5    8.10    2.00
   7   5  -5    4.20    1.00
   7   5  -5    4.80    3.00
   7   5  -5    4.40    1.00
   7  -5  -5    2.70    2.00
  -7  -5   5   14.30    2.50
   7  -5  -5    3.70    2.50
   7  -5  -5    2.20    4.50
   7  -5  -5    2.10    3.30
   7   5  -4  155.98    9.60
  -7   5   4  142.19    8.40
  -7  -5   4  156.98    8.70
  -7  -5   4  168.78    9.40
   7  -5  -4  133.39    9.00
   7  -5  -4  133.99    9.80
   7   5  -3   20.70    3.60
   7  -5  -3   21.20    3.70
  -7  -5   3   19.90    3.30
   7  -5  -3   21.50    3.00
  -7  -5   3   23.60    2.50
  -7   5   2  203.18   11.60
   7   5  -2  208.78   11.90
  -7   5   2  201.18   10.60
  -7  -5   2  193.38   10.50
  -7  -5   2  202.18   10.90
  -7  -5   2  206.68   12.00
   7  -5  -2  189.78   11.20
  -7   5   1  163.78   10.10
  -7   5   1  164.68    8.90
   7   5  -1  175.48    9.30
  -7   5   1  174.98    9.50
  -7  -5   1  167.68   10.50
   7  -5  -1  158.88    9.40
  -7  -5   1  166.78    9.30
  -7  -5   1  174.08    9.20
  -7   5   0    4.80    1.90
   7   5   0    3.90    1.00
  -7   5   0    5.70    1.40
   7   5   0    4.80    2.00
  -7   5   0    5.10    1.40
  -7   5   0    6.70    2.80
  -7  -5   0    8.40    3.20
  -7  -5   0    6.80    1.00
  -7  -5   0   11.40    2.20
   7  -5   0    5.10    1.70
  -7  -5   0    3.60    1.60
  -7   5  -1   10.30    2.10
   7   5   1    7.50    2.20
  -7   5  -1    9.90    1.70
  -7   5  -1   11.10    3.10
   7   5   1    9.60    1.40
  -7  -5  -1    8.40    1.90
  -7  -5  -1    9.90    3.60
  -7  -5  -1   11.90    2.50
  -7  -5  -1    9.10    1.40
   7  -5   1    6.40    1.80
  -7   5  -2   22.60    3.60
   7   5   2   25.20    2.30
   7   5   2   29.10    3.00
  -7   5  -2   26.70    2.50
  -7   5  -2   23.20    2.70
   7  -5   2   19.20    2.40
  -7   5  -3    2.50    2.00
  -7   5  -3    0.60    3.00
   7   5   3    0.80    1.60
  -7  -5  -3    8.80    2.20
  -7   5  -4    2.70    1.90
   7   5   4   -0.40    1.80
  -7   5  -4    2.30    2.20
  -7   5  -4    5.00    3.10
  -7  -5  -4    1.00    2.90
  -7  -5  -4   -1.70    2.00
  -7  -5  -4   -0.60    4.10
  -7  -5  -4   -0.10    1.90
  -7   5  -5   38.30    4.20
  -7   5  -5   49.70    4.60
  -7   5  -5   56.89    5.90
   7  -5   5   40.70    3.90
  -7   5  -6   29.20    3.50
  -7   5  -6   28.20    4.50
  -7  -5  -6   29.10    3.50
   7  -5   6   27.30    3.40
  -7  -5  -6   33.10    4.70
  -7  -5  -6   34.60    6.50
   7   5   7    0.10    2.50
  -7   5  -7    3.30    3.60
  -7   5  -7    4.00    2.70
   7  -5   7    3.60    2.60
  -7  -5  -7    1.70    5.20
  -7  -5  -7    1.90    4.00
  -7  -5  -7    3.50    2.80
  -7   5  -8    4.40    3.70
  -7   5  -8   -1.10    2.70
   7   5   8    0.60    2.80
   7  -5   8    1.60    2.70
  -7  -5  -8    4.60    5.80
  -7  -5  -8   -1.10    2.90
  -7  -5  -8    4.60    4.20
  -7   5  -9    4.60    3.00
  -7   5  -9    3.90    4.00
   7   5   9    3.40    3.20
   7  -5   9    3.80    3.20
  -7  -5  -9    2.90    6.30
  -7  -5  -9    2.00    3.30
  -7  -5  -9    5.30    4.80
  -7   5 -10    4.50    3.30
  -7   5 -10    4.20    4.40
   7   5  10    4.00    3.30
  -7  -5 -10    6.10    5.20
  -7  -5 -10    1.90    6.40
  -7  -5 -10    5.90    3.50
   7  -5  10    1.40    3.50
   7   5  11   11.80    4.10
  -7   5 -11    9.20    4.60
  -7   5 -11    8.30    3.50
   7  -5  11   10.70    4.50
  -7  -5 -11    4.90    6.60
  -7  -5 -11   10.40    4.00
  -7  -5 -11   15.80    6.10
   7   6 -11   25.10    5.30
  -7   6  11   29.60    4.20
   7  -6 -11   24.80    7.00
   7  -6 -11   25.70    6.70
  -7  -6  11   26.10    4.50
   7  -6 -11   23.90    4.80
  -7   6  10    5.50    2.80
   7  -6 -10   -2.80    5.00
   7  -6 -10    4.60    3.70
   7  -6 -10   -0.40    5.60
  -7  -6  10   23.00    3.90
  -7   6   9    6.80    2.80
   7   6  -9    6.00    3.90
  -7  -6   9    4.10    3.00
   7  -6  -9    5.30    5.10
   7  -6  -9    4.10    3.50
   7  -6  -9    4.40    5.50
  -7   6   8    0.90    2.30
   7   6  -8    4.60    3.80
  -7  -6   8    1.30    2.60
   7  -6  -8    3.10    5.40
   7  -6  -8    1.70    4.60
   7  -6  -8   -1.10    3.10
  -7   6   7   23.10    3.00
   7   6  -7   20.70    4.40
   7  -6  -7   25.20    6.10
  -7  -6   7   27.50    3.70
   7  -6  -7   18.70    3.70
   7  -6  -7   25.50    5.20
  -7   6   6   17.30    2.40
   7  -6  -6    4.10    5.00
   7  -6  -6   13.80    3.30
   7  -6  -6   17.80    4.70
  -7   6   5    2.80    1.70
   7   6  -5   -3.40    3.50
  -7  -6   5    2.00    2.00
   7  -6  -5   -3.20    4.80
   7  -6  -5   -1.00    3.70
   7  -6  -5    0.70    2.40
  -7  -6   5   -2.30    2.60
   7   6  -4   -2.20    3.40
  -7   6   4    4.90    1.50
  -7  -6   4    2.00    1.80
   7  -6  -4   -1.80    3.30
  -7  -6   4   -3.10    2.70
   7  -6  -4    0.20    2.30
  -7   6   3   23.60    2.50
   7   6  -3   19.40    4.10
  -7   6   3   22.60    3.80
   7  -6  -3   14.40    2.90
  -7  -6   3   25.70    2.70
  -7  -6   3   36.40    4.50
  -7  -6   3   25.90    2.10
   7  -6  -3   13.90    3.90
   7   6  -2  156.88   10.40
  -7   6   2  171.48    8.50
  -7   6   2  156.68   10.10
  -7  -6   2  157.48    8.70
   7  -6  -2  166.78    9.60
  -7  -6   2  153.28   10.40
  -7  -6   2  158.68    8.90
   7  -6  -2  158.48   10.40
  -7   6   1   -0.20    1.00
   7   6  -1    1.60    1.70
  -7   6   1    3.20    3.00
  -7  -6   1    4.90    1.80
  -7  -6   1    5.60    3.30
   7  -6  -1    0.60    2.10
  -7  -6   1    2.90    1.60
  -7   6   0  184.58   10.30
  -7   6   0  186.38   12.00
   7   6   0  199.18   11.20
  -7   6   0  190.98   10.30
  -7   6   0  193.68   11.10
  -7  -6   0  232.98   11.20
  -7  -6   0  209.78   10.90
  -7   6  -1   75.59    5.50
   7   6   1   74.59    4.40
   7   6   1   76.79    5.40
  -7   6  -1   65.39    4.40
  -7   6  -1   71.49    6.60
  -7  -6  -1   84.29    5.80
  -7  -6  -1   84.99    7.80
  -7  -6  -1   79.79    4.40
  -7  -6  -1   71.09    5.10
   7   6   2    3.20    1.50
  -7   6  -2    1.70    1.40
  -7   6  -2    4.00    3.40
  -7   6  -2    2.70    2.20
  -7  -6  -2    5.20    1.50
  -7  -6  -2    7.60    2.90
  -7  -6  -2   12.20    4.30
  -7  -6  -2    4.60    2.00
  -7   6  -3   17.90    3.90
  -7   6  -3   10.10    2.50
   7   6   3   10.50    2.10
  -7   6  -3   11.20    2.00
  -7  -6  -3   12.20    2.30
  -7  -6  -3   10.50    2.10
  -7  -6  -3   12.20    3.40
  -7  -6  -3   14.30    4.90
  -7   6  -4    2.80    3.60
  -7  -6  -4   27.90    4.00
  -7  -6  -4   18.10    2.50
  -7   6  -5    1.80    2.30
  -7   6  -5    4.10    3.50
  -7   6  -5    1.40    0.90
  -7  -6  -5    1.90    5.10
  -7  -6  -5    1.00    2.30
  -7  -6  -5    3.70    3.50
  -7   6  -6   44.40    5.60
  -7   6  -6   46.00    4.30
  -7  -6  -6   49.80    5.60
   7  -6   6   40.40    4.20
  -7  -6  -6   62.19    8.00
  -7  -6  -6   45.30    4.30
  -7   6  -7   28.60    5.00
  -7   6  -7   29.90    3.80
  -7  -6  -7   36.20    7.20
  -7  -6  -7   32.60    5.30
  -7  -6  -7   24.20    3.70
   7  -6   7   27.30    3.70
  -7   6  -8   73.19    6.30
  -7   6  -8   64.79    7.60
   7  -6   8   56.79    6.10
  -7  -6  -8   73.29   10.20
  -7  -6  -8   66.09    6.30
  -7  -6  -8   75.79    7.40
  -7   6  -9   23.40    5.00
  -7   6  -9   25.90    3.90
   7   6   9   17.90    3.80
  -7  -6  -9   16.20    7.20
  -7  -6  -9   10.70    5.30
  -7  -6  -9   10.40    3.50
   7  -6   9   16.30    3.80
  -7   6 -10   10.70    3.50
  -7   6 -10    6.10    4.40
   7   6  10   11.10    3.80
   7  -6  10    7.30    3.70
  -7  -6 -10    7.40    6.80
  -7  -6 -10    9.10    3.70
  -7  -6 -10   12.20    5.80
   7   7 -10   62.29    7.40
   7  -7 -10   56.49    9.20
  -7  -7  10   49.00    5.70
   7  -7 -10   62.29    6.40
   7  -7 -10   61.39    8.30
   7  -7  -9   -1.40    3.30
   7  -7  -9   -0.50    5.90
  -7  -7   9    5.70    3.10
   7  -7  -9    1.10    5.30
   7   7  -8   36.00    5.70
   7  -7  -8   41.90    6.70
   7  -7  -8   25.40    7.30
   7  -7  -8   30.50    4.60
  -7  -7   8   27.70    4.10
   7   7  -7    5.80    4.50
   7  -7  -7    4.40    4.70
   7  -7  -7    7.00    5.80
   7  -7  -7    2.80    3.20
  -7  -7   7    9.40    2.70
   7   7  -6    8.70    4.40
   7  -7  -6    6.00    3.20
  -7  -7   6    8.50    3.30
   7  -7  -6    8.90    5.90
   7  -7  -6    9.20    4.80
  -7  -7   6   14.50    2.80
   7   7  -5   -0.50    4.10
   7  -7  -5    7.70    2.80
   7  -7  -5    6.20    5.80
   7  -7  -5    5.10    4.40
  -7  -7   5    8.20    2.20
  -7  -7   5    7.50    3.40
   7   7  -4  162.08   11.10
   7  -7  -4  139.59   10.90
   7  -7  -4  140.39    9.70
  -7  -7   4  164.98    9.10
   7  -7  -4  141.79   13.00
  -7  -7   4  180.68   10.80
  -7   7   3   57.99    6.70
   7   7  -3   77.69    7.50
   7  -7  -3   62.59    5.60
  -7  -7   3   65.99    4.80
   7  -7  -3   66.89    6.60
  -7  -7   3   72.99    6.90
  -7   7   2   17.70    4.10
   7   7  -2   12.60    4.30
  -7  -7   2   15.50    2.20
   7  -7  -2   19.40    4.30
  -7  -7   2   15.30    2.10
   7  -7  -2   15.60    2.90
  -7  -7   2   14.20    4.00
  -7   7   1    2.20    3.50
   7  -7  -1    2.10    2.30
  -7  -7   1    2.70    2.00
  -7  -7   1    1.90    3.60
  -7  -7   1    3.00    1.50
   7  -7  -1    0.30    3.70
  -7   7   0   25.60    4.70
  -7  -7   0   36.90    3.30
  -7  -7   0   40.80    4.20
  -7  -7   0   38.50    5.90
   7  -7   0   28.70    3.50
  -7   7  -1    8.70    2.40
  -7  -7  -1    5.50    2.80
  -7  -7  -1    7.40    1.80
  -7  -7  -1    8.20    4.70
  -7   7  -2   44.90    4.60
  -7   7  -2   40.10    5.60
  -7  -7  -2   65.79    5.60
  -7  -7  -2   42.70    3.40
  -7   7  -3   46.90    4.00
  -7   7  -3   43.00    5.70
  -7  -7  -3   34.70    6.20
  -7  -7  -3   42.50    3.80
  -7  -7  -3   35.50    4.70
  -7   7  -4    5.20    2.40
  -7   7  -4   17.60    4.50
  -7  -7  -4    8.90    5.30
  -7  -7  -4    7.90    3.60
  -7  -7  -4    5.40    2.20
  -7   7  -5    7.00    4.00
  -7   7  -5   -0.60    2.30
  -7  -7  -5    4.20    3.70
  -7  -7  -5    6.00    5.70
  -7  -7  -5    4.70    2.30
  -7   7  -6   66.99    7.80
  -7   7  -6   68.29    5.80
  -7  -7  -6   60.39    8.90
  -7  -7  -6   60.29    6.50
  -7  -7  -6   65.89    5.80
  -7   7  -7    9.10    3.00
  -7   7  -7    7.40    4.50
  -7  -7  -7   11.50    3.20
  -7  -7  -7   17.50    6.90
  -7  -7  -7   19.10    5.00
  -7   7  -8    8.00    4.70
  -7   7  -8    2.00    3.20
  -7  -7  -8    1.90    5.10
  -7  -7  -8    6.80    3.20
   7  -7   8   -0.40    1.10
  -7  -7  -8    2.00    6.60
  -7   7  -9    8.60    4.50
  -7   7  -9    5.80    2.60
  -7  -7  -9   12.40    7.10
  -7  -7  -9   24.40    6.40
  -7  -7  -9   14.10    3.60
   7   8  -9   43.10    7.40
   7  -8  -9   61.59    8.60
   7  -8  -9   57.79    9.20
   7  -8  -9   49.30    5.70
   7   8  -8   10.80    5.00
   7  -8  -8   20.60    6.90
   7  -8  -8   21.10    6.30
   7  -8  -8   14.80    4.10
   7   8  -7    3.70    5.10
   7  -8  -7   -1.00    5.10
   7  -8  -7    9.20    6.50
   7  -8  -7   -1.60    2.90
   7   8  -6   17.90    5.50
   7  -8  -6   21.80    5.80
   7  -8  -6   24.20    4.00
   7  -8  -6   22.70    7.20
   7   8  -5    2.40    4.70
   7  -8  -5    5.70    6.10
  -7  -8   5    1.10    3.40
   7  -8  -5    1.50    3.00
   7  -8  -5   -0.90    4.70
   7   8  -4   42.00    6.20
   7  -8  -4   37.80    7.70
   7  -8  -4   34.20    4.00
  -7  -8   4   37.20    5.40
   7   8  -3   27.00    5.60
  -7   8   3   27.90    5.00
   7  -8  -3   29.40    6.90
   7  -8  -3   31.20    5.40
  -7  -8   3   27.10    4.90
   7  -8  -3   34.10    3.90
   7   8  -2   34.60    6.20
  -7   8   2   41.10    5.50
  -7  -8   2   33.30    5.50
   7  -8  -2   42.70    5.70
   7  -8  -2   41.60    4.10
  -7   8   1   18.80    4.60
   7  -8  -1   23.00    4.50
   7  -8  -1   14.10    3.00
  -7  -8   1   19.30    5.00
  -7   8   0   36.90    5.60
  -7  -8   0   35.20    3.90
   7  -8   0   33.90    3.70
  -7  -8   0   39.40    6.40
   7  -8   0   37.40    5.30
  -7   8  -1    1.20    4.10
   7  -8   1    1.80    2.30
  -7  -8  -1    9.40    5.10
  -7  -8  -1    8.50    3.10
  -7   8  -2   29.80    3.50
  -7   8  -2   35.60    5.80
  -7   8  -3  303.57   20.20
  -7   8  -3  314.97   18.70
  -7  -8  -3  414.26   22.30
  -7  -8  -3  376.56   19.60
  -7   8  -4  181.18   11.60
  -7   8  -4  206.08   13.80
  -7  -8  -4  228.28   15.70
  -7  -8  -4  213.38   12.90
  -7   8  -5   60.89    6.90
  -7  -8  -5   62.39    8.80
  -7  -8  -5   42.20    6.00
  -7   8  -6   81.89    9.00
  -7  -8  -6   84.29   11.40
  -7  -8  -6  100.79    9.10
  -7   8  -7    7.60    4.60
  -7  -8  -7    1.00    5.10
  -7  -8  -7    1.10    6.30
  -7   8  -8    7.40    4.50
  -7  -8  -8    8.70    7.20
  -7  -8  -8    7.70    5.50
   7   9  -7   53.59    7.90
   7   9  -6    1.50    5.50
   7  -9  -6   -1.50    5.90
   7  -9  -6    0.10    3.00
   7  -9  -6    2.40    6.80
   7   9  -5    8.40    5.30
   7  -9  -5    5.10    3.30
   7  -9  -5   -3.70    5.70
   7  -9  -5    6.30    6.60
   7   9  -4    8.20    5.50
  -7  -9   4   13.70    4.80
   7  -9  -4   12.50    6.50
   7  -9  -4   17.20    3.40
   7  -9  -4   11.50    5.70
   7   9  -3    3.90    5.30
  -7   9   3   -0.90    4.30
  -7  -9   3    4.60    3.90
   7  -9  -3    1.10    5.50
   7  -9  -3    0.30    4.90
   7  -9  -3   -1.70    2.10
  -7   9   2   53.79    6.60
   7  -9  -2   41.50    8.40
   7  -9  -2   36.70    6.30
  -7  -9   2   59.49    7.30
  -7   9   1   10.50    4.90
  -7  -9   1   11.40    4.70
   7  -9  -1    5.30    4.70
  -7   9   0   73.39    8.60
   7  -9   0   74.59    8.30
  -7  -9   0   84.99    9.80
  -7   9  -1   21.20    5.50
   7  -9   1   23.60    5.10
  -7  -9  -1   24.10    6.20
  -7   9  -2   -0.10    4.50
  -7  -9  -2   -0.80    5.20
  -7  -9  -2    3.90    3.80
   7  -9   2    1.20    4.10
  -7   9  -3    3.00    4.60
  -7  -9  -3   -2.90    3.90
  -7  -9  -3   -0.10    5.30
  -7   9  -4    1.70    4.70
  -7  -9  -4    7.20    4.50
  -7  -9  -4    6.60    5.90
  -7   9  -5    4.40    4.40
  -7  -9  -5   -0.40    6.10
  -7  -9  -5   -0.30    4.60
  -7   9  -6    4.00    4.40
  -7  -9  -6   12.50    5.00
  -7  -9  -6   12.80    7.20
  -7  10   2    1.90    5.10
   7 -10  -2   14.20    5.70
   7 -10  -2   15.60    7.30
  -7 -10   2    9.20    4.90
  -7  10   1   25.80    6.10
  -7 -10   1   21.30    6.00
   7 -10  -1   28.60    7.60
   7 -10  -1   16.10    5.70
  -7  10   0   26.60    6.20
   7 -10   0   29.30    5.90
  -7 -10   0   28.80    7.10
  -7  10  -1    2.50    5.30
  -7 -10  -1    4.00    5.80
   7 -10   1    6.50    5.10
  -7  10  -2    4.60    5.50
   8   0 -14   30.30    5.20
   8   0 -14   29.20    5.10
  -8   0  14   34.60    4.90
  -8   0  13   -1.30    2.90
   8   0 -13   -3.50    3.70
   8   0 -13   -2.90    3.70
  -8   0  12  341.07   20.00
   8   0 -12  389.46   19.90
   8   0 -12  322.37   19.70
   8   0 -11   -1.70    3.10
  -8   0  11   -0.90    2.70
   8   0 -11    2.20    3.60
   8   0 -10   48.30    4.80
   8   0 -10   40.10    4.00
  -8   0  10   57.09    5.20
   8   0 -10   33.80    4.30
   8   0  -9   -2.50    2.60
  -8   0   9    0.10    2.30
   8   0  -9   -0.90    2.80
   8   0  -9   -2.10    1.80
   8   0  -8   61.39    5.60
   8   0  -8   68.19    4.50
   8   0  -8   54.99    5.40
  -8   0   8   60.59    5.30
   8   0  -7    0.90    2.30
   8   0  -7    0.20    2.40
   8   0  -7    0.30    1.40
  -8   0   7    1.10    2.00
   8   0  -7   -0.20    1.50
   8   0  -6   72.29    4.70
  -8   0   6   81.49    5.50
   8   0  -6   79.29    5.60
   8   0  -6   74.79    4.90
   8   0  -5   -1.20    2.00
  -8   0   5   -1.20    1.80
   8   0  -5   -0.60    1.90
   8   0  -5    0.40    1.90
   8   0  -5   -1.60    1.40
   8   0  -5    0.50    2.00
   8   0  -4   91.59    5.90
  -8   0   4  101.89    6.20
   8   0  -4   97.39    6.10
   8   0  -4   97.09    6.00
   8   0  -3    0.00    1.70
   8   0  -3   -0.20    1.70
  -8   0   3    0.10    1.40
  -8   0   3    0.10    1.80
  -8   0   3   -2.10    1.60
   8   0  -3    0.40    1.90
   8   0  -3    0.20    1.60
  -8   0   2   47.10    3.60
  -8   0   2   40.70    3.20
  -8   0   2   36.40    3.70
   8   0  -2   39.50    3.90
   8   0  -2   38.90    3.30
   8   0  -1    0.20    1.40
   8   0  -1   -0.40    2.00
  -8   0   1    0.00    1.90
  -8   0   1    1.20    1.40
   8   0   0  470.35   25.30
   8   0   0  533.35   26.10
  -8   0   0  494.05   25.20
  -8   0   0  466.75   25.80
   8   0   0  506.75   25.20
  -8   0  -1   -1.70    2.50
   8   0   1    0.70    2.50
  -8   0  -1   -1.40    1.80
  -8   0  -1   -0.80    1.50
   8   0   1    0.20    1.70
   8   0   1    0.00    1.20
   8   0   2  662.33   32.70
   8   0   2  603.74   33.50
  -8   0  -2  679.83   33.60
  -8   0  -2  665.03   32.80
  -8   0  -2  647.34   32.70
  -8   0  -2  653.73   32.60
   8   0   2  567.44   32.50
  -8   0  -3    1.00    1.70
   8   0   3    0.10    1.70
  -8   0  -3   -0.70    1.90
   8   0   3   -0.90    2.90
   8   0   3   -0.40    1.40
  -8   0  -3    2.20    3.20
  -8   0  -3    0.90    2.00
  -8   0  -4 1461.85   71.69
   8   0   4 1317.27   71.59
  -8   0  -4 1423.66   71.49
   8   0   4 1341.87   71.49
   8   0   4 1408.16   71.69
  -8   0  -4 1479.95   72.69
  -8   0  -4 1459.25   71.59
   8   0   4 1451.95   72.69
  -8   0  -5   -2.40    2.00
  -8   0  -5    1.00    2.50
  -8   0  -5    2.50    3.30
   8   0   5    0.40    2.10
  -8   0  -6   30.90    4.60
   8   0   6   39.10    3.90
  -8   0  -6   32.10    3.40
  -8   0  -6   38.70    4.00
   8   0   7    0.20    2.40
  -8   0  -7   -1.00    3.50
  -8   0  -7   -4.60    2.30
  -8   0  -7   -3.40    2.70
  -8   0  -8   83.79    7.00
  -8   0  -8   96.69    8.80
  -8   0  -8   87.49    6.90
   8   0   8   89.09    7.10
   8   0   9   -2.10    2.60
  -8   0  -9   -1.10    4.20
  -8   0  -9   -1.10    3.20
  -8   0  -9   -0.40    3.00
  -8   0 -10  578.74   29.90
  -8   0 -10  563.84   31.20
   8   0  10  539.15   29.80
  -8   0 -10  536.65   29.50
  -8   0 -11   -0.40    4.30
   8   0  11   -1.20    3.20
  -8   0 -11    6.80    3.40
  -8   0 -11   -2.30    3.80
  -8   0 -12   14.60    4.10
   8   0  12   16.40    4.10
  -8   0 -12   21.50    5.30
  -8   0 -12   13.90    4.70
   8   0  13   -2.10    3.20
  -8   0 -13   -0.70    4.50
  -8   0 -13    0.10    3.90
  -8   0 -13   -5.10    3.70
   8   1 -14    0.50    4.20
  -8   1  14   -0.10    2.90
  -8  -1  14   -1.80    2.80
   8  -1 -14   -2.10    4.50
   8  -1 -14   -2.00    4.10
  -8   1  13   15.80    3.70
   8   1 -13   20.40    4.50
   8   1 -13   -3.30    2.30
   8  -1 -13    6.30    4.90
  -8  -1  13   19.50    3.80
   8  -1 -13    8.90    4.30
  -8   1  12  159.38   11.10
   8   1 -12  162.48   11.00
   8   1 -12  176.38   10.50
   8  -1 -12  161.38   11.60
  -8  -1  12  159.38   11.00
   8  -1 -12  184.48   11.80
  -8   1  11   -0.50    2.70
   8   1 -11    3.70    3.30
   8   1 -11    0.10    2.90
  -8  -1  11    2.80    2.80
   8  -1 -11   -2.00    3.50
   8  -1 -11    0.10    3.40
  -8   1  10   33.20    4.10
   8   1 -10   32.40    3.90
   8   1 -10   24.50    3.90
   8  -1 -10   27.90    3.80
   8  -1 -10   24.20    4.10
   8  -1 -10   27.00    4.20
  -8  -1  10   34.60    4.30
  -8   1   9   39.90    4.20
   8   1  -9   32.60    4.20
   8   1  -9   40.90    4.00
  -8  -1   9   45.40    4.40
   8  -1  -9   40.50    4.50
   8  -1  -9   42.00    4.80
   8  -1  -9   31.40    4.30
   8   1  -8  102.69    6.20
   8   1  -8   96.69    6.90
  -8   1   8   94.99    6.80
   8   1  -8  100.79    6.50
   8  -1  -8   95.19    7.10
   8  -1  -8   96.69    6.70
  -8  -1   8   94.39    6.90
   8  -1  -8   94.39    7.10
   8   1  -7   46.60    4.40
   8   1  -7   52.79    3.80
   8   1  -7   48.90    4.80
  -8   1   7   46.00    4.50
   8  -1  -7   51.09    5.30
   8  -1  -7   41.90    4.20
  -8  -1   7   48.00    4.60
   8  -1  -7   46.90    4.70
   8   1  -6   41.60    3.40
   8   1  -6   47.50    4.40
  -8   1   6   44.70    4.20
   8   1  -6   45.60    3.90
   8  -1  -6   42.40    4.50
   8  -1  -6   44.30    4.60
   8  -1  -6   32.10    3.60
  -8  -1   6   43.80    4.20
  -8  -1   6   43.00    3.50
   8   1  -5    8.70    2.30
   8   1  -5   12.20    2.00
   8   1  -5   11.20    2.20
   8   1  -5   11.40    1.60
   8   1  -5    9.10    2.40
  -8   1   5    9.70    2.20
   8  -1  -5   11.40    1.60
   8  -1  -5    7.90    2.20
   8  -1  -5    6.80    2.30
   8  -1  -5   10.10    2.40
  -8  -1   5   11.40    2.40
   8  -1  -5    9.70    2.50
   8   1  -4   15.40    2.50
   8   1  -4   14.30    2.20
  -8   1   4    9.00    2.10
   8   1  -4   16.00    2.20
   8   1  -4   11.60    2.10
   8  -1  -4    9.20    2.60
   8  -1  -4   11.90    2.50
   8  -1  -4   11.10    1.50
   8  -1  -4    8.70    2.20
  -8  -1   4   11.60    2.30
   8   1  -3   10.40    2.20
   8   1  -3   12.60    1.90
  -8   1   3   12.90    2.10
   8   1  -3   13.20    2.10
   8   1  -3    8.90    1.90
  -8   1   3    9.70    1.90
   8  -1  -3    9.90    1.90
  -8  -1   3   13.50    2.30
   8  -1  -3   10.40    2.10
  -8  -1   3    9.80    1.90
   8  -1  -3    7.60    2.10
   8  -1  -3    7.60    2.30
   8   1  -2  535.35   29.10
   8   1  -2  556.44   28.80
   8   1  -2  561.14   28.80
  -8   1   2  589.04   29.00
  -8   1   2  583.64   28.90
  -8   1   2  582.04   28.60
   8  -1  -2  507.55   29.30
  -8  -1   2  595.94   29.00
  -8  -1   2  584.54   28.80
   8  -1  -2  557.34   28.90
  -8  -1   2  593.64   28.60
  -8  -1   2  557.14   29.10
  -8   1   1   13.90    2.00
   8   1  -1   10.70    2.40
  -8   1   1   12.40    1.60
   8   1  -1   10.60    1.50
  -8   1   1    8.30    2.50
   8   1  -1   10.50    1.70
   8  -1  -1    7.30    1.70
  -8  -1   1   13.00    2.50
   8  -1  -1   12.40    2.60
  -8  -1   1   14.30    1.70
  -8   1   0  343.97   16.50
   8   1   0  334.97   17.20
   8   1   0  331.47   16.40
   8   1   0  319.17   16.50
  -8   1   0  283.17   17.00
  -8  -1   0  326.37   17.20
  -8  -1   0  306.87   16.50
   8  -1   0  321.47   17.20
  -8  -1   0  334.37   16.40
   8  -1   0  271.67   16.30
   8   1   1  838.92   40.50
   8   1   1  758.22   40.60
  -8   1  -1  865.71   40.60
  -8   1  -1  698.33   41.20
   8   1   1  826.02   41.30
   8  -1   1  774.52   40.50
   8  -1   1  779.12   40.70
   8  -1   1  857.41   41.50
  -8  -1  -1  794.12   41.30
  -8  -1  -1  852.61   40.50
  -8  -1  -1  766.22   40.60
   8   1   2   88.69    6.60
  -8   1  -2   81.09    5.40
  -8   1  -2   74.29    6.30
   8   1   2   79.79    5.10
  -8   1  -2   79.89    5.30
   8   1   2   85.59    5.40
   8  -1   2   88.79    7.10
   8  -1   2   71.79    5.10
  -8  -1  -2   86.99    5.40
  -8  -1  -2   80.09    5.20
  -8  -1  -2   74.49    5.50
   8  -1   2   87.99    5.50
  -8  -1  -2   81.89    6.50
  -8   1  -3  156.48   10.50
  -8   1  -3  176.48    9.40
  -8   1  -3  164.78    9.30
   8   1   3  166.68    9.20
  -8   1  -3  179.88    9.60
   8   1   3  175.68    9.50
   8   1   3  142.59   10.10
  -8  -1  -3  159.68    9.50
   8  -1   3  160.28   10.60
  -8  -1  -3  168.78    9.40
  -8  -1  -3  160.08    9.20
   8  -1   3  163.48    9.40
   8  -1   3  165.58    9.20
  -8  -1  -3  170.18   10.90
  -8   1  -4   91.69    6.00
  -8   1  -4   88.39    7.50
  -8   1  -4   95.69    6.00
  -8   1  -4   94.39    6.40
   8   1   4   86.79    6.20
   8   1   4   91.49    5.80
   8   1   4   85.79    7.20
   8   1   4   82.89    5.90
  -8  -1  -4   97.59    7.90
   8  -1   4   98.49    7.90
  -8  -1  -4   91.39    6.30
   8  -1   4   91.89    5.90
  -8  -1  -4   92.09    5.90
   8  -1   4   85.29    6.10
  -8  -1  -4  101.89    6.10
  -8   1  -5   48.90    4.60
  -8   1  -5   46.40    4.40
  -8   1  -5   42.50    5.70
   8   1   5   41.60    4.30
  -8  -1  -5   38.60    5.20
  -8  -1  -5   42.00    4.20
  -8  -1  -5   39.50    3.70
   8  -1   5   41.70    4.30
  -8   1  -6   45.80    4.00
  -8   1  -6   46.70    4.40
  -8   1  -6   38.90    5.70
   8   1   6   40.80    4.50
   8  -1   6   41.70    4.50
  -8  -1  -6   43.10    3.90
  -8  -1  -6   39.00    4.30
  -8  -1  -6   35.50    5.30
  -8   1  -7   52.59    5.20
  -8   1  -7   49.70    5.40
   8   1   7   53.49    5.30
  -8   1  -7   49.60    6.50
   8  -1   7   54.99    5.30
  -8  -1  -7   57.09    5.80
  -8  -1  -7   57.39    5.20
  -8  -1  -7   52.89    7.20
   8   1   8   29.50    4.00
  -8   1  -8   40.60    4.30
  -8   1  -8   42.20    4.60
  -8   1  -8   30.10    5.20
  -8  -1  -8   37.80    6.20
  -8  -1  -8   33.80    4.00
   8  -1   8   36.70    4.40
  -8  -1  -8   32.40    4.50
  -8   1  -9    4.30    3.90
  -8   1  -9   -2.30    3.40
   8   1   9    3.70    2.90
  -8   1  -9   -1.80    2.90
  -8  -1  -9   -0.90    2.90
  -8  -1  -9   -0.40    3.70
   8  -1   9    2.60    2.90
  -8  -1  -9   -2.40    4.60
  -8   1 -10    6.20    3.40
   8   1  10    0.50    3.10
  -8   1 -10    6.20    3.80
  -8   1 -10    3.80    3.90
  -8  -1 -10    2.70    4.00
  -8  -1 -10   -0.70    4.90
   8  -1  10    0.40    2.90
  -8  -1 -10    8.80    3.40
   8   1  11  125.99    9.70
  -8   1 -11  136.29    9.90
  -8   1 -11  128.39   10.20
  -8   1 -11  135.19    9.40
  -8  -1 -11  130.79    9.40
  -8  -1 -11  124.19   11.30
  -8  -1 -11  125.29   10.10
   8  -1  11  125.19    9.60
  -8   1 -12   62.79    7.60
  -8   1 -12   51.39    5.60
  -8   1 -12   54.69    6.20
   8   1  12   51.59    6.00
  -8  -1 -12   41.70    7.10
   8  -1  12   41.60    5.60
  -8  -1 -12   50.09    6.40
  -8  -1 -12   44.40    5.30
  -8   1 -13   11.20    4.20
  -8   1 -13   -1.90    4.40
   8   1  13   -1.40    3.40
  -8   1 -13    0.30    3.90
  -8  -1 -13   -1.90    4.50
  -8  -1 -13    7.40    3.80
   8  -1  13   -2.70    3.30
  -8  -1 -13  -10.00    4.40
   8   2 -14    1.30    4.10
  -8   2  14   -0.70    3.10
   8  -2 -14    1.50    5.20
   8  -2 -14    0.60    4.50
  -8  -2  14    2.30    3.10
   8   2 -13   45.00    5.60
  -8   2  13   40.50    5.00
  -8  -2  13   40.90    5.20
   8  -2 -13   45.60    6.40
   8  -2 -13   32.40    5.30
  -8   2  12   13.40    3.50
   8   2 -12   12.00    3.30
   8   2 -12   12.10    4.00
   8  -2 -12   16.10    4.40
  -8  -2  12   18.10    4.00
   8  -2 -12   10.70    4.80
  -8   2  11    2.00    2.80
   8   2 -11   -3.00    2.00
   8   2 -11    0.40    2.70
   8   2 -11   -3.30    3.20
   8  -2 -11   -1.40    3.50
   8  -2 -11   -1.40    4.20
  -8  -2  11    2.50    2.80
   8  -2 -11    0.70    3.20
   8   2 -10   30.10    3.70
   8   2 -10   26.60    3.10
   8   2 -10   28.00    3.90
  -8   2  10   32.50    4.10
  -8  -2  10   40.40    4.70
   8  -2 -10   24.30    4.60
   8  -2 -10   15.50    3.70
   8  -2 -10   23.90    4.30
   8   2  -9    6.10    2.80
   8   2  -9    6.90    2.20
   8   2  -9   10.60    2.70
  -8   2   9    7.00    2.70
   8  -2  -9    3.50    3.40
  -8  -2   9   11.60    2.90
   8  -2  -9    3.60    3.00
   8  -2  -9    6.90    3.40
   8   2  -8   96.69    6.40
  -8   2   8  102.49    6.90
   8   2  -8  104.79    6.20
   8   2  -8   99.89    6.70
   8  -2  -8  101.39    7.50
  -8  -2   8   95.89    7.00
   8  -2  -8   98.39    7.60
   8  -2  -8   88.99    7.20
   8   2  -7  135.09    8.00
   8   2  -7  132.49    7.40
  -8   2   7  135.79    8.00
   8   2  -7  130.79    7.70
  -8  -2   7  117.69    7.40
   8  -2  -7  127.59    7.50
   8  -2  -7  128.59    8.80
  -8  -2   7  130.09    8.20
   8  -2  -7  122.19    8.30
   8  -2  -7  128.39    8.50
  -8   2   6    7.90    2.30
   8   2  -6    6.20    2.00
   8   2  -6    6.80    1.60
   8   2  -6    8.00    2.10
  -8  -2   6    5.80    1.50
   8  -2  -6    6.80    1.90
  -8  -2   6    6.40    2.20
   8  -2  -6    6.60    2.70
   8  -2  -6    7.90    3.00
   8  -2  -6    6.30    2.30
   8   2  -5  241.88   14.50
   8   2  -5  285.17   14.20
   8   2  -5  275.47   14.20
   8   2  -5  279.47   14.10
   8   2  -5  276.77   13.90
  -8   2   5  272.27   14.50
  -8  -2   5  263.27   14.50
   8  -2  -5  255.37   14.60
   8  -2  -5  251.17   14.40
   8  -2  -5  264.77   14.00
   8  -2  -5  278.97   14.80
  -8   2   4    4.00    1.80
   8   2  -4    4.10    1.50
   8   2  -4    2.50    1.70
   8   2  -4    3.70    2.10
   8   2  -4    2.60    1.80
   8   2  -4    2.80    1.40
  -8  -2   4    2.80    1.90
   8  -2  -4    3.30    2.00
   8  -2  -4    1.00    1.90
   8  -2  -4    3.10    1.80
   8  -2  -4    4.80    2.30
  -8  -2   4    3.80    1.40
  -8  -2   4    4.70    1.60
  -8   2   3  135.39    7.40
  -8   2   3  141.59    7.70
   8   2  -3  126.89    7.20
   8   2  -3  131.49    7.70
   8   2  -3  133.69    7.40
   8   2  -3  136.39    7.50
  -8  -2   3  134.39    7.80
   8  -2  -3  118.89    8.50
   8  -2  -3  144.49    7.50
   8  -2  -3  129.49    7.80
  -8  -2   3  132.69    7.80
   8  -2  -3  139.29    8.00
  -8  -2   3  135.49    7.30
  -8   2   2   19.40    2.30
   8   2  -2   20.80    2.00
   8   2  -2   22.20    2.00
  -8   2   2   25.00    2.40
   8   2  -2   19.70    2.70
  -8   2   2   24.90    2.30
   8  -2  -2   18.80    3.40
  -8  -2   2   22.80    2.20
   8  -2  -2   20.10    2.20
   8  -2  -2   20.60    2.40
  -8  -2   2   20.80    1.90
  -8  -2   2   21.20    3.00
  -8   2   1   52.39    3.80
   8   2  -1   48.80    4.60
  -8   2   1   53.59    4.10
   8   2  -1   51.29    3.70
   8   2  -1   55.49    3.50
  -8  -2   1   49.99    3.80
  -8  -2   1   55.59    4.00
  -8  -2   1   55.19    3.60
  -8  -2   1   59.49    5.10
   8  -2  -1   47.00    5.10
   8  -2  -1   46.80    4.00
  -8   2   0  122.69    8.00
   8   2   0  122.99    7.90
  -8   2   0  123.19    7.10
   8   2   0  122.69    6.80
   8   2   0  127.09    7.10
  -8   2   0  134.19    7.30
  -8  -2   0  128.29    8.20
  -8  -2   0  113.19    7.00
   8  -2   0  114.39    7.90
  -8  -2   0  124.89    6.80
   8  -2   0  119.69    7.00
  -8   2  -1   87.99    5.70
   8   2   1   78.49    5.20
   8   2   1   79.39    4.90
  -8   2  -1   87.69    5.40
   8   2   1   74.19    6.00
  -8   2  -1   71.69    6.10
  -8   2  -1   80.49    5.20
  -8  -2  -1   88.19    6.90
  -8  -2  -1   75.49    5.20
   8  -2   1   75.79    5.10
   8  -2   1   77.09    5.30
  -8  -2  -1   84.09    5.00
   8  -2   1   75.29    6.50
   8   2   2  380.36   18.80
  -8   2  -2  356.76   18.90
   8   2   2  344.47   19.80
   8   2   2  375.86   19.10
  -8   2  -2  385.06   19.00
  -8   2  -2  385.26   20.10
   8  -2   2  344.27   18.80
  -8  -2  -2  384.26   19.00
  -8  -2  -2  349.17   19.00
  -8  -2  -2  354.96   18.80
   8  -2   2  365.46   19.10
   8  -2   2  352.46   19.90
  -8  -2  -2  344.27   19.90
   8   2   3    1.90    2.90
  -8   2  -3    1.00    3.10
  -8   2  -3    0.50    2.00
  -8   2  -3    1.60    1.70
   8   2   3    1.30    2.10
   8   2   3    2.80    1.60
   8  -2   3    3.60    2.10
   8  -2   3    2.80    1.60
  -8  -2  -3    4.60    1.90
   8  -2   3    0.90    3.00
  -8  -2  -3    1.30    1.80
  -8  -2  -3    3.90    2.40
  -8  -2  -3    8.30    4.00
  -8   2  -4    0.90    2.90
  -8   2  -4    1.30    2.00
  -8   2  -4    0.90    1.90
   8   2   4   -0.80    1.70
  -8   2  -4   -1.50    2.20
   8  -2   4    0.80    1.60
   8  -2   4    2.20    2.00
  -8  -2  -4    1.50    1.80
   8  -2   4   -0.70    3.00
  -8  -2  -4    0.70    2.00
  -8  -2  -4    2.40    2.60
  -8  -2  -4    4.80    3.80
   8   2   5   21.30    3.10
  -8   2  -5   17.50    2.70
  -8   2  -5   18.20    3.90
  -8   2  -5   20.70    3.10
   8  -2   5   21.40    2.90
  -8  -2  -5   21.00    2.90
  -8  -2  -5   19.90    3.40
  -8  -2  -5   21.40    4.30
  -8   2  -6   95.19    6.50
  -8   2  -6   86.79    7.80
   8   2   6   89.59    6.60
  -8   2  -6   99.69    6.80
  -8  -2  -6  100.89    8.90
  -8  -2  -6   80.39    6.80
  -8  -2  -6  104.39    6.60
   8  -2   6   94.79    6.70
  -8   2  -7    2.90    2.60
   8   2   7    1.20    2.40
  -8   2  -7   -1.30    3.20
  -8   2  -7    1.30    3.00
  -8  -2  -7    0.60    4.70
  -8  -2  -7    0.20    3.10
  -8  -2  -7    3.90    2.50
   8  -2   7    1.80    2.40
  -8   2  -8    0.10    2.70
  -8   2  -8    4.30    3.80
  -8   2  -8    2.40    3.10
   8   2   8    2.50    2.60
   8  -2   8    1.20    2.60
  -8  -2  -8    0.10    2.70
  -8  -2  -8    6.60    3.60
  -8  -2  -8    5.20    5.00
  -8   2  -9   76.59    6.80
   8   2   9   72.99    6.70
  -8   2  -9   70.39    6.50
  -8   2  -9   71.99    7.60
  -8  -2  -9   72.79    7.50
   8  -2   9   69.99    6.70
  -8  -2  -9   69.99    9.40
  -8  -2  -9   72.29    6.60
   8   2  10   -0.90    3.00
  -8   2 -10    0.30    3.20
  -8   2 -10   -3.00    3.50
  -8   2 -10    2.60    3.90
  -8  -2 -10    1.30    3.20
  -8  -2 -10    4.80    4.30
   8  -2  10   -3.50    2.90
  -8  -2 -10   -5.80    5.20
  -8   2 -11    4.60    4.10
  -8   2 -11    8.10    4.20
   8   2  11    2.90    3.30
  -8   2 -11    4.70    3.50
   8  -2  11    4.00    3.40
  -8  -2 -11   -9.50    5.10
  -8  -2 -11    6.50    3.70
  -8  -2 -11    6.90    4.80
  -8   2 -12    6.10    4.10
  -8   2 -12    9.30    4.20
   8   2  12    9.20    3.80
  -8   2 -12    3.00    3.70
  -8  -2 -12   -8.00    5.80
   8  -2  12    6.10    3.70
  -8  -2 -12    7.30    5.10
  -8  -2 -12    6.60    3.90
   8   2  13    0.50    3.80
  -8   2 -13    9.70    4.30
  -8   2 -13   -0.70    3.80
  -8   2 -13    1.70    4.30
  -8  -2 -13    2.00    3.80
  -8  -2 -13    1.90    5.60
  -8  -2 -13  -13.00    5.40
   8  -2  13    1.50    3.70
  -8   3  13   19.60    4.50
   8   3 -13   24.30    4.60
   8  -3 -13   18.20    4.70
  -8  -3  13   24.50    4.30
   8  -3 -13   21.50    6.00
  -8   3  12   19.50    4.00
   8   3 -12   24.10    4.20
   8   3 -12   10.30    3.00
   8  -3 -12   22.60    4.60
  -8  -3  12   22.60    4.00
   8  -3 -12   20.30    5.40
   8   3 -11    7.00    3.30
  -8   3  11    3.40    2.90
   8   3 -11    1.60    2.80
  -8  -3  11    3.80    3.00
   8  -3 -11    5.30    4.40
   8  -3 -11    0.10    3.20
   8  -3 -11    2.50    4.10
  -8   3  10   57.29    5.50
   8   3 -10   54.59    5.40
   8   3 -10   58.59    5.80
  -8  -3  10   53.59    5.80
   8  -3 -10   46.30    5.30
   8  -3 -10   61.39    7.20
   8  -3 -10   54.39    6.00
   8   3  -9  101.99    6.00
   8   3  -9  111.59    7.40
   8   3  -9  112.99    7.40
  -8   3   9  106.49    7.40
   8  -3  -9  106.69    8.90
  -8  -3   9  108.19    7.60
   8  -3  -9   92.39    7.50
   8  -3  -9   98.09    7.80
   8  -3  -9  108.39    8.80
   8   3  -8   30.60    3.60
  -8   3   8   31.10    3.50
   8   3  -8   30.50    3.30
   8   3  -8   21.40    2.40
   8  -3  -8   21.80    3.20
   8  -3  -8   31.70    4.60
   8  -3  -8   29.50    4.80
   8  -3  -8   29.90    4.10
  -8  -3   8   27.40    3.60
  -8   3   7    7.50    2.40
   8   3  -7    6.00    2.50
   8   3  -7    5.50    1.10
   8   3  -7    7.80    2.20
   8  -3  -7    6.30    3.30
   8  -3  -7    8.20    2.90
   8  -3  -7    6.20    2.30
  -8  -3   7    5.40    1.60
   8  -3  -7    6.70    3.50
  -8  -3   7    7.00    2.40
   8   3  -6   92.39    6.20
   8   3  -6   97.59    5.90
  -8   3   6  102.79    6.30
   8   3  -6  101.29    6.00
   8  -3  -6   86.19    6.50
  -8  -3   6   90.39    6.30
   8  -3  -6   93.89    7.60
   8  -3  -6   90.19    7.10
   8  -3  -6   89.29    6.10
  -8  -3   6   88.69    5.40
   8   3  -5   67.19    4.40
   8   3  -5   62.39    4.90
  -8   3   5   65.39    4.90
   8   3  -5   64.29    4.40
  -8  -3   5   68.19    4.90
  -8  -3   5   61.99    4.20
   8  -3  -5   65.29    4.70
   8  -3  -5   65.69    5.30
   8  -3  -5   67.29    5.80
   8  -3  -5   65.49    5.00
  -8  -3   5   61.79    4.30
   8   3  -4   22.80    2.20
   8   3  -4   25.90    3.00
   8   3  -4   26.50    2.30
  -8   3   4   27.80    2.80
   8   3  -4   18.10    2.80
  -8  -3   4   24.30    2.80
   8  -3  -4   28.20    3.00
   8  -3  -4   26.40    2.80
   8  -3  -4   28.70    3.10
  -8  -3   4   24.40    2.80
   8  -3  -4   22.30    3.50
  -8   3   3   15.40    2.30
   8   3  -3    9.20    2.30
   8   3  -3   11.00    1.60
   8   3  -3   11.60    1.40
   8   3  -3   10.80    1.30
  -8   3   3   10.60    1.90
   8   3  -3   17.30    2.70
  -8  -3   3   11.10    2.20
  -8  -3   3   10.70    2.00
   8  -3  -3    7.90    2.30
   8  -3  -3   14.20    2.40
   8  -3  -3    8.50    2.10
  -8  -3   3   15.40    2.50
   8   3  -2  312.97   17.20
   8   3  -2  316.87   16.30
  -8   3   2  327.47   16.60
  -8   3   2  314.07   16.70
   8   3  -2  322.87   16.30
  -8   3   2  340.57   16.80
  -8  -3   2  318.17   16.70
  -8  -3   2  320.37   16.30
  -8  -3   2  309.17   17.10
  -8  -3   2  299.67   16.70
   8  -3  -2  325.07   16.70
   8  -3  -2  299.87   16.70
   8  -3  -2  333.07   17.90
   8   3  -1  148.69    7.80
  -8   3   1  143.89    8.30
  -8   3   1  143.29    8.40
  -8   3   1  146.69    8.10
   8   3  -1  135.49    8.90
   8   3  -1  140.29    8.00
  -8  -3   1  154.38    8.50
   8  -3  -1  143.69    8.40
  -8  -3   1  158.38    8.40
   8  -3  -1  139.49    9.30
  -8  -3   1  150.18    7.80
  -8  -3   1  161.68    8.00
   8  -3  -1  134.89    8.30
  -8   3   0   31.30    2.90
   8   3   0   32.10    2.60
   8   3   0   31.10    3.10
   8   3   0   24.80    3.60
  -8   3   0   30.20    3.70
  -8  -3   0   29.10    2.80
  -8  -3   0   38.40    4.70
   8  -3   0   31.80    3.20
  -8  -3   0   31.40    3.30
  -8  -3   0   32.90    3.20
   8  -3   0   25.60    3.90
  -8   3  -1  553.84   28.80
  -8   3  -1  557.54   28.40
   8   3   1  558.04   29.60
  -8   3  -1  578.94   28.60
   8   3   1  562.14   28.60
   8   3   1  569.14   28.30
  -8  -3  -1  556.14   29.50
  -8  -3  -1  544.15   28.30
   8  -3   1  574.14   29.70
  -8  -3  -1  546.85   28.60
   8  -3   1  525.15   28.50
   8   3   2    1.60    1.80
  -8   3  -2    1.30    3.00
  -8   3  -2    2.30    1.90
  -8   3  -2    0.90    2.30
   8   3   2    0.20    1.40
   8   3   2    3.20    2.80
  -8  -3  -2    3.70    2.20
  -8  -3  -2    3.70    1.70
   8  -3   2    2.10    1.50
   8  -3   2    3.10    2.00
   8  -3   2    1.90    3.00
  -8  -3  -2    5.10    1.80
  -8   3  -3   16.70    3.10
   8   3   3   13.40    2.20
  -8   3  -3   12.70    2.30
  -8   3  -3   12.30    3.20
  -8   3  -3   15.00    2.30
   8   3   3   13.50    2.10
  -8  -3  -3   15.50    4.10
   8  -3   3   13.40    2.00
  -8  -3  -3   13.30    2.70
  -8  -3  -3   10.80    2.20
  -8  -3  -3   12.20    2.10
   8  -3   3   10.20    2.00
  -8   3  -4  174.98   11.80
  -8   3  -4  204.58   10.90
  -8   3  -4  184.38   10.70
  -8   3  -4  186.38   11.20
   8   3   4  198.18   10.70
  -8  -3  -4  198.18   10.70
   8  -3   4  189.08   10.80
  -8  -3  -4  209.28   11.20
  -8  -3  -4  180.78   12.10
  -8   3  -5   92.19    7.70
   8   3   5   92.99    6.60
  -8   3  -5   94.19    6.40
  -8  -3  -5   85.19    6.10
  -8  -3  -5   91.49    8.40
  -8  -3  -5   91.59    6.90
   8  -3   5   91.99    6.20
  -8   3  -6   44.30    4.50
  -8   3  -6   49.20    6.10
   8   3   6   38.00    4.10
   8  -3   6   41.30    4.10
  -8  -3  -6   40.20    4.60
  -8  -3  -6   45.50    4.10
  -8  -3  -6   45.40    6.30
   8   3   7  205.58   12.00
  -8   3  -7  181.88   13.00
  -8   3  -7  203.48   12.00
  -8   3  -7  204.78   11.70
   8  -3   7  215.78   12.00
  -8  -3  -7  195.08   14.00
  -8  -3  -7  204.98   12.40
  -8  -3  -7  200.98   11.70
  -8   3  -8   50.49    6.80
  -8   3  -8   58.89    5.80
   8   3   8   55.69    5.80
  -8   3  -8   55.69    5.80
  -8  -3  -8   54.89    5.10
  -8  -3  -8   55.09    5.80
  -8  -3  -8   51.09    7.00
   8  -3   8   58.69    6.10
  -8   3  -9    4.90    4.10
   8   3   9    3.50    3.00
  -8   3  -9    3.10    3.00
  -8   3  -9    7.60    3.50
  -8  -3  -9   -2.90    5.70
  -8  -3  -9    3.20    3.80
  -8  -3  -9    0.20    3.00
   8  -3   9    3.30    3.10
  -8   3 -10   17.90    4.80
  -8   3 -10   15.30    4.10
  -8   3 -10    9.20    3.50
   8   3  10   17.40    3.80
  -8  -3 -10   23.60    5.10
  -8  -3 -10   14.20    6.80
   8  -3  10   15.00    3.70
  -8  -3 -10   15.50    3.80
   8   3  11   14.30    3.80
  -8   3 -11    8.20    3.70
  -8   3 -11   12.70    4.50
  -8   3 -11   13.80    3.90
   8  -3  11   10.80    3.90
  -8  -3 -11    7.00    3.60
  -8  -3 -11   -0.50    6.30
  -8  -3 -11    9.30    5.10
   8   3  12   10.20    3.70
  -8   3 -12   14.10    4.30
  -8   3 -12   -1.30    3.80
  -8   3 -12    9.70    4.10
  -8  -3 -12   -8.10    6.20
   8  -3  12   13.50    4.30
  -8  -3 -12    8.10    5.40
  -8  -3 -12   14.30    4.10
   8   4 -13   19.60    4.30
  -8   4  13   26.90    4.50
   8  -4 -13   12.30    6.00
  -8  -4  13   20.30    4.50
   8  -4 -13   23.60    5.30
   8   4 -12   15.60    3.70
  -8   4  12   11.00    3.70
   8  -4 -12   11.90    4.20
  -8  -4  12   12.20    3.80
   8  -4 -12    6.40    5.20
   8  -4 -12    5.40    5.10
   8   4 -11   10.70    3.30
   8   4 -11   16.90    3.90
  -8   4  11    9.80    3.30
   8  -4 -11    6.90    3.90
   8  -4 -11    8.10    4.60
  -8  -4  11   11.20    3.50
   8  -4 -11    8.60    5.20
   8   4 -10    2.20    3.20
   8   4 -10    5.40    2.70
  -8   4  10    0.90    2.70
   8  -4 -10    1.10    3.30
   8  -4 -10   -0.40    4.60
   8  -4 -10    2.50    4.30
  -8  -4  10    2.40    2.70
  -8   4   9  144.39    8.90
   8   4  -9  133.89    9.00
   8   4  -9  136.39    8.60
  -8  -4   9  158.28    9.30
   8  -4  -9  128.19   10.90
   8  -4  -9  129.49   10.30
   8  -4  -9  122.39    9.20
   8   4  -8  195.08   10.80
  -8   4   8  218.08   11.30
   8   4  -8  168.78   11.20
   8  -4  -8  173.78   12.20
   8  -4  -8  184.68   11.60
   8  -4  -8  196.08   13.10
  -8  -4   8  178.18   11.20
   8   4  -7  125.89    7.20
   8   4  -7  122.39    7.90
   8  -4  -7  117.69    8.10
   8  -4  -7  117.39    9.00
  -8  -4   7  111.69    6.70
  -8  -4   7  111.99    7.80
   8  -4  -7  129.59    9.60
   8  -4  -7  106.29    8.10
   8   4  -6  147.99    7.80
  -8   4   6  144.19    8.30
   8   4  -6  145.69    7.80
   8  -4  -6  141.99    8.90
  -8  -4   6  130.59    7.60
   8  -4  -6  139.89   10.60
  -8  -4   6  133.39    8.40
   8  -4  -6  134.79    8.40
   8  -4  -6  121.19    8.40
   8  -4  -6  143.59    9.20
   8   4  -5  100.59    6.60
  -8   4   5  100.59    6.20
   8   4  -5  100.29    5.60
   8   4  -5   98.69    5.60
  -8  -4   5   97.59    6.50
  -8  -4   5   92.09    6.00
   8  -4  -5   92.29    6.70
  -8  -4   5   89.89    6.00
   8  -4  -5   93.89    7.40
   8  -4  -5   87.69    6.20
   8  -4  -5   99.79    6.60
  -8   4   4   70.29    4.80
   8   4  -4   69.39    5.70
   8   4  -4   67.59    4.10
   8   4  -4   66.69    5.10
  -8   4   4   71.89    5.20
   8   4  -4   76.49    4.30
   8  -4  -4   67.09    4.90
   8  -4  -4   70.69    6.20
  -8  -4   4   71.99    5.20
  -8  -4   4   62.09    4.80
   8  -4  -4   70.89    5.50
   8  -4  -4   70.69    5.30
  -8  -4   4   68.79    5.20
   8   4  -3   84.49    4.80
   8   4  -3  103.89    6.50
  -8   4   3  101.39    5.60
   8   4  -3   80.49    4.90
  -8   4   3   96.39    6.10
   8  -4  -3   67.79    6.00
   8   4  -2 1679.73   83.39
   8   4  -2 1583.74   84.49
  -8   4   2 1638.34   83.69
  -8   4   2 1626.64   83.89
  -8   4   2 1687.23   83.99
   8   4  -2 1727.93   83.39
   8   4  -2 1739.03   83.59
  -8  -4   2 1669.93   84.49
   8  -4  -2 1706.83   83.99
  -8  -4   2 1685.93   83.89
  -8  -4   2 1581.14   83.99
   8  -4  -2 1677.43   84.09
  -8  -4   2 1659.93   83.49
   8   4  -1  504.05   25.30
   8   4  -1  476.15   26.70
   8   4  -1  514.75   25.70
  -8   4   1  585.34   26.00
   8  -4  -1  500.05   26.10
   8  -4  -1  483.65   25.80
  -8  -4   1  489.85   26.60
  -8  -4   1  493.25   25.60
  -8  -4   1  491.45   25.80
  -8  -4   1  506.35   25.30
  -8  -4   1  484.05   26.00
   8   4   0   56.79    5.60
  -8   4   0   74.69    4.70
   8   4   0   60.19    3.60
   8   4   0   53.39    4.30
  -8  -4   0   59.79    5.70
   8  -4   0   47.40    4.80
  -8  -4   0   59.89    4.40
  -8  -4   0   57.79    4.80
   8  -4   0   48.80    4.10
  -8  -4   0   58.09    3.60
  -8   4  -1  179.48    9.90
   8   4   1  189.38    9.70
   8   4   1  173.98   10.20
  -8   4  -1  178.38   10.10
  -8   4  -1  176.58   10.60
  -8  -4  -1  187.78    9.70
   8  -4   1  165.28   10.00
  -8  -4  -1  193.08   10.30
  -8  -4  -1  184.78   10.20
  -8  -4  -1  188.78   11.60
  -8  -4  -1  188.08   11.10
  -8   4  -2    0.00    1.60
   8   4   2    1.30    1.40
  -8   4  -2   -1.20    1.80
  -8   4  -2    0.60    2.40
   8   4   2   -1.20    1.80
  -8  -4  -2    2.10    1.50
   8  -4   2   -0.40    1.50
  -8  -4  -2    5.80    2.30
  -8  -4  -2    0.80    1.80
   8   4   3    7.30    1.80
  -8   4  -3    6.70    2.00
  -8   4  -3    3.10    2.20
  -8   4  -3    8.60    2.80
  -8  -4  -3   10.60    2.80
  -8  -4  -3    9.90    2.00
  -8  -4  -3    6.50    2.10
  -8   4  -4  172.28   10.90
  -8   4  -4  173.88   10.10
  -8   4  -4  181.58   10.30
   8   4   4  173.78    9.90
  -8  -4  -4  181.28   10.00
  -8  -4  -4  180.48   11.80
  -8  -4  -4  182.98   10.70
  -8   4  -5   11.70    3.40
  -8   4  -5   15.10    4.20
  -8   4  -5   14.70    2.70
   8  -4   5   14.70    2.60
  -8  -4  -5   11.00    4.40
  -8  -4  -5    9.20    3.40
  -8  -4  -5   14.40    2.70
   8   4   6   10.00    2.80
  -8   4  -6    7.80    4.10
  -8   4  -6   13.00    2.80
  -8   4  -6   12.20    3.70
  -8  -4  -6    7.00    2.60
   8  -4   6    7.30    2.60
  -8  -4  -6   13.50    3.80
  -8  -4  -6    8.60    5.00
  -8   4  -7   49.50    4.60
   8   4   7   41.40    4.70
  -8   4  -7   48.10    7.00
  -8   4  -7   56.79    6.00
  -8  -4  -7   56.59    7.40
  -8  -4  -7   56.69    5.70
   8  -4   7   49.90    5.20
  -8  -4  -7   44.60    4.50
   8   4   8   39.10    4.60
  -8   4  -8   42.40    6.00
  -8   4  -8   42.60    4.40
  -8   4  -8   33.50    5.30
  -8  -4  -8   37.70    5.40
   8  -4   8   37.50    4.50
  -8  -4  -8   39.70    4.40
  -8  -4  -8   40.00    6.50
  -8   4  -9   10.10    3.30
   8   4   9    9.40    3.40
  -8   4  -9   18.00    5.00
  -8   4  -9   15.70    4.60
  -8  -4  -9   10.20    6.50
  -8  -4  -9   15.90    5.00
  -8  -4  -9   13.70    3.60
   8  -4   9   11.60    3.50
   8   4  10   -2.90    3.00
  -8   4 -10    3.50    3.40
  -8   4 -10    5.00    4.20
  -8   4 -10   -3.50    3.90
   8  -4  10   -0.90    3.40
  -8  -4 -10   -3.50    5.90
  -8  -4 -10    2.60    4.90
  -8  -4 -10   -0.90    3.10
  -8   4 -11   72.69    8.30
  -8   4 -11   92.89    9.10
  -8   4 -11   75.89    7.70
   8   4  11   81.19    7.70
  -8  -4 -11   86.59    8.50
  -8  -4 -11   71.49   10.80
   8  -4  11   94.69    9.10
  -8  -4 -11   77.19    7.60
  -8   4 -12    5.90    4.40
  -8   4 -12   -0.40    3.50
  -8   4 -12    5.30    4.70
   8   4  12    5.90    4.20
  -8  -4 -12    1.90    6.30
  -8  -4 -12    6.00    4.20
  -8  -4 -12  -10.60    6.80
   8  -4  12    4.10    4.50
  -8   5  12    4.20    3.20
   8  -5 -12    3.20    5.70
   8  -5 -12    2.90    3.90
  -8  -5  12    2.10    3.40
   8  -5 -12   -3.40    5.40
  -8   5  11    4.90    3.00
   8   5 -11   -0.40    3.40
  -8  -5  11    0.20    3.00
   8  -5 -11   -0.10    3.60
   8  -5 -11    1.70    5.30
   8  -5 -11   -7.70    5.00
  -8   5  10   21.40    3.50
   8   5 -10   19.60    4.10
   8  -5 -10   15.50    3.90
  -8  -5  10   17.80    3.70
   8  -5 -10   14.00    5.70
   8  -5 -10   20.10    5.70
   8   5  -9   24.00    3.00
   8   5  -9   23.20    4.30
  -8   5   9   21.10    3.50
   8  -5  -9   25.40    5.60
   8  -5  -9   25.20    5.90
  -8  -5   9   25.60    4.00
   8  -5  -9   19.40    4.10
  -8   5   8   77.19    6.00
   8   5  -8   74.59    6.70
   8   5  -8   72.59    5.20
  -8  -5   8   71.19    6.30
   8  -5  -8   75.19    7.40
   8  -5  -8   73.99    6.80
   8  -5  -8   74.99    8.80
   8   5  -7  645.14   31.90
  -8   5   7  587.24   32.30
   8  -5  -7  616.64   34.20
  -8  -5   7  686.93   32.10
  -8  -5   7  641.54   32.60
   8  -5  -7  605.04   33.30
   8  -5  -7  576.14   32.70
   8   5  -6   38.30    4.70
  -8   5   6   50.19    4.30
   8   5  -6   39.10    3.30
   8   5  -6   42.90    3.30
  -8  -5   6   51.49    4.80
  -8  -5   6   52.59    4.40
   8  -5  -6   32.00    6.10
   8  -5  -6   47.20    5.50
   8  -5  -6   37.00    4.30
   8   5  -5   39.30    2.80
   8   5  -5   44.10    2.80
  -8   5   5   43.50    3.90
   8   5  -5   46.40    4.70
   8  -5  -5   38.10    4.10
  -8  -5   5   38.30    4.30
   8  -5  -5   43.30    4.30
  -8  -5   5   41.60    4.40
   8  -5  -5   48.90    5.30
   8   5  -4   78.19    6.40
  -8   5   4   75.09    5.80
  -8   5   4   77.29    5.00
  -8  -5   4   73.19    5.30
   8  -5  -4   64.29    6.70
   8  -5  -4   63.19    5.70
  -8   5   3  309.87   18.10
  -8   5   3  354.66   17.50
   8   5  -3  331.27   18.40
   8  -5  -3  339.57   18.70
  -8  -5   3  322.17   18.40
  -8  -5   3  343.77   17.80
   8  -5  -3  358.46   18.10
   8   5  -2    5.10    3.10
  -8   5   2   10.70    2.70
   8  -5  -2    0.80    2.10
  -8   5   1    4.10    2.70
  -8   5   1    3.50    1.50
  -8   5   1    5.40    2.00
   8   5  -1    2.70    2.40
   8   5  -1    3.90    1.90
  -8   5   0   44.40    4.20
  -8   5   0   36.70    4.20
  -8   5   0   37.80    3.10
   8   5   0   35.70    3.80
   8   5   0   41.10    2.70
  -8  -5   0   38.00    2.70
  -8  -5   0   40.60    3.70
  -8  -5   0   44.10    5.60
   8   5   1   49.70    4.40
  -8   5  -1   47.70    4.40
  -8   5  -1   42.00    5.00
   8   5   1   47.80    3.30
  -8   5  -1   43.60    3.60
  -8  -5  -1   44.50    6.10
  -8  -5  -1   46.80    4.40
  -8  -5  -1   46.20    3.30
  -8  -5  -1   41.40    4.10
  -8   5  -2    9.50    2.00
  -8   5  -2   10.10    2.30
  -8   5  -2    8.90    3.10
   8   5   2   11.10    1.80
  -8  -5  -2    7.10    2.20
  -8  -5  -2   10.50    1.80
  -8  -5  -2   18.10    4.40
  -8  -5  -2   14.50    2.80
   8   5   3    6.30    1.90
  -8   5  -3    8.20    2.20
  -8  -5  -3    4.80    2.20
  -8  -5  -3    4.60    1.90
  -8  -5  -3    8.80    4.40
  -8  -5  -3    4.90    2.90
  -8   5  -4   87.19    6.10
  -8   5  -4   93.29    7.30
   8   5   4   66.39    5.90
  -8   5  -4   77.49    5.70
  -8  -5  -4   85.59    8.70
  -8  -5  -4   86.09    6.80
  -8  -5  -4   92.79    5.80
  -8   5  -5   87.39    7.60
  -8   5  -5   85.99    6.50
   8  -5   5   82.09    6.10
  -8  -5  -5   92.59    8.70
  -8  -5  -5   93.29    6.40
  -8  -5  -5   90.19    7.40
  -8   5  -6   60.79    5.60
  -8   5  -6   60.29    6.70
  -8  -5  -6   66.49    8.90
  -8  -5  -6   54.69    5.80
   8  -5   6   65.29    5.40
  -8  -5  -6   66.99    5.50
  -8   5  -7    8.50    2.80
  -8   5  -7   14.00    4.00
  -8  -5  -7    6.40    2.80
  -8  -5  -7    3.70    5.60
   8  -5   7    5.40    2.80
  -8  -5  -7    5.60    4.40
  -8   5  -8    0.10    3.70
  -8   5  -8   -0.70    2.70
   8   5   8   -0.40    2.70
  -8  -5  -8    1.30    5.80
  -8  -5  -8    1.00    4.40
   8  -5   8    1.90    2.90
  -8  -5  -8    2.70    3.00
  -8   5  -9   69.19    6.60
  -8   5  -9   73.39    8.10
   8   5   9   70.89    7.00
  -8  -5  -9   75.69    8.40
  -8  -5  -9   79.99    9.90
   8  -5   9   77.19    7.10
  -8  -5  -9   75.39    7.00
   8   5  10    6.50    3.40
  -8   5 -10    4.80    4.20
  -8   5 -10    6.10    3.50
  -8  -5 -10    3.20    6.80
  -8  -5 -10    5.50    5.40
   8  -5  10    4.10    3.50
  -8  -5 -10    4.80    3.40
   8   5  11    6.60    3.80
  -8   5 -11    8.40    4.70
  -8   5 -11   11.70    3.80
  -8  -5 -11   -0.70    7.10
   8  -5  11    4.40    3.90
  -8  -5 -11   16.20    6.10
  -8  -5 -11   11.60    3.90
   8   6 -11    9.30    4.30
  -8   6  11   13.80    3.50
   8  -6 -11    7.30    4.30
   8  -6 -11    3.40    6.20
  -8  -6  11    8.10    3.60
   8  -6 -11    4.80    5.80
  -8   6  10    7.10    3.00
   8   6 -10    9.10    4.10
  -8  -6  10    8.00    3.30
   8  -6 -10   10.40    6.10
   8  -6 -10    3.50    5.40
   8  -6 -10    6.20    4.10
  -8   6   9   12.30    3.10
   8   6  -9    8.60    4.10
   8  -6  -9    9.60    5.30
   8  -6  -9    6.50    3.90
   8  -6  -9    7.60    5.80
  -8  -6   9    9.50    3.20
  -8   6   8    2.40    2.30
   8   6  -8    8.40    3.80
   8  -6  -8   -0.40    4.60
   8  -6  -8    5.30    5.40
   8  -6  -8    1.80    3.20
  -8  -6   8    3.10    2.90
   8   6  -7   -5.10    3.30
  -8   6   7    0.40    2.20
   8  -6  -7    2.30    2.90
   8  -6  -7   -2.40    5.00
  -8  -6   7    5.90    2.70
   8  -6  -7    0.70    4.40
  -8   6   6   56.99    4.70
   8   6  -6   59.39    6.70
   8  -6  -6   67.29    8.30
   8  -6  -6   65.59    6.70
  -8  -6   6   64.29    5.40
  -8  -6   6   51.79    5.50
   8  -6  -6   62.09    6.20
  -8   6   5   13.30    2.30
   8   6  -5   14.90    4.10
  -8  -6   5   16.60    2.80
   8  -6  -5   14.00    4.20
  -8  -6   5    9.40    3.20
   8  -6  -5   12.70    3.20
   8  -6  -5   13.50    5.60
  -8   6   4   48.40    5.90
  -8   6   4   65.59    4.20
   8   6  -4   48.90    6.20
   8  -6  -4   62.79    6.80
   8  -6  -4   61.69    5.40
  -8  -6   4   57.09    4.90
  -8  -6   4   51.79    5.90
  -8   6   3   53.89    5.80
  -8   6   3   55.29    3.80
   8   6  -3   58.69    6.40
  -8  -6   3   51.69    4.20
   8  -6  -3   51.39    5.20
  -8  -6   3   41.50    5.60
   8  -6  -3   51.39    5.50
  -8   6   2   74.69    4.90
   8   6  -2   89.79    7.30
  -8   6   2   72.39    6.70
  -8  -6   2   91.09    5.60
   8  -6  -2   64.59    7.20
   8  -6  -2   77.99    6.00
  -8  -6   2  103.49    5.20
  -8   6   1    4.20    1.30
  -8   6   1    6.30    3.10
  -8   6   1    5.10    2.10
   8   6  -1    4.10    1.80
  -8   6   1    2.90    1.20
  -8  -6   1    5.20    1.80
   8  -6  -1    4.70    2.40
  -8  -6   1    1.70    1.80
  -8  -6   1    1.70    3.00
  -8   6   0   35.40    3.40
  -8   6   0   32.40    2.90
  -8   6   0   30.90    2.80
   8   6   0   43.10    4.00
  -8   6   0   39.00    4.70
  -8   6  -1   10.20    2.40
  -8   6  -1    7.10    1.60
   8   6   1    6.90    1.40
   8   6   1    0.90    2.00
  -8   6  -1    5.90    3.40
  -8  -6  -1   11.60    2.20
  -8  -6  -1   20.70    2.90
  -8  -6  -1   12.80    1.50
   8   6   2    1.80    1.50
  -8  -6  -2    4.90    2.90
  -8  -6  -2    3.70    1.50
  -8  -6  -2    3.50    4.30
  -8  -6  -2    2.10    2.00
  -8   6  -3   41.00    5.20
   8   6   3   50.49    3.90
  -8   6  -3   33.30    3.70
  -8   6  -3   46.10    4.10
  -8  -6  -3   48.90    6.80
  -8  -6  -3   45.80    4.70
  -8  -6  -3   46.30    4.00
  -8  -6  -3   39.30    4.20
  -8   6  -4    4.40    2.30
  -8   6  -4    1.50    1.80
  -8   6  -4    1.00    3.60
  -8  -6  -4    2.40    4.90
  -8  -6  -4   -0.30    1.90
  -8  -6  -4    0.10    3.30
  -8   6  -5   66.19    7.20
  -8   6  -5   67.29    5.60
  -8  -6  -5   62.99    8.10
  -8  -6  -5   62.19    6.70
  -8  -6  -5   61.99    5.20
  -8   6  -6   23.60    3.40
  -8   6  -6   23.10    4.70
  -8  -6  -6   30.60    4.90
  -8  -6  -6   39.90    7.10
   8  -6   6   18.70    3.20
  -8  -6  -6   22.50    3.30
  -8   6  -7   12.00    4.10
  -8   6  -7   17.00    3.30
  -8  -6  -7   22.40    6.50
   8  -6   7    9.70    3.00
  -8  -6  -7   17.00    4.80
  -8  -6  -7   13.90    3.30
  -8   6  -8   19.20    3.80
  -8   6  -8   24.10    5.10
  -8  -6  -8   28.70    5.60
   8  -6   8   24.00    4.10
  -8  -6  -8   27.60    3.90
  -8  -6  -8   35.20    7.30
  -8   6  -9   48.60    5.10
  -8   6  -9   45.70    6.30
   8  -6   9   35.70    4.80
  -8  -6  -9   42.40    6.50
  -8  -6  -9   43.40    4.80
  -8  -6  -9   42.90    8.30
  -8   6 -10   12.30    3.70
   8   6  10    0.40    3.20
  -8   6 -10   -2.20    4.20
   8  -6  10    3.00    3.70
  -8  -6 -10   -1.10    5.30
  -8  -6 -10    1.60    3.30
  -8  -6 -10    2.70    7.00
   8   7 -10    4.20    4.60
   8  -7 -10   -2.00    5.90
   8  -7 -10   -3.40    3.60
   8  -7 -10   -3.60    5.90
  -8  -7  10    8.10    3.50
   8   7  -9   16.00    4.90
   8  -7  -9   11.30    5.90
   8  -7  -9   13.80    6.60
   8  -7  -9    4.60    3.80
  -8  -7   9    7.80    3.40
   8   7  -8   18.40    5.20
   8  -7  -8   18.20    5.80
   8  -7  -8   20.90    6.60
  -8  -7   8   25.50    3.70
   8  -7  -8   16.20    4.10
   8   7  -7    0.30    4.20
   8  -7  -7    1.90    4.50
  -8  -7   7    4.30    2.80
   8  -7  -7    2.30    5.50
   8  -7  -7   -2.20    3.10
   8   7  -6   -0.20    4.10
  -8  -7   6    6.40    2.50
   8  -7  -6   -0.90    2.80
   8  -7  -6    3.80    4.60
   8  -7  -6    5.20    5.80
  -8  -7   6   -2.50    2.30
   8   7  -5   25.10    5.00
   8  -7  -5   31.80    5.80
  -8  -7   5   27.60    4.50
  -8  -7   5   32.30    3.40
   8  -7  -5   31.80    7.30
   8  -7  -5   33.60    4.00
   8   7  -4   23.60    4.90
  -8   7   4   27.10    4.20
   8  -7  -4   21.40    4.90
   8  -7  -4   21.90    3.50
  -8   7   3    6.80    3.70
   8   7  -3    5.60    4.30
  -8  -7   3   13.30    2.20
  -8  -7   3   16.40    3.90
   8  -7  -3    4.40    2.80
   8  -7  -3    2.50    4.10
  -8   7   2    0.10    3.30
  -8  -7   2    4.80    1.70
   8  -7  -2   -0.80    2.60
  -8  -7   2    3.10    3.50
   8  -7  -2    4.70    3.90
  -8  -7   2    3.50    1.70
  -8   7   1   18.60    4.00
  -8  -7   1   11.20    2.30
  -8  -7   1    8.90    4.00
   8  -7  -1    6.90    4.00
  -8  -7   1    7.70    1.90
   8  -7  -1    7.00    2.70
  -8   7   0   20.40    3.10
  -8   7   0   22.10    4.50
  -8  -7   0   28.10    5.30
  -8  -7   0   25.00    3.20
  -8  -7   0   24.00    2.60
  -8   7  -1   45.40    4.30
  -8   7  -1   35.00    5.00
  -8  -7  -1   27.80    3.80
  -8  -7  -1   32.40    3.00
  -8  -7  -1   31.20    5.50
  -8   7  -2   43.60    4.20
  -8   7  -2   53.69    6.10
  -8  -7  -2   42.20    6.30
  -8  -7  -2   55.59    6.00
  -8   7  -3   16.00    4.50
  -8   7  -3   13.00    2.90
  -8  -7  -3   15.00    2.30
  -8  -7  -3   17.20    3.90
  -8  -7  -3   18.80    5.30
  -8   7  -4   75.59    7.60
  -8   7  -4   67.09    5.50
  -8  -7  -4   56.49    5.90
  -8  -7  -4   57.69    4.80
  -8  -7  -4   49.70    7.40
  -8   7  -5   13.50    3.00
  -8   7  -5   18.60    4.80
  -8  -7  -5   14.10    2.80
  -8  -7  -5   18.10    4.50
  -8  -7  -5   14.40    6.00
  -8   7  -6   25.40    3.60
  -8   7  -6   19.00    5.00
  -8  -7  -6   39.40    7.30
  -8  -7  -6   30.20    5.20
  -8  -7  -6   25.20    3.50
  -8   7  -7   10.70    4.70
  -8   7  -7    4.50    3.10
  -8  -7  -7    0.10    2.90
  -8  -7  -7   11.90    6.70
  -8  -7  -7   12.60    5.10
  -8   7  -8   -2.30    3.10
  -8   7  -8    4.70    4.30
   8  -7   8   -0.50    1.40
  -8  -7  -8   -2.40    3.20
  -8  -7  -8   -0.50    5.70
  -8  -7  -8   -3.90    5.00
  -8   7  -9   13.40    3.40
  -8   7  -9   19.70    4.90
  -8  -7  -9   13.20    6.00
  -8  -7  -9   16.70    7.60
  -8  -7  -9   16.40    3.90
   8   8  -8  113.19   11.00
   8  -8  -8  114.09    9.10
   8  -8  -8  113.49   11.30
   8  -8  -8  117.49   12.80
   8   8  -7    4.80    5.40
   8  -8  -7   -0.10    5.50
   8  -8  -7    6.70    6.50
   8  -8  -7    8.30    3.50
   8   8  -6   11.30    5.50
   8  -8  -6    7.20    5.20
   8  -8  -6    3.00    3.30
   8  -8  -6   16.30    6.70
   8   8  -5   41.50    6.70
  -8  -8   5   33.10    5.30
   8  -8  -5   49.40    6.50
   8  -8  -5   37.60    4.40
   8  -8  -5   43.90    7.80
   8   8  -4   31.30    5.90
  -8  -8   4   33.60    5.20
   8  -8  -4   32.50    4.00
   8  -8  -4   36.20    5.80
   8  -8  -4   33.00    7.90
   8   8  -3   -0.60    4.30
  -8   8   3    4.70    3.90
   8  -8  -3    1.50    4.20
   8  -8  -3    2.20    2.60
  -8  -8   3    3.50    3.80
  -8   8   2   48.20    5.80
   8  -8  -2   44.00    6.00
  -8  -8   2   43.90    6.40
   8  -8  -2   47.40    4.60
  -8   8   1   10.70    4.20
  -8  -8   1    0.40    4.10
   8  -8  -1    4.80    2.70
   8  -8  -1    4.00    4.20
  -8   8   0    1.50    4.00
  -8  -8   0    8.00    2.80
   8  -8   0    8.10    4.20
  -8  -8   0   10.10    4.90
   8  -8   0    4.20    2.60
  -8   8  -1    0.50    3.90
  -8   8  -1   -2.20    2.30
   8  -8   1    1.20    2.40
  -8  -8  -1    0.10    4.70
  -8  -8  -1    3.10    3.10
  -8   8  -2   12.30    4.50
  -8   8  -2    8.40    2.60
  -8  -8  -2   10.90    3.60
  -8  -8  -2   12.00    5.40
  -8   8  -3   85.79    8.50
  -8   8  -3   91.79    6.70
  -8   8  -4   50.89    4.70
  -8   8  -4   44.90    6.40
  -8   8  -5   43.80    6.50
  -8  -8  -5   48.20    5.80
  -8  -8  -5   44.70    7.80
  -8   8  -6   25.80    5.40
  -8  -8  -6   46.70    8.00
  -8  -8  -6   40.40    5.90
  -8   8  -7   11.60    4.40
  -8  -8  -7    4.50    5.30
  -8  -8  -7   -0.60    6.60
   8   9  -6   22.50    6.90
   8  -9  -6   26.20    4.30
   8  -9  -6   28.70    6.80
   8  -9  -6   32.20    8.30
   8   9  -5   11.30    5.80
   8  -9  -5   13.20    7.30
   8  -9  -5    8.10    5.70
   8  -9  -5   11.20    3.40
   8   9  -4   -2.00    5.20
   8  -9  -4   -1.40    6.40
   8  -9  -4   -2.70    5.00
   8  -9  -4    2.10    2.90
  -8  -9   4    2.10    4.10
  -8   9   3    1.00    4.60
   8  -9  -3   -1.90    4.90
   8  -9  -3    6.10    2.90
  -8  -9   3    4.00    4.40
   8  -9  -3    8.50    6.70
  -8   9   2   86.39    9.30
   8  -9  -2  105.19    9.90
  -8  -9   2  109.39    9.40
  -8   9   1   24.20    5.40
  -8  -9   1   22.90    5.70
   8  -9  -1   32.00    5.80
  -8   9   0   33.90    5.70
   8  -9   0   24.60    5.50
  -8  -9   0   35.50    6.40
  -8   9  -1    9.80    4.80
  -8  -9  -1   13.30    5.60
   8  -9   1    5.90    4.60
  -8   9  -2    3.70    4.80
  -8  -9  -2    3.30    5.50
  -8  -9  -2   -2.40    3.20
   8  -9   2    4.90    4.60
  -8   9  -3    5.60    4.90
  -8  -9  -3    0.90    5.60
  -8  -9  -3    2.20    4.10
  -8   9  -4   11.50    5.60
  -8  -9  -4   15.90    6.90
  -8  -9  -4    9.40    4.70
  -8   9  -5    5.00    4.90
  -8  -9  -5    1.60    4.90
  -8  -9  -5   -1.70    6.30
  -8  10   1   63.49    7.90
  -8 -10   1   57.19    8.50
   8 -10  -1   64.19    7.60
  -8  10   0   -1.70    5.00
  -8 -10   0    4.30    5.30
   8 -10   0    4.70    5.00
  -9   0  14   -1.30    2.90
   9   0 -14    1.40    4.00
  -9   0  13   -0.40    2.90
   9   0 -13   -4.80    3.70
   9   0 -13   -5.90    3.30
  -9   0  12   32.50    4.70
   9   0 -12   31.50    5.00
   9   0 -12   30.10    4.70
  -9   0  11   -1.20    2.60
   9   0 -11   -0.30    3.10
   9   0 -11    4.20    3.50
   9   0 -10   23.60    3.90
  -9   0  10   27.20    3.80
   9   0 -10   22.10    3.80
   9   0  -9    4.00    1.40
   9   0  -9   -1.20    2.70
   9   0  -9   -1.00    2.70
   9   0  -9   -1.50    1.60
  -9   0   9    0.10    2.30
   9   0  -8  346.27   18.30
   9   0  -8  387.26   18.40
  -9   0   8  349.87   19.10
   9   0  -8  336.37   19.20
   9   0  -8  343.17   19.00
   9   0  -7   -2.30    2.20
   9   0  -7    0.50    2.20
   9   0  -7    0.90    1.40
  -9   0   7   -0.90    2.00
   9   0  -7    1.00    1.60
   9   0  -6  267.77   14.70
   9   0  -6  294.87   15.20
  -9   0   6  298.67   15.30
   9   0  -6  290.67   14.90
   9   0  -6  254.17   15.20
   9   0  -5   -0.50    2.00
   9   0  -5    0.50    1.60
   9   0  -5   -2.20    1.80
  -9   0   5   -1.40    1.90
   9   0  -5   -0.40    2.00
   9   0  -5   -0.40    2.00
   9   0  -4  925.21   46.50
   9   0  -4  862.11   46.60
   9   0  -4  905.51   46.50
   9   0  -4  886.31   46.50
  -9   0   4 1003.90   46.60
   9   0  -3   -1.30    1.60
  -9   0   3   -3.00    1.80
  -9   0   3    0.50    1.50
  -9   0   3    0.50    1.90
   9   0  -3    1.80    2.00
   9   0  -2  657.33   36.70
   9   0  -2  764.42   37.30
  -9   0   2  700.13   37.10
  -9   0   2  774.62   36.70
  -9   0   2  725.93   36.90
  -9   0   1   -1.80    2.10
  -9   0   1   -0.70    1.50
   9   0  -1   -1.20    1.60
   9   0  -1   -0.40    1.40
   9   0  -1    0.50    2.40
   9   0   0  271.47   15.10
  -9   0   0  297.67   15.90
   9   0   0  279.37   16.00
   9   0   0  286.27   15.00
  -9   0   0  301.27   15.10
  -9   0  -1    0.80    1.80
   9   0   1    1.70    2.90
  -9   0  -1   -1.50    2.00
   9   0   1   -1.30    1.40
   9   0   1   -0.20    1.80
  -9   0  -1    0.70    2.80
   9   0   2   39.10    3.40
   9   0   2   31.70    3.70
  -9   0  -2   36.40    5.10
   9   0   2   43.10    5.10
  -9   0  -2   35.50    3.60
  -9   0  -2   32.00    3.40
  -9   0  -2   40.50    3.80
  -9   0  -3   -1.30    2.90
  -9   0  -3   -0.80    1.70
  -9   0  -3   -0.30    2.20
   9   0   3    1.30    1.90
   9   0   3   -0.80    3.10
  -9   0  -3   -1.20    1.90
   9   0   3    0.10    1.60
  -9   0  -4   44.40    5.50
  -9   0  -4   36.90    3.50
  -9   0  -4   41.70    4.10
   9   0   4   41.20    4.30
  -9   0  -5    0.00    2.50
  -9   0  -5    0.90    3.40
   9   0   5    0.40    2.10
  -9   0  -5   -0.20    2.10
  -9   0  -6    9.10    2.60
  -9   0  -6   15.00    3.20
  -9   0  -6   14.70    4.30
   9   0   6   10.20    2.60
   9   0   7   -0.90    2.30
  -9   0  -7   -0.60    2.80
  -9   0  -7   -2.30    2.50
  -9   0  -7   -1.50    3.50
  -9   0  -8    3.90    3.30
  -9   0  -8    4.40    4.40
   9   0   8    4.60    2.80
  -9   0  -8    2.10    2.80
  -9   0  -9    0.30    3.10
  -9   0  -9   -1.60    4.20
   9   0   9   -2.60    2.70
  -9   0  -9   -0.10    3.50
  -9   0 -10    4.30    4.70
  -9   0 -10   -0.70    3.70
   9   0  10    2.40    3.10
  -9   0 -10    0.70    3.40
   9   0  11    0.90    3.20
  -9   0 -11    1.00    3.90
  -9   0 -11   -0.90    3.40
  -9   0 -11    0.50    4.50
  -9   0 -12   -0.60    4.20
  -9   0 -12    0.30    3.80
  -9   0 -12    2.00    4.10
   9   0  12    1.20    3.40
  -9   0 -13    7.30    4.60
  -9   0 -13   11.80    5.20
  -9   0 -13   -1.90    3.70
   9   0  13   -1.10    3.50
  -9   1  14    0.00    3.00
   9   1 -14    3.50    4.10
   9  -1 -14    1.20    4.10
   9  -1 -14    1.50    4.20
  -9  -1  14   -3.00    3.20
  -9   1  13   -2.30    3.00
   9   1 -13    1.60    3.80
   9  -1 -13   -0.60    4.60
   9  -1 -13    0.60    4.00
  -9  -1  13    1.00    3.00
   9   1 -12   30.40    4.80
  -9   1  12   36.00    4.70
   9   1 -12   34.30    4.00
   9  -1 -12   31.40    4.90
   9  -1 -12   27.20    4.50
  -9  -1  12   38.50    4.80
  -9   1  11   -2.30    2.60
   9   1 -11   -1.70    3.20
   9   1 -11    0.80    2.80
   9   1 -11    0.00    2.40
   9  -1 -11   -3.10    3.30
   9  -1 -11   -4.20    3.60
  -9  -1  11   -2.70    2.70
   9   1 -10    1.00    2.30
   9   1 -10   -0.20    2.70
   9   1 -10    0.70    3.00
  -9   1  10   -0.20    2.60
   9  -1 -10    3.30    3.50
   9  -1 -10   -2.20    2.40
  -9  -1  10    0.20    2.50
   9  -1 -10   -2.90    3.00
  -9   1   9   -1.00    2.30
   9   1  -9   -2.90    2.70
   9   1  -9   -2.20    2.40
   9   1  -9   -0.80    2.00
   9  -1  -9   -0.90    3.00
   9  -1  -9   -3.00    2.30
  -9  -1   9   -0.90    2.50
   9  -1  -9   -4.50    2.70
   9   1  -8  149.19    7.90
  -9   1   8  136.49    8.70
   9   1  -8  136.19    8.30
   9   1  -8  132.59    8.70
   9  -1  -8  130.49    8.90
   9  -1  -8  131.99    9.00
   9  -1  -8  139.59    8.60
  -9  -1   8  139.09    8.80
   9   1  -7   69.79    5.20
  -9   1   7   67.59    5.40
   9   1  -7   69.49    4.50
   9   1  -7   67.19    5.40
   9  -1  -7   63.49    5.70
   9  -1  -7   68.99    5.70
  -9  -1   7   71.39    5.50
   9  -1  -7   66.69    5.50
   9   1  -6    8.00    2.10
   9   1  -6    5.10    2.20
   9   1  -6    7.70    2.40
   9   1  -6    7.40    1.60
  -9   1   6    8.30    2.30
   9  -1  -6    7.10    2.40
   9  -1  -6    7.50    2.60
   9  -1  -6    9.30    1.50
  -9  -1   6    8.50    2.30
   9  -1  -6    7.30    2.30
   9   1  -5    3.00    1.90
   9   1  -5    2.90    1.20
  -9   1   5    1.20    1.80
   9   1  -5    2.40    1.90
   9   1  -5    0.50    1.70
   9  -1  -5    3.20    2.40
  -9  -1   5    3.40    2.00
   9  -1  -5    0.40    2.10
   9  -1  -5    3.30    2.10
   9  -1  -5    1.00    2.00
   9   1  -4   48.90    4.00
  -9   1   4   52.19    4.20
   9   1  -4   44.80    4.00
   9   1  -4   48.30    3.60
   9   1  -4   49.30    4.30
   9  -1  -4   50.19    4.40
  -9  -1   4   49.50    4.20
  -9  -1   4   45.30    3.60
   9  -1  -4   44.60    4.40
   9  -1  -4   42.00    4.20
   9  -1  -4   51.09    4.30
  -9   1   3  355.56   18.20
   9   1  -3  332.67   18.30
   9   1  -3  343.27   18.20
   9   1  -3  352.36   18.20
  -9   1   3  366.46   18.40
  -9  -1   3  340.87   18.30
   9  -1  -3  318.87   18.30
  -9  -1   3  354.46   18.10
   9  -1  -3  350.26   18.40
  -9  -1   3  379.56   18.50
   9  -1  -3  362.96   18.80
   9   1  -2  869.91   46.20
   9   1  -2  911.61   46.70
  -9   1   2  987.10   46.30
  -9   1   2  939.51   46.00
  -9   1   2  949.60   46.40
   9   1  -2  835.42   46.10
  -9   1   2  966.20   46.90
  -9  -1   2  953.50   46.40
  -9  -1   2  927.41   46.00
  -9  -1   2  867.01   46.60
   9  -1  -2  866.71   46.30
   9  -1  -2  889.71   46.80
  -9  -1   2  933.51   46.20
   9   1  -1   41.80    3.20
  -9   1   1   40.70    3.30
  -9   1   1   43.10    4.60
   9   1  -1   44.30    3.60
  -9   1   1   48.10    3.70
   9   1  -1   43.20    4.40
   9  -1  -1   37.90    3.60
   9  -1  -1   42.10    4.50
  -9  -1   1   42.50    4.50
  -9  -1   1   44.40    3.50
   9   1   0   25.80    2.60
   9   1   0   20.50    2.20
  -9   1   0   24.50    2.50
  -9   1   0   24.20    3.60
   9   1   0   30.10    4.20
   9  -1   0   26.00    2.50
  -9  -1   0   26.90    2.40
   9  -1   0   22.60    3.40
  -9  -1   0   22.00    2.60
  -9  -1   0   22.60    3.50
   9  -1   0   26.70    2.90
  -9   1  -1  172.18   11.30
   9   1   1  206.78   11.60
   9   1   1  195.08   10.50
   9   1   1  191.58   10.30
  -9   1  -1  206.78   10.50
   9  -1   1  170.68   10.20
  -9  -1  -1  196.38   10.30
  -9  -1  -1  196.98   11.70
   9  -1   1  200.08   11.90
  -9  -1  -1  183.48   10.50
   9  -1   1  186.08   10.60
  -9   1  -2  353.66   17.30
  -9   1  -2  329.37   17.20
   9   1   2  346.67   18.30
   9   1   2  303.47   17.20
   9   1   2  332.27   17.20
  -9   1  -2  287.97   18.00
  -9  -1  -2  315.07   18.30
  -9  -1  -2  353.56   17.20
  -9  -1  -2  322.77   17.40
   9  -1   2  333.97   17.20
   9  -1   2  321.97   17.40
   9  -1   2  314.47   18.30
  -9  -1  -2  349.67   17.30
  -9   1  -3  401.56   22.90
  -9   1  -3  446.16   24.00
   9   1   3  386.56   23.70
   9   1   3  449.46   22.80
  -9   1  -3  460.65   22.90
  -9   1  -3  438.76   22.90
   9   1   3  439.96   23.00
   9  -1   3  466.55   24.30
  -9  -1  -3  433.86   23.00
   9  -1   3  406.96   22.90
   9  -1   3  438.26   22.80
  -9  -1  -3  463.15   22.90
  -9  -1  -3  461.85   22.80
  -9  -1  -3  473.75   24.20
  -9   1  -4   38.90    4.40
  -9   1  -4   39.90    5.00
  -9   1  -4   39.10    3.90
  -9  -1  -4   32.50    3.60
  -9  -1  -4   36.60    5.40
  -9  -1  -4   37.80    3.30
   9  -1   4   31.70    3.40
  -9   1  -5    0.10    2.50
   9   1   5    0.80    2.20
  -9   1  -5    0.80    3.00
  -9   1  -5   -0.40    2.20
   9  -1   5    0.30    2.10
  -9  -1  -5   -1.90    2.10
  -9  -1  -5   -1.90    3.60
  -9  -1  -5    2.40    2.30
  -9   1  -6  275.37   15.20
  -9   1  -6  275.67   15.00
  -9   1  -6  274.97   16.40
   9   1   6  283.47   15.20
  -9  -1  -6  273.77   15.00
   9  -1   6  270.97   15.10
  -9  -1  -6  265.27   15.20
  -9  -1  -6  263.07   16.60
  -9   1  -7  213.78   13.60
  -9   1  -7  207.38   12.00
   9   1   7  211.68   12.30
  -9   1  -7  225.78   12.50
  -9  -1  -7  185.48   12.10
  -9  -1  -7  202.78   12.00
   9  -1   7  215.08   12.30
  -9  -1  -7  204.38   13.90
  -9   1  -8  154.08    9.40
  -9   1  -8  138.69   10.70
   9   1   8  151.18    9.60
  -9   1  -8  141.39    9.70
  -9  -1  -8  138.29   11.40
   9  -1   8  151.08    9.60
  -9  -1  -8  142.79    9.80
  -9  -1  -8  138.19    9.30
  -9   1  -9  100.99    7.60
   9   1   9   90.89    7.70
  -9   1  -9   98.89    8.00
  -9   1  -9  101.19    8.90
  -9  -1  -9   82.49    9.40
  -9  -1  -9  106.49    7.70
  -9  -1  -9   95.09    8.10
   9  -1   9   93.79    7.80
  -9   1 -10   15.40    3.90
  -9   1 -10   15.90    4.80
   9   1  10   13.00    3.70
  -9   1 -10   13.90    4.40
  -9  -1 -10   15.20    3.70
  -9  -1 -10   13.00    5.50
   9  -1  10   18.70    4.00
  -9  -1 -10   14.80    4.50
   9   1  11   14.30    3.90
  -9   1 -11   20.90    4.20
  -9   1 -11   24.80    5.00
  -9   1 -11   23.20    4.90
  -9  -1 -11   19.80    4.00
  -9  -1 -11   13.50    5.50
  -9  -1 -11   14.50    4.80
   9  -1  11   18.00    4.20
  -9   1 -12   14.80    4.80
   9   1  12   12.50    3.90
  -9   1 -12   21.10    4.70
  -9   1 -12   17.00    4.20
   9  -1  12   15.60    4.30
  -9  -1 -12   10.70    4.10
  -9  -1 -12    2.90    5.40
  -9  -1 -12   14.70    5.00
  -9   1 -13    7.40    4.20
   9   1  13    6.40    4.20
  -9   1 -13   16.20    4.80
  -9   1 -13    5.90    4.90
  -9  -1 -13    7.10    4.20
   9  -1  13    7.90    4.00
  -9  -1 -13    4.20    5.40
  -9  -1 -13   12.70    5.10
   9   2 -14    1.80    4.20
  -9   2  14   -1.40    3.00
   9  -2 -14    1.20    4.80
   9  -2 -14    0.40    4.50
  -9  -2  14    4.70    3.50
  -9   2  13   18.80    4.10
   9   2 -13   18.00    4.50
  -9  -2  13   22.20    4.20
   9  -2 -13   13.00    4.50
   9  -2 -13   23.40    5.40
  -9   2  12    0.00    2.90
   9   2 -12    1.30    3.50
   9  -2 -12   -3.20    4.30
   9  -2 -12    5.70    3.70
  -9  -2  12   -1.60    2.70
   9   2 -11    1.20    3.20
  -9   2  11    3.90    2.90
   9   2 -11   -1.60    2.30
   9   2 -11    3.00    2.60
   9  -2 -11   -2.40    3.10
  -9  -2  11    1.20    2.90
   9  -2 -11   -1.00    4.00
   9  -2 -11    2.10    3.50
  -9   2  10    4.80    2.90
   9   2 -10    2.20    2.10
   9   2 -10    5.70    2.60
   9   2 -10   -1.20    3.00
   9  -2 -10   -1.70    3.20
  -9  -2  10    3.70    2.70
   9  -2 -10    2.60    3.30
   9  -2 -10    1.60    3.80
  -9   2   9    3.90    2.60
   9   2  -9    3.70    2.20
   9   2  -9    3.00    2.80
   9   2  -9    6.60    2.40
   9  -2  -9    3.60    3.60
   9  -2  -9    1.90    3.10
  -9  -2   9    5.60    2.70
   9  -2  -9    2.50    3.00
   9   2  -8  140.49    8.10
   9   2  -8  147.59    8.70
  -9   2   8  148.89    8.80
   9   2  -8  140.29    8.00
   9  -2  -8  127.99    9.00
   9  -2  -8  124.09    9.10
   9  -2  -8  126.69    7.90
  -9  -2   8  147.29    9.00
   9  -2  -8  133.89    9.30
   9   2  -7  209.98   11.10
  -9   2   7  199.58   11.70
   9   2  -7  219.48   11.60
   9   2  -7  207.58   11.20
  -9  -2   7  212.28   11.90
   9  -2  -7  202.18   11.20
   9  -2  -7  198.58   11.90
   9  -2  -7  204.38   12.30
  -9   2   6   11.90    2.40
   9   2  -6   11.40    2.30
   9   2  -6    8.00    2.10
   9   2  -6   10.30    1.80
   9   2  -6   10.10    2.00
  -9  -2   6   13.40    2.40
   9  -2  -6    6.60    2.50
   9  -2  -6    9.80    1.90
   9  -2  -6   11.30    3.00
   9   2  -5    9.40    1.70
   9   2  -5   12.00    2.00
   9   2  -5   11.90    2.20
  -9   2   5    9.40    2.20
   9   2  -5   12.90    2.10
   9  -2  -5   13.40    2.10
   9  -2  -5    9.80    2.50
  -9  -2   5   11.10    2.30
   9  -2  -5   14.00    3.10
  -9   2   4   65.89    4.70
   9   2  -4   61.49    4.20
   9   2  -4   62.59    4.40
   9   2  -4   57.69    4.30
   9   2  -4   63.19    4.30
   9   2  -4   56.09    4.80
   9  -2  -4   60.39    4.90
  -9  -2   4   57.69    4.60
   9  -2  -4   63.99    4.20
  -9  -2   4   60.09    4.30
  -9  -2   4   64.89    3.90
   9  -2  -4   58.19    4.80
   9  -2  -4   61.09    5.40
   9   2  -3   30.50    3.00
   9   2  -3   29.00    3.40
  -9   2   3   31.80    2.90
   9   2  -3   30.70    3.20
  -9   2   3   35.30    3.00
   9   2  -3   30.40    2.80
  -9   2   3   33.20    3.00
   9  -2  -3   31.60    3.00
   9  -2  -3   34.80    3.20
   9  -2  -3   25.70    3.70
  -9  -2   3   33.20    3.90
  -9  -2   3   33.90    3.10
   9  -2  -3   37.20    3.40
  -9  -2   3   30.00    2.70
   9   2  -2    9.00    1.70
   9   2  -2    8.50    2.40
   9   2  -2    8.40    1.60
  -9   2   2   11.60    1.80
  -9   2   2   10.20    2.00
  -9   2   2    8.10    1.90
  -9  -2   2   12.10    2.20
  -9  -2   2   13.90    1.80
  -9  -2   2    9.30    1.60
   9  -2  -2    8.20    3.00
   9  -2  -2    9.40    2.10
  -9  -2   2   13.30    2.80
   9   2  -1   61.29    5.40
  -9   2   1   71.29    5.00
   9   2  -1   70.19    4.70
  -9   2   1   70.79    4.70
   9   2  -1   71.79    4.40
   9  -2  -1   66.49    4.90
   9  -2  -1   71.29    6.10
  -9  -2   1   75.39    4.60
  -9  -2   1   71.09    4.70
  -9  -2   1   90.59    6.30
  -9  -2   1   65.69    4.80
   9   2   0    0.90    1.70
  -9   2   0    1.90    1.90
  -9   2   0    2.50    1.90
   9   2   0    2.00    2.50
   9   2   0    1.40    1.30
  -9   2   0   -1.90    2.60
   9  -2   0    1.20    1.50
   9  -2   0   -0.10    2.80
  -9  -2   0    0.60    1.70
  -9  -2   0    0.70    1.50
   9   2   1    6.60    2.20
  -9   2  -1    3.60    2.80
   9   2   1    3.60    2.70
  -9   2  -1    4.40    1.90
  -9   2  -1    5.70    2.00
  -9   2  -1    6.80    2.30
   9   2   1    5.30    1.50
   9  -2   1    3.80    1.60
   9  -2   1    1.40    2.10
   9  -2   1    3.00    2.50
  -9  -2  -1    4.10    2.20
  -9  -2  -1    3.50    1.70
  -9  -2  -1    8.70    3.60
  -9   2  -2  115.59    6.80
   9   2   2  114.39    6.50
  -9   2  -2  101.99    8.00
   9   2   2  100.79    7.70
  -9   2  -2  106.29    6.60
   9   2   2  110.99    6.80
  -9  -2  -2  137.19    8.90
   9  -2   2  103.19    6.60
  -9  -2  -2  110.49    7.10
  -9  -2  -2  107.39    6.70
   9  -2   2  104.19    6.70
  -9  -2  -2  112.49    6.60
   9  -2   2  107.49    8.20
   9   2   3  295.17   14.30
  -9   2  -3  271.87   15.70
   9   2   3  278.27   14.60
  -9   2  -3  266.97   14.40
  -9  -2  -3  270.17   14.40
  -9  -2  -3  282.67   14.50
  -9  -2  -3  254.47   14.60
  -9  -2  -3  232.18   15.50
   9  -2   3  266.97   14.50
  -9   2  -4   44.50    5.40
  -9   2  -4   42.70    4.30
   9  -2   4   43.50    4.20
  -9  -2  -4   50.39    6.00
  -9  -2  -4   42.60    4.30
  -9  -2  -4   42.70    4.80
   9   2   5   16.60    2.90
  -9   2  -5   15.50    2.70
  -9   2  -5   16.40    3.00
  -9   2  -5   16.60    3.80
   9  -2   5   12.90    2.60
  -9  -2  -5   17.20    4.70
  -9  -2  -5   15.40    3.20
  -9  -2  -5   17.40    2.80
  -9   2  -6   48.40    5.90
  -9   2  -6   52.29    4.90
  -9   2  -6   54.09    5.50
   9   2   6   51.59    5.10
  -9  -2  -6   45.70    6.70
   9  -2   6   48.90    4.90
  -9  -2  -6   51.09    5.60
  -9  -2  -6   53.99    5.00
  -9   2  -7  341.67   17.70
  -9   2  -7  270.37   18.40
   9   2   7  317.57   17.60
  -9   2  -7  349.67   17.40
  -9  -2  -7  308.77   17.80
   9  -2   7  325.27   17.60
  -9  -2  -7  305.57   19.30
  -9  -2  -7  322.87   17.30
   9   2   8    1.10    2.80
  -9   2  -8   -3.20    3.30
  -9   2  -8   -0.80    3.60
  -9   2  -8   -2.90    2.90
  -9  -2  -8    1.70    3.00
  -9  -2  -8   -2.00    4.90
   9  -2   8   -0.90    2.60
  -9  -2  -8    6.10    3.70
   9   2   9   89.29    7.60
  -9   2  -9   89.79    7.40
  -9   2  -9   95.49    9.20
  -9   2  -9  100.69    8.10
  -9  -2  -9   89.79   10.40
   9  -2   9   90.59    7.70
  -9  -2  -9   83.79    7.30
  -9  -2  -9   99.69    8.50
   9   2  10   13.50    3.60
  -9   2 -10   17.40    4.80
  -9   2 -10   17.80    4.30
  -9   2 -10   13.40    3.70
   9  -2  10   21.30    3.90
  -9  -2 -10   14.90    4.60
  -9  -2 -10   10.10    3.50
  -9  -2 -10   12.40    5.90
  -9   2 -11   80.49    7.90
  -9   2 -11   76.29    8.00
  -9   2 -11   71.79    7.10
   9   2  11   72.09    7.40
   9  -2  11   76.39    7.60
  -9  -2 -11   60.29    8.70
  -9  -2 -11   64.09    7.10
  -9  -2 -11   60.19    6.10
  -9   2 -12   34.10    5.70
   9   2  12   24.60    4.80
  -9   2 -12   34.10    5.00
  -9   2 -12   36.90    5.60
  -9  -2 -12   14.70    6.90
  -9  -2 -12   33.90    5.00
   9  -2  12   33.70    5.30
  -9  -2 -12   30.50    5.90
  -9   3  13   21.20    4.40
   9   3 -13   35.50    4.90
   9  -3 -13   24.50    6.00
  -9  -3  13   25.10    4.30
   9  -3 -13   18.50    4.80
   9   3 -12   11.70    3.90
  -9   3  12   10.50    3.40
   9  -3 -12   11.30    5.20
  -9  -3  12   11.10    3.50
   9  -3 -12   12.30    4.30
  -9   3  11   28.60    4.10
   9   3 -11   22.20    3.70
   9   3 -11   24.30    3.80
  -9  -3  11   26.20    4.30
   9  -3 -11   29.20    5.20
   9  -3 -11   16.10    4.00
   9  -3 -11   20.20    4.90
   9   3 -10    2.00    2.50
  -9   3  10    1.30    2.60
   9   3 -10   -1.20    2.80
   9  -3 -10   -3.60    3.00
   9  -3 -10   -1.90    4.00
  -9  -3  10   -0.10    2.60
   9  -3 -10   -1.00    3.70
   9   3  -9   94.89    7.00
  -9   3   9  106.39    7.20
   9   3  -9   88.69    5.30
   9   3  -9   94.79    6.60
   9  -3  -9   71.59    5.90
  -9  -3   9  107.39    7.20
   9  -3  -9   82.39    8.00
   9  -3  -9   84.99    7.40
   9  -3  -9   93.59    8.20
   9   3  -8   48.20    4.90
   9   3  -8   49.30    3.30
  -9   3   8   57.09    5.00
   9   3  -8   51.79    4.80
   9  -3  -8   49.60    6.50
   9  -3  -8   44.00    4.50
   9  -3  -8   52.09    5.60
  -9  -3   8   57.39    5.40
   9  -3  -8   47.50    4.70
  -9   3   7   97.59    6.00
   9   3  -7   91.09    5.80
   9   3  -7   73.59    5.50
   9   3  -7   78.79    5.70
   9  -3  -7   73.89    5.40
  -9  -3   7   69.99    4.90
   9  -3  -7   78.79    7.60
  -9  -3   7   84.89    6.30
   9  -3  -7   82.19    6.50
   9   3  -6   86.19    5.40
  -9   3   6   78.89    5.80
   9   3  -6   79.39    5.50
   9   3  -6   74.19    5.20
   9  -3  -6   75.29    6.60
   9  -3  -6   73.59    6.00
  -9  -3   6   80.29    5.90
   9   3  -5    2.30    1.50
   9   3  -5    0.70    1.60
   9   3  -5   -1.30    2.00
  -9   3   5   -0.20    1.80
  -9  -3   5    1.00    1.40
   9  -3  -5   -2.70    1.90
  -9  -3   5   -2.50    1.40
   9  -3  -5   -0.10    2.00
   9  -3  -5    1.00    2.00
   9  -3  -5    0.00    2.60
  -9  -3   5    0.20    1.90
   9   3  -4   56.39    3.30
  -9   3   4   56.59    4.50
   9   3  -4   59.79    4.10
   9   3  -4   59.09    3.90
   9   3  -4   58.49    4.60
   9   3  -4   51.29    4.60
   9   3  -4   53.69    4.40
   9  -3  -4   59.89    4.50
  -9  -3   4   58.89    3.90
  -9  -3   4   59.89    4.70
  -9  -3   4   51.99    4.60
   9  -3  -4   50.09    4.90
   9  -3  -4   62.29    4.50
   9   3  -3  202.38   10.30
   9   3  -3  194.08   11.00
   9   3  -3  200.28   10.20
   9   3  -3  198.78   10.30
  -9   3   3  199.08   10.60
  -9   3   3  198.58   10.70
   9  -3  -3  201.78   10.60
  -9  -3   3  192.98   10.80
   9  -3  -3  171.08   10.90
  -9  -3   3  178.98   10.90
  -9  -3   3  189.58   10.50
   9  -3  -3  205.18   12.00
  -9   3   2  729.83   35.90
  -9   3   2  696.33   36.00
   9   3  -2  715.43   35.70
  -9   3   2  724.13   36.00
   9   3  -2  713.03   36.50
   9   3  -2  707.73   35.60
  -9  -3   2  694.03   35.60
   9  -3  -2  712.13   35.90
  -9  -3   2  714.33   36.40
   9  -3  -2  650.83   36.00
  -9  -3   2  733.73   35.90
   9  -3  -2  672.53   36.90
  -9   3   1   12.50    2.10
  -9   3   1   12.50    2.30
   9   3  -1   10.90    1.50
   9   3  -1    9.50    2.80
  -9   3   1   11.00    2.00
   9   3  -1   13.80    1.90
   9  -3  -1    9.40    3.20
  -9  -3   1   11.70    1.60
  -9  -3   1   12.90    2.20
   9  -3  -1    9.50    2.40
  -9  -3   1   12.00    2.30
   9  -3  -1   13.70    2.20
  -9   3   0  120.39    7.30
  -9   3   0  125.49    7.20
   9   3   0  119.89    7.00
   9   3   0  119.69    6.60
   9   3   0  120.99    8.10
  -9  -3   0  116.79    7.00
  -9  -3   0  123.59    8.30
  -9  -3   0  116.89    7.20
   9  -3   0  117.99    8.40
   9  -3   0  104.59    6.90
  -9  -3   0  121.99    6.60
  -9   3  -1  227.18   12.80
  -9   3  -1  225.78   12.40
  -9   3  -1  238.88   12.60
   9   3   1  234.98   12.20
   9   3   1  228.28   13.60
   9   3   1  226.08   12.50
  -9  -3  -1  229.98   12.20
  -9  -3  -1  258.47   12.60
   9  -3   1  213.18   12.40
   9   3   2  501.85   24.30
  -9   3  -2  460.15   24.40
  -9   3  -2  477.75   25.80
  -9   3  -2  494.95   24.90
  -9   3  -2  499.25   24.50
   9   3   2  444.96   24.60
  -9  -3  -2  453.65   24.50
  -9  -3  -2  447.16   25.60
  -9  -3  -2  480.55   24.70
  -9  -3  -2  476.55   24.30
  -9   3  -3  173.18    9.30
   9   3   3  165.28    9.10
  -9   3  -3  166.48    9.90
  -9   3  -3  157.18   10.50
  -9   3  -3  168.58    9.40
  -9  -3  -3  150.78    9.30
  -9  -3  -3  165.08   11.10
  -9  -3  -3  166.18    9.60
  -9  -3  -3  151.18    9.00
  -9   3  -4    5.50    2.00
  -9   3  -4    7.70    2.40
  -9   3  -4   16.10    3.40
  -9   3  -4   13.60    3.70
  -9  -3  -4   11.70    2.40
  -9   3  -5  101.09    8.50
  -9   3  -5  104.59    6.90
  -9  -3  -5  103.19    6.80
  -9  -3  -5  106.29    9.20
   9  -3   5  101.09    7.00
  -9  -3  -5  108.59    7.50
   9   3   6  201.88   11.90
  -9   3  -6  197.38   13.20
  -9   3  -6  206.48   11.60
  -9  -3  -6  211.88   14.10
  -9  -3  -6  194.48   12.20
  -9  -3  -6  199.38   11.60
   9  -3   6  204.28   11.70
  -9   3  -7   66.99    5.80
  -9   3  -7   63.09    7.50
   9   3   7   64.99    6.20
  -9  -3  -7   80.59    9.30
  -9  -3  -7   75.59    7.00
  -9  -3  -7   59.49    5.80
   9  -3   7   67.49    6.10
  -9   3  -8    3.70    3.50
  -9   3  -8    6.40    2.90
  -9   3  -8    8.70    4.30
   9   3   8    6.60    3.00
  -9  -3  -8    6.10    3.90
  -9  -3  -8    7.10    5.90
   9  -3   8    8.10    3.00
  -9  -3  -8    4.40    3.10
  -9   3  -9   21.60    5.10
   9   3   9   18.50    3.90
  -9   3  -9   24.40    4.00
  -9   3  -9   29.90    4.50
   9  -3   9   30.60    4.20
  -9  -3  -9   26.30    5.00
  -9  -3  -9   17.60    7.00
  -9  -3  -9   29.10    4.20
  -9   3 -10   11.10    3.70
   9   3  10   11.10    3.70
  -9   3 -10   10.90    4.00
  -9   3 -10   16.20    4.70
   9  -3  10   12.40    3.80
  -9  -3 -10   14.60    5.10
  -9  -3 -10    3.10    6.40
  -9  -3 -10   17.70    3.90
  -9   3 -11    4.90    4.10
  -9   3 -11   -0.40    3.30
   9   3  11   -1.00    3.20
  -9   3 -11    4.70    4.00
   9  -3  11   -0.10    3.30
  -9  -3 -11    1.80    4.90
  -9  -3 -11   -1.50    3.10
  -9   3 -12   13.30    4.70
   9   3  12    7.00    4.20
  -9   3 -12    9.20    4.00
  -9   3 -12    7.30    4.30
  -9  -3 -12   10.60    5.60
   9  -3  12    2.20    3.80
  -9  -3 -12   -8.10    6.10
  -9  -3 -12    9.60    3.90
   9   4 -13    3.50    2.60
  -9   4  13   12.90    3.70
   9  -4 -13   12.40    5.80
   9  -4 -13    9.80    4.50
  -9  -4  13    9.80    4.00
  -9   4  12    6.20    3.10
   9   4 -12    5.40    3.50
   9  -4 -12   -0.60    3.80
   9  -4 -12   -2.40    4.80
  -9  -4  12    5.00    3.40
  -9   4  11   20.60    3.70
   9   4 -11   21.80    3.50
   9   4 -11   12.80    3.60
   9  -4 -11   14.20    4.90
   9  -4 -11   10.50    4.00
   9  -4 -11   16.90    5.30
  -9  -4  11   12.20    3.60
   9   4 -10   -0.20    3.00
   9   4 -10   -3.20    2.60
  -9   4  10    0.20    2.70
   9  -4 -10   -1.90    3.40
   9  -4 -10    1.70    4.50
  -9  -4  10    0.50    3.00
   9  -4 -10   -0.60    4.30
  -9   4   9  322.97   17.10
   9   4  -9  316.97   16.60
   9   4  -9  290.77   16.90
   9  -4  -9  292.47   17.90
   9  -4  -9  294.37   17.30
  -9  -4   9  303.37   17.20
   9  -4  -9  311.77   18.40
   9   4  -8  204.08   12.10
  -9   4   8  210.68   12.10
   9   4  -8  223.38   11.70
   9  -4  -8  204.88   14.00
  -9  -4   8  220.08   12.30
   9  -4  -8  191.38   12.50
   9  -4  -8  196.88   13.20
   9   4  -7  956.70   45.00
  -9   4   7  909.11   45.40
   9   4  -7  848.52   45.40
   9   4  -7  886.61   45.00
   9  -4  -7  895.01   46.70
   9  -4  -7  832.22   45.40
   9  -4  -7  878.11   45.60
  -9  -4   7  880.81   45.60
   9   4  -6    8.50    1.90
  -9   4   6    6.90    2.30
   9   4  -6    8.00    1.70
   9   4  -6    6.10    2.80
   9  -4  -6    9.50    2.70
  -9  -4   6   14.20    2.60
   9  -4  -6    9.30    3.70
   9  -4  -6    3.40    2.60
   9   4  -5   53.69    3.90
  -9   4   5   50.59    4.30
   9   4  -5   53.59    4.90
   9   4  -5   49.30    3.60
  -9  -4   5   53.99    4.80
   9  -4  -5   46.60    4.70
  -9  -4   5   45.70    4.10
   9  -4  -5   44.70    4.50
   9  -4  -5   49.10    4.60
   9  -4  -5   46.90    5.40
  -9  -4   5   64.99    4.40
   9   4  -4   -0.10    1.10
   9   4  -4    0.00    2.50
   9   4  -4    0.60    1.30
  -9   4   4    6.10    2.20
   9  -4  -4    3.30    3.10
  -9  -4   4    7.30    2.10
  -9  -4   4    0.80    1.60
  -9  -4   4    1.70    2.00
   9  -4  -4    2.00    2.30
   9  -4  -4   -0.10    2.20
   9   4  -3  522.65   28.30
  -9   4   3  521.65   27.90
   9   4  -3  564.54   27.30
   9   4  -3  566.24   28.00
   9   4  -3  534.35   27.30
   9   4  -3  556.84   27.30
  -9   4   3  542.55   27.70
   9  -4  -3  576.94   28.10
   9  -4  -3  552.44   27.90
  -9  -4   3  524.55   27.80
  -9  -4   3  489.45   27.70
  -9  -4   3  529.65   28.20
  -9   4   2   82.89    5.60
   9   4  -2   84.79    5.00
   9   4  -2   82.69    6.50
  -9   4   2   78.29    5.30
  -9   4   2   87.89    5.90
   9   4  -2   83.99    4.60
   9  -4  -2   73.99    5.70
   9   4  -1 2532.15  126.39
   9   4  -1 2704.93  126.69
   9   4  -1 2569.94  127.69
  -9   4   1 2451.45  126.99
  -9   4   1 2234.18  126.79
  -9   4   1 2666.03  126.69
   9  -4  -1 2233.18  126.89
  -9  -4   1 2500.65  126.99
  -9  -4   1 2584.94  126.79
  -9  -4   1 2535.85  126.59
  -9  -4   1 2648.14  126.39
  -9  -4   1 2649.93  127.59
   9   4   0  707.73   35.30
   9   4   0  699.63   36.40
  -9   4   0  686.73   35.60
   9   4   0  741.93   34.90
  -9   4   0  680.43   35.40
   9  -4   0  624.44   35.50
  -9  -4   0  708.13   36.30
  -9  -4   0  684.83   35.20
  -9  -4   0  672.93   35.50
  -9  -4   0  701.23   34.90
   9   4   1   14.40    1.80
  -9   4  -1   15.60    2.40
  -9   4  -1   13.00    2.90
   9   4   1   11.50    2.30
  -9   4  -1   15.40    2.10
  -9  -4  -1   15.60    1.90
   9   4   2   11.60    2.10
  -9   4  -2   13.40    2.40
   9   4   2   12.30    1.90
  -9   4  -2   10.80    2.10
  -9   4  -2   11.70    2.90
  -9  -4  -2   11.80    1.90
  -9  -4  -2   12.10    2.60
  -9  -4  -2   10.20    2.30
  -9  -4  -2   11.50    3.60
  -9   4  -3   47.40    5.10
  -9   4  -3   35.60    3.90
   9   4   3   42.00    3.60
  -9   4  -3   40.60    3.70
  -9  -4  -3   43.30    6.50
  -9  -4  -3   35.20    3.70
  -9  -4  -3   43.70    4.60
  -9  -4  -3   47.10    3.80
  -9   4  -4    2.20    2.00
  -9   4  -4    5.30    2.40
  -9   4  -4    5.00    3.60
  -9   4  -4    1.20    2.80
  -9   4  -5   -3.50    3.40
  -9   4  -5    1.40    2.30
  -9   4  -5    1.00    3.00
   9  -4   5   -0.50    2.10
  -9  -4  -5   -0.20    3.90
  -9  -4  -5   -0.70    2.20
  -9  -4  -5   -3.70    3.10
  -9   4  -6   -3.00    3.20
  -9   4  -6    2.70    2.50
  -9   4  -6   -0.40    3.70
   9  -4   6   -1.80    2.20
  -9  -4  -6   -0.80    3.30
  -9  -4  -6    2.40    4.20
  -9  -4  -6    0.90    2.60
  -9   4  -7   20.10    4.80
   9   4   7   15.90    3.40
  -9   4  -7   15.40    3.30
  -9   4  -7   15.70    4.20
   9  -4   7   17.00    3.30
  -9  -4  -7   13.60    4.30
  -9  -4  -7   18.80    5.80
  -9  -4  -7   18.60    3.40
   9   4   8    8.90    3.20
  -9   4  -8    6.50    3.90
  -9   4  -8    6.60    4.20
  -9   4  -8    7.40    3.10
  -9  -4  -8    7.70    4.30
  -9  -4  -8    8.90    5.90
  -9  -4  -8    7.80    3.10
   9  -4   8    4.40    3.00
  -9   4  -9   23.30    4.90
   9   4   9   18.30    3.80
  -9   4  -9   21.30    3.80
  -9   4  -9   23.40    5.20
  -9  -4  -9   20.40    5.20
  -9  -4  -9   24.80    4.00
  -9  -4  -9   15.90    7.10
   9  -4   9   24.40    4.10
  -9   4 -10    4.70    3.40
   9   4  10    4.70    3.30
  -9   4 -10   -2.60    4.20
  -9   4 -10    7.40    4.20
  -9  -4 -10   -9.70    6.10
  -9  -4 -10   -2.30    4.70
  -9  -4 -10    2.80    3.30
   9  -4  10    3.50    3.50
  -9   4 -11   46.00    5.40
  -9   4 -11   51.09    6.70
   9   4  11   40.90    5.80
  -9   4 -11   60.69    7.60
  -9  -4 -11   43.80    5.30
   9  -4  11   53.19    6.10
  -9  -4 -11   37.10    9.10
  -9  -4 -11   40.10    6.40
  -9   5  12   23.80    4.50
   9  -5 -12   26.70    6.50
   9  -5 -12   17.70    6.10
   9  -5 -12   16.80    4.90
  -9  -5  12   21.60    4.40
  -9   5  11   81.69    6.80
   9  -5 -11   72.09    8.30
  -9  -5  11   82.69    7.10
   9  -5 -11   76.19    7.50
   9  -5 -11   62.79    9.60
  -9   5  10   52.79    5.70
   9   5 -10   51.99    5.90
   9  -5 -10   51.99    5.80
   9  -5 -10   62.49    7.40
   9  -5 -10   55.39    7.70
  -9  -5  10   59.29    6.30
   9   5  -9   17.10    2.70
   9   5  -9   21.40    4.00
  -9   5   9   20.10    3.30
   9  -5  -9   18.20    5.20
   9  -5  -9   19.80    5.60
   9  -5  -9   15.50    3.80
  -9  -5   9   18.20    3.60
   9   5  -8   13.30    2.30
  -9   5   8   13.80    2.80
   9  -5  -8    7.60    4.80
   9  -5  -8    7.60    4.60
   9  -5  -8    8.60    3.60
  -9  -5   8   15.80    3.30
  -9   5   7    2.70    2.30
   9  -5  -7   -3.50    4.50
   9  -5  -7    2.00    3.90
   9  -5  -7    0.80    2.90
  -9  -5   7    2.40    1.20
  -9   5   6   77.69    5.70
   9   5  -6   88.29    4.80
   9   5  -6   69.19    6.70
   9   5  -6   70.29    4.60
   9  -5  -6   78.99    9.10
  -9  -5   6   77.39    6.20
  -9  -5   6   77.89    5.60
   9  -5  -6   79.29    7.60
   9  -5  -6   77.39    6.50
   9   5  -5   13.80    1.40
  -9   5   5   13.30    2.50
   9   5  -5   12.00    1.40
   9   5  -5   13.50    3.50
  -9  -5   5   18.80    2.90
   9  -5  -5   10.90    3.90
   9  -5  -5    7.80    2.80
  -9  -5   5   15.80    2.80
  -9   5   4   93.89    7.00
  -9   5   4  102.89    6.30
   9   5  -4  104.99    7.50
  -9  -5   4  106.09    7.20
   9  -5  -4  104.59    7.10
  -9  -5   4   99.29    6.70
   9  -5  -4  102.29    8.10
   9   5  -3   67.49    5.80
  -9   5   3   52.19    5.00
  -9   5   3   50.49    4.10
   9  -5  -3   43.70    4.40
  -9   5   2  105.59    7.30
   9   5  -2  106.49    6.30
  -9   5   2  112.19    7.00
  -9   5   2  119.69    6.40
  -9  -5   2  105.99    6.80
   9  -5  -2  110.79    7.20
  -9  -5   2  106.09    6.10
  -9  -5   2  101.69    7.50
   9   5  -1    1.70    1.70
  -9   5   1    4.60    2.70
   9   5  -1    1.90    0.90
  -9   5   1    5.70    2.10
  -9   5   1    4.00    1.60
  -9  -5   1    0.20    1.80
  -9  -5   1    1.70    0.80
  -9  -5   1    3.50    1.70
  -9  -5   1    3.80    2.90
  -9   5   0   20.80    2.70
   9   5   0   14.40    1.60
   9   5   0   13.30    2.40
  -9  -5   0   15.40    2.40
  -9  -5   0   16.30    1.60
  -9  -5   0   20.90    4.00
   9   5   1    0.70    2.00
  -9   5  -1    5.60    2.20
  -9   5  -1    3.90    2.70
  -9   5  -1    3.60    1.70
   9   5   1   -0.10    1.30
  -9  -5  -1    4.30    2.10
  -9  -5  -1    2.90    2.20
  -9  -5  -1    2.20    1.40
  -9  -5  -1   11.50    3.80
  -9   5  -2    1.50    2.10
   9   5   2    5.80    1.70
  -9   5  -2   -1.00    1.80
  -9   5  -2    4.30    2.90
  -9  -5  -2    7.50    1.70
  -9  -5  -2    1.90    2.10
  -9  -5  -2    6.20    2.60
  -9  -5  -2    5.10    3.90
   9   5   3  214.28   11.20
  -9   5  -3  186.88   11.30
  -9   5  -3  200.48   12.40
  -9   5  -3  211.08   11.60
  -9  -5  -3  199.88   13.20
  -9  -5  -3  214.88   12.00
  -9  -5  -3  202.48   11.10
  -9   5  -4   26.70    3.10
  -9   5  -4   31.30    3.50
  -9   5  -4   27.90    4.30
  -9  -5  -4   30.90    4.00
  -9  -5  -4   52.39    7.50
  -9  -5  -4   24.80    3.00
  -9   5  -5   36.30    4.00
  -9   5  -5   30.20    4.70
  -9  -5  -5   61.19    8.10
  -9  -5  -5   40.00    4.80
  -9  -5  -5   37.10    3.70
  -9   5  -6    8.50    2.90
  -9   5  -6    6.00    3.80
  -9  -5  -6   15.70    2.90
  -9  -5  -6   12.80    4.10
  -9  -5  -6   15.40    5.10
   9  -5   6    9.40    2.80
  -9   5  -7  109.49    7.80
  -9   5  -7  105.39    8.70
  -9  -5  -7   96.09    8.90
   9  -5   7  117.59    7.90
  -9  -5  -7  105.09    7.70
  -9  -5  -7  105.29   11.10
  -9   5  -8   31.50    4.00
  -9   5  -8   19.70    4.70
   9  -5   8   28.00    4.00
  -9  -5  -8   26.30    3.90
  -9  -5  -8   18.40    5.30
  -9  -5  -8   23.20    7.10
  -9   5  -9   -0.70    3.30
  -9   5  -9    4.50    4.20
   9   5   9    3.50    3.10
   9  -5   9    2.70    3.20
  -9  -5  -9    7.50    3.30
  -9  -5  -9    6.60    6.50
  -9  -5  -9    6.40    4.90
   9   5  10    4.40    3.50
  -9   5 -10    1.80    3.30
  -9   5 -10    0.20    4.00
  -9  -5 -10   -7.40    6.50
  -9  -5 -10    8.10    5.50
  -9  -5 -10    2.10    3.30
   9  -5  10    1.90    3.60
  -9   5 -11    2.80    3.70
  -9   5 -11    4.30    4.50
   9   5  11    6.70    4.00
  -9  -5 -11    1.70    5.30
   9  -5  11    9.20    4.40
  -9  -5 -11    4.20    3.50
  -9  -5 -11   -4.00    7.40
  -9   6  11   22.00    4.00
   9  -6 -11   18.60    7.10
   9  -6 -11   28.80    4.90
   9  -6 -11   21.40    6.70
  -9  -6  11   21.50    4.40
   9   6 -10    4.40    4.10
  -9   6  10    5.20    3.10
   9  -6 -10    2.40    5.30
   9  -6 -10    1.50    5.90
   9  -6 -10    7.30    3.80
  -9  -6  10   11.20    3.40
  -9   6   9    8.90    2.90
   9   6  -9   10.00    4.10
   9  -6  -9   -0.60    5.00
   9  -6  -9    5.50    3.70
   9  -6  -9    7.10    6.00
  -9  -6   9    7.00    3.30
   9   6  -8   -1.40    3.50
  -9   6   8   -1.80    2.30
   9  -6  -8   -5.00    4.60
   9  -6  -8    0.00    3.30
  -9  -6   8   -0.40    2.80
   9  -6  -8    4.30    5.20
   9   6  -7    3.30    3.80
  -9   6   7    6.20    2.20
   9  -6  -7    1.80    4.30
   9  -6  -7    2.50    3.10
  -9  -6   7    1.70    2.60
   9  -6  -7    0.10    5.10
   9   6  -6    3.10    3.80
  -9   6   6    1.20    2.00
  -9  -6   6   10.90    2.80
   9  -6  -6    3.30    4.10
   9  -6  -6    3.40    5.50
  -9  -6   6   10.00    2.80
   9  -6  -6    0.70    3.00
  -9   6   5    5.50    2.00
   9   6  -5   -0.10    3.70
  -9  -6   5    7.60    2.60
   9  -6  -5    4.40    2.80
   9  -6  -5   -0.20    4.00
  -9  -6   5    7.10    2.90
  -9   6   4   41.30    4.50
   9   6  -4   37.90    5.10
  -9   6   4   49.30    3.70
   9  -6  -4   29.20    4.00
   9  -6  -4   45.20    5.60
  -9  -6   4   40.00    4.30
  -9  -6   4   42.10    5.10
  -9   6   3   38.30    3.60
  -9   6   3   43.30    4.70
   9   6  -3   47.30    5.30
   9  -6  -3   43.00    5.30
   9  -6  -3   47.20    4.50
  -9  -6   3   44.30    4.10
  -9  -6   3   47.00    5.50
  -9   6   2   26.60    2.80
  -9   6   2   25.10    3.90
  -9  -6   2   39.00    5.30
  -9  -6   2   28.30    2.90
   9  -6  -2   19.90    3.20
  -9   6   1   50.49    3.70
  -9   6   1   52.89    5.00
  -9   6   1   57.09    3.80
   9   6  -1   58.19    4.20
  -9   6   1   49.20    5.80
  -9  -6   1   59.79    4.60
  -9  -6   1   55.99    6.10
  -9  -6   1   59.59    4.40
  -9   6   0   32.40    3.30
  -9  -6   0   28.20    4.90
  -9  -6   0   26.50    3.00
  -9  -6   0   26.80    3.10
   9   6   1    1.40    1.30
  -9   6  -1    3.30    1.50
  -9   6  -1    4.40    2.40
  -9   6  -1    7.10    3.40
  -9  -6  -1    4.60    4.20
  -9  -6  -1   -1.10    2.20
  -9  -6  -1    0.40    2.50
  -9  -6  -1    0.50    1.30
  -9   6  -2  453.05   20.70
   9   6   2  399.26   20.60
  -9  -6  -2  378.96   20.50
  -9  -6  -2  353.56   21.10
  -9  -6  -2  399.46   23.10
  -9   6  -3    6.50    3.70
  -9   6  -3    4.60    2.50
  -9   6  -3    2.50    1.90
   9   6   3    3.60    1.90
  -9  -6  -3    8.10    3.20
  -9  -6  -3   10.00    4.40
  -9  -6  -3    4.20    2.00
  -9   6  -4   50.29    4.60
  -9  -6  -4   28.20    4.60
  -9  -6  -4   28.90    3.20
  -9  -6  -4   23.60    6.10
  -9   6  -5   34.00    5.30
  -9   6  -5   39.20    4.20
  -9  -6  -5   38.20    3.80
  -9  -6  -5   50.09    7.20
  -9  -6  -5   41.80    5.20
  -9   6  -6   34.50    4.10
  -9   6  -6   40.50    5.50
  -9  -6  -6   36.10    3.90
  -9  -6  -6   33.00    6.40
  -9  -6  -6   37.50    5.30
  -9   6  -7   12.40    3.30
  -9   6  -7   10.20    4.20
  -9  -6  -7   10.60    6.20
  -9  -6  -7   13.20    3.10
  -9  -6  -7    8.10    4.60
   9  -6   7    8.70    2.80
  -9   6  -8   14.70    3.50
  -9  -6  -8    7.00    6.60
   9  -6   8   11.20    3.50
  -9  -6  -8    7.30    5.20
  -9  -6  -8    5.40    3.30
  -9   6  -9    1.00    3.30
  -9   6  -9    2.50    4.00
  -9  -6  -9    4.40    3.30
  -9  -6  -9    8.90    6.90
  -9  -6  -9   -1.60    5.40
   9  -6   9    2.90    3.10
  -9   6 -10    2.70    4.10
  -9  -6 -10   -4.10    5.70
  -9  -6 -10   -5.70    7.00
  -9  -6 -10   -2.20    3.30
   9  -6  10   -0.10    3.60
   9   7 -10   41.90    6.70
  -9  -7  10   40.30    5.10
   9  -7 -10   52.09    6.00
   9  -7 -10   43.30    8.30
   9  -7 -10   44.70    7.60
   9   7  -9    3.40    4.70
   9  -7  -9   10.10    5.90
   9  -7  -9   10.40    6.60
   9  -7  -9    2.70    3.70
  -9  -7   9   12.20    3.40
   9   7  -8   33.00    5.90
   9  -7  -8   40.80    7.50
   9  -7  -8   25.20    6.10
   9  -7  -8   29.60    4.60
  -9  -7   8   30.80    4.10
   9   7  -7   22.70    5.10
   9  -7  -7   18.60    4.00
  -9  -7   7   24.00    3.60
   9  -7  -7   21.00    6.50
   9  -7  -7   20.30    5.60
   9   7  -6   -0.70    4.30
   9  -7  -6    2.80    4.60
   9  -7  -6    4.40    3.20
  -9  -7   6    8.00    2.60
   9  -7  -6    3.60    5.90
   9   7  -5   77.89    7.80
   9  -7  -5   79.39    8.30
  -9  -7   5   75.09    5.80
   9  -7  -5   74.39    6.50
   9  -7  -5   78.89    9.90
  -9  -7   5   72.79    6.90
   9   7  -4   67.49    7.60
  -9   7   4   63.89    6.60
   9  -7  -4   70.29    7.90
  -9  -7   4   67.49    6.80
   9  -7  -4   78.49    6.30
  -9  -7   4   76.29    5.50
   9   7  -3   25.60    5.10
  -9   7   3   22.70    4.30
  -9  -7   3   26.10    4.60
  -9  -7   3   21.70    2.80
   9  -7  -3   28.90    5.10
   9  -7  -3   26.60    3.70
  -9   7   2   13.70    3.70
  -9  -7   2    0.40    3.20
  -9  -7   2    1.90    1.70
   9  -7  -2   -2.40    3.90
   9  -7  -2   -0.70    2.70
  -9  -7   2   -3.90    1.20
  -9   7   1   97.99    8.40
  -9  -7   1  121.59    9.40
   9  -7  -1  113.69    7.80
  -9  -7   1  110.79    6.90
  -9  -7   1  118.89    7.00
  -9   7   0   49.99    6.00
  -9   7   0   53.59    5.20
  -9  -7   0   64.79    7.90
  -9  -7   0   62.49    4.70
  -9  -7   0   59.59    5.10
  -9   7  -1  114.79    9.60
  -9   7  -1  136.09    8.40
  -9  -7  -1  128.29   10.70
  -9  -7  -1  145.29    8.70
  -9  -7  -1  129.89    7.90
  -9   7  -2   24.00    3.20
  -9   7  -2   30.10    4.80
  -9  -7  -2   12.90    3.50
  -9  -7  -2   16.30    5.20
  -9   7  -3   50.29    6.10
  -9   7  -3   54.29    5.40
  -9  -7  -3   47.60    5.30
  -9  -7  -3   47.30    7.40
  -9   7  -4  110.79    7.30
  -9   7  -4   98.79    9.00
  -9  -7  -4  108.59   10.70
  -9  -7  -4  108.39    8.50
  -9  -7  -4   89.19    6.40
  -9   7  -5   25.10    5.20
  -9   7  -5   23.20    3.60
  -9  -7  -5   23.50    6.80
  -9  -7  -5   28.30    5.00
  -9  -7  -5   25.80    3.30
  -9   7  -6    5.50    2.90
  -9   7  -6    7.60    4.40
  -9  -7  -6    4.20    2.80
  -9  -7  -6    8.60    4.50
  -9  -7  -6    7.10    6.30
  -9   7  -7    6.90    3.20
  -9   7  -7    9.30    4.60
  -9  -7  -7    2.70    5.50
  -9  -7  -7    5.00    2.90
  -9  -7  -7    7.10    5.10
  -9   7  -8    3.40    3.30
  -9   7  -8    7.90    4.20
  -9  -7  -8    9.10    3.30
  -9  -7  -8    5.50    5.50
  -9  -7  -8    4.00    6.80
  -9   7  -9   30.20    5.40
  -9   7  -9   26.00    4.20
  -9  -7  -9   25.80    8.20
  -9  -7  -9   30.20    4.60
  -9  -7  -9   16.40    6.60
   9   8  -8    3.90    4.80
   9  -8  -8   -0.40    3.40
   9  -8  -8   -4.70    5.70
   9  -8  -8   11.60    6.60
   9   8  -7   37.70    6.80
   9  -8  -7   41.80    7.00
   9  -8  -7   36.90    5.00
   9  -8  -7   46.30    8.60
   9   8  -6    1.40    4.70
   9  -8  -6    4.50    6.20
   9  -8  -6    4.00    3.30
   9  -8  -6   -2.10    4.70
   9   8  -5   58.49    7.30
   9  -8  -5   63.89    6.40
   9  -8  -5   60.29    9.10
   9   8  -4   36.20    6.00
   9  -8  -4   25.90    5.60
   9  -8  -4   31.60    4.20
  -9  -8   4   31.70    5.20
  -9   8   3   20.10    4.70
  -9  -8   3   15.50    4.50
   9  -8  -3   23.30    3.50
   9  -8  -3   22.40    5.20
  -9   8   2   41.10    5.80
  -9  -8   2   59.89    7.20
   9  -8  -2   47.50    4.70
   9  -8  -2   50.09    6.40
  -9   8   1   77.99    7.70
  -9  -8   1   71.19    8.40
   9  -8  -1   83.59    6.60
   9  -8  -1   85.09    8.10
  -9   8   0    3.50    3.80
   9  -8   0   -1.10    2.60
  -9  -8   0   -3.10    2.00
  -9  -8   0    2.60    4.30
  -9   8  -1   19.80    3.10
  -9   8  -1   28.40    5.10
  -9  -8  -1   13.70    3.60
  -9  -8  -1   15.80    5.50
  -9   8  -2   41.30    4.10
  -9   8  -2   38.60    6.10
  -9  -8  -2   35.40    6.50
  -9  -8  -2   37.10    4.70
  -9   8  -3    6.10    2.70
  -9   8  -3    4.00    4.20
  -9  -8  -3   18.40    4.10
  -9   8  -4   -0.50    2.90
  -9   8  -4    1.50    4.20
  -9  -8  -4   10.30    4.30
  -9  -8  -4   15.20    6.30
  -9   8  -5   45.20    6.70
  -9   8  -5   37.00    4.40
  -9  -8  -5   56.09    8.60
  -9  -8  -5   47.70    5.90
  -9   8  -6   18.80    5.20
  -9  -8  -6   19.40    5.40
  -9  -8  -6   18.30    7.50
  -9   8  -7   15.10    4.90
  -9  -8  -7    2.40    6.80
  -9  -8  -7    3.70    5.10
   9   9  -6   -1.90    5.20
   9  -9  -6    1.40    3.30
   9  -9  -6    5.10    6.50
   9  -9  -6    2.70    5.90
   9   9  -5   -1.10    5.70
   9  -9  -5    1.10    6.40
   9  -9  -5   -0.60    3.10
   9  -9  -5    3.50    5.80
   9   9  -4   11.10    6.40
   9  -9  -4   16.20    7.70
   9  -9  -4   12.50    3.50
  -9   9   3    4.80    4.60
   9  -9  -3   10.00    5.50
   9  -9  -3   11.50    3.30
  -9  -9   3    6.70    4.40
  -9   9   2   40.00    6.30
   9  -9  -2   46.50    6.70
   9  -9  -2   44.20    4.60
  -9   9   1    2.10    4.30
   9  -9  -1    0.80    1.60
   9  -9  -1    0.50    4.70
  -9  -9   1   11.90    5.00
  -9   9   0   50.49    6.80
  -9  -9   0   60.19    8.90
   9  -9   0   50.79    6.70
  -9   9  -1    2.20    4.40
  -9  -9  -1   -0.30    4.70
   9  -9   1    0.00    4.80
  -9   9  -2    5.40    4.80
  -9  -9  -2   -2.20    5.40
  -9  -9  -3   15.90    4.50
  -9  -9  -3   12.80    6.50
  -9   9  -4   11.50    5.20
  -9  -9  -4    1.90    4.40
  -9  -9  -4   -2.20    5.40
  -9   9  -5    8.60    5.20
  -9  -9  -5   -2.30    4.80
  -9  -9  -5   -4.00    6.40
  10   0 -14  124.79   10.30
 -10   0  14  118.39    9.40
  10   0 -13   -0.60    3.70
 -10   0  13   -0.10    3.00
  10   0 -13   -5.20    3.00
 -10   0  12   61.19    6.00
  10   0 -12   39.20    5.40
  10   0 -12   54.89    5.70
  10   0 -11   -1.80    3.20
 -10   0  11   -0.50    2.70
  10   0 -11   -1.00    3.30
  10   0 -10   17.90    3.60
 -10   0  10   16.50    3.30
  10   0 -10   11.40    3.50
  10   0  -9    1.80    2.70
 -10   0   9    0.30    2.40
  10   0  -9   -1.30    2.60
 -10   0   8    5.60    2.50
  10   0  -8    2.70    1.60
  10   0  -8    5.20    2.70
  10   0  -8    2.40    2.50
  10   0  -8    7.20    1.40
  10   0  -7    1.40    1.30
 -10   0   7   -1.00    2.00
  10   0  -7    0.60    1.60
  10   0  -7   -1.50    2.30
  10   0  -6  518.85   26.60
  10   0  -6  465.85   26.10
  10   0  -6  533.05   26.60
 -10   0   6  531.95   26.70
  10   0  -5    1.10    1.60
  10   0  -5   -1.30    1.70
 -10   0   5   -1.20    1.70
  10   0  -5   -1.40    1.90
  10   0  -4  260.77   14.10
  10   0  -4  227.68   14.10
  10   0  -4  257.87   14.00
  10   0  -4  273.47   14.10
 -10   0   4  286.47   14.20
  10   0  -3   -0.10    1.70
 -10   0   3   -0.20    2.00
 -10   0   3    1.40    1.90
 -10   0   3    1.40    1.50
  10   0  -3    0.40    2.10
 -10   0   2   21.40    2.30
  10   0  -2   21.50    2.40
 -10   0   2   20.50    3.10
 -10   0   2   22.20    2.70
  10   0  -2   22.60    3.40
 -10   0   1   -1.50    2.50
  10   0  -1    0.60    1.80
  10   0  -1    0.80    1.50
  10   0  -1    1.70    2.60
 -10   0   1   -0.30    1.60
 -10   0   0    0.00    1.70
  10   0   0   -1.10    1.60
  10   0   0    3.10    3.10
 -10   0   0    0.10    2.70
  10   0   0   -0.40    1.90
  10   0   1   -0.10    1.50
 -10   0  -1   -0.60    2.90
 -10   0  -1    1.20    1.90
  10   0   1    0.90    2.80
  10   0   1   -2.70    1.90
 -10   0  -2  158.08    8.80
  10   0   2  149.88    8.60
 -10   0  -2  144.49   10.30
  10   0   2  144.99    8.90
 -10   0  -2  153.18    9.10
  10   0   2  162.98   10.50
 -10   0  -2  157.28    8.70
 -10   0  -3   -0.20    2.30
 -10   0  -3   -2.40    1.90
 -10   0  -3   -0.70    1.50
  10   0   3   -1.50    1.30
 -10   0  -3    0.70    3.40
  10   0   3   -4.30    2.40
 -10   0  -4  228.88   13.30
 -10   0  -4  249.88   13.10
 -10   0  -4  237.78   14.60
 -10   0  -5    0.20    3.10
 -10   0  -5    1.20    2.60
  10   0   5    0.30    2.20
 -10   0  -5   -1.10    2.10
 -10   0  -6   76.09    6.40
 -10   0  -6   78.99    7.50
 -10   0  -6   86.59    6.10
  10   0   6   70.99    6.20
 -10   0  -7    1.80    3.20
  10   0   7    1.10    2.40
 -10   0  -7   -2.80    2.50
 -10   0  -7   -0.10    4.00
 -10   0  -8   80.29    7.20
 -10   0  -8   71.29    8.40
 -10   0  -8   80.49    6.70
  10   0   8   78.59    7.00
 -10   0  -9   -0.20    4.20
 -10   0  -9    1.60    3.20
 -10   0  -9    0.30    3.70
  10   0   9   -3.60    2.60
 -10   0 -10   94.99    8.60
 -10   0 -10  102.09    9.90
  10   0  10   94.99    8.40
 -10   0 -10  102.99    8.00
  10   0  11   -0.40    3.20
 -10   0 -11   -1.20    4.10
 -10   0 -11    1.00    3.50
 -10   0 -11    0.40    4.30
 -10   0 -12    7.10    4.80
 -10   0 -12    3.10    3.60
  10   0  12    0.80    3.40
 -10   0 -12   -0.60    4.70
  10   1 -14    4.40    4.00
 -10   1  14    6.90    3.70
  10  -1 -14    5.50    3.50
 -10  -1  14    5.30    3.50
  10  -1 -14    5.30    4.40
  10   1 -13   38.80    5.50
 -10   1  13   47.10    5.50
  10  -1 -13   45.20    5.90
 -10  -1  13   51.99    5.80
  10  -1 -13   48.00    6.00
 -10   1  12   -2.00    2.80
  10   1 -12   -4.50    3.60
  10   1 -12   -2.90    3.20
  10  -1 -12   -0.50    3.40
 -10  -1  12    2.30    2.90
  10  -1 -12   -2.00    4.00
  10   1 -11   25.30    4.30
 -10   1  11   28.10    4.20
  10   1 -11   27.90    3.80
 -10  -1  11   33.60    4.60
  10  -1 -11   21.80    4.20
  10  -1 -11   26.20    4.60
 -10   1  10    9.40    3.10
  10   1 -10   13.00    3.50
  10   1 -10   11.10    3.20
  10   1 -10   12.60    2.50
 -10  -1  10   18.90    3.50
  10  -1 -10   10.40    3.40
  10  -1 -10    9.50    3.70
  10  -1 -10   12.70    3.00
  10   1  -9   24.80    3.70
  10   1  -9   22.60    3.40
 -10   1   9   30.90    3.90
  10   1  -9   23.40    2.80
 -10  -1   9   22.40    3.50
  10  -1  -9   17.60    3.60
  10  -1  -9   23.70    3.90
  10  -1  -9   23.30    3.30
 -10   1   8  453.15   24.00
  10   1  -8  464.85   23.80
  10   1  -8  463.95   23.60
  10   1  -8  460.45   23.10
 -10  -1   8  459.85   24.00
  10  -1  -8  436.96   24.00
  10  -1  -8  431.66   23.70
  10  -1  -8  443.06   24.00
  10  -1  -8  445.26   23.80
  10   1  -7   17.50    2.90
 -10   1   7   15.40    2.80
  10   1  -7   13.70    2.50
 -10  -1   7   17.30    3.00
  10  -1  -7   15.70    1.80
  10  -1  -7   14.90    3.10
  10  -1  -7   17.80    3.00
  10  -1  -7   15.30    2.70
  10  -1  -7   15.00    3.00
  10   1  -6   17.00    2.50
 -10   1   6   15.70    2.60
  10   1  -6   16.00    2.60
  10  -1  -6   16.50    2.80
 -10  -1   6   18.90    2.80
  10  -1  -6   17.90    3.10
  10  -1  -6   14.50    2.70
  10   1  -5  108.99    6.60
  10   1  -5  116.69    7.20
  10   1  -5  120.09    7.10
 -10   1   5  129.89    7.40
  10  -1  -5  114.89    7.40
  10  -1  -5  115.59    7.40
 -10  -1   5  124.09    7.40
  10   1  -4   22.40    2.90
 -10   1   4   19.30    2.60
  10   1  -4   20.60    2.50
  10   1  -4   23.50    2.60
  10   1  -4   19.40    2.50
 -10  -1   4   22.20    2.70
  10  -1  -4   21.30    2.80
 -10  -1   4   19.40    2.90
  10  -1  -4   13.10    2.40
  10  -1  -4   18.50    2.70
  10  -1  -4   18.60    2.90
 -10   1   3  806.22   38.40
  10   1  -3  705.23   38.50
  10   1  -3  720.83   38.20
 -10  -1   3  765.22   38.10
 -10  -1   3  720.33   38.40
 -10  -1   3  791.92   38.40
  10  -1  -3  759.62   38.80
 -10   1   2 2792.72  139.49
  10   1  -2 2626.34  140.19
 -10   1   2 2786.92  140.39
  10   1  -2 2713.23  139.69
  10   1  -2 2696.13  139.69
 -10   1   2 2860.91  139.79
 -10   1   2 3051.59  139.89
  10  -1  -2 2628.34  139.79
 -10  -1   2 2641.34  140.09
 -10  -1   2 2890.81  139.69
 -10  -1   2 2869.31  139.89
  10  -1  -2 2908.01  140.39
  10   1  -1    1.90    2.70
  10   1  -1    1.80    1.50
 -10   1   1    0.20    1.80
  10   1  -1    0.40    1.70
 -10   1   1   -3.00    2.30
 -10   1   1    1.10    1.60
 -10  -1   1    2.10    2.80
 -10  -1   1    0.60    1.60
  10  -1  -1   -0.30    2.50
  10  -1  -1   -0.60    1.60
 -10   1   0   32.00    4.50
  10   1   0   38.50    3.70
 -10   1   0   36.10    3.70
  10   1   0   36.40    3.20
  10   1   0   37.80    4.90
 -10  -1   0   36.70    5.10
 -10  -1   0   36.20    4.00
  10  -1   0   38.90    3.90
  10  -1   0   35.20    3.10
 -10  -1   0   40.80    3.50
  10  -1   0   38.10    5.10
  10   1   1   12.40    3.40
  10   1   1    8.20    2.10
 -10   1  -1   12.30    2.20
  10   1   1   11.60    1.80
 -10   1  -1    7.40    3.30
  10  -1   1   10.80    2.00
 -10  -1  -1    8.80    2.00
  10  -1   1   10.40    3.30
  10  -1   1   11.30    2.40
 -10  -1  -1   11.30    2.50
 -10  -1  -1   14.30    3.60
 -10   1  -2   59.19    6.30
  10   1   2   58.49    5.70
 -10   1  -2   63.39    4.80
  10   1   2   60.69    4.50
 -10   1  -2   67.39    4.80
  10   1   2   60.79    4.80
 -10  -1  -2   68.59    6.90
  10  -1   2   69.09    6.90
  10  -1   2   62.09    4.80
  10  -1   2   64.99    4.60
 -10  -1  -2   59.09    5.00
 -10  -1  -2   68.69    4.90
 -10  -1  -2   67.59    4.70
  10   1   3   -1.30    1.30
 -10   1  -3    1.90    2.30
 -10   1  -3    3.40    1.90
 -10   1  -3    2.10    2.70
 -10   1  -3    1.80    2.00
  10   1   3    3.50    1.60
 -10  -1  -3    2.30    2.00
 -10  -1  -3    3.10    2.40
 -10  -1  -3    6.10    3.60
 -10   1  -4   72.59    5.10
 -10   1  -4   67.29    5.40
 -10   1  -4   50.99    5.80
 -10  -1  -4   60.49    5.40
 -10  -1  -4   61.59    7.00
 -10  -1  -4   69.29    5.00
 -10   1  -5  482.95   27.70
 -10   1  -5  546.95   27.00
 -10   1  -5  534.75   26.70
  10   1   5  503.05   26.90
  10  -1   5  520.95   26.90
 -10  -1  -5  508.45   28.10
 -10  -1  -5  540.75   26.70
 -10  -1  -5  462.35   26.70
  10   1   6    2.70    2.60
 -10   1  -6    2.90    2.80
 -10   1  -6    5.00    3.60
 -10   1  -6    2.80    2.50
  10  -1   6    2.40    2.40
 -10  -1  -6    2.60    4.10
 -10  -1  -6    8.30    3.20
 -10  -1  -6    3.20    2.50
 -10   1  -7    5.90    2.80
 -10   1  -7    4.50    3.80
 -10   1  -7    3.90    3.10
  10   1   7    3.80    2.70
 -10  -1  -7    4.10    3.30
  10  -1   7    3.90    2.70
 -10  -1  -7    1.50    2.70
 -10  -1  -7    4.80    4.10
 -10   1  -8    3.70    4.00
 -10   1  -8   -1.00    3.20
 -10   1  -8   -1.70    2.80
  10   1   8    2.40    2.80
  10  -1   8    2.00    2.90
 -10  -1  -8   -0.10    3.50
 -10  -1  -8    1.00    4.70
 -10  -1  -8    4.00    3.00
  10   1   9   48.10    5.20
 -10   1  -9   48.10    5.40
 -10   1  -9   39.70    4.80
 -10   1  -9   40.40    6.00
  10  -1   9   51.39    5.50
 -10  -1  -9   48.30    5.60
 -10  -1  -9   41.50    4.70
 -10  -1  -9   46.20    7.20
 -10   1 -10   26.80    4.20
  10   1  10   23.50    4.40
 -10   1 -10   31.10    5.50
 -10   1 -10   29.20    4.90
  10  -1  10   35.50    4.90
 -10  -1 -10   23.20    6.00
 -10  -1 -10   31.70    5.30
 -10  -1 -10   29.00    4.50
  10   1  11    6.80    3.70
 -10   1 -11    7.80    4.30
 -10   1 -11    6.30    3.80
 -10   1 -11    5.30    4.50
  10  -1  11    6.10    3.60
 -10  -1 -11   -0.30    5.00
 -10  -1 -11    7.90    4.50
 -10  -1 -11    6.30    3.80
 -10   1 -12   29.70    5.50
 -10   1 -12   32.00    4.90
  10   1  12   29.20    5.00
 -10   1 -12   37.60    5.90
 -10  -1 -12   21.10    6.30
 -10  -1 -12   30.00    4.90
 -10  -1 -12   24.10    5.40
  10  -1  12   18.40    4.40
 -10   2  13  111.29    8.70
  10   2 -13  127.49    9.20
 -10  -2  13  102.99    8.70
  10  -2 -13  102.39    9.40
  10  -2 -13   98.49    9.40
 -10   2  12   66.09    6.40
  10   2 -12   52.29    5.70
 -10  -2  12   63.09    6.50
  10  -2 -12   61.49    6.40
  10  -2 -12   58.19    6.70
  10   2 -11   20.20    4.00
 -10   2  11   24.80    4.10
 -10  -2  11   26.40    4.20
  10  -2 -11   17.70    4.20
  10  -2 -11   17.30    4.60
  10   2 -10    9.00    2.50
  10   2 -10    5.70    3.20
 -10   2  10   10.60    3.00
  10   2 -10    5.90    2.20
  10  -2 -10    8.30    3.50
  10  -2 -10    7.10    3.80
  10  -2 -10    4.10    3.50
 -10  -2  10    9.20    3.20
  10   2  -9   13.20    2.50
 -10   2   9    7.80    2.90
  10   2  -9    3.50    2.80
  10   2  -9    7.10    2.30
  10  -2  -9    5.40    3.50
  10  -2  -9    3.40    3.00
  10  -2  -9    3.40    3.20
  10  -2  -9    4.00    1.90
 -10  -2   9    6.30    2.80
 -10   2   8    5.10    2.40
  10   2  -8    1.90    2.10
  10   2  -8    3.50    2.00
  10   2  -8   -0.50    2.50
  10  -2  -8    2.70    1.90
  10  -2  -8    4.20    2.80
 -10  -2   8    4.10    2.60
  10  -2  -8    5.00    3.20
  10  -2  -8    4.90    3.30
  10   2  -7  129.89    7.80
  10   2  -7  121.29    7.10
  10   2  -7  124.19    7.10
 -10   2   7  126.79    7.80
  10  -2  -7  121.89    8.20
  10  -2  -7  121.39    8.50
 -10  -2   7  120.99    7.90
  10  -2  -7  113.19    7.00
  10  -2  -7  118.29    8.30
  10   2  -6   70.99    4.60
  10   2  -6   70.69    5.10
 -10   2   6   67.09    5.30
  10   2  -6   71.89    4.70
  10   2  -6   72.49    5.20
 -10  -2   6   70.49    5.60
  10  -2  -6   67.49    5.70
  10  -2  -6   67.79    5.90
  10  -2  -6   75.19    4.70
  10   2  -5    8.80    1.80
  10   2  -5    8.80    1.80
  10   2  -5    9.40    1.90
  10   2  -5    6.30    2.00
  10   2  -5    6.30    1.40
 -10   2   5    9.40    2.20
  10  -2  -5    7.50    2.80
  10  -2  -5    9.40    1.80
 -10  -2   5   11.60    2.30
  10  -2  -5    7.60    2.30
  10  -2  -5    6.90    3.00
 -10  -2   5    9.30    1.30
  10   2  -4  238.98   12.60
 -10   2   4  243.28   12.90
  10   2  -4  229.48   12.50
  10   2  -4  221.38   12.60
  10   2  -4  232.08   12.30
 -10  -2   4  250.67   12.20
 -10  -2   4  222.88   12.60
  10  -2  -4  226.58   13.00
 -10  -2   4  244.68   12.90
  10  -2  -4  241.98   13.60
  10  -2  -4  237.18   12.30
  10   2  -3   35.20    3.10
  10   2  -3   33.80    3.20
  10   2  -3   33.60    3.70
 -10   2   3   41.80    3.90
 -10   2   3   38.00    3.70
 -10   2   3   41.20    3.10
  10   2  -3   36.10    3.30
 -10  -2   3   35.40    4.10
 -10  -2   3   37.60    3.80
 -10  -2   3   39.20    2.90
  10  -2  -3   35.80    4.60
 -10  -2   3   37.00    3.10
  10   2  -2    1.70    1.30
  10   2  -2   -1.20    2.10
  10   2  -2    1.00    1.50
 -10   2   2    1.70    1.50
 -10   2   2    3.10    1.80
 -10   2   2    1.80    1.70
  10  -2  -2    0.40    2.60
 -10  -2   2    2.90    1.90
 -10  -2   2    0.30    1.50
  10  -2  -2    2.90    1.80
 -10  -2   2    8.40    2.70
 -10  -2   2   -1.50    1.30
 -10   2   1   11.40    3.30
 -10   2   1   18.30    2.40
  10   2  -1   14.20    1.80
  10   2  -1   15.10    3.00
 -10   2   1   17.20    2.30
  10   2  -1   15.30    2.10
 -10  -2   1   21.40    3.50
  10  -2  -1   13.80    3.30
  10  -2  -1   12.00    2.10
 -10  -2   1   19.60    2.00
  10   2   0   86.69    5.30
 -10   2   0   91.89    5.90
  10   2   0  105.49    5.70
 -10   2   0   86.09    5.70
 -10   2   0   74.69    6.50
  10   2   0   85.89    6.70
  10  -2   0   85.79    7.00
 -10  -2   0   82.19    5.80
  10  -2   0   82.19    5.50
 -10  -2   0   93.39    7.30
 -10  -2   0   95.99    5.40
 -10   2  -1   77.69    5.30
  10   2   1   78.19    5.30
  10   2   1   77.89    4.80
 -10   2  -1   74.09    5.50
  10   2   1   66.69    6.30
 -10   2  -1   62.79    6.00
 -10   2  -1   76.39    5.00
  10  -2   1   74.79    5.20
 -10  -2  -1   73.29    5.40
 -10  -2  -1   81.89    7.20
 -10  -2  -1   74.99    4.90
  10  -2   1   76.69    6.60
  10  -2   1   64.19    4.90
 -10   2  -2  273.67   14.80
  10   2   2  287.87   16.10
 -10   2  -2  250.77   15.80
  10   2   2  282.87   14.60
  10   2   2  283.97   14.90
 -10   2  -2  296.57   14.80
 -10  -2  -2  266.37   16.00
 -10  -2  -2  283.17   14.60
 -10  -2  -2  252.77   14.80
 -10  -2  -2  288.87   14.90
 -10   2  -3  506.75   24.90
 -10   2  -3  456.45   24.80
 -10   2  -3  458.85   26.00
  10   2   3  519.95   24.80
 -10  -2  -3  490.15   24.80
 -10  -2  -3  451.25   26.00
 -10  -2  -3  469.35   25.00
 -10   2  -4   71.09    7.10
 -10   2  -4   84.49    5.80
 -10  -2  -4   82.19    5.70
 -10  -2  -4   77.69    7.80
 -10  -2  -4   73.09    6.00
 -10   2  -5   38.00    5.50
 -10   2  -5   57.49    5.20
 -10   2  -5   56.49    4.80
 -10  -2  -5   52.69    7.20
  10  -2   5   49.70    4.70
 -10  -2  -5   46.00    4.60
 -10  -2  -5   46.50    4.60
  10   2   6   21.80    3.50
 -10   2  -6   17.80    4.20
 -10   2  -6   17.30    3.00
 -10   2  -6   21.30    3.60
  10  -2   6   14.40    3.00
 -10  -2  -6   21.60    3.20
 -10  -2  -6   14.70    3.60
 -10  -2  -6   21.80    5.60
 -10   2  -7    6.80    2.80
 -10   2  -7    6.30    3.90
  10   2   7    4.80    2.90
 -10   2  -7    7.80    3.40
 -10  -2  -7    6.60    3.70
 -10  -2  -7    8.30    5.10
  10  -2   7    6.20    2.80
 -10  -2  -7    8.00    2.90
 -10   2  -8  261.57   15.30
 -10   2  -8  267.67   16.60
 -10   2  -8  263.97   15.10
  10   2   8  264.57   15.30
 -10  -2  -8  266.17   15.70
 -10  -2  -8  265.97   17.60
 -10  -2  -8  251.47   15.00
  10  -2   8  274.07   15.40
 -10   2  -9  115.29    9.80
 -10   2  -9  107.09    8.30
  10   2   9  111.39    8.60
 -10   2  -9  114.29    8.70
 -10  -2  -9  108.09    8.50
 -10  -2  -9  109.59   10.50
  10  -2   9  113.29    8.60
 -10  -2  -9  118.49    9.20
  10   2  10   10.40    3.60
 -10   2 -10    6.10    4.00
 -10   2 -10    6.80    4.00
 -10   2 -10    4.40    3.50
 -10  -2 -10    1.00    5.80
 -10  -2 -10    6.60    3.60
  10  -2  10    7.60    3.40
 -10  -2 -10    5.70    4.50
 -10   2 -11   17.60    4.90
 -10   2 -11   18.40    4.60
 -10   2 -11   15.50    4.20
  10   2  11   14.40    4.10
  10  -2  11   12.00    3.90
 -10  -2 -11   20.90    5.30
 -10  -2 -11   14.80    4.20
 -10  -2 -11   -0.50    5.80
 -10   2 -12    8.70    4.00
  10   2  12    6.90    3.90
 -10   2 -12    8.20    4.70
 -10   2 -12   14.00    4.50
  10  -2  12    3.20    3.40
 -10  -2 -12   12.00    5.60
 -10  -2 -12    5.10    4.00
 -10  -2 -12   -3.80    5.60
  10   3 -13   28.10    4.80
 -10   3  13   30.70    4.50
  10  -3 -13   30.50    5.20
 -10  -3  13   33.50    4.80
  10  -3 -13   25.90    5.80
 -10   3  12   60.99    6.10
  10   3 -12   50.79    5.40
  10  -3 -12   49.60    6.60
 -10  -3  12   42.70    5.30
  10  -3 -12   43.40    5.70
  10   3 -11   16.30    3.50
 -10   3  11   16.20    3.60
  10  -3 -11   13.90    3.90
  10  -3 -11   11.00    4.40
  10  -3 -11   15.30    4.60
 -10  -3  11   15.50    3.60
 -10   3  10    2.90    2.90
  10   3 -10   -0.10    2.80
  10   3 -10    3.90    2.70
  10  -3 -10    4.40    4.00
  10  -3 -10   -1.00    3.10
 -10  -3  10    6.90    3.00
  10  -3 -10    0.10    3.80
  10   3  -9    7.20    2.80
  10   3  -9   13.80    2.80
 -10   3   9    1.20    2.50
  10  -3  -9    4.90    3.40
  10  -3  -9   -1.30    3.60
  10  -3  -9   -0.70    3.70
 -10  -3   9    5.60    2.80
  10   3  -8    0.10    2.40
 -10   3   8    5.10    2.50
  10   3  -8   -0.90    1.10
  10   3  -8    1.90    2.40
  10  -3  -8   -1.50    3.40
 -10  -3   8    5.40    2.60
  10  -3  -8   -1.20    3.60
  10  -3  -8    5.40    2.90
  10  -3  -8   -1.60    2.10
  10   3  -7  456.05   24.30
 -10   3   7  434.16   24.60
  10   3  -7  485.55   23.70
  10   3  -7  508.65   24.50
  10  -3  -7  482.95   25.80
 -10  -3   7  470.15   24.80
  10  -3  -7  446.76   24.90
  10  -3  -7  456.75   25.20
 -10   3   6    2.00    2.00
  10   3  -6    1.70    1.60
  10   3  -6   -0.80    2.10
  10   3  -6    0.90    1.80
  10  -3  -6   -0.80    2.90
  10  -3  -6    1.90    2.40
  10  -3  -6    0.10    2.10
 -10  -3   6    0.10    2.00
  10   3  -5   25.80    2.60
 -10   3   5   34.80    3.30
  10   3  -5   25.30    2.50
  10   3  -5   21.90    2.00
  10   3  -5   27.40    2.90
  10   3  -5   25.20    2.20
  10  -3  -5   20.20    3.50
 -10  -3   5   23.90    2.50
  10  -3  -5   29.10    4.00
 -10  -3   5   23.20    3.00
  10  -3  -5   27.00    3.30
  10  -3  -5   28.90    3.00
 -10  -3   5   21.00    2.70
 -10   3   4   24.30    2.50
  10   3  -4   26.30    2.40
  10   3  -4   22.20    2.10
  10   3  -4   19.60    2.10
 -10   3   4   25.60    2.80
  10   3  -4   21.00    2.70
 -10  -3   4   22.70    2.90
 -10  -3   4   29.20    3.10
  10  -3  -4   24.20    2.70
 -10  -3   4   23.50    2.60
  10  -3  -4   24.50    3.10
  10  -3  -4   24.00    3.80
 -10   3   3   63.09    4.30
 -10   3   3   67.09    4.60
  10   3  -3   63.99    3.80
  10   3  -3   60.19    4.10
  10   3  -3   47.20    4.80
 -10   3   3   60.29    4.60
  10   3  -3   46.00    3.80
  10  -3  -3   54.19    5.00
  10  -3  -3   59.49    4.50
 -10  -3   3   60.79    4.60
  10  -3  -3   62.49    5.90
 -10  -3   3   57.79    4.10
  10   3  -2   17.70    3.30
 -10   3   2   25.90    2.70
 -10   3   2   26.80    2.80
  10   3  -2   26.20    2.60
 -10   3   2   30.40    2.90
  10   3  -2   22.70    2.30
  10  -3  -2   24.70    2.90
 -10  -3   2   27.80    2.90
  10  -3  -2   21.30    3.90
 -10  -3   2   27.30    2.50
 -10  -3   2   25.60    3.10
  10   3  -1    5.10    1.30
  10   3  -1    1.90    2.40
 -10   3   1    5.30    2.00
 -10   3   1    3.80    1.90
  10   3  -1    3.90    1.70
 -10  -3   1    5.60    2.90
 -10  -3   1    3.60    1.90
 -10  -3   1    3.50    2.00
 -10  -3   1    5.30    1.50
  10  -3  -1    1.10    3.80
  10   3   0    0.00    1.70
 -10   3   0    2.10    2.00
  10   3   0    2.60    1.30
  10   3   0    0.10    2.50
 -10   3   0   -0.30    1.90
 -10  -3   0    0.30    1.80
 -10  -3   0    1.80    1.40
 -10  -3   0    1.90    1.90
 -10   3  -1   33.40    3.50
  10   3   1   27.90    4.20
 -10   3  -1   31.70    3.30
 -10   3  -1   27.50    3.00
 -10   3  -1   30.90    4.50
  10   3   1   32.90    3.30
  10   3   1   28.50    2.90
 -10  -3  -1   32.10    2.70
 -10  -3  -1   37.80    3.90
  10   3   2  148.09    8.00
 -10   3  -2  139.69    9.80
 -10   3  -2  147.09    8.40
  10   3   2  137.59    8.20
 -10   3  -2  128.99    8.20
 -10   3  -2  133.29    8.60
 -10  -3  -2  166.58    8.70
 -10  -3  -2  142.39    8.10
 -10  -3  -2  126.19    8.20
 -10   3  -3  515.65   27.10
 -10   3  -3  531.25   26.10
 -10   3  -3  455.75   25.50
 -10   3  -3  513.75   25.60
  10   3   3  484.65   25.40
 -10  -3  -3  470.15   26.80
 -10  -3  -3  491.85   25.40
 -10  -3  -3  480.55   25.80
 -10   3  -4   12.30    2.70
 -10   3  -4   19.70    3.70
 -10   3  -4   17.70    4.10
 -10  -3  -4   17.10    2.70
 -10  -3  -4   14.50    4.30
 -10  -3  -4   20.90    3.40
 -10   3  -5    0.00    2.30
 -10   3  -5    2.20    3.40
 -10  -3  -5    0.80    4.40
 -10  -3  -5   -1.40    2.10
  10  -3   5    0.00    2.10
 -10  -3  -5    4.70    3.20
 -10   3  -6   66.69    7.70
 -10   3  -6   65.79    5.80
 -10  -3  -6   71.59    8.20
 -10  -3  -6   77.69    6.20
 -10  -3  -6   90.29    7.00
  10  -3   6   68.99    6.10
 -10   3  -7    2.60    3.90
 -10   3  -7   -0.30    2.60
  10   3   7    1.10    2.70
 -10  -3  -7    3.40    2.80
  10  -3   7    1.40    2.60
 -10  -3  -7    3.50    3.90
 -10  -3  -7    1.30    5.50
  10   3   8  109.59    8.10
 -10   3  -8  108.79    8.40
 -10   3  -8   99.59    7.60
 -10   3  -8  101.49    9.40
  10  -3   8  108.09    7.80
 -10  -3  -8   98.69    7.90
 -10  -3  -8   93.59   11.10
 -10  -3  -8  108.59    8.80
 -10   3  -9   15.70    4.20
 -10   3  -9   13.60    3.60
 -10   3  -9    9.10    4.50
  10   3   9   14.20    3.70
 -10  -3  -9   14.70    4.90
 -10  -3  -9    3.30    6.30
  10  -3   9   12.40    3.50
 -10  -3  -9   16.70    3.80
  10   3  10   21.50    4.20
 -10   3 -10   20.10    4.70
 -10   3 -10   16.60    3.90
 -10   3 -10   19.20    5.10
  10  -3  10   20.70    4.30
 -10  -3 -10   17.40    3.90
 -10  -3 -10   15.40    5.00
 -10  -3 -10   10.80    6.90
  10   3  11    8.70    4.00
 -10   3 -11   13.90    4.60
 -10   3 -11   12.70    3.90
 -10   3 -11   17.10    4.50
 -10  -3 -11   15.10    4.10
 -10  -3 -11   -2.30    6.80
  10  -3  11    6.80    3.90
 -10  -3 -11   13.60    5.20
  10   3  12    3.10    3.80
 -10   3 -12    9.60    4.60
 -10   3 -12   11.90    4.60
 -10   3 -12    3.70    3.80
 -10  -3 -12    4.30    5.40
 -10  -3 -12    7.10    4.00
 -10  -3 -12  -10.80    6.10
  10  -3  12    4.70    3.70
  10   4 -13   -0.50    2.70
  10  -4 -13   15.00    4.30
  10   4 -12   30.60    4.30
 -10   4  12   31.50    4.60
  10  -4 -12   27.10    4.90
  10  -4 -12   16.30    5.80
 -10  -4  12   29.30    4.70
 -10   4  11   48.50    5.60
  10   4 -11   54.99    5.30
  10  -4 -11   88.99    8.50
 -10  -4  11   58.29    6.10
  10  -4 -11   52.89    6.00
  10  -4 -11   51.49    7.10
 -10   4  10    0.80    2.50
  10   4 -10    1.40    2.80
  10   4 -10   -3.70    2.80
  10  -4 -10   -2.10    3.20
  10  -4 -10   -3.00    4.30
 -10  -4  10    1.60    2.90
  10  -4 -10    0.00    4.30
  10   4  -9  199.58   10.90
  10   4  -9  191.48   11.10
 -10   4   9  169.38   11.10
  10  -4  -9  172.88   12.40
  10  -4  -9  187.48   13.10
  10  -4  -9  178.78   11.80
 -10  -4   9  198.88   11.50
  10   4  -8   14.90    2.70
 -10   4   8   15.40    3.10
  10   4  -8   17.30    3.30
  10  -4  -8   15.30    3.50
  10  -4  -8   12.40    4.60
  10  -4  -8   16.20    4.50
  10   4  -7  159.98    8.90
 -10   4   7  155.68    9.50
  10   4  -7  170.38    9.00
  10   4  -7  147.29    9.40
  10  -4  -7  148.89   10.60
  10  -4  -7  152.48    9.50
  10  -4  -7  152.98   11.80
  10  -4  -7  151.18   10.00
  10   4  -6   -2.20    2.60
  10   4  -6   -0.10    1.60
 -10   4   6   -0.40    2.00
  10   4  -6    0.20    1.70
 -10  -4   6    1.40    2.30
  10  -4  -6   -2.90    3.20
  10  -4  -6    0.10    2.50
  10  -4  -6   -0.80    2.40
  10   4  -5    2.20    1.60
  10   4  -5    3.00    1.30
  10   4  -5    0.70    2.50
 -10   4   5    1.60    2.00
  10  -4  -5    3.30    3.20
 -10  -4   5    2.00    1.70
 -10  -4   5    1.10    2.00
  10  -4  -5   -1.10    2.30
  10  -4  -5    1.60    2.40
 -10  -4   5    2.50    2.20
  10   4  -4  219.18   11.70
  10   4  -4  252.97   11.80
 -10   4   4  216.88   12.30
 -10   4   4  229.08   12.30
  10   4  -4  234.58   12.60
 -10  -4   4  212.88   12.50
 -10  -4   4  219.28   12.50
 -10  -4   4  204.38   12.10
  10  -4  -4  227.28   12.40
  10  -4  -4  229.08   12.70
 -10   4   3  139.99    8.30
 -10   4   3  140.99    8.50
  10   4  -3  143.59    7.70
  10   4  -3  152.18    7.80
  10   4  -3  130.29    9.00
  10   4  -3  144.89    7.70
  10  -4  -3  145.49    9.00
 -10  -4   3  148.59    8.40
 -10  -4   3  168.48    8.70
  10  -4  -3  134.39    8.60
 -10   4   2   63.59    5.10
 -10   4   2   70.09    5.00
  10   4  -2   67.79    4.40
  10   4  -2   58.49    5.60
 -10   4   2   77.99    4.90
  10   4  -2   56.69    4.00
 -10  -4   2   66.49    3.90
 -10  -4   2   65.79    5.00
 -10  -4   2   77.79    5.90
 -10  -4   2   60.49    5.00
  10  -4  -2   59.09    5.10
 -10  -4   2   72.89    4.40
 -10   4   1  197.28   10.40
 -10   4   1  188.08   10.10
 -10   4   1  191.18   10.60
  10   4  -1  175.18   11.40
  10   4  -1  189.28   10.10
  10   4  -1  179.88    9.60
  10  -4  -1  163.08   10.40
 -10   4   0    4.00    2.10
 -10   4   0    5.10    2.30
  10   4   0    6.60    2.00
  10   4   0    6.70    1.30
 -10   4  -1  173.38    9.30
  10   4   1  157.08    9.10
  10   4   1  154.58    8.60
 -10   4  -1  160.48    9.60
 -10   4  -1  148.39    8.80
 -10  -4  -1  153.98    9.20
 -10  -4  -1  161.18    8.70
 -10  -4  -1  156.98   10.60
 -10   4  -2    3.70    1.90
 -10   4  -2    4.00    2.10
  10   4   2    2.20    1.50
 -10   4  -2    3.50    2.50
 -10  -4  -2    3.50    1.70
 -10  -4  -2    3.50    3.80
 -10  -4  -2    2.50    2.40
  10   4   3    6.20    2.00
 -10   4  -3    7.60    2.30
 -10   4  -3    9.90    3.00
 -10   4  -3    9.60    2.40
 -10  -4  -3   13.80    4.20
 -10  -4  -3    8.30    2.10
 -10  -4  -3   10.50    3.00
 -10   4  -4    6.90    2.40
 -10   4  -4    4.50    3.70
 -10   4  -4    4.80    3.00
 -10  -4  -4    3.40    3.00
 -10  -4  -4    5.50    2.20
 -10  -4  -4    2.30    4.40
 -10   4  -5   26.60    5.30
 -10   4  -5   26.50    4.40
 -10   4  -5   23.30    3.40
 -10  -4  -5   27.30    3.30
 -10  -4  -5   23.20    4.00
 -10  -4  -5   22.90    5.30
 -10   4  -6   -0.70    3.40
 -10   4  -6   -0.40    2.60
 -10   4  -6   -1.00    3.80
  10  -4   6    0.80    2.50
 -10  -4  -6   -2.20    3.40
 -10  -4  -6    0.90    2.60
 -10  -4  -6    0.40    5.10
 -10   4  -7   16.30    3.40
 -10   4  -7   18.00    4.60
 -10   4  -7   17.30    4.70
 -10  -4  -7   20.10    4.50
 -10  -4  -7   20.90    6.50
  10  -4   7   13.20    3.30
 -10  -4  -7   17.60    3.30
 -10   4  -8    0.60    3.70
  10   4   8    0.20    2.90
 -10   4  -8    2.70    3.90
 -10   4  -8   -3.10    2.80
 -10  -4  -8   -4.80    5.90
 -10  -4  -8   -2.80    3.00
  10  -4   8    3.10    2.80
 -10  -4  -8    0.40    4.20
  10   4   9   56.19    5.80
 -10   4  -9   42.30    5.10
 -10   4  -9   54.49    8.00
 -10   4  -9   45.40    6.30
 -10  -4  -9   45.30    5.10
  10  -4   9   50.49    5.40
 -10  -4  -9   45.60    8.80
 -10  -4  -9   48.70    6.30
 -10   4 -10   11.70    4.80
 -10   4 -10    7.20    3.70
  10   4  10    8.60    4.00
 -10   4 -10    8.90    4.70
  10  -4  10   10.10    4.10
 -10  -4 -10    5.90    5.10
 -10  -4 -10   11.30    3.80
 -10  -4 -10   -4.30    6.80
 -10   4 -11    0.50    4.30
 -10   4 -11    1.50    3.70
  10   4  11    2.60    3.50
 -10   4 -11    8.10    4.70
 -10  -4 -11   -1.60    3.40
 -10  -4 -11    6.20    5.40
  10  -4  11    0.70    3.60
 -10   5  12   -0.60    3.20
  10  -5 -12   -1.70    4.10
  10  -5 -12   -4.70    5.60
 -10  -5  12    3.10    3.60
 -10   5  11   11.10    3.50
  10  -5 -11    3.70    5.50
  10  -5 -11    9.30    4.00
 -10  -5  11   15.70    3.70
  10  -5 -11    1.60    5.50
  10   5 -10    3.50    3.40
 -10   5  10    2.50    2.70
  10  -5 -10   -0.20    4.90
 -10  -5  10    5.40    3.20
  10  -5 -10   -1.40    5.00
  10  -5 -10    2.90    3.50
  10   5  -9   49.80    5.70
 -10   5   9   42.60    4.60
  10  -5  -9   47.70    6.40
 -10  -5   9   46.40    4.90
  10  -5  -9   49.10    7.10
  10  -5  -9   34.40    4.80
 -10   5   8   47.00    4.90
  10   5  -8   48.40    4.10
  10   5  -8   45.50    5.20
 -10  -5   8   52.79    5.00
  10  -5  -8   44.80    6.10
  10  -5  -8   49.40    7.00
  10  -5  -8   41.20    4.80
 -10   5   7   20.40    3.10
  10   5  -7   19.20    2.30
  10   5  -7   13.60    3.80
  10  -5  -7   16.80    4.70
  10  -5  -7   14.30    5.50
  10  -5  -7   18.30    3.60
 -10  -5   7   15.90    3.30
  10   5  -6    0.30    0.60
 -10   5   6   -1.60    2.10
  10   5  -6   -2.00    3.20
  10   5  -6    1.70    1.50
  10  -5  -6    2.10    3.40
 -10  -5   6    5.00    2.30
  10  -5  -6    1.20    2.80
 -10  -5   6    4.60    2.50
  10   5  -5    1.30    1.10
 -10   5   5    6.60    2.20
  10   5  -5    0.30    3.10
  10   5  -5    3.70    1.30
 -10  -5   5    4.10    2.40
 -10  -5   5    1.70    2.40
  10  -5  -5    0.70    2.60
  10  -5  -5    5.10    3.70
 -10   5   4   77.69    6.40
 -10   5   4   84.79    5.80
  10   5  -4   85.09    6.90
  10   5  -4   92.79    4.90
  10   5  -4   85.39    4.80
  10  -5  -4   90.49    6.80
 -10  -5   4   92.49    6.20
  10  -5  -4   80.99    7.70
 -10  -5   4   99.99    6.70
  10   5  -3   36.20    2.80
 -10   5   3   43.70    4.70
 -10   5   3   40.00    3.70
 -10  -5   3   43.80    4.80
  10  -5  -3   39.10    4.00
 -10  -5   3   38.20    3.70
  10   5  -2  123.59    7.20
  10   5  -2  115.29    9.00
 -10   5   2  131.99    7.50
 -10   5   2  127.69    7.90
 -10   5   2  124.59    8.30
  10   5  -2  130.39    6.80
  10  -5  -2  128.59    8.20
 -10  -5   2  134.29    8.70
 -10  -5   2  119.29    7.80
 -10  -5   2  145.89    7.20
  10   5  -1  104.49    5.50
 -10   5   1  102.89    6.70
 -10   5   1  104.49    6.20
 -10   5   1   96.39    7.20
  10   5  -1  100.49    6.20
 -10  -5   1   92.69    6.60
 -10  -5   1   96.29    5.50
 -10  -5   1  102.89    6.20
 -10  -5   1  106.89    8.00
  10   5   0  170.68    8.80
 -10   5   0  147.39    9.10
  10   5   0  167.98    9.50
 -10   5   0  172.58    9.70
 -10   5   0  168.38   10.20
 -10  -5   0  169.38   11.00
 -10  -5   0  167.78    8.80
 -10  -5   0  158.48    9.40
 -10   5  -1  138.69    8.40
 -10   5  -1  161.08    9.10
  10   5   1  159.68    8.80
 -10   5  -1  149.19    9.50
  10   5   1  160.28    8.20
 -10  -5  -1  136.69    8.90
 -10  -5  -1  149.29   10.60
 -10  -5  -1  137.39    8.90
 -10  -5  -1  147.79    8.20
 -10   5  -2   -0.50    1.90
 -10   5  -2    2.70    2.90
 -10   5  -2    2.20    2.20
  10   5   2    0.10    1.50
 -10  -5  -2    1.90    1.70
 -10  -5  -2    0.60    2.40
 -10  -5  -2    2.90    4.00
  10   5   3   19.10    2.50
 -10   5  -3   26.40    4.30
 -10   5  -3   19.20    2.90
 -10   5  -3   18.30    2.80
 -10   5  -4  185.98   10.80
 -10   5  -4  181.28   11.40
 -10  -5  -4  176.78   11.30
 -10  -5  -4  178.68   13.00
 -10  -5  -4  181.28   10.40
 -10   5  -5  128.99    8.70
 -10   5  -5  137.49    9.80
 -10  -5  -5  138.19    8.50
 -10  -5  -5  127.59    9.30
 -10  -5  -5  144.79   11.60
 -10   5  -6   15.20    4.40
 -10   5  -6   16.10    3.30
 -10  -5  -6   22.00    6.40
 -10  -5  -6   17.50    3.30
 -10  -5  -6   19.50    4.50
 -10   5  -7    2.10    3.00
 -10   5  -7    1.20    3.80
 -10  -5  -7   10.50    4.40
 -10  -5  -7    0.80    2.90
 -10  -5  -7   14.20    6.00
  10  -5   7    2.00    2.60
 -10   5  -8   -4.70    3.70
 -10   5  -8    5.90    3.20
 -10  -5  -8    5.00    3.20
 -10  -5  -8    4.60    6.20
  10  -5   8    1.00    2.80
 -10  -5  -8   -0.60    4.50
 -10   5  -9   18.80    3.90
 -10   5  -9   16.30    4.90
  10  -5   9   12.60    3.70
 -10  -5  -9    7.50    3.50
 -10  -5  -9   10.00    5.10
 -10  -5  -9    6.60    6.90
 -10   5 -10    9.70    3.80
  10   5  10    9.40    3.80
 -10   5 -10    4.70    4.40
 -10  -5 -10   -3.00    7.40
 -10  -5 -10    8.60    3.80
  10  -5  10   11.00    4.20
 -10  -5 -10    6.30    5.50
 -10   6  11   -3.60    2.80
 -10  -6  11    1.40    3.30
  10  -6 -11   -1.30    5.60
  10  -6 -11   -1.90    5.80
  10  -6 -11   -1.90    3.60
  10   6 -10    4.20    2.70
 -10   6  10    8.70    3.10
 -10  -6  10    7.30    3.40
  10  -6 -10    1.50    5.60
  10  -6 -10    2.20    5.80
  10  -6 -10    6.50    3.90
 -10   6   9    1.70    2.70
  10   6  -9    0.60    4.00
 -10  -6   9    0.20    2.80
  10  -6  -9    0.70    3.50
  10  -6  -9    1.30    5.00
  10  -6  -9    4.40    5.50
  10   6  -8    0.30    3.90
 -10   6   8   -0.10    2.30
  10  -6  -8    1.00    3.30
  10  -6  -8   -0.90    4.80
  10  -6  -8   -2.20    4.70
 -10  -6   8    0.90    2.80
 -10   6   7   64.69    5.50
  10   6  -7   66.89    6.90
  10  -6  -7   70.79    6.80
  10  -6  -7   69.29    9.50
  10  -6  -7   67.79    7.20
 -10  -6   7   69.79    6.10
 -10   6   6   11.20    2.50
  10   6  -6    5.20    3.80
  10  -6  -6   11.20    6.00
 -10  -6   6   14.50    3.10
  10  -6  -6    9.00    3.30
  10  -6  -6   12.30    4.50
  10   6  -5    2.10    3.60
 -10   6   5   -1.50    1.90
  10  -6  -5    0.20    2.80
 -10  -6   5   -0.10    2.50
 -10  -6   5   -2.00    2.70
  10  -6  -5   -3.70    3.90
  10   6  -4   79.39    7.60
 -10  -6   4   76.99    7.00
  10  -6  -4   82.59    8.00
  10  -6  -4   86.29    6.80
 -10  -6   4   87.59    6.10
 -10   6   3   23.30    3.70
 -10   6   3   17.40    2.30
 -10  -6   3   17.30    3.80
 -10  -6   3   21.30    2.80
  10  -6  -3   17.60    3.20
  10  -6  -3    9.20    4.20
  10   6  -2   53.59    4.10
 -10   6   2   52.89    5.80
 -10   6   2   54.89    4.10
 -10  -6   2   58.69    4.10
 -10  -6   2   64.99    6.60
 -10  -6   2   52.19    4.70
  10  -6  -2   67.29    5.60
  10   6  -1   34.10    3.10
 -10   6   1   33.60    4.50
 -10   6   1   32.80    2.90
 -10   6   1   28.40    3.60
 -10   6   1   22.60    2.60
 -10  -6   1   37.00    3.50
 -10  -6   1   53.39    6.50
 -10  -6   1   45.20    3.70
  10   6   0  272.97   13.40
 -10   6   0  242.68   13.70
 -10   6   0  247.28   15.10
 -10   6   0  254.37   13.70
  10   6   0  255.97   14.20
 -10   6   0  268.37   14.40
 -10  -6   0  250.37   14.10
 -10  -6   0  278.77   13.40
 -10  -6   0  256.97   14.10
 -10  -6   0  265.37   16.00
 -10   6  -1   74.29    5.40
  10   6   1   82.09    5.00
 -10   6  -1   81.89    7.40
 -10   6  -1   89.89    6.40
 -10  -6  -1   85.49    5.10
 -10  -6  -1   87.59    6.20
 -10  -6  -1   91.89    8.60
 -10   6  -2  947.21   55.69
 -10   6  -2 1112.09   56.79
 -10   6  -2 1128.59   56.09
 -10  -6  -2 1138.19   55.59
 -10  -6  -2 1108.19   56.19
 -10  -6  -2 1186.28   57.99
 -10   6  -3   23.40    3.30
 -10  -6  -3   17.80    5.10
 -10  -6  -3   16.90    3.70
 -10  -6  -3   15.60    2.50
 -10   6  -4  280.37   15.30
 -10   6  -4  267.67   16.40
 -10  -6  -4  282.47   17.90
 -10  -6  -4  253.87   15.70
 -10  -6  -4  289.87   15.00
 -10   6  -5   12.60    4.10
 -10   6  -5   11.80    3.10
 -10  -6  -5   11.60    4.00
 -10  -6  -5   13.70    2.90
 -10  -6  -5   18.20    6.00
 -10   6  -6   -2.70    2.60
 -10   6  -6    4.30    3.80
 -10  -6  -6    0.60    2.70
 -10  -6  -6    8.30    5.80
 -10  -6  -6    0.60    4.10
 -10   6  -7    6.10    4.20
 -10   6  -7    5.90    3.20
 -10  -6  -7    3.10    4.70
 -10  -6  -7    1.40    6.20
 -10  -6  -7    4.80    3.00
 -10   6  -8  159.18   11.60
 -10   6  -8  171.38   10.60
 -10  -6  -8  171.98   12.00
 -10  -6  -8  144.29   14.00
  10  -6   8  153.88   10.90
 -10  -6  -8  155.58   10.40
 -10   6  -9    5.10    4.00
 -10   6  -9   -0.30    3.30
  10  -6   9   -0.10    3.10
 -10  -6  -9    0.40    5.20
 -10  -6  -9   -8.50    6.30
 -10  -6  -9    0.40    3.20
  10  -7 -10   30.50    5.20
 -10  -7  10   40.10    4.90
  10  -7 -10   28.30    7.90
  10  -7 -10   31.20    7.60
  10   7  -9   85.89    9.90
 -10  -7   9   87.19    7.40
  10  -7  -9   96.29   11.30
  10  -7  -9  101.49    9.70
  10  -7  -9   84.29    8.40
  10   7  -8    1.50    4.40
  10  -7  -8   -4.20    5.30
  10  -7  -8    2.20    5.10
  10  -7  -8   -0.80    3.40
 -10  -7   8    2.20    2.90
  10   7  -7    1.00    4.10
  10  -7  -7   -0.10    3.20
  10  -7  -7   -1.50    5.20
 -10  -7   7    1.60    2.60
  10  -7  -7   -0.40    4.80
  10   7  -6    3.30    4.40
  10  -7  -6    9.70    5.10
  10  -7  -6    7.10    6.00
  10  -7  -6    4.30    3.30
 -10  -7   6    7.10    2.70
  10   7  -5   10.10    4.50
  10  -7  -5    7.50    4.70
 -10  -7   5   13.40    3.40
 -10  -7   5   13.00    2.70
  10  -7  -5    3.70    3.10
  10   7  -4    9.90    4.60
 -10   7   4   12.40    3.80
 -10  -7   4   17.30    3.90
  10  -7  -4   14.20    3.40
  10  -7  -4   13.40    4.90
 -10  -7   4   20.50    2.90
 -10   7   3    7.90    3.40
 -10  -7   3    3.10    3.40
  10  -7  -3    0.40    4.10
  10  -7  -3   -0.90    2.80
 -10  -7   3    2.80    2.10
 -10   7   2  100.79    8.20
  10  -7  -2  109.49    9.10
  10  -7  -2  117.19    7.80
 -10  -7   2  102.89    6.80
 -10  -7   2  106.59    8.80
 -10   7   1   24.20    4.10
  10  -7  -1   16.20    3.30
 -10  -7   1   22.20    2.70
 -10   7   0    0.10    0.70
 -10   7   0   -1.30    3.40
 -10   7   0   -2.10    2.50
 -10  -7   0    1.10    2.00
 -10  -7   0    8.20    2.60
 -10  -7   0   15.30    4.60
 -10   7  -1   29.70    3.80
 -10   7  -1   20.30    4.70
 -10  -7  -1   44.70    4.00
 -10   7  -2  176.08   12.00
 -10   7  -2  183.38   10.70
 -10  -7  -2  180.08   13.30
 -10  -7  -2  169.68   10.90
 -10   7  -3   38.70    4.30
 -10   7  -3   37.90    5.50
 -10  -7  -3   45.90    7.20
 -10  -7  -3   42.80    5.10
 -10   7  -4   71.59    6.40
 -10   7  -4   66.79    7.80
 -10  -7  -4   87.19    7.70
 -10  -7  -4   93.29   10.30
 -10   7  -5    0.30    4.00
 -10   7  -5   -2.50    2.70
 -10  -7  -5    3.40    2.40
 -10  -7  -5    4.60    4.10
 -10  -7  -5    4.10    5.80
 -10   7  -6   26.90    5.50
 -10   7  -6   25.20    3.70
 -10  -7  -6   21.60    3.60
 -10  -7  -6   20.30    7.10
 -10  -7  -6   39.10    5.50
 -10   7  -7    3.60    3.10
 -10   7  -7    3.40    4.10
 -10  -7  -7    1.70    3.10
 -10  -7  -7   -3.30    4.80
 -10  -7  -7   -2.40    6.10
 -10   7  -8   10.50    4.50
 -10   7  -8    3.70    3.50
 -10  -7  -8    1.90    6.70
 -10  -7  -8   10.10    3.40
 -10  -7  -8   -0.70    5.10
  10   8  -8    0.60    5.80
  10  -8  -8   -7.80    5.40
  10  -8  -8    7.50    6.20
  10  -8  -8    3.00    3.60
  10   8  -7   13.10    5.30
  10  -8  -7   16.70    6.90
  10  -8  -7   21.30    6.50
  10  -8  -7   11.00    4.00
  10   8  -6   40.30    6.50
  10  -8  -6   35.70    8.00
  10  -8  -6   36.10    6.80
  10  -8  -6   42.80    5.00
  10   8  -5   38.40    6.50
  10  -8  -5   51.79    7.10
  10  -8  -5   53.89    8.90
  10  -8  -5   45.00    5.20
 -10   8   4    3.50    3.90
  10  -8  -4    1.60    3.00
 -10  -8   4    5.80    3.80
  10  -8  -4    8.70    4.90
 -10   8   3   10.30    4.30
 -10  -8   3   15.40    4.50
  10  -8  -3   17.00    3.50
  10  -8  -3   13.70    5.20
 -10   8   2    1.80    3.80
 -10  -8   2    7.30    4.00
  10  -8  -2   -4.70    4.40
  10  -8  -2    0.30    2.70
 -10   8   1   17.70    4.60
  10  -8  -1   16.60    3.40
  10  -8  -1   24.20    5.30
 -10  -8   1   29.40    5.10
 -10   8   0    7.30    4.10
 -10  -8   0    8.50    4.70
  10  -8   0    6.30    2.90
 -10   8  -1  110.79    7.70
 -10   8  -1  108.79    9.40
 -10  -8  -1  113.39   10.50
 -10  -8  -1   98.99    7.70
 -10   8  -2    3.10    4.50
 -10   8  -2   10.30    3.10
 -10  -8  -2   18.20    5.90
 -10  -8  -2   11.20    3.70
 -10   8  -3   33.30    4.10
 -10   8  -3   38.50    6.10
 -10  -8  -3   33.10    7.00
 -10  -8  -3   31.60    4.90
 -10   8  -4   16.30    5.10
 -10   8  -4    6.10    3.10
 -10  -8  -4    5.50    4.40
 -10  -8  -4    5.50    5.80
 -10   8  -5   12.00    3.40
 -10   8  -5    9.50    5.00
 -10  -8  -5   11.40    6.00
 -10  -8  -5   18.70    5.00
 -10   8  -6   -0.10    1.90
 -10   8  -6    5.90    4.80
 -10  -8  -6   -0.50    6.30
 -10  -8  -6    5.10    5.10
 -10   8  -7   30.50    5.90
 -10  -8  -7   20.60    5.90
  10   9  -5   -4.40    5.80
  10  -9  -5    6.90    7.00
  10  -9  -5    7.90    3.30
  10  -9  -5    2.10    5.60
  10  -9  -4   -2.20    5.20
  10  -9  -4   -2.20    3.00
  10  -9  -4   -2.80    6.20
 -10   9   3    0.80    4.30
 -10  -9   3   -1.10    3.80
  10  -9  -3    6.80    5.20
  10  -9  -3    2.00    3.10
 -10   9   2    0.30    4.50
  10  -9  -2   -0.30    2.90
  10  -9  -2    2.30    4.90
 -10  -9   2    8.20    4.40
 -10   9   1    3.20    4.60
  10  -9  -1    2.20    2.50
 -10  -9   1   -1.80    4.70
  10  -9  -1    0.30    4.90
 -10   9   0   10.40    4.90
 -10  -9   0   18.70    5.70
  10  -9   0   13.90    5.40
 -10   9  -1    2.90    4.50
 -10  -9  -1    4.90    5.00
  10  -9   1    0.30    1.40
 -10   9  -2   42.10    6.60
 -10  -9  -2   42.70    7.60
 -10   9  -3    5.40    4.80
 -10  -9  -3    6.70    6.20
 -10   9  -4   12.50    5.60
 -10  -9  -4   19.60    7.10
 -10  -9  -4   19.90    5.20
 -11   0  14   16.80    4.10
  11   0 -14   14.60    4.70
  11   0 -13   -0.70    3.70
  11   0 -13   -2.70    4.00
 -11   0  13   -3.00    2.80
  11   0 -12   22.70    4.60
 -11   0  12   36.70    4.80
  11   0 -12   29.20    4.50
 -11   0  11   -1.10    2.60
  11   0 -11    0.60    3.30
  11   0 -11   -1.20    3.40
  11   0 -10   19.40    3.80
 -11   0  10   20.20    3.70
  11   0 -10   17.00    3.70
 -11   0   9    0.40    2.40
  11   0  -9   -3.10    1.50
  11   0  -9   -2.10    2.80
  11   0  -9    0.30    2.80
  11   0  -8   14.80    3.10
  11   0  -8   19.90    2.20
  11   0  -8   15.30    2.10
  11   0  -8   15.90    3.20
 -11   0   8   16.60    3.00
  11   0  -7    2.50    1.40
  11   0  -7   -0.70    2.30
  11   0  -7    0.00    1.70
  11   0  -7   -0.90    2.30
 -11   0   7    3.30    2.30
  11   0  -6  322.47   17.50
  11   0  -6  333.27   17.80
  11   0  -6  322.17   17.90
 -11   0   6  359.86   18.00
 -11   0   5    0.50    2.00
  11   0  -5    0.70    1.70
  11   0  -5   -2.20    2.00
 -11   0   4  630.34   31.20
  11   0  -4  604.24   31.30
  11   0  -4  602.14   31.10
  11   0  -4  583.64   31.00
  11   0  -3   -1.30    1.50
 -11   0   3   -1.30    1.80
 -11   0   3    0.10    1.60
  11   0  -3   -0.50    2.30
 -11   0   3   -1.80    2.00
 -11   0   2  194.08   10.20
 -11   0   2  174.48   10.40
 -11   0   2  187.68   10.90
  11   0  -2  192.58   11.20
  11   0  -2  174.08   10.10
  11   0  -1    1.00    2.90
  11   0  -1    0.70    1.50
 -11   0   1   -1.60    1.60
 -11   0   1   -2.50    2.50
  11   0  -1   -0.40    1.90
 -11   0   0   89.39    7.30
  11   0   0   96.19    6.00
  11   0   0  101.89    7.70
  11   0   0   96.89    6.30
 -11   0   0  104.19    6.20
 -11   0  -1   -3.00    3.00
  11   0   1    1.50    1.60
 -11   0  -1   -0.40    1.80
  11   0   1    1.40    3.20
  11   0   1    0.80    1.90
 -11   0  -2   25.60    4.10
  11   0   2   27.50    3.10
  11   0   2   26.20    4.40
 -11   0  -2   28.90    2.90
 -11   0  -2   26.00    3.30
 -11   0  -3    0.90    2.00
 -11   0  -3   -2.10    3.00
 -11   0  -3   -0.10    2.40
 -11   0  -4  142.99   10.00
 -11   0  -4  152.28    8.60
 -11   0  -4  135.89    8.70
 -11   0  -5   -0.30    2.30
 -11   0  -5   -2.50    2.50
 -11   0  -5    0.00    3.70
 -11   0  -6   21.30    5.00
 -11   0  -6   22.50    3.80
  11   0   6   23.20    3.60
 -11   0  -6   23.60    3.30
 -11   0  -7   -1.00    3.20
 -11   0  -7   -0.50    2.70
  11   0   7   -2.80    2.60
 -11   0  -7    6.70    4.60
  11   0   8   -1.80    2.70
 -11   0  -8    2.30    3.10
 -11   0  -8   -1.40    3.40
 -11   0  -8    4.40    4.50
 -11   0  -9    3.90    4.00
 -11   0  -9    0.30    3.30
 -11   0  -9    1.40    4.50
  11   0   9   -1.20    3.00
  11   0  10   57.79    6.30
 -11   0 -10   61.29    5.90
 -11   0 -10   57.79    8.30
 -11   0 -10   57.29    6.50
 -11   0 -11    3.10    4.40
  11   0  11    0.90    3.20
 -11   0 -11   -0.50    3.40
 -11   0 -11    0.90    4.40
 -11   0 -12   13.00    5.10
  11   0  12    4.90    3.60
 -11   0 -12    5.40    3.90
 -11   0 -12    8.40    5.10
  11   1 -13    6.60    4.00
 -11   1  13    4.70    3.40
  11  -1 -13    2.40    3.70
  11  -1 -13    4.70    3.90
 -11  -1  13    2.80    3.10
  11   1 -12   -5.20    3.30
 -11   1  12    3.10    3.30
  11   1 -12   -6.40    2.00
  11  -1 -12   -0.30    3.70
  11  -1 -12   -5.80    3.70
 -11  -1  12    0.50    3.00
  11   1 -11   34.10    3.80
 -11   1  11   28.30    4.20
  11   1 -11   22.00    4.20
 -11  -1  11   32.70    4.40
  11  -1 -11   20.10    4.40
  11  -1 -11   33.80    4.90
  11   1 -10   37.80    4.20
 -11   1  10   42.50    4.80
  11   1 -10   37.70    4.60
  11  -1 -10   35.40    4.80
  11  -1 -10   39.20    4.70
 -11  -1  10   40.40    4.50
  11   1  -9   22.00    3.60
  11   1  -9   19.60    3.40
 -11   1   9   28.70    3.70
  11   1  -9   28.30    3.00
  11  -1  -9   17.00    3.70
  11  -1  -9   22.80    3.30
  11  -1  -9   19.80    3.90
 -11  -1   9   31.80    3.90
  11   1  -8  189.68   10.60
  11   1  -8  181.28   11.00
 -11   1   8  184.28   11.10
  11  -1  -8  184.18   11.30
  11  -1  -8  184.68   10.70
  11  -1  -8  181.48   10.90
 -11  -1   8  195.48   11.10
  11  -1  -8  177.58   11.20
  11   1  -7    8.00    2.50
 -11   1   7    7.30    2.50
  11  -1  -7    7.00    2.90
  11  -1  -7    9.30    2.30
  11  -1  -7    5.80    2.70
 -11  -1   7    7.40    2.50
 -11   1   6   78.79    5.50
  11   1  -6   64.79    4.30
  11   1  -6   77.89    5.30
  11   1  -6   82.99    5.70
  11  -1  -6   72.69    5.80
  11  -1  -6   63.89    5.60
 -11  -1   6   70.39    5.50
  11  -1  -6   73.49    5.40
 -11   1   5    1.40    2.00
  11   1  -5    0.10    1.90
  11   1  -5    1.30    1.60
  11   1  -5    3.10    2.00
  11  -1  -5    3.20    2.10
 -11  -1   5    2.90    1.90
  11  -1  -5    0.00    2.20
  11   1  -4    4.50    2.00
 -11   1   4    3.70    2.00
  11   1  -4    2.80    1.90
  11   1  -4    4.10    1.80
 -11  -1   4    5.40    1.90
  11  -1  -4    5.00    2.00
  11  -1  -4    4.20    2.30
 -11  -1   4    5.80    2.20
 -11   1   3    1.10    1.90
 -11   1   3    0.20    1.70
  11   1  -3    1.40    2.10
  11   1  -3    0.30    1.50
  11  -1  -3   -0.50    1.30
 -11  -1   3    0.80    1.40
  11  -1  -3    2.50    2.40
 -11  -1   3   -0.30    2.00
 -11  -1   3    1.20    1.90
  11   1  -2   15.90    3.00
  11   1  -2   15.00    2.20
 -11   1   2   16.70    2.50
  11   1  -2   14.20    2.10
 -11   1   2   19.30    2.30
 -11   1   2   13.20    3.10
 -11   1   2   18.90    2.20
  11  -1  -2   13.00    3.00
 -11  -1   2   13.90    3.10
 -11  -1   2   19.90    2.10
  11  -1  -2   12.50    2.20
  11   1  -1   79.79    5.30
  11   1  -1   79.09    6.20
 -11   1   1   84.79    5.50
  11   1  -1   78.19    5.00
 -11   1   1   74.49    6.40
 -11  -1   1   82.79    5.10
  11  -1  -1   74.49    5.20
  11  -1  -1   77.59    6.50
 -11  -1   1   81.59    6.50
 -11   1   0   10.00    3.40
  11   1   0    9.40    1.80
 -11   1   0   15.20    2.40
  11   1   0   12.00    2.30
  11   1   0   17.00    3.60
  11  -1   0   11.60    3.50
  11  -1   0   14.80    2.50
 -11  -1   0   15.80    2.10
  11  -1   0   11.10    1.90
 -11  -1   0   17.70    3.70
 -11   1  -1  213.18   13.40
  11   1   1  210.08   12.20
 -11   1  -1  225.58   12.10
  11   1   1  228.48   13.50
  11   1   1  226.88   12.00
 -11  -1  -1  228.58   13.60
 -11  -1  -1  227.08   12.10
  11  -1   1  223.78   12.30
  11  -1   1  238.68   13.70
 -11  -1  -1  217.78   12.40
 -11   1  -2  202.48   11.10
  11   1   2  214.98   11.10
 -11   1  -2  206.18   11.20
  11   1   2  202.98   11.20
 -11   1  -2  187.88   12.20
 -11  -1  -2  172.38   12.30
 -11  -1  -2  219.98   11.10
 -11  -1  -2  206.78   11.40
 -11   1  -3  250.97   15.10
 -11   1  -3  283.37   13.90
 -11   1  -3  250.57   14.10
 -11  -1  -3  251.27   14.00
 -11  -1  -3  224.98   15.00
 -11  -1  -3  263.87   13.80
 -11   1  -4    4.80    2.20
 -11   1  -4    2.30    2.60
 -11   1  -4    2.80    2.90
 -11  -1  -4    1.50    3.60
 -11  -1  -4    1.30    2.10
 -11  -1  -4    3.20    2.60
 -11   1  -5   30.10    3.90
 -11   1  -5   32.80    4.90
 -11   1  -5   29.10    3.40
 -11  -1  -5   27.30    3.30
 -11  -1  -5   28.80    5.40
 -11  -1  -5   27.80    3.90
 -11   1  -6   68.59    7.30
  11   1   6   73.59    6.00
 -11   1  -6   65.99    6.00
 -11   1  -6   72.99    5.50
  11  -1   6   62.59    5.90
 -11  -1  -6   54.59    7.20
 -11  -1  -6   64.49    6.20
 -11  -1  -6   70.29    5.80
  11   1   7   -2.00    2.50
 -11   1  -7   -1.70    2.70
 -11   1  -7   -2.60    3.00
 -11   1  -7    0.10    3.30
 -11  -1  -7    1.20    4.60
  11  -1   7    0.50    2.80
 -11  -1  -7    0.40    2.70
 -11  -1  -7   -0.90    3.40
 -11   1  -8   65.49    6.20
  11   1   8   60.49    6.60
 -11   1  -8   57.99    6.60
 -11   1  -8   67.69    7.70
  11  -1   8   62.49    6.40
 -11  -1  -8   72.19    6.30
 -11  -1  -8   61.19    6.80
 -11  -1  -8   63.09    7.90
  11   1   9   88.59    7.70
 -11   1  -9   93.69    8.10
 -11   1  -9   90.19    8.80
 -11   1  -9   86.09    7.40
 -11  -1  -9   89.59   10.00
 -11  -1  -9   91.99    7.50
 -11  -1  -9   86.19    8.20
  11  -1   9   87.09    7.60
  11   1  10   79.99    7.50
 -11   1 -10   78.89    8.20
 -11   1 -10   70.19    7.10
 -11   1 -10   81.29    7.80
  11  -1  10   78.39    7.40
 -11  -1 -10   60.19    9.10
 -11  -1 -10   68.79    7.80
 -11  -1 -10   63.19    6.20
 -11   1 -11    1.10    3.50
 -11   1 -11   -2.40    4.10
 -11   1 -11    4.00    3.80
  11   1  11    1.20    3.40
  11  -1  11    1.40    3.50
 -11  -1 -11   -1.80    4.90
 -11  -1 -11    0.30    3.50
 -11  -1 -11   -4.50    4.20
 -11   1 -12   10.60    4.10
 -11   1 -12   26.50    5.50
  11   1  12   10.50    4.10
 -11   1 -12   12.70    5.10
  11  -1  12   16.70    4.60
 -11  -1 -12   14.00    4.60
 -11  -1 -12   15.90    5.20
 -11  -1 -12    5.50    5.40
  11   2 -13   17.50    4.30
 -11   2  13   11.20    3.70
  11  -2 -13    8.00    4.70
 -11  -2  13    7.30    3.50
  11  -2 -13   10.20    4.10
  11   2 -12   26.80    4.40
 -11   2  12   26.40    4.30
 -11  -2  12   30.60    4.50
  11  -2 -12   23.30    4.60
  11  -2 -12   31.00    5.50
  11   2 -11   -3.20    3.00
 -11   2  11    1.40    2.80
  11  -2 -11    0.00    3.90
  11  -2 -11    0.70    3.50
 -11  -2  11   -0.40    2.80
  11   2 -10  203.78   12.00
 -11   2  10  210.28   12.10
  11   2 -10  210.58   11.10
  11  -2 -10  186.48   12.10
 -11  -2  10  195.38   12.00
  11  -2 -10  175.88   12.30
  11  -2 -10  192.28   12.20
  11   2  -9   39.00    4.40
  11   2  -9   46.10    3.90
 -11   2   9   41.80    4.40
  11   2  -9   39.80    3.90
  11  -2  -9   36.00    4.50
 -11  -2   9   43.80    4.50
  11  -2  -9   35.70    4.90
  11  -2  -9   38.80    5.60
  11   2  -8   19.30    3.20
 -11   2   8   25.00    3.30
  11   2  -8   25.50    2.60
  11   2  -8   19.70    2.60
  11  -2  -8   17.70    3.30
  11  -2  -8   18.30    3.90
  11  -2  -8   21.40    3.90
  11  -2  -8   20.10    2.50
 -11  -2   8   18.00    3.30
  11   2  -7    0.90    2.30
  11   2  -7   -2.30    1.60
  11   2  -7    1.70    1.80
 -11   2   7    2.80    2.30
  11  -2  -7    5.00    2.70
  11  -2  -7    2.70    2.60
 -11  -2   7    2.30    2.30
  11  -2  -7    2.90    1.80
  11  -2  -7   -0.40    2.90
  11   2  -6   45.70    4.40
  11   2  -6   44.40    3.70
  11   2  -6   38.80    4.00
 -11   2   6   48.60    4.40
  11   2  -6   45.40    3.40
 -11  -2   6   45.20    4.50
  11  -2  -6   46.60    3.40
  11  -2  -6   42.50    4.60
  11  -2  -6   49.70    4.40
  11  -2  -6   46.60    5.20
  11   2  -5   53.29    4.00
 -11   2   5   60.29    4.70
  11   2  -5   54.09    4.50
  11   2  -5   61.89    4.70
  11  -2  -5   58.49    5.50
  11  -2  -5   57.69    3.80
  11  -2  -5   52.29    5.10
 -11  -2   5   62.79    3.90
 -11  -2   5   57.69    4.90
  11   2  -4    5.00    1.80
  11   2  -4    6.00    1.90
  11   2  -4    4.90    1.60
 -11   2   4    2.70    2.00
  11   2  -4    4.50    1.50
 -11  -2   4    7.90    2.00
  11  -2  -4    5.10    2.60
  11  -2  -4    4.10    2.40
 -11  -2   4    5.40    1.20
 -11  -2   4    6.60    2.20
  11   2  -3  468.65   24.30
 -11   2   3  491.65   24.70
 -11   2   3  475.75   24.60
 -11   2   3  463.95   24.10
  11   2  -3  462.45   24.30
  11   2  -3  482.45   24.80
  11  -2  -3  472.35   25.40
 -11  -2   3  492.15   24.70
 -11  -2   3  483.75   24.10
 -11  -2   3  468.95   24.30
 -11  -2   3  460.95   24.90
  11   2  -2   99.19    6.20
  11   2  -2  100.39    7.00
 -11   2   2   95.29    6.50
  11   2  -2  104.29    6.10
 -11   2   2  111.89    6.10
 -11   2   2  107.19    6.60
 -11  -2   2  105.49    6.70
  11  -2  -2   96.59    7.40
 -11  -2   2  106.89    6.20
 -11  -2   2  109.39    6.20
 -11  -2   2  113.89    7.50
 -11   2   1    5.90    3.00
 -11   2   1    6.10    2.00
  11   2  -1    6.60    1.90
  11   2  -1    5.70    2.60
  11   2  -1    4.70    1.50
 -11   2   1    6.80    1.90
  11  -2  -1    3.00    2.60
 -11  -2   1    9.50    3.10
 -11  -2   1    6.70    1.70
 -11   2   0   -1.00    1.70
  11   2   0   -1.10    1.30
  11   2   0    0.40    2.50
 -11   2   0    2.50    1.80
 -11   2   0    1.30    2.40
  11   2   0    2.70    1.80
 -11  -2   0    1.70    1.60
 -11  -2   0   -1.20    2.00
 -11  -2   0    4.30    3.00
  11  -2   0    0.50    2.60
  11   2   1  193.58   11.80
 -11   2  -1  189.78   11.90
  11   2   1  189.08   10.60
 -11   2  -1  177.08   10.70
  11   2   1  188.78   10.30
 -11   2  -1  204.18   10.70
 -11  -2  -1  190.38   12.00
 -11  -2  -1  185.98   10.70
 -11  -2  -1  195.18   10.40
 -11   2  -2    0.10    3.00
 -11   2  -2   -0.90    1.90
  11   2   2    1.10    1.40
  11   2   2    0.00    1.70
 -11   2  -2    0.60    1.80
 -11  -2  -2    5.60    3.40
 -11  -2  -2    1.40    2.20
 -11  -2  -2   -0.60    1.80
 -11   2  -3    1.90    1.90
 -11   2  -3    0.30    2.70
 -11  -2  -3   -0.30    1.90
 -11  -2  -3   -0.10    3.70
 -11   2  -4   53.29    6.40
 -11   2  -4   50.09    4.80
 -11  -2  -4   57.49    5.30
 -11  -2  -4   46.30    6.30
 -11  -2  -4   55.59    4.60
 -11   2  -5   97.39    8.40
 -11   2  -5   99.89    6.80
 -11   2  -5   99.49    7.20
 -11  -2  -5   98.89    7.30
 -11  -2  -5   97.59    6.70
 -11  -2  -5   88.49    9.00
 -11   2  -6   20.00    3.70
 -11   2  -6   16.50    3.10
 -11   2  -6   15.40    4.50
 -11  -2  -6   17.90    3.20
  11  -2   6   19.70    3.30
 -11  -2  -6   18.30    3.80
 -11  -2  -6   21.10    5.50
  11   2   7  647.34   33.60
 -11   2  -7  634.34   33.20
 -11   2  -7  690.83   33.70
 -11   2  -7  618.34   34.80
 -11  -2  -7  602.34   33.50
  11  -2   7  645.64   33.50
 -11  -2  -7  603.04   35.10
 -11  -2  -7  659.13   33.30
 -11   2  -8   68.89    6.90
 -11   2  -8   63.89    8.00
 -11   2  -8   75.59    6.50
  11   2   8   75.29    6.90
 -11  -2  -8   69.59    9.60
  11  -2   8   71.39    6.60
 -11  -2  -8   77.99    7.50
 -11  -2  -8   70.09    6.50
  11   2   9   40.40    5.20
 -11   2  -9   49.60    7.30
 -11   2  -9   47.00    4.90
 -11   2  -9   47.70    5.60
  11  -2   9   55.59    5.60
 -11  -2  -9   49.00    6.10
 -11  -2  -9   48.10    5.00
 -11  -2  -9   40.20    7.50
  11   2  10  148.79   10.60
 -11   2 -10  136.89    9.70
 -11   2 -10  148.29   11.70
 -11   2 -10  145.69   10.30
  11  -2  10  149.09   10.30
 -11  -2 -10  137.09   10.70
 -11  -2 -10  110.59   12.60
 -11  -2 -10  153.18   10.00
 -11   2 -11   -1.40    3.30
  11   2  11   -0.50    3.50
 -11   2 -11   -0.20    4.20
 -11   2 -11    7.40    4.50
 -11  -2 -11  -12.30    5.40
 -11  -2 -11    0.00    4.50
  11  -2  11    2.20    3.40
 -11  -2 -11    2.20    3.60
 -11   2 -12    1.60    3.60
 -11   2 -12    6.20    4.40
 -11   2 -12    3.70    4.40
  11   2  12   -0.10    3.80
 -11  -2 -12   -8.10    5.60
 -11  -2 -12   -3.10    4.90
  11  -2  12   -0.80    3.60
 -11  -2 -12    5.50    4.00
  11   3 -13  114.79    9.20
 -11   3  13   95.29    8.30
 -11  -3  13  113.39    8.60
  11  -3 -13   82.09    9.50
  11  -3 -13  102.29    9.00
 -11   3  12   23.10    4.20
  11   3 -12   22.70    4.20
  11  -3 -12   11.70    5.00
 -11  -3  12   18.60    4.10
  11  -3 -12   14.80    4.10
  11   3 -11   10.20    3.50
 -11   3  11   12.60    3.30
  11  -3 -11   11.50    4.50
 -11  -3  11   14.20    3.50
  11  -3 -11    9.30    3.70
  11   3 -10    0.70    2.80
  11   3 -10    2.00    1.30
 -11   3  10    0.80    2.60
  11  -3 -10    0.20    3.10
 -11  -3  10   -0.80    2.60
  11  -3 -10   -3.00    3.70
  11  -3 -10    0.90    4.00
 -11   3   9  123.79    8.20
  11   3  -9  118.29    8.00
  11   3  -9  119.09    7.50
  11  -3  -9  109.29    9.40
  11  -3  -9  102.49    8.60
  11  -3  -9  120.89    9.30
 -11  -3   9  120.69    8.30
 -11   3   8  431.16   23.10
  11   3  -8  450.15   22.90
  11   3  -8  428.66   22.50
  11   3  -8  433.46   22.00
  11  -3  -8  424.66   23.30
  11  -3  -8  421.36   24.00
 -11  -3   8  429.46   23.20
  11   3  -7   66.89    6.90
  11   3  -7   86.79    5.90
  11   3  -7   83.09    4.80
  11   3  -7   78.89    5.70
 -11   3   7   83.19    6.20
 -11  -3   7  100.79    6.60
  11  -3  -7   79.79    6.70
  11  -3  -7   85.09    7.30
  11  -3  -7   81.79    5.90
  11   3  -6  108.09    5.80
  11   3  -6  104.29    6.70
  11   3  -6  107.59    6.70
 -11   3   6  114.39    7.10
  11   3  -6  112.19    6.70
  11   3  -6  105.09    5.90
  11  -3  -6  108.99    6.70
 -11  -3   6  105.99    7.30
  11  -3  -6   96.19    8.00
  11  -3  -6  108.79    7.50
  11   3  -5    0.20    1.80
 -11   3   5    1.40    2.00
  11   3  -5    0.30    1.50
  11   3  -5    0.40    1.10
  11  -3  -5   -1.40    2.30
 -11  -3   5   -0.20    1.40
 -11  -3   5    1.40    2.10
  11  -3  -5    2.80    3.20
  11  -3  -5    2.40    1.90
 -11  -3   5    1.00    1.70
  11   3  -4   55.19    4.60
 -11   3   4   58.19    4.20
  11   3  -4   56.79    4.20
 -11   3   4   63.99    4.70
  11   3  -4   52.89    4.00
  11   3  -4   58.29    3.70
 -11  -3   4   56.49    3.90
 -11  -3   4   53.69    4.90
  11  -3  -4   56.49    4.80
 -11  -3   4   64.79    4.80
  11  -3  -4   59.79    4.40
  11   3  -3  546.15   27.20
 -11   3   3  528.85   27.60
 -11   3   3  533.15   27.30
  11   3  -3  528.95   27.90
 -11   3   3  545.35   27.60
  11   3  -3  532.85   27.20
  11   3  -3  508.45   27.20
  11  -3  -3  541.15   27.40
 -11  -3   3  545.25   28.00
 -11  -3   3  541.75   27.70
 -11  -3   3  520.45   27.30
  11   3  -2   93.99    5.70
 -11   3   2   94.69    5.90
 -11   3   2   96.59    6.10
 -11   3   2   89.69    6.10
  11   3  -2   95.69    5.50
  11   3  -2   85.59    6.70
 -11  -3   2   90.59    6.30
 -11  -3   2  100.39    5.90
 -11  -3   2   93.89    5.50
 -11  -3   2   91.69    7.00
  11   3  -1   -0.10    1.70
 -11   3   1    1.50    1.90
 -11   3   1    1.00    1.80
  11   3  -1   -1.50    2.60
  11   3  -1    1.10    1.30
 -11  -3   1    0.60    1.80
 -11  -3   1    2.30    3.20
 -11  -3   1   -0.20    1.90
 -11  -3   1    2.20    1.40
  11   3   0    5.50    1.50
 -11   3   0    4.20    2.10
 -11   3   0    4.20    2.10
  11   3   0    2.90    1.90
  11   3   0   -0.80    2.70
 -11  -3   0    5.00    1.60
 -11  -3   0    2.60    2.00
 -11  -3   0    4.50    3.70
 -11   3  -1   25.00    2.90
  11   3   1   31.30    3.50
 -11   3  -1   33.00    3.20
 -11   3  -1   30.40    4.50
  11   3   1   30.60    2.90
 -11   3  -1   33.40    4.10
 -11  -3  -1   31.30    2.70
 -11  -3  -1   40.80    5.30
 -11  -3  -1   27.70    3.30
 -11   3  -2  106.09    8.50
 -11   3  -2  106.09    7.30
 -11   3  -2  100.79    6.80
 -11   3  -2  109.19    7.00
  11   3   2  110.39    6.60
 -11  -3  -2  115.89    6.70
 -11  -3  -2  125.19    9.10
 -11  -3  -2  110.79    7.30
 -11   3  -3    3.40    2.30
 -11   3  -3    6.20    2.70
 -11   3  -3    7.60    3.60
 -11  -3  -3    7.90    2.10
 -11  -3  -3   10.60    2.90
 -11   3  -4    6.40    2.40
 -11   3  -4    5.70    3.00
 -11   3  -4    5.00    3.50
 -11  -3  -4   10.50    3.10
 -11  -3  -4    9.30    2.40
 -11  -3  -4    6.10    4.20
 -11   3  -5   36.70    5.60
 -11   3  -5   37.30    4.00
 -11  -3  -5   40.60    4.70
 -11  -3  -5   33.10    5.90
 -11  -3  -5   32.30    3.70
 -11   3  -6   83.59    6.50
 -11   3  -6   89.59    8.50
  11  -3   6   81.19    6.50
 -11  -3  -6   84.99    6.40
 -11  -3  -6   81.99    9.80
 -11  -3  -6   80.49    7.30
 -11   3  -7   50.89    7.40
 -11   3  -7   47.90    4.80
  11  -3   7   51.19    5.60
 -11  -3  -7   56.99    5.60
 -11  -3  -7   53.69    7.90
 -11  -3  -7   65.49    6.20
 -11   3  -8  170.68   13.10
  11   3   8  183.98   11.90
 -11   3  -8  183.18   11.30
 -11  -3  -8  181.38   11.30
 -11  -3  -8  189.48   12.30
  11  -3   8  197.18   11.70
 -11  -3  -8  181.18   14.70
  11   3   9   93.69    7.80
 -11   3  -9   82.49    7.60
 -11   3  -9   99.19    8.30
 -11   3  -9   85.99    9.00
 -11  -3  -9   81.69   10.40
 -11  -3  -9   92.99    7.50
 -11  -3  -9   89.89    8.80
  11  -3   9   94.49    8.00
 -11   3 -10   24.10    4.90
 -11   3 -10   27.80    5.60
 -11   3 -10   24.20    4.20
  11   3  10   17.70    4.30
 -11  -3 -10   22.50    4.30
  11  -3  10   29.30    4.70
 -11  -3 -10    8.20    6.90
 -11  -3 -10   23.20    5.60
 -11   3 -11   61.49    6.50
 -11   3 -11   64.89    8.00
 -11   3 -11   59.89    6.30
  11   3  11   59.49    6.60
 -11  -3 -11   38.90    8.60
  11  -3  11   64.29    6.80
 -11  -3 -11   42.90    6.90
 -11  -3 -11   50.89    5.90
  11   4 -12    4.00    2.20
 -11   4  12    4.30    3.40
 -11  -4  12    6.70    3.50
  11  -4 -12    2.30    4.00
  11  -4 -12    8.20    5.50
 -11   4  11    0.00    2.80
  11   4 -11    4.40    3.10
  11  -4 -11    0.50    4.70
  11  -4 -11   -3.30    4.70
  11  -4 -11   -2.80    3.40
 -11  -4  11    4.10    3.20
  11   4 -10    9.00    3.00
 -11   4  10    6.20    2.90
  11  -4 -10    6.20    3.50
  11  -4 -10    2.90    4.50
 -11  -4  10    6.30    3.20
  11  -4 -10    7.60    4.60
  11   4  -9   63.59    5.70
 -11   4   9   59.29    5.80
  11   4  -9   59.29    5.60
  11  -4  -9   62.99    6.10
 -11  -4   9   63.29    6.00
  11  -4  -9   68.79    8.00
  11  -4  -9   54.09    6.60
 -11   4   8   -1.20    2.40
  11   4  -8   -3.30    2.60
  11   4  -8    0.60    2.40
  11  -4  -8    2.40    3.00
  11  -4  -8    2.90    4.00
  11  -4  -8   -2.40    4.30
 -11  -4   8    1.10    2.70
  11   4  -7   71.19    5.90
  11   4  -7   68.59    5.30
  11   4  -7   73.49    5.30
  11  -4  -7   70.89    7.50
  11  -4  -7   69.19    8.80
  11  -4  -7   70.69    6.50
  11  -4  -7   72.99    6.00
 -11  -4   7   85.59    6.20
 -11   4   6    7.90    2.40
  11   4  -6    6.00    1.70
  11   4  -6    0.40    2.70
  11   4  -6    5.80    2.00
  11  -4  -6    6.90    3.60
 -11  -4   6    6.10    2.60
  11  -4  -6    3.50    2.80
  11  -4  -6    5.70    2.40
  11   4  -5    0.50    2.60
 -11   4   5    1.40    2.00
  11   4  -5    0.90    1.60
  11   4  -5    0.70    1.30
  11  -4  -5   -0.30    2.50
 -11  -4   5    0.80    1.70
 -11  -4   5    0.00    2.10
 -11  -4   5   -5.70    2.20
  11  -4  -5    2.50    3.40
  11  -4  -5    1.30    2.30
  11   4  -4    2.80    1.00
  11   4  -4   -0.60    1.10
  11   4  -4    2.00    2.20
  11   4  -4   -2.30    1.40
 -11   4   4    1.20    2.00
 -11   4   4    0.70    2.00
  11  -4  -4   -0.90    2.50
 -11  -4   4    3.10    2.20
  11  -4  -4   -1.80    2.10
 -11  -4   4    2.70    1.70
  11   4  -3   16.60    1.70
  11   4  -3   17.10    1.80
 -11   4   3   17.40    2.70
  11   4  -3   13.60    1.80
 -11   4   3   16.30    2.40
 -11   4   3   17.00    2.60
  11   4  -3   14.90    3.10
  11  -4  -3   13.40    2.70
 -11  -4   3   18.20    2.50
  11  -4  -3   15.10    3.00
 -11  -4   3   18.30    2.70
 -11   4   2  117.19    7.10
  11   4  -2  112.89    8.10
  11   4  -2  122.69    6.80
  11   4  -2  118.89    6.50
 -11   4   2  122.89    7.40
 -11  -4   2  120.49    8.10
 -11  -4   2  112.19    7.30
 -11  -4   2  118.39    7.50
 -11  -4   2  118.19    6.50
  11  -4  -2  111.69    7.30
  11   4  -1   73.19    4.80
  11   4  -1   67.59    6.70
 -11   4   1   84.39    5.80
  11   4  -1   82.29    5.20
 -11   4   1   80.59    5.90
 -11   4   1   82.69    5.50
 -11  -4   1   85.09    5.90
 -11  -4   1   91.69    5.40
 -11  -4   1   82.09    4.90
 -11  -4   1   82.79    5.90
 -11   4   0   77.39    5.70
  11   4   0   70.69    4.50
 -11   4   0   83.39    5.60
  11   4   0   69.49    5.00
 -11  -4   0   72.49    4.70
 -11  -4   0   71.59    6.70
 -11  -4   0   66.09    5.20
 -11   4  -1  177.58   11.00
 -11   4  -1  197.88   11.60
  11   4   1  192.88   11.20
  11   4   1  203.28   10.80
 -11   4  -1  201.38   11.30
 -11  -4  -1  203.08   11.30
 -11  -4  -1  205.58   10.80
 -11  -4  -1  224.08   12.90
  11   4   2   73.89    4.80
 -11   4  -2   68.99    5.90
 -11   4  -2   69.79    5.40
 -11   4  -2   66.49    5.10
 -11  -4  -2   65.69    5.70
 -11  -4  -2   68.09    7.40
 -11  -4  -2   71.19    4.90
 -11   4  -3    3.00    2.30
 -11   4  -3    3.60    2.80
 -11  -4  -3    3.00    2.10
 -11  -4  -3    0.40    2.70
 -11  -4  -3    2.00    3.80
 -11   4  -4  103.09    7.10
 -11   4  -4  106.69    8.00
 -11   4  -4  106.09    8.70
 -11  -4  -4  101.99    9.70
 -11  -4  -4   97.79    7.70
 -11  -4  -4  108.59    7.00
 -11   4  -5    1.10    2.50
 -11   4  -5    0.70    3.40
 -11   4  -5   -1.40    3.20
 -11  -4  -5   -3.10    3.40
 -11  -4  -5   -0.70    2.50
 -11  -4  -5    1.70    5.00
 -11   4  -6   39.50    5.40
 -11   4  -6   36.30    4.10
 -11   4  -6   31.20    5.70
 -11  -4  -6   30.90    6.60
 -11  -4  -6   33.40    5.00
 -11  -4  -6   32.90    3.80
 -11   4  -7   84.89    6.60
 -11   4  -7   65.19    8.20
 -11   4  -7   66.09    7.10
 -11  -4  -7   71.29    7.60
 -11  -4  -7   64.99    9.70
  11  -4   7   61.39    6.30
 -11  -4  -7   67.99    6.10
 -11   4  -8    7.20    4.50
 -11   4  -8    4.20    3.10
 -11   4  -8    5.70    4.10
  11  -4   8    2.10    2.90
 -11  -4  -8    7.20    3.20
 -11  -4  -8    0.20    6.70
 -11  -4  -8   11.30    4.80
 -11   4  -9   67.39    7.90
 -11   4  -9   72.79    8.50
 -11   4  -9   70.69    6.80
 -11  -4  -9   72.99    8.30
 -11  -4  -9   72.79    6.40
  11  -4   9   78.49    7.10
 -11  -4  -9   70.59   10.20
 -11   4 -10    3.30    4.50
 -11   4 -10   -2.80    3.40
 -11   4 -10    7.80    4.40
  11   4  10    3.40    3.50
  11  -4  10    7.30    3.80
 -11  -4 -10    1.00    3.50
 -11  -4 -10  -10.50    6.60
 -11  -4 -10    6.00    5.20
 -11   4 -11   13.60    4.80
 -11   4 -11    2.20    3.80
  11   4  11    2.60    3.80
 -11   4 -11    2.80    4.50
  11  -4  11    6.50    4.30
 -11  -4 -11    8.90    5.70
 -11  -4 -11  -13.30    6.50
 -11  -4 -11   -0.50    3.70
 -11   5  12   -1.80    3.00
  11  -5 -12    9.40    5.60
 -11  -5  12    0.70    3.40
  11  -5 -12   -4.90    3.50
 -11   5  11    4.20    3.10
  11  -5 -11    1.10    5.40
  11  -5 -11    1.20    5.20
 -11  -5  11    2.80    3.50
  11  -5 -11    3.50    3.80
 -11   5  10   28.20    4.10
  11  -5 -10   26.00    5.70
  11  -5 -10   24.40    6.50
  11  -5 -10   31.80    4.90
 -11  -5  10   33.00    4.60
  11   5  -9   10.90    3.60
 -11   5   9   11.20    3.10
  11  -5  -9   12.90    5.40
 -11  -5   9   16.60    3.50
  11  -5  -9   13.30    3.90
  11  -5  -9   14.50    5.20
  11   5  -8    3.80    3.30
  11   5  -8    0.50    1.30
 -11   5   8    4.20    2.50
  11  -5  -8    7.10    4.90
  11  -5  -8    4.40    4.30
  11  -5  -8    3.40    3.20
 -11  -5   8    8.00    3.10
  11   5  -7   48.80    5.20
  11   5  -7   42.40    3.90
 -11   5   7   46.30    5.00
  11  -5  -7   54.39    7.40
  11  -5  -7   47.60    5.20
  11  -5  -7   48.40    6.00
 -11  -5   7   47.40    4.90
  11   5  -6    3.50    1.70
  11   5  -6    2.40    3.30
 -11   5   6    4.00    2.30
 -11  -5   6   -2.90    2.50
  11  -5  -6    1.80    3.90
 -11  -5   6    2.20    2.70
  11  -5  -6    4.90    3.00
 -11   5   5   52.29    4.60
  11   5  -5   47.00    5.60
  11   5  -5   57.29    3.60
 -11  -5   5   41.60    5.10
  11  -5  -5   47.80    4.70
  11  -5  -5   56.49    6.00
 -11  -5   5   56.89    5.20
 -11   5   4    0.40    2.00
  11   5  -4   -1.50    1.00
  11   5  -4   -1.70    1.10
 -11   5   4    2.10    2.50
  11  -5  -4   -0.10    3.90
  11  -5  -4    2.30    2.70
 -11  -5   4    2.30    2.20
 -11  -5   4    5.50    2.60
  11   5  -3   45.30    3.00
  11   5  -3   49.90    3.30
  11   5  -3   50.09    3.20
 -11  -5   3   49.99    4.70
 -11  -5   3   46.00    5.30
  11  -5  -3   60.69    5.00
 -11   5   2  142.79    9.00
  11   5  -2  142.09    8.20
  11   5  -2  137.69    7.80
  11   5  -2  142.49    7.70
 -11   5   2  131.29    9.20
 -11   5   2  140.59    8.50
 -11  -5   2  160.68    9.90
 -11  -5   2  151.18    9.00
 -11  -5   2  172.08    8.30
  11   5  -1   35.60    2.80
  11   5  -1   35.80    3.60
 -11   5   1   35.40    4.20
 -11   5   1   37.70    3.80
 -11   5   1   35.90    3.80
 -11  -5   1   53.69    3.90
 -11  -5   1   41.60    4.40
 -11  -5   1   38.80    2.80
 -11   5   0   -0.90    1.70
  11   5   0    1.10    2.00
 -11   5   0   -0.20    2.70
  11   5   0    1.60    1.30
 -11   5   0    2.10    2.40
  11   5   1   42.40    3.50
 -11   5  -1   43.80    4.10
 -11   5  -1   35.90    3.90
 -11   5  -1   43.90    5.30
 -11  -5  -1   48.40    3.60
 -11   5  -2   79.29    6.00
 -11   5  -2   79.69    6.80
 -11   5  -2   79.99    5.70
  11   5   2   86.29    5.30
 -11  -5  -2   81.69    5.40
 -11  -5  -2   78.89    8.30
 -11  -5  -2   72.69    6.40
 -11   5  -3   41.20    4.00
  11   5   3   33.80    3.80
 -11   5  -3   44.50    5.10
 -11  -5  -3   47.90    6.70
 -11  -5  -3   49.20    4.20
 -11  -5  -3   43.30    4.70
 -11   5  -4    1.30    3.20
 -11   5  -4   -0.20    2.60
 -11  -5  -4    3.60    2.30
 -11   5  -5   23.00    3.50
 -11   5  -5   23.20    4.50
 -11  -5  -5   30.10    4.40
 -11  -5  -5   26.30    3.30
 -11   5  -6   17.30    4.40
 -11   5  -6   17.90    3.50
 -11  -5  -6   15.50    4.40
 -11  -5  -6   14.70    5.60
 -11  -5  -6   12.40    3.10
 -11   5  -7    2.50    3.80
 -11   5  -7   -0.40    2.90
 -11  -5  -7   -0.30    5.40
 -11  -5  -7    0.60    4.20
 -11  -5  -7   -2.60    2.80
 -11   5  -8   11.60    4.50
 -11   5  -8   12.90    3.80
 -11  -5  -8    6.00    6.60
 -11  -5  -8   10.20    3.50
  11  -5   8    9.40    3.40
 -11  -5  -8    9.20    4.80
 -11   5  -9   17.20    3.90
 -11   5  -9   11.60    4.70
 -11  -5  -9    8.10    3.60
 -11  -5  -9   12.00    5.30
 -11  -5  -9    1.50    7.00
  11  -5   9   14.20    4.00
 -11   5 -10    2.80    4.30
 -11   5 -10    9.00    3.80
  11  -5  10    5.80    3.70
 -11  -5 -10    1.80    3.60
 -11  -5 -10    9.90    5.60
 -11  -5 -10  -10.80    6.30
 -11   6  11    0.20    2.20
  11  -6 -11   -1.50    5.30
  11  -6 -11  -15.40    5.80
 -11  -6  11    2.40    3.30
  11  -6 -11   -0.70    4.00
 -11   6  10   41.50    5.00
  11  -6 -10   49.70    7.40
  11  -6 -10   44.90    5.70
  11  -6 -10   45.90    7.90
 -11  -6  10   47.70    5.50
 -11   6   9   11.40    3.10
  11   6  -9   10.20    4.40
 -11  -6   9   12.90    3.50
  11  -6  -9    7.30    5.40
  11  -6  -9    9.30    4.10
  11  -6  -9   15.30    5.90
  11   6  -8   30.60    5.10
 -11   6   8   31.70    3.80
  11  -6  -8   30.10    6.90
  11  -6  -8   23.80    5.60
  11  -6  -8   29.10    4.60
 -11  -6   8   26.50    4.10
  11   6  -7    2.60    3.60
 -11   6   7    6.90    2.50
  11  -6  -7    8.30    3.50
  11  -6  -7   11.90    6.00
  11  -6  -7    7.20    4.80
 -11  -6   7    9.90    3.10
 -11   6   6    4.40    2.40
  11   6  -6    3.90    3.80
  11  -6  -6    8.40    3.40
  11  -6  -6    3.90    4.40
 -11  -6   6    4.10    2.70
  11   6  -5   -0.30    3.60
 -11   6   5    1.20    2.10
 -11  -6   5   -1.00    2.30
  11  -6  -5    1.80    4.10
 -11  -6   5   -1.10    2.80
  11  -6  -5    2.10    3.00
 -11   6   4  294.57   16.20
 -11   6   4  308.37   15.50
  11  -6  -4  292.47   16.30
 -11  -6   4  273.27   16.50
 -11  -6   4  278.07   15.80
  11  -6  -4  280.27   17.10
 -11  -6   3   63.39    5.50
  11  -6  -3   76.39    6.50
 -11  -6   3   76.09    6.70
 -11  -6   2   26.00    4.40
  11  -6  -2   16.40    3.60
 -11  -6   2   23.10    3.10
 -11  -6   2   33.80    3.20
 -11   6   1   13.50    3.70
 -11   6   1   14.50    2.30
 -11   6   1   14.80    3.00
 -11   6   1   10.30    2.00
  11   6  -1   13.90    2.70
 -11  -6   1   19.90    4.40
 -11  -6   1   16.20    2.80
 -11  -6   1   18.20    2.60
  11   6   0   -0.10    1.20
 -11   6   0    3.80    2.60
 -11   6   0   -1.30    1.60
 -11   6   0    4.60    1.90
 -11   6   0    3.80    3.30
 -11   6  -1   21.60    3.50
 -11   6  -1   19.30    4.40
 -11  -6  -1   23.70    3.50
 -11  -6  -1   27.80    2.50
 -11  -6  -1   35.50    5.70
 -11   6  -2  395.56   22.30
 -11   6  -2  408.46   23.10
 -11  -6  -2  451.65   21.80
 -11   6  -3  304.77   16.40
 -11   6  -3  295.07   17.30
 -11  -6  -3  261.27   18.10
 -11  -6  -3  320.27   15.90
 -11  -6  -3  299.17   16.70
 -11   6  -4  150.48   10.80
 -11   6  -4  125.29    9.40
 -11  -6  -4  166.78   10.40
 -11  -6  -4  191.08   12.90
 -11  -6  -4  138.29    9.00
 -11   6  -5    2.00    2.70
 -11   6  -5    4.60    3.80
 -11  -6  -5    2.30    3.60
 -11  -6  -5    1.90    2.50
 -11  -6  -5    3.90    5.50
 -11   6  -6    5.70    4.10
 -11   6  -6    5.70    3.10
 -11  -6  -6    1.80    5.00
 -11  -6  -6    5.00    2.90
 -11  -6  -6    4.50    4.10
 -11   6  -7   10.80    3.40
 -11   6  -7   11.00    4.60
 -11  -6  -7   10.80    4.90
 -11  -6  -7    7.70    3.10
 -11  -6  -7   10.80    6.50
 -11   6  -8   38.80    4.90
 -11   6  -8   50.19    6.70
 -11  -6  -8   44.90    4.90
 -11  -6  -8   54.39    6.60
 -11  -6  -8   53.19    8.50
 -11   6  -9   48.80    5.40
 -11   6  -9   49.60    6.80
 -11  -6  -9   45.70    5.20
 -11  -6  -9   38.00    8.60
 -11  -6  -9   41.60    6.80
  11   7  -9    0.90    2.20
  11  -7  -9    3.40    3.70
  11  -7  -9   -1.30    5.10
  11  -7  -9    9.50    6.20
 -11  -7   9    9.00    3.40
  11   7  -8   -2.00    4.70
  11  -7  -8    0.30    5.60
  11  -7  -8    0.60    3.40
 -11  -7   8    1.80    2.80
  11  -7  -8   -1.40    5.70
  11   7  -7   31.50    5.90
 -11  -7   7   29.50    4.10
  11  -7  -7   35.90    6.40
  11  -7  -7   28.50    4.40
  11  -7  -7   36.10    7.60
  11   7  -6   39.40    6.10
  11  -7  -6   32.30    7.30
  11  -7  -6   36.10    4.70
 -11  -7   6   36.90    4.30
  11  -7  -6   42.80    6.30
  11   7  -5    7.70    4.40
 -11  -7   5    9.00    2.80
  11  -7  -5    4.80    3.10
  11  -7  -5    4.60    4.60
 -11   7   4    0.70    3.30
  11  -7  -4    5.90    4.70
 -11  -7   4   -2.90    3.10
 -11  -7   4    5.40    2.40
  11  -7  -4    2.50    3.00
 -11   7   3   66.59    6.80
 -11  -7   3   63.49    7.10
  11  -7  -3   83.69    6.50
  11  -7  -3   76.39    8.20
 -11  -7   3   72.89    5.50
 -11   7   2   20.70    4.20
 -11  -7   2   30.20    3.30
  11  -7  -2   26.00    3.90
 -11   7   1  100.89    7.40
 -11   7   1   93.89    8.00
 -11  -7   1  106.09    8.90
  11  -7  -1  107.49    7.70
 -11  -7   1  102.19    6.90
 -11   7   0    0.00    2.60
 -11  -7   0   -1.10    2.10
 -11  -7   0    1.30    4.30
 -11  -7   0    1.20    2.60
 -11   7  -1    4.40    3.80
 -11   7  -1    2.90    2.70
 -11   7  -1    0.30    0.90
 -11  -7  -1    4.30    3.10
 -11  -7  -1    5.10    2.30
 -11  -7  -1   10.30    4.70
 -11   7  -2   15.70    3.40
 -11   7  -2   21.10    4.70
 -11   7  -3   20.70    3.60
 -11   7  -3   19.60    4.70
 -11  -7  -3   18.60    4.00
 -11  -7  -3   19.70    6.20
 -11   7  -4    3.90    4.10
 -11   7  -4    1.10    2.60
 -11  -7  -4   16.20    6.00
 -11  -7  -4    2.30    3.80
 -11  -7  -4    0.40    0.90
 -11   7  -5    4.40    3.10
 -11   7  -5   10.80    4.50
 -11  -7  -5    0.90    1.40
 -11  -7  -5    6.10    6.00
 -11  -7  -5    5.20    4.30
 -11   7  -6   65.09    7.60
 -11   7  -6   58.99    6.10
 -11  -7  -6   49.99    6.40
 -11  -7  -6   68.09    9.20
 -11   7  -7   17.90    3.80
 -11   7  -7   15.20    5.10
 -11  -7  -7   12.20    5.30
 -11  -7  -7   12.40    7.10
 -11   7  -8    9.40    4.50
 -11   7  -8    3.70    3.50
 -11  -7  -8    2.00    3.30
 -11  -7  -8   -8.20    6.70
 -11  -7  -8    6.50    5.00
  11   8  -8   -1.40    5.60
  11  -8  -8   -1.10    3.70
  11  -8  -8    1.00    6.20
  11  -8  -8    6.20    6.20
  11   8  -7   -3.90    4.60
  11  -8  -7    6.30    6.80
  11  -8  -7    0.20    5.50
  11  -8  -7    5.40    3.80
  11   8  -6   -1.30    4.70
  11  -8  -6    4.30    6.80
  11  -8  -6    5.80    3.60
  11  -8  -5    1.20    4.80
  11  -8  -5    1.70    3.20
 -11   8   4   -2.80    3.50
  11  -8  -4    5.20    3.20
  11  -8  -4    2.80    5.10
 -11  -8   4   -1.40    3.60
 -11   8   3   -2.50    3.70
 -11  -8   3    0.80    3.80
  11  -8  -3   -4.10    2.80
  11  -8  -3    0.60    4.80
 -11   8   2   37.00    5.20
  11  -8  -2   29.60    5.80
 -11  -8   2   23.80    5.20
  11  -8  -2   30.20    4.20
 -11   8   1   16.40    4.40
  11  -8  -1   15.40    3.60
 -11  -8   1   24.00    5.40
 -11   8   0   -1.50    3.70
 -11   8   0   -3.60    2.60
  11  -8   0    0.70    3.00
 -11  -8   0    4.00    4.70
 -11   8  -1   54.79    5.20
 -11   8  -1   47.60    6.40
 -11  -8  -1   73.49    8.80
 -11   8  -2   -2.10    4.30
 -11   8  -2    2.10    2.90
 -11  -8  -2    4.90    3.60
 -11  -8  -2    5.70    5.30
 -11   8  -3    3.10    4.50
 -11   8  -3    0.20    3.10
 -11  -8  -3    1.80    3.70
 -11  -8  -3   -0.40    5.30
 -11   8  -4   46.10    6.50
 -11   8  -4   50.09    5.00
 -11  -8  -4   46.20    8.10
 -11  -8  -4   34.20    5.50
 -11   8  -5   15.60    4.90
 -11   8  -5   11.10    3.40
 -11  -8  -5   11.20    6.70
 -11  -8  -5    6.10    4.80
 -11   8  -6   12.90    5.00
 -11   8  -6    2.30    2.50
 -11  -8  -6   11.20    6.80
 -11  -8  -6    4.50    5.10
  11  -9  -5    0.20    3.20
  11  -9  -5    6.00    6.90
  11  -9  -4    4.60    3.30
  11  -9  -4    9.50    5.80
 -11   9   3   25.70    5.30
  11  -9  -3   25.90    4.10
 -11  -9   3   23.80    5.40
  11  -9  -3   34.70    6.50
 -11   9   2   20.70    5.40
  11  -9  -2   29.10    6.30
 -11  -9   2   28.90    5.90
  11  -9  -2   30.00    4.30
 -11   9   1    8.70    4.80
 -11  -9   1    7.90    5.20
  11  -9  -1    8.60    3.50
  11  -9  -1   13.50    5.30
 -11   9   0    5.70    4.70
  11  -9   0   12.00    5.40
 -11  -9   0   10.20    5.60
  11  -9   0    2.80    1.90
 -11   9  -1    1.50    4.40
  11  -9   1    0.00    1.20
 -11  -9  -1    2.10    5.50
 -11   9  -2   14.40    5.20
 -11  -9  -2   18.10    6.10
 -11   9  -3    4.80    4.90
 -11  -9  -3    9.80    6.40
  12   0 -13   -8.00    2.20
  12   0 -13   -0.10    3.90
 -12   0  13   -1.20    3.00
  12   0 -12  103.69    7.90
 -12   0  12  111.99    8.40
  12   0 -12   97.59    8.90
 -12   0  11   -2.90    2.70
  12   0 -11   -2.20    3.40
  12   0 -11   -2.20    3.20
 -12   0  10   48.70    5.00
  12   0 -10   32.90    4.60
  12   0 -10   36.60    4.60
 -12   0   9    2.50    2.60
  12   0  -9   -2.20    2.80
  12   0  -9    1.30    2.80
  12   0  -8   33.40    4.00
  12   0  -8   31.40    3.80
  12   0  -8   30.00    3.20
  12   0  -8   31.80    3.00
 -12   0   8   28.20    3.70
  12   0  -7    0.90    2.40
  12   0  -7    1.50    2.50
  12   0  -7    0.70    1.60
 -12   0   7    0.40    2.10
  12   0  -6  185.58   10.90
  12   0  -6  189.08   11.20
 -12   0   6  215.48   11.30
  12   0  -6  196.78   11.20
  12   0  -5   -0.10    1.90
 -12   0   5   -0.60    2.00
  12   0  -5   -3.00    2.10
  12   0  -4  274.87   16.60
  12   0  -4  323.87   17.00
 -12   0   4  334.87   16.80
 -12   0   3   -0.50    2.00
 -12   0   3   -1.90    1.50
 -12   0   3   -0.30    1.90
  12   0  -3   -0.70    2.20
  12   0  -3   -2.00    1.40
  12   0  -2  586.74   31.40
 -12   0   2  615.34   31.60
 -12   0   2  632.14   31.40
 -12   0   2  601.54   32.00
  12   0  -2  634.34   32.40
  12   0  -1    0.40    1.80
 -12   0   1   -1.20    1.70
  12   0  -1    0.20    1.50
  12   0  -1    1.50    2.80
 -12   0   1   -2.10    2.60
  12   0   0   73.19    5.50
  12   0   0   76.59    5.20
 -12   0   0   74.49    6.70
 -12   0   0   91.09    5.50
  12   0   0   97.69    7.30
  12   0   1   -0.50    1.60
 -12   0  -1   -4.30    2.80
  12   0   1   -1.50    3.00
 -12   0  -1    0.90    1.80
 -12   0  -2  250.17   14.90
 -12   0  -2  246.18   13.40
 -12   0  -2  243.18   13.70
 -12   0  -3   -1.00    2.40
 -12   0  -3    0.30    3.40
 -12   0  -3   -3.40    1.80
 -12   0  -4   52.49    6.80
 -12   0  -4   53.29    5.40
 -12   0  -4   56.19    4.80
 -12   0  -5    1.50    2.30
 -12   0  -5   -0.80    3.70
 -12   0  -5    1.30    2.90
 -12   0  -6    6.40    2.80
 -12   0  -6   12.10    3.50
 -12   0  -6   12.00    4.60
  12   0   7   -2.00    2.50
 -12   0  -7   -1.50    2.60
 -12   0  -7   -0.80    3.30
 -12   0  -7   -0.60    3.80
 -12   0  -8    3.50    3.80
 -12   0  -8    4.50    4.70
 -12   0  -8    2.50    3.00
  12   0   8   -0.80    2.90
 -12   0  -9   -6.50    3.70
 -12   0  -9    1.90    4.60
 -12   0  -9    1.50    3.30
  12   0   9   -2.10    3.10
 -12   0 -10   23.00    4.50
 -12   0 -10   40.90    6.60
 -12   0 -10   40.90    5.80
  12   0  10   31.30    4.80
  12   0  11   -1.80    3.30
 -12   0 -11   -1.20    4.60
 -12   0 -11   -5.10    3.50
 -12   0 -11    2.30    4.60
  12   0  12  114.09    9.60
 -12   0 -12  110.39   10.30
 -12   0 -12  132.69   11.40
 -12   0 -12   97.29    9.00
  12   1 -13   -4.60    3.60
 -12   1  13   -0.80    3.10
  12  -1 -13    2.80    3.70
  12  -1 -13   -4.90    3.30
 -12  -1  13    2.20    3.20
  12   1 -12    2.00    3.60
 -12   1  12    6.60    3.40
  12  -1 -12    7.40    4.00
 -12  -1  12    5.70    3.10
  12  -1 -12    2.10    3.90
 -12   1  11   96.59    7.60
  12   1 -11  101.29    7.00
  12   1 -11   92.39    8.00
  12  -1 -11   85.99    8.20
  12  -1 -11   90.59    8.10
 -12  -1  11   99.09    7.80
  12   1 -10   -0.10    3.00
  12   1 -10    3.90    2.80
 -12   1  10   -2.50    2.60
  12  -1 -10    3.70    3.50
 -12  -1  10    0.70    2.60
  12  -1 -10   -2.90    3.20
 -12   1   9   34.60    4.20
  12   1  -9   35.10    3.80
  12   1  -9   33.60    4.20
 -12  -1   9   48.20    4.80
  12  -1  -9   36.90    4.70
  12  -1  -9   32.60    4.40
  12  -1  -9   29.10    4.20
  12   1  -8  251.17   14.60
  12   1  -8  263.27   14.30
 -12   1   8  266.67   14.80
  12  -1  -8  245.38   14.20
 -12  -1   8  276.27   14.80
  12  -1  -8  257.27   14.50
  12  -1  -8  261.17   14.70
  12  -1  -8  253.87   14.80
  12   1  -7  303.47   16.30
 -12   1   7  313.57   16.40
  12   1  -7  297.57   16.00
  12  -1  -7  302.37   16.50
  12  -1  -7  287.37   16.20
  12  -1  -7  284.37   16.50
 -12  -1   7  299.87   16.40
  12   1  -6   12.50    2.60
  12   1  -6   12.30    2.50
 -12   1   6   14.50    2.60
  12   1  -6   11.60    1.80
  12  -1  -6   11.80    3.10
  12  -1  -6   13.30    2.40
  12  -1  -6   10.70    2.70
 -12  -1   6    9.90    2.50
  12   1  -5   29.80    3.40
 -12   1   5   39.50    4.10
  12   1  -5   42.20    3.60
  12  -1  -5   41.90    4.10
  12  -1  -5   34.00    3.60
 -12  -1   5   43.60    3.90
  12   1  -4   11.50    2.50
  12   1  -4   12.80    2.30
 -12   1   4   11.30    2.50
  12   1  -4   11.40    2.10
 -12  -1   4   12.60    2.40
 -12  -1   4   12.60    2.30
  12  -1  -4   12.80    2.60
  12  -1  -4   12.80    2.70
  12   1  -3   69.29    5.10
 -12   1   3   77.69    5.40
  12   1  -3   68.39    5.70
 -12   1   3   73.79    5.20
  12   1  -3   74.19    5.10
 -12  -1   3   82.69    5.00
 -12  -1   3   70.99    5.40
  12  -1  -3   79.79    5.80
 -12  -1   3   70.29    5.70
 -12   1   2   45.00    4.00
  12   1  -2   40.60    4.80
 -12   1   2   44.40    3.20
 -12   1   2   39.70    4.70
  12   1  -2   41.60    3.90
  12   1  -2   37.60    3.70
 -12   1   2   48.20    4.40
  12  -1  -2   45.80    5.10
 -12  -1   2   48.30    4.30
 -12  -1   2   48.00    3.90
 -12  -1   2   45.00    4.80
  12   1  -1   -2.30    2.40
 -12   1   1   -0.60    2.40
  12   1  -1    2.50    1.60
 -12   1   1   -0.60    1.90
  12   1  -1   -0.70    1.70
 -12  -1   1   -0.90    1.60
 -12  -1   1    1.70    2.70
  12  -1  -1    0.20    2.50
 -12   1   0   96.79    6.10
  12   1   0  101.89    6.30
  12   1   0   97.89    7.40
 -12   1   0   85.59    7.30
  12   1   0   84.59    5.80
 -12  -1   0  103.69    6.10
 -12  -1   0   97.79    7.70
  12  -1   0   97.59    7.80
  12   1   1  112.49    7.10
  12   1   1  116.79    7.00
 -12   1  -1  120.79    8.60
 -12   1  -1  117.09    7.30
  12   1   1  114.09    8.40
 -12  -1  -1  121.19    7.00
 -12  -1  -1  116.79    8.80
 -12  -1  -1  116.19    7.40
 -12   1  -2  603.24   29.50
 -12   1  -2  579.04   30.60
 -12  -1  -2  583.94   29.60
 -12  -1  -2  522.15   29.30
 -12  -1  -2  564.14   30.60
 -12   1  -3   41.40    3.70
 -12   1  -3   39.90    5.20
 -12  -1  -3   32.30    4.80
 -12  -1  -3   32.70    3.70
 -12  -1  -3   31.10    3.30
 -12   1  -4   38.40    3.80
 -12   1  -4   37.40    5.20
 -12   1  -4   36.50    4.10
 -12  -1  -4   38.10    5.50
 -12  -1  -4   34.90    3.50
 -12  -1  -4   37.90    4.20
 -12   1  -5    0.70    3.50
 -12   1  -5    2.50    2.90
 -12   1  -5   -0.60    2.40
 -12  -1  -5   -1.20    3.00
 -12  -1  -5   -3.20    2.20
 -12  -1  -5   -0.20    4.10
 -12   1  -6   15.90    3.60
 -12   1  -6   15.80    4.10
 -12   1  -6   18.30    3.20
 -12  -1  -6   13.90    3.70
 -12  -1  -6   19.50    3.30
 -12  -1  -6   14.70    4.70
 -12   1  -7   80.79    6.70
  12   1   7   82.09    7.00
 -12   1  -7   91.19    7.50
 -12   1  -7   79.99    8.20
 -12  -1  -7   88.59    7.50
 -12  -1  -7  100.49    6.90
  12  -1   7   81.69    6.90
 -12  -1  -7   67.49    9.10
 -12   1  -8   60.89    6.10
  12   1   8   59.19    6.50
 -12   1  -8   58.99    6.20
 -12   1  -8   62.39    7.80
 -12  -1  -8   66.49    7.10
  12  -1   8   65.39    6.50
 -12  -1  -8   69.19    6.30
 -12  -1  -8   57.19    7.80
 -12   1  -9   31.00    5.20
 -12   1  -9   35.20    5.90
 -12   1  -9   31.90    4.40
  12   1   9   31.10    4.70
 -12  -1  -9   31.20    6.70
 -12  -1  -9   37.50    4.80
  12  -1   9   31.80    4.60
 -12  -1  -9   32.80    5.00
 -12   1 -10   43.70    6.50
  12   1  10   43.70    5.50
 -12   1 -10   38.30    5.00
 -12   1 -10   46.70    6.00
 -12  -1 -10   48.10    5.90
 -12  -1 -10   49.70    5.30
 -12  -1 -10   40.90    7.30
  12  -1  10   41.20    5.30
  12   1  11   12.70    4.20
 -12   1 -11   10.50    4.00
 -12   1 -11   16.70    4.90
 -12   1 -11   10.30    4.90
 -12  -1 -11    6.70    3.90
 -12  -1 -11    9.80    4.90
 -12  -1 -11    6.30    5.70
  12  -1  11   12.20    4.00
  12   1  12    2.00    4.20
 -12   1 -12    9.80    5.00
 -12   1 -12    4.50    3.70
 -12   1 -12   10.30    4.70
 -12  -1 -12   -1.10    5.30
 -12  -1 -12    5.80    4.00
 -12  -1 -12    2.40    5.00
  12  -1  12    2.50    3.80
 -12   2  13    6.80    3.50
  12   2 -13    1.20    3.90
  12  -2 -13   -7.70    4.50
  12  -2 -13    6.20    4.00
 -12  -2  13    7.00    3.50
 -12   2  12   38.10    4.90
  12   2 -12   41.80    5.00
  12  -2 -12   37.30    5.80
 -12  -2  12   45.70    5.50
  12  -2 -12   26.30    4.80
  12   2 -11   -1.70    3.00
 -12   2  11    3.20    2.70
  12  -2 -11    2.20    4.00
  12  -2 -11    0.10    3.20
 -12  -2  11   -0.60    2.90
  12   2 -10  290.97   15.30
 -12   2  10  261.77   15.30
  12  -2 -10  251.27   15.40
  12  -2 -10  250.77   15.20
  12  -2 -10  262.97   15.80
 -12  -2  10  267.07   15.30
  12   2  -9  144.89    9.40
  12   2  -9  175.38   10.80
  12   2  -9  181.18    9.90
 -12   2   9  184.58   10.80
  12  -2  -9  178.68   11.20
  12  -2  -9  189.48   11.30
  12  -2  -9  172.78   11.30
 -12  -2   9  186.18   11.10
  12   2  -8  282.27   14.80
 -12   2   8  289.77   15.90
  12   2  -8  290.47   15.80
  12   2  -8  294.57   15.20
  12  -2  -8  276.67   16.10
  12  -2  -8  277.47   16.20
  12  -2  -8  283.17   16.30
  12  -2  -8  277.87   16.10
 -12  -2   8  286.67   16.00
 -12   2   7   20.60    3.20
  12   2  -7   21.00    2.60
  12   2  -7   18.20    3.00
 -12  -2   7   27.00    3.50
  12  -2  -7   21.60    3.90
  12  -2  -7   17.50    3.30
  12  -2  -7   15.90    3.40
  12  -2  -7   21.40    2.20
  12   2  -6    2.30    1.70
 -12   2   6    0.00    2.00
  12   2  -6    0.90    2.20
 -12  -2   6    2.30    2.30
  12  -2  -6    1.70    2.60
  12  -2  -6   -1.70    2.90
  12  -2  -6    6.10    2.90
 -12   2   5   16.00    2.60
  12   2  -5   15.90    2.20
  12   2  -5   17.00    2.40
  12   2  -5   16.50    2.50
 -12  -2   5   13.80    2.70
  12  -2  -5   14.60    3.10
 -12  -2   5   22.40    2.60
  12  -2  -5   16.90    2.80
 -12   2   4    1.80    2.00
  12   2  -4    0.40    1.70
  12   2  -4   -1.90    1.70
  12   2  -4    0.80    1.60
  12   2  -4   -0.10    1.50
  12  -2  -4    0.60    2.10
 -12  -2   4    0.80    1.90
 -12  -2   4    2.80    1.90
  12  -2  -4   -0.30    2.30
 -12  -2   4    0.40    1.00
  12   2  -3    6.70    1.70
 -12   2   3    6.80    2.10
 -12   2   3    7.50    2.20
  12   2  -3    3.30    2.30
 -12   2   3    6.00    1.50
  12   2  -3    5.00    1.70
 -12  -2   3    8.50    2.20
  12  -2  -3    4.60    2.70
 -12  -2   3    4.00    1.40
 -12  -2   3    6.80    2.70
 -12  -2   3    7.00    1.60
  12   2  -2  287.67   16.20
 -12   2   2  312.47   16.50
  12   2  -2  292.67   17.10
 -12   2   2  334.87   16.60
 -12   2   2  307.97   16.20
  12   2  -2  295.57   16.30
 -12  -2   2  303.77   17.20
 -12  -2   2  328.47   16.30
 -12  -2   2  322.57   16.80
  12  -2  -2  323.67   17.50
 -12  -2   2  315.27   16.20
 -12   2   1   32.10    4.30
  12   2  -1   28.60    3.90
  12   2  -1   29.80    3.30
 -12   2   1   26.20    2.90
  12   2  -1   29.30    2.70
 -12   2   1   28.30    3.20
 -12  -2   1   32.20    3.20
 -12  -2   1   33.80    4.40
  12   2   0   38.20    5.00
 -12   2   0   44.90    4.20
 -12   2   0   42.70    5.40
  12   2   0   40.70    3.90
 -12   2   0   51.49    4.10
  12   2   0   41.50    3.60
 -12  -2   0   42.90    3.80
 -12  -2   0   50.19    5.90
 -12  -2   0   34.40    4.00
  12   2   1   -1.10    1.50
 -12   2  -1    0.40    2.60
  12   2   1    1.50    1.50
 -12   2  -1    2.80    2.00
 -12  -2  -1   -1.20    1.60
 -12  -2  -1    1.20    2.20
 -12  -2  -1    3.90    3.50
 -12   2  -2   41.60    4.20
 -12   2  -2   39.00    5.60
 -12  -2  -2   42.50    5.50
 -12  -2  -2   44.40    4.50
 -12  -2  -2   39.00    3.90
 -12   2  -3  248.68   15.60
 -12   2  -3  270.07   14.40
 -12  -2  -3  276.67   14.20
 -12  -2  -3  270.07   16.20
 -12  -2  -3  249.28   14.50
 -12   2  -4    5.80    3.30
 -12   2  -4    5.10    2.30
 -12  -2  -4    3.40    2.80
 -12  -2  -4    5.80    2.30
 -12  -2  -4    6.60    4.40
 -12   2  -5   29.00    3.70
 -12   2  -5   40.00    5.70
 -12  -2  -5   31.90    4.20
 -12  -2  -5   31.00    5.50
 -12  -2  -5   35.20    3.80
 -12   2  -6   13.10    4.50
 -12   2  -6   12.80    3.20
 -12   2  -6   11.20    3.60
 -12  -2  -6    8.50    5.00
 -12  -2  -6   11.70    3.60
 -12  -2  -6    9.20    2.90
 -12   2  -7  136.09   10.50
 -12   2  -7  117.39    9.00
 -12   2  -7  119.69    8.40
 -12  -2  -7  124.99    9.20
  12  -2   7  125.09    8.70
 -12  -2  -7  115.99   11.20
 -12  -2  -7  126.39    8.70
 -12   2  -8  194.98   11.90
 -12   2  -8  171.68   12.80
 -12   2  -8  185.98   11.20
  12   2   8  172.88   11.50
 -12  -2  -8  179.18   11.20
 -12  -2  -8  173.78   13.40
 -12  -2  -8  168.58   11.70
  12  -2   8  183.38   11.50
 -12   2  -9   75.99    7.20
 -12   2  -9   88.99    8.20
  12   2   9   89.09    7.60
 -12   2  -9   88.09    8.90
 -12  -2  -9   80.69    7.30
 -12  -2  -9   72.19    8.10
 -12  -2  -9   82.69    9.90
  12  -2   9   81.69    7.70
 -12   2 -10   38.10    5.40
 -12   2 -10   33.10    4.80
 -12   2 -10   39.60    6.30
  12   2  10   37.50    5.40
 -12  -2 -10   38.10    4.90
 -12  -2 -10   31.20    5.40
 -12  -2 -10   25.10    7.00
  12  -2  10   31.10    4.90
 -12   2 -11    5.60    4.30
 -12   2 -11    0.60    4.30
 -12   2 -11    0.50    3.60
  12   2  11   -1.30    3.40
 -12  -2 -11    1.90    3.60
 -12  -2 -11   -9.80    5.50
 -12  -2 -11    0.50    4.80
  12  -2  11    0.80    3.40
 -12   3  13   26.90    4.70
  12   3 -13   24.90    4.80
 -12  -3  13   29.50    4.70
  12  -3 -13   22.40    4.70
  12  -3 -13   28.00    6.10
  12   3 -12    5.80    3.60
 -12   3  12   12.50    3.50
  12  -3 -12    7.60    4.90
  12  -3 -12    7.40    4.00
 -12  -3  12    8.50    3.60
 -12   3  11   34.90    4.50
  12   3 -11   28.20    4.10
  12  -3 -11   27.30    4.70
  12  -3 -11   24.30    5.20
 -12  -3  11   28.80    4.20
  12   3 -10   13.20    3.20
 -12   3  10   12.50    3.20
  12  -3 -10    7.30    3.50
  12  -3 -10    7.70    4.00
  12  -3 -10   13.70    4.50
 -12  -3  10    6.50    3.20
 -12   3   9   52.79    5.60
  12   3  -9   51.49    5.10
  12   3  -9   39.70    3.90
  12  -3  -9   60.29    5.60
  12  -3  -9   43.70    5.70
 -12  -3   9   53.69    5.60
  12  -3  -9   53.19    6.90
  12   3  -8   54.59    4.60
  12   3  -8   64.89    5.50
  12   3  -8   54.39    3.80
 -12   3   8   55.99    5.40
 -12  -3   8   70.89    5.90
  12  -3  -8   54.19    5.80
  12  -3  -8   51.79    5.30
  12  -3  -8   56.19    7.10
 -12   3   7   11.40    2.90
  12   3  -7    8.60    1.50
  12   3  -7    8.30    2.30
  12   3  -7   10.20    2.60
  12   3  -7   10.40    1.50
  12  -3  -7    8.10    2.30
 -12  -3   7   13.50    3.00
  12  -3  -7   12.50    3.20
  12  -3  -7    6.10    3.60
  12   3  -6  309.67   15.70
  12   3  -6  291.07   15.70
 -12   3   6  287.87   16.00
  12   3  -6  302.27   15.10
  12   3  -6  283.47   15.10
  12  -3  -6  301.17   15.60
  12  -3  -6  278.97   16.20
 -12  -3   6  287.77   16.10
  12  -3  -6  291.57   16.70
  12   3  -5    5.90    2.00
 -12   3   5    4.30    2.20
  12   3  -5    6.00    1.30
  12   3  -5    5.00    1.90
  12   3  -5    3.40    1.70
 -12  -3   5    5.10    1.50
  12  -3  -5    4.30    2.60
 -12  -3   5    9.10    2.00
  12  -3  -5    5.80    1.90
 -12  -3   5    7.90    2.50
  12   3  -4   85.09    5.20
  12   3  -4   91.99    5.50
 -12   3   4   90.09    6.10
 -12   3   4   90.09    5.50
  12   3  -4   90.29    5.70
  12   3  -4   77.99    6.10
  12  -3  -4   97.29    6.60
 -12  -3   4   92.09    6.20
 -12  -3   4   84.99    6.30
  12  -3  -4   94.09    5.60
 -12  -3   4   85.39    5.30
  12   3  -3  327.37   18.90
 -12   3   3  370.06   18.60
 -12   3   3  342.27   18.60
  12   3  -3  342.47   18.20
 -12   3   3  347.57   18.30
  12   3  -3  339.17   18.20
 -12  -3   3  343.37   18.20
 -12  -3   3  384.86   19.20
 -12  -3   3  365.16   18.80
 -12  -3   3  353.16   18.10
 -12   3   2    4.40    2.00
  12   3  -2    2.40    1.60
 -12   3   2    5.80    1.90
  12   3  -2   -1.00    2.40
 -12   3   2    4.80    2.10
  12   3  -2    2.60    1.40
 -12  -3   2    1.60    1.40
 -12  -3   2    6.70    3.20
 -12  -3   2    4.20    2.20
 -12  -3   2    4.40    1.80
  12   3  -1   32.30    4.40
 -12   3   1   42.30    4.20
  12   3  -1   36.30    3.30
 -12   3   1   43.10    3.80
  12   3  -1   43.40    3.70
 -12  -3   1   36.10    3.70
 -12  -3   1   44.00    5.80
 -12  -3   1   38.00    3.80
 -12  -3   1   38.30    3.40
 -12   3   0  196.68   10.60
 -12   3   0  188.38   10.50
  12   3   0  185.48   10.40
  12   3   0  179.18   10.00
 -12  -3   0  186.88   10.10
 -12  -3   0  173.38   10.30
 -12  -3   0  181.58   11.80
 -12   3  -1   13.50    2.60
 -12   3  -1   17.30    2.80
  12   3   1   13.10    2.20
  12   3   1   12.80    2.00
 -12   3  -1   17.20    4.00
 -12   3  -1   12.40    2.30
 -12  -3  -1   11.10    2.10
 -12  -3  -1   15.60    2.80
 -12  -3  -1   18.20    4.50
 -12   3  -2    5.20    2.30
 -12   3  -2    8.10    2.60
 -12   3  -2    6.80    3.10
  12   3   2    6.30    1.80
 -12  -3  -2   10.20    4.30
 -12  -3  -2    3.90    1.90
 -12  -3  -2    7.50    2.70
 -12   3  -3   14.30    4.20
 -12   3  -3   14.90    2.90
 -12   3  -3   18.80    3.50
 -12  -3  -3   13.80    3.10
 -12  -3  -3   11.80    4.30
 -12  -3  -3   18.50    2.70
 -12   3  -4    0.00    3.00
 -12   3  -4   -1.50    2.30
 -12  -3  -4   -3.70    4.60
 -12  -3  -4    2.00    2.90
 -12  -3  -4   -0.60    2.20
 -12   3  -5   21.10    3.40
 -12   3  -5   25.20    5.00
 -12  -3  -5   27.50    4.30
 -12  -3  -5   25.90    3.30
 -12  -3  -5   24.50    6.30
 -12   3  -6   54.19    7.00
 -12   3  -6   54.89    5.70
 -12  -3  -6   61.29    6.70
 -12  -3  -6   64.69    9.20
 -12  -3  -6   68.99    5.70
 -12   3  -7    2.00    4.20
 -12   3  -7    5.30    2.90
 -12  -3  -7    2.90    4.00
  12  -3   7    3.40    2.80
 -12  -3  -7    5.10    3.00
 -12  -3  -7    0.80    5.10
 -12   3  -8   89.49    9.20
 -12   3  -8   91.89    7.40
  12  -3   8  100.89    7.70
 -12  -3  -8   92.19   11.30
 -12  -3  -8  101.79    8.80
 -12  -3  -8   86.39    7.40
  12   3   9   72.29    7.20
 -12   3  -9   68.29    7.00
 -12   3  -9   69.19    8.50
 -12  -3  -9   57.89    9.30
 -12  -3  -9   73.79    7.40
  12  -3   9   80.29    7.60
 -12  -3  -9   72.99    6.80
 -12   3 -10   90.39    9.40
  12   3  10   87.19    7.90
 -12   3 -10   73.39    7.20
 -12   3 -10   85.89    7.90
 -12  -3 -10   77.39    8.00
 -12  -3 -10   72.19    7.40
 -12  -3 -10   58.79    9.30
  12  -3  10   88.09    8.20
  12   3  11   12.80    4.30
 -12   3 -11   24.80    5.60
 -12   3 -11   20.80    5.00
 -12   3 -11   13.90    4.40
 -12  -3 -11   13.10    5.50
 -12  -3 -11   23.50    4.50
  12  -3  11   18.10    4.60
 -12  -3 -11    3.60    6.90
 -12   4  12    1.80    3.30
  12  -4 -12    5.10    3.80
 -12  -4  12    3.70    3.50
  12  -4 -12    1.40    5.30
 -12   4  11   -2.20    2.70
  12   4 -11    2.10    2.90
 -12  -4  11    2.80    3.20
  12  -4 -11   -1.30    4.90
  12  -4 -11   -1.20    3.70
 -12   4  10    4.70    2.90
  12   4 -10    5.30    3.00
 -12  -4  10   12.10    3.50
  12  -4 -10    9.10    4.70
  12  -4 -10    7.30    4.80
  12  -4 -10    8.30    3.60
  12   4  -9    3.50    2.60
 -12   4   9    6.40    2.80
  12   4  -9    1.20    2.10
  12  -4  -9    4.10    3.40
  12  -4  -9    3.40    4.40
  12  -4  -9   -0.20    4.40
 -12  -4   9    5.00    3.00
  12   4  -8   12.80    2.70
 -12   4   8   14.40    3.10
  12   4  -8   11.90    3.00
  12  -4  -8   13.00    4.30
  12  -4  -8    7.70    3.50
  12  -4  -8   10.10    4.70
 -12  -4   8   11.20    3.30
  12   4  -7  553.24   27.20
 -12   4   7  529.25   27.70
  12   4  -7  506.85   27.30
  12  -4  -7  510.75   28.40
 -12  -4   7  519.45   27.80
  12  -4  -7  533.25   28.00
  12   4  -6    1.50    2.70
 -12   4   6   -0.60    2.20
  12   4  -6    0.40    1.90
  12   4  -6   -0.60    1.50
 -12  -4   6    3.50    2.50
 -12  -4   6   -0.90    1.80
  12  -4  -6    1.00    2.30
  12  -4  -6    0.90    2.80
  12  -4  -6   -0.90    3.50
  12   4  -5   37.30    3.50
  12   4  -5   34.90    3.20
 -12   4   5   39.00    3.70
  12  -4  -5   36.00    5.10
  12  -4  -5   43.50    4.40
 -12  -4   5   27.90    3.60
  12  -4  -5   31.20    3.90
 -12  -4   5   30.40    3.30
 -12  -4   5   35.20    3.70
  12   4  -4   12.70    1.90
 -12   4   4   12.80    2.40
 -12   4   4   11.30    2.40
  12   4  -4   13.50    1.50
  12   4  -4    9.30    2.70
  12   4  -4   10.70    1.70
 -12  -4   4   10.00    2.10
  12  -4  -4   13.60    2.70
  12  -4  -4   14.40    3.10
 -12  -4   4    7.90    3.30
 -12  -4   4   11.20    2.60
  12   4  -3    2.70    1.50
  12   4  -3    4.00    2.60
  12   4  -3    1.20    1.20
 -12   4   3    1.60    2.00
  12   4  -3    0.70    1.40
 -12   4   3    1.10    1.90
 -12   4   3    1.10    2.10
 -12  -4   3   -2.00    2.90
 -12  -4   3    1.90    1.90
  12  -4  -3    1.20    2.40
 -12  -4   3    1.40    2.20
  12  -4  -3    0.50    2.10
 -12   4   2    6.70    2.10
 -12   4   2    7.60    2.40
  12   4  -2    2.60    2.80
 -12   4   2    5.20    2.30
  12   4  -2    5.70    1.40
  12   4  -2    6.40    1.80
 -12  -4   2    6.10    2.20
 -12  -4   2    7.50    1.40
 -12   4   1  108.19    7.40
 -12   4   1  118.69    7.20
 -12   4   1  122.69    7.60
  12   4  -1  120.29    7.10
  12   4  -1  117.59    6.70
 -12  -4   1  125.89    7.30
 -12  -4   1  121.29    6.80
 -12  -4   1  124.79    8.60
 -12  -4   1  117.29    7.50
 -12  -4   1  110.39    7.50
 -12   4   0  294.77   16.50
  12   4   0  292.77   15.80
  12   4   0  297.47   16.20
 -12   4   0  312.27   16.40
 -12  -4   0  304.47   16.20
 -12  -4   0  314.07   17.80
 -12  -4   0  304.27   15.80
 -12   4  -1   35.60    3.60
  12   4   1   40.60    3.50
 -12   4  -1   41.50    3.90
 -12   4  -1   39.80    4.30
 -12  -4  -1   43.30    3.70
 -12  -4  -1   51.69    4.50
  12   4   2   59.19    4.60
 -12   4  -2   57.69    5.10
 -12   4  -2   60.79    5.50
 -12  -4  -2   62.69    5.30
 -12  -4  -2   63.19    7.50
 -12  -4  -2   57.39    4.60
 -12   4  -3   31.50    3.70
 -12   4  -3   36.10    5.60
 -12   4  -3   35.00    4.40
 -12  -4  -3   38.80    4.40
 -12  -4  -3   29.70    5.50
 -12  -4  -3   33.10    3.40
 -12   4  -4    0.70    2.50
 -12   4  -4   -2.40    3.00
 -12   4  -4   -2.50    3.70
 -12  -4  -4    4.60    4.40
 -12  -4  -4    0.30    3.30
 -12  -4  -4    1.30    2.30
 -12   4  -5   -0.50    3.20
 -12   4  -5    0.60    2.60
 -12   4  -5    4.20    4.20
 -12  -4  -5    1.50    5.50
 -12  -4  -5   -3.70    3.60
 -12  -4  -5   -0.40    2.40
 -12   4  -6   51.19    6.10
 -12   4  -6   44.80    6.40
 -12   4  -6   50.09    4.80
 -12  -4  -6   51.49    4.70
 -12  -4  -6   51.59    5.70
 -12  -4  -6   54.39    8.20
 -12   4  -7  153.98   11.10
 -12   4  -7  168.38   12.60
 -12   4  -7  170.58   10.40
 -12  -4  -7  164.78   14.20
 -12  -4  -7  169.48   11.80
 -12  -4  -7  154.98   10.20
 -12   4  -8    6.60    3.40
 -12   4  -8    4.80    4.20
 -12   4  -8    5.90    4.40
 -12  -4  -8    3.30    3.10
  12  -4   8    2.40    3.00
 -12  -4  -8   -3.00    6.30
 -12  -4  -8   -1.30    4.30
 -12   4  -9   48.00    6.60
 -12   4  -9   58.89    5.70
 -12   4  -9   56.19    8.00
 -12  -4  -9   52.69    9.50
  12  -4   9   52.49    5.80
 -12  -4  -9   57.99    5.60
 -12  -4  -9   58.49    7.20
 -12   4 -10   -1.80    3.50
 -12   4 -10    0.80    4.30
 -12   4 -10    2.40    4.20
  12  -4  10   -2.70    3.30
 -12  -4 -10  -16.90    6.80
 -12  -4 -10    4.10    3.70
 -12  -4 -10    1.30    5.60
 -12   5  11    3.20    3.10
  12  -5 -11    3.70    5.50
  12  -5 -11   -1.30    4.00
 -12  -5  11    4.30    3.50
  12  -5 -11   -3.20    5.10
 -12   5  10   51.89    5.40
  12  -5 -10   47.00    7.60
  12  -5 -10   44.20    6.80
  12  -5 -10   44.10    5.70
 -12  -5  10   56.49    5.60
 -12   5   9    2.30    2.60
  12   5  -9   -1.20    1.30
  12  -5  -9    3.90    5.00
  12  -5  -9   -1.30    4.60
  12  -5  -9    1.30    3.50
 -12  -5   9    3.60    3.20
 -12   5   8   32.20    3.90
  12   5  -8   32.60    4.70
  12  -5  -8   32.50    4.50
  12  -5  -8   35.50    6.60
 -12  -5   8   31.20    4.30
 -12   5   7    0.20    2.30
  12   5  -7   -0.10    1.50
  12   5  -7   -1.70    3.00
  12  -5  -7    2.70    4.00
 -12  -5   7    2.80    2.90
  12  -5  -7    1.80    3.10
  12   5  -6   24.50    4.20
  12   5  -6   28.50    2.60
 -12   5   6   25.80    3.40
  12  -5  -6   28.40    5.20
  12  -5  -6   28.40    4.30
 -12  -5   6   23.30    3.60
 -12   5   5   -1.40    2.10
  12   5  -5   -2.00    1.50
 -12  -5   5   -1.50    2.70
  12  -5  -5   -1.10    2.80
  12  -5  -5   20.50    4.70
 -12  -5   5    1.80    2.40
  12   5  -4   13.80    1.60
 -12   5   4   21.80    2.90
 -12   5   4   21.40    3.20
  12   5  -4   17.10    1.90
 -12  -5   4   18.90    3.10
  12  -5  -4   18.10    3.40
 -12  -5   4   14.00    3.70
  12   5  -3  418.76   20.90
  12   5  -3  425.06   20.80
 -12   5   3  424.66   21.70
 -12   5   3  422.36   21.40
  12   5  -3  364.86   22.30
  12   5  -3  393.16   20.80
 -12  -5   3  402.56   21.70
 -12  -5   3  387.16   22.20
  12  -5  -3  437.16   22.10
  12   5  -2    1.50    1.10
 -12   5   2    0.70    2.50
  12   5  -2    2.60    1.40
 -12   5   2    2.00    2.40
 -12   5   2    0.60    1.90
 -12  -5   2    4.60    2.40
 -12   5   1   39.50    3.80
  12   5  -1   29.60    2.80
  12   5  -1   29.10    3.00
 -12   5   1   29.20    4.00
 -12   5   1   36.20    3.70
 -12  -5   1   42.00    6.00
 -12  -5   1   35.00    3.80
 -12  -5   1   32.80    2.80
 -12  -5   1   41.20    3.90
  12   5   0   10.40    1.70
 -12   5   0    9.50    2.70
 -12   5   0    5.60    2.00
 -12   5   0   10.00    3.20
  12   5   0    8.60    2.30
 -12  -5   0   12.00    4.10
 -12  -5   0    9.70    1.70
 -12  -5   0    8.30    2.50
 -12   5  -1   32.70    3.50
  12   5   1   38.50    3.40
 -12   5  -1   41.20    4.10
 -12   5  -1   39.20    4.70
 -12  -5  -1   37.80    3.70
 -12  -5  -1   45.60    4.70
 -12  -5  -1   48.80    6.80
  12   5   2   24.40    2.70
 -12   5  -2   20.70    3.30
 -12   5  -2   17.50    3.90
 -12  -5  -2   31.00    5.60
 -12  -5  -2   24.10    3.70
 -12  -5  -2   24.90    2.80
 -12   5  -3   43.10    4.30
 -12   5  -3   44.10    5.10
 -12  -5  -3   47.20    6.90
 -12  -5  -3   42.90    4.40
 -12  -5  -3   50.79    5.50
 -12   5  -4   10.40    3.10
 -12   5  -4    7.70    3.50
 -12  -5  -4    6.50    4.00
 -12  -5  -4   10.50    2.60
 -12  -5  -4   10.10    5.60
 -12   5  -5   45.00    5.60
 -12   5  -5   43.90    4.40
 -12  -5  -5   40.30    4.10
 -12  -5  -5   27.10    4.90
 -12  -5  -5   39.70    6.70
 -12   5  -6    1.40    3.20
 -12   5  -6    2.70    3.90
 -12  -5  -6   -1.60    4.10
 -12  -5  -6    1.60    5.80
 -12  -5  -6   -1.90    2.60
 -12   5  -7   28.80    5.40
 -12   5  -7   33.50    4.40
 -12  -5  -7   30.90    5.60
 -12  -5  -7   32.20    4.00
 -12  -5  -7   25.00    7.30
 -12   5  -8    4.00    3.30
 -12   5  -8    7.80    4.40
 -12  -5  -8    1.30    3.30
 -12  -5  -8   -3.20    5.70
 -12  -5  -8  -10.50    4.50
 -12   5  -9    8.00    3.60
 -12   5  -9   13.70    5.10
 -12   5  -9    8.30    4.50
 -12  -5  -9  -10.10    6.80
  12  -5   9    8.20    3.60
 -12  -5  -9    6.10    3.50
 -12  -5  -9    8.00    5.40
 -12   5 -10   10.90    4.70
 -12   5 -10    6.50    3.80
 -12   5 -10   -0.90    4.10
 -12  -5 -10    7.80    5.70
 -12  -5 -10  -17.70    6.90
 -12  -5 -10    1.00    3.50
  12  -5  10    1.40    3.60
 -12   6  10   18.60    3.60
  12  -6 -10   13.30    5.70
 -12  -6  10   21.10    4.20
  12  -6 -10   16.00    4.40
  12  -6 -10   23.30    7.00
 -12   6   9    4.20    2.70
  12  -6  -9   -1.50    5.00
 -12  -6   9    2.10    3.10
  12  -6  -9    0.40    3.60
  12  -6  -9    1.00    5.30
  12   6  -8   35.80    5.20
 -12   6   8   41.70    4.40
  12  -6  -8   39.50    7.40
 -12  -6   8   36.90    4.60
  12  -6  -8   32.40    4.90
  12  -6  -8   33.60    6.00
  12   6  -7   51.89    5.70
 -12   6   7   56.59    5.20
 -12  -6   7   55.59    6.00
  12  -6  -7   59.39    5.80
  12  -6  -7   40.70    6.40
  12  -6  -7   59.79    8.50
 -12   6   6   24.30    3.20
  12   6  -6   20.90    4.70
  12  -6  -6   26.70    5.60
 -12  -6   6   17.30    3.50
  12  -6  -6   21.50    3.90
 -12   6   5   -1.00    2.10
  12  -6  -5    3.50    4.40
 -12  -6   5    0.90    2.50
  12  -6  -5    0.60    3.00
 -12  -6   5   -5.60    2.70
 -12   6   4  308.57   17.20
 -12   6   4  293.07   17.70
  12  -6  -4  325.17   19.00
  12  -6  -4  325.87   18.10
 -12  -6   4  356.06   18.40
 -12  -6   4  331.37   17.70
 -12   6   3  308.77   18.50
 -12   6   3  325.97   17.80
 -12  -6   3  332.97   18.20
 -12  -6   3  360.56   19.40
  12  -6  -3  361.66   18.70
 -12   6   2  373.66   19.70
 -12   6   2  376.36   20.00
 -12   6   2  381.36   19.20
  12  -6  -2  368.46   20.00
 -12  -6   2  356.06   20.70
 -12  -6   2  352.06   19.60
 -12  -6   2  351.16   19.00
 -12   6   1   17.10    3.10
 -12   6   1   15.90    2.40
 -12  -6   1   11.70    2.90
 -12  -6   1   15.70    2.60
 -12  -6   1   18.60    4.60
 -12   6   0   42.00    5.00
 -12   6   0   35.70    4.00
 -12   6   0   36.40    4.00
 -12  -6   0   36.70    5.70
 -12  -6   0   39.90    4.10
 -12  -6   0   35.10    2.90
 -12  -6   0   41.10    4.60
 -12   6  -1   13.30    4.00
 -12   6  -1   15.00    3.20
 -12  -6  -1   15.00    2.10
 -12  -6  -1    9.60    3.20
 -12  -6  -1   16.10    5.00
 -12   6  -2  265.77   17.50
 -12   6  -2  284.37   16.90
 -12  -6  -2  311.97   16.30
 -12  -6  -2  339.37   17.20
 -12  -6  -2  337.47   19.20
 -12   6  -3    4.00    3.70
 -12   6  -3    6.40    2.90
 -12   6  -4  274.77   16.40
 -12   6  -4  266.57   15.30
 -12  -6  -4  269.57   14.90
 -12  -6  -4  295.57   18.30
 -12  -6  -4  258.97   15.70
 -12   6  -5    5.50    3.90
 -12   6  -5   10.30    3.10
 -12  -6  -5   13.20    3.00
 -12  -6  -5    2.20    4.20
 -12  -6  -5    6.90    6.00
 -12   6  -6    5.40    3.30
 -12   6  -6    8.80    4.10
 -12  -6  -6    9.30    4.50
 -12  -6  -6    2.80    6.20
 -12  -6  -6   10.50    3.20
 -12   6  -7   10.90    4.80
 -12   6  -7    6.10    3.40
 -12  -6  -7    9.50    3.30
 -12  -6  -7    8.90    4.70
 -12  -6  -7   -0.40    6.40
 -12   6  -8    9.60    4.70
 -12   6  -8   -0.20    3.50
 -12  -6  -8    6.20    5.60
 -12  -6  -8   -2.80    5.90
 -12  -6  -8    2.10    3.20
 -12   6  -9    1.00    4.10
 -12   6  -9    6.10    3.80
 -12  -6  -9   -7.90    6.10
 -12  -6  -9   -0.20    5.50
 -12  -6  -9   -0.70    3.30
  12  -7  -9    2.30    6.10
  12  -7  -9    8.40    6.10
 -12  -7   9   10.30    3.40
  12  -7  -9    7.00    4.20
  12   7  -8    1.80    4.00
 -12  -7   8    3.70    3.00
  12  -7  -8    3.90    3.80
  12  -7  -8    4.20    6.20
  12  -7  -8   -2.20    5.30
  12   7  -7    0.50    4.30
 -12  -7   7    2.40    3.00
  12  -7  -7   -2.40    3.30
  12  -7  -7    2.40    5.10
  12  -7  -7    5.60    6.30
  12   7  -6   31.70    5.50
  12  -7  -6   37.30    4.80
 -12  -7   6   38.30    4.40
  12  -7  -6   34.10    6.10
  12  -7  -5   12.10    3.80
  12  -7  -5   25.30    5.70
 -12  -7   5   22.00    3.50
 -12   7   4   11.80    3.80
 -12  -7   4    9.10    4.10
  12  -7  -4   12.80    3.60
  12  -7  -4   17.70    5.20
 -12  -7   4   19.00    3.10
 -12   7   3    5.70    3.50
 -12  -7   3    9.10    3.70
  12  -7  -3    0.20    3.10
  12  -7  -3    3.20    4.80
 -12  -7   3   10.10    2.50
 -12   7   2    3.30    3.40
 -12  -7   2    0.20    3.40
  12  -7  -2    2.70    3.00
 -12  -7   2    1.70    2.20
 -12   7   1   16.00    3.30
 -12   7   1   12.30    3.90
  12  -7  -1   15.30    3.40
 -12  -7   1   22.20    3.10
 -12   7   0    0.80    2.70
 -12  -7   0    2.70    2.70
 -12  -7   0    1.80    2.40
 -12  -7   0    3.40    4.40
 -12   7  -1    4.30    3.80
 -12   7  -1    5.00    2.90
 -12  -7  -1    3.30    4.70
 -12  -7  -1    2.30    3.10
 -12  -7  -1    4.30    2.60
 -12   7  -2   33.10    5.30
 -12   7  -2   31.20    4.00
 -12  -7  -2   31.20    6.40
 -12  -7  -2   24.60    4.30
 -12   7  -3   28.70    5.10
 -12   7  -3   23.20    3.90
 -12  -7  -3   20.20    4.30
 -12  -7  -3   27.40    6.60
 -12   7  -4   -1.20    2.80
 -12   7  -4   -1.30    4.00
 -12  -7  -4   -4.80    5.30
 -12  -7  -4   -1.10    3.90
 -12   7  -5   24.10    5.10
 -12   7  -5   14.30    3.60
 -12  -7  -5   17.90    4.70
 -12  -7  -5   17.90    7.00
 -12   7  -6   37.90    4.60
 -12   7  -6   38.60    6.20
 -12  -7  -6   42.80    5.90
 -12  -7  -6   34.80    7.40
 -12   7  -7   11.90    5.20
 -12   7  -7   10.30    3.50
 -12  -7  -7    3.10    6.80
 -12  -7  -7    9.60    5.20
  12   8  -7   -3.10    4.70
  12  -8  -7    1.20    5.80
  12  -8  -7    2.10    6.30
  12  -8  -7   -1.50    3.60
  12  -8  -6    3.20    6.30
  12  -8  -6    3.60    3.50
  12  -8  -6    3.40    5.50
  12  -8  -5   54.09    5.80
  12  -8  -5   64.19    7.90
 -12   8   4   -4.50    3.50
  12  -8  -4    1.80    3.20
  12  -8  -4    2.30    5.60
 -12   8   3   -2.80    3.60
 -12  -8   3   -3.90    3.70
  12  -8  -3    4.70    5.00
  12  -8  -3   -3.50    3.10
 -12   8   2   53.09    6.30
  12  -8  -2   66.69    7.50
 -12  -8   2   57.39    7.80
  12  -8  -2   59.39    5.60
 -12   8   1   23.50    4.80
 -12  -8   1   17.00    5.20
  12  -8  -1   19.90    3.80
 -12   8   0   -1.40    2.70
 -12   8   0    1.00    3.90
  12  -8   0   -1.20    3.00
 -12  -8   0    0.50    4.60
 -12   8  -1   19.50    3.70
 -12  -8  -1   30.20    6.40
 -12   8  -2   -3.00    4.00
 -12   8  -2   -0.90    2.90
 -12  -8  -2    2.80    3.80
 -12  -8  -2   -4.30    4.90
 -12   8  -3    3.20    4.40
 -12   8  -3    2.10    3.10
 -12  -8  -3    0.90    5.40
 -12  -8  -3   -1.80    3.90
 -12   8  -4   28.80    5.80
 -12   8  -4   18.90    4.10
 -12  -8  -4   29.60    7.00
 -12  -8  -4   23.30    5.00
 -12   8  -5   91.39    7.60
 -12   8  -5   94.69    9.40
 -12  -8  -5   77.09   11.20
 -12  -8  -5   86.89    9.10
 -12   8  -6   12.30    5.30
  12  -9  -4   21.80    4.10
  12  -9  -4   22.90    6.60
 -12   9   3   10.00    4.70
  12  -9  -3   21.60    6.20
  12  -9  -3   18.00    4.00
 -12   9   2    4.30    4.40
 -12  -9   2    0.60    4.60
  12  -9  -2   10.00    5.60
  12  -9  -2    1.20    3.20
 -12   9   1    1.60    4.50
 -12  -9   1   -2.40    4.30
  12  -9  -1    9.20    5.50
  12  -9  -1    5.90    3.30
 -12   9   0   15.90    4.90
 -12  -9   0   10.20    5.70
  12  -9   0   11.60    3.10
 -12   9  -1    3.20    4.70
 -12   9  -1    0.00    2.20
 -12  -9  -1   -1.50    5.40
  12  -9   1   -1.00    1.30
 -12   9  -2    5.60    4.90
 -12   9  -2   -0.10    1.90
 -12  -9  -2    1.90    5.80
 -13   0  13    1.90    3.10
  13   0 -13   -3.00    3.60
 -13   0  12   34.30    4.80
  13   0 -12   41.70    5.40
  13   0 -12   36.20    4.70
  13   0 -11    1.50    3.20
  13   0 -11   -2.30    3.50
 -13   0  11   -1.60    2.80
  13   0 -10    8.80    3.40
  13   0 -10    7.30    3.40
 -13   0  10   12.40    3.40
  13   0  -9   -0.30    2.80
 -13   0   9   -0.20    2.70
  13   0  -9    0.20    2.90
  13   0  -8    1.00    1.70
  13   0  -8   -0.80    2.70
 -13   0   8    1.60    2.50
  13   0  -8    0.70    2.60
  13   0  -7    1.50    2.50
 -13   0   7    0.60    2.20
  13   0  -7   -3.30    2.40
  13   0  -7   -1.30    1.80
 -13   0   6    3.50    2.30
  13   0  -6    0.30    2.00
  13   0  -6    5.00    2.40
 -13   0   5    0.30    2.00
  13   0  -5   -1.30    2.10
  13   0  -5   -0.10    2.10
  13   0  -4  214.78   12.50
 -13   0   4  229.68   12.60
 -13   0   4  235.98   12.60
 -13   0   4  222.98   12.30
  13   0  -4  214.38   12.80
 -13   0   3   -0.60    2.20
  13   0  -3   -0.50    2.40
 -13   0   3    0.50    1.70
 -13   0   3   -1.70    1.90
  13   0  -2  768.22   39.00
 -13   0   2  769.62   38.30
  13   0  -2  728.63   38.20
 -13   0   2  725.83   38.70
 -13   0   2  738.83   38.10
 -13   0   1   -2.00    2.50
  13   0  -1    0.60    1.60
  13   0  -1   -1.10    3.00
 -13   0   1   -0.10    1.80
 -13   0   0   81.49    7.30
 -13   0   0  112.09    6.30
  13   0   0   96.89    7.70
 -13   0  -1   -2.10    2.80
 -13   0  -1    0.40    1.90
 -13   0  -2    1.50    2.30
 -13   0  -2    2.50    3.30
 -13   0  -2   -0.40    1.90
 -13   0  -3   -0.60    3.00
 -13   0  -3   -1.10    2.40
 -13   0  -3   -2.90    2.00
 -13   0  -4   80.79    6.70
 -13   0  -4   85.59    7.70
 -13   0  -4   89.69    6.30
 -13   0  -5    1.10    4.00
 -13   0  -5   -0.20    3.10
 -13   0  -5   -2.40    2.30
 -13   0  -6   21.20    3.40
 -13   0  -6   19.30    4.00
 -13   0  -6   18.40    4.60
 -13   0  -7   -5.90    2.80
 -13   0  -7   -4.40    3.40
 -13   0  -7    0.40    4.50
  13   0   8  107.99    8.30
 -13   0  -8  104.79   10.30
 -13   0  -8  105.19    8.00
 -13   0  -8  105.49    8.70
 -13   0  -9    1.70    4.70
  13   0   9   -0.50    3.00
 -13   0  -9   -3.10    3.80
 -13   0  -9    1.00    3.20
 -13   0 -10   15.00    5.50
 -13   0 -10   11.90    3.90
 -13   0 -10    9.10    4.70
  13   0  10    7.20    3.80
 -13   0 -11    0.30    4.60
  13   0  11    1.30    3.50
 -13   0 -11    1.30    4.40
 -13   0 -11    0.70    3.60
  13   1 -13    0.90    3.90
 -13   1  13    5.80    3.40
  13  -1 -13   -1.40    3.00
 -13  -1  13    0.90    3.10
  13  -1 -13    2.30    4.00
 -13   1  12   58.39    6.50
  13   1 -12   53.89    6.00
  13  -1 -12   60.69    6.40
  13  -1 -12   77.99    6.90
 -13  -1  12   73.49    6.80
 -13   1  11    4.60    2.90
  13   1 -11   -3.70    3.30
  13   1 -11   -4.90    2.80
  13  -1 -11   -2.80    3.50
  13  -1 -11   -3.30    3.20
 -13  -1  11    1.90    3.10
 -13   1  10   70.49    6.50
  13   1 -10   67.49    6.90
  13   1 -10   68.09    5.80
  13  -1 -10   66.19    6.90
 -13  -1  10   70.79    6.50
  13  -1 -10   75.49    7.00
 -13   1   9   47.20    4.90
  13   1  -9   49.50    4.90
  13   1  -9   48.90    5.00
 -13  -1   9   51.49    5.50
  13  -1  -9   44.40    5.10
  13  -1  -9   40.00    4.90
  13  -1  -9   47.60    5.00
  13   1  -8   93.59    6.70
  13   1  -8   91.59    7.20
 -13   1   8  101.29    7.10
  13  -1  -8   91.49    6.90
  13  -1  -8   86.49    7.30
 -13  -1   8   98.49    7.20
  13  -1  -8   95.69    6.30
  13  -1  -8   98.09    7.40
  13   1  -7   38.40    3.80
  13   1  -7   36.50    3.90
 -13   1   7   43.80    4.20
 -13  -1   7   32.10    3.80
  13  -1  -7   38.70    4.40
  13  -1  -7   34.00    4.00
  13  -1  -7   40.30    4.10
 -13   1   6   49.50    4.60
  13   1  -6   36.90    3.50
  13   1  -6   39.70    3.90
 -13  -1   6   42.90    4.10
  13  -1  -6   40.30    4.10
  13  -1  -6   51.29    4.50
 -13   1   5   33.00    3.60
  13   1  -5   36.60    3.60
  13   1  -5   26.00    3.60
  13  -1  -5   40.00    4.10
 -13  -1   5   39.00    3.90
  13  -1  -5   33.10    3.60
 -13   1   4  260.47   13.10
  13   1  -4  236.08   12.90
 -13   1   4  236.48   12.80
  13   1  -4  220.58   13.10
  13  -1  -4  213.98   13.20
 -13  -1   4  243.58   13.10
 -13  -1   4  237.88   13.00
  13  -1  -4  234.68   13.10
 -13   1   3   75.89    4.20
 -13   1   3   79.19    5.50
 -13   1   3   79.99    5.30
  13   1  -3   80.59    5.20
  13   1  -3   56.89    4.90
  13   1  -3   74.49    6.00
  13  -1  -3   76.09    5.90
 -13  -1   3   77.69    5.60
 -13  -1   3   71.59    5.90
 -13  -1   3   79.19    5.10
  13   1  -2   35.50    4.70
 -13   1   2   39.60    4.10
 -13   1   2   37.20    2.90
  13   1  -2   35.00    3.70
 -13   1   2   31.80    4.50
 -13   1   2   42.10    3.90
  13   1  -2   35.90    3.50
 -13  -1   2   32.20    4.60
 -13  -1   2   36.80    3.50
  13  -1  -2   38.80    4.80
 -13  -1   2   38.10    4.10
 -13   1   1  426.86   23.00
 -13   1   1  469.25   22.20
  13   1  -1  385.36   21.80
  13   1  -1  433.86   23.00
  13   1  -1  412.16   22.10
 -13  -1   1  443.26   22.00
 -13  -1   1  413.36   22.90
  13  -1  -1  397.16   23.10
  13   1   0  123.99    8.00
  13   1   0  136.19    9.60
 -13   1   0  133.59    9.20
 -13   1   0  155.58    8.40
 -13  -1   0  147.09    8.10
 -13  -1   0  140.69    9.70
 -13   1  -1   43.70    4.30
 -13   1  -1   42.90    5.70
 -13  -1  -1   43.20    4.00
 -13  -1  -1   40.20    5.90
 -13  -1  -1   41.50    4.50
 -13   1  -2    7.30    3.40
 -13   1  -2    9.10    2.30
 -13  -1  -2    6.30    3.60
 -13  -1  -2    7.50    2.20
 -13  -1  -2   11.80    2.90
 -13   1  -3   78.79    7.40
 -13   1  -3   86.19    5.80
 -13  -1  -3   75.69    6.20
 -13  -1  -3   68.09    7.10
 -13  -1  -3   75.09    5.70
 -13   1  -4  137.99   10.30
 -13   1  -4  139.39    9.00
 -13   1  -4  146.89    8.80
 -13  -1  -4  140.79   10.70
 -13  -1  -4  138.79    9.10
 -13  -1  -4  137.69    8.60
 -13   1  -5   18.50    3.40
 -13   1  -5   19.30    4.50
 -13   1  -5   13.60    3.00
 -13  -1  -5   16.10    5.00
 -13  -1  -5   13.00    3.30
 -13  -1  -5   11.80    2.80
 -13   1  -6   42.70    4.80
 -13   1  -6   32.20    3.80
 -13   1  -6   33.80    5.30
 -13  -1  -6   38.90    4.90
 -13  -1  -6   34.50    4.00
 -13  -1  -6   42.20    6.60
 -13   1  -7   -0.20    2.90
 -13   1  -7    2.50    3.90
 -13   1  -7    0.10    3.30
 -13  -1  -7   -1.10    2.70
 -13  -1  -7   -3.80    4.70
 -13  -1  -7    1.90    3.60
 -13   1  -8    3.50    3.80
 -13   1  -8    4.20    3.90
 -13   1  -8    6.60    3.40
 -13  -1  -8    4.50    4.00
  13  -1   8    2.20    2.90
 -13  -1  -8    5.20    3.20
 -13  -1  -8    4.20    4.80
 -13   1  -9   11.10    4.60
  13   1   9    9.10    3.60
 -13   1  -9   11.30    4.30
 -13   1  -9   10.90    3.40
 -13  -1  -9    6.20    3.60
  13  -1   9   11.90    3.80
 -13  -1  -9    6.10    5.00
 -13  -1  -9   11.60    4.30
  13   1  10    8.40    3.70
 -13   1 -10    8.00    4.50
 -13   1 -10   11.40    4.70
 -13   1 -10    7.20    3.50
 -13  -1 -10    4.00    3.60
 -13  -1 -10    3.40    5.40
 -13  -1 -10    4.20    4.80
  13  -1  10    6.80    3.80
 -13   1 -11   14.40    5.10
  13   1  11    9.50    4.10
 -13   1 -11    5.40    4.70
 -13   1 -11   10.00    4.00
 -13  -1 -11    7.60    3.70
 -13  -1 -11    0.80    4.70
  13  -1  11    7.20    4.00
 -13  -1 -11    3.00    5.40
 -13   2  13   17.60    4.00
  13   2 -13   19.70    4.60
 -13  -2  13   23.10    4.30
  13  -2 -13   13.70    4.60
  13  -2 -13   10.90    4.90
  13   2 -12   -3.30    3.40
 -13   2  12   -0.50    3.10
  13  -2 -12    2.30    4.30
  13  -2 -12   -1.60    3.70
 -13  -2  12    2.30    3.20
 -13   2  11   56.39    5.70
  13   2 -11   50.89    5.40
  13  -2 -11   66.19    7.30
  13  -2 -11   35.50    5.30
 -13  -2  11   60.09    6.10
  13   2 -10  117.99    8.00
 -13   2  10   90.99    7.70
  13  -2 -10   96.39    8.70
 -13  -2  10  105.59    7.90
  13  -2 -10   95.99    8.30
  13   2  -9  222.28   12.50
  13   2  -9  210.38   11.60
 -13   2   9  213.38   12.50
  13  -2  -9  200.48   12.80
  13  -2  -9  206.68   12.90
 -13  -2   9  209.78   12.70
  13  -2  -9  206.18   12.90
  13   2  -8  174.38    9.90
  13   2  -8  183.28   10.70
 -13   2   8  192.58   10.90
  13  -2  -8  173.88   11.50
  13  -2  -8  166.18   11.10
  13  -2  -8  175.08   10.90
  13  -2  -8  164.38   11.00
 -13  -2   8  179.38   11.00
  13   2  -7  126.99    7.40
  13   2  -7  136.79    8.10
 -13   2   7  121.59    8.10
 -13  -2   7  119.69    8.20
  13  -2  -7  117.29    8.60
  13  -2  -7  116.39    8.40
  13  -2  -7  120.79    8.50
  13   2  -6   17.30    2.50
  13   2  -6   15.10    1.90
 -13   2   6   16.50    2.80
  13   2  -6   16.10    2.80
  13  -2  -6   13.60    3.10
 -13  -2   6   16.80    3.00
  13  -2  -6    9.00    3.50
  13  -2  -6   18.30    3.20
  13   2  -5  124.79    7.50
  13   2  -5  115.19    7.20
  13   2  -5  117.09    7.00
 -13   2   5  130.89    7.70
 -13  -2   5  119.79    7.20
  13  -2  -5  117.79    8.00
  13  -2  -5  122.09    8.30
 -13  -2   5  125.59    7.80
  13   2  -4    1.10    1.50
  13   2  -4   -1.40    1.80
 -13   2   4   -1.80    2.00
 -13   2   4   -1.00    1.90
  13   2  -4    0.80    1.60
  13   2  -4   -1.30    1.90
 -13   2   4    0.10    1.20
 -13  -2   4   -3.90    2.10
  13  -2  -4    1.90    2.40
  13  -2  -4    1.20    2.30
 -13  -2   4    0.10    1.00
 -13  -2   4    3.60    2.10
 -13   2   3   65.79    4.90
  13   2  -3   61.79    4.40
  13   2  -3   55.19    4.30
  13   2  -3   53.49    5.20
 -13   2   3   57.09    3.90
 -13   2   3   67.29    4.80
 -13  -2   3   57.59    5.50
  13  -2  -3   59.79    5.80
 -13  -2   3   60.69    4.30
 -13  -2   3   60.09    4.90
 -13  -2   3   58.39    3.90
  13   2  -2   39.70    4.70
  13   2  -2   39.40    3.60
 -13   2   2   47.00    4.20
  13   2  -2   39.10    3.80
 -13   2   2   48.40    4.50
 -13   2   2   43.10    3.40
 -13  -2   2   46.20    5.40
 -13  -2   2   53.19    4.50
 -13  -2   2   43.30    3.80
 -13  -2   2   43.30    3.50
 -13   2   1   43.90    5.40
 -13   2   1   43.70    4.20
 -13   2   1   44.80    3.70
  13   2  -1   39.00    3.60
  13   2  -1   35.80    5.10
  13   2  -1   44.90    3.90
 -13  -2   1   49.40    3.90
 -13  -2   1   44.20    5.90
  13   2   0  153.88    8.60
 -13   2   0  140.19    9.90
 -13   2   0  154.88    8.60
  13   2   0  142.29    8.40
 -13   2   0  157.48    8.80
 -13  -2   0  143.29   10.20
 -13  -2   0  137.69    8.80
 -13  -2   0  148.09    8.50
 -13   2  -1   49.30    4.40
 -13   2  -1   41.50    5.30
 -13  -2  -1   41.60    4.70
 -13  -2  -1   43.30    6.40
 -13  -2  -1   46.00    3.90
 -13   2  -2   12.80    3.80
 -13   2  -2   13.80    2.50
 -13  -2  -2   11.80    4.20
 -13  -2  -2   12.60    2.80
 -13  -2  -2   14.00    2.40
 -13   2  -3   63.49    7.10
 -13   2  -3   68.79    5.40
 -13  -2  -3   60.69    7.00
 -13  -2  -3   64.79    5.70
 -13  -2  -3   64.39    5.10
 -13   2  -4   18.50    4.50
 -13   2  -4   15.90    2.90
 -13  -2  -4   16.20    4.60
 -13  -2  -4   21.60    3.00
 -13  -2  -4   16.30    3.40
 -13   2  -5   15.30    3.10
 -13   2  -5   21.30    4.50
 -13  -2  -5   18.80    5.50
 -13  -2  -5   15.40    3.10
 -13  -2  -5   16.90    3.80
 -13   2  -6    9.50    4.30
 -13   2  -6    4.00    2.90
 -13  -2  -6    8.90    3.80
 -13  -2  -6   10.00    3.00
 -13  -2  -6   16.40    5.50
 -13   2  -7   13.20    4.90
 -13   2  -7   13.20    4.00
 -13   2  -7    7.80    3.00
 -13  -2  -7   15.10    4.20
 -13  -2  -7   11.50    5.70
 -13  -2  -7   13.20    3.40
 -13   2  -8   41.80    5.40
 -13   2  -8   40.70    6.40
 -13   2  -8   26.30    4.10
 -13  -2  -8   41.60    4.70
 -13  -2  -8   37.70    5.30
  13  -2   8   32.10    4.60
 -13  -2  -8   27.80    6.90
 -13   2  -9    2.30    4.20
 -13   2  -9    4.40    4.10
 -13   2  -9   -1.40    3.00
 -13  -2  -9    2.70    4.20
 -13  -2  -9   -7.20    5.50
 -13  -2  -9   -0.80    3.30
  13  -2   9   -1.50    3.00
  13   2  10    3.20    3.50
 -13   2 -10    6.70    4.40
 -13   2 -10    0.60    4.10
 -13   2 -10    2.20    3.50
  13  -2  10    0.40    3.40
 -13  -2 -10    1.50    3.50
 -13  -2 -10   -8.90    5.70
 -13  -2 -10   -0.90    4.40
 -13   2 -11    8.40    4.40
  13   2  11    1.10    3.50
 -13   2 -11    6.70    4.50
 -13   2 -11    4.40    3.60
 -13  -2 -11    1.10    4.90
  13  -2  11   -2.20    3.30
 -13  -2 -11   -3.20    3.40
 -13  -2 -11   -9.70    5.50
 -13   3  12   -1.00    3.10
  13   3 -12   -0.90    3.40
  13  -3 -12    0.90    4.00
 -13  -3  12    2.80    3.00
  13  -3 -12    1.40    4.60
  13   3 -11   68.69    6.70
 -13   3  11   69.89    6.50
  13  -3 -11   66.29    7.40
 -13  -3  11   77.39    6.90
  13  -3 -11   67.19    6.80
 -13   3  10   10.00    3.30
  13   3 -10   11.20    3.40
  13  -3 -10   11.70    4.30
  13  -3 -10   15.40    3.90
  13  -3 -10    6.80    4.30
 -13  -3  10   11.20    3.20
  13   3  -9    6.30    2.90
 -13   3   9    8.10    3.00
  13  -3  -9    5.50    3.30
 -13  -3   9    5.20    3.00
  13  -3  -9    5.10    3.90
  13  -3  -9    5.20    4.00
  13   3  -8  117.29    7.60
  13   3  -8  109.19    6.70
 -13   3   8  112.79    7.90
 -13  -3   8  114.19    8.20
  13  -3  -8  109.59    9.60
  13  -3  -8  109.09    8.80
  13  -3  -8  109.09    8.20
 -13   3   7  176.58   10.70
  13   3  -7  185.78   10.40
  13   3  -7  174.48    9.30
 -13  -3   7  175.38   10.70
  13  -3  -7  165.98   11.40
  13  -3  -7  171.08   10.90
 -13   3   6   20.20    3.20
  13   3  -6   20.10    2.80
  13   3  -6   13.30    2.30
  13   3  -6   18.20    2.00
  13   3  -6   16.50    1.80
  13  -3  -6   18.70    2.50
  13  -3  -6   16.80    3.40
 -13  -3   6   23.90    2.30
  13  -3  -6   19.40    4.30
 -13  -3   6   20.80    3.10
 -13   3   5   30.20    3.50
  13   3  -5   34.00    3.20
  13   3  -5   35.10    3.50
  13   3  -5   30.50    3.60
  13   3  -5   34.20    2.80
 -13  -3   5   37.10    3.70
 -13  -3   5   28.20    3.50
  13  -3  -5   34.50    3.40
 -13  -3   5   33.20    3.00
  13  -3  -5   39.50    4.20
  13   3  -4   19.80    2.20
 -13   3   4   21.60    2.90
  13   3  -4   21.80    3.10
 -13   3   4   23.30    2.40
  13   3  -4   16.30    2.20
  13   3  -4   18.10    2.50
  13  -3  -4   18.80    3.10
 -13  -3   4   15.90    2.00
 -13  -3   4   21.00    3.10
 -13  -3   4   20.10    3.20
  13   3  -3    2.10    1.60
 -13   3   3    3.70    1.70
  13   3  -3    0.80    1.50
 -13   3   3    4.80    2.20
  13   3  -3    2.40    2.40
 -13   3   3    2.20    2.10
 -13  -3   3    1.90    1.50
 -13  -3   3    6.90    2.30
 -13  -3   3    4.90    1.60
  13   3  -2   28.40    2.70
 -13   3   2   34.60    3.40
  13   3  -2   32.20    3.10
 -13   3   2   33.90    3.50
 -13   3   2   33.60    3.40
  13   3  -2   27.90    4.00
 -13  -3   2   30.10    4.30
 -13  -3   2   28.40    2.70
 -13  -3   2   30.10    3.60
 -13  -3   2   35.30    3.60
 -13   3   1  172.78    9.70
 -13   3   1  167.68    9.50
  13   3  -1  168.58   10.80
  13   3  -1  156.58    9.10
  13   3  -1  166.48    9.50
 -13  -3   1  172.88    9.60
 -13  -3   1  168.48    9.20
 -13  -3   1  157.08   10.80
  13   3   0   21.50    2.90
  13   3   0   17.90    2.30
 -13   3   0   23.60    3.00
 -13   3   0   23.60    3.00
 -13  -3   0   27.60    3.10
 -13  -3   0   20.00    2.40
 -13   3  -1    6.80    3.50
 -13   3  -1   10.30    2.50
 -13   3  -1    3.10    2.20
  13   3   1    6.30    1.80
 -13  -3  -1    8.30    2.00
 -13  -3  -1    6.90    2.60
 -13  -3  -1    6.20    4.00
 -13   3  -2   93.79    6.30
 -13   3  -2   84.39    7.80
 -13   3  -2   91.49    6.60
 -13  -3  -2   84.89    5.80
 -13  -3  -2   82.69    8.50
 -13  -3  -2   77.29    6.30
 -13   3  -3   80.59    6.10
 -13   3  -3   76.89    7.40
 -13   3  -3   87.39    6.60
 -13  -3  -3   80.09    8.70
 -13  -3  -3   89.09    6.00
 -13  -3  -3   78.29    6.40
 -13   3  -4   20.30    3.20
 -13   3  -4   17.70    4.30
 -13  -3  -4   20.20    3.70
 -13  -3  -4   19.20    3.00
 -13  -3  -4   16.90    5.70
 -13   3  -5   48.40    4.70
 -13   3  -5   52.09    7.60
 -13  -3  -5   63.69    5.80
 -13  -3  -5   57.39    5.30
 -13  -3  -5   51.39    7.10
 -13   3  -6   51.09    6.80
 -13   3  -6   49.60    4.90
 -13  -3  -6   44.50    7.20
 -13  -3  -6   57.39    5.50
 -13  -3  -6   65.49    6.20
 -13   3  -7   57.49    8.20
 -13   3  -7   55.19    5.30
 -13  -3  -7   69.19    6.00
 -13  -3  -7   55.89    6.10
 -13  -3  -7   53.69    8.50
 -13   3  -8    5.40    4.40
 -13   3  -8    3.80    3.20
 -13  -3  -8   11.60    4.50
 -13  -3  -8    3.20    3.40
 -13  -3  -8    0.90    6.30
 -13   3  -9    4.20    4.30
 -13   3  -9   -2.20    3.10
 -13  -3  -9    3.60    3.50
  13  -3   9   -1.10    3.10
 -13  -3  -9    1.60    4.30
 -13  -3  -9   -7.60    5.20
 -13   3 -10   31.60    4.80
 -13   3 -10   40.70    6.30
 -13  -3 -10   34.00    5.90
  13  -3  10   43.20    5.60
 -13  -3 -10   22.20    7.90
 -13  -3 -10   38.10    5.10
 -13   3 -11   10.30    4.80
 -13   3 -11    0.70    3.60
  13  -3  11    7.50    4.00
 -13  -3 -11   -9.50    6.70
 -13  -3 -11    1.80    3.90
 -13  -3 -11    3.80    5.40
 -13   4  12    6.90    3.40
  13  -4 -12    9.30    5.70
 -13  -4  12   10.30    3.80
  13  -4 -12    6.50    4.20
 -13   4  11   79.09    6.90
  13  -4 -11   72.49    8.00
 -13  -4  11   82.59    7.40
  13  -4 -11   77.79    7.40
  13   4 -10   24.10    3.70
 -13   4  10   31.10    4.20
  13  -4 -10   25.60    5.60
 -13  -4  10   28.80    4.60
  13  -4 -10   25.70    4.70
  13   4  -9    2.10    2.50
 -13   4   9   -1.30    2.70
  13  -4  -9    0.90    3.20
  13  -4  -9   -1.60    4.20
 -13  -4   9    1.90    2.90
  13  -4  -9    1.60    4.40
  13   4  -8   16.70    3.00
 -13   4   8   17.80    3.30
  13   4  -8   13.50    2.90
  13  -4  -8   21.30    5.50
 -13  -4   8   17.70    3.60
  13  -4  -8   17.70    4.70
  13  -4  -8   17.20    4.00
  13   4  -7  103.29    7.30
  13   4  -7  115.39    7.20
 -13   4   7  104.99    7.60
  13  -4  -7  114.39    9.20
  13  -4  -7  100.29    8.20
 -13  -4   7  133.59    8.00
  13   4  -6    7.40    2.20
  13   4  -6    3.70    1.80
 -13   4   6    8.40    2.50
 -13  -4   6    6.20    2.70
  13  -4  -6    6.90    2.30
  13  -4  -6    6.00    4.20
 -13  -4   6    7.20    2.00
  13  -4  -6    4.10    3.10
 -13   4   5   73.69    5.50
  13   4  -5   68.79    4.80
  13   4  -5   59.89    4.50
 -13  -4   5   73.79    5.80
 -13  -4   5   63.09    4.50
 -13  -4   5   54.39    5.60
  13  -4  -5   63.99    5.30
  13  -4  -5   65.99    6.10
  13   4  -4   29.10    2.70
  13   4  -4   27.50    2.50
 -13   4   4   29.00    3.10
 -13   4   4   32.00    3.30
  13   4  -4   24.60    3.60
  13   4  -4   24.00    2.30
 -13  -4   4   32.20    3.70
  13  -4  -4   33.70    3.80
  13  -4  -4   25.00    3.60
 -13  -4   4   27.70    4.00
 -13  -4   4   19.60    2.60
 -13   4   3    3.20    2.10
  13   4  -3    0.40    2.70
 -13   4   3    2.60    2.30
  13   4  -3    2.10    1.60
  13   4  -3    0.20    1.40
  13   4  -3    0.50    1.40
 -13   4   3    0.70    2.00
 -13  -4   3    0.20    1.90
 -13  -4   3   -2.50    3.10
  13  -4  -3    2.30    2.60
 -13  -4   3    1.80    2.30
 -13   4   2   52.99    4.80
 -13   4   2   60.19    5.00
  13   4  -2   59.29    4.10
  13   4  -2   56.59    3.90
  13   4  -2   44.00    5.70
 -13   4   2   63.29    4.90
 -13  -4   2   55.19    4.90
 -13  -4   2   50.79    4.60
 -13  -4   2   56.49    3.90
 -13  -4   2   56.49    6.50
 -13   4   1   50.69    4.80
  13   4  -1   50.39    3.90
  13   4  -1   49.50    4.30
 -13   4   1   54.19    4.70
 -13   4   1   50.69    5.00
 -13  -4   1   50.49    4.00
 -13  -4   1   53.89    4.60
 -13  -4   1   56.99    5.10
 -13  -4   1   69.29    6.80
  13   4   0   89.49    5.90
 -13   4   0   89.09    6.50
 -13   4   0   86.39    6.50
  13   4   0   88.19    5.60
 -13  -4   0  102.59    6.40
 -13  -4   0   89.99    5.70
 -13   4  -1   11.10    2.60
  13   4   1    6.50    1.80
 -13   4  -1    7.10    2.80
 -13  -4  -1    5.10    2.70
 -13  -4  -1    8.00    2.00
 -13  -4  -1    9.90    4.60
 -13   4  -2   31.20    3.70
 -13   4  -2   31.80    4.10
 -13  -4  -2   34.50    4.00
 -13  -4  -2   36.90    6.20
 -13  -4  -2   28.00    3.10
 -13   4  -3  121.39    7.90
 -13   4  -3  114.29    9.50
 -13   4  -3  121.69    8.40
 -13  -4  -3  124.19    7.50
 -13  -4  -3  108.09    9.90
 -13  -4  -3  110.89    8.10
 -13   4  -4    5.60    4.20
 -13   4  -4    7.10    2.80
 -13   4  -4    7.70    3.40
 -13  -4  -4    8.20    3.40
 -13  -4  -4    5.10    5.70
 -13  -4  -4    3.50    2.40
 -13   4  -5   42.30    6.40
 -13   4  -5   47.70    5.50
 -13   4  -5   41.10    4.40
 -13  -4  -5   35.60    7.50
 -13  -4  -5   44.30    4.30
 -13  -4  -5   46.70    5.50
 -13   4  -6    3.80    3.10
 -13   4  -6    2.60    3.70
 -13   4  -6   -0.30    4.00
 -13  -4  -6    1.00    3.80
 -13  -4  -6    1.50    2.90
 -13  -4  -6   -2.90    5.20
 -13   4  -7  123.99   11.00
 -13   4  -7  127.99    9.00
 -13   4  -7  120.39    9.70
 -13  -4  -7  139.99   13.40
 -13  -4  -7  126.79   10.00
 -13  -4  -7  137.69    9.00
 -13   4  -8   41.30    6.70
 -13   4  -8   53.19    6.70
 -13   4  -8   44.30    4.90
 -13  -4  -8   33.20    7.70
 -13  -4  -8   42.20    6.20
 -13  -4  -8   39.10    4.70
 -13   4  -9   25.30    5.60
 -13   4  -9   30.80    4.40
 -13   4  -9   26.80    5.60
 -13  -4  -9   19.50    4.10
 -13  -4  -9   22.60    5.60
 -13  -4  -9   16.40    8.00
 -13   4 -10   34.90    6.40
 -13   4 -10   35.00    6.00
 -13   4 -10   24.20    4.80
 -13  -4 -10    9.20    8.40
 -13  -4 -10   31.70    6.30
 -13  -4 -10   31.20    4.70
  13  -4  10   24.10    5.20
 -13   5  11    7.30    3.40
 -13  -5  11    7.30    3.50
  13  -5 -11    7.00    5.50
  13  -5 -11   11.10    4.20
 -13   5  10    2.10    2.80
  13  -5 -10   -2.50    5.10
  13  -5 -10   -2.40    3.70
  13  -5 -10   10.00    5.70
 -13  -5  10    1.80    3.20
 -13   5   9   -1.80    2.40
  13  -5  -9   -2.70    4.40
 -13  -5   9    1.30    3.00
  13  -5  -9   -4.30    4.70
  13  -5  -9   -0.90    3.30
 -13   5   8    6.40    2.90
  13   5  -8    1.40    2.40
  13  -5  -8    0.20    3.30
  13  -5  -8    6.10    4.50
  13  -5  -8    4.10    5.10
 -13  -5   8    6.30    3.00
  13   5  -7    4.40    3.20
 -13   5   7    6.00    2.70
  13  -5  -7    5.50    4.50
  13  -5  -7    4.60    3.20
 -13  -5   7    6.10    3.10
 -13   5   6   73.49    5.80
  13   5  -6   58.79    4.60
  13  -5  -6   76.89    6.80
  13  -5  -6   77.99    7.40
 -13  -5   6   76.69    6.10
  13   5  -5   20.70    2.30
 -13   5   5   24.30    3.20
 -13  -5   5   13.80    3.90
  13  -5  -5   23.10    3.90
 -13  -5   5   20.10    3.40
  13  -5  -5   19.00    4.60
 -13   5   4   28.90    3.30
 -13   5   4   24.10    3.40
  13   5  -4   27.20    2.50
  13  -5  -4   32.70    4.20
 -13  -5   4   31.00    4.80
 -13  -5   4   25.70    3.60
 -13   5   3  420.96   23.90
  13   5  -3  464.35   23.10
 -13   5   3  446.26   24.00
 -13   5   3  440.66   23.60
 -13  -5   3  471.25   24.10
  13  -5  -3  475.25   24.40
  13   5  -2   86.29    5.30
  13   5  -2   81.69    4.90
 -13   5   2   74.19    6.50
 -13   5   2   78.49    6.50
 -13   5   2   81.39    6.00
 -13  -5   2   87.69    4.90
 -13  -5   2   84.29    6.50
 -13  -5   2   87.09    7.70
 -13   5   1   90.19    6.80
 -13   5   1   91.49    6.60
  13   5  -1   84.69    5.30
 -13   5   1   84.69    6.10
  13   5  -1   86.19    5.60
 -13  -5   1   88.99    6.00
 -13  -5   1   91.69    5.30
 -13  -5   1   79.69    6.70
 -13  -5   1   95.89    8.30
 -13   5   0   30.20    3.60
 -13   5   0   17.60    2.80
  13   5   0   26.10    3.00
  13   5   0   28.20    2.60
 -13   5   0   28.20    4.10
 -13  -5   0   26.90    3.40
 -13  -5   0   34.60    5.70
 -13  -5   0   31.60    2.70
 -13   5  -1   53.39    5.10
 -13   5  -1   37.60    4.80
  13   5   1   42.10    3.80
 -13  -5  -1   45.90    4.50
 -13  -5  -1   43.00    4.00
 -13  -5  -1   42.80    6.30
 -13   5  -2   28.60    4.30
  13   5   2   16.60    2.50
 -13   5  -2   28.60    3.60
 -13  -5  -2   22.50    3.80
 -13  -5  -2   26.60    2.90
 -13  -5  -2   28.50    6.30
 -13   5  -3   90.29    6.60
 -13   5  -3   70.99    7.10
 -13  -5  -3   78.79    7.30
 -13  -5  -3   86.89    5.90
 -13  -5  -3   91.49    9.80
 -13   5  -4   74.89    7.10
 -13   5  -4   68.49    6.40
 -13  -5  -4   72.39    5.80
 -13  -5  -4   68.39    9.50
 -13  -5  -4   67.29    7.10
 -13   5  -5   -0.20    2.90
 -13   5  -5    3.30    3.50
 -13  -5  -5    4.20    6.00
 -13  -5  -5    2.80    2.60
 -13  -5  -5    4.30    4.10
 -13   5  -6    9.70    3.30
 -13   5  -6   14.40    4.50
 -13  -5  -6   11.30    4.70
 -13  -5  -6    9.30    5.90
 -13  -5  -6   19.20    3.40
 -13   5  -7   19.80    4.90
 -13   5  -7   25.80    4.10
 -13  -5  -7   28.50    4.00
 -13  -5  -7    9.50    5.00
 -13  -5  -7   18.50    7.60
 -13   5  -8    8.30    4.90
 -13   5  -8    6.60    4.60
 -13   5  -8    4.30    3.50
 -13  -5  -8   10.30    5.20
 -13  -5  -8  -12.60    6.90
 -13  -5  -8    1.80    3.30
 -13   5  -9   16.90    5.60
 -13   5  -9   24.50    5.90
 -13   5  -9   18.60    4.40
 -13  -5  -9   21.60    6.00
 -13  -5  -9    6.00    7.70
 -13  -5  -9   20.40    4.10
 -13   6  10   10.30    2.80
  13  -6 -10   26.70    6.60
  13  -6 -10   22.90    4.70
 -13  -6  10   18.90    4.10
  13  -6 -10   32.20    7.30
 -13   6   9   37.00    4.60
  13  -6  -9   47.70    7.70
  13  -6  -9   50.89    7.60
 -13  -6   9   48.00    5.30
  13  -6  -9   43.80    5.60
  13   6  -8   -2.90    1.60
 -13   6   8    0.40    2.50
  13  -6  -8   -1.50    3.50
 -13  -6   8    2.90    3.00
  13  -6  -8    7.10    5.60
 -13   6   7   62.09    5.70
  13   6  -7   62.59    7.00
  13  -6  -7   55.59    6.00
 -13  -6   7   68.19    6.50
  13  -6  -7   75.79    7.80
 -13   6   6   42.80    4.60
  13  -6  -6   46.40    6.40
 -13  -6   6   42.40    4.70
  13  -6  -6   41.50    5.00
 -13   6   5   34.50    3.80
 -13  -6   5   39.40    4.40
  13  -6  -5   43.20    6.00
  13  -6  -5   38.20    4.70
 -13   6   4   68.99    6.50
 -13   6   4   75.89    5.70
  13  -6  -4   81.09    8.40
  13  -6  -4   77.09    6.80
 -13   6   3    7.00    2.30
 -13   6   3   11.40    3.30
  13  -6  -3   11.70    3.30
 -13   6   2  544.45   29.80
 -13   6   2  539.75   29.40
 -13   6   2  519.15   29.90
 -13  -6   2  579.54   29.90
 -13  -6   2  643.04   31.20
  13  -6  -2  599.14   30.20
 -13   6   1  179.28   10.10
 -13   6   1  166.68   11.10
 -13   6   1  179.78   10.70
 -13  -6   1  171.58   12.00
 -13  -6   1  178.68   10.10
 -13   6   0    8.30    3.00
 -13   6   0   13.00    3.80
 -13  -6   0   14.10    4.70
 -13  -6   0    6.30    2.70
 -13  -6   0    2.20    2.90
 -13   6  -1   14.70    4.10
 -13   6  -1   14.70    3.30
 -13  -6  -1   14.30    3.40
 -13  -6  -1   16.80    5.10
 -13  -6  -1   11.50    2.00
 -13   6  -2   39.30    4.60
 -13   6  -2   38.20    5.30
 -13  -6  -2   53.49    4.40
 -13  -6  -2   60.69    6.10
 -13   6  -3   22.30    4.50
 -13   6  -3   19.70    3.50
 -13  -6  -3   19.50    4.30
 -13  -6  -3   22.60    6.30
 -13  -6  -3   21.20    2.90
 -13   6  -4    7.40    4.00
 -13   6  -4    8.70    3.10
 -13   6  -5    6.90    4.00
 -13   6  -5    5.10    3.00
 -13  -6  -5    5.00    2.80
 -13  -6  -5   -0.60    6.00
 -13  -6  -5   -4.70    4.20
 -13   6  -6   -1.80    3.20
 -13   6  -6    0.90    3.80
 -13  -6  -6   -9.00    6.00
 -13  -6  -6  -12.50    4.20
 -13  -6  -6    2.90    3.00
 -13   6  -7   -1.70    3.30
 -13   6  -7   -2.80    3.90
 -13  -6  -7   -7.00    6.60
 -13  -6  -7   -0.50    3.10
 -13  -6  -7   -8.80    4.70
 -13   6  -8    1.90    3.50
 -13   6  -8   -0.10    4.60
 -13  -6  -8   -3.70    5.50
 -13  -6  -8    6.40    3.50
 -13  -6  -8   -2.80    7.00
 -13  -7   9    2.80    3.20
  13  -7  -9   -0.30    6.30
  13  -7  -9    0.40    6.10
  13  -7  -9   -0.40    3.80
  13  -7  -8   -0.40    5.30
  13  -7  -8   -2.40    3.60
 -13  -7   8    1.80    3.00
  13  -7  -8    1.20    6.20
  13   7  -7    3.90    4.80
  13  -7  -7   15.80    6.70
 -13  -7   7    9.20    3.30
  13  -7  -7    2.90    5.40
  13  -7  -7    4.80    3.90
  13  -7  -6  114.09   10.50
  13  -7  -6  109.89    8.60
 -13  -7   6  111.19    8.20
  13  -7  -5    0.00    3.30
 -13  -7   5    2.80    2.70
  13  -7  -5    6.10    5.00
 -13   7   4   10.60    3.60
 -13  -7   4    5.60    2.70
  13  -7  -4    6.00    3.40
  13  -7  -4    7.00    4.70
 -13  -7   4    5.70    3.80
 -13   7   3   28.10    4.40
 -13  -7   3   20.00    4.80
  13  -7  -3   23.00    4.10
  13  -7  -3   25.10    5.60
 -13  -7   3   24.40    3.40
 -13   7   2   -2.30    3.30
 -13  -7   2    4.20    2.40
 -13  -7   2    0.20    3.60
  13  -7  -2    0.90    3.20
 -13   7   1    9.80    3.90
 -13   7   1   13.60    3.30
 -13  -7   1   17.10    4.70
 -13  -7   1   16.40    3.10
 -13   7   0    2.60    2.80
 -13   7   0    1.50    3.70
 -13  -7   0    0.40    2.70
 -13  -7   0    3.20    4.60
 -13  -7   0   -0.90    2.50
 -13   7  -1   23.30    3.70
 -13   7  -1   32.20    4.90
 -13  -7  -1   19.20    5.80
 -13  -7  -1   19.30    3.40
 -13  -7  -1   18.60    3.80
 -13   7  -2    4.80    3.20
 -13   7  -2    5.80    4.00
 -13  -7  -2    8.30    5.40
 -13  -7  -2    5.20    3.70
 -13   7  -3   -2.70    3.00
 -13   7  -3    4.50    3.90
 -13  -7  -3   -2.40    3.70
 -13  -7  -3    2.30    5.40
 -13   7  -4    0.40    4.20
 -13   7  -4   -0.30    3.10
 -13  -7  -4   -5.40    5.60
 -13  -7  -4   -3.50    4.20
 -13   7  -5    2.80    4.50
 -13   7  -5    4.80    3.50
 -13  -7  -5    1.50    6.20
 -13  -7  -5    2.20    4.60
 -13   7  -6    1.90    3.00
 -13   7  -6    4.20    4.70
 -13  -7  -6   -2.90    4.60
 -13  -7  -6   -4.30    6.40
 -13   7  -7   13.30    5.10
 -13   7  -7   17.40    3.90
 -13  -7  -7    7.00    5.50
 -13  -7  -7    6.50    6.40
  13  -8  -7    3.10    6.00
  13  -8  -7    4.10    3.70
  13  -8  -7    5.20    6.90
  13  -8  -6    5.10    5.90
  13  -8  -6    4.20    7.10
  13  -8  -6    3.60    3.40
  13  -8  -5   23.90    4.40
  13  -8  -5   20.90    6.40
 -13   8   4   -0.80    3.70
  13  -8  -4    8.10    5.60
  13  -8  -4    4.70    3.60
 -13   8   3   -2.30    3.70
 -13  -8   3   -3.60    3.80
  13  -8  -3   -1.20    3.40
  13  -8  -3    5.30    5.10
 -13   8   2   39.20    5.70
  13  -8  -2   56.89    7.20
  13  -8  -2   42.40    4.90
 -13  -8   2   36.60    5.90
 -13   8   1   19.20    4.50
 -13  -8   1   11.80    5.00
  13  -8  -1   13.00    3.60
 -13   8   0   -0.90    3.70
 -13   8   0   -2.90    2.90
 -13  -8   0   -0.30    4.70
 -13   8  -1    4.20    4.30
 -13   8  -1    1.20    3.10
 -13  -8  -1    6.30    5.40
 -13   8  -2    9.50    3.50
 -13   8  -2   12.40    4.80
 -13  -8  -2   13.80    6.00
 -13   8  -3   24.60    4.10
 -13   8  -3   32.60    5.70
 -13  -8  -3   17.00    6.90
 -13  -8  -3    6.80    4.60
 -13   8  -4   18.00    5.20
 -13   8  -4   11.00    3.80
 -13  -8  -4    5.80    6.40
 -13  -8  -4    2.70    4.80
 -13   8  -5    5.00    3.70
 -13   8  -5    6.00    4.80
 -13  -8  -5   15.70    6.80
 -13  -8  -5    0.70    5.20
 -13   9   3    4.50    4.50
  13  -9  -3    4.60    3.60
  13  -9  -3   -0.80    5.80
 -13   9   2    6.50    4.70
  13  -9  -2   12.40    6.00
 -13  -9   2    0.60    4.60
  13  -9  -2    3.10    3.40
 -13   9   1    3.50    4.30
  13  -9  -1    4.60    6.00
 -13  -9   1    5.10    4.80
  13  -9  -1    4.00    3.30
 -13   9   0   11.60    4.80
  13  -9   0    5.50    3.60
 -13  -9   0    7.90    5.30
 -13   9  -1   12.20    5.00
 -13   9  -1    4.20    2.80
  13  -9   1   -1.50    1.80
 -13  -9  -1    3.80    5.60
  14   0 -13   -2.60    3.70
 -14   0  13   -1.30    3.10
  14   0 -12   -1.10    3.40
  14   0 -12    2.40    3.70
 -14   0  12    1.20    3.00
 -14   0  11    0.80    2.80
  14   0 -11    0.00    3.50
  14   0 -11   -1.90    2.80
  14   0 -10    1.70    3.20
 -14   0  10    2.80    2.70
  14   0 -10    0.90    3.10
  14   0  -9   -1.00    2.90
  14   0  -9    2.80    3.00
 -14   0   9    0.10    2.60
 -14   0   8   34.60    4.10
  14   0  -8   36.50    3.80
  14   0  -8   43.50    4.60
  14   0  -8   38.50    4.30
  14   0  -7    0.50    2.50
 -14   0   7    1.50    2.30
  14   0  -7   -1.60    2.10
  14   0  -7    2.30    2.60
  14   0  -6   65.29    5.40
 -14   0   6   67.49    5.50
  14   0  -6   69.99    5.90
 -14   0   5    2.00    2.20
  14   0  -5   -2.60    2.20
  14   0  -5   -1.50    2.10
  14   0  -4    1.80    2.60
 -14   0   4    4.50    2.30
 -14   0   4    3.40    1.80
  14   0  -4    3.30    2.30
 -14   0   4    2.90    2.30
 -14   0   3   -0.50    2.20
  14   0  -3   -2.20    2.50
 -14   0   3   -1.90    1.70
 -14   0   2  709.83   35.70
 -14   0   2  672.23   36.40
  14   0  -2  709.03   36.70
 -14   0   2  694.53   35.90
  14   0  -1   -5.80    2.80
 -14   0   1   -0.70    2.70
 -14   0   1   -0.10    1.80
 -14   0   0    1.40    3.00
 -14   0   0    2.00    2.00
 -14   0  -1   -2.20    2.90
 -14   0  -1    1.10    1.90
 -14   0  -2  325.67   16.80
 -14   0  -2  301.87   18.00
 -14   0  -3   -0.70    3.60
 -14   0  -3   -3.90    2.60
 -14   0  -3    2.30    2.30
 -14   0  -4   39.80    4.10
 -14   0  -4   49.70    7.00
 -14   0  -4   54.59    5.10
 -14   0  -5    2.90    4.10
 -14   0  -5    1.20    2.60
 -14   0  -5    1.80    3.10
 -14   0  -6    8.90    3.60
 -14   0  -6    5.30    2.90
 -14   0  -6    7.50    4.60
 -14   0  -7    0.00    3.70
 -14   0  -7    0.00    2.80
 -14   0  -7    0.80    4.50
 -14   0  -8   64.89    6.30
 -14   0  -8   51.79    7.70
 -14   0  -8   49.50    5.10
 -14   0  -9    0.00    4.50
 -14   0  -9   -1.40    4.10
 -14   0  -9   -0.30    3.20
 -14   0 -10    6.50    3.60
 -14   0 -10    8.50    5.00
 -14   0 -10    3.60    4.50
  14   0  10    4.90    3.50
  14   0  11    1.50    3.60
 -14   0 -11    5.20    4.50
 -14   0 -11   -2.80    4.70
 -14   0 -11    2.60    3.70
  14   1 -13   11.10    4.30
 -14   1  13   17.90    4.10
  14  -1 -13   14.00    4.50
 -14  -1  13   18.60    4.00
  14  -1 -13   12.70    4.30
 -14   1  12   33.50    4.60
  14   1 -12   35.30    5.20
  14  -1 -12   29.60    4.80
 -14  -1  12   28.40    4.50
  14  -1 -12   34.30    5.10
 -14   1  11   20.90    4.00
  14   1 -11   22.40    4.50
  14  -1 -11   21.90    4.30
 -14  -1  11   24.20    4.10
  14  -1 -11   24.50    4.80
  14   1 -10  137.19    8.80
 -14   1  10  149.09    9.60
  14   1 -10  143.79    9.70
  14  -1 -10  132.99   10.10
 -14  -1  10  155.68    9.90
  14  -1 -10  138.49    9.90
  14   1  -9   40.50    4.20
 -14   1   9   42.70    4.60
  14   1  -9   53.09    5.00
 -14  -1   9   42.70    4.80
  14  -1  -9   48.20    5.20
  14  -1  -9   41.00    4.90
 -14   1   8   41.20    4.40
  14   1  -8   39.90    4.40
  14   1  -8   43.10    4.70
 -14  -1   8   44.10    4.60
  14  -1  -8   39.80    4.70
  14  -1  -8   39.50    4.50
  14   1  -7   -1.10    1.50
  14   1  -7    0.80    2.50
  14   1  -7    0.40    2.20
 -14   1   7    1.70    2.40
 -14  -1   7    1.90    2.50
  14  -1  -7    3.40    2.10
  14  -1  -7    0.40    2.90
  14  -1  -7    0.40    2.70
  14   1  -6   75.39    5.80
 -14   1   6   74.79    5.70
  14   1  -6   61.89    4.90
 -14  -1   6   77.89    5.70
  14  -1  -6   69.29    5.90
  14  -1  -6   69.59    5.50
 -14   1   5   54.79    5.00
  14   1  -5   45.90    4.70
  14   1  -5   52.99    4.80
  14  -1  -5   61.19    5.30
 -14  -1   5   56.79    4.60
 -14  -1   5   58.19    5.20
  14  -1  -5   58.29    5.10
 -14   1   4   93.39    6.10
  14   1  -4   91.09    6.20
 -14   1   4   98.19    6.40
  14   1  -4   73.59    6.30
 -14  -1   4   88.19    6.30
 -14  -1   4   91.19    6.50
  14  -1  -4   94.59    6.80
 -14  -1   4   95.09    5.90
  14  -1  -4   95.59    6.60
 -14   1   3  261.17   13.60
 -14   1   3  258.47   14.40
  14   1  -3  244.58   13.50
  14   1  -3  241.28   14.20
 -14   1   3  242.58   12.80
 -14  -1   3  262.37   13.50
  14  -1  -3  238.28   14.40
 -14  -1   3  247.88   14.00
 -14   1   2   67.69    5.10
  14   1  -2   60.09    5.90
 -14   1   2   58.89    5.70
 -14   1   2   74.19    5.00
 -14   1   2   61.79    4.00
  14   1  -2   63.89    4.80
 -14  -1   2   58.69    5.80
  14  -1  -2   45.80    5.70
 -14  -1   2   61.19    5.20
 -14  -1   2   68.29    4.70
  14   1  -1  201.88   11.70
  14   1  -1  198.98   13.00
 -14   1   1  220.98   11.90
 -14   1   1  206.68   12.80
 -14  -1   1  228.98   13.10
 -14  -1   1  225.98   11.70
 -14   1   0    6.60    2.30
 -14   1   0    2.10    3.00
 -14  -1   0    4.70    2.00
 -14  -1   0    7.60    3.40
 -14   1  -1  159.48   10.90
 -14   1  -1  176.18    9.60
 -14  -1  -1  166.08    9.50
 -14  -1  -1  155.38   11.10
 -14   1  -2  218.08   11.80
 -14   1  -2  199.08   13.10
 -14  -1  -2  191.88   13.10
 -14  -1  -2  210.58   12.10
 -14  -1  -2  232.28   11.80
 -14   1  -3   42.60    5.80
 -14   1  -3   45.60    4.10
 -14  -1  -3   46.90    4.60
 -14  -1  -3   48.20    4.60
 -14  -1  -3   38.40    5.50
 -14   1  -4  383.76   20.40
 -14   1  -4  380.86   22.00
 -14  -1  -4  381.06   22.30
 -14  -1  -4  388.46   20.30
 -14  -1  -4  367.56   20.70
 -14   1  -5    3.30    3.20
 -14   1  -5   -0.20    2.80
 -14   1  -5    5.30    4.10
 -14  -1  -5    5.10    4.30
 -14  -1  -5    2.50    3.30
 -14  -1  -5    3.50    2.70
 -14   1  -6   16.00    4.00
 -14   1  -6   12.70    3.30
 -14   1  -6   10.70    4.20
 -14  -1  -6    9.20    3.90
 -14  -1  -6   12.90    5.50
 -14  -1  -6    9.90    3.10
 -14   1  -7   13.40    3.40
 -14   1  -7   20.30    5.20
 -14   1  -7   17.60    4.30
 -14  -1  -7   22.50    4.60
 -14  -1  -7   15.80    5.90
 -14  -1  -7   15.80    3.60
 -14   1  -8   41.10    5.50
 -14   1  -8   26.40    4.10
 -14   1  -8   31.20    5.90
 -14  -1  -8   34.40    7.00
 -14  -1  -8   33.40    5.30
 -14  -1  -8   35.70    4.40
 -14   1  -9    7.00    4.40
 -14   1  -9    8.50    4.60
 -14   1  -9    6.80    3.60
 -14  -1  -9    8.90    4.60
 -14  -1  -9    2.40    5.70
 -14  -1  -9    5.00    3.60
 -14   1 -10    9.00    4.90
 -14   1 -10    8.60    4.60
 -14   1 -10   11.70    3.90
  14  -1  10    7.50    3.70
 -14  -1 -10    6.50    3.80
 -14  -1 -10   12.30    6.10
 -14  -1 -10    8.80    4.90
 -14   1 -11   15.10    4.20
 -14   1 -11   19.30    5.20
  14   1  11   12.20    4.10
 -14   1 -11    7.80    5.10
  14  -1  11   10.70    4.20
 -14  -1 -11   10.40    5.30
 -14  -1 -11    6.70    4.10
 -14  -1 -11    8.10    5.60
  14   2 -13    0.60    3.80
 -14   2  13    3.90    3.40
 -14  -2  13    1.20    3.20
  14  -2 -13   -1.10    4.10
  14   2 -12   19.20    4.10
 -14   2  12   19.00    3.90
 -14  -2  12   15.80    3.90
  14  -2 -12   21.50    4.60
  14  -2 -12   24.50    5.20
 -14   2  11   40.70    4.90
  14   2 -11   35.70    4.70
  14  -2 -11   40.60    5.40
 -14  -2  11   32.70    4.70
  14  -2 -11   35.10    5.30
 -14   2  10   33.90    4.40
  14   2 -10   29.40    4.30
  14  -2 -10   32.40    5.20
  14  -2 -10   23.80    4.50
 -14  -2  10   30.90    4.40
 -14   2   9    7.10    3.00
  14   2  -9    4.40    2.40
  14   2  -9    1.50    2.90
  14  -2  -9    2.20    3.40
  14  -2  -9    8.40    3.50
 -14  -2   9    8.60    3.00
 -14   2   8  288.47   15.80
  14   2  -8  283.87   15.70
  14   2  -8  284.47   15.00
  14  -2  -8  281.47   16.10
  14  -2  -8  264.97   16.10
 -14  -2   8  273.07   15.90
 -14   2   7   17.70    3.10
  14   2  -7   16.90    3.10
  14   2  -7   18.20    2.60
  14  -2  -7   20.30    3.40
  14  -2  -7   21.00    4.00
  14  -2  -7   12.10    3.30
 -14  -2   7   18.30    3.30
 -14   2   6    1.80    2.20
  14   2  -6    0.40    2.30
  14   2  -6    2.00    1.70
  14  -2  -6    2.50    2.70
 -14  -2   6    1.40    2.30
  14  -2  -6    5.70    2.80
  14   2  -5  192.18   10.60
 -14   2   5  189.18   11.30
  14   2  -5  189.28   10.90
  14   2  -5  198.38   11.00
 -14  -2   5  198.78   11.50
 -14  -2   5  192.68   10.80
  14  -2  -5  195.78   11.40
  14   2  -4   60.39    4.50
  14   2  -4   59.19    5.00
 -14   2   4   62.59    5.30
 -14   2   4   57.99    3.80
 -14   2   4   63.19    5.00
  14   2  -4   61.19    4.80
  14  -2  -4   56.09    5.40
 -14  -2   4   62.89    5.30
 -14  -2   4   55.59    3.60
 -14  -2   4   63.49    5.10
  14   2  -3  153.98    9.90
 -14   2   3  169.98    9.60
  14   2  -3  128.49    8.90
 -14   2   3  162.18    8.70
 -14   2   3  171.68    9.50
  14   2  -3  171.08    9.20
 -14  -2   3  159.78   10.00
 -14  -2   3  166.08    8.70
 -14  -2   3  166.48    9.10
 -14  -2   3  165.08    9.70
 -14   2   2  114.49    6.40
 -14   2   2  116.99    7.20
  14   2  -2  103.39    7.80
  14   2  -2  109.49    6.80
  14   2  -2  103.99    6.60
 -14   2   2  108.29    7.10
 -14  -2   2  113.09    6.70
 -14  -2   2  113.59    7.30
 -14  -2   2  112.19    6.50
 -14  -2   2  101.69    8.10
 -14   2   1   27.60    4.20
  14   2  -1   26.20    3.00
  14   2  -1   17.10    2.40
  14   2  -1   23.40    4.10
 -14   2   1   24.80    3.00
 -14   2   1   23.00    2.80
 -14  -2   1   29.40    2.80
 -14  -2   1   27.90    4.40
 -14   2   0  186.08   10.60
 -14   2   0  186.48   11.90
 -14   2   0  190.88   10.40
 -14  -2   0  177.78   10.20
 -14  -2   0  177.68   12.00
 -14   2  -1   -1.70    1.90
 -14   2  -1   -2.30    2.60
 -14  -2  -1    1.50    1.80
 -14  -2  -1   -1.50    3.50
 -14  -2  -1   -0.90    2.40
 -14   2  -2   35.90    3.80
 -14   2  -2   36.40    5.00
 -14  -2  -2   35.40    5.60
 -14  -2  -2   37.10    3.50
 -14  -2  -2   37.50    4.10
 -14   2  -3   11.70    4.30
 -14   2  -3    8.20    2.60
 -14  -2  -3    8.40    4.50
 -14  -2  -3   10.00    3.10
 -14  -2  -3    6.50    2.50
 -14   2  -4   27.80    5.20
 -14   2  -4   20.80    3.30
 -14  -2  -4   18.30    5.00
 -14  -2  -4   24.00    4.00
 -14  -2  -4   26.00    3.40
 -14   2  -5   15.20    3.10
 -14   2  -5   19.80    5.00
 -14  -2  -5   16.00    5.60
 -14  -2  -5   18.70    4.10
 -14  -2  -5   14.60    3.10
 -14   2  -6    1.00    4.00
 -14   2  -6   -5.70    2.70
 -14  -2  -6    0.60    3.50
 -14  -2  -6    1.90    2.90
 -14  -2  -6    1.90    5.20
 -14   2  -7   12.60    3.40
 -14   2  -7   11.60    4.20
 -14   2  -7    9.40    4.60
 -14  -2  -7   15.10    3.50
 -14  -2  -7    7.20    5.90
 -14  -2  -7    8.70    4.00
 -14   2  -8    9.90    3.30
 -14   2  -8   10.70    4.40
 -14   2  -8    7.70    4.20
 -14  -2  -8   10.60    4.50
 -14  -2  -8   10.00    3.60
 -14  -2  -8    2.60    6.10
 -14   2  -9  102.29    9.00
 -14   2  -9  103.99    9.90
 -14   2  -9   95.29    7.80
 -14  -2  -9   77.39   10.20
 -14  -2  -9   87.79    9.00
 -14  -2  -9   92.59    7.80
 -14   2 -10   42.20    6.00
 -14   2 -10   46.70    6.90
 -14   2 -10   37.60    4.90
 -14  -2 -10   37.40    5.00
 -14  -2 -10   30.30    7.60
 -14  -2 -10   41.80    6.30
  14  -2  10   31.00    5.00
 -14   2 -11   28.90    5.80
 -14   2 -11   15.90    4.30
 -14  -2 -11   20.80    4.60
  14  -2  11   18.70    4.50
 -14  -2 -11   19.40    5.80
 -14  -2 -11    9.30    6.60
  14   3 -12   11.30    4.00
 -14   3  12   13.60    3.70
  14  -3 -12    4.00    4.90
  14  -3 -12   10.20    4.30
 -14  -3  12   12.50    3.50
 -14   3  11   17.00    3.90
  14   3 -11   19.70    4.00
  14  -3 -11   17.20    4.30
 -14  -3  11   20.40    4.10
  14  -3 -11   26.10    5.20
 -14   3  10   -2.00    2.70
  14   3 -10    0.80    3.00
  14  -3 -10    0.30    3.40
  14  -3 -10   -3.70    4.10
  14  -3 -10    0.30    2.20
 -14  -3  10   -0.10    3.00
 -14   3   9   13.10    3.30
  14   3  -9   13.90    3.40
  14  -3  -9   16.40    4.30
 -14  -3   9   16.00    3.60
  14  -3  -9   15.70    3.90
  14   3  -8   11.60    3.00
 -14   3   8   11.70    3.10
 -14  -3   8   11.60    3.20
  14  -3  -8   13.00    3.70
  14  -3  -8   11.80    4.10
  14   3  -7  151.58    8.90
 -14   3   7  140.49    9.20
  14   3  -7  141.59    8.00
  14  -3  -7  143.99   10.10
 -14  -3   7  147.89    9.50
  14  -3  -7  138.59    9.70
  14   3  -6    9.50    1.80
  14   3  -6   14.30    2.00
 -14   3   6   18.20    3.10
  14   3  -6   14.20    1.90
  14   3  -6   14.20    2.70
  14  -3  -6   14.90    4.30
  14  -3  -6   13.50    2.20
 -14  -3   6   16.80    3.20
  14  -3  -6   16.40    3.40
  14   3  -5   36.50    4.20
  14   3  -5   39.70    3.90
  14   3  -5   54.69    4.30
  14   3  -5   41.10    3.20
 -14   3   5   46.90    4.50
 -14  -3   5   42.80    3.20
  14  -3  -5   36.30    4.30
 -14  -3   5   46.70    4.50
 -14  -3   5   46.10    4.20
  14   3  -4   17.90    2.40
  14   3  -4   13.00    3.00
 -14   3   4   20.30    2.90
  14   3  -4   14.60    2.10
 -14   3   4   19.70    2.30
  14   3  -4   16.10    2.10
 -14   3   4   15.10    2.70
 -14  -3   4   11.70    1.90
  14  -3  -4   11.70    3.00
 -14  -3   4   15.00    2.90
 -14  -3   4   16.90    3.20
 -14   3   3   -0.10    2.20
  14   3  -3   -0.80    1.60
  14   3  -3    0.50    2.50
 -14   3   3    0.00    1.60
 -14   3   3    1.10    2.20
  14   3  -3    2.20    1.60
 -14  -3   3   -1.50    1.40
 -14  -3   3   -2.40    1.60
 -14  -3   3    1.10    2.80
 -14  -3   3   -1.40    2.10
 -14   3   2    2.80    2.20
  14   3  -2   -1.40    1.70
  14   3  -2   -3.30    2.60
 -14   3   2   -1.70    2.00
  14   3  -2   -1.20    1.50
 -14   3   2    2.00    1.90
 -14  -3   2   -0.80    1.60
 -14  -3   2    0.60    1.90
 -14  -3   2    1.70    2.30
 -14  -3   2    1.70    3.20
  14   3  -1  288.37   15.30
  14   3  -1  270.47   15.00
 -14   3   1  272.37   15.20
 -14   3   1  288.57   15.50
 -14  -3   1  289.67   15.40
 -14  -3   1  288.07   15.10
 -14  -3   1  293.07   16.90
 -14   3   0   40.30    4.20
  14   3   0   37.70    3.70
 -14   3   0   46.80    5.60
 -14   3   0   50.39    4.30
 -14  -3   0   45.80    4.60
 -14  -3   0   38.50    5.60
 -14  -3   0   41.10    4.00
 -14   3  -1   37.80    3.90
 -14   3  -1   38.50    3.80
 -14   3  -1   36.90    5.30
 -14  -3  -1   32.70    3.80
 -14  -3  -1   31.20    5.30
 -14  -3  -1   31.90    3.20
 -14   3  -2   13.60    2.80
 -14   3  -2   15.00    3.20
 -14   3  -2   17.90    4.40
 -14  -3  -2   15.70    3.20
 -14  -3  -2   14.80    2.60
 -14  -3  -2   15.70    5.10
 -14   3  -3   17.00    3.60
 -14   3  -3   12.90    2.90
 -14   3  -3   17.90    4.40
 -14  -3  -3   12.90    2.80
 -14  -3  -3   11.30    5.20
 -14  -3  -3   17.60    3.60
 -14   3  -4   49.80    6.70
 -14   3  -4   51.69    5.30
 -14  -3  -4   60.29    7.70
 -14  -3  -4   61.39    5.30
 -14  -3  -4   51.99    6.00
 -14   3  -5    3.80    2.90
 -14   3  -5    5.70    4.40
 -14  -3  -5    2.40    2.70
 -14  -3  -5    3.40    3.60
 -14  -3  -5    1.90    5.40
 -14   3  -6   10.60    4.70
 -14   3  -6    5.80    3.00
 -14  -3  -6    2.60    5.70
 -14  -3  -6    7.10    4.00
 -14  -3  -6   11.20    3.10
 -14   3  -7  211.08   14.90
 -14   3  -7  202.68   13.00
 -14  -3  -7  213.08   16.20
 -14  -3  -7  223.58   12.70
 -14  -3  -7  211.38   13.50
 -14   3  -8   16.80    5.10
 -14   3  -8   10.50    3.60
 -14  -3  -8    9.40    4.60
 -14  -3  -8    4.30    6.60
 -14  -3  -8   14.00    3.80
 -14   3  -9   92.99    9.70
 -14   3  -9   89.79    7.80
 -14  -3  -9   97.09    9.90
 -14  -3  -9   68.29   10.10
 -14  -3  -9   92.59    7.70
 -14   3 -10   -3.90    3.20
 -14   3 -10    4.30    4.70
 -14  -3 -10    0.40    5.00
 -14  -3 -10   -1.50    3.70
 -14  -3 -10  -14.00    6.30
 -14   4  12   21.80    4.20
 -14  -4  12   21.60    4.40
  14  -4 -12   13.20    4.40
 -14   4  11   21.30    4.00
  14  -4 -11   20.40    5.60
  14  -4 -11   16.60    4.40
 -14  -4  11   15.30    3.90
 -14   4  10    0.70    2.80
  14   4 -10    0.80    2.20
  14  -4 -10    1.00    4.70
  14  -4 -10   -2.30    3.40
  14  -4 -10    5.10    4.70
 -14  -4  10    2.00    3.20
 -14   4   9   27.50    4.00
  14   4  -9   29.60    3.70
  14  -4  -9   29.60    5.80
 -14  -4   9   30.60    4.50
  14  -4  -9   28.20    4.80
  14   4  -8   -2.10    2.30
 -14   4   8   -0.60    2.50
  14  -4  -8    0.90    3.10
 -14  -4   8    2.00    2.80
  14  -4  -8    1.30    4.80
  14  -4  -8   -0.90    4.10
  14   4  -7   35.80    3.50
 -14   4   7   34.80    4.10
  14  -4  -7   29.40    5.20
 -14  -4   7   37.00    4.30
  14  -4  -7   28.60    4.30
 -14   4   6    9.80    2.70
  14   4  -6    8.60    2.30
 -14  -4   6    9.00    2.90
  14  -4  -6    8.20    3.10
  14  -4  -6    5.30    4.00
 -14   4   5   49.80    4.80
  14   4  -5   53.09    4.20
  14   4  -5   37.50    3.70
 -14  -4   5   50.09    5.20
  14  -4  -5   47.30    5.00
 -14  -4   5   48.90    4.90
  14  -4  -5   46.10    4.30
 -14  -4   5   34.00    3.30
  14   4  -4    1.00    1.60
  14   4  -4    5.70    1.60
 -14   4   4    3.30    2.20
  14   4  -4    4.50    2.70
  14   4  -4    2.00    1.90
 -14   4   4    1.80    2.30
 -14  -4   4    3.00    3.20
 -14  -4   4    4.90    2.60
  14  -4  -4    2.80    2.80
 -14  -4   4    1.00    1.80
 -14   4   3  114.59    7.10
 -14   4   3  111.79    6.70
  14   4  -3  103.39    6.20
  14   4  -3   85.29    7.60
  14   4  -3  104.59    6.30
 -14   4   3  106.39    7.10
  14   4  -3  106.19    6.00
 -14  -4   3  101.19    7.20
 -14  -4   3   98.89    8.30
 -14  -4   3   97.39    6.60
 -14   4   2   27.70    3.40
 -14   4   2   29.70    3.40
  14   4  -2   31.00    3.20
  14   4  -2   29.40    2.70
 -14  -4   2   36.00    5.10
 -14  -4   2   25.10    3.20
 -14  -4   2   28.50    3.70
 -14  -4   2   28.90    2.60
  14   4  -1  209.58   11.40
 -14   4   1  207.98   12.00
 -14   4   1  214.28   12.20
 -14   4   1  205.58   12.10
  14   4  -1  207.68   11.70
 -14  -4   1  211.28   11.50
 -14  -4   1  217.58   12.40
 -14  -4   1  209.48   11.80
 -14  -4   1  229.28   13.90
 -14   4   0    1.30    2.40
  14   4   0    2.40    1.60
 -14   4   0   -1.30    2.40
 -14  -4   0    1.30    1.70
 -14  -4   0    7.80    4.60
 -14  -4   0    0.30    2.40
 -14   4  -1  360.86   19.80
 -14   4  -1  404.06   19.70
 -14  -4  -1  341.97   19.50
 -14  -4  -1  353.56   21.40
 -14  -4  -1  366.86   19.20
 -14   4  -2   29.90    3.70
 -14   4  -2   26.50    4.00
 -14  -4  -2   22.60    3.70
 -14  -4  -2   23.60    6.20
 -14  -4  -2   27.00    3.00
 -14   4  -3  780.22   39.80
 -14   4  -3  791.42   41.80
 -14   4  -3  739.73   40.10
 -14  -4  -3  791.62   41.90
 -14  -4  -3  734.83   39.90
 -14  -4  -3  788.52   39.50
 -14   4  -4   79.39    7.10
 -14   4  -4   88.79    9.10
 -14   4  -4   87.69    6.80
 -14  -4  -4   81.29   10.30
 -14  -4  -4   85.29    7.30
 -14  -4  -4   85.39    6.40
 -14   4  -5   34.00    4.30
 -14   4  -5   37.80    5.10
 -14   4  -5   35.70    5.90
 -14  -4  -5   31.00    7.30
 -14  -4  -5   38.30    5.20
 -14  -4  -5   40.70    4.10
 -14   4  -6   -2.20    3.50
 -14   4  -6    1.00    3.20
 -14   4  -6    2.90    4.50
 -14  -4  -6    2.90    3.00
 -14  -4  -6   -2.50    6.10
 -14  -4  -6   -2.20    4.10
 -14   4  -7  160.78   10.40
 -14   4  -7  154.38   11.20
 -14   4  -7  156.28   12.60
 -14  -4  -7  159.38   11.30
 -14  -4  -7  152.78   14.30
 -14  -4  -7  172.48   10.50
 -14   4  -8   92.69    9.20
 -14   4  -8   99.29   10.30
 -14   4  -8  112.49    8.60
 -14  -4  -8   73.19   11.10
 -14  -4  -8  117.79    8.30
 -14  -4  -8  105.39    9.40
 -14   4  -9   18.30    5.40
 -14   4  -9   25.90    4.50
 -14   4  -9   21.80    5.50
 -14  -4  -9   22.80    4.30
 -14  -4  -9    4.20    7.90
 -14  -4  -9   17.20    5.30
 -14   4 -10   40.30    6.60
 -14   4 -10   46.00    5.40
 -14   4 -10   35.60    6.30
 -14  -4 -10   33.10    4.90
 -14  -4 -10   15.80    8.10
 -14  -4 -10   33.80    6.40
 -14   5  11   -0.40    2.90
 -14  -5  11    2.00    3.30
  14  -5 -11    8.10    5.50
  14  -5 -11   -2.30    3.80
 -14   5  10    4.80    3.10
  14  -5 -10   19.00    5.90
 -14  -5  10    5.10    3.40
  14  -5 -10    1.20    3.80
  14  -5 -10   -2.20    5.30
 -14   5   9   -1.20    2.80
  14  -5  -9    3.00    4.70
  14  -5  -9    6.90    3.80
 -14  -5   9    3.10    3.20
  14  -5  -9    0.30    5.10
 -14   5   8   48.40    5.00
  14  -5  -8   46.40    6.50
  14  -5  -8   52.39    7.70
  14  -5  -8   33.70    5.00
 -14  -5   8   47.70    5.20
 -14   5   7    0.10    2.60
 -14  -5   7   -1.10    2.90
  14  -5  -7    1.80    4.30
  14  -5  -7    2.00    3.30
 -14   5   6   47.00    5.10
  14  -5  -6   52.09    5.40
  14  -5  -6   55.29    6.60
 -14  -5   6   57.39    5.80
 -14   5   5    3.40    2.50
  14   5  -5    3.10    1.70
  14  -5  -5    3.00    3.30
 -14  -5   5   -1.20    3.10
 -14  -5   5    5.80    2.90
  14  -5  -5    1.10    4.60
  14   5  -4    1.50    1.30
 -14   5   4    5.60    2.40
  14   5  -4    3.40    1.70
 -14   5   4    6.00    2.60
 -14  -5   4    2.50    2.70
 -14  -5   4   -1.40    3.70
  14  -5  -4    5.10    3.20
 -14   5   3    7.40    2.70
 -14   5   3    5.30    2.30
  14   5  -3    5.10    1.70
 -14   5   3    4.80    2.70
  14  -5  -3    3.70    3.10
 -14   5   2   16.40    3.20
 -14   5   2   19.50    3.40
 -14   5   2   18.10    3.00
 -14  -5   2   13.90    3.20
 -14  -5   2   18.90    2.00
 -14  -5   2   27.60    5.00
 -14   5   1   30.20    3.90
 -14   5   1   36.80    4.40
 -14   5   1   32.40    3.60
  14   5  -1   31.40    3.60
 -14  -5   1   39.30    3.40
 -14  -5   1   42.80    4.60
 -14  -5   1   36.50    4.10
 -14  -5   1   59.29    7.40
 -14   5   0   17.50    3.60
 -14   5   0   12.20    3.00
 -14  -5   0   18.30    2.40
 -14  -5   0   23.10    5.20
 -14  -5   0   23.10    3.30
 -14   5  -1  191.38   11.80
 -14   5  -1  197.48   11.70
 -14  -5  -1  192.28   13.60
 -14  -5  -1  190.18   10.70
 -14  -5  -1  195.58   11.50
 -14   5  -2   90.29    7.40
 -14   5  -2   96.79    7.20
 -14  -5  -2   91.99    6.20
 -14  -5  -2   92.29    7.30
 -14  -5  -2   85.09    9.90
 -14   5  -3    8.30    2.90
 -14   5  -3    6.50    3.30
 -14  -5  -3    8.70    2.60
 -14  -5  -3    9.70    3.90
 -14  -5  -3   15.30    5.90
 -14   5  -4    9.00    3.70
 -14   5  -4    5.60    3.10
 -14  -5  -4    8.70    3.70
 -14  -5  -4    6.50    5.30
 -14  -5  -4    7.90    2.80
 -14   5  -5    6.30    3.30
 -14   5  -5    5.10    3.80
 -14  -5  -5   -0.50    5.40
 -14  -5  -5   -0.40    4.00
 -14  -5  -5    1.60    2.80
 -14   5  -6   43.30    4.90
 -14   5  -6   48.40    6.20
 -14  -5  -6   43.10    5.90
 -14  -5  -6   33.40    8.40
 -14  -5  -6   46.50    4.70
 -14   5  -7  133.99   10.70
 -14   5  -7  133.69    9.70
 -14   5  -7  137.59   12.00
 -14  -5  -7  149.09   11.30
 -14  -5  -7  126.39   13.80
 -14  -5  -7  143.29    9.50
 -14   5  -8    3.20    4.60
 -14   5  -8    7.20    3.50
 -14   5  -8   11.70    4.90
 -14  -5  -8  -14.00    7.10
 -14  -5  -8    2.30    5.00
 -14  -5  -8    5.30    3.40
 -14   5  -9    2.20    3.60
 -14   5  -9    1.90    4.60
 -14   5  -9    6.40    5.00
 -14  -5  -9  -14.00    7.00
 -14  -5  -9   -0.70    5.20
 -14  -5  -9    3.00    3.70
 -14  -6  10   43.80    5.60
  14  -6 -10   50.89    8.10
  14  -6 -10   72.49    9.60
  14  -6 -10   51.99    6.40
 -14   6   9    0.20    2.40
  14  -6  -9   -2.40    5.40
  14  -6  -9    2.00    5.50
 -14  -6   9    2.80    3.40
  14  -6  -9   -0.50    3.50
 -14   6   8  114.19    8.20
  14  -6  -8  130.99   12.40
  14  -6  -8  115.29    9.30
 -14  -6   8  122.59    9.10
  14  -6  -8  118.29   11.20
 -14   6   7    1.60    2.60
  14  -6  -7    0.30    4.90
  14  -6  -7   -0.40    3.40
 -14  -6   7    3.20    3.20
 -14   6   6   60.29    5.60
  14  -6  -6   64.39    6.10
  14  -6  -6   71.99    7.60
 -14  -6   6   59.99    6.20
 -14   6   5    0.10    2.20
 -14  -6   5   -0.40    2.60
  14  -6  -5   -1.20    3.10
  14  -6  -5   -2.90    4.70
 -14   6   4    7.70    3.10
 -14   6   4    8.40    2.50
 -14  -6   4    6.00    3.90
 -14  -6   4    7.90    2.90
  14  -6  -4   10.10    3.30
 -14   6   3   -0.80    2.00
 -14   6   3    0.50    2.90
 -14  -6   3    0.00    2.60
 -14  -6   3   -3.60    3.70
  14  -6  -3    3.00    3.20
 -14   6   2   14.20    3.40
 -14   6   2   13.00    2.70
 -14   6   2   11.00    3.20
 -14   6   1   10.90    3.00
 -14   6   1   15.90    3.80
 -14   6   1   11.80    2.70
 -14  -6   1   11.70    3.20
 -14   6   0  182.48   10.80
 -14   6   0  196.58   11.40
 -14   6   0  189.98   11.90
 -14  -6   0  188.68   11.60
 -14  -6   0  187.68   11.30
 -14  -6   0  193.38   13.50
 -14   6  -1    1.70    3.50
 -14   6  -1    0.60    2.80
 -14  -6  -1    0.00    1.00
 -14  -6  -1    2.10    3.00
 -14  -6  -1    1.70    4.70
 -14   6  -2    6.80    3.20
 -14   6  -2    9.60    3.80
 -14  -6  -2    8.30    3.60
 -14  -6  -2    8.40    5.40
 -14  -6  -2    3.30    1.90
 -14   6  -3    0.50    2.90
 -14   6  -3    0.50    3.50
 -14  -6  -3   -5.10    5.40
 -14  -6  -3    1.90    3.60
 -14  -6  -3   -1.80    2.30
 -14   6  -4   -0.20    3.60
 -14   6  -4    0.40    3.00
 -14  -6  -4    0.10    4.00
 -14  -6  -4   -1.20    5.90
 -14  -6  -4    3.50    2.50
 -14   6  -5   37.30    4.50
 -14   6  -5   40.80    5.90
 -14  -6  -5   42.70    6.00
 -14  -6  -5   39.20    8.10
 -14  -6  -5   43.10    4.30
 -14   6  -6   43.90    5.00
 -14   6  -6   42.40    6.00
 -14  -6  -6   41.30    6.10
 -14  -6  -6   41.90    4.50
 -14  -6  -6   27.30    7.80
 -14   6  -7   27.50    4.60
 -14   6  -7   30.70    5.70
 -14  -6  -7   27.90    6.10
 -14  -6  -7   21.70    8.50
 -14  -6  -7   34.50    4.40
 -14   6  -8    3.80    3.50
 -14   6  -8    9.60    4.90
 -14  -6  -8    5.80    5.20
 -14  -6  -8  -13.00    7.60
 -14  -6  -8    9.00    3.70
  14  -7  -8    2.60    5.40
 -14  -7   8    4.10    3.20
  14  -7  -8   -1.50    3.70
  14  -7  -8    0.30    6.50
 -14  -7   7   -0.40    3.10
  14  -7  -7    2.30    6.30
  14  -7  -7   -4.30    3.60
  14  -7  -7    8.10    5.50
  14  -7  -6   44.40    7.10
 -14  -7   6   37.90    4.60
  14  -7  -6   33.30    5.00
  14  -7  -5   -4.50    5.00
 -14  -7   5   -1.10    2.80
  14  -7  -5   -4.10    3.30
 -14   7   4   40.40    5.10
  14  -7  -4   49.10    5.50
 -14  -7   4   54.69    5.60
  14  -7  -4   51.39    7.10
 -14   7   3   30.00    4.70
 -14  -7   3   29.80    4.10
  14  -7  -3   42.10    4.90
 -14  -7   3   30.20    5.40
 -14   7   2    7.60    3.50
 -14  -7   2    3.50    4.40
 -14  -7   2    2.30    2.80
  14  -7  -2    4.40    3.60
 -14   7   1   17.60    3.70
 -14   7   1   11.70    4.00
 -14  -7   1   22.30    5.30
 -14  -7   1   23.00    3.50
 -14   7   0   49.50    5.10
 -14   7   0   56.59    6.30
 -14  -7   0   52.39    7.30
 -14  -7   0   55.99    5.20
 -14   7  -1   69.49    6.20
 -14   7  -1   64.39    7.60
 -14  -7  -1   61.09    6.40
 -14  -7  -1   59.99    6.30
 -14  -7  -1   62.09    8.80
 -14   7  -2    6.50    4.10
 -14   7  -2   -2.40    3.00
 -14  -7  -2    2.70    5.30
 -14  -7  -2    0.90    3.60
 -14   7  -3    8.30    3.40
 -14   7  -3   10.10    4.30
 -14  -7  -3    4.70    4.20
 -14  -7  -3    3.50    5.70
 -14   7  -4    6.10    4.20
 -14   7  -4    6.00    3.20
 -14  -7  -4   -2.60    5.70
 -14  -7  -4   -5.20    4.20
 -14   7  -5   25.70    5.60
 -14   7  -5   16.10    3.90
 -14  -7  -5   25.50    5.50
 -14  -7  -5   19.30    7.50
 -14   7  -6   14.50    5.00
 -14   7  -6    8.20    3.40
 -14  -7  -6   -0.40    5.10
 -14  -7  -6   -1.10    6.90
  14  -8  -6    9.50    6.00
  14  -8  -6    7.10    3.90
  14  -8  -5   16.00    6.10
  14  -8  -5    9.20    3.80
 -14   8   4    0.50    3.70
  14  -8  -4    3.10    5.70
  14  -8  -4   -3.60    3.30
 -14   8   3    7.00    4.10
  14  -8  -3    6.70    3.60
  14  -8  -3    6.10    5.80
 -14   8   2    9.40    4.10
 -14  -8   2   14.10    5.00
  14  -8  -2    8.80    3.60
 -14   8   1   84.89    8.20
 -14  -8   1   89.59    9.70
  14  -8  -1   98.89    8.00
 -14   8   0    4.50    4.00
 -14   8   0    5.80    3.50
 -14  -8   0    9.10    5.40
 -14   8  -1   22.70    5.30
 -14   8  -1   28.80    4.10
 -14  -8  -1   24.50    6.50
 -14   8  -2    0.40    3.30
 -14   8  -2    5.50    4.50
 -14  -8  -2   -0.40    5.60
 -14   8  -3  126.59   10.50
 -14   8  -3  125.19    9.20
 -14  -8  -3  112.79   12.20
 -14   8  -4   21.70    5.70
 -14   8  -4   10.70    3.90
 -14  -8  -4   13.20    5.10
 -14  -8  -4    6.70    6.50
  15   0 -13   -1.50    4.10
 -15   0  13   -5.50    2.90
  15   0 -12   -5.40    1.90
 -15   0  12    1.90    3.10
  15   0 -12   -0.30    3.80
 -15   0  11    5.60    3.30
  15   0 -11   -1.70    3.30
  15   0 -11   -6.70    2.50
  15   0 -10  189.38   11.90
  15   0 -10  179.28   11.40
 -15   0  10  179.18   11.60
  15   0  -9   -0.40    3.00
 -15   0   9   -0.10    2.80
  15   0  -9   -0.50    2.90
  15   0  -8  104.59    7.60
 -15   0   8  101.99    7.50
  15   0  -8   96.99    7.40
  15   0  -7   -2.10    2.80
  15   0  -7    1.40    2.70
 -15   0   7   -0.10    2.30
  15   0  -6    4.00    2.60
 -15   0   6    3.90    2.40
  15   0  -6    0.60    2.50
 -15   0   5   -0.80    2.20
  15   0  -5   -1.20    2.50
  15   0  -5   -1.30    2.30
 -15   0   4  367.66   19.40
 -15   0   4  352.76   19.20
 -15   0   4  352.96   18.80
  15   0  -4  346.67   19.70
 -15   0   3   -1.10    2.40
 -15   0   3   -1.10    1.70
 -15   0   3   -0.40    2.20
  15   0  -3   -4.00    2.70
 -15   0   2  332.17   17.30
 -15   0   2  336.87   17.10
 -15   0   2  291.67   17.80
 -15   0   1   -1.90    2.60
 -15   0   1   -2.20    2.00
 -15   0   0  101.39    6.50
 -15   0   0   92.69    7.80
 -15   0  -1    0.50    3.20
 -15   0  -1    0.10    2.10
 -15   0  -2   30.80    3.40
 -15   0  -2   31.20    4.90
 -15   0  -3   -1.10    3.50
 -15   0  -3   -4.00    2.20
 -15   0  -3   -0.10    3.00
 -15   0  -4  220.78   14.80
 -15   0  -4  222.18   12.80
 -15   0  -4  226.98   13.20
 -15   0  -5   -2.00    3.50
 -15   0  -5    0.70    3.30
 -15   0  -5   -2.40    2.70
 -15   0  -6    2.80    2.80
 -15   0  -6   -0.90    4.40
 -15   0  -6   -2.40    3.40
 -15   0  -7    0.10    3.00
 -15   0  -7    4.10    4.80
 -15   0  -7    0.70    3.80
 -15   0  -8  204.48   13.40
 -15   0  -8  218.78   15.10
 -15   0  -8  191.38   12.50
 -15   0  -9   -2.30    3.10
 -15   0  -9    6.40    4.90
 -15   0  -9    0.30    4.40
 -15   0 -10    2.10    4.70
 -15   0 -10    9.30    4.90
 -15   0 -10    3.80    3.90
 -15   1  12   -1.20    3.10
  15   1 -12   -0.30    3.50
 -15  -1  12    1.20    3.00
  15  -1 -12    3.00    3.40
  15  -1 -12   -0.20    3.70
 -15   1  11   25.40    4.40
  15   1 -11   22.20    4.30
 -15  -1  11   20.80    3.80
  15  -1 -11   16.70    4.30
  15  -1 -11   16.90    4.40
  15   1 -10   33.20    4.50
  15   1 -10   30.50    3.90
 -15   1  10   25.40    4.00
 -15  -1  10   26.70    4.30
  15  -1 -10   29.70    4.60
  15  -1 -10   21.30    4.40
  15   1  -9   39.00    4.60
  15   1  -9   31.20    3.90
 -15   1   9   42.30    4.80
  15  -1  -9   41.40    4.80
  15  -1  -9   37.70    4.70
 -15  -1   9   37.60    4.60
  15   1  -8   47.30    5.10
 -15   1   8   63.69    5.80
  15   1  -8   54.79    5.30
 -15  -1   8   57.49    5.70
  15  -1  -8   61.79    6.30
  15  -1  -8   58.09    5.50
  15   1  -7   62.79    5.60
  15   1  -7   70.09    6.20
 -15   1   7   76.79    6.10
 -15  -1   7   73.89    6.00
  15  -1  -7   63.79    5.50
  15  -1  -7   69.59    6.50
  15  -1  -7   66.69    6.20
 -15   1   6  119.19    7.70
  15   1  -6  120.29    7.80
  15   1  -6  102.69    7.20
  15  -1  -6  121.49    8.00
 -15  -1   6  119.39    7.80
  15  -1  -6  114.99    7.80
  15   1  -5   54.79    5.10
 -15   1   5   55.19    5.40
  15   1  -5   47.60    5.00
  15  -1  -5   58.19    5.50
 -15  -1   5   57.69    5.20
  15  -1  -5   51.29    5.30
 -15  -1   5   58.09    4.80
  15   1  -4   37.20    4.90
 -15   1   4   50.99    4.80
  15   1  -4   45.90    3.70
  15   1  -4   47.40    4.60
 -15   1   4   44.80    4.40
  15  -1  -4   44.80    5.10
 -15  -1   4   50.79    4.10
 -15  -1   4   48.60    4.80
 -15  -1   4   48.00    5.00
 -15   1   3   49.99    5.50
  15   1  -3   40.20    5.30
  15   1  -3   46.30    3.80
 -15   1   3   47.90    4.40
 -15  -1   3   54.99    4.20
 -15  -1   3   49.90    5.00
 -15  -1   3   47.40    4.90
  15   1  -2  407.76   22.80
 -15   1   2  415.56   21.30
 -15   1   2  429.66   22.90
 -15   1   2  422.06   22.00
 -15   1   2  418.06   21.90
 -15  -1   2  404.66   22.00
 -15  -1   2  414.16   21.70
 -15  -1   2  410.26   22.60
 -15   1   1   18.60    3.80
 -15   1   1   18.00    2.70
 -15  -1   1   17.60    3.70
 -15  -1   1   16.30    2.60
 -15   1   0   79.99    7.30
 -15   1   0   85.89    6.00
 -15  -1   0   87.59    5.80
 -15  -1   0   78.49    7.30
 -15   1  -1    2.30    2.20
 -15   1  -1    4.30    3.50
 -15  -1  -1    5.00    3.70
 -15  -1  -1    4.00    2.10
 -15   1  -2   81.49    7.70
 -15   1  -2   82.29    5.90
 -15  -1  -2   71.79    6.20
 -15  -1  -2   83.19    5.80
 -15  -1  -2   70.29    7.50
 -15   1  -3   58.79    6.60
 -15   1  -3   56.89    5.40
 -15  -1  -3   51.59    5.60
 -15  -1  -3   59.39    5.20
 -15  -1  -3   62.69    7.80
 -15   1  -4  223.38   14.20
 -15   1  -4  228.98   12.30
 -15  -1  -4  214.68   12.30
 -15  -1  -4  188.28   12.50
 -15  -1  -4  200.28   14.00
 -15   1  -5   20.80    3.80
 -15   1  -5   32.10    5.70
 -15   1  -5   29.90    4.40
 -15  -1  -5   18.10    5.70
 -15  -1  -5   26.40    4.30
 -15  -1  -5   26.70    3.70
 -15   1  -6    3.10    3.90
 -15   1  -6    3.10    3.10
 -15   1  -6    2.30    3.60
 -15  -1  -6    3.10    4.60
 -15  -1  -6    3.60    2.90
 -15  -1  -6    3.10    3.50
 -15   1  -7    2.20    3.90
 -15   1  -7    0.20    2.90
 -15   1  -7    4.70    4.60
 -15  -1  -7   -2.30    3.70
 -15  -1  -7    1.30    5.10
 -15  -1  -7    0.30    2.80
 -15   1  -8   15.10    3.50
 -15   1  -8   15.20    4.50
 -15   1  -8   14.50    5.00
 -15  -1  -8    5.60    4.40
 -15  -1  -8   12.80    3.60
 -15  -1  -8    9.50    5.20
 -15   1  -9    6.00    3.40
 -15   1  -9   12.30    5.00
 -15   1  -9    9.20    4.60
 -15  -1  -9   -1.00    3.40
 -15  -1  -9    2.00    5.50
 -15  -1  -9    1.30    4.40
 -15   1 -10   -0.60    3.30
 -15   1 -10    5.40    4.30
 -15   1 -10   -0.20    4.40
 -15  -1 -10   -2.40    5.20
 -15  -1 -10    6.40    5.00
 -15  -1 -10    1.80    3.70
  15   2 -12   -1.20    3.60
 -15   2  12    0.70    2.90
  15  -2 -12   -0.60    3.80
  15  -2 -12   -3.60    4.10
 -15  -2  12    0.50    3.00
 -15   2  11   19.90    4.10
  15   2 -11   23.40    4.30
 -15  -2  11   25.90    4.30
  15  -2 -11   22.40    4.50
  15  -2 -11   19.60    4.70
 -15   2  10   38.20    4.70
  15   2 -10   37.10    4.60
 -15  -2  10   35.30    4.60
  15  -2 -10   37.80    5.20
  15  -2 -10   34.30    5.20
  15   2  -9   61.69    6.00
 -15   2   9   48.50    5.10
  15  -2  -9   45.80    6.00
 -15  -2   9   60.49    5.80
  15  -2  -9   43.50    5.10
  15  -2  -9   45.00    5.70
 -15   2   8   38.60    4.40
  15   2  -8   33.50    3.60
  15   2  -8   39.30    4.30
 -15  -2   8   42.40    4.60
  15  -2  -8   32.90    4.80
  15  -2  -8   29.40    4.30
 -15   2   7    6.40    2.70
  15   2  -7    5.90    2.30
  15   2  -7    7.30    2.80
  15  -2  -7    5.60    3.10
 -15  -2   7    5.00    2.70
  15  -2  -7    6.00    3.60
  15   2  -6   49.60    5.00
 -15   2   6   49.10    4.90
  15   2  -6   50.39    3.50
  15   2  -6   43.30    4.00
  15  -2  -6   42.10    4.60
 -15  -2   6   50.09    5.10
 -15   2   5   93.19    6.70
  15   2  -5   94.49    5.90
  15   2  -5   90.59    6.50
  15   2  -5   83.39    6.40
 -15  -2   5   98.99    6.30
  15  -2  -5   90.19    6.90
 -15  -2   5   99.39    6.90
  15   2  -4   28.20    3.80
 -15   2   4   30.30    2.70
  15   2  -4   32.10    3.20
  15   2  -4   34.70    3.40
 -15   2   4   37.00    3.90
 -15   2   4   33.90    3.60
 -15  -2   4   31.20    3.10
  15  -2  -4   33.90    4.00
 -15  -2   4   41.30    4.20
 -15  -2   4   36.30    4.50
 -15   2   3  231.48   12.80
  15   2  -3  239.58   14.10
 -15   2   3  260.47   13.60
 -15   2   3  262.37   13.70
  15   2  -3  245.58   13.30
 -15  -2   3  240.48   13.20
 -15  -2   3  238.48   12.80
 -15  -2   3  241.88   14.00
 -15   2   2    1.00    1.60
 -15   2   2   -0.40    2.20
 -15   2   2    2.00    2.10
  15   2  -2   -1.90    1.60
  15   2  -2   -2.40    2.70
 -15  -2   2   -0.70    2.30
 -15  -2   2    1.80    1.70
 -15  -2   2    2.50    1.80
 -15  -2   2    2.80    3.00
 -15   2   1   27.20    2.90
 -15   2   1   27.30    3.30
 -15   2   1   31.60    4.70
 -15  -2   1   23.60    2.90
 -15  -2   1   27.00    4.80
 -15   2   0   69.99    7.10
 -15   2   0   67.09    5.30
 -15   2   0   68.59    5.20
 -15  -2   0   69.99    7.40
 -15  -2   0   76.09    5.30
 -15   2  -1    0.20    2.20
 -15   2  -1    2.80    3.00
 -15  -2  -1    2.90    2.00
 -15  -2  -1   -0.40    3.80
 -15  -2  -1    0.70    2.60
 -15   2  -2   28.90    3.50
 -15   2  -2   29.60    5.10
 -15  -2  -2   25.20    5.20
 -15  -2  -2   28.70    3.90
 -15  -2  -2   30.70    3.30
 -15   2  -3    0.10    3.30
 -15   2  -3    1.90    2.40
 -15  -2  -3    2.20    3.00
 -15  -2  -3    2.70    2.30
 -15  -2  -3    0.70    4.60
 -15   2  -4   19.30    3.50
 -15   2  -4   19.70    4.90
 -15  -2  -4   17.90    3.70
 -15  -2  -4   19.40    3.20
 -15  -2  -4   13.90    5.60
 -15   2  -5    7.10    2.80
 -15   2  -5    6.10    3.90
 -15  -2  -5    5.50    2.80
 -15  -2  -5    1.50    5.20
 -15  -2  -5    1.20    3.40
 -15   2  -6   98.29    9.40
 -15   2  -6   78.09    6.90
 -15  -2  -6   81.19   10.30
 -15  -2  -6   83.79    6.90
 -15  -2  -6   85.99    7.90
 -15   2  -7   -4.10    3.00
 -15   2  -7    6.10    4.60
 -15  -2  -7    7.10    3.30
 -15  -2  -7   -4.90    5.50
 -15  -2  -7    2.10    4.40
 -15   2  -8    1.90    4.10
 -15   2  -8    2.80    4.40
 -15   2  -8    1.10    3.20
 -15  -2  -8   -5.90    5.60
 -15  -2  -8    5.20    4.30
 -15  -2  -8    2.10    3.10
 -15   2  -9   33.90    6.20
 -15   2  -9   30.90    5.40
 -15   2  -9   31.80    4.70
 -15  -2  -9   31.90    5.90
 -15  -2  -9   29.40    4.50
 -15  -2  -9   16.00    7.10
 -15   2 -10   11.60    3.80
 -15   2 -10   14.10    4.90
 -15   2 -10    5.90    4.50
 -15  -2 -10    1.80    5.10
 -15  -2 -10   -6.20    5.80
 -15  -2 -10    9.00    3.90
 -15   3  12    7.40    3.40
  15   3 -12    9.30    3.80
  15  -3 -12   10.50    4.90
 -15  -3  12   10.90    3.60
  15  -3 -12    6.00    4.10
 -15   3  11   12.30    3.60
  15   3 -11   18.60    3.90
  15  -3 -11   12.30    5.00
  15  -3 -11   17.00    4.50
 -15  -3  11   16.30    3.90
 -15   3  10   22.10    4.00
  15   3 -10   18.40    3.80
  15  -3 -10   18.80    5.00
  15  -3 -10   19.40    4.40
 -15  -3  10   19.50    4.10
  15   3  -9   -3.00    2.60
 -15   3   9    1.60    2.60
 -15  -3   9    1.20    3.00
  15  -3  -9   -1.00    3.70
  15  -3  -9   -0.80    3.20
  15  -3  -9    2.70    4.00
 -15   3   8    7.70    2.90
  15   3  -8   11.40    3.00
 -15  -3   8    8.90    3.30
  15  -3  -8    9.50    3.50
  15  -3  -8    8.10    4.00
 -15   3   7   27.90    3.70
  15   3  -7   15.80    2.20
  15   3  -7   31.70    3.50
  15  -3  -7   21.00    3.90
 -15  -3   7   32.40    4.10
  15  -3  -7   20.90    4.50
  15   3  -6   -1.00    2.20
 -15   3   6    1.20    2.40
  15  -3  -6   -3.90    2.80
 -15  -3   6    3.90    2.60
 -15  -3   6    4.50    1.70
  15   3  -5   -1.60    2.10
  15   3  -5   -2.00    1.50
 -15   3   5    1.30    2.40
  15   3  -5    1.80    2.10
 -15  -3   5    1.70    0.90
  15  -3  -5    2.20    2.70
 -15  -3   5    4.50    2.20
 -15  -3   5    2.30    2.50
 -15   3   4   14.80    2.80
 -15   3   4   18.20    3.00
  15   3  -4   21.90    2.70
 -15   3   4   21.30    2.40
  15   3  -4   15.30    3.30
  15   3  -4   17.70    2.20
  15  -3  -4   17.80    3.40
 -15  -3   4   20.40    3.50
 -15  -3   4   15.10    2.00
 -15  -3   4   16.80    3.10
  15   3  -3    4.70    1.80
 -15   3   3   -1.20    2.20
  15   3  -3    1.10    1.70
 -15   3   3   -0.20    1.70
  15   3  -3   -3.60    2.60
 -15   3   3   -0.80    2.10
 -15  -3   3    0.40    3.10
 -15  -3   3    0.30    1.60
 -15  -3   3    1.40    2.50
  15   3  -2  116.39    7.30
 -15   3   2  127.39    7.90
 -15   3   2  122.09    7.60
 -15   3   2  118.59    7.30
  15   3  -2  101.89    7.00
 -15  -3   2  125.59    7.30
 -15  -3   2  122.39    8.20
 -15  -3   2  128.39    7.40
 -15  -3   2  118.29    9.20
 -15   3   1   84.89    5.80
  15   3  -1   69.79    5.40
 -15   3   1   86.79    6.20
 -15  -3   1   77.39    5.80
 -15  -3   1  100.09    8.40
 -15  -3   1   87.39    5.60
 -15   3   0    8.60    3.90
 -15   3   0    7.00    2.60
 -15   3   0   10.30    2.50
 -15  -3   0    8.00    2.80
 -15  -3   0   10.60    2.20
 -15  -3   0    4.00    4.30
 -15   3  -1  161.38   11.40
 -15   3  -1  171.38   10.10
 -15   3  -1  165.98   10.00
 -15  -3  -1  171.88   10.20
 -15  -3  -1  149.09   11.90
 -15  -3  -1  174.88    9.60
 -15   3  -2    5.00    2.90
 -15   3  -2    6.00    3.90
 -15   3  -2   -0.20    2.40
 -15  -3  -2    1.80    4.60
 -15  -3  -2    5.20    3.00
 -15  -3  -2    2.40    2.20
 -15   3  -3   -1.10    2.90
 -15   3  -3    0.00    2.70
 -15   3  -3   -1.50    3.40
 -15  -3  -3   -1.40    4.50
 -15  -3  -3    0.30    2.30
 -15  -3  -3    6.80    3.10
 -15   3  -4    5.00    3.40
 -15   3  -4    5.60    2.90
 -15   3  -4    5.00    3.90
 -15  -3  -4    4.60    3.40
 -15  -3  -4   10.60    2.90
 -15  -3  -4    1.20    4.70
 -15   3  -5   -0.40    4.00
 -15   3  -5    2.20    3.00
 -15  -3  -5    0.70    3.60
 -15  -3  -5   -4.10    5.30
 -15  -3  -5   -0.10    2.60
 -15   3  -6   65.89    8.60
 -15   3  -6   69.99    6.30
 -15  -3  -6   62.99    8.80
 -15  -3  -6   63.59    6.50
 -15  -3  -6   59.19    6.00
 -15   3  -7    2.10    4.50
 -15   3  -7    5.20    3.30
 -15  -3  -7    0.60    6.00
 -15  -3  -7    8.40    4.30
 -15  -3  -7    3.50    3.10
 -15   3  -8   43.40    7.00
 -15   3  -8   29.30    4.60
 -15  -3  -8   38.20    4.70
 -15  -3  -8   14.60    7.30
 -15  -3  -8   41.20    6.00
 -15   3  -9   14.20    5.20
 -15   3  -9    4.40    3.70
 -15  -3  -9    9.60    3.80
 -15  -3  -9  -10.50    6.40
 -15  -3  -9    9.50    4.90
 -15   3 -10    0.80    3.70
 -15   3 -10   12.70    5.10
 -15  -3 -10    3.80    5.10
 -15  -3 -10   -9.90    5.60
 -15  -3 -10    4.10    3.70
 -15   4  11    4.40    3.20
  15  -4 -11    1.90    3.90
  15  -4 -11    0.70    5.20
 -15  -4  11    1.60    3.40
  15   4 -10   -0.90    1.80
 -15   4  10    2.60    3.10
  15  -4 -10    1.90    4.90
 -15  -4  10    2.60    3.20
  15  -4 -10    4.00    3.90
  15  -4 -10    0.00    2.60
  15   4  -9   14.50    3.20
 -15   4   9   16.10    3.60
  15  -4  -9   15.00    4.00
  15  -4  -9   12.70    5.20
 -15  -4   9   17.20    3.80
 -15   4   8   13.80    3.40
  15   4  -8   19.00    3.10
 -15  -4   8   14.50    3.60
  15  -4  -8   11.90    3.70
  15  -4  -8   25.40    5.30
 -15   4   7    2.80    2.70
  15   4  -7    4.00    2.40
  15  -4  -7    1.60    3.20
 -15  -4   7    4.00    2.80
  15  -4  -7    1.00    4.20
  15   4  -6   69.39    5.10
 -15   4   6   56.59    5.40
  15  -4  -6   71.79    7.20
 -15  -4   6   54.99    5.90
  15  -4  -6   59.29    5.80
 -15   4   5   -0.80    2.20
  15   4  -5    0.30    2.00
  15   4  -5    1.30    0.70
 -15  -4   5    2.80    2.80
  15  -4  -5   -0.90    2.90
 -15  -4   5   -0.10    2.60
  15   4  -4   18.00    2.20
 -15   4   4   14.70    2.80
 -15   4   4   14.20    2.60
  15   4  -4   12.10    2.30
  15   4  -4   13.20    3.20
 -15  -4   4   13.20    3.90
  15  -4  -4   11.00    3.20
 -15  -4   4   16.70    3.20
 -15  -4   4    7.80    1.80
 -15   4   3   11.40    2.90
 -15   4   3   12.20    2.50
  15   4  -3   11.90    2.00
 -15   4   3   11.20    2.80
  15   4  -3    9.00    2.20
  15   4  -3    6.10    3.90
 -15  -4   3   10.20    2.30
 -15  -4   3   13.10    3.00
 -15  -4   3   14.20    2.00
  15   4  -2   35.30    3.10
 -15   4   2   44.60    4.20
 -15   4   2   35.50    4.20
  15   4  -2   29.50    3.20
 -15  -4   2   37.30    3.20
 -15  -4   2   38.50    5.50
 -15  -4   2   47.50    4.50
 -15   4   1   11.70    2.80
 -15   4   1    8.10    2.80
  15   4  -1    8.60    1.70
 -15   4   1   11.60    2.70
  15   4  -1    8.60    2.00
 -15  -4   1   11.80    4.30
 -15  -4   1   12.90    3.10
 -15  -4   1    7.70    2.10
 -15   4   0  109.39    7.70
 -15   4   0  106.89    7.50
 -15  -4   0  109.69    7.70
 -15  -4   0  112.49    7.00
 -15  -4   0  115.39   10.30
 -15   4  -1  917.51   45.30
 -15   4  -1  846.52   45.30
 -15  -4  -1  904.91   44.80
 -15  -4  -1  837.82   45.10
 -15  -4  -1  894.51   46.90
 -15   4  -2  574.34   29.70
 -15   4  -2  563.24   29.80
 -15  -4  -2  566.54   29.30
 -15  -4  -2  553.74   29.70
 -15  -4  -2  567.54   31.70
 -15   4  -3  303.77   18.30
 -15   4  -3  311.97   18.00
 -15   4  -3  336.37   20.30
 -15  -4  -3  385.66   21.00
 -15  -4  -3  327.97   17.80
 -15  -4  -3  317.77   18.20
 -15   4  -4  161.48   10.90
 -15   4  -4  174.78   12.90
 -15   4  -4  170.58   10.50
 -15  -4  -4  171.88   10.20
 -15  -4  -4  160.48   13.60
 -15  -4  -4  163.98   10.80
 -15   4  -5   50.19    7.20
 -15   4  -5   52.89    5.80
 -15   4  -5   42.80    4.80
 -15  -4  -5   51.39    8.50
 -15  -4  -5   45.10    5.60
 -15  -4  -5   43.00    4.60
 -15   4  -6  119.29    8.50
 -15   4  -6  114.59   10.80
 -15   4  -6  115.89    9.30
 -15  -4  -6  103.99   12.40
 -15  -4  -6  125.99    8.40
 -15  -4  -6  117.19    9.40
 -15   4  -7   99.09    8.10
 -15   4  -7   92.99   10.00
 -15   4  -7   90.89    8.70
 -15  -4  -7   98.49    7.50
 -15  -4  -7   80.99   10.90
 -15  -4  -7  104.19    9.50
 -15   4  -8   -3.60    4.20
 -15   4  -8   -2.80    3.30
 -15   4  -8    5.20    4.60
 -15  -4  -8    4.80    3.40
 -15  -4  -8    0.30    4.50
 -15  -4  -8   -9.80    5.80
 -15   4  -9   99.39    8.60
 -15   4  -9  103.49   10.30
 -15   4  -9   78.09    8.80
 -15  -4  -9   80.09   11.40
 -15  -4  -9   98.99    8.00
 -15  -4  -9  100.29    9.70
 -15   5  10   11.50    3.40
  15  -5 -10   11.10    5.70
 -15  -5  10   17.60    4.00
  15  -5 -10   11.50    4.50
  15  -5 -10   12.90    5.60
 -15   5   9   92.29    7.50
  15  -5  -9   89.49    9.90
 -15  -5   9   95.99    8.10
  15  -5  -9   86.89    8.20
 -15   5   8   37.40    4.40
  15  -5  -8   32.30    4.80
  15  -5  -8   29.00    5.90
 -15  -5   8   43.70    5.00
 -15   5   7    0.50    2.50
 -15  -5   7   -0.30    2.80
  15  -5  -7    2.30    3.20
  15  -5  -7    5.40    4.80
 -15   5   6    8.80    2.80
  15  -5  -6    6.40    3.50
  15  -5  -6    8.30    4.70
 -15  -5   6    3.80    2.90
 -15   5   5   20.30    3.20
 -15  -5   5   20.20    3.50
  15  -5  -5   21.10    4.20
  15   5  -4   47.30    3.80
 -15   5   4   46.70    4.90
 -15   5   4   48.40    4.80
  15  -5  -4   53.19    5.40
 -15  -5   4   49.20    4.90
 -15  -5   4   45.60    5.70
  15   5  -3  175.38    9.60
 -15   5   3  177.58   10.40
 -15   5   3  182.48   10.70
 -15   5   3  169.88   10.40
 -15  -5   3  164.58   12.10
  15  -5  -3  184.88   11.20
 -15  -5   3  173.98   10.90
 -15   5   2   99.99    7.30
 -15   5   2  109.39    7.50
 -15  -5   2  109.99    6.30
 -15  -5   2   97.29    7.70
 -15  -5   2  108.89    9.80
 -15   5   1   87.19    6.60
 -15   5   1   85.59    6.90
 -15   5   1   89.09    7.10
 -15  -5   1   95.49    9.50
 -15  -5   1   95.09    7.30
 -15  -5   1   96.89    5.80
 -15  -5   1   90.49    6.50
 -15   5   0   -2.50    2.60
 -15   5   0   -2.10    2.70
 -15  -5   0    2.60    5.00
 -15  -5   0    4.20    2.80
 -15  -5   0   -1.80    1.80
 -15   5  -1   31.80    4.30
 -15   5  -1   25.30    3.80
 -15  -5  -1   30.70    3.20
 -15  -5  -1   38.00    4.20
 -15   5  -2   38.60    4.40
 -15   5  -2   38.10    4.80
 -15  -5  -2   33.20    4.40
 -15  -5  -2   39.40    3.70
 -15  -5  -2   40.20    7.20
 -15   5  -3    0.50    2.90
 -15   5  -3    1.80    3.10
 -15  -5  -3   -0.80    2.40
 -15  -5  -3    3.40    3.40
 -15  -5  -3   -3.60    5.80
 -15   5  -4   18.30    4.20
 -15   5  -4   11.80    3.30
 -15  -5  -4   15.40    4.20
 -15  -5  -4   10.60    6.90
 -15  -5  -4   15.60    3.10
 -15   5  -5   21.80    4.70
 -15   5  -5   18.10    3.70
 -15  -5  -5   24.30    3.40
 -15  -5  -5   17.10    4.80
 -15  -5  -5   10.90    7.40
 -15   5  -6    0.20    3.20
 -15   5  -6    6.40    4.20
 -15  -5  -6   -5.10    6.90
 -15  -5  -6    4.90    3.10
 -15  -5  -6    7.80    4.70
 -15   5  -7   33.30    4.70
 -15   5  -7   31.80    5.80
 -15   5  -7   42.40    7.10
 -15  -5  -7   26.20    8.30
 -15  -5  -7   41.40    6.10
 -15  -5  -7   41.20    4.70
 -15   5  -8    1.10    4.40
 -15   5  -8    0.00    3.60
 -15   5  -8    5.60    4.50
 -15  -5  -8  -10.90    7.30
 -15  -5  -8    2.50    5.00
 -15  -5  -8    5.10    3.50
 -15   6   9    0.10    1.60
  15  -6  -9   10.80    4.10
  15  -6  -9    5.60    5.80
  15  -6  -9    6.00    5.50
 -15  -6   9    3.20    3.40
 -15   6   8   15.00    3.40
  15  -6  -8   13.20    4.30
 -15  -6   8   18.90    4.00
  15  -6  -8   16.70    5.80
  15  -6  -8   14.90    6.50
 -15   6   7    5.60    2.90
 -15  -6   7   14.90    3.70
  15  -6  -7    7.50    5.30
  15  -6  -7    6.70    3.70
 -15   6   6    5.00    2.80
  15  -6  -6    3.10    5.20
  15  -6  -6    8.40    3.80
 -15  -6   6   10.90    3.40
 -15   6   5    4.30    2.50
  15  -6  -5    6.10    5.20
  15  -6  -5    3.70    3.50
 -15  -6   5    3.00    3.00
 -15   6   4   28.60    4.00
 -15   6   4   33.80    3.60
  15  -6  -4   28.00    4.30
 -15  -6   4   27.30    3.90
 -15  -6   4   22.30    5.40
 -15   6   3   11.50    3.30
 -15   6   3   11.30    2.50
 -15  -6   3   10.50    3.20
 -15  -6   3    7.90    4.70
  15  -6  -3    9.20    3.50
 -15   6   2   41.80    5.00
 -15   6   2   46.50    4.30
 -15   6   2   43.40    4.70
 -15  -6   2   54.59    7.40
 -15  -6   2   50.39    5.00
 -15   6   1   88.19    6.10
 -15   6   1   73.09    7.20
 -15   6   1   87.19    6.70
 -15  -6   1   72.89    7.00
 -15  -6   1   72.49    6.10
 -15  -6   1   88.19    8.50
 -15   6   0  100.79    8.40
 -15   6   0   88.69    6.90
 -15   6   0  101.19    7.60
 -15  -6   0  129.49   10.20
 -15  -6   0  106.19    7.40
 -15  -6   0   98.69    7.90
 -15   6  -1   22.00    4.40
 -15   6  -1   21.80    3.80
 -15  -6  -1   19.50    6.00
 -15  -6  -1   18.90    3.70
 -15   6  -2    7.80    3.30
 -15   6  -2    4.30    3.60
 -15  -6  -2    1.10    5.70
 -15  -6  -2   -0.60    3.40
 -15  -6  -2    0.10    1.00
 -15   6  -3    8.10    4.00
 -15   6  -3    8.10    3.20
 -15  -6  -3    5.30    4.00
 -15  -6  -3    1.30    2.00
 -15  -6  -3    4.70    6.10
 -15   6  -4    1.10    2.90
 -15   6  -4    4.20    3.80
 -15  -6  -4    3.10    4.30
 -15  -6  -4   -3.70    6.00
 -15  -6  -4   -0.10    2.70
 -15   6  -5    1.80    3.70
 -15   6  -5   -5.30    2.80
 -15  -6  -5   -0.40    2.60
 -15  -6  -5    7.10    4.80
 -15  -6  -5   -4.70    6.20
 -15   6  -6   86.59    7.80
 -15   6  -6   82.29    8.60
 -15  -6  -6   78.49   11.00
 -15  -6  -6   91.49    9.20
 -15  -6  -6   79.89    6.90
 -15   6  -7    8.60    4.40
 -15   6  -7    1.10    3.70
 -15  -6  -7   -1.20    4.80
 -15  -6  -7  -15.20    7.10
 -15  -6  -7    5.80    3.50
  15  -7  -8   51.39    6.20
 -15  -7   8   51.49    5.80
  15  -7  -8   62.49    8.50
  15  -7  -8   58.59    9.20
  15  -7  -7    2.10    5.40
 -15  -7   7    2.80    3.40
  15  -7  -7   -1.30    3.40
  15  -7  -6   32.10    6.70
 -15  -7   6   32.80    4.50
  15  -7  -6   24.70    4.80
  15  -7  -5    0.80    5.40
  15  -7  -5   -4.90    3.20
 -15  -7   5   -1.40    2.90
 -15   7   4   23.50    4.20
  15  -7  -4   24.30    4.40
  15  -7  -4   31.70    6.30
 -15  -7   4   27.90    4.10
 -15   7   3   -2.40    3.20
  15  -7  -3   -4.60    3.30
 -15  -7   3   -5.20    4.00
 -15  -7   3   -1.10    2.80
 -15   7   2   68.29    7.00
 -15  -7   2   73.59    6.60
 -15  -7   2   67.99    8.30
  15  -7  -2   75.09    7.40
 -15   7   1   -0.20    3.40
 -15   7   1    1.10    2.80
 -15  -7   1    1.90    2.90
 -15  -7   1    4.60    4.80
 -15   7   0    1.80    3.10
 -15   7   0    3.90    3.90
 -15  -7   0    9.00    5.40
 -15  -7   0   -0.50    2.90
 -15   7  -1   52.89    5.40
 -15   7  -1   58.69    7.10
 -15  -7  -1   53.19    5.40
 -15  -7  -1   50.79    7.60
 -15   7  -2    6.20    3.40
 -15   7  -2    9.60    4.30
 -15  -7  -2    3.30    3.90
 -15  -7  -2    1.70    5.80
 -15   7  -3   13.30    4.70
 -15   7  -3    8.90    3.60
 -15  -7  -3   10.00    4.30
 -15  -7  -3    8.20    6.60
 -15   7  -4   21.30    5.20
 -15   7  -4   21.50    4.10
 -15  -7  -4   24.40    5.10
 -15  -7  -4   17.90    7.50
 -15   7  -5   19.00    4.10
 -15   7  -5   16.30    5.10
 -15  -7  -5   17.30    5.20
 -15  -7  -5   18.30    8.00
 -15   7  -6    4.40    4.70
 -15   7  -6    1.00    3.40
 -15  -7  -6    1.20    5.40
 -15  -7  -6   -6.70    6.90
  15  -8  -5  101.39   11.20
  15  -8  -5   97.19    8.80
 -15   8   4    7.30    4.00
  15  -8  -4    2.50    5.60
  15  -8  -4    0.30    3.50
 -15   8   3    9.60    4.10
  15  -8  -3    9.40    3.80
  15  -8  -3   10.20    6.00
 -15   8   2   51.39    6.10
 -15  -8   2   43.40    6.80
  15  -8  -2   67.09    6.10
 -15   8   1   26.20    4.90
  15  -8  -1   25.50    4.60
 -15  -8   1   30.30    6.20
 -15   8   0    4.70    4.10
 -15   8   0    3.20    3.50
 -15  -8   0    5.00    5.70
 -15   8  -1   31.90    4.60
 -15   8  -1   25.20    5.40
 -15  -8  -1   18.50    6.40
 -15   8  -2   34.10    5.90
 -15   8  -2   29.60    4.70
 -15  -8  -2   25.50    7.10
 -15   8  -3   45.40    5.40
 -15   8  -3   50.99    6.80
 -15  -8  -3   45.60    8.30
  16   0 -12  132.99   10.10
 -16   0  12  128.59    9.60
  16   0 -11   -2.50    3.50
 -16   0  11   -0.10    2.90
  16   0 -11    0.80    3.40
  16   0 -10  904.91   46.30
 -16   0  10  867.11   46.60
  16   0 -10  914.11   46.70
 -16   0   9    3.80    2.90
  16   0  -9    2.50    3.00
  16   0  -9    1.70    3.20
 -16   0   8   72.19    6.20
  16   0  -8   67.59    6.30
  16   0  -8   69.49    6.50
  16   0  -7    0.80    2.90
  16   0  -7   -2.20    2.60
 -16   0   7   -0.70    2.40
  16   0  -6   56.69    4.80
  16   0  -6   36.00    5.10
 -16   0   6   55.79    5.10
  16   0  -5   -3.10    2.70
 -16   0   5   -1.60    2.20
  16   0  -5   -0.30    2.40
 -16   0   4  182.38   11.10
 -16   0   4  194.88   10.60
 -16   0   4  183.38   10.90
  16   0  -4  171.88   11.50
 -16   0   3    3.30    2.50
 -16   0   3    0.30    2.60
 -16   0   3   -0.40    1.90
 -16   0   2  172.28   11.40
 -16   0   2  179.38   10.30
 -16   0   2  183.28   10.60
 -16   0   1   -0.50    2.10
 -16   0   1    0.00    3.00
 -16   0   0   60.49    5.00
 -16   0   0   51.89    6.30
 -16   0  -1    1.00    2.10
 -16   0  -1    2.50    3.40
 -16   0  -2  311.87   17.20
 -16   0  -2  321.57   18.70
 -16   0  -3   -1.50    2.40
 -16   0  -3    1.50    3.40
 -16   0  -4   13.10    3.10
 -16   0  -4   12.90    3.80
 -16   0  -4    8.80    4.20
 -16   0  -5   -1.80    4.20
 -16   0  -5   -4.80    2.60
 -16   0  -5    1.90    3.50
 -16   0  -6   30.90    4.00
 -16   0  -6   27.40    5.50
 -16   0  -6   32.50    4.90
 -16   0  -7   -2.50    3.90
 -16   0  -7    1.90    3.10
 -16   0  -7    1.60    4.10
 -16   0  -8   97.69    8.10
 -16   0  -8  109.19   10.70
 -16   0  -8  111.89    9.40
 -16   0  -9   -2.10    3.20
 -16   0  -9   -2.90    4.50
 -16   0  -9    3.30    4.50
 -16   0 -10    4.30    4.40
 -16   0 -10    1.90    5.00
 -16   0 -10    0.00    3.40
 -16   1  12    4.10    3.30
  16   1 -12   -4.20    3.60
 -16  -1  12    2.10    3.10
  16  -1 -12    0.40    3.80
  16  -1 -12   -0.10    2.80
  16   1 -11    0.00    3.40
 -16   1  11    1.60    3.10
 -16  -1  11    0.20    2.90
  16  -1 -11   -2.30    3.60
  16  -1 -11   -0.60    3.50
 -16   1  10   24.30    4.10
  16   1 -10   19.70    4.30
  16  -1 -10   25.20    4.60
  16  -1 -10   25.40    4.50
 -16  -1  10   26.90    4.40
 -16   1   9  211.08   12.80
  16   1  -9  205.48   11.90
  16   1  -9  199.38   12.70
  16  -1  -9  207.48   12.90
  16  -1  -9  206.78   12.80
 -16  -1   9  211.58   12.70
  16   1  -8  202.58   11.90
 -16   1   8  198.58   11.90
  16   1  -8  200.48   11.40
  16  -1  -8  187.48   12.10
 -16  -1   8  186.18   11.80
  16  -1  -8  184.08   12.00
 -16   1   7  357.46   19.30
  16   1  -7  353.56   18.90
  16   1  -7  339.47   19.10
 -16  -1   7  348.27   19.30
  16  -1  -7  354.36   19.40
  16  -1  -7  351.36   19.30
  16   1  -6    1.20    2.20
 -16   1   6    3.80    2.50
  16   1  -6    3.50    2.60
 -16  -1   6    1.00    2.30
  16  -1  -6    4.50    2.80
  16  -1  -6    3.50    2.60
  16   1  -5   46.50    4.20
  16   1  -5   36.40    4.70
 -16   1   5   40.40    4.40
  16  -1  -5   40.50    5.20
 -16  -1   5   45.90    4.50
 -16  -1   5   47.10    4.60
  16  -1  -5   56.39    4.80
  16   1  -4   -0.10    2.70
 -16   1   4    4.60    2.60
 -16   1   4    2.60    2.10
 -16  -1   4    6.90    2.70
 -16  -1   4    4.70    2.40
 -16  -1   4    4.80    2.00
 -16   1   3    5.10    1.20
  16   1  -3    2.90    3.00
 -16   1   3    7.90    3.20
 -16   1   3    5.50    2.30
 -16   1   3    3.20    2.50
 -16  -1   3    6.00    2.80
 -16  -1   3    6.80    2.70
 -16  -1   3    3.80    2.10
 -16   1   2  122.89    7.90
 -16   1   2  120.99    8.90
 -16   1   2  121.29    7.70
 -16   1   2  114.79    6.80
 -16  -1   2  125.59    8.00
 -16  -1   2  117.29    7.40
 -16  -1   2  116.79    8.50
 -16   1   1   14.70    2.90
 -16   1   1   11.70    3.50
 -16  -1   1   14.30    2.60
 -16  -1   1   16.10    3.80
 -16   1   0    6.50    3.60
 -16   1   0    7.60    2.50
 -16  -1   0    9.70    3.70
 -16  -1   0    4.90    2.30
 -16   1  -1   51.09    4.40
 -16   1  -1   50.29    6.60
 -16  -1  -1   48.00    4.70
 -16  -1  -1   46.40    6.80
 -16   1  -2   94.29    8.40
 -16   1  -2   83.89    6.20
 -16  -1  -2   86.89    6.20
 -16  -1  -2   86.79    6.80
 -16  -1  -2   80.49    8.50
 -16   1  -3   14.40    4.50
 -16   1  -3   10.90    2.90
 -16  -1  -3   18.20    3.80
 -16  -1  -3   13.70    2.90
 -16  -1  -3   14.80    5.10
 -16   1  -4   37.60    4.20
 -16   1  -4   50.19    6.50
 -16  -1  -4   40.20    4.90
 -16  -1  -4   42.30    6.70
 -16  -1  -4   41.50    4.30
 -16   1  -5   39.50    4.40
 -16   1  -5   40.70    6.30
 -16  -1  -5   28.50    4.10
 -16  -1  -5   34.50    4.90
 -16  -1  -5   32.50    6.60
 -16   1  -6   -0.40    3.60
 -16   1  -6   -0.60    4.20
 -16   1  -6   -4.40    3.00
 -16  -1  -6    2.00    5.20
 -16  -1  -6    0.90    2.80
 -16  -1  -6    0.10    3.60
 -16   1  -7   92.99    8.10
 -16   1  -7   90.09    9.60
 -16   1  -7   72.79    7.10
 -16  -1  -7   77.89   10.10
 -16  -1  -7   89.69    7.20
 -16  -1  -7   84.89    8.10
 -16   1  -8   11.20    3.50
 -16   1  -8   10.80    5.10
 -16   1  -8   13.80    4.50
 -16  -1  -8    6.80    4.30
 -16  -1  -8    5.60    3.30
 -16  -1  -8   10.50    6.00
 -16   1  -9   11.40    5.00
 -16   1  -9   16.20    5.00
 -16   1  -9    9.40    3.60
 -16  -1  -9    5.60    4.90
 -16  -1  -9   10.80    3.80
 -16  -1  -9    9.50    5.90
 -16   1 -10   10.80    5.20
 -16   1 -10    9.60    5.00
 -16   1 -10    2.40    3.50
 -16  -1 -10    5.20    5.30
 -16  -1 -10    4.80    5.40
 -16  -1 -10    0.20    3.70
  16   2 -12    0.20    3.60
 -16   2  12    4.30    3.50
  16  -2 -12   -3.30    4.00
 -16  -2  12    2.80    3.10
  16  -2 -12    1.40    3.70
  16   2 -11   97.99    8.10
 -16   2  11   87.59    7.80
  16  -2 -11   89.89    8.70
 -16  -2  11   96.69    8.10
  16  -2 -11   91.39    8.40
  16   2 -10    3.00    3.40
 -16   2  10    1.80    2.90
 -16  -2  10    5.20    3.10
  16  -2 -10    3.00    3.60
  16   2  -9   32.10    4.30
 -16   2   9   34.10    4.50
  16  -2  -9   32.10    4.70
 -16  -2   9   28.40    4.30
  16  -2  -9   34.60    5.10
 -16   2   8   21.20    3.60
  16   2  -8   22.40    3.60
  16   2  -8   20.50    2.90
  16  -2  -8   17.60    3.80
  16  -2  -8   17.20    4.20
 -16  -2   8   19.00    3.60
  16   2  -7    0.00    2.10
  16   2  -7    2.50    2.70
 -16   2   7    4.40    2.60
  16  -2  -7    4.90    3.20
 -16  -2   7    1.10    2.70
  16  -2  -7    2.50    3.60
 -16   2   6  134.89    8.80
  16   2  -6  132.39    8.10
  16   2  -6  146.29    8.80
 -16  -2   6  131.49    9.00
  16  -2  -6  138.99    9.20
  16   2  -5  106.59    7.30
  16   2  -5   94.29    6.40
  16   2  -5  112.99    7.30
 -16   2   5  111.29    7.50
  16  -2  -5  108.59    7.80
 -16  -2   5  103.39    7.60
 -16  -2   5  112.89    7.10
  16   2  -4    4.50    1.80
 -16   2   4    5.20    1.40
  16   2  -4    4.70    2.40
 -16   2   4    4.90    2.30
  16   2  -4    2.90    2.70
 -16   2   4    6.60    2.60
 -16  -2   4    4.60    2.00
 -16  -2   4    5.00    2.60
 -16  -2   4    3.40    2.50
  16  -2  -4    4.70    2.60
 -16   2   3   85.89    6.00
  16   2  -3   68.29    4.90
 -16   2   3   81.39    5.80
  16   2  -3   62.39    6.20
 -16   2   3   73.99    4.60
 -16  -2   3   72.59    4.60
 -16  -2   3   68.79    5.20
 -16   2   2   18.40    3.20
 -16   2   2   17.30    3.00
 -16   2   2   16.90    2.20
 -16  -2   2   17.80    3.90
 -16  -2   2   14.30    2.30
 -16  -2   2   17.30    3.20
 -16  -2   2   15.20    2.50
 -16   2   1  101.29    6.40
 -16   2   1  101.89    8.30
 -16   2   1  100.39    7.00
 -16  -2   1   94.69    8.70
 -16  -2   1  102.89    6.70
 -16   2   0  225.28   12.50
 -16   2   0  221.68   14.20
 -16   2   0  226.28   12.80
 -16  -2   0  214.48   14.40
 -16  -2   0  238.78   12.60
 -16   2  -1   49.20    6.80
 -16   2  -1   52.89    5.10
 -16  -2  -1   48.60    4.60
 -16  -2  -1   56.39    5.60
 -16  -2  -1   46.30    6.50
 -16   2  -2    5.60    4.00
 -16   2  -2    2.60    2.50
 -16  -2  -2    6.20    2.40
 -16  -2  -2    1.60    4.50
 -16  -2  -2    5.40    3.10
 -16   2  -3   40.70    6.10
 -16   2  -3   37.00    4.10
 -16  -2  -3   36.00    3.90
 -16  -2  -3   39.20    4.70
 -16  -2  -3   36.80    6.60
 -16   2  -4    4.90    4.20
 -16   2  -4    9.00    3.00
 -16  -2  -4    6.90    5.30
 -16  -2  -4    5.50    2.80
 -16  -2  -4    9.50    3.70
 -16   2  -5   92.29    9.20
 -16   2  -5   88.19    7.00
 -16  -2  -5   82.49    7.70
 -16  -2  -5   90.89    6.90
 -16  -2  -5   87.49   10.50
 -16   2  -6    0.40    4.10
 -16   2  -6   -3.10    2.90
 -16  -2  -6   -0.70    3.70
 -16  -2  -6    2.50    2.90
 -16  -2  -6    0.70    5.50
 -16   2  -7   39.00    6.50
 -16   2  -7   26.50    4.30
 -16  -2  -7   28.80    4.10
 -16  -2  -7   25.40    6.90
 -16  -2  -7   32.00    5.20
 -16   2  -8    5.00    4.50
 -16   2  -8   -5.20    3.20
 -16  -2  -8    1.80    3.30
 -16  -2  -8   -1.80    4.30
 -16  -2  -8   -7.20    4.90
 -16   2  -9    0.70    3.60
 -16   2  -9    7.40    4.60
 -16  -2  -9   -8.70    5.00
 -16  -2  -9   -2.00    3.40
 -16  -2  -9   -6.20    4.50
 -16   2 -10   15.20    4.20
 -16   2 -10   14.90    5.10
 -16   2 -10   27.70    5.90
 -16  -2 -10   15.90    5.80
 -16  -2 -10   14.10    4.10
 -16  -2 -10    7.40    6.60
  16   3 -11   19.60    4.00
 -16   3  11   22.30    4.20
  16  -3 -11   15.30    5.10
 -16  -3  11   28.50    4.40
  16  -3 -11   24.40    4.90
  16   3 -10    0.20    3.20
 -16   3  10    2.00    3.00
  16  -3 -10   -1.10    3.40
  16  -3 -10    3.80    4.30
 -16  -3  10    2.60    3.10
  16   3  -9   10.30    3.30
 -16   3   9    4.60    3.10
  16  -3  -9    6.50    4.20
  16  -3  -9   13.00    4.70
  16  -3  -9    7.30    3.70
 -16  -3   9    7.70    3.30
  16   3  -8   16.80    3.40
 -16   3   8   15.80    3.50
  16  -3  -8   17.20    4.50
  16  -3  -8   18.80    4.00
 -16  -3   8   14.20    3.30
 -16   3   7  153.08   10.00
  16   3  -7  171.88    9.90
  16  -3  -7  160.78   10.60
  16  -3  -7  158.18   11.20
 -16  -3   7  155.58   10.20
 -16   3   6   58.79    5.90
  16   3  -6   71.89    5.60
 -16  -3   6   66.59    6.00
  16  -3  -6   67.19    6.70
 -16   3   5   28.50    3.60
  16   3  -5   24.80    3.20
 -16  -3   5   31.20    4.10
  16  -3  -5   19.80    3.70
 -16  -3   5   23.30    3.70
  16   3  -4   34.30    5.00
  16   3  -4   38.50    3.60
  16   3  -4   40.20    3.70
 -16   3   4   47.00    4.30
 -16   3   4   38.70    3.60
 -16   3   4   36.40    4.10
  16  -3  -4   45.30    4.80
 -16  -3   4   40.30    4.40
 -16  -3   4   42.80    5.30
 -16   3   3   -0.20    2.40
  16   3  -3   -0.70    1.60
 -16   3   3    1.70    1.80
  16   3  -3   -3.30    2.80
 -16   3   3   -0.80    2.30
 -16  -3   3    1.10    3.40
 -16  -3   3    2.30    1.80
 -16  -3   3    1.90    2.50
 -16  -3   3    0.30    1.70
 -16   3   2   10.30    2.30
 -16   3   2   12.00    2.80
  16   3  -2   10.70    2.00
 -16   3   2   10.00    2.70
 -16  -3   2    7.60    2.20
 -16  -3   2   12.60    2.60
 -16  -3   2   13.00    4.20
 -16  -3   2   10.80    2.90
 -16   3   1   87.99    6.60
 -16   3   1   86.99    5.90
 -16  -3   1   86.09    8.70
 -16  -3   1   81.09    6.10
 -16  -3   1   87.39    6.00
 -16   3   0   25.00    4.70
 -16   3   0   28.20    3.40
 -16   3   0   29.30    3.80
 -16  -3   0   31.50    3.30
 -16  -3   0   24.40    5.50
 -16   3  -1    2.10    2.50
 -16   3  -1    2.70    2.60
 -16   3  -1    1.90    3.70
 -16  -3  -1    8.80    2.40
 -16  -3  -1    6.30    3.10
 -16  -3  -1    3.80    4.70
 -16   3  -2    7.40    2.70
 -16   3  -2    4.90    4.10
 -16   3  -2    5.60    3.00
 -16  -3  -2    8.50    3.40
 -16  -3  -2   10.70    2.50
 -16  -3  -2    3.50    5.20
 -16   3  -3   90.59    6.90
 -16   3  -3   87.39    8.50
 -16   3  -3   76.29    7.00
 -16  -3  -3   91.69    7.60
 -16  -3  -3  100.19    6.60
 -16  -3  -3   87.39   10.30
 -16   3  -4    3.90    2.80
 -16   3  -4    1.40    3.40
 -16   3  -4    2.70    4.20
 -16  -3  -4   -1.30    5.40
 -16  -3  -4    1.50    2.70
 -16  -3  -4    7.50    3.60
 -16   3  -5    1.60    2.90
 -16   3  -5    6.10    4.40
 -16  -3  -5    2.00    5.90
 -16  -3  -5    3.90    2.90
 -16  -3  -5    3.30    3.70
 -16   3  -6  131.29   11.30
 -16   3  -6  127.59    8.90
 -16  -3  -6  118.59   12.60
 -16  -3  -6  124.49    8.80
 -16  -3  -6  127.49    9.70
 -16   3  -7   17.40    5.50
 -16   3  -7    7.80    3.50
 -16  -3  -7   16.80    3.80
 -16  -3  -7   11.80    6.00
 -16  -3  -7   19.80    4.90
 -16   3  -8    6.50    4.70
 -16   3  -8   -1.20    3.30
 -16  -3  -8   -1.40    3.40
 -16  -3  -8  -10.10    6.00
 -16  -3  -8   -1.20    4.30
 -16   3  -9    4.30    4.40
 -16   3  -9   -3.10    3.50
 -16  -3  -9  -12.00    6.30
 -16  -3  -9    2.50    4.80
 -16  -3  -9    5.30    3.60
 -16   4  11   41.90    5.20
  16  -4 -11   52.49    6.10
 -16  -4  11   40.60    5.40
  16  -4 -11   43.20    6.80
 -16   4  10   20.20    4.10
 -16  -4  10   22.30    4.30
  16  -4 -10   18.50    4.50
  16  -4 -10   17.00    5.40
 -16   4   9   53.19    6.00
 -16  -4   9   64.69    6.30
  16  -4  -9   77.09    8.90
  16  -4  -9   85.59    8.70
  16  -4  -9   46.90    5.90
  16   4  -8    4.00    2.70
 -16   4   8    2.70    2.80
 -16  -4   8   -0.90    2.80
  16  -4  -8   -0.30    4.10
  16  -4  -8    2.50    3.40
 -16   4   7    2.30    2.60
  16   4  -7   -1.40    2.30
  16  -4  -7   -1.20    4.10
 -16  -4   7    6.30    3.00
  16  -4  -7    1.70    3.20
  16   4  -6    5.70    2.40
 -16   4   6    5.00    2.80
  16  -4  -6    0.70    3.30
 -16  -4   6    7.40    3.00
  16  -4  -6    0.80    4.70
 -16   4   5   17.60    3.30
  16   4  -5   24.50    2.90
 -16  -4   5   20.70    3.60
 -16  -4   5   19.80    3.50
  16  -4  -5   22.60    4.00
 -16   4   4   19.50    3.20
  16   4  -4   17.90    2.60
 -16   4   4   17.90    2.70
 -16  -4   4   18.80    4.20
  16  -4  -4   16.60    3.80
 -16  -4   4   20.00    3.40
 -16   4   3   20.20    3.50
 -16   4   3   22.90    3.00
 -16   4   3   28.90    3.60
 -16  -4   3   26.50    3.70
 -16  -4   3   24.00    4.80
 -16  -4   3   24.10    2.60
  16   4  -2    7.90    1.70
 -16   4   2    9.80    2.70
 -16   4   2   12.90    3.00
  16   4  -2    3.90    1.20
 -16   4   2   12.40    2.80
 -16  -4   2    8.40    2.10
 -16  -4   2   16.30    4.70
 -16  -4   2    8.90    3.00
 -16   4   1   19.00    3.20
 -16   4   1   16.30    3.00
 -16   4   1   14.50    3.20
 -16  -4   1   20.30    3.50
 -16  -4   1   10.90    4.80
 -16  -4   1   13.50    2.50
 -16   4   0   -0.30    2.60
 -16   4   0   -0.10    2.60
 -16  -4   0    2.40    4.70
 -16  -4   0    2.00    2.10
 -16  -4   0    0.70    3.00
 -16   4  -1  124.99    8.50
 -16   4  -1  118.59    8.20
 -16  -4  -1  125.49    7.90
 -16  -4  -1  131.79    8.70
 -16   4  -2    3.90    2.80
 -16   4  -2    3.70    2.90
 -16  -4  -2    0.70    5.20
 -16  -4  -2    3.10    2.30
 -16  -4  -2    4.80    3.30
 -16   4  -3   59.09    6.30
 -16   4  -3   67.89    6.10
 -16   4  -3   63.89    7.80
 -16  -4  -3   63.69    9.50
 -16  -4  -3   72.09    5.70
 -16  -4  -3   72.49    6.70
 -16   4  -4   88.39    7.50
 -16   4  -4   89.29    9.60
 -16   4  -4   72.79    6.90
 -16  -4  -4   85.99   11.00
 -16  -4  -4   81.69    6.40
 -16  -4  -4   92.89    8.00
 -16   4  -5   36.40    5.10
 -16   4  -5   29.30    6.10
 -16   4  -5   24.80    4.00
 -16  -4  -5   22.00    7.10
 -16  -4  -5   32.80    5.10
 -16  -4  -5   33.80    4.00
 -16   4  -6    5.80    3.20
 -16   4  -6    7.70    4.90
 -16   4  -6    3.70    3.80
 -16  -4  -6   -3.00    6.50
 -16  -4  -6    5.80    3.00
 -16  -4  -6    7.10    4.20
 -16   4  -7   83.89    9.20
 -16   4  -7   81.69    8.40
 -16   4  -7   90.19    7.50
 -16  -4  -7   86.89    8.70
 -16  -4  -7   73.09   10.70
 -16  -4  -7   89.09    7.20
 -16   4  -8  142.99   12.00
 -16   4  -8  128.79   10.60
 -16   4  -8  124.69    9.60
 -16  -4  -8  134.69    9.30
 -16  -4  -8  126.19   11.40
 -16  -4  -8  100.49   13.10
 -16   4  -9    3.00    3.80
 -16   4  -9    9.40    5.10
 -16   4  -9    8.90    5.20
 -16  -4  -9   -7.00    6.90
 -16  -4  -9   11.20    5.30
 -16  -4  -9    6.90    3.80
 -16   5  10    0.90    3.00
  16  -5 -10    0.80    5.50
  16  -5 -10   -0.50    3.90
 -16  -5  10    1.70    3.30
  16  -5 -10   -1.70    2.40
 -16   5   9    1.40    2.90
 -16  -5   9    3.30    3.30
  16  -5  -9    2.80    5.30
  16  -5  -9    3.90    3.60
  16  -5  -9    5.20    5.90
 -16   5   8   49.90    5.20
 -16  -5   8   42.10    5.10
  16  -5  -8   44.90    6.90
  16  -5  -8   48.10    5.80
 -16   5   7   -1.50    2.70
 -16  -5   7    3.20    3.10
  16  -5  -7   -1.90    3.20
  16  -5  -7   -0.80    4.70
 -16   5   6    0.80    2.60
  16  -5  -6   -4.00    4.40
 -16  -5   6    0.50    2.90
  16  -5  -6   -4.90    3.20
 -16   5   5   15.50    3.20
  16  -5  -5   17.90    4.00
 -16  -5   5   14.90    3.40
 -16   5   4   47.90    4.40
 -16   5   4   42.20    4.70
 -16  -5   4   41.50    5.60
 -16  -5   4   39.90    4.60
  16  -5  -4   45.90    5.20
 -16   5   3   26.40    3.50
  16   5  -3   22.00    2.50
 -16   5   3   25.30    3.50
 -16   5   3   24.00    3.70
  16  -5  -3   28.90    4.30
 -16  -5   3   27.40    3.90
 -16   5   2   19.80    3.60
 -16   5   2   19.50    3.60
 -16   5   2   18.20    3.20
 -16  -5   2   19.00    2.30
 -16  -5   2   16.50    5.20
 -16  -5   2   20.20    3.70
 -16   5   1   38.30    4.00
 -16   5   1   35.60    4.50
 -16   5   1   34.90    4.20
 -16  -5   1   34.40    3.20
 -16  -5   1   35.40    4.00
 -16  -5   1   30.80    6.10
 -16  -5   1   38.80    4.60
 -16   5   0    0.90    2.80
 -16   5   0    2.10    2.90
 -16  -5   0    1.40    2.00
 -16  -5   0    0.30    3.10
 -16  -5   0   -3.50    4.90
 -16   5  -1    0.20    2.90
 -16   5  -1   -1.90    2.80
 -16  -5  -1   -1.80    3.00
 -16  -5  -1   -0.40    2.10
 -16  -5  -1    0.10    5.20
 -16   5  -2   33.00    4.30
 -16   5  -2   40.60    5.00
 -16  -5  -2   37.80    4.70
 -16  -5  -2   34.80    7.10
 -16  -5  -2   39.50    3.80
 -16   5  -3    0.70    3.10
 -16   5  -3   -1.10    2.80
 -16  -5  -3   -6.70    5.80
 -16  -5  -3   -1.60    3.30
 -16  -5  -3   -2.10    2.40
 -16   5  -4    2.90    3.50
 -16   5  -4    1.00    3.00
 -16  -5  -4   -4.80    5.30
 -16  -5  -4    2.00    3.60
 -16  -5  -4   -3.20    2.50
 -16   5  -5   11.90    3.60
 -16   5  -5   15.40    4.30
 -16  -5  -5   17.20    4.60
 -16  -5  -5    4.90    6.90
 -16  -5  -5    9.60    3.20
 -16   5  -6    2.90    3.30
 -16   5  -6    1.30    4.00
 -16  -5  -6    1.90    3.00
 -16  -5  -6  -10.50    6.50
 -16  -5  -6    1.90    4.50
 -16   5  -7   21.80    6.10
 -16   5  -7   21.50    5.30
 -16   5  -7   11.30    3.90
 -16  -5  -7   18.50    3.90
 -16  -5  -7    4.60    7.00
 -16  -5  -7   14.60    5.70
 -16   5  -8   21.40    6.00
 -16   5  -8   12.10    4.10
 -16   5  -8   13.80    5.00
 -16  -5  -8   -5.10    7.70
 -16  -5  -8   14.60    3.90
 -16  -5  -8   14.20    5.60
  16  -6  -9   61.89    9.10
 -16  -6   9   53.09    6.00
  16  -6  -9   54.99    6.50
 -16   6   8    1.20    2.00
  16  -6  -8    3.40    5.60
 -16  -6   8    2.70    3.30
  16  -6  -8    1.00    3.60
  16  -6  -8    2.50    6.10
 -16   6   7   26.30    3.90
 -16  -6   7   20.00    4.20
  16  -6  -7   36.10    6.80
  16  -6  -7   27.10    4.80
 -16   6   6   98.69    7.40
  16  -6  -6  103.19    8.70
  16  -6  -6  112.09   10.40
 -16  -6   6  105.49    8.20
 -16   6   5    2.50    2.70
  16  -6  -5    2.20    5.20
 -16  -6   5    1.50    3.00
  16  -6  -5    5.00    3.70
 -16   6   4    8.30    3.20
 -16   6   4   10.80    2.80
 -16  -6   4   10.40    3.30
  16  -6  -4   13.40    3.70
 -16   6   3   -0.70    2.90
 -16   6   3   -2.00    2.30
  16  -6  -3   -4.40    3.20
 -16  -6   3   -3.30    4.90
 -16  -6   3    0.50    3.00
 -16   6   2    2.20    3.00
 -16   6   2   -0.60    2.30
 -16   6   2   -0.30    2.90
 -16  -6   2    2.40    3.00
 -16  -6   2    4.70    5.10
 -16   6   1    0.10    2.90
 -16   6   1   -2.10    3.20
 -16   6   1    1.30    2.40
 -16  -6   1    9.80    5.50
 -16  -6   1   -0.30    3.00
 -16  -6   1   -2.30    1.40
 -16   6   0   16.00    3.90
 -16   6   0   14.50    3.30
 -16   6   0    9.40    2.90
 -16  -6   0   13.80    3.50
 -16  -6   0   15.60    3.40
 -16  -6   0   13.60    5.70
 -16   6  -1   16.40    3.60
 -16   6  -1   15.00    4.00
 -16  -6  -1   15.40    3.60
 -16  -6  -1   12.60    6.10
 -16   6  -2   11.40    3.90
 -16   6  -2    6.20    3.30
 -16  -6  -2   10.30    3.70
 -16  -6  -2    0.50    0.90
 -16  -6  -2    3.70    6.30
 -16   6  -3    1.30    3.10
 -16   6  -3    2.90    3.70
 -16  -6  -3    3.00    3.80
 -16  -6  -3    0.10    1.00
 -16  -6  -3   -4.80    6.00
 -16   6  -4   88.29    7.30
 -16   6  -4   78.39    8.00
 -16  -6  -4   82.39    8.30
 -16  -6  -4   88.99   10.90
 -16   6  -5   15.10    4.40
 -16   6  -5    5.90    3.30
 -16  -6  -5    7.30    4.80
 -16  -6  -5    5.20    2.40
 -16  -6  -5   -4.10    7.40
 -16   6  -6   17.10    4.90
 -16   6  -6   10.80    3.70
 -16  -6  -6   15.90    5.40
 -16  -6  -6   10.70    3.00
 -16  -6  -6   -4.60    7.70
 -16   6  -7   43.40    6.40
 -16  -6  -7   22.70    8.90
 -16  -7   7   16.00    4.00
  16  -7  -7   15.60    6.30
  16  -7  -7   11.60    4.20
  16  -7  -6    4.80    5.40
  16  -7  -6   -0.60    3.60
 -16  -7   6    3.70    3.20
 -16  -7   5   10.70    3.40
  16  -7  -5   15.10    6.00
  16  -7  -5    6.60    4.00
 -16   7   4   51.69    6.70
  16  -7  -4   77.19    8.50
  16  -7  -4   77.49    6.90
 -16  -7   4   74.59    6.80
 -16   7   3    2.80    3.60
 -16  -7   3    0.40    3.00
  16  -7  -3   -0.40    3.60
 -16   7   2   55.19    6.50
 -16   7   2   55.59    5.50
 -16  -7   2   58.09    8.60
 -16  -7   2   60.69    6.50
  16  -7  -2   59.99    6.20
 -16   7   1    7.20    3.90
 -16   7   1    4.20    3.40
 -16  -7   1   11.80    5.50
 -16  -7   1   12.50    3.70
 -16   7   0    8.80    4.00
 -16   7   0   11.20    3.40
 -16  -7   0    5.40    3.50
 -16  -7   0    7.60    5.70
 -16   7  -1   23.50    5.00
 -16   7  -1   29.20    4.30
 -16  -7  -1   23.00    4.30
 -16  -7  -1   20.00    6.40
 -16   7  -2   12.50    4.40
 -16   7  -2    5.20    3.70
 -16  -7  -2    6.00    6.30
 -16  -7  -2    6.70    3.80
 -16   7  -3   -0.40    4.00
 -16   7  -3    0.60    3.50
 -16  -7  -3   -0.10    4.50
 -16  -7  -3   -4.90    6.20
 -16   7  -4    3.40    3.40
 -16   7  -4    3.70    4.20
 -16  -7  -4    2.10    4.50
 -16  -7  -4   -6.20    6.50
 -16   7  -5   31.30    6.00
 -16   7  -5   27.60    4.60
 -16  -7  -5   37.50    5.80
 -16  -7  -5   16.60    7.30
 -16   8   4  156.78   12.40
  16  -8  -4  222.68   13.20
  16  -8  -4  241.38   15.30
 -16   8   3  121.99   10.00
  16  -8  -3  134.49   12.90
  16  -8  -3  139.59   10.00
 -16   8   2   -0.20    3.90
 -16  -8   2   -3.40    4.80
  16  -8  -2    0.40    3.60
 -16   8   1    8.20    4.10
 -16   8   1   -1.80    3.20
 -16  -8   1    1.00    5.20
  16  -8  -1    5.40    3.70
 -16   8   0    2.50    4.20
 -16   8   0   -2.10    3.40
 -16  -8   0   -4.40    5.50
 -16   8  -1    4.80    3.60
 -16   8  -1    1.00    4.50
 -16  -8  -1   -5.40    6.00
 -16   8  -2   17.10    5.10
 -16   8  -2   21.00    4.30
 -16  -8  -2   19.50    7.30
 -17   0  12    3.90    3.40
  17   0 -12    0.60    4.00
  17   0 -11   -3.40    3.40
  17   0 -11   -1.80    1.90
 -17   0  11    0.10    3.00
  17   0 -10  590.94   31.00
 -17   0  10  555.14   31.20
  17   0 -10  611.54   31.50
  17   0  -9    0.70    3.10
 -17   0   9   -1.10    2.80
  17   0  -9    1.50    3.10
  17   0  -8  107.49    8.10
  17   0  -8  105.79    7.70
 -17   0   8   98.69    7.70
  17   0  -7    2.90    2.80
 -17   0   7    2.40    2.60
  17   0  -6   44.90    4.60
 -17   0   6   42.50    4.50
 -17   0   5    4.00    2.70
  17   0  -5   -0.10    2.60
  17   0  -5   -5.60    2.80
 -17   0   4    6.50    2.80
 -17   0   4    3.60    2.10
 -17   0   4    4.00    2.70
 -17   0   3    0.30    2.40
 -17   0   3    2.70    2.10
 -17   0   3    1.40    2.80
 -17   0   2   50.29    5.10
 -17   0   2   59.29    5.60
 -17   0   2   49.90    5.90
 -17   0   1   -2.60    2.90
 -17   0   1   -2.00    2.30
 -17   0   0   23.00    3.20
 -17   0   0   22.80    4.70
 -17   0  -1   -0.70    3.10
 -17   0  -1   -0.60    2.30
 -17   0  -2    3.80    3.80
 -17   0  -2    3.50    2.40
 -17   0  -3   -1.50    2.50
 -17   0  -3    0.60    4.00
 -17   0  -4   25.80    5.50
 -17   0  -4   29.50    3.80
 -17   0  -4   21.30    4.20
 -17   0  -5    1.60    3.70
 -17   0  -5    2.10    2.70
 -17   0  -5   -0.60    4.30
 -17   0  -6  101.69    8.40
 -17   0  -6  127.99    9.40
 -17   0  -6  130.79   11.10
 -17   0  -7    0.50    4.50
 -17   0  -7   -3.10    3.00
 -17   0  -7    1.80    4.00
 -17   0  -8  103.89    8.60
 -17   0  -8  106.39    9.60
 -17   0  -8  112.19   10.80
 -17   0  -9    0.30    4.90
 -17   0  -9    3.30    4.60
 -17   0  -9   -0.80    3.30
 -17   1  12   -2.90    3.00
  17   1 -12   -1.60    3.50
 -17  -1  12    0.40    3.40
  17  -1 -12   -4.30    3.60
  17  -1 -12   -4.30    3.60
  17   1 -11    2.10    3.60
 -17   1  11    0.40    3.10
  17  -1 -11   -3.10    3.70
 -17  -1  11    2.20    3.30
  17  -1 -11   -0.60    3.20
 -17   1  10  129.89    9.50
  17   1 -10  142.69    9.60
  17  -1 -10  129.79    9.70
 -17  -1  10  129.69    9.40
  17  -1 -10  131.79    9.70
 -17   1   9    5.00    3.10
  17   1  -9    6.50    3.30
  17  -1  -9    5.40    3.60
  17  -1  -9    4.00    3.40
 -17  -1   9    4.80    3.30
  17   1  -8   94.79    7.60
  17   1  -8   93.19    6.80
 -17   1   8   92.19    7.30
 -17  -1   8   89.59    7.20
  17  -1  -8   82.79    7.60
  17  -1  -8   88.19    7.50
 -17   1   7   53.99    5.10
  17   1  -7   36.20    4.50
  17  -1  -7   47.20    5.10
 -17  -1   7   52.59    5.50
 -17   1   6   52.69    5.80
  17   1  -6   59.29    5.60
 -17  -1   6   54.79    5.70
  17  -1  -6   66.19    6.00
  17   1  -5    0.90    2.70
  17   1  -5    3.00    2.60
 -17   1   5    0.90    2.50
  17  -1  -5    3.50    2.80
 -17  -1   5    0.20    2.60
 -17  -1   5    4.30    2.50
  17   1  -4  142.19   10.10
 -17   1   4  164.78    9.60
 -17   1   4  160.98   10.00
 -17  -1   4  158.78   10.10
 -17  -1   4  162.58    9.40
 -17  -1   4  162.88   10.00
 -17   1   3  162.08   10.70
 -17   1   3  154.98    8.60
 -17   1   3  156.48   10.00
 -17   1   3  164.78    9.70
 -17  -1   3  170.88   10.50
 -17  -1   3  165.98    9.60
 -17  -1   3  161.08   10.10
 -17   1   2    2.50    3.20
 -17   1   2    0.20    2.50
 -17   1   2    5.20    2.40
 -17   1   2    0.60    1.50
 -17  -1   2    1.70    2.10
 -17  -1   2    7.50    2.70
 -17  -1   2    4.40    3.20
 -17   1   1   -1.70    2.30
 -17   1   1    3.50    3.40
 -17  -1   1    0.30    3.10
 -17  -1   1    3.00    2.30
 -17   1   0   35.00    5.30
 -17   1   0   26.90    3.40
 -17  -1   0   35.80    5.20
 -17  -1   0   30.60    3.50
 -17   1  -1   75.59    7.80
 -17   1  -1   83.29    6.10
 -17  -1  -1   70.49    8.00
 -17  -1  -1   83.39    6.20
 -17   1  -2    8.40    4.20
 -17   1  -2   11.30    2.90
 -17  -1  -2    8.70    4.60
 -17  -1  -2   10.30    2.80
 -17   1  -3    2.60    4.10
 -17   1  -3    2.90    2.60
 -17  -1  -3   -3.00    2.40
 -17  -1  -3    5.00    4.50
 -17  -1  -3   -1.50    3.30
 -17   1  -4   97.29    7.20
 -17   1  -4   87.69    9.10
 -17  -1  -4   89.19    7.70
 -17  -1  -4   85.69    9.80
 -17  -1  -4   85.49    6.80
 -17   1  -5   17.00    3.50
 -17   1  -5   20.20    5.40
 -17  -1  -5   19.30    4.20
 -17  -1  -5   18.10    5.40
 -17  -1  -5   14.90    3.40
 -17   1  -6    5.40    4.60
 -17   1  -6   -1.40    3.00
 -17  -1  -6    1.70    4.10
 -17  -1  -6    1.40    4.70
 -17  -1  -6   -3.10    3.00
 -17   1  -7    1.80    4.00
 -17   1  -7   -4.90    3.10
 -17   1  -7    2.70    4.50
 -17  -1  -7    2.40    5.40
 -17  -1  -7   -1.20    4.00
 -17  -1  -7   -2.40    2.90
 -17   1  -8   17.60    5.00
 -17   1  -8   19.20    5.70
 -17   1  -8   13.40    3.90
 -17  -1  -8   18.40    6.20
 -17  -1  -8   26.10    5.30
 -17  -1  -8   17.70    3.90
 -17   1  -9   14.30    5.10
 -17   1  -9    8.90    3.80
 -17   1  -9   15.70    5.00
 -17  -1  -9    9.70    5.30
 -17  -1  -9   21.90    6.60
 -17  -1  -9   16.00    4.00
  17   2 -11   91.49    8.00
 -17   2  11   85.39    7.70
  17  -2 -11   95.89    8.30
 -17  -2  11   83.29    7.70
  17  -2 -11   76.49    8.40
  17   2 -10   20.80    3.90
 -17   2  10   13.10    3.60
 -17  -2  10   15.50    3.80
  17  -2 -10   12.20    4.40
  17  -2 -10   13.30    4.10
  17   2  -9    4.00    3.30
 -17   2   9    4.10    3.30
 -17  -2   9    8.60    3.30
  17  -2  -9    6.20    3.80
  17  -2  -9    7.40    3.80
 -17   2   8    5.00    2.90
  17   2  -8   -0.50    1.50
  17   2  -8    2.80    2.90
  17  -2  -8    2.20    3.20
 -17  -2   8    4.70    3.00
  17  -2  -8    0.60    3.70
  17   2  -7   49.00    4.70
 -17   2   7   42.20    4.70
  17   2  -7   42.70    4.20
  17  -2  -7   50.09    5.80
  17  -2  -7   55.29    5.40
 -17  -2   7   41.40    4.60
 -17   2   6  237.28   13.40
  17   2  -6  234.18   13.30
 -17  -2   6  226.08   13.60
  17  -2  -6  228.18   13.70
  17   2  -5  122.39    8.00
 -17   2   5  125.99    8.30
 -17  -2   5  112.39    8.40
  17  -2  -5  112.49    8.40
 -17  -2   5  123.79    8.00
 -17   2   4    6.80    1.50
 -17   2   4    7.00    2.70
 -17   2   4    5.90    2.70
  17   2  -4    5.20    2.50
  17   2  -4    2.10    2.80
 -17  -2   4    8.00    2.20
 -17  -2   4    4.30    2.70
 -17  -2   4    9.90    2.90
 -17   2   3    5.00    2.70
 -17   2   3    2.50    1.50
 -17   2   3   -0.30    2.40
 -17  -2   3    2.20    3.00
 -17  -2   3    1.20    1.60
 -17  -2   3   -0.20    1.90
 -17   2   2    3.70    3.30
 -17   2   2    6.40    2.60
 -17   2   2    3.60    1.80
 -17   2   2    5.60    2.70
 -17  -2   2    1.70    1.90
 -17  -2   2    2.70    2.20
 -17  -2   2    3.00    2.70
 -17  -2   2    8.70    3.50
 -17   2   1  493.15   26.60
 -17   2   1  516.55   26.20
 -17   2   1  521.65   28.00
 -17  -2   1  486.95   27.90
 -17  -2   1  513.15   26.40
 -17   2   0   -0.10    3.60
 -17   2   0    1.60    2.20
 -17   2   0    3.70    2.60
 -17  -2   0    4.00    2.30
 -17  -2   0    2.10    4.10
 -17   2  -1   95.99    8.70
 -17   2  -1   92.89    6.80
 -17   2  -1   80.49    6.50
 -17  -2  -1   85.49    9.30
 -17  -2  -1   98.69    6.60
 -17   2  -2    1.00    2.50
 -17   2  -2   -1.60    3.40
 -17  -2  -2   -4.00    4.50
 -17  -2  -2   -0.40    2.30
 -17  -2  -2   -0.80    3.20
 -17   2  -3   40.30    4.50
 -17   2  -3   45.60    6.20
 -17  -2  -3   52.99    4.60
 -17  -2  -3   48.40    7.40
 -17  -2  -3   53.09    5.50
 -17   2  -4    0.10    4.30
 -17   2  -4    1.80    2.70
 -17  -2  -4   -0.10    2.60
 -17  -2  -4    1.30    3.40
 -17  -2  -4   -1.20    5.10
 -17   2  -5   34.50    4.40
 -17   2  -5   33.00    6.10
 -17  -2  -5   32.10    4.90
 -17  -2  -5   27.30    6.70
 -17  -2  -5   29.20    4.20
 -17   2  -6    8.60    4.90
 -17   2  -6    4.40    3.20
 -17  -2  -6    6.70    4.10
 -17  -2  -6   -1.00    5.70
 -17  -2  -6    3.00    3.00
 -17   2  -7    9.80    3.50
 -17   2  -7   18.50    5.20
 -17  -2  -7    6.20    6.00
 -17  -2  -7   15.50    4.80
 -17  -2  -7   12.70    3.60
 -17   2  -8   59.49    7.70
 -17   2  -8   33.40    5.00
 -17  -2  -8   43.50    5.20
 -17  -2  -8   48.30    8.80
 -17  -2  -8   43.80    6.20
 -17   2  -9   36.40    5.40
 -17   2  -9   60.89    8.40
 -17  -2  -9   32.70    4.80
 -17  -2  -9   35.20    6.20
 -17  -2  -9   32.60    8.30
  17   3 -11   29.90    4.60
 -17   3  11   21.90    4.40
  17  -3 -11   25.60    5.50
 -17  -3  11   25.80    4.50
  17  -3 -11   20.70    4.90
  17   3 -10    3.30    3.30
 -17   3  10    0.10    2.90
  17  -3 -10    1.60    4.50
 -17  -3  10    3.10    3.20
  17  -3 -10   -1.10    3.50
  17   3  -9    1.90    3.10
 -17   3   9   -0.70    2.80
 -17  -3   9    1.30    3.10
  17  -3  -9    1.20    2.10
  17  -3  -9   -2.00    4.00
  17  -3  -9    1.10    3.40
 -17   3   8    1.30    2.50
  17   3  -8   -0.60    2.70
  17  -3  -8    0.10    3.80
 -17  -3   8    1.00    2.90
  17  -3  -8    1.80    3.20
 -17   3   7    6.00    2.90
  17   3  -7    6.50    2.90
 -17  -3   7    6.90    3.00
  17  -3  -7    4.80    3.40
  17  -3  -7    9.70    4.40
  17   3  -6   17.40    3.00
 -17   3   6   15.80    3.20
  17  -3  -6   12.00    3.80
 -17  -3   6   12.80    3.20
  17   3  -5  124.39    7.70
 -17   3   5  121.99    8.20
  17  -3  -5  117.39    8.70
 -17  -3   5  120.89    8.00
 -17  -3   5  112.19    8.30
 -17   3   4   27.90    3.80
 -17   3   4   23.90    3.60
  17   3  -4   26.10    3.20
 -17   3   4   28.80    3.20
 -17  -3   4   33.20    4.90
 -17  -3   4   29.00    4.00
  17  -3  -4   22.40    4.00
  17   3  -3    5.90    2.20
 -17   3   3   10.40    2.90
 -17   3   3    7.30    2.80
 -17   3   3    9.70    2.20
 -17  -3   3   10.30    2.20
 -17  -3   3    9.10    3.00
 -17  -3   3    9.70    3.80
 -17   3   2   55.09    4.60
 -17   3   2   61.19    5.50
 -17   3   2   62.39    5.50
 -17  -3   2   45.30    4.70
 -17  -3   2   53.29    7.10
 -17  -3   2   56.99    4.70
 -17  -3   2   57.89    6.00
 -17   3   1   79.89    6.30
 -17   3   1   78.89    5.70
 -17  -3   1   74.89    8.10
 -17  -3   1   74.39    5.80
 -17   3   0    7.80    4.00
 -17   3   0    6.40    2.60
 -17   3   0    9.90    2.80
 -17  -3   0    6.10    2.50
 -17  -3   0    7.30    4.70
 -17   3  -1   24.90    3.60
 -17   3  -1   25.90    5.30
 -17   3  -1   28.20    3.70
 -17  -3  -1   25.70    4.10
 -17  -3  -1   19.00    5.80
 -17  -3  -1   19.90    3.10
 -17   3  -2  298.37   16.50
 -17   3  -2  295.77   16.50
 -17   3  -2  308.57   18.50
 -17  -3  -2  279.97   19.00
 -17  -3  -2  284.97   16.60
 -17  -3  -2  302.97   16.20
 -17   3  -3    5.60    3.20
 -17   3  -3    3.40    4.20
 -17   3  -3    5.30    2.90
 -17  -3  -3    6.20    3.60
 -17  -3  -3    4.60    5.70
 -17  -3  -3    6.70    2.70
 -17   3  -4   57.29    7.50
 -17   3  -4   47.70    5.60
 -17   3  -4   44.80    4.80
 -17  -3  -4   47.20    5.50
 -17  -3  -4   49.99    8.20
 -17  -3  -4   53.89    4.80
 -17   3  -5   19.30    5.40
 -17   3  -5   21.20    3.70
 -17  -3  -5   21.00    6.90
 -17  -3  -5   18.70    4.50
 -17  -3  -5   19.50    3.60
 -17   3  -6   10.60    3.30
 -17   3  -6   11.20    5.10
 -17  -3  -6    4.80    6.50
 -17  -3  -6   16.30    3.50
 -17  -3  -6   16.30    4.60
 -17   3  -7   41.90    6.90
 -17   3  -7   36.20    4.80
 -17  -3  -7   32.20    4.40
 -17  -3  -7   28.90    5.60
 -17  -3  -7   20.00    6.90
 -17   3  -8   41.20    6.90
 -17   3  -8   35.40    4.90
 -17  -3  -8   33.40    6.30
 -17  -3  -8   20.60    7.80
 -17  -3  -8   42.00    5.00
 -17   3  -9   21.20    5.70
 -17   3  -9   10.60    4.00
 -17  -3  -9   11.70    3.80
 -17  -3  -9   -2.90    6.00
 -17  -3  -9   12.10    5.50
 -17   4  10    1.70    3.00
 -17  -4  10    2.00    3.40
  17  -4 -10    6.40    5.30
  17  -4 -10    1.70    3.70
 -17   4   9   10.60    3.60
 -17  -4   9   14.50    3.90
  17  -4  -9   11.30    3.80
  17  -4  -9   17.00    5.20
  17  -4  -9   19.00    5.80
  17   4  -8   -1.80    1.60
 -17   4   8   -0.40    2.90
  17  -4  -8   -0.40    3.50
 -17  -4   8   -1.80    3.00
  17  -4  -8    2.30    4.50
 -17   4   7    0.20    2.70
  17   4  -7   -0.60    2.40
 -17  -4   7    1.10    2.80
  17  -4  -7   -1.10    3.40
  17  -4  -7   -5.20    4.10
 -17   4   6   -0.90    2.50
  17   4  -6    0.60    2.20
 -17  -4   6    4.20    2.80
  17  -4  -6   -0.80    3.20
  17   4  -5    4.40    2.30
 -17   4   5    8.20    2.80
  17  -4  -5    6.40    3.20
 -17  -4   5    8.30    3.10
 -17   4   4   78.59    6.30
 -17   4   4   80.39    6.50
 -17   4   4   70.69    5.50
  17   4  -4   84.39    5.70
 -17  -4   4   75.49    7.50
 -17  -4   4   81.09    6.70
  17  -4  -4   78.99    7.10
 -17   4   3  100.89    7.30
 -17   4   3  103.29    7.30
 -17   4   3   88.09    6.50
 -17  -4   3  104.29    6.30
 -17  -4   3  101.39    7.60
 -17  -4   3   90.59    8.60
 -17   4   2    1.60    2.50
 -17   4   2   -1.40    2.40
 -17   4   2   -4.50    2.40
 -17  -4   2   -2.20    1.80
 -17  -4   2   -4.80    4.30
 -17  -4   2   -2.00    2.70
 -17   4   1   20.80    3.40
 -17   4   1   25.20    3.60
 -17   4   1   23.00    3.40
 -17  -4   1   25.40    2.90
 -17  -4   1   29.50    4.10
 -17  -4   1   20.90    5.50
 -17   4   0    1.40    2.60
 -17   4   0    0.90    2.60
 -17  -4   0   -4.00    4.80
 -17  -4   0   -1.80    2.90
 -17  -4   0   -1.30    2.10
 -17   4  -1   14.30    3.40
 -17   4  -1   17.90    3.40
 -17  -4  -1   12.70    6.00
 -17  -4  -1   18.00    2.90
 -17  -4  -1   20.70    3.90
 -17   4  -2    3.70    3.10
 -17   4  -2    4.60    2.90
 -17  -4  -2    8.60    3.70
 -17  -4  -2    6.40    2.40
 -17  -4  -2   -2.70    5.60
 -17   4  -3  137.29    9.70
 -17   4  -3  154.88    9.40
 -17   4  -3  130.69   11.10
 -17  -4  -3  141.79    9.90
 -17  -4  -3  145.99    9.00
 -17  -4  -3  133.79   12.90
 -17   4  -4    8.20    3.30
 -17   4  -4   15.40    5.20
 -17   4  -4   13.70    3.80
 -17  -4  -4   12.60    4.00
 -17  -4  -4    7.60    6.70
 -17  -4  -4    6.60    3.00
 -17   4  -5    2.00    3.10
 -17   4  -5    6.40    3.60
 -17   4  -5    4.10    4.20
 -17  -4  -5    0.40    2.90
 -17  -4  -5   -7.90    5.30
 -17  -4  -5    4.70    4.20
 -17   4  -6   28.70    6.20
 -17   4  -6   23.90    4.20
 -17   4  -6   22.50    4.90
 -17  -4  -6   12.90    7.30
 -17  -4  -6   16.60    4.80
 -17  -4  -6   26.40    4.00
 -17   4  -7   -0.90    3.30
 -17   4  -7    6.00    4.80
 -17   4  -7   -5.20    3.80
 -17  -4  -7   -0.50    4.50
 -17  -4  -7    0.40    3.20
 -17   4  -8   -1.70    4.20
 -17   4  -8    3.30    3.80
 -17   4  -8    7.50    4.80
 -17  -4  -8    2.90    5.00
 -17  -4  -8  -15.10    6.40
 -17  -4  -8    2.80    3.40
 -17   5   9    3.10    3.10
  17  -5  -9    2.20    5.20
  17  -5  -9    2.10    3.80
  17  -5  -9    7.00    5.60
 -17  -5   9    1.40    3.40
 -17   5   8   28.80    4.30
 -17  -5   8   25.50    4.50
  17  -5  -8   21.20    4.80
  17  -5  -8   30.30    6.50
 -17   5   7    0.60    2.80
  17  -5  -7   -1.10    4.70
  17  -5  -7   -4.90    3.20
 -17  -5   7    2.10    3.10
 -17   5   6    0.40    2.80
  17  -5  -6    2.70    4.90
 -17  -5   6    3.80    3.10
  17  -5  -6    0.30    3.50
 -17   5   5   -2.70    2.40
  17  -5  -5   -0.40    3.30
 -17  -5   5    1.50    2.90
 -17   5   4   13.70    3.00
 -17   5   4   15.00    3.20
 -17  -5   4   11.80    4.50
 -17  -5   4   13.10    3.50
  17  -5  -4   13.50    3.90
 -17   5   3   14.10    3.10
 -17   5   3   13.50    2.90
 -17   5   3    7.30    3.20
 -17  -5   3   14.10    3.50
  17  -5  -3   16.80    3.70
 -17  -5   3   11.70    4.80
 -17   5   2    0.90    2.80
 -17   5   2    1.50    2.80
 -17   5   2    4.40    2.70
 -17  -5   2   -0.40    4.70
 -17  -5   2    0.70    1.20
 -17  -5   2    0.60    3.10
 -17   5   1    3.10    3.10
 -17   5   1    5.50    3.00
 -17   5   1    5.60    2.80
 -17  -5   1    6.80    5.10
 -17  -5   1    8.40    2.00
 -17  -5   1    5.30    3.10
 -17   5   0   19.60    3.70
 -17   5   0   15.40    3.60
 -17  -5   0   12.40    5.90
 -17  -5   0   14.30    2.50
 -17  -5   0   15.50    3.60
 -17   5  -1   38.70    4.80
 -17   5  -1   38.40    4.60
 -17  -5  -1   41.20    3.80
 -17  -5  -1   25.80    7.00
 -17  -5  -1   43.30    4.80
 -17   5  -2    0.60    3.10
 -17   5  -2    3.60    3.30
 -17  -5  -2    4.10    3.60
 -17  -5  -2    8.30    2.50
 -17  -5  -2    2.30    5.80
 -17   5  -3    3.20    3.20
 -17   5  -3   -0.70    3.00
 -17  -5  -3   -2.50    5.80
 -17  -5  -3    4.20    3.80
 -17  -5  -3    4.00    2.70
 -17   5  -4    9.70    3.80
 -17   5  -4    3.90    3.20
 -17  -5  -4    6.00    4.10
 -17  -5  -4   -1.90    6.60
 -17  -5  -4    5.30    2.80
 -17   5  -5    1.90    3.80
 -17   5  -5    8.80    3.50
 -17  -5  -5    4.10    3.10
 -17  -5  -5    8.90    4.30
 -17  -5  -5   -5.20    6.40
 -17   5  -6    7.80    3.60
 -17   5  -6    9.40    4.40
 -17  -5  -6   -5.80    6.40
 -17  -5  -6   13.60    4.80
 -17  -5  -6    9.30    3.40
 -17   5  -7    3.00    4.30
 -17   5  -7   -5.60    3.40
 -17   5  -7    8.00    4.80
 -17  -5  -7    0.50    3.30
 -17  -5  -7    6.50    5.00
 -17   6   8    0.50    1.60
 -17  -6   8    7.40    3.90
  17  -6  -8    7.60    5.90
  17  -6  -8    6.50    4.10
 -17   6   7    8.90    2.70
 -17  -6   7   15.90    3.90
  17  -6  -7   19.20    4.60
  17  -6  -7   23.50    6.50
 -17   6   6   98.39    7.60
  17  -6  -6  117.69    9.10
  17  -6  -6  113.39   10.90
 -17  -6   6  122.49    8.70
 -17   6   5    5.40    2.90
  17  -6  -5    5.50    5.80
 -17  -6   5    8.40    3.20
  17  -6  -5   -1.60    3.40
 -17   6   4   -0.10    2.50
 -17   6   4    2.60    2.90
  17  -6  -4    1.50    3.60
 -17  -6   4   -0.10    2.90
 -17   6   3    6.30    2.60
 -17   6   3    2.90    3.10
  17  -6  -3    9.30    3.80
 -17  -6   3   -1.70    4.80
 -17  -6   3    4.50    3.30
 -17   6   2    1.10    2.70
 -17   6   2   -2.90    2.80
 -17   6   2    2.50    3.00
 -17  -6   2    4.90    3.30
 -17  -6   2   -2.80    4.90
 -17   6   1    5.90    3.20
 -17   6   1   12.50    3.10
 -17   6   1    8.60    3.70
 -17  -6   1    8.80    3.70
 -17  -6   1    8.60    5.80
 -17   6   0   27.10    4.00
 -17   6   0   27.20    4.70
 -17   6   0   17.80    3.40
 -17  -6   0   17.20    3.80
 -17  -6   0   18.90    6.70
 -17  -6   0   27.30    4.30
 -17   6  -1    4.30    3.40
 -17   6  -1    9.70    3.80
 -17  -6  -1    9.20    3.60
 -17  -6  -1   -6.20    6.20
 -17   6  -2   -1.00    3.20
 -17   6  -2    0.30    3.60
 -17  -6  -2    2.40    3.60
 -17   6  -3   -2.50    3.40
 -17   6  -3    2.70    3.60
 -17  -6  -3    1.70    3.90
 -17   6  -4   -1.40    3.00
 -17   6  -4    1.60    3.90
 -17  -6  -4   -6.30    6.30
 -17  -6  -4    1.60    4.10
 -17  -6  -4    0.00    1.20
 -17   6  -5    0.70    3.80
 -17   6  -5   -1.70    3.20
 -17  -6  -5   -6.50    4.20
 -17  -6  -5   -0.50    1.20
 -17   6  -6   49.40    6.50
 -17   6  -6   48.10    5.30
 -17  -6  -6   47.50    6.70
 -17  -6  -6   29.20    9.20
  17  -7  -6   -0.30    3.80
 -17  -7   6   -1.10    3.20
  17  -7  -6    3.40    5.80
  17  -7  -5   12.20    6.30
  17  -7  -5   14.10    4.30
 -17  -7   5   14.20    3.80
  17  -7  -4   78.89    8.10
 -17  -7   4   86.89    7.60
 -17   7   3    7.30    3.70
  17  -7  -3   14.60    4.10
 -17  -7   3   12.80    3.60
 -17   7   2   86.39    8.10
 -17   7   2  100.69    8.20
  17  -7  -2  106.49    8.80
 -17  -7   2   96.49   11.60
 -17  -7   2  112.19    8.20
 -17   7   1   -0.20    3.20
 -17   7   1   -0.10    3.60
 -17  -7   1    2.50    3.30
 -17  -7   1   -2.50    5.30
 -17   7   0   80.99    7.00
 -17   7   0   75.09    7.70
 -17  -7   0   78.09    7.30
 -17  -7   0   61.59    9.10
 -17   7  -1    2.40    4.10
 -17   7  -1    5.80    3.50
 -17  -7  -1   -7.00    6.20
 -17  -7  -1    3.30    3.50
 -17   7  -2    3.30    3.80
 -17   7  -2   -5.00    3.30
 -17  -7  -2   -2.40    2.50
 -17   7  -3   25.60    4.60
 -17   7  -3   30.90    5.40
 -17  -7  -3   29.00    5.50
 -17  -7  -3   26.20    8.40
 -17   7  -4    0.50    3.60
 -17   7  -4    2.70    4.30
 -17  -7  -4  -16.80    6.90
 -17  -7  -4    1.20    4.70
 -17   8   2   39.10    5.70
  17  -8  -2   48.00    6.00
 -17   8   1    8.40    3.70
 -17   8   1    9.80    4.30
  17  -8  -1    6.20    4.20
 -17  -8   1    6.90    6.00
 -17   8   0    0.40    4.10
 -17  -8   0   -4.00    6.00
 -18   0  11    1.60    3.10
  18   0 -11    0.70    3.60
 -18   0  10  152.88   10.60
  18   0 -10  168.58   11.20
  18   0 -10  151.58   10.10
  18   0  -9    0.30    3.40
  18   0  -9   -0.80    2.90
 -18   0   9    2.20    3.00
  18   0  -8  170.88   10.80
 -18   0   8  158.88   10.60
  18   0  -8  162.18   10.50
 -18   0   7    0.90    2.40
  18   0  -7    3.50    2.90
 -18   0   6   15.70    3.40
  18   0  -6   15.10    3.40
  18   0  -5    3.60    2.60
 -18   0   5    2.70    2.70
 -18   0   4  168.68   10.70
 -18   0   4  176.18   10.40
 -18   0   4  175.48   11.00
 -18   0   3    2.70    2.60
 -18   0   3    0.30    3.00
 -18   0   3   -0.30    2.20
 -18   0   2   30.40    4.80
 -18   0   2   30.10    3.60
 -18   0   2   35.80    4.10
 -18   0   1    0.10    3.50
 -18   0   1   -3.30    2.30
 -18   0   0    3.20    3.80
 -18   0   0    3.80    2.50
 -18   0  -1   -2.80    2.30
 -18   0  -1    1.70    3.70
 -18   0  -2   55.09    7.60
 -18   0  -2   46.00    4.60
 -18   0  -3   -0.50    2.60
 -18   0  -3    1.10    4.20
 -18   0  -4   14.70    5.10
 -18   0  -4   11.20    3.30
 -18   0  -5    0.20    3.80
 -18   0  -5   -1.20    2.80
 -18   0  -5    1.70    3.80
 -18   0  -6    3.30    4.10
 -18   0  -6    7.40    4.80
 -18   0  -6    2.30    3.20
 -18   0  -7  -11.60    3.00
 -18   0  -7   -0.50    4.50
 -18   0  -7   -0.40    4.20
 -18   0  -8    4.70    4.60
 -18   0  -8    4.40    4.60
 -18   0  -8    3.50    3.40
 -18   0  -9    7.00    4.80
 -18   0  -9    0.90    5.10
 -18   0  -9    4.00    3.60
 -18   1  11    3.50    3.20
  18   1 -11    0.10    3.60
  18  -1 -11   -0.50    2.70
 -18  -1  11    1.20    3.10
  18  -1 -11    3.60    3.90
  18   1 -10    1.90    3.70
 -18   1  10    2.40    3.20
  18  -1 -10    0.70    3.60
 -18  -1  10   -1.90    3.20
  18   1  -9   59.59    6.00
  18   1  -9   86.79    7.60
 -18   1   9   83.69    7.20
 -18  -1   9   87.29    7.20
  18  -1  -9   84.29    7.40
  18  -1  -9   85.89    7.50
  18   1  -8   27.10    4.10
 -18   1   8   32.60    4.40
  18   1  -8   28.70    3.70
 -18  -1   8   25.50    4.20
  18  -1  -8   36.20    4.80
  18  -1  -8   27.70    4.30
  18   1  -7    2.90    2.80
 -18   1   7    4.30    2.80
  18  -1  -7    6.40    3.20
 -18  -1   7    8.10    2.90
  18   1  -6    8.20    2.90
 -18   1   6   11.60    3.00
 -18  -1   6   13.10    3.20
  18  -1  -6    8.90    3.20
 -18   1   5   37.90    4.40
  18   1  -5   33.80    4.00
 -18  -1   5   35.80    4.60
  18  -1  -5   31.30    4.20
 -18  -1   5   27.50    4.10
 -18   1   4    6.90    2.80
 -18   1   4    5.00    2.50
 -18  -1   4    4.40    2.90
 -18  -1   4    5.90    2.70
 -18  -1   4    5.20    2.20
 -18   1   3   58.79    4.00
 -18   1   3   73.09    5.60
 -18   1   3   66.09    6.80
 -18   1   3   57.49    5.80
 -18  -1   3   62.99    6.40
 -18  -1   3   71.89    5.50
 -18  -1   3   65.39    6.00
 -18   1   2   25.50    3.00
 -18   1   2   27.40    3.40
 -18   1   2   21.50    4.40
 -18   1   2   28.30    3.80
 -18  -1   2   27.10    3.90
 -18  -1   2   24.40    4.50
 -18  -1   2   20.50    3.20
 -18   1   1   -2.00    1.90
 -18   1   1   -4.90    2.30
 -18   1   1   -0.90    3.40
 -18  -1   1   -3.00    2.30
 -18  -1   1   -1.00    3.60
 -18   1   0   95.09    8.60
 -18   1   0   86.99    6.70
 -18  -1   0   94.79    6.60
 -18  -1   0   88.29    8.40
 -18   1  -1    1.50    2.60
 -18   1  -1    1.40    3.90
 -18  -1  -1    1.50    4.00
 -18  -1  -1   -1.10    2.40
 -18   1  -2   23.90    3.70
 -18   1  -2   35.00    5.70
 -18  -1  -2   28.20    3.60
 -18  -1  -2   35.60    5.50
 -18   1  -3    3.60    4.10
 -18   1  -3   -0.80    2.70
 -18  -1  -3    0.40    3.40
 -18  -1  -3    1.70    2.60
 -18  -1  -3    0.80    4.50
 -18   1  -4   16.50    5.00
 -18   1  -4   11.20    3.30
 -18  -1  -4   18.40    5.10
 -18  -1  -4   15.00    4.20
 -18  -1  -4   15.50    3.30
 -18   1  -5  119.29    8.10
 -18   1  -5  115.19   10.40
 -18  -1  -5  106.29    8.70
 -18  -1  -5   93.09    7.80
 -18  -1  -5  101.99   10.70
 -18   1  -6    7.20    3.40
 -18   1  -6    5.70    4.60
 -18  -1  -6   -0.20    3.30
 -18  -1  -6    6.60    5.50
 -18  -1  -6    4.50    4.20
 -18   1  -7   10.20    5.10
 -18   1  -7    6.90    3.50
 -18  -1  -7    4.50    3.30
 -18  -1  -7   10.60    5.60
 -18  -1  -7    5.70    4.50
 -18   1  -8    0.10    3.60
 -18   1  -8    6.30    4.60
 -18   1  -8   10.80    5.00
 -18  -1  -8    6.60    3.50
 -18  -1  -8    2.90    4.40
 -18  -1  -8   10.10    5.70
 -18   1  -9    4.80    4.90
 -18   1  -9    5.20    4.60
 -18   1  -9   -5.10    3.10
 -18  -1  -9    4.00    3.40
 -18  -1  -9   -1.70    5.00
 -18  -1  -9    5.60    4.80
 -18   2  11    8.70    3.40
  18   2 -11    7.80    3.70
  18  -2 -11    5.80    4.10
 -18  -2  11   10.00    3.60
  18  -2 -11   -1.70    4.30
 -18   2  10   13.20    3.70
  18   2 -10   13.50    3.90
  18  -2 -10   13.80    4.70
 -18  -2  10   16.00    3.90
  18  -2 -10   17.00    4.20
  18   2  -9   10.20    3.60
 -18   2   9   11.70    3.40
  18  -2  -9    6.10    3.70
 -18  -2   9    5.30    3.30
  18  -2  -9   11.70    4.20
 -18   2   8   -1.30    2.70
  18   2  -8    0.10    3.00
  18  -2  -8   -4.50    3.00
  18  -2  -8    2.40    3.80
 -18  -2   8   -1.30    2.80
 -18   2   7    3.60    2.80
  18   2  -7    1.80    2.70
  18  -2  -7    0.60    3.00
 -18  -2   7    0.80    2.80
 -18   2   6   37.00    4.30
  18   2  -6   24.60    3.70
  18  -2  -6   27.20    4.20
 -18  -2   6   26.60    4.00
  18   2  -5    2.60    2.50
 -18   2   5    0.40    2.60
 -18  -2   5    2.10    3.10
  18  -2  -5   -2.60    2.80
 -18  -2   5    4.90    2.60
 -18   2   4    4.60    2.50
 -18   2   4    3.70    2.80
 -18  -2   4    7.00    3.00
 -18  -2   4    8.00    3.00
 -18  -2   4    6.80    2.30
 -18   2   3    3.50    2.70
 -18   2   3    4.20    1.60
 -18  -2   3    2.70    2.10
 -18  -2   3    2.60    3.20
 -18   2   2   49.10    5.50
 -18   2   2   60.99    5.40
 -18   2   2   50.19    4.20
 -18   2   2   55.49    6.60
 -18  -2   2   50.39    4.80
 -18  -2   2   55.59    6.70
 -18  -2   2   53.89    5.80
 -18   2   1   57.29    4.70
 -18   2   1   59.59    7.10
 -18   2   1   62.69    5.80
 -18  -2   1   63.99    7.60
 -18  -2   1   60.69    5.20
 -18   2   0  124.49   10.00
 -18   2   0  124.29    7.80
 -18   2   0  115.99    8.30
 -18  -2   0  136.79    8.20
 -18  -2   0  120.49   10.30
 -18   2  -1   30.40    3.80
 -18   2  -1   29.50    3.80
 -18   2  -1   27.30    5.30
 -18  -2  -1   32.80    3.60
 -18  -2  -1   32.10    6.10
 -18   2  -2   70.79    8.20
 -18   2  -2   63.89    5.90
 -18  -2  -2   58.49    6.60
 -18  -2  -2   65.49    5.70
 -18  -2  -2   59.39    7.80
 -18   2  -3    3.80    2.90
 -18   2  -3    4.30    4.40
 -18  -2  -3    6.50    5.60
 -18  -2  -3    7.30    2.80
 -18  -2  -3    7.90    3.70
 -18   2  -4  142.89   11.50
 -18   2  -4  149.88    9.80
 -18  -2  -4  151.98    9.60
 -18  -2  -4  174.48   10.80
 -18  -2  -4  132.49   12.10
 -18   2  -5    6.70    3.30
 -18   2  -5    9.70    4.50
 -18  -2  -5    7.60    4.00
 -18  -2  -5    1.10    3.10
 -18  -2  -5    3.60    5.30
 -18   2  -6   97.39   10.00
 -18   2  -6   96.29    7.50
 -18  -2  -6   83.39    7.60
 -18  -2  -6   82.19   11.30
 -18  -2  -6   87.59    8.50
 -18   2  -7    3.70    3.20
 -18   2  -7    5.00    4.60
 -18  -2  -7   -1.60    4.20
 -18  -2  -7    0.70    3.20
 -18  -2  -7   -3.50    6.00
 -18   2  -8   11.10    5.00
 -18   2  -8    2.80    3.50
 -18  -2  -8    6.00    3.70
 -18  -2  -8    2.70    4.70
 -18  -2  -8   -2.90    6.10
 -18   2  -9   10.40    4.20
 -18   2  -9   22.20    5.40
 -18  -2  -9   17.90    4.20
 -18  -2  -9   11.60    6.60
 -18  -2  -9   12.10    5.20
 -18   3  11    9.20    3.50
  18   3 -11    2.00    2.20
  18  -3 -11   11.30    5.10
 -18  -3  11    7.20    3.50
  18  -3 -11    3.70    4.20
  18   3 -10   13.40    3.60
 -18   3  10   12.30    3.60
  18  -3 -10   14.30    5.00
  18  -3 -10   14.20    4.40
 -18  -3  10   10.50    3.60
 -18   3   9   22.30    4.30
  18   3  -9   25.30    4.10
  18  -3  -9   22.50    5.00
 -18  -3   9   29.90    4.60
  18  -3  -9   27.40    4.70
 -18   3   8    0.20    2.80
  18   3  -8    3.90    3.00
  18  -3  -8    2.30    4.10
 -18  -3   8    1.10    3.10
  18  -3  -8    0.70    3.40
 -18   3   7    5.00    2.80
  18   3  -7    3.90    2.70
  18  -3  -7    9.50    4.70
 -18  -3   7    0.60    2.80
  18  -3  -7   -0.60    3.20
 -18   3   6   68.79    6.20
  18   3  -6   80.39    6.20
  18  -3  -6   70.79    7.00
 -18  -3   6   68.79    6.80
  18   3  -5   -1.20    2.30
 -18   3   5   -1.30    2.50
  18  -3  -5   -0.10    3.20
 -18  -3   5    1.10    2.80
 -18  -3   5    5.00    2.50
 -18   3   4   61.39    5.50
  18   3  -4   68.69    5.70
 -18   3   4   60.19    6.20
  18  -3  -4   64.59    6.60
 -18  -3   4   69.99    6.40
 -18  -3   4   58.19    6.20
 -18   3   3   50.39    4.30
 -18   3   3   49.10    4.70
 -18   3   3   53.39    5.70
 -18  -3   3   54.69    4.80
 -18  -3   3   60.49    6.90
 -18  -3   3   58.59    5.50
 -18   3   2  235.38   13.50
 -18   3   2  252.57   13.60
 -18   3   2  226.08   12.80
 -18  -3   2  221.78   13.00
 -18  -3   2  233.68   15.00
 -18  -3   2  240.08   13.90
 -18   3   1    3.70    2.80
 -18   3   1    0.80    2.10
 -18   3   1    0.00    2.50
 -18  -3   1    3.10    4.60
 -18  -3   1   -2.30    2.20
 -18  -3   1    2.20    2.90
 -18   3   0  382.86   19.90
 -18   3   0  349.47   19.40
 -18   3   0  347.67   21.40
 -18  -3   0  341.17   21.40
 -18  -3   0  392.46   19.50
 -18   3  -1    4.10    2.80
 -18   3  -1    3.90    2.70
 -18   3  -1    5.20    4.20
 -18  -3  -1    1.90    2.50
 -18  -3  -1    1.30    3.40
 -18  -3  -1    4.60    5.20
 -18   3  -2    6.50    3.00
 -18   3  -2    1.60    4.10
 -18   3  -2    1.30    2.80
 -18  -3  -2   -1.70    3.40
 -18  -3  -2    1.00    5.20
 -18  -3  -2    3.30    2.60
 -18   3  -3   16.30    3.50
 -18   3  -3   14.10    3.60
 -18   3  -3   13.70    5.20
 -18  -3  -3   20.50    6.50
 -18  -3  -3   15.80    3.10
 -18  -3  -3   18.70    4.40
 -18   3  -4   -2.00    2.90
 -18   3  -4    1.40    4.30
 -18   3  -4   -0.30    3.20
 -18  -3  -4   -2.30    5.90
 -18  -3  -4   -0.90    2.70
 -18  -3  -4    4.90    4.00
 -18   3  -5   24.50    4.20
 -18   3  -5   26.50    6.00
 -18  -3  -5   29.20    5.10
 -18  -3  -5   18.60    7.00
 -18  -3  -5   16.50    3.60
 -18   3  -6   48.20    5.20
 -18   3  -6   54.19    7.70
 -18  -3  -6   38.70    5.90
 -18  -3  -6   35.80    8.00
 -18  -3  -6   37.80    4.80
 -18   3  -7    7.70    4.80
 -18   3  -7    9.00    3.60
 -18  -3  -7    3.90    4.50
 -18  -3  -7   -4.60    6.20
 -18  -3  -7    3.60    3.40
 -18   3  -8    8.10    5.10
 -18   3  -8    6.60    3.70
 -18  -3  -8   -1.10    3.40
 -18  -3  -8   -9.80    6.20
 -18  -3  -8    3.50    4.80
 -18   4  10    4.50    3.40
  18  -4 -10    0.60    3.90
 -18  -4  10    4.40    3.50
 -18   4   9   48.40    5.40
  18  -4  -9   41.70    6.50
  18  -4  -9   43.10    5.50
 -18  -4   9   38.70    5.20
 -18   4   8    0.10    3.00
  18   4  -8   -2.40    2.00
 -18  -4   8    4.80    3.10
  18  -4  -8   -2.90    3.40
  18  -4  -8    2.60    4.70
  18   4  -7    9.20    2.30
 -18   4   7   13.90    3.50
  18  -4  -7   11.20    5.10
  18  -4  -7   10.50    3.90
 -18  -4   7   15.20    3.60
 -18   4   6    1.90    2.80
  18   4  -6    3.10    2.50
  18  -4  -6    3.10    3.50
 -18  -4   6    5.30    3.10
  18   4  -5   82.09    6.10
 -18   4   5   79.49    6.80
  18  -4  -5   77.99    7.40
 -18  -4   5   84.39    7.00
  18   4  -4    2.60    2.20
 -18   4   4    1.60    2.70
 -18   4   4    4.00    2.80
 -18   4   4   -0.30    0.80
  18  -4  -4    1.40    3.20
 -18  -4   4   -2.30    2.70
 -18  -4   4    2.70    3.70
 -18   4   3   -0.60    2.60
 -18   4   3   -0.30    2.60
 -18   4   3    0.70    2.20
 -18  -4   3    3.50    4.00
 -18  -4   3    2.70    1.80
 -18  -4   3   -3.00    2.60
 -18   4   2    4.70    2.70
 -18   4   2    5.60    2.60
 -18   4   2    5.10    2.80
 -18  -4   2    0.80    2.00
 -18  -4   2    2.40    3.20
 -18  -4   2    3.00    4.60
 -18   4   1    1.90    2.70
 -18   4   1    3.90    2.90
 -18   4   1    0.90    2.60
 -18  -4   1    2.40    3.00
 -18  -4   1   -2.50    4.80
 -18  -4   1   -0.70    2.10
 -18   4   0    0.90    2.80
 -18   4   0   -2.40    2.80
 -18  -4   0   -1.90    5.00
 -18  -4   0   -1.40    2.20
 -18   4  -1   -0.30    3.10
 -18   4  -1    2.50    2.80
 -18  -4  -1    1.90    3.10
 -18  -4  -1    0.00    5.40
 -18  -4  -1    0.90    2.30
 -18   4  -2    3.20    4.00
 -18   4  -2   -1.10    2.80
 -18   4  -2    0.80    2.90
 -18  -4  -2    4.90    3.70
 -18  -4  -2   -4.30    5.60
 -18  -4  -2   -0.10    2.30
 -18   4  -3   76.99    7.10
 -18   4  -3   84.19    7.10
 -18   4  -3   90.19    8.90
 -18  -4  -3   89.79    7.50
 -18  -4  -3   73.19   10.80
 -18  -4  -3   86.49    6.60
 -18   4  -4    7.00    4.80
 -18   4  -4    9.40    3.70
 -18   4  -4    4.80    3.10
 -18  -4  -4   -3.00    5.90
 -18  -4  -4    4.90    2.80
 -18  -4  -4    8.70    4.00
 -18   4  -5   20.30    4.00
 -18   4  -5   22.90    5.50
 -18   4  -5   17.60    4.40
 -18  -4  -5   16.80    3.60
 -18  -4  -5    4.50    6.80
 -18  -4  -5   25.40    5.00
 -18   4  -6   16.20    4.60
 -18   4  -6   15.60    5.30
 -18   4  -6   19.30    3.90
 -18  -4  -6   13.30    4.90
 -18  -4  -6   -3.30    6.70
 -18  -4  -6   10.80    3.60
 -18   4  -7    7.90    5.10
 -18   4  -7   -1.00    4.00
 -18   4  -7   -2.30    3.30
 -18  -4  -7   -0.90    5.00
 -18  -4  -7  -11.90    6.80
 -18  -4  -7    3.20    3.20
 -18   5   9   -4.10    2.90
 -18  -5   9    5.30    3.80
  18  -5  -9    1.70    3.80
  18  -5  -9    0.50    5.40
  18  -5  -9    6.80    5.60
 -18   5   8   -2.10    2.80
 -18  -5   8   -1.80    3.10
  18  -5  -8   -1.70    5.10
  18  -5  -8    4.30    3.70
 -18   5   7   13.70    3.40
  18  -5  -7   12.90    5.60
 -18  -5   7   16.50    3.90
  18  -5  -7   10.20    4.10
 -18   5   6    7.30    3.10
 -18  -5   6    7.90    3.40
  18  -5  -6    3.80    5.10
  18  -5  -6   13.20    4.10
 -18   5   5   69.59    6.50
  18  -5  -5   79.79    7.50
 -18  -5   5   81.79    7.20
 -18   5   4   10.20    3.00
 -18  -5   4    9.80    3.50
  18  -5  -4    9.90    3.80
 -18   5   3   14.10    3.20
 -18   5   3   11.10    3.30
 -18   5   3   14.30    3.00
 -18  -5   3   17.00    3.70
 -18  -5   3   12.00    5.00
 -18   5   2   10.30    3.30
 -18   5   2    5.00    2.90
 -18   5   2    8.10    3.20
 -18  -5   2    3.60    4.80
 -18  -5   2    3.30    3.50
 -18   5   1    4.60    3.00
 -18   5   1    6.10    3.10
 -18   5   1    1.30    2.80
 -18  -5   1    1.90    3.20
 -18  -5   1    1.70    1.50
 -18  -5   1    0.10    5.30
 -18   5   0  109.69    7.80
 -18   5   0   94.69    7.60
 -18  -5   0  101.49    7.70
 -18  -5   0   79.49   10.30
 -18  -5   0  104.19    8.10
 -18  -5   0  101.09    6.70
 -18   5  -1    0.10    2.90
 -18   5  -1   -1.20    3.00
 -18  -5  -1   -3.20    5.40
 -18  -5  -1    1.80    3.50
 -18  -5  -1   -0.60    2.30
 -18   5  -2    1.50    3.10
 -18   5  -2   -0.80    3.10
 -18  -5  -2   -8.60    5.80
 -18  -5  -2    1.80    3.60
 -18  -5  -2    2.60    2.50
 -18   5  -3   77.29    7.40
 -18   5  -3   74.49    7.00
 -18  -5  -3   84.19   10.50
 -18  -5  -3   84.89    6.40
 -18  -5  -3   79.39    7.80
 -18   5  -4    4.30    3.40
 -18   5  -4   10.40    3.80
 -18  -5  -4    7.70    3.00
 -18  -5  -4   13.70    4.40
 -18  -5  -4   -1.00    6.70
 -18   5  -5   19.10    4.80
 -18   5  -5   14.50    3.70
 -18  -5  -5   -0.50    7.50
 -18  -5  -5   17.20    5.10
 -18  -5  -5   13.90    3.70
 -18   5  -6   13.60    4.60
 -18   5  -6   12.20    4.00
 -18  -5  -6   13.40    3.60
 -18  -5  -6   13.60    5.20
 -18  -5  -6   -5.90    7.30
 -18   6   7    0.00    1.30
 -18  -6   7    6.20    3.60
  18  -6  -7    1.70    4.00
  18  -6  -7    4.70    5.90
 -18   6   6   10.40    2.80
  18  -6  -6   23.40    6.70
 -18  -6   6   22.80    4.20
  18  -6  -6   16.10    4.40
 -18   6   5    4.10    2.80
 -18  -6   5   10.50    3.60
  18  -6  -5    8.20    4.20
 -18   6   4   -1.60    1.20
 -18   6   4   -4.10    2.40
 -18  -6   4    1.60    3.10
  18  -6  -4   -6.00    3.50
 -18   6   3   25.60    4.30
 -18   6   3   20.50    3.80
 -18   6   3   26.40    3.70
 -18  -6   3   27.40    4.30
  18  -6  -3   25.10    4.90
 -18   6   2   75.99    6.40
 -18   6   2   76.79    7.20
 -18   6   2   70.99    6.70
 -18  -6   2   71.59    8.50
 -18  -6   2   87.79    7.60
 -18   6   1    3.60    3.20
 -18   6   1   -3.70    3.20
 -18   6   1    6.10    2.80
 -18  -6   1   -1.00    3.30
 -18  -6   1   -7.70    5.20
 -18   6   0    3.90    3.20
 -18   6   0    1.20    2.70
 -18   6   0    5.80    3.50
 -18  -6   0   -5.70    5.20
 -18  -6   0    0.40    3.40
 -18   6  -1    5.20    3.50
 -18   6  -1   -0.60    3.10
 -18  -6  -1    9.20    4.00
 -18  -6  -1  -11.00    5.90
 -18   6  -2   60.69    6.80
 -18   6  -2   50.39    5.50
 -18  -6  -2   55.69    5.80
 -18  -6  -2   46.10    8.60
 -18   6  -3   34.80    5.30
 -18   6  -3   30.20    4.70
 -18  -6  -3   30.50    5.20
 -18  -6  -3   18.20    8.00
 -18   6  -4  161.58   11.60
 -18   6  -4  175.18   11.30
 -18  -6  -4  188.18   12.00
 -18  -6  -4  141.39   15.20
 -18   6  -5   -1.30    3.70
 -18   6  -5    0.40    3.40
 -18  -6  -5  -14.50    6.80
 -18  -6  -5    2.50    4.60
  18  -7  -5    5.50    6.00
 -18  -7   5    3.80    3.40
  18  -7  -5    0.90    3.90
 -18  -7   4    0.90    3.20
  18  -7  -4   -3.10    3.70
 -18  -7   3   21.30    4.10
  18  -7  -3   11.20    4.30
 -18   7   2   -0.50    3.20
 -18   7   2    1.60    3.50
  18  -7  -2    1.40    3.70
 -18  -7   2    1.70    3.30
 -18  -7   2  -10.20    5.10
 -18   7   1   -4.40    3.00
 -18   7   1   -0.90    3.50
 -18  -7   1  -13.10    5.90
 -18  -7   1    2.70    3.40
 -18   7   0   71.09    6.70
 -18   7   0   59.69    7.40
 -18  -7   0   57.19    9.20
 -18  -7   0   67.09    7.20
 -18   7  -1   44.10    5.20
 -18   7  -1   40.00    6.00
 -18  -7  -1   51.39    5.70
 -18  -7  -1   31.20    8.30
 -18   7  -2   17.60    4.20
 -18   7  -2   27.80    5.20
 -18  -7  -2   -0.80    7.00
 -18   7  -3    4.70    4.20
 -18   7  -3   -1.10    3.70
 -18  -7  -3   -0.20    3.90
 -18  -7  -3  -18.00    7.00
  19   0 -11    5.60    4.00
 -19   0  11    1.30    3.50
 -19   0  10  278.17   16.50
 -19   0   9    0.40    2.90
  19   0  -9    2.70    3.40
  19   0  -9   -6.70    2.70
 -19   0   8   31.00    4.40
  19   0  -8   34.00    4.60
  19   0  -8   37.20    4.70
  19   0  -7   -1.10    2.90
 -19   0   7    2.40    2.70
  19   0  -6   30.00    4.10
 -19   0   6   32.50    4.30
  19   0  -5   -0.50    2.70
 -19   0   5   -1.00    2.60
 -19   0   4  302.77   16.40
 -19   0   4  303.07   17.20
 -19   0   4  288.97   16.80
 -19   0   3    1.00    2.60
 -19   0   3    2.60    3.20
 -19   0   3   -0.70    2.30
 -19   0   2   49.99    4.60
 -19   0   2   49.10    6.70
 -19   0   2   49.40    5.00
 -19   0   1    0.60    3.60
 -19   0   1   -3.10    2.40
 -19   0   0   29.30    5.30
 -19   0   0   32.20    3.90
 -19   0  -1   -0.70    2.50
 -19   0  -1    0.20    4.00
 -19   0  -2  199.48   14.10
 -19   0  -2  201.78   11.90
 -19   0  -3   -1.20    2.60
 -19   0  -3    2.00    3.90
 -19   0  -4   55.79    5.20
 -19   0  -4   48.80    6.90
 -19   0  -5    2.00    4.40
 -19   0  -5   -1.60    2.80
 -19   0  -6   36.90    4.70
 -19   0  -6   34.80    6.30
 -19   0  -6   35.80    5.50
 -19   0  -7   -2.70    3.20
 -19   0  -7    3.10    4.60
 -19   0  -7    1.10    4.40
 -19   0  -8    3.50    4.00
 -19   0  -8   -6.90    3.30
 -19   0  -8    1.80    4.80
 -19   1  11    1.80    3.10
  19   1 -11   -0.50    3.70
  19  -1 -11   -0.10    4.00
 -19  -1  11    3.70    3.30
  19  -1 -11   -0.90    3.50
 -19   1  10    2.90    3.40
  19   1 -10    0.90    3.60
 -19  -1  10    3.00    3.30
  19  -1 -10    3.40    3.20
  19  -1 -10   -0.50    3.60
  19   1  -9   59.59    5.90
 -19   1   9   62.29    6.70
  19  -1  -9   56.99    6.10
 -19  -1   9   66.49    6.60
  19  -1  -9   65.69    7.00
  19   1  -8    2.60    3.20
  19   1  -8   -5.90    2.00
 -19   1   8   -1.80    2.70
  19  -1  -8   -1.60    3.10
 -19  -1   8   -2.10    2.60
  19  -1  -8    0.20    3.50
  19   1  -7   52.39    5.20
 -19   1   7   54.69    5.50
 -19  -1   7   55.29    5.90
  19  -1  -7   59.29    5.70
 -19   1   6   20.70    3.70
  19   1  -6   17.50    3.50
  19  -1  -6   23.50    3.90
 -19  -1   6   16.80    3.60
 -19   1   5    2.10    2.80
  19   1  -5    0.90    2.60
 -19  -1   5   -0.50    2.70
 -19  -1   5    5.00    2.70
  19  -1  -5   -3.50    2.80
 -19   1   4   40.10    4.30
 -19   1   4   51.39    5.10
 -19  -1   4   52.89    5.70
 -19  -1   4   49.99    4.80
 -19  -1   4   44.90    4.90
 -19   1   3   13.90    3.00
 -19   1   3   16.50    3.40
 -19   1   3   18.00    4.10
 -19  -1   3   16.40    3.60
 -19  -1   3   16.50    4.00
 -19  -1   3   14.70    2.90
 -19   1   2  104.19    8.30
 -19   1   2   89.49    7.40
 -19   1   2   99.09    7.10
 -19   1   2   94.19    5.90
 -19  -1   2   92.89    8.30
 -19  -1   2   91.99    7.40
 -19  -1   2   96.79    6.80
 -19   1   1    9.50    2.30
 -19   1   1   11.60    4.20
 -19   1   1    5.70    2.70
 -19  -1   1    9.30    2.70
 -19  -1   1   11.00    4.10
 -19   1   0    3.30    2.60
 -19   1   0    6.90    4.00
 -19  -1   0    2.30    3.90
 -19  -1   0    3.20    2.60
 -19   1  -1   85.49    8.80
 -19   1  -1   89.19    6.80
 -19  -1  -1   79.19    8.70
 -19  -1  -1   84.69    6.70
 -19   1  -2   11.40    4.60
 -19   1  -2    6.20    2.80
 -19  -1  -2    9.00    4.70
 -19  -1  -2    8.10    2.90
 -19   1  -3    2.20    2.80
 -19   1  -3    3.40    4.30
 -19  -1  -3    2.90    2.80
 -19  -1  -3    5.30    5.00
 -19   1  -4   10.10    3.30
 -19   1  -4   11.00    4.90
 -19  -1  -4   14.20    5.50
 -19  -1  -4    8.70    3.10
 -19  -1  -4    8.40    3.90
 -19   1  -5  117.99    8.60
 -19   1  -5  133.89   11.10
 -19  -1  -5  124.09   11.50
 -19  -1  -5  108.09    9.20
 -19  -1  -5  112.29    8.50
 -19   1  -6    2.60    4.50
 -19   1  -6   -2.70    3.10
 -19  -1  -6    3.50    4.60
 -19  -1  -6   -2.00    3.00
 -19  -1  -6    3.60    4.30
 -19   1  -7    2.20    3.30
 -19   1  -7   13.40    5.30
 -19  -1  -7    9.60    5.60
 -19  -1  -7   -0.10    3.40
 -19  -1  -7    3.70    4.50
 -19   1  -8    3.20    3.60
 -19   1  -8   13.40    5.30
 -19  -1  -8   10.20    5.80
 -19  -1  -8    6.30    5.00
 -19  -1  -8   11.20    4.00
  19   2 -11   57.89    6.00
  19  -2 -11   51.29    6.40
 -19   2  10   18.80    4.00
  19   2 -10   27.90    4.60
 -19  -2  10   21.10    4.20
  19  -2 -10   16.90    4.30
  19  -2 -10   22.40    4.80
 -19   2   9   36.40    5.00
  19   2  -9   47.20    5.10
  19  -2  -9   44.00    5.80
 -19  -2   9   44.50    5.20
  19  -2  -9   40.70    5.40
 -19   2   8   21.70    3.90
  19   2  -8   23.10    3.90
  19  -2  -8   26.50    4.60
 -19  -2   8   19.60    3.80
  19  -2  -8   21.30    4.80
 -19   2   7  132.49    9.40
  19   2  -7  137.29    9.40
  19  -2  -7  157.68   10.00
 -19  -2   7  130.79    9.40
 -19   2   6    2.00    2.70
  19   2  -6    3.90    2.70
 -19  -2   6   -2.10    2.80
  19  -2  -6   -2.30    2.90
 -19   2   5  110.29    8.20
  19   2  -5  119.99    8.10
 -19  -2   5  118.39    8.10
  19  -2  -5  116.19    8.60
 -19  -2   5  113.19    8.60
 -19   2   4    0.10    2.50
 -19   2   4   -0.60    2.70
 -19  -2   4    2.50    2.90
 -19  -2   4    1.00    2.90
 -19  -2   4   -1.50    2.00
 -19   2   3   33.10    4.00
 -19  -2   3   32.50    4.80
 -19  -2   3   31.20    3.50
 -19   2   2    0.90    3.50
 -19   2   2    2.40    2.60
 -19   2   2    0.10    2.80
 -19   2   2    0.50    1.70
 -19  -2   2   -3.30    2.30
 -19  -2   2   -1.60    2.90
 -19  -2   2    0.60    3.20
 -19   2   1  432.66   23.10
 -19   2   1  439.06   25.10
 -19   2   1  442.66   23.70
 -19  -2   1  435.06   25.00
 -19  -2   1  462.15   23.50
 -19   2   0  525.75   28.70
 -19   2   0  511.15   27.00
 -19   2   0  453.35   26.50
 -19  -2   0  511.45   28.60
 -19  -2   0  555.54   26.90
 -19   2  -1  550.94   29.20
 -19   2  -1  566.44   29.10
 -19   2  -1  560.04   31.00
 -19  -2  -1  527.45   30.90
 -19  -2  -1  563.04   29.10
 -19   2  -2   46.30    6.90
 -19   2  -2   54.19    5.00
 -19  -2  -2   52.29    7.30
 -19  -2  -2   45.40    4.60
 -19   2  -3  331.87   19.50
 -19   2  -3  296.27   17.00
 -19  -2  -3  286.87   17.20
 -19  -2  -3  293.67   19.70
 -19  -2  -3  303.47   16.80
 -19   2  -4   54.49    5.60
 -19   2  -4   77.29    9.00
 -19  -2  -4   69.39    9.90
 -19  -2  -4   62.49    6.10
 -19  -2  -4   75.29    7.30
 -19   2  -5   27.20    6.00
 -19   2  -5   16.00    3.60
 -19  -2  -5   23.40    3.90
 -19  -2  -5   20.80    6.80
 -19  -2  -5   23.20    5.00
 -19   2  -6    9.10    4.60
 -19   2  -6    4.90    3.30
 -19  -2  -6    2.30    3.20
 -19  -2  -6    4.90    6.30
 -19  -2  -6    7.00    4.70
 -19   2  -7   83.19    9.40
 -19   2  -7   50.49    5.50
 -19  -2  -7   61.29    9.00
 -19  -2  -7   55.29    7.00
 -19  -2  -7   48.70    5.70
 -19   2  -8    0.40    3.50
 -19   2  -8    6.40    5.00
 -19  -2  -8    0.70    5.00
 -19  -2  -8    0.10    6.00
 -19  -2  -8    1.80    3.50
 -19   3  10    1.00    3.10
  19   3 -10    3.90    3.10
  19  -3 -10    5.30    4.00
  19  -3 -10    2.20    4.30
 -19  -3  10   -1.80    3.20
 -19   3   9   70.39    6.90
  19   3  -9   83.59    7.30
  19  -3  -9   72.79    7.30
  19  -3  -9   71.59    7.60
 -19  -3   9   70.29    7.10
  19   3  -8   -0.60    3.00
 -19   3   8    2.10    2.90
 -19  -3   8   -1.70    3.00
  19  -3  -8    5.30    4.70
  19  -3  -8    0.40    3.30
 -19   3   7    0.20    2.70
  19   3  -7    1.10    2.80
  19  -3  -7   -5.90    4.30
 -19  -3   7   -0.70    2.80
  19  -3  -7    0.50    3.10
 -19   3   6    1.80    2.60
  19   3  -6    2.30    2.50
 -19  -3   6   -0.80    2.80
  19  -3  -6    0.30    3.10
  19   3  -5  124.29    8.10
 -19   3   5  118.99    8.60
  19  -3  -5  122.19    9.00
 -19  -3   5  116.59    8.70
 -19   3   4    7.40    2.90
 -19   3   4   15.20    3.40
  19   3  -4    8.70    2.90
  19  -3  -4   13.30    3.60
 -19  -3   4   15.00    3.50
 -19  -3   4   12.60    3.40
 -19  -3   4   11.10    2.40
 -19   3   3  120.49    8.60
 -19   3   3  129.59    8.80
 -19  -3   3  132.09    8.00
 -19  -3   3  130.09    9.60
 -19  -3   3  116.79    8.90
 -19   3   2   24.60    3.80
 -19   3   2   19.30    2.70
 -19   3   2   16.60    3.40
 -19  -3   2   12.50    2.80
 -19  -3   2   20.50    3.80
 -19  -3   2   22.80    4.90
 -19   3   1   44.70    4.50
 -19   3   1   43.10    4.70
 -19   3   1   44.30    4.60
 -19  -3   1   46.80    5.10
 -19  -3   1   47.10    4.80
 -19  -3   1   45.20    6.60
 -19   3   0   13.00    4.60
 -19   3   0   15.20    3.30
 -19   3   0   11.90    2.90
 -19  -3   0   14.80    5.50
 -19  -3   0   18.30    3.00
 -19   3  -1   12.60    4.30
 -19   3  -1    8.70    3.30
 -19   3  -1   11.50    3.10
 -19  -3  -1   13.10    2.90
 -19  -3  -1   10.70    5.60
 -19   3  -2   96.59    9.40
 -19   3  -2   75.49    6.80
 -19   3  -2   88.59    7.20
 -19  -3  -2   92.39    6.90
 -19  -3  -2   91.29    7.50
 -19  -3  -2   89.19   10.40
 -19   3  -3   28.20    4.40
 -19   3  -3   31.40    6.00
 -19   3  -3   28.10    4.20
 -19  -3  -3   24.40    4.80
 -19  -3  -3   25.80    3.70
 -19  -3  -3   22.00    6.60
 -19   3  -4   37.50    6.50
 -19   3  -4   31.60    4.30
 -19   3  -4   27.40    4.60
 -19  -3  -4   30.40    4.10
 -19  -3  -4   37.20    5.30
 -19  -3  -4   24.10    7.10
 -19   3  -5   33.80    6.00
 -19   3  -5   39.50    5.50
 -19   3  -5   27.10    4.20
 -19  -3  -5   30.50    5.20
 -19  -3  -5   31.00    4.30
 -19  -3  -5   25.40    7.60
 -19   3  -6    6.90    3.50
 -19   3  -6    7.90    5.10
 -19  -3  -6    6.50    4.60
 -19  -3  -6   -1.50    3.20
 -19  -3  -6    1.40    5.50
 -19   3  -7   13.70    5.30
 -19   3  -7    6.10    3.40
 -19  -3  -7   -4.60    6.60
 -19  -3  -7    6.50    3.40
 -19  -3  -7    6.20    4.80
 -19   4   9   29.10    4.50
  19  -4  -9   30.10    6.10
 -19  -4   9   28.30    4.70
  19  -4  -9   27.50    4.90
 -19   4   8    7.70    3.40
  19  -4  -8    5.70    4.10
  19  -4  -8    8.70    5.10
 -19  -4   8   11.80    3.60
 -19   4   7    9.60    3.40
  19  -4  -7    9.10    3.70
 -19  -4   7   12.20    3.50
  19  -4  -7   10.30    5.20
  19   4  -6   12.00    2.50
 -19   4   6   11.00    3.20
  19  -4  -6   16.30    4.30
 -19  -4   6   10.30    3.50
 -19   4   5   41.30    4.80
  19   4  -5   44.70    4.30
 -19  -4   5   46.40    5.10
  19  -4  -5   47.60    5.60
 -19   4   4   27.40    4.10
 -19   4   4   26.10    3.90
  19   4  -4   29.90    3.40
  19  -4  -4   28.70    4.40
 -19  -4   4   23.90    4.10
 -19  -4   4   27.00    4.60
 -19   4   3   -0.10    2.70
 -19   4   3    0.40    1.00
 -19   4   3    0.00    2.80
 -19  -4   3    3.80    4.20
 -19  -4   3    4.30    3.10
 -19  -4   3    2.30    2.00
 -19   4   2    3.20    2.60
 -19   4   2    5.10    2.80
 -19   4   2    2.60    2.80
 -19  -4   2    4.10    4.60
 -19  -4   2   -1.40    2.90
 -19  -4   2   -3.20    2.00
 -19   4   1   32.60    4.20
 -19   4   1   24.90    3.80
 -19   4   1   22.80    3.50
 -19  -4   1   19.60    5.90
 -19  -4   1   27.50    4.40
 -19  -4   1   29.40    3.30
 -19   4   0    5.90    2.90
 -19   4   0    2.70    3.10
 -19  -4   0    5.30    2.50
 -19  -4   0    1.90    5.20
 -19   4  -1   48.90    5.00
 -19   4  -1   39.10    4.60
 -19  -4  -1   45.10    4.20
 -19  -4  -1   41.90    5.10
 -19  -4  -1   33.30    7.30
 -19   4  -2    2.80    3.20
 -19   4  -2   -0.60    2.90
 -19  -4  -2   -1.90    3.70
 -19  -4  -2   -5.70    5.50
 -19  -4  -2    0.20    2.40
 -19   4  -3    0.80    3.10
 -19   4  -3    2.40    4.30
 -19   4  -3    3.60    3.10
 -19  -4  -3   -4.30    5.70
 -19  -4  -3   -1.60    2.50
 -19  -4  -3    2.10    4.00
 -19   4  -4    0.90    3.30
 -19   4  -4    2.20    3.10
 -19   4  -4    3.40    4.60
 -19  -4  -4   19.90    4.50
 -19  -4  -4   -1.20    2.80
 -19  -4  -4   -9.90    5.10
 -19   4  -5   20.60    5.80
 -19   4  -5   19.20    4.50
 -19   4  -5   14.30    3.70
 -19  -4  -5   17.10    3.70
 -19  -4  -5    8.30    7.30
 -19  -4  -5   17.80    4.90
 -19   4  -6    2.20    3.90
 -19   4  -6    9.90    5.10
 -19   4  -6    5.10    3.30
 -19  -4  -6  -14.80    6.30
 -19  -4  -6    4.20    4.70
 -19  -4  -6   -1.90    3.00
 -19   4  -7   38.00    7.00
 -19   4  -7   26.60    4.50
 -19   4  -7   24.10    5.40
 -19  -4  -7    9.70    8.00
 -19  -4  -7   28.10    4.50
 -19  -4  -7   32.90    6.00
 -19   5   8   -1.60    2.90
 -19  -5   8   -0.90    3.30
  19  -5  -8   -3.10    3.60
  19  -5  -8    2.50    5.40
 -19   5   7    7.60    3.20
  19  -5  -7   10.50    4.10
 -19  -5   7    5.80    3.70
  19  -5  -7   19.10    6.00
 -19   5   6   18.40    3.80
  19  -5  -6   17.20    4.40
 -19  -5   6   17.70    4.00
  19  -5  -6   19.70    6.00
 -19   5   5    0.40    2.70
 -19  -5   5    5.60    3.20
  19  -5  -5   -0.80    3.50
 -19   5   4   17.30    3.50
  19  -5  -4   16.00    4.10
 -19  -5   4   23.40    4.30
 -19   5   3   20.40    3.70
 -19   5   3   17.00    3.80
 -19  -5   3   18.70    4.00
 -19  -5   3   12.00    5.10
 -19   5   2    1.10    2.90
 -19   5   2    0.70    2.70
 -19   5   2   -2.40    3.00
 -19  -5   2   -6.70    5.00
 -19  -5   2   -0.50    3.30
 -19   5   1    4.30    3.20
 -19   5   1    0.50    3.00
 -19   5   1   -1.20    2.90
 -19  -5   1   -0.80    0.80
 -19  -5   1   -7.30    4.80
 -19  -5   1    2.60    3.40
 -19   5   0    8.40    3.40
 -19   5   0    5.70    3.10
 -19   5   0    8.30    3.40
 -19  -5   0   11.30    3.80
 -19  -5   0    2.70    1.40
 -19  -5   0   -1.00    5.40
 -19   5  -1    5.20    3.50
 -19   5  -1    1.40    3.00
 -19  -5  -1    4.00    2.40
 -19  -5  -1    1.40    3.60
 -19  -5  -1  -11.50    5.60
 -19   5  -2    6.90    3.70
 -19   5  -2    9.80    3.60
 -19  -5  -2    9.20    2.90
 -19  -5  -2   -3.30    6.60
 -19  -5  -2   12.30    4.30
 -19   5  -3   11.40    3.70
 -19   5  -3   15.50    4.00
 -19  -5  -3   21.70    4.50
 -19  -5  -3   17.60    3.20
 -19  -5  -3    0.60    6.60
 -19   5  -4    2.90    3.40
 -19   5  -4    4.10    3.60
 -19  -5  -4    1.20    2.90
 -19  -5  -4    8.00    4.40
 -19  -5  -4  -13.20    6.00
 -19   5  -5   -2.60    3.20
 -19   5  -5   -1.00    3.80
 -19  -5  -5  -12.30    6.80
 -19  -5  -5    2.10    3.00
 -19  -5  -5    2.40    4.30
 -19   5  -6   13.00    4.80
 -19   5  -6   16.40    4.10
 -19  -5  -6   -7.60    7.40
 -19  -5  -6   14.00    5.10
 -19  -5  -6    8.30    3.50
  19  -6  -7   25.10    5.00
 -19  -6   7   23.30    4.60
 -19  -6   6   15.50    4.20
  19  -6  -6   25.30    6.60
  19  -6  -6   18.70    4.50
 -19   6   5   -0.20    1.90
 -19  -6   5    3.20    3.50
  19  -6  -5    0.80    3.80
 -19   6   4   12.60    3.20
  19  -6  -4   20.20    4.60
 -19  -6   4   22.20    4.30
 -19   6   3    1.00    2.80
 -19   6   3   -0.40    1.20
 -19   6   3    1.50    3.00
  19  -6  -3    7.80    3.90
 -19  -6   3    7.00    3.70
 -19   6   2   37.50    4.90
 -19   6   2   39.80    4.60
 -19   6   2   28.30    4.40
 -19  -6   2   47.40    5.50
 -19  -6   2   37.00    7.30
 -19   6   1   35.30    4.40
 -19   6   1   31.70    4.80
 -19   6   1   37.00    4.80
 -19  -6   1   24.70    7.10
 -19  -6   1   32.50    5.20
 -19   6   0   77.19    7.50
 -19   6   0   84.19    7.00
 -19   6   0   57.79    6.30
 -19  -6   0   58.29    8.90
 -19  -6   0   81.59    7.70
 -19   6  -1   13.50    3.90
 -19   6  -1   16.90    4.00
 -19  -6  -1    1.90    3.00
 -19  -6  -1    2.40    6.40
 -19   6  -2    9.20    3.70
 -19   6  -2    5.70    3.90
 -19  -6  -2    6.30    4.30
 -19  -6  -2   -8.60    6.20
 -19   6  -3    4.70    3.40
 -19   6  -3    3.40    3.70
 -19  -6  -3  -11.80    6.70
 -19  -6  -3    7.60    4.40
 -19   6  -4   -0.70    3.40
 -19   6  -4    0.20    3.80
 -19  -6  -4    5.10    4.50
 -19  -6  -4  -15.90    6.40
 -19  -7   4   -0.30    3.40
  19  -7  -4    2.70    3.90
 -19  -7   3    2.20    3.40
  19  -7  -3   -0.80    3.90
 -19   7   2   -0.50    3.20
 -19   7   2    0.80    2.00
 -19  -7   2   -0.10    3.50
  19  -7  -2    1.70    3.70
 -19   7   1    4.10    3.80
 -19   7   1   -4.60    3.10
 -19  -7   1  -11.50    6.10
 -19  -7   1    4.50    3.60
 -19   7   0   62.19    6.10
 -19   7   0   55.99    6.80
 -19  -7   0   60.29    9.40
 -19  -7   0   72.19    6.80
 -19   7  -1    4.30    3.60
 -19   7  -1    3.30    4.20
 -19  -7  -1    1.90    3.50
 -19  -7  -1  -11.30    6.10
 -20   0  10  239.48   15.40
  20   0 -10  276.47   15.90
  20   0  -9   -5.00    2.20
  20   0  -9   -2.00    3.40
 -20   0   9    2.20    3.00
 -20   0   8   64.69    6.50
  20   0  -8   62.89    6.50
  20   0  -8   73.19    7.20
  20   0  -7    0.00    3.00
 -20   0   7    1.30    2.80
  20   0  -6   -2.50    2.90
 -20   0   6    2.40    2.90
  20   0  -5   -0.10    2.80
 -20   0   5   -0.70    2.70
 -20   0   4  102.69    7.10
 -20   0   4   97.89    8.00
 -20   0   4   97.89    7.60
 -20   0   3    1.70    3.10
 -20   0   3    1.50    2.80
 -20   0   3   -1.50    2.30
 -20   0   2   -3.40    2.30
 -20   0   2   -1.30    2.70
 -20   0   2    4.10    3.60
 -20   0   1    0.70    4.00
 -20   0   1   -3.60    2.40
 -20   0   0   41.80    6.20
 -20   0   0   51.79    4.80
 -20   0  -1    0.90    4.10
 -20   0  -1   -0.20    2.70
 -20   0  -2    9.90    4.70
 -20   0  -2    7.00    3.00
 -20   0  -3    0.10    4.50
 -20   0  -3   -3.80    2.60
 -20   0  -4    0.40    2.80
 -20   0  -4    4.00    4.70
 -20   0  -5   -1.10    3.00
 -20   0  -5    7.40    4.90
 -20   0  -6   42.70    5.10
 -20   0  -6   44.70    7.00
 -20   0  -7   -1.10    3.10
 -20   0  -7    1.40    4.20
 -20   0  -7   -1.20    4.50
 -20   0  -8   55.99    6.10
 -20   0  -8   56.69    7.30
 -20   0  -8   73.29    9.40
 -20   1  10   42.30    5.50
  20   1 -10   49.30    5.60
 -20  -1  10   46.40    5.60
  20  -1 -10   49.00    6.00
  20  -1 -10   57.59    6.00
 -20   1   9   37.50    5.00
  20   1  -9   37.80    4.90
 -20  -1   9   33.90    4.90
  20  -1  -9   39.90    5.30
  20  -1  -9   33.60    5.00
  20   1  -8  233.38   12.90
 -20   1   8  201.58   12.70
  20   1  -8  183.78   12.10
 -20  -1   8  199.58   12.80
  20  -1  -8  216.88   13.30
  20  -1  -8  213.28   13.20
 -20   1   7    5.20    3.00
  20   1  -7    9.40    3.40
 -20  -1   7    5.80    3.00
  20  -1  -7    5.40    3.40
  20   1  -6   27.20    4.00
 -20   1   6   26.90    4.20
 -20  -1   6   24.00    4.00
  20  -1  -6   25.90    4.20
  20   1  -5   10.40    3.20
 -20   1   5   12.40    3.60
  20  -1  -5   11.60    3.60
 -20  -1   5   12.30    3.30
 -20  -1   5    6.00    3.20
 -20   1   4    2.10    2.70
 -20   1   4   -0.80    2.50
 -20  -1   4    2.20    2.80
 -20  -1   4    2.80    3.10
 -20  -1   4   -0.10    2.30
 -20   1   3   -4.50    2.40
 -20   1   3    1.00    3.20
 -20   1   3    1.70    2.90
 -20  -1   3    3.20    3.40
 -20  -1   3   -4.30    2.30
 -20  -1   3    3.50    3.00
 -20   1   2   30.20    5.00
 -20   1   2   27.40    3.70
 -20   1   2   30.50    4.20
 -20  -1   2   18.30    3.40
 -20  -1   2   28.60    4.10
 -20  -1   2   31.50    4.90
 -20   1   1   -1.10    2.00
 -20   1   1   -0.60    3.80
 -20   1   1   -3.30    2.60
 -20  -1   1   -1.70    2.50
 -20  -1   1    4.50    4.00
 -20   1   0  157.18   11.70
 -20   1   0  161.78   10.10
 -20  -1   0  165.48    9.90
 -20  -1   0  153.18   11.80
 -20   1  -1    0.70    4.10
 -20   1  -1    0.70    2.70
 -20  -1  -1    1.50    4.00
 -20  -1  -1    0.90    2.60
 -20   1  -2    3.70    4.40
 -20   1  -2    2.80    2.90
 -20  -1  -2    4.10    4.50
 -20  -1  -2    5.80    3.00
 -20   1  -3    4.50    3.00
 -20   1  -3    5.40    4.50
 -20  -1  -3    3.70    4.60
 -20  -1  -3    1.00    2.70
 -20   1  -4    1.40    2.90
 -20   1  -4    5.10    4.60
 -20  -1  -4    1.40    2.80
 -20  -1  -4   -0.50    4.60
 -20   1  -5   44.40    5.10
 -20   1  -5   56.99    8.50
 -20  -1  -5   58.39    5.50
 -20  -1  -5   53.49    6.40
 -20  -1  -5   48.10    7.70
 -20   1  -6   44.10    6.80
 -20   1  -6   42.20    5.10
 -20  -1  -6   41.50    7.50
 -20  -1  -6   36.40    5.90
 -20  -1  -6   28.20    4.40
 -20   1  -7   20.80    5.70
 -20   1  -7    7.80    3.60
 -20  -1  -7   17.80    6.20
 -20  -1  -7   12.60    3.90
 -20  -1  -7   10.30    5.10
 -20   1  -8   63.39    8.60
 -20   1  -8   34.40    5.00
 -20  -1  -8   41.80    7.40
 -20  -1  -8   28.70    5.10
 -20  -1  -8   42.60    6.70
 -20   2  10  107.59    9.00
  20   2 -10  136.59    9.60
  20  -2 -10  117.49   10.00
  20  -2 -10  125.49    9.90
 -20  -2  10  110.49    9.10
  20   2  -9   18.40    3.90
 -20   2   9   15.30    3.80
  20  -2  -9   13.70    4.70
 -20  -2   9   14.50    3.80
  20  -2  -9   24.90    4.60
 -20   2   8    2.40    3.00
  20   2  -8    2.90    3.20
  20  -2  -8    1.00    4.00
 -20  -2   8    5.80    3.10
  20  -2  -8    0.40    3.40
 -20   2   7    5.30    2.90
  20   2  -7    5.70    3.00
  20  -2  -7    3.70    3.50
 -20  -2   7    6.60    3.20
  20   2  -6    5.30    3.10
 -20   2   6    7.30    3.20
  20  -2  -6    7.40    3.40
 -20  -2   6    9.80    3.50
  20   2  -5   42.00    4.30
 -20   2   5   36.80    4.70
  20  -2  -5   41.80    4.90
 -20  -2   5   29.30    4.50
 -20  -2   5   49.50    5.20
 -20   2   4   33.90    4.50
 -20   2   4   39.50    4.40
 -20  -2   4   36.50    4.90
 -20  -2   4   37.30    5.10
 -20  -2   4   32.40    3.70
 -20   2   3    5.00    2.90
 -20   2   3   -1.00    2.60
 -20  -2   3   -0.20    2.30
 -20  -2   3    2.00    3.20
 -20   2   2    3.80    1.70
 -20   2   2   11.60    4.20
 -20   2   2   10.50    3.20
 -20   2   2   11.30    3.40
 -20  -2   2    4.20    2.60
 -20  -2   2    6.60    3.20
 -20  -2   2    9.30    3.90
 -20   2   1    5.40    3.10
 -20   2   1   10.70    2.50
 -20   2   1   12.10    4.30
 -20  -2   1    7.50    3.20
 -20  -2   1    5.70    2.70
 -20  -2   1   12.60    4.40
 -20   2   0   92.59    6.80
 -20   2   0   99.99    7.60
 -20   2   0  108.29    9.40
 -20  -2   0  101.79    7.40
 -20  -2   0  100.59    9.50
 -20   2  -1   11.10    4.50
 -20   2  -1   10.20    2.90
 -20   2  -1   11.20    3.20
 -20  -2  -1   12.70    3.10
 -20  -2  -1   10.70    5.10
 -20   2  -2  261.77   16.90
 -20   2  -2  246.68   14.60
 -20  -2  -2  248.48   17.00
 -20  -2  -2  251.67   14.50
 -20   2  -3  161.68   12.70
 -20   2  -3  158.08   10.30
 -20  -2  -3  160.58   10.10
 -20  -2  -3  156.78   10.80
 -20  -2  -3  166.28   13.70
 -20   2  -4   10.50    5.00
 -20   2  -4    5.20    3.30
 -20  -2  -4    6.50    5.70
 -20  -2  -4    4.80    3.00
 -20  -2  -4    6.60    4.00
 -20   2  -5   -2.40    3.10
 -20   2  -5    4.30    5.00
 -20  -2  -5    0.80    6.00
 -20  -2  -5   -1.50    3.00
 -20  -2  -5   -5.70    4.10
 -20   2  -6   13.10    5.20
 -20   2  -6    8.40    3.40
 -20  -2  -6    9.90    6.70
 -20  -2  -6    5.80    4.80
 -20  -2  -6    7.50    3.50
 -20   2  -7   16.30    5.80
 -20   2  -7   14.30    4.00
 -20  -2  -7   13.80    4.00
 -20  -2  -7   12.60    6.60
 -20  -2  -7    8.50    5.20
  20   3  -9   -2.10    3.30
 -20   3   9    1.90    3.00
  20  -3  -9    1.30    4.30
 -20  -3   9    5.20    3.30
  20  -3  -9    6.80    3.80
 -20   3   8   13.90    3.60
  20   3  -8   17.90    3.80
 -20  -3   8   13.30    3.60
  20  -3  -8   14.70    5.00
  20  -3  -8   15.30    4.20
  20   3  -7   14.80    3.40
 -20   3   7    9.80    3.10
  20  -3  -7   13.80    4.00
 -20  -3   7   16.20    3.90
  20   3  -6    2.10    2.80
 -20   3   6   -2.80    2.70
 -20  -3   6   -2.90    2.80
  20  -3  -6    4.90    3.40
  20   3  -5    9.80    2.90
 -20   3   5    9.60    3.10
  20  -3  -5    9.10    3.50
 -20  -3   5    5.50    3.30
 -20   3   4    1.70    2.70
 -20   3   4    0.80    2.90
  20   3  -4   -1.60    2.50
  20  -3  -4    0.80    3.20
 -20  -3   4    1.90    3.20
 -20  -3   4    9.20    3.30
 -20  -3   4    2.90    2.20
 -20   3   3    1.80    2.70
 -20   3   3    4.50    3.00
 -20  -3   3    7.70    3.60
 -20  -3   3    3.70    2.30
 -20  -3   3    0.40    3.00
 -20   3   2   13.30    3.40
 -20   3   2    9.80    3.10
 -20  -3   2    9.50    2.70
 -20  -3   2   14.40    4.40
 -20  -3   2   14.00    3.80
 -20   3   1   40.00    4.50
 -20   3   1   39.10    4.60
 -20   3   1   41.10    4.70
 -20  -3   1   43.00    4.20
 -20  -3   1   38.70    6.10
 -20  -3   1   42.50    5.20
 -20   3   0   24.10    3.50
 -20   3   0   24.30    5.10
 -20   3   0   24.00    3.90
 -20  -3   0   21.90    5.80
 -20  -3   0   24.80    3.50
 -20   3  -1   41.00    5.00
 -20   3  -1   43.80    4.70
 -20   3  -1   43.50    6.70
 -20  -3  -1   47.70    7.50
 -20  -3  -1   41.50    4.40
 -20   3  -2   19.00    3.90
 -20   3  -2   10.00    3.30
 -20   3  -2   15.20    4.70
 -20  -3  -2   17.70    4.10
 -20  -3  -2   15.30    3.10
 -20  -3  -2   13.20    6.10
 -20   3  -3   47.50    5.90
 -20   3  -3   57.09    8.40
 -20   3  -3   49.99    5.20
 -20  -3  -3   50.79    4.80
 -20  -3  -3   41.00    7.70
 -20  -3  -3   51.69    5.80
 -20   3  -4   61.29    8.50
 -20   3  -4   46.80    5.50
 -20   3  -4   45.30    5.20
 -20  -3  -4   46.60    4.80
 -20  -3  -4   38.00    5.80
 -20  -3  -4   43.60    8.40
 -20   3  -5   49.10    6.10
 -20   3  -5   59.49    5.90
 -20   3  -5   67.79    8.90
 -20  -3  -5   52.29    6.50
 -20  -3  -5   56.29    9.20
 -20  -3  -5   51.39    5.40
 -20   3  -6    4.80    3.50
 -20   3  -6   11.50    5.30
 -20  -3  -6   -5.30    6.30
 -20  -3  -6   -1.50    3.20
 -20  -3  -6    2.10    4.80
 -20   3  -7   19.40    5.60
 -20   3  -7    8.70    3.80
 -20  -3  -7    2.20    7.00
 -20  -3  -7   14.90    5.40
 -20  -3  -7   -1.30    3.40
 -20   4   9   26.00    4.60
  20  -4  -9   32.00    5.10
  20  -4  -9   47.10    6.70
 -20  -4   9   34.70    5.00
 -20   4   8    4.90    3.10
  20  -4  -8   -0.90    4.90
  20  -4  -8    5.60    4.00
 -20  -4   8    5.20    3.30
 -20   4   7    2.40    3.00
  20  -4  -7    2.50    3.80
 -20  -4   7    4.80    3.30
  20  -4  -7    1.70    5.40
 -20   4   6   12.70    3.40
  20  -4  -6    5.00    3.80
 -20  -4   6   16.90    3.70
 -20   4   5   68.09    6.30
  20   4  -5   46.80    5.20
  20  -4  -5   69.39    6.50
 -20  -4   5   70.49    6.80
 -20   4   4   40.30    4.80
 -20   4   4   34.80    4.60
  20   4  -4   30.80    3.80
  20  -4  -4   42.60    5.30
 -20  -4   4   49.90    5.50
 -20   4   3   -1.00    2.90
 -20   4   3   -4.00    2.70
 -20  -4   3    1.30    3.30
 -20  -4   3   -0.40    3.70
 -20  -4   3    2.00    2.10
 -20   4   2   18.20    3.60
 -20   4   2   16.80    3.60
 -20  -4   2   18.40    5.40
 -20  -4   2   17.90    4.20
 -20  -4   2   18.20    2.90
 -20   4   1    3.30    3.20
 -20   4   1    4.70    2.60
 -20   4   1   -3.40    2.70
 -20  -4   1   -4.80    4.60
 -20  -4   1   -2.60    3.00
 -20  -4   1    0.10    2.30
 -20   4   0   23.70    4.10
 -20   4   0   22.10    3.70
 -20  -4   0   17.50    6.10
 -20  -4   0   25.70    3.40
 -20   4  -1   23.30    4.00
 -20   4  -1   20.80    3.80
 -20  -4  -1   26.40    3.60
 -20  -4  -1   16.40    6.60
 -20   4  -2   -0.60    2.80
 -20   4  -2   -1.40    3.30
 -20  -4  -2    2.20    3.80
 -20  -4  -2    1.40    2.70
 -20  -4  -2   -4.70    5.60
 -20   4  -3   25.60    4.20
 -20   4  -3   22.90    4.30
 -20   4  -3   28.70    6.20
 -20  -4  -3   26.30    4.80
 -20  -4  -3   20.30    7.30
 -20  -4  -3   30.90    3.80
 -20   4  -4   -0.40    3.30
 -20   4  -4   -3.80    3.00
 -20   4  -4    1.80    4.40
 -20  -4  -4   -0.80    4.50
 -20  -4  -4   -2.30    2.60
 -20  -4  -4  -12.80    6.20
 -20   4  -5    1.20    3.60
 -20   4  -5   -4.90    3.10
 -20   4  -5    6.00    5.00
 -20  -4  -5    1.80    3.00
 -20  -4  -5  -13.40    6.50
 -20  -4  -5    2.00    4.40
 -20   4  -6    3.80    4.10
 -20   4  -6    4.40    3.70
 -20   4  -6    8.20    5.10
 -20  -4  -6    0.10    3.30
 -20  -4  -6  -13.00    6.60
 -20  -4  -6    5.60    4.80
 -20   5   7   -2.70    2.80
  20  -5  -7    3.40    3.90
 -20  -5   7    0.40    3.40
  20  -5  -7    2.80    5.60
 -20   5   6   63.09    6.60
 -20  -5   6   70.09    6.80
  20  -5  -6   82.49    8.00
 -20   5   5   -2.50    2.80
  20  -5  -5    1.70    3.70
 -20  -5   5    1.20    3.40
 -20   5   4   -0.30    2.90
 -20  -5   4    1.30    3.40
  20  -5  -4    0.00    3.70
 -20   5   3    4.10    3.20
 -20   5   3    9.50    3.20
 -20  -5   3   11.10    3.70
 -20   5   2    1.20    1.00
 -20   5   2   -0.40    2.90
 -20   5   2    0.30    3.10
 -20  -5   2   -0.50    3.40
 -20  -5   2   -7.00    5.00
 -20   5   1    6.70    3.40
 -20   5   1    7.60    3.10
 -20   5   1    7.90    3.30
 -20  -5   1   -6.80    5.30
 -20  -5   1    1.80    3.60
 -20   5   0   -3.10    2.80
 -20   5   0    0.80    3.20
 -20   5   0    1.50    3.00
 -20  -5   0    0.10    1.00
 -20  -5   0   -8.40    5.40
 -20  -5   0    4.80    3.60
 -20   5  -1   42.60    5.00
 -20   5  -1   45.70    5.20
 -20  -5  -1   27.20    7.80
 -20  -5  -1   45.00    5.20
 -20   5  -2   15.00    3.90
 -20   5  -2   12.80    3.90
 -20  -5  -2    6.00    2.10
 -20  -5  -2    4.50    6.70
 -20  -5  -2   15.00    4.50
 -20   5  -3   23.00    4.40
 -20   5  -3   14.80    4.00
 -20  -5  -3   21.60    3.40
 -20  -5  -3    0.60    7.10
 -20  -5  -3   21.10    5.10
 -20   5  -4   11.40    4.10
 -20   5  -4    9.80    3.90
 -20  -5  -4   17.30    5.00
 -20  -5  -4   -5.10    7.10
 -20  -5  -4   12.90    3.30
 -20   5  -5   -0.20    3.70
 -20   5  -5    1.10    3.40
 -20  -5  -5    9.30    5.00
 -20  -5  -5   -0.90    3.30
  20  -6  -5   23.50    5.10
 -20  -6   5   19.60    4.40
 -20   6   4    0.00    1.40
 -20  -6   4    0.00    3.50
  20  -6  -4    0.40    3.70
 -20   6   3   31.90    4.70
 -20  -6   3   27.50    4.80
  20  -6  -3   32.70    5.10
 -20   6   2   19.50    3.70
 -20   6   2   41.20    4.90
 -20  -6   2   20.40    6.80
 -20   6   1    3.80    2.90
 -20   6   1    2.20    3.50
 -20   6   1   -1.30    3.10
 -20  -6   1  -13.00    5.50
 -20  -6   1   -1.40    3.80
 -20   6   0    3.80    3.70
 -20   6   0    3.50    3.50
 -20   6   0    1.70    2.80
 -20  -6   0    2.10    3.80
 -20  -6   0  -13.00    6.40
 -20   6  -1   28.80    4.70
 -20   6  -1   24.30    4.40
 -20  -6  -1   11.00    7.50
 -20   6  -2    0.90    3.60
 -20   6  -2   -2.20    3.30
 -20  -6  -2    0.00    4.20
 -20   6  -3    3.90    3.70
 -20   6  -3    1.40    3.90
 -20  -6  -3    8.00    4.70
 -21   0  10  183.48   12.50
  21   0 -10  201.28   13.00
 -21   0   9    4.60    3.20
  21   0  -9    0.00    3.50
  21   0  -9   -0.30    3.10
  21   0  -8   95.69    7.60
 -21   0   8   90.69    7.80
  21   0  -8  100.19    8.40
 -21   0   7    0.10    2.70
  21   0  -7    1.40    3.20
 -21   0   6  113.79    8.60
  21   0  -6  115.19    8.60
 -21   0   5   -2.50    2.90
  21   0  -5   -0.60    2.80
 -21   0   4    6.10    3.20
 -21   0   4    2.30    2.90
 -21   0   4    1.70    2.50
 -21   0   3    3.80    3.30
 -21   0   3    2.20    3.00
 -21   0   3   -2.20    2.40
 -21   0   2  109.79    8.00
 -21   0   2  101.29    8.60
 -21   0   2   85.89    7.20
 -21   0   1    1.80    4.00
 -21   0   1   -0.10    2.70
 -21   0   0  585.24   31.80
 -21   0   0  556.04   30.10
 -21   0  -1    1.70    2.90
 -21   0  -1    3.70    4.30
 -21   0  -2   49.00    5.00
 -21   0  -2   42.00    6.50
 -21   0  -3    3.20    4.50
 -21   0  -3    1.50    3.10
 -21   0  -4    6.00    3.10
 -21   0  -4    7.70    5.20
 -21   0  -5    0.00    3.10
 -21   0  -5    3.90    4.60
 -21   0  -6   34.20    6.80
 -21   0  -6   20.80    4.30
 -21   0  -7    1.80    3.50
 -21   0  -7    6.00    5.10
  21   1 -10    2.00    3.70
 -21   1  10    2.80    3.50
  21  -1 -10    6.80    3.30
 -21  -1  10    1.50    3.30
  21  -1 -10    3.20    3.70
  21   1  -9   26.60    4.50
 -21   1   9   24.10    4.30
  21  -1  -9   25.70    4.60
  21  -1  -9   26.90    4.60
 -21  -1   9   29.40    4.60
  21   1  -8    0.10    1.40
  21   1  -8    4.00    3.30
 -21   1   8    3.20    3.10
 -21  -1   8   -1.70    2.70
  21  -1  -8   -3.20    3.80
  21  -1  -8    1.60    3.40
  21   1  -7   30.20    4.40
 -21   1   7   28.10    4.30
 -21  -1   7   29.00    4.40
  21  -1  -7   30.90    4.80
  21   1  -6  133.19    9.20
 -21   1   6  118.39    9.10
 -21  -1   6  115.49    9.10
  21  -1  -6  142.99    9.40
 -21   1   5   68.29    6.90
  21   1  -5   74.79    6.90
 -21  -1   5   74.49    7.00
  21  -1  -5   70.89    7.00
 -21  -1   5   82.59    6.80
 -21   1   4   59.39    6.40
 -21   1   4   56.99    5.90
 -21  -1   4   73.09    7.00
 -21  -1   4   59.79    5.80
 -21  -1   4   60.59    6.40
 -21   1   3    5.20    3.00
 -21   1   3    9.40    3.80
 -21  -1   3    8.20    3.60
 -21  -1   3    5.20    2.70
 -21  -1   3    5.40    3.20
 -21   1   2    8.50    3.50
 -21   1   2   12.60    4.20
 -21   1   2   15.00    3.40
 -21  -1   2   11.20    3.10
 -21  -1   2   16.70    4.40
 -21  -1   2   14.00    3.60
 -21   1   1   89.19    8.50
 -21   1   1   88.09    7.00
 -21  -1   1   81.19    8.30
 -21  -1   1   74.59    6.80
 -21   1   0    4.70    3.00
 -21   1   0   12.00    4.40
 -21  -1   0    6.60    4.40
 -21  -1   0    3.30    2.90
 -21   1  -1   65.89    8.20
 -21   1  -1   51.29    5.20
 -21  -1  -1   59.89    8.10
 -21  -1  -1   57.79    5.90
 -21   1  -2    2.40    4.40
 -21   1  -2    0.90    2.90
 -21  -1  -2    3.20    4.50
 -21  -1  -2    2.80    2.80
 -21   1  -3   45.10    5.10
 -21   1  -3   63.19    8.40
 -21  -1  -3   62.79    8.60
 -21  -1  -3   50.69    5.20
 -21   1  -4   39.70    6.60
 -21   1  -4   23.40    4.10
 -21  -1  -4   35.00    6.40
 -21  -1  -4   36.70    4.50
 -21   1  -5   62.59    6.50
 -21   1  -5   65.99    9.00
 -21  -1  -5   69.79    9.60
 -21  -1  -5   56.99    5.90
 -21   1  -6   20.90    5.50
 -21   1  -6   18.10    3.90
 -21  -1  -6   17.30    3.80
 -21  -1  -6   20.80    5.90
 -21  -1  -6   10.10    4.80
 -21   1  -7    3.90    3.60
 -21   1  -7    8.50    4.80
 -21  -1  -7    7.60    5.40
 -21  -1  -7    0.20    4.90
 -21  -1  -7   -0.50    3.20
 -21   2   9   24.90    4.40
  21   2  -9   36.70    4.80
  21  -2  -9   25.10    4.70
  21  -2  -9   34.60    5.60
 -21  -2   9   22.30    4.10
  21   2  -8   13.40    3.70
 -21   2   8    8.30    3.30
  21  -2  -8   11.80    3.80
  21  -2  -8    7.20    4.60
 -21  -2   8   12.80    3.60
 -21   2   7    2.90    3.00
  21   2  -7    7.50    3.10
  21  -2  -7    5.20    3.70
 -21  -2   7    2.10    2.90
  21   2  -6    0.30    2.80
 -21   2   6   -0.30    2.80
  21  -2  -6   -2.00    3.30
 -21  -2   6    0.10    3.10
  21   2  -5  146.29    9.30
 -21   2   5  140.19    9.70
 -21  -2   5  127.79    9.70
  21  -2  -5  141.79    9.90
 -21   2   4    8.00    3.30
 -21   2   4    9.20    3.20
 -21  -2   4   12.50    3.60
 -21  -2   4    7.60    3.50
 -21  -2   4   11.60    2.80
 -21   2   3   -0.20    2.80
 -21   2   3    5.80    3.10
 -21  -2   3    7.10    3.50
 -21  -2   3   -0.90    2.30
 -21   2   2    0.90    0.90
 -21   2   2    1.10    3.20
 -21   2   2    8.60    3.20
 -21   2   2    8.40    4.10
 -21  -2   2    8.30    4.00
 -21  -2   2   -4.50    2.50
 -21  -2   2    0.50    3.30
 -21   2   1   37.30    4.60
 -21   2   1   41.90    4.90
 -21   2   1   38.20    5.90
 -21  -2   1   40.70    4.30
 -21  -2   1   37.30    5.00
 -21  -2   1   43.30    6.00
 -21   2   0    0.10    3.10
 -21   2   0    3.90    3.90
 -21   2   0    2.40    2.50
 -21  -2   0    2.70    2.70
 -21  -2   0    4.70    4.20
 -21   2  -1    7.10    3.30
 -21   2  -1   11.80    5.00
 -21   2  -1    5.40    2.90
 -21  -2  -1    8.90    3.10
 -21  -2  -1   12.00    5.00
 -21   2  -2    2.50    3.00
 -21   2  -2    1.80    3.00
 -21   2  -2   10.70    4.80
 -21  -2  -2   10.30    5.00
 -21  -2  -2    8.20    3.10
 -21   2  -3    8.80    4.80
 -21   2  -3    3.80    3.20
 -21  -2  -3    5.10    4.80
 -21  -2  -3    3.60    2.90
 -21   2  -4   81.79    9.40
 -21   2  -4   51.49    5.70
 -21  -2  -4   70.89   10.10
 -21  -2  -4   72.89    7.70
 -21  -2  -4   72.59    6.40
 -21   2  -5    1.70    3.30
 -21   2  -5    2.30    4.60
 -21  -2  -5    9.10    5.70
 -21  -2  -5   -1.00    3.00
 -21  -2  -5    2.90    4.50
 -21   2  -6   70.19    9.00
 -21   2  -6   45.90    5.60
 -21  -2  -6   54.09    6.90
 -21  -2  -6   49.99    8.30
 -21  -2  -6   47.90    5.40
 -21  -2  -7    8.30    6.30
 -21   3   9   25.00    4.60
 -21  -3   9   25.10    4.60
  21  -3  -9   28.50    5.70
  21  -3  -9   26.80    5.00
  21   3  -8   26.90    4.30
 -21   3   8   22.60    4.20
  21  -3  -8   22.80    5.60
  21  -3  -8   32.40    5.10
 -21  -3   8   27.20    4.60
 -21   3   7    1.90    3.00
  21   3  -7    2.40    3.10
  21  -3  -7    2.60    3.80
 -21  -3   7    4.10    3.20
  21   3  -6   12.60    3.30
 -21   3   6   11.10    3.50
 -21  -3   6    4.70    3.30
  21  -3  -6    9.70    3.80
 -21   3   5    3.30    3.10
  21   3  -5    4.50    2.70
 -21  -3   5    7.90    3.70
  21  -3  -5    3.40    3.50
  21   3  -4   23.80    3.70
 -21   3   4   23.70    4.00
 -21   3   4   20.90    3.80
 -21  -3   4   27.80    4.40
 -21  -3   4   23.60    3.30
 -21   3   3   33.50    4.40
 -21   3   3   48.50    5.00
 -21  -3   3   52.29    6.30
 -21  -3   3   42.20    4.10
 -21  -3   3   42.40    5.20
 -21   3   2    3.90    2.90
 -21   3   2    4.30    3.00
 -21  -3   2   -3.10    2.20
 -21  -3   2    7.40    4.10
 -21  -3   2    1.30    3.30
 -21   3   1   88.49    7.10
 -21   3   1   80.19    6.90
 -21  -3   1   91.19    6.60
 -21  -3   1   84.79    8.80
 -21  -3   1   83.59    7.50
 -21   3   0   63.29    8.10
 -21   3   0   65.09    5.90
 -21   3   0   49.80    5.20
 -21  -3   0   52.79    5.00
 -21  -3   0   59.69    8.60
 -21   3  -1    2.20    2.80
 -21   3  -1    2.30    4.40
 -21   3  -1    2.70    3.20
 -21  -3  -1   -0.70    5.00
 -21  -3  -1    0.40    2.60
 -21   3  -2   -1.80    3.10
 -21   3  -2    4.60    4.70
 -21   3  -2    1.10    2.90
 -21  -3  -2    0.60    2.60
 -21  -3  -2    5.10    5.70
 -21   3  -3   11.20    4.90
 -21   3  -3    8.90    3.40
 -21   3  -3    8.50    3.40
 -21  -3  -3    9.70    3.20
 -21  -3  -3    7.10    5.80
 -21  -3  -3   12.70    4.20
 -21   3  -4   -2.50    3.00
 -21   3  -4    0.80    3.20
 -21   3  -4    4.50    4.60
 -21  -3  -4    4.90    3.00
 -21  -3  -4   -5.40    5.80
 -21  -3  -4    1.70    4.30
 -21   3  -5   11.20    4.20
 -21   3  -5   19.00    5.40
 -21   3  -5   16.40    3.90
 -21  -3  -5    0.50    3.30
 -21  -3  -5    7.70    7.10
 -21  -3  -5   15.40    5.30
 -21   3  -6    5.60    4.80
 -21   3  -6   -5.20    3.60
 -21   3  -6   -0.30    3.50
 -21  -3  -6   -7.00    6.50
 -21  -3  -6    2.90    3.40
 -21  -3  -6    2.40    4.70
 -21   4   8   33.50    4.70
 -21  -4   8   26.80    4.80
  21  -4  -8   53.39    7.40
  21  -4  -8   40.60    5.50
 -21   4   7    1.10    3.10
 -21  -4   7    7.40    3.40
  21  -4  -7    6.10    3.90
  21  -4  -7   -0.60    5.40
 -21   4   6   10.60    3.40
 -21  -4   6   16.20    3.80
  21  -4  -6   18.80    4.60
 -21   4   5  103.39    8.10
 -21  -4   5   98.99    8.50
  21  -4  -5  102.19    8.70
 -21   4   4   25.20    4.00
  21   4  -4   11.50    2.70
 -21   4   4   22.10    4.00
 -21  -4   4   24.70    4.40
  21  -4  -4   24.80    4.70
 -21   4   3    6.50    3.30
 -21   4   3   11.80    3.30
 -21  -4   3   10.60    2.60
 -21  -4   3   16.20    4.40
 -21  -4   3   15.60    4.10
 -21   4   2   16.70    3.70
 -21   4   2   12.60    3.50
 -21  -4   2    7.50    4.90
 -21  -4   2    9.40    3.80
 -21  -4   2    9.10    2.70
 -21   4   1   10.10    3.30
 -21   4   1    6.60    3.30
 -21  -4   1    3.20    5.20
 -21  -4   1    7.50    3.90
 -21  -4   1    9.10    2.80
 -21   4   0   25.50    4.10
 -21   4   0   30.20    4.20
 -21  -4   0   31.80    3.80
 -21  -4   0   27.30    6.80
 -21   4  -1    1.80    3.00
 -21   4  -1    5.40    3.10
 -21  -4  -1   -3.40    5.40
 -21  -4  -1    7.40    2.90
 -21   4  -2   15.80    3.80
 -21   4  -2   18.80    4.10
 -21  -4  -2   10.80    6.40
 -21  -4  -2   18.00    3.40
 -21  -4  -2   20.70    4.60
 -21   4  -3   15.20    3.90
 -21   4  -3   23.20    6.00
 -21   4  -3   13.50    3.80
 -21  -4  -3    4.60    6.70
 -21  -4  -3    9.20    3.30
 -21  -4  -3    7.90    4.50
 -21   4  -4   39.80    6.70
 -21   4  -4   33.00    4.60
 -21   4  -4   30.90    5.10
 -21  -4  -4   20.10    7.90
 -21  -4  -4   38.20    5.70
 -21  -4  -4   38.40    4.30
 -21   4  -5   26.00    5.20
 -21   4  -5   30.30    6.10
 -21   4  -5   21.20    4.20
 -21  -4  -5   21.60    4.10
 -21  -4  -5   30.00    5.80
 -21  -4  -5   18.50    8.00
 -21   5   6   -2.00    2.80
  21  -5  -6    4.00    4.00
 -21  -5   6    1.20    3.50
 -21   5   5    3.50    3.20
  21  -5  -5    0.10    3.80
 -21  -5   5    5.60    3.70
 -21   5   4   -4.10    2.90
  21  -5  -4   -2.40    3.60
 -21  -5   4   -1.20    3.40
 -21   5   3   47.60    5.20
 -21   5   3   41.70    5.00
 -21  -5   3   48.20    5.80
 -21   5   2    0.90    3.10
 -21   5   2   -3.00    2.90
 -21  -5   2   -4.00    5.20
 -21  -5   2   -2.70    3.60
 -21   5   1    3.10    3.40
 -21   5   1    3.90    3.20
 -21   5   1    3.00    1.20
 -21  -5   1    5.50    3.80
 -21  -5   1   -1.50    5.60
 -21   5   0   71.09    6.80
 -21   5   0   50.29    5.40
 -21   5   0   55.99    6.10
 -21  -5   0   38.10    8.00
 -21  -5   0   58.99    6.40
 -21   5  -1  113.79    8.20
 -21   5  -1   95.99    7.90
 -21  -5  -1   80.89   11.50
 -21   5  -2    6.90    3.50
 -21   5  -2    7.60    3.70
 -21  -5  -2    5.10    4.20
 -21  -5  -2   -8.40    6.10
 -21  -5  -2    1.40    1.30
 -21   5  -3   -1.00    3.30
 -21   5  -3    0.60    3.30
 -21  -5  -3    2.40    4.20
 -21  -5  -3    0.00    1.30
 -21  -5  -3  -14.50    6.60
 -21   5  -4   13.20    4.10
 -21  -5  -4    3.60    2.00
 -21  -5  -4   -4.10    7.50
 -21  -5  -4    8.50    5.00
  21  -6  -4    6.90    4.40
 -21  -6   4    8.20    3.90
 -21   6   3   -0.40    1.60
 -21   6   3   12.80    3.90
 -21  -6   3    6.70    3.80
  21  -6  -3    7.20    4.30
 -21   6   2   40.00    5.40
 -21  -6   2   47.00    6.00
 -21   6   1   27.50    4.60
 -21  -6   1   17.30    7.40
 -21  -6   1   23.40    5.00
 -21   6   0    4.10    3.50
 -21   6   0   -0.80    1.90
 -21   6   0    4.60    3.10
 -21  -6   0    0.90    4.00
 -21  -6   0  -14.40    5.60
 -21   6  -1   10.80    4.00
 -21   6  -1    3.70    3.80
 -21   6  -1    0.40    1.70
 -21  -6  -1    3.00    4.20
 -21  -6  -1  -14.30    5.90
  22   0  -9    0.10    2.30
 -22   0   9    2.40    3.20
  22   0  -9   -1.60    3.40
  22   0  -8   13.30    3.80
 -22   0   8    9.50    3.40
  22   0  -8    8.10    3.20
  22   0  -7   -5.20    3.00
 -22   0   7   -2.20    2.80
 -22   0   6   63.19    6.80
  22   0  -6   71.69    6.80
 -22   0   5   -4.10    2.90
  22   0  -5   -3.70    3.10
 -22   0   4   -1.10    3.00
 -22   0   4    4.10    2.70
 -22   0   4    9.60    3.60
 -22   0   3   -2.50    3.10
 -22   0   3   -3.50    2.60
 -22   0   3    5.40    3.60
 -22   0   2  129.79    9.30
 -22   0   2  108.89    8.60
 -22   0   2  145.39   10.30
 -22   0   1    2.90    2.80
 -22   0   1    4.00    4.00
 -22   0   1   -0.70    3.00
 -22   0   0  101.39    9.50
 -22   0   0   91.19    7.40
 -22   0  -1    6.30    4.30
 -22   0  -1    3.80    3.10
 -22   0  -2    5.60    3.00
 -22   0  -2   10.80    4.80
 -22   0  -3    4.40    4.80
 -22   0  -3   -2.80    3.00
 -22   0  -4  251.27   14.80
 -22   0  -4  252.17   17.30
 -22   0  -5    6.40    4.50
 -22   0  -5    0.30    3.00
 -22   0  -6   37.90    7.10
 -22   0  -6   24.70    4.30
 -22   1   9   -1.20    3.10
  22   1  -9    3.10    3.90
 -22  -1   9    1.30    2.90
  22  -1  -9    4.10    3.00
  22  -1  -9    3.90    3.90
 -22   1   8   14.10    3.80
  22   1  -8   20.80    4.10
  22  -1  -8   19.20    4.60
  22  -1  -8   13.60    4.10
 -22  -1   8   13.80    3.70
 -22   1   7    0.50    3.10
  22   1  -7    5.20    3.40
 -22  -1   7    5.70    3.10
  22  -1  -7    3.60    3.60
 -22   1   6    4.30    3.30
  22   1  -6    6.60    3.20
  22  -1  -6    4.20    3.50
 -22  -1   6    7.60    3.60
 -22   1   5    0.20    3.10
  22   1  -5    0.50    3.10
 -22  -1   5   -0.50    1.20
 -22  -1   5    3.60    3.20
  22  -1  -5    2.10    3.30
 -22   1   4  120.69    8.70
 -22   1   4  114.29    9.00
 -22  -1   4  134.89    9.40
 -22  -1   4  116.39    9.10
 -22  -1   4  129.79    8.50
 -22   1   3   63.39    7.40
 -22   1   3   50.79    5.30
 -22  -1   3   68.19    7.10
 -22  -1   3   60.69    5.70
 -22   1   2   14.50    3.40
 -22   1   2   24.70    4.20
 -22   1   2   21.20    4.90
 -22  -1   2    7.50    3.20
 -22  -1   2   21.60    4.80
 -22  -1   2   18.30    4.00
 -22   1   1   64.69    6.40
 -22   1   1   68.49    8.00
 -22   1   1   63.89    6.70
 -22  -1   1   67.79    7.00
 -22  -1   1   69.39    6.40
 -22  -1   1   79.19    8.10
 -22   1   0  121.49    8.80
 -22   1   0  127.99   10.70
 -22  -1   0  126.79    8.70
 -22  -1   0  127.99   11.00
 -22   1  -1   21.80    4.00
 -22   1  -1   25.50    5.40
 -22  -1  -1   25.20    5.60
 -22  -1  -1   18.80    3.80
 -22   1  -2   19.50    5.10
 -22   1  -2   21.80    3.90
 -22  -1  -2   17.70    5.30
 -22  -1  -2   16.60    3.60
 -22   1  -3    6.60    3.30
 -22   1  -3   10.80    5.10
 -22  -1  -3    9.30    4.90
 -22  -1  -3    7.00    3.30
 -22   1  -4    5.80    3.40
 -22   1  -4   11.30    5.10
 -22  -1  -4    3.00    3.30
 -22  -1  -4    6.10    5.00
 -22   1  -5   10.60    4.90
 -22   1  -5    3.00    3.30
 -22  -1  -5    9.50    5.10
 -22  -1  -5    3.60    3.40
 -22   1  -6    9.30    4.40
 -22   1  -6    1.10    3.40
 -22  -1  -6   -5.40    3.00
 -22  -1  -6    3.70    5.10
 -22   2   9    8.30    3.70
 -22  -2   9   16.30    4.00
 -22   2   8   16.30    3.90
  22   2  -8   22.90    4.00
 -22  -2   8   16.80    3.80
  22  -2  -8   10.20    4.90
  22  -2  -8   19.50    4.40
 -22   2   7   -0.10    2.80
  22   2  -7   11.20    3.40
 -22  -2   7    4.60    3.30
  22  -2  -7    6.50    3.80
  22   2  -6    0.80    2.90
 -22   2   6    4.10    3.00
  22  -2  -6   -2.90    3.10
 -22  -2   6   -0.40    3.10
  22   2  -5    9.70    3.20
 -22   2   5    8.30    3.20
  22  -2  -5    4.10    3.70
 -22  -2   5    5.60    3.40
 -22   2   4    8.80    3.40
 -22   2   4   12.60    3.30
 -22  -2   4   10.70    2.80
 -22  -2   4   15.90    3.80
 -22  -2   4    9.40    3.80
 -22   2   3   17.00    3.70
 -22   2   3   12.10    3.50
 -22  -2   3   17.10    4.10
 -22  -2   3   14.60    3.10
 -22   2   2   29.60    4.00
 -22   2   2   25.90    4.40
 -22  -2   2   48.40    6.80
 -22  -2   2   23.20    4.40
 -22  -2   2   23.30    3.70
 -22   2   1   31.10    5.70
 -22   2   1   22.50    4.10
 -22   2   1   25.00    4.40
 -22  -2   1   19.20    3.50
 -22  -2   1   32.40    5.50
 -22  -2   1   28.60    4.70
 -22   2   0   11.90    4.80
 -22   2   0    4.50    2.20
 -22   2   0    7.00    3.30
 -22  -2   0    9.00    3.00
 -22  -2   0   15.30    4.80
 -22   2  -1   10.40    4.50
 -22   2  -1    5.40    3.30
 -22   2  -1    6.80    2.90
 -22  -2  -1    9.50    4.70
 -22  -2  -1    8.30    3.20
 -22   2  -2    3.50    3.00
 -22   2  -2    6.70    4.30
 -22   2  -2    6.30    3.30
 -22  -2  -2    5.70    3.10
 -22  -2  -2    8.10    5.00
 -22   2  -3    7.00    4.80
 -22   2  -3    2.50    3.20
 -22  -2  -3    3.40    5.00
 -22  -2  -3    1.70    3.10
 -22   2  -4    4.40    4.40
 -22   2  -4    1.20    3.20
 -22  -2  -4    1.50    3.00
 -22  -2  -4    2.50    5.00
 -22   2  -5    7.10    4.80
 -22   2  -5   -7.70    2.90
 -22  -2  -5    0.50    3.20
 -22  -2  -5    5.70    5.80
 -22  -2  -5    2.50    5.00
 -22   2  -6    2.80    3.60
 -22   2  -6    9.10    5.30
 -22  -2  -6   10.20    5.90
 -22  -2  -6    4.20    5.00
 -22  -2  -6    4.20    3.50
 -22   3   8   13.30    3.80
  22   3  -8    1.30    1.80
 -22  -3   8    5.50    3.40
  22  -3  -8    7.30    4.10
  22  -3  -8   12.20    5.30
  22   3  -7   -2.50    2.90
 -22   3   7   -2.90    2.80
 -22  -3   7   -2.90    3.00
  22  -3  -7   -1.90    3.70
  22   3  -6   17.80    3.60
 -22   3   6   14.90    3.80
 -22  -3   6   13.30    4.00
  22  -3  -6   17.20    4.40
 -22   3   5    2.10    3.20
  22   3  -5    0.20    2.70
 -22  -3   5    4.20    3.50
  22  -3  -5    3.80    3.80
  22   3  -4   29.90    4.00
 -22   3   4   23.90    4.10
 -22   3   4   22.20    4.10
 -22  -3   4   26.10    3.50
 -22  -3   4   33.00    4.80
 -22   3   3    7.60    3.10
 -22   3   3    8.60    3.30
 -22  -3   3   12.30    4.00
 -22  -3   3    0.10    3.30
 -22  -3   3    3.70    2.50
 -22   3   2   36.80    4.70
 -22   3   2   41.50    4.90
 -22  -3   2   42.90    5.40
 -22  -3   2   32.90    4.10
 -22  -3   2   46.90    6.50
 -22   3   1   -1.10    2.90
 -22   3   1    1.80    3.20
 -22  -3   1    4.70    3.50
 -22  -3   1    5.00    4.20
 -22  -3   1   -1.20    2.60
 -22   3   0    7.70    3.30
 -22   3   0    6.30    4.40
 -22  -3   0    5.30    3.00
 -22  -3   0    8.60    4.70
 -22   3  -1    3.80    2.80
 -22   3  -1   -1.10    3.20
 -22   3  -1    5.80    4.00
 -22  -3  -1    3.00    3.00
 -22  -3  -1    4.40    5.00
 -22   3  -2    0.00    3.40
 -22   3  -2    5.90    4.60
 -22   3  -2   -0.30    2.90
 -22  -3  -2    0.00    5.40
 -22  -3  -2    2.80    2.90
 -22   3  -3   10.60    3.60
 -22   3  -3   11.30    5.10
 -22   3  -3    5.20    3.30
 -22  -3  -3    7.50    3.20
 -22  -3  -3    5.80    5.90
 -22   3  -4   37.70    5.00
 -22   3  -4   62.19    8.70
 -22   3  -4   47.30    5.70
 -22  -3  -4   36.20    8.30
 -22  -3  -4   48.60    6.30
 -22  -3  -4   49.70    5.20
 -22   3  -5   66.89    7.50
 -22   3  -5   83.19    7.50
 -22   3  -5   98.49   10.30
 -22  -3  -5   72.69    7.30
 -22  -3  -5   70.19    7.70
 -22  -3  -5   74.99   10.40
 -22   4   7    3.90    3.20
 -22  -4   7   12.30    3.90
  22  -4  -7    0.50    5.80
  22  -4  -7    8.00    4.30
 -22   4   6   -1.30    2.80
  22  -4  -6    5.90    3.80
 -22  -4   6    8.10    3.60
 -22   4   5  142.19   10.10
  22  -4  -5  155.98   11.00
 -22  -4   5  154.28   10.80
 -22   4   4    1.20    3.10
  22   4  -4    0.00    1.60
 -22   4   4    1.70    3.10
 -22  -4   4    6.00    3.40
  22  -4  -4    3.40    3.90
 -22   4   3   35.70    4.40
 -22   4   3   26.70    4.40
 -22  -4   3   37.40    5.00
 -22   4   2   10.40    3.60
 -22  -4   2    7.10    2.40
 -22  -4   2    8.60    4.10
 -22  -4   2   15.70    5.00
 -22   4   1    0.20    3.20
 -22   4   1   -4.30    3.00
 -22  -4   1   -0.70    3.40
 -22  -4   1   -1.20    2.50
 -22  -4   1   -4.30    4.60
 -22   4   0    8.10    3.50
 -22   4   0    1.70    3.10
 -22   4   0    1.20    1.20
 -22  -4   0    5.40    3.80
 -22  -4   0    3.70    5.40
 -22  -4   0    6.50    2.90
 -22   4  -1   -0.80    2.60
 -22   4  -1    0.10    3.30
 -22  -4  -1    3.00    3.00
 -22  -4  -1   -2.80    5.80
 -22   4  -2   12.10    3.60
 -22   4  -2    9.60    3.80
 -22  -4  -2    2.10    6.80
 -22  -4  -2   14.80    3.40
 -22   4  -3   24.60    4.60
 -22   4  -3   26.00    4.60
 -22   4  -3   25.50    5.70
 -22  -4  -3   27.00    5.40
 -22  -4  -3   27.60    4.30
 -22  -4  -3   16.80    7.50
 -22   4  -4    3.70    3.70
 -22   4  -4    5.30    5.00
 -22   4  -4    3.00    3.70
 -22  -4  -4  -10.60    6.30
 -22  -4  -4   -3.20    4.40
 -22  -4  -4    0.10    3.10
 -22   5   5   65.29    6.30
 -22  -5   5   58.99    6.60
  22  -5  -5   72.89    7.20
 -22   5   4   -0.80    2.90
 -22  -5   4   -0.70    3.60
  22  -5  -4    3.30    4.20
 -22   5   3   11.30    3.70
 -22   5   3   14.90    3.70
 -22  -5   3   21.30    4.60
 -22   5   2   33.40    4.60
 -22   5   2   30.50    4.40
 -22  -5   2   36.70    5.40
 -22   5   1    0.70    3.00
 -22   5   1    1.60    3.30
 -22  -5   1   -5.20    5.10
 -22  -5   1    0.80    4.00
 -22   5   0   12.00    3.70
 -22   5   0    3.40    3.30
 -22   5   0    2.30    1.20
 -22  -5   0    8.00    4.10
 -22  -5   0   -8.00    6.20
 -22   5  -1   17.60    4.20
 -22   5  -1   19.70    4.10
 -22  -5  -1    6.80    6.70
 -22   5  -2   15.40    4.10
 -22   5  -2   12.10    4.00
 -22  -5  -2   13.50    4.70
 -22  -5  -2   -6.30    7.20
  23   0  -8  235.98   13.20
  23   0  -8  164.18   12.10
 -23   0   8  197.68   12.50
  23   0  -7    3.30    3.30
 -23   0   7    2.90    3.20
  23   0  -6    2.90    3.30
 -23   0   6    3.20    3.30
 -23   0   5   -2.50    3.10
  23   0  -5    1.60    3.20
 -23   0   4   58.39    6.60
 -23   0   4   39.10    5.20
 -23   0   4   44.20    4.80
 -23   0   3   -4.80    2.70
 -23   0   3    4.90    3.60
 -23   0   2  360.96   20.70
 -23   0   2  368.96   21.10
 -23   0   2  400.56   22.30
 -23   0   1    7.40    4.30
 -23   0   1    1.80    2.90
 -23   0   1    1.70    3.10
 -23   0   0  630.14   33.60
 -23   0   0  644.54   35.40
 -23   0  -1   -2.00    3.20
 -23   0  -1    7.50    4.30
 -23   0  -2  492.85   26.70
 -23   0  -2  498.95   28.80
 -23   0  -3    2.30    3.20
 -23   0  -3    4.40    4.10
 -23   0  -4   18.50    4.00
 -23   0  -4   22.60    5.40
 -23   0  -5    5.40    4.80
 -23   0  -5    1.50    3.40
 -23   1   8   17.20    3.90
  23   1  -8   28.30    4.60
 -23  -1   8   23.30    4.10
  23  -1  -8   18.20    4.80
  23  -1  -8   25.80    4.80
  23   1  -7    3.60    3.30
 -23   1   7    3.70    3.20
  23  -1  -7    2.30    3.40
 -23  -1   7    1.30    3.20
  23   1  -6    1.30    3.30
 -23   1   6    0.20    3.40
  23  -1  -6    2.90    3.40
 -23  -1   6    0.90    3.20
  23   1  -5    9.30    3.60
 -23   1   5    8.30    3.50
  23  -1  -5    7.60    3.80
 -23  -1   5    7.20    3.50
 -23   1   4   27.00    4.00
 -23   1   4   26.40    4.60
 -23  -1   4   27.00    4.40
 -23  -1   4   44.50    5.90
 -23  -1   4   34.40    4.00
 -23   1   3    6.50    3.70
 -23   1   3   -4.20    2.80
 -23  -1   3   -0.90    2.60
 -23  -1   3    5.30    3.70
 -23   1   2   18.20    4.70
 -23   1   2   11.50    3.80
 -23   1   2    7.90    3.40
 -23  -1   2   23.20    4.80
 -23  -1   2   12.90    3.90
 -23  -1   2    5.90    3.10
 -23   1   1   49.10    5.40
 -23   1   1   61.39    6.20
 -23   1   1   67.59    8.40
 -23  -1   1   59.89    6.30
 -23  -1   1   66.29    8.20
 -23  -1   1   51.89    5.30
 -23   1   0   65.59    6.10
 -23   1   0   88.39    8.70
 -23  -1   0   64.39    8.30
 -23  -1   0   48.70    5.50
 -23   1  -1   33.20    6.00
 -23   1  -1   38.00    4.70
 -23  -1  -1   34.30    6.30
 -23  -1  -1   30.50    4.30
 -23   1  -2    6.30    4.40
 -23   1  -2    0.80    3.20
 -23  -1  -2   13.20    5.00
 -23  -1  -2    8.80    3.30
 -23   1  -3    6.40    3.40
 -23   1  -3   10.40    5.20
 -23  -1  -3   14.60    5.30
 -23  -1  -3   10.80    3.60
 -23   1  -4    4.30    3.40
 -23   1  -4   13.40    5.40
 -23  -1  -4   10.80    5.20
 -23  -1  -4    4.10    3.20
 -23   1  -5   23.30    5.90
 -23   1  -5    9.50    3.70
 -23  -1  -5   15.40    5.70
 -23  -1  -5   13.90    3.80
 -23   2   8    6.30    3.60
  23   2  -8    5.70    3.60
  23  -2  -8    8.60    4.00
  23  -2  -8    6.00    4.80
 -23  -2   8    9.10    3.60
 -23   2   7   -3.00    2.70
  23   2  -7    5.40    3.10
  23  -2  -7    0.90    3.60
 -23  -2   7   -0.10    2.90
 -23   2   6    4.70    3.40
  23   2  -6   11.60    3.50
  23  -2  -6   12.20    3.80
 -23  -2   6    9.30    3.70
 -23   2   5   10.80    3.40
  23   2  -5    4.50    3.20
 -23  -2   5    8.40    3.60
  23  -2  -5    7.60    3.80
 -23   2   4   37.70    4.80
 -23   2   4   39.80    5.10
 -23  -2   4   41.40    4.30
 -23  -2   4   40.70    5.20
 -23   2   3   20.60    3.80
 -23   2   3   29.40    4.40
 -23  -2   3   15.90    4.00
 -23  -2   3   20.90    3.50
 -23  -2   3   27.20    4.90
 -23   2   2   17.20    3.70
 -23   2   2   15.60    3.90
 -23  -2   2    3.80    2.90
 -23  -2   2   16.70    4.60
 -23  -2   2   18.20    4.20
 -23   2   1   26.00    4.10
 -23   2   1   23.20    5.30
 -23   2   1   21.50    4.00
 -23  -2   1   22.70    4.30
 -23  -2   1   28.20    5.50
 -23  -2   1   23.00    3.70
 -23   2   0    1.30    3.10
 -23   2   0   10.00    4.30
 -23  -2   0    8.30    4.40
 -23  -2   0    0.70    2.80
 -23   2  -1   10.50    3.70
 -23   2  -1   20.20    5.50
 -23  -2  -1   21.20    5.30
 -23  -2  -1   14.60    3.60
 -23   2  -2    9.50    3.70
 -23   2  -2   15.80    5.20
 -23   2  -2    6.20    3.10
 -23  -2  -2   14.00    5.40
 -23  -2  -2    8.80    3.30
 -23   2  -3   37.00    6.40
 -23   2  -3   32.80    4.60
 -23  -2  -3   36.00    7.00
 -23  -2  -3   30.70    4.50
 -23   2  -4   30.60    6.30
 -23   2  -4   17.90    4.20
 -23  -2  -4   31.70    4.50
 -23  -2  -4   31.30    6.80
 -23  -2  -5   14.00    6.10
 -23   3   7   15.00    3.90
 -23  -3   7   12.80    3.80
  23  -3  -7   20.40    4.60
  23   3  -6    0.40    3.10
 -23   3   6    4.30    3.20
  23  -3  -6    3.20    3.80
 -23  -3   6    2.10    3.40
 -23   3   5   27.40    4.60
  23   3  -5   33.20    4.20
  23  -3  -5   27.90    5.10
 -23  -3   5   23.60    4.50
 -23   3   4    1.40    3.20
  23   3  -4    7.30    3.20
 -23   3   4    1.30    3.20
 -23  -3   4    8.50    2.80
 -23  -3   4    6.80    3.70
  23  -3  -4    2.20    3.50
 -23   3   3    2.40    3.20
 -23   3   3    2.40    3.10
 -23  -3   3    7.00    2.70
 -23  -3   3    8.30    3.60
 -23  -3   3   -1.80    3.20
 -23   3   2    6.40    3.50
 -23   3   2    8.50    3.30
 -23  -3   2    7.20    3.80
 -23  -3   2   15.80    4.40
 -23  -3   2    7.10    2.80
 -23   3   1   10.20    3.50
 -23   3   1    6.10    3.50
 -23  -3   1   10.30    3.90
 -23  -3   1   15.10    4.60
 -23  -3   1    9.90    3.20
 -23   3   0   37.50    6.40
 -23   3   0   29.60    4.40
 -23  -3   0   37.70    6.20
 -23  -3   0   36.40    4.30
 -23   3  -1   26.30    5.80
 -23   3  -1   18.60    4.00
 -23  -3  -1   20.80    3.80
 -23  -3  -1   24.50    5.90
 -23   3  -2    4.40    3.60
 -23   3  -2   11.50    5.10
 -23   3  -2    6.00    3.10
 -23  -3  -2    3.60    3.10
 -23  -3  -2    5.50    5.60
 -23   3  -3   -1.00    3.30
 -23   3  -3    4.00    4.80
 -23   3  -3    1.10    3.40
 -23  -3  -3    0.30    3.00
 -23  -3  -3    4.30    5.80
 -23   3  -4   58.19    6.10
 -23   3  -4   50.99    6.10
 -23   3  -4   69.89    9.30
 -23  -3  -4   55.99    5.70
 -23  -3  -4   54.29    8.60
 -23   4   5    9.80    3.70
 -23  -4   5   10.50    3.70
  23  -4  -5    3.20    3.80
 -23   4   4    1.90    3.20
 -23   4   4   -0.50    3.10
  23  -4  -4   -2.30    3.80
 -23  -4   4    4.30    3.40
 -23   4   3   33.20    4.50
 -23   4   3   28.20    4.60
 -23  -4   3   38.40    5.20
 -23   4   2   -1.10    3.00
 -23  -4   2    2.60    3.90
 -23  -4   2   14.20    4.60
 -23  -4   2   -0.70    1.10
 -23   4   1   47.00    5.50
 -23   4   1   42.30    5.00
 -23  -4   1   54.49    6.20
 -23  -4   1   48.10    7.10
 -23   4   0   11.30    3.70
 -23   4   0   -0.50    3.20
 -23  -4   0   12.00    4.40
 -23  -4   0    3.90    5.40
 -23  -4   0    3.50    2.90
 -23   4  -1    2.20    3.50
 -23   4  -1    1.40    1.10
 -23  -4  -1    4.50    3.10
 -23  -4  -1   -6.20    5.70
 -23   4  -2   23.70    4.20
 -23   4  -2   27.20    4.60
 -23  -4  -2   38.80    4.30
 -23  -4  -2   21.70    7.30
 -23  -4  -3   -3.90    6.50
 -23   5   3    0.50    3.40
 -23   5   3    2.60    3.40
 -23  -5   3    2.20    4.20
 -23   5   2    1.20    3.40
 -23   5   2    1.90    3.40
 -23  -5   2    0.70    4.20
 -23   5   1    7.10    3.80
 -23   5   1    9.30    3.70
 -23  -5   1    3.80    4.60
 -23  -5   1   -0.30    5.90
 -23  -5   0   -3.10    6.00
 -24   0   7   -0.80    3.10
  24   0  -7    0.00    3.40
  24   0  -6  243.88   14.50
 -24   0   6  221.98   14.30
  24   0  -5   -1.40    3.20
 -24   0   5   -0.30    3.20
 -24   0   4   14.50    3.20
 -24   0   4   13.70    4.10
 -24   0   4    5.80    3.60
 -24   0   3    6.40    3.90
 -24   0   3   -4.00    2.70
 -24   0   2  117.49    9.50
 -24   0   2   88.09    7.80
 -24   0   2  103.99    8.60
 -24   0   1    0.30    3.10
 -24   0   1    0.50    3.40
 -24   0   1    4.10    4.20
 -24   0   0  632.34   33.40
 -24   0   0  630.34   35.20
 -24   0  -1    8.40    4.70
 -24   0  -1   -1.40    3.10
 -24   0  -2  309.07   17.80
 -24   0  -2  312.97   20.00
 -24   0  -3    0.60    3.20
 -24   0  -3    7.60    4.90
 -24   0  -4   37.70    6.50
 -24   0  -4   22.40    4.40
  24   1  -7    0.80    3.60
 -24   1   7   -1.70    3.00
  24  -1  -7   -0.60    3.70
 -24  -1   7    3.90    3.30
 -24   1   6   -6.80    3.00
  24   1  -6   -3.50    3.10
  24  -1  -6    0.20    3.30
 -24  -1   6    2.00    3.40
  24   1  -5   27.50    4.40
 -24   1   5   19.20    4.20
 -24  -1   5   24.80    4.50
  24  -1  -5   27.00    4.60
 -24   1   4   43.60    4.70
 -24   1   4   34.30    5.10
 -24  -1   4   40.30    4.40
 -24  -1   4   27.50    4.70
 -24   1   3   25.50    4.40
 -24   1   3   18.90    4.10
 -24   1   3   29.30    5.20
 -24  -1   3   26.20    3.90
 -24  -1   3   33.80    5.30
 -24   1   2   -3.80    3.30
 -24   1   2    6.30    4.10
 -24   1   2   -4.70    2.70
 -24  -1   2  -10.00    2.50
 -24  -1   2   -3.10    3.40
 -24  -1   2    6.00    3.80
 -24   1   1   19.30    5.10
 -24   1   1   16.20    3.80
 -24   1   1   13.90    3.90
 -24  -1   1   15.90    3.50
 -24  -1   1   20.70    4.90
 -24  -1   1   10.90    3.90
 -24   1   0    2.40    3.20
 -24   1   0   14.50    4.60
 -24  -1   0   13.40    5.00
 -24  -1   0    4.40    3.20
 -24   1  -1    5.40    3.50
 -24   1  -1    5.90    4.40
 -24  -1  -1    5.60    3.20
 -24  -1  -1   11.80    4.70
 -24   1  -2    7.30    4.60
 -24   1  -2    2.10    3.40
 -24  -1  -2    0.20    3.30
 -24  -1  -2    1.60    4.60
 -24   1  -3    9.30    5.10
 -24   1  -3    4.90    3.40
 -24  -1  -3   12.90    5.20
 -24  -1  -3    4.50    3.40
 -24   1  -4   -1.10    3.30
 -24   1  -4    7.00    5.10
 -24  -1  -4   11.60    5.40
 -24  -1  -4   -2.20    3.20
 -24   2   6   -3.50    3.20
  24   2  -6    4.20    3.10
  24  -2  -6   -1.80    3.50
 -24  -2   6   -2.20    3.20
  24   2  -5   10.30    3.40
 -24   2   5    1.60    3.30
  24  -2  -5    0.70    3.70
 -24  -2   5   12.00    3.80
 -24   2   4   39.90    5.40
 -24   2   4   36.00    4.80
 -24  -2   4   49.40    4.70
 -24  -2   4   41.30    5.30
 -24   2   3   25.60    4.30
 -24   2   3   26.50    4.30
 -24  -2   3   27.90    3.80
 -24  -2   3   31.50    5.30
 -24  -2   3   21.40    4.70
 -24   2   2   -0.50    2.90
 -24   2   2    7.40    3.50
 -24  -2   2    9.90    4.50
 -24  -2   2   -7.20    2.50
 -24  -2   2   -0.20    3.50
 -24   2   1    4.80    4.20
 -24   2   1    4.40    3.30
 -24   2   1   -0.60    3.20
 -24  -2   1    9.70    4.40
 -24  -2   1    7.20    3.10
 -24  -2   1    4.60    3.60
 -24   2   0    8.40    4.60
 -24   2   0    0.30    3.20
 -24  -2   0    0.50    3.00
 -24  -2   0   10.40    4.70
 -24   2  -1   -2.60    3.10
 -24   2  -1    4.90    4.60
 -24  -2  -1    1.50    2.90
 -24  -2  -1    3.20    4.30
 -24   2  -2   26.10    4.50
 -24   2  -2   36.20    6.60
 -24  -2  -2   28.10    4.20
 -24  -2  -2   31.60    6.30
 -24   2  -3   25.80    4.60
 -24   2  -3   14.40    4.20
 -24   2  -3   28.50    5.80
 -24  -2  -3   31.10    6.40
 -24  -2  -3   22.20    4.10
 -24   3   5   60.49    6.50
  24   3  -5   70.69    6.60
  24  -3  -5   80.39    7.50
 -24  -3   5   55.59    6.50
 -24   3   4    0.30    3.10
  24   3  -4    1.80    3.30
 -24   3   4   -1.20    2.90
 -24  -3   4    4.00    3.70
  24  -3  -4    1.00    3.60
 -24  -3   4    0.90    2.50
 -24   3   3    2.40    3.20
 -24   3   3    0.00    3.10
 -24  -3   3    0.20    2.50
 -24  -3   3   -1.90    3.30
 -24   3   2   17.50    4.10
 -24   3   2   17.20    3.80
 -24  -3   2   17.30    4.30
 -24  -3   2   11.00    3.10
 -24   3   1   15.40    3.90
 -24   3   1   18.40    3.90
 -24  -3   1   19.30    4.80
 -24  -3   1    9.80    3.30
 -24  -3   1   13.00    4.00
 -24   3   0    4.90    3.40
 -24  -3   0    7.10    3.70
 -24  -3   0    4.90    3.00
 -24  -3   0   17.50    5.00
 -24   3  -1   39.80    5.20
 -24   3  -1   60.69    8.30
 -24  -3  -1   52.59    7.60
 -24  -3  -1   48.30    5.20
 -24   3  -2    7.90    3.80
 -24   3  -2   16.40    4.90
 -24  -3  -2    9.70    3.50
 -24  -3  -2   13.00    5.50
 -24   4   3   38.40    5.20
 -24   4   3   36.60    5.20
 -24  -4   3   44.20    5.80
 -24   4   2   13.20    4.00
 -24   4   2   14.90    4.00
 -24   4   1   22.20    4.40
 -24   4   1   28.60    4.60
 -24  -4   1   22.80    5.30
 -24  -4   1   20.90    4.90
 -24   4   0    4.10    3.40
 -24   4   0   -0.90    3.30
 -24  -4   0    0.30    1.40
 -24  -4   0    6.90    5.00
 -24  -4   0    7.20    4.30
 -24  -4  -1    5.70    5.90
  25   0  -6   26.80    4.70
 -25   0   6   27.00    4.60
 -25   0   5    0.10    3.30
  25   0  -5   -1.80    3.30
 -25   0   4   12.80    3.50
 -25   0   4   17.70    4.20
 -25   0   4    8.90    3.10
 -25   0   3   -4.40    3.10
 -25   0   3   -2.70    2.90
 -25   0   3    6.70    3.90
 -25   0   2    6.00    3.90
 -25   0   2    6.60    3.70
 -25   0   2   -2.90    2.80
 -25   0   1   -1.10    3.20
 -25   0   1    9.00    4.10
 -25   0   1    0.90    3.30
 -25   0   0   33.40    6.00
 -25   0   0   19.00    4.00
 -25   0  -1    0.20    3.40
 -25   0  -1    9.30    5.20
 -25   0  -2   18.90    5.40
 -25   0  -2    8.00    3.80
 -25   1   6   -0.40    3.40
 -25  -1   6    4.90    3.70
 -25   1   5    0.20    3.30
  25   1  -5   -2.80    3.10
 -25  -1   5    2.80    3.50
  25  -1  -5    6.60    3.80
 -25   1   4   38.40    4.70
 -25   1   4   30.90    5.00
 -25  -1   4   36.10    5.40
 -25  -1   4   34.00    4.30
 -25   1   3   25.00    4.10
 -25   1   3   38.80    5.10
 -25  -1   3   25.40    4.60
 -25  -1   3   29.80    4.10
 -25   1   2   11.30    3.90
 -25   1   2    5.80    3.50
 -25   1   2   18.00    5.00
 -25  -1   2    5.40    3.30
 -25  -1   2   11.60    3.90
 -25  -1   2   20.70    4.80
 -25   1   1   16.60    4.80
 -25   1   1    0.70    3.30
 -25   1   1    7.80    3.70
 -25  -1   1   21.80    5.20
 -25  -1   1    5.60    3.40
 -25  -1   1   11.10    3.90
 -25   1   0  100.09   10.00
 -25   1   0   82.39    7.60
 -25  -1   0   71.79    7.30
 -25  -1   0   92.99    9.40
 -25   1  -1   11.80    3.80
 -25   1  -1   23.10    5.50
 -25  -1  -1   19.90    5.20
 -25  -1  -1    7.00    3.70
 -25   1  -2   25.50    5.60
 -25   1  -2   18.80    4.30
 -25  -1  -2   20.60    4.10
 -25  -1  -2   24.30    5.90
  25   2  -5    2.90    3.20
 -25   2   5    1.50    3.70
 -25  -2   5    3.10    3.50
  25  -2  -5    2.90    3.70
 -25   2   4   13.00    4.10
 -25   2   4   12.80    3.70
 -25  -2   4   12.80    3.90
 -25  -2   4   18.20    3.40
 -25   2   3    7.90    3.70
 -25   2   3   -0.90    3.00
 -25  -2   3    6.50    2.90
 -25  -2   3    1.50    3.40
 -25   2   2   16.50    3.90
 -25   2   2   20.20    4.30
 -25  -2   2   26.60    5.10
 -25  -2   2   17.10    3.70
 -25  -2   2   26.30    4.70
 -25   2   1   82.69    7.40
 -25   2   1   78.19    7.90
 -25   2   1   84.69    9.20
 -25  -2   1   83.39    8.70
 -25  -2   1   88.19    7.90
 -25  -2   1   63.89    6.90
 -25   2   0   14.60    4.10
 -25   2   0   29.30    6.00
 -25  -2   0   18.20    3.80
 -25  -2   0   28.00    5.70
 -25   2  -1   62.39    6.70
 -25   2  -1   89.89    9.60
 -25  -2  -1   93.89    9.80
 -25  -2  -1   79.69    7.50
 -25   3   3   11.80    4.00
 -25   3   3   14.00    3.70
 -25  -3   3    7.30    4.00
 -25  -3   3   21.50    3.50
 -25   3   2   15.20    4.00
 -25   3   2    5.50    3.40
 -25  -3   2   11.40    3.30
 -25  -3   2   17.80    4.50
 -25  -3   2   -0.10    4.00
 -25   3   1   22.10    4.20
 -25   3   1   17.30    4.20
 -25  -3   1   13.10    4.40
 -25  -3   1    8.20    3.30
 -25  -3   1   22.10    5.10
 -25   3   0    0.20    3.40
 -25   3   0    7.30    3.70
 -25  -3   0   15.70    4.90
 -25  -3   0   11.20    4.20
 -25  -3   0    4.90    3.20
 -26   0   3    4.30    3.90
 -26   0   3    2.20    3.10
 -26   0   3   -3.50    3.20
 -26   0   2   -4.40    2.90
 -26   0   2    2.40    3.70
 -26   0   2    5.80    4.00
 -26   0   1   -4.80    3.00
 -26   0   1    6.70    3.70
 -26   0   1    9.00    4.20
 -26   0   0   20.50    4.00
 -26   0   0   21.40    5.40
 -26   1   3    7.50    3.70
 -26   1   3    6.60    3.40
 -26  -1   3    4.40    3.80
 -26  -1   3   10.10    3.20
 -26  -1   3    3.60    2.50
 -26   1   2   11.30    3.80
 -26   1   2   15.90    4.40
 -26   1   2   26.60    5.30
 -26  -1   2    8.80    3.50
 -26  -1   2   25.70    5.10
 -26  -1   2   17.40    4.50
 -26   1   1   32.40    5.80
 -26   1   1   22.60    4.50
 -26   1   1   20.00    4.60
 -26  -1   1   32.90    5.90
 -26  -1   1   22.40    4.20
 -26  -1   1   25.90    4.80
 -26   1   0   60.99    8.70
 -26  -1   0   58.19    8.20
   0   0   0    0.00    0.00

_computing_structure_solution     'SHELXT 2014/5 (Sheldrick, 2014)'
;
_shelx_hkl_checksum              72621
_shelx_shelxl_version_number     2014/7
_olex2_submission_special_instructions 'No special instructions were received'
loop_
_space_group_symop_operation_xyz
'x, y, z'
'-x, y+1/2, -z+1/2'
'-x, -y, -z'
'x, -y-1/2, z-1/2'
loop_
_atom_site_label
_atom_site_type_symbol
_atom_site_fract_x
_atom_site_fract_y
_atom_site_fract_z
_atom_site_U_iso_or_equiv
_atom_site_adp_type
_atom_site_occupancy
_atom_site_site_symmetry_order
_atom_site_calc_flag
_atom_site_refinement_flags_posn
Cl1 Cl 0.45740(4) 0.30978(11) 0.46567(6) 0.0402(2) Uani 1 1 d .
Cl3 Cl 0.49217(4) 0.08906(9) 0.63419(8) 0.0437(2) Uani 1 1 d .
Cl2 Cl 0.41102(4) 0.33102(10) 0.67334(7) 0.0467(3) Uani 1 1 d .
F1 F 0.87348(7) 0.02473(18) 0.44035(11) 0.0222(4) Uani 1 1 d .
F2 F 0.95497(7) 0.22093(18) 0.38324(11) 0.0231(4) Uani 1 1 d .
O3 O 1.29135(8) 0.9099(2) 0.43075(13) 0.0189(4) Uani 1 1 d .
O1 O 0.64787(8) -0.6228(2) 0.85032(14) 0.0199(4) Uani 1 1 d .
O4 O 1.26401(8) 0.8457(2) 0.25561(13) 0.0209(4) Uani 1 1 d .
O2 O 0.61155(8) -0.6336(2) 0.67210(14) 0.0225(4) Uani 1 1 d .
C27 C 0.47397(13) 0.2792(3) 0.6064(2) 0.0259(6) Uani 1 1 d .
H27 H 0.5089 0.3421 0.6343 0.031 Uiso 1 1 calc R
C22 C 1.21163(11) 0.7337(3) 0.39359(19) 0.0149(5) Uani 1 1 d .
C16 C 0.91763(11) 0.0735(3) 0.5167(2) 0.0151(5) Uani 1 1 d .
C25 C 1.25723(11) 0.8347(3) 0.35148(19) 0.0154(5) Uani 1 1 d .
C20 C 1.17330(11) 0.5960(3) 0.53895(19) 0.0160(5) Uani 1 1 d .
H20 H 1.1758 0.5709 0.6125 0.019 Uiso 1 1 calc R
C14 C 1.00679(11) 0.2289(3) 0.5626(2) 0.0158(5) Uani 1 1 d .
C11 C 0.91966(11) 0.0220(3) 0.6239(2) 0.0152(5) Uani 1 1 d .
C3 C 0.69479(11) -0.4692(3) 0.7306(2) 0.0154(5) Uani 1 1 d .
C15 C 0.95995(12) 0.1745(3) 0.48759(19) 0.0160(6) Uani 1 1 d .
C21 C 1.21432(11) 0.6977(3) 0.50437(19) 0.0152(5) Uani 1 1 d .
H21 H 1.2437 0.7423 0.5547 0.018 Uiso 1 1 calc R
C5 C 0.77982(12) -0.3118(3) 0.7997(2) 0.0184(6) Uani 1 1 d .
H5 H 0.8061 -0.2746 0.8583 0.022 Uiso 1 1 calc R
C19 C 1.12800(11) 0.5302(3) 0.4643(2) 0.0158(5) Uani 1 1 d .
C6 C 0.78617(11) -0.2644(3) 0.6933(2) 0.0166(5) Uani 1 1 d .
C7 C 0.74615(12) -0.3210(3) 0.6064(2) 0.0179(6) Uani 1 1 d .
H7 H 0.7502 -0.2906 0.5355 0.022 Uiso 1 1 calc R
C17 C 1.04992(12) 0.3346(3) 0.5288(2) 0.0177(6) Uani 1 1 d .
C12 C 0.96725(12) 0.0752(3) 0.6998(2) 0.0171(6) Uani 1 1 d .
H12 H 0.9702 0.0415 0.7716 0.020 Uiso 1 1 calc R
C13 C 1.00966(12) 0.1765(3) 0.6702(2) 0.0178(6) Uani 1 1 d .
H13 H 1.0406 0.2105 0.7223 0.021 Uiso 1 1 calc R
C18 C 1.08546(12) 0.4242(3) 0.4997(2) 0.0169(6) Uani 1 1 d .
C8 C 0.70072(12) -0.4216(3) 0.6247(2) 0.0175(6) Uani 1 1 d .
H8 H 0.6741 -0.4576 0.5663 0.021 Uiso 1 1 calc R
C24 C 1.12513(11) 0.5686(3) 0.3533(2) 0.0172(6) Uani 1 1 d .
H24 H 1.0951 0.5267 0.3030 0.021 Uiso 1 1 calc R
C23 C 1.16683(11) 0.6682(3) 0.3189(2) 0.0159(5) Uani 1 1 d .
H23 H 1.1651 0.6920 0.2452 0.019 Uiso 1 1 calc R
C2 C 0.64708(11) -0.5817(3) 0.7459(2) 0.0162(5) Uani 1 1 d .
C4 C 0.73487(12) -0.4131(3) 0.8178(2) 0.0173(6) Uani 1 1 d .
H4 H 0.7311 -0.4445 0.8886 0.021 Uiso 1 1 calc R
C9 C 0.83375(12) -0.1620(3) 0.6724(2) 0.0182(6) Uani 1 1 d .
C10 C 0.87367(12) -0.0790(3) 0.6520(2) 0.0181(6) Uani 1 1 d .
C26 C 1.34097(12) 0.9973(3) 0.3971(2) 0.0219(6) Uani 1 1 d .
H26A H 1.3255 1.0660 0.3401 0.033 Uiso 1 1 calc GR
H26B H 1.3701 0.9305 0.3706 0.033 Uiso 1 1 calc GR
H26C H 1.3603 1.0537 0.4582 0.033 Uiso 1 1 calc GR
C1 C 0.60819(13) -0.7459(3) 0.8716(2) 0.0263(7) Uani 1 1 d .
H1A H 0.6192 -0.8348 0.8339 0.039 Uiso 1 1 calc GR
H1B H 0.5668 -0.7192 0.8465 0.039 Uiso 1 1 calc GR
H1C H 0.6122 -0.7656 0.9486 0.039 Uiso 1 1 calc GR
loop_
_atom_site_aniso_label
_atom_site_aniso_U_11
_atom_site_aniso_U_22
_atom_site_aniso_U_33
_atom_site_aniso_U_23
_atom_site_aniso_U_13
_atom_site_aniso_U_12
Cl1 0.0299(4) 0.0605(6) 0.0304(4) 0.0077(4) 0.0037(3) -0.0011(4)
Cl3 0.0326(4) 0.0279(5) 0.0689(6) 0.0060(4) -0.0002(4) 0.0036(3)
Cl2 0.0506(5) 0.0466(6) 0.0475(5) -0.0119(4) 0.0250(4) 0.0033(4)
F1 0.0219(8) 0.0279(9) 0.0155(7) -0.0009(6) -0.0025(6) -0.0039(7)
F2 0.0297(9) 0.0293(9) 0.0107(7) 0.0041(6) 0.0036(6) -0.0033(7)
O3 0.0196(9) 0.0237(10) 0.0135(9) -0.0011(7) 0.0024(7) -0.0083(8)
O1 0.0223(10) 0.0228(10) 0.0150(9) 0.0008(8) 0.0043(7) -0.0071(8)
O4 0.0218(10) 0.0304(11) 0.0110(9) 0.0014(8) 0.0041(7) -0.0017(8)
O2 0.0224(10) 0.0246(11) 0.0196(10) -0.0006(8) -0.0010(8) -0.0048(8)
C27 0.0236(15) 0.0259(16) 0.0282(15) -0.0038(13) 0.0037(12) -0.0043(13)
C22 0.0180(13) 0.0134(13) 0.0136(12) -0.0014(10) 0.0033(10) 0.0020(10)
C16 0.0152(13) 0.0140(14) 0.0157(12) -0.0037(10) 0.0000(10) 0.0013(10)
C25 0.0147(13) 0.0171(14) 0.0141(12) 0.0002(10) 0.0005(10) 0.0035(10)
C20 0.0196(13) 0.0179(14) 0.0108(12) 0.0002(10) 0.0034(10) 0.0006(11)
C14 0.0181(13) 0.0131(13) 0.0171(12) -0.0019(10) 0.0059(10) 0.0011(10)
C11 0.0184(13) 0.0113(13) 0.0170(12) 0.0002(10) 0.0062(10) 0.0025(10)
C3 0.0161(13) 0.0143(13) 0.0164(12) 0.0000(10) 0.0040(10) 0.0033(11)
C15 0.0203(14) 0.0182(14) 0.0102(12) 0.0020(10) 0.0046(10) 0.0027(11)
C21 0.0171(13) 0.0174(14) 0.0111(11) -0.0028(10) 0.0015(10) 0.0002(11)
C5 0.0174(13) 0.0213(15) 0.0164(12) -0.0023(11) 0.0020(10) -0.0007(11)
C19 0.0160(13) 0.0136(13) 0.0185(13) -0.0017(10) 0.0055(10) 0.0022(10)
C6 0.0167(13) 0.0140(13) 0.0196(13) 0.0018(11) 0.0050(10) 0.0019(11)
C7 0.0221(14) 0.0191(14) 0.0135(12) 0.0031(11) 0.0055(10) 0.0042(11)
C17 0.0190(14) 0.0169(14) 0.0170(12) -0.0026(11) 0.0019(10) 0.0011(11)
C12 0.0228(14) 0.0159(14) 0.0129(12) 0.0004(10) 0.0038(10) 0.0019(11)
C13 0.0186(13) 0.0185(15) 0.0159(12) -0.0028(11) 0.0005(10) 0.0023(11)
C18 0.0188(14) 0.0169(14) 0.0147(12) -0.0026(11) 0.0005(10) 0.0021(11)
C8 0.0200(14) 0.0182(14) 0.0138(12) -0.0004(10) 0.0002(10) 0.0025(11)
C24 0.0164(13) 0.0205(15) 0.0139(12) -0.0025(11) -0.0013(10) 0.0014(11)
C23 0.0172(13) 0.0193(14) 0.0109(11) 0.0013(10) 0.0010(10) 0.0031(11)
C2 0.0155(13) 0.0164(14) 0.0169(12) -0.0003(11) 0.0030(10) 0.0025(11)
C4 0.0212(14) 0.0186(14) 0.0126(12) 0.0007(10) 0.0036(10) 0.0014(11)
C9 0.0214(14) 0.0166(14) 0.0169(13) 0.0008(11) 0.0028(11) 0.0033(11)
C10 0.0213(14) 0.0185(15) 0.0145(12) -0.0010(11) 0.0022(10) 0.0026(12)
C26 0.0222(14) 0.0222(15) 0.0223(14) 0.0009(11) 0.0062(11) -0.0071(12)
C1 0.0300(16) 0.0269(16) 0.0230(14) 0.0042(12) 0.0067(12) -0.0098(13)
loop_
_atom_type_symbol
_atom_type_description
_atom_type_scat_dispersion_real
_atom_type_scat_dispersion_imag
_atom_type_scat_source
C C 0.0033 0.0016 'International Tables Vol C Tables 4.2.6.8 and 6.1.1.4'
H H 0.0000 0.0000 'International Tables Vol C Tables 4.2.6.8 and 6.1.1.4'
Cl Cl 0.1484 0.1585 'International Tables Vol C Tables 4.2.6.8 and 6.1.1.4'
F F 0.0171 0.0103 'International Tables Vol C Tables 4.2.6.8 and 6.1.1.4'
O O 0.0106 0.0060 'International Tables Vol C Tables 4.2.6.8 and 6.1.1.4'
loop_
_geom_angle_atom_site_label_1
_geom_angle_atom_site_label_2
_geom_angle_atom_site_label_3
_geom_angle
C25 O3 C26 115.87(19)
C2 O1 C1 116.3(2)
Cl1 C27 Cl3 110.94(16)
Cl1 C27 Cl2 110.06(16)
Cl1 C27 H27 108.8
Cl3 C27 Cl2 109.43(16)
Cl3 C27 H27 108.8
Cl2 C27 H27 108.8
C21 C22 C25 121.9(2)
C23 C22 C25 118.4(2)
C23 C22 C21 119.7(2)
F1 C16 C11 119.9(2)
F1 C16 C15 119.1(2)
C15 C16 C11 121.1(2)
O3 C25 C22 112.9(2)
O4 C25 O3 123.2(2)
O4 C25 C22 123.9(2)
C21 C20 H20 119.7
C21 C20 C19 120.7(2)
C19 C20 H20 119.7
C15 C14 C17 120.0(2)
C15 C14 C13 117.5(2)
C13 C14 C17 122.5(2)
C16 C11 C12 117.3(2)
C16 C11 C10 119.5(2)
C12 C11 C10 123.1(2)
C8 C3 C2 118.2(2)
C8 C3 C4 119.4(2)
C4 C3 C2 122.4(2)
F2 C15 C16 118.1(2)
F2 C15 C14 120.0(2)
C16 C15 C14 121.9(2)
C22 C21 H21 120.0
C20 C21 C22 119.9(2)
C20 C21 H21 120.0
C6 C5 H5 119.9
C4 C5 H5 119.9
C4 C5 C6 120.2(2)
C20 C19 C18 120.9(2)
C20 C19 C24 119.0(2)
C24 C19 C18 120.1(2)
C5 C6 C9 121.1(2)
C7 C6 C5 119.1(2)
C7 C6 C9 119.8(2)
C6 C7 H7 119.6
C8 C7 C6 120.7(2)
C8 C7 H7 119.6
C18 C17 C14 179.2(3)
C11 C12 H12 119.3
C13 C12 C11 121.4(2)
C13 C12 H12 119.3
C14 C13 H13 119.6
C12 C13 C14 120.8(2)
C12 C13 H13 119.6
C17 C18 C19 179.5(3)
C3 C8 H8 120.0
C7 C8 C3 120.0(2)
C7 C8 H8 120.0
C19 C24 H24 120.0
C23 C24 C19 120.1(2)
C23 C24 H24 120.0
C22 C23 H23 119.7
C24 C23 C22 120.6(2)
C24 C23 H23 119.7
O1 C2 C3 112.3(2)
O2 C2 O1 123.4(2)
O2 C2 C3 124.3(2)
C3 C4 H4 119.7
C5 C4 C3 120.6(2)
C5 C4 H4 119.7
C10 C9 C6 178.0(3)
C9 C10 C11 177.6(3)
O3 C26 H26A 109.5
O3 C26 H26B 109.5
O3 C26 H26C 109.5
H26A C26 H26B 109.5
H26A C26 H26C 109.5
H26B C26 H26C 109.5
O1 C1 H1A 109.5
O1 C1 H1B 109.5
O1 C1 H1C 109.5
H1A C1 H1B 109.5
H1A C1 H1C 109.5
H1B C1 H1C 109.5
loop_
_geom_bond_atom_site_label_1
_geom_bond_atom_site_label_2
_geom_bond_distance
Cl1 C27 1.752(3)
Cl3 C27 1.753(3)
Cl2 C27 1.764(3)
F1 C16 1.343(3)
F2 C15 1.344(3)
O3 C25 1.338(3)
O3 C26 1.443(3)
O1 C2 1.338(3)
O1 C1 1.442(3)
O4 C25 1.215(3)
O2 C2 1.218(3)
C27 H27 0.9800
C22 C25 1.487(4)
C22 C21 1.398(3)
C22 C23 1.394(4)
C16 C11 1.396(3)
C16 C15 1.372(4)
C20 H20 0.9300
C20 C21 1.381(4)
C20 C19 1.402(4)
C14 C15 1.389(4)
C14 C17 1.433(4)
C14 C13 1.402(3)
C11 C12 1.403(4)
C11 C10 1.427(4)
C3 C8 1.396(3)
C3 C2 1.479(4)
C3 C4 1.399(3)
C21 H21 0.9300
C5 H5 0.9300
C5 C6 1.403(3)
C5 C4 1.376(4)
C19 C18 1.433(4)
C19 C24 1.406(3)
C6 C7 1.397(4)
C6 C9 1.435(4)
C7 H7 0.9300
C7 C8 1.380(4)
C17 C18 1.201(4)
C12 H12 0.9300
C12 C13 1.377(4)
C13 H13 0.9300
C8 H8 0.9300
C24 H24 0.9300
C24 C23 1.379(4)
C23 H23 0.9300
C4 H4 0.9300
C9 C10 1.197(4)
C26 H26A 0.9600
C26 H26B 0.9600
C26 H26C 0.9600
C1 H1A 0.9600
C1 H1B 0.9600
C1 H1C 0.9600
loop_
_geom_torsion_atom_site_label_1
_geom_torsion_atom_site_label_2
_geom_torsion_atom_site_label_3
_geom_torsion_atom_site_label_4
_geom_torsion
F1 C16 C11 C12 179.2(2)
F1 C16 C11 C10 -1.8(4)
F1 C16 C15 F2 0.4(4)
F1 C16 C15 C14 -179.9(2)
C16 C11 C12 C13 1.1(4)
C25 C22 C21 C20 -176.0(2)
C25 C22 C23 C24 177.2(2)
C20 C19 C24 C23 0.7(4)
C11 C16 C15 F2 -179.2(2)
C11 C16 C15 C14 0.6(4)
C11 C12 C13 C14 -0.4(4)
C15 C16 C11 C12 -1.2(4)
C15 C16 C11 C10 177.8(2)
C15 C14 C13 C12 -0.3(4)
C21 C22 C25 O3 -13.3(3)
C21 C22 C25 O4 165.0(2)
C21 C22 C23 C24 0.1(4)
C21 C20 C19 C18 179.8(2)
C21 C20 C19 C24 0.4(4)
C5 C6 C7 C8 0.3(4)
C19 C20 C21 C22 -1.3(4)
C19 C24 C23 C22 -0.9(4)
C6 C5 C4 C3 -0.4(4)
C6 C7 C8 C3 -0.7(4)
C17 C14 C15 F2 -0.1(4)
C17 C14 C15 C16 -179.8(2)
C17 C14 C13 C12 179.8(2)
C13 C14 C15 F2 180.0(2)
C13 C14 C15 C16 0.2(4)
C18 C19 C24 C23 -178.7(2)
C8 C3 C2 O1 177.3(2)
C8 C3 C2 O2 -1.7(4)
C8 C3 C4 C5 0.0(4)
C23 C22 C25 O3 169.6(2)
C23 C22 C25 O4 -12.0(4)
C23 C22 C21 C20 1.0(4)
C2 C3 C8 C7 -177.5(2)
C2 C3 C4 C5 178.0(2)
C4 C3 C8 C7 0.6(4)
C4 C3 C2 O1 -0.8(3)
C4 C3 C2 O2 -179.7(2)
C4 C5 C6 C7 0.3(4)
C4 C5 C6 C9 -178.3(2)
C9 C6 C7 C8 178.9(2)
C10 C11 C12 C13 -177.9(2)
C26 O3 C25 O4 -4.9(4)
C26 O3 C25 C22 173.4(2)
C1 O1 C2 O2 6.5(4)
C1 O1 C2 C3 -172.5(2)
