#------------------------------------------------------------------------------
#$Date: 2017-06-05 03:21:22 +0300 (Mon, 05 Jun 2017) $
#$Revision: 197420 $
#$URL: file:///home/coder/svn-repositories/cod/cif/4/12/59/4125920.cif $
#------------------------------------------------------------------------------
#
# This file is available in the Crystallography Open Database (COD),
# http://www.crystallography.net/
#
# All data on this site have been placed in the public domain by the
# contributors.
#
data_4125920
loop_
_publ_author_name
'Bezuidenhout, Charl X.'
'Smith, Vincent J.'
'Esterhuysen, Catharine'
'Barbour, Leonard J.'
_publ_section_title
;
 Solvent- and Pressure-Induced Phase Changes in Two 3D Copper
 Glutarate-Based Metal-Organic Frameworks via Glutarate (+gauche &#x21C4;
 -gauche) Conformational Isomerism.
;
_journal_issue                   16
_journal_name_full               'Journal of the American Chemical Society'
_journal_page_first              5923
_journal_page_last               5929
_journal_paper_doi               10.1021/jacs.7b01764
_journal_volume                  139
_journal_year                    2017
_chemical_formula_moiety         '0.25(C92 H104 Cu8 N8 O32), 1.61(C O2)'
_chemical_formula_sum            'C24.61 H26 Cu2 N2 O11.23'
_chemical_formula_weight         656.61
_space_group_crystal_system      orthorhombic
_space_group_IT_number           56
_space_group_name_Hall           '-P 2ab 2ac'
_space_group_name_H-M_alt        'P c c n'
_symmetry_space_group_name_Hall  '-P 2ab 2ac'
_symmetry_space_group_name_H-M   'P c c n'
_atom_sites_solution_hydrogens   geom
_audit_creation_date             2017-03-28
_audit_creation_method
;
Olex2 1.2
(compiled 2017.03.02 svn.r3394 for OlexSys, GUI svn.r5324)
;
_cell_angle_alpha                90
_cell_angle_beta                 90
_cell_angle_gamma                90
_cell_formula_units_Z            4
_cell_length_a                   27.255(9)
_cell_length_b                   11.819(4)
_cell_length_c                   9.148(3)
_cell_measurement_reflns_used    2711
_cell_measurement_temperature    100(2)
_cell_measurement_theta_max      27.292
_cell_measurement_theta_min      2.913
_cell_volume                     2946.8(17)
_computing_cell_refinement       'SAINT v8.27A (Bruker, 2012)'
_computing_data_reduction        'SAINT v8.27A (Bruker, 2012)'
_computing_molecular_graphics    'Olex2 (Dolomanov et al., 2009)'
_computing_publication_material  'Olex2 (Dolomanov et al., 2009)'
_computing_structure_refinement  'ShelXL (Sheldrick, 2015)'
_diffrn_ambient_temperature      100.15
_diffrn_measured_fraction_theta_full 1.000
_diffrn_measured_fraction_theta_max 0.989
_diffrn_measurement_device_type  'Bruker APEX-II CCD'
_diffrn_measurement_method       '\f and \w scans'
_diffrn_radiation_monochromator  graphite
_diffrn_radiation_type           MoK\a
_diffrn_radiation_wavelength     0.71073
_diffrn_reflns_av_R_equivalents  0.0556
_diffrn_reflns_av_unetI/netI     0.0448
_diffrn_reflns_Laue_measured_fraction_full 1.000
_diffrn_reflns_Laue_measured_fraction_max 0.989
_diffrn_reflns_limit_h_max       34
_diffrn_reflns_limit_h_min       -35
_diffrn_reflns_limit_k_max       13
_diffrn_reflns_limit_k_min       -15
_diffrn_reflns_limit_l_max       7
_diffrn_reflns_limit_l_min       -11
_diffrn_reflns_number            16238
_diffrn_reflns_point_group_measured_fraction_full 1.000
_diffrn_reflns_point_group_measured_fraction_max 0.989
_diffrn_reflns_theta_full        25.000
_diffrn_reflns_theta_max         27.564
_diffrn_reflns_theta_min         1.494
_diffrn_standards_number         0
_exptl_absorpt_coefficient_mu    1.502
_exptl_absorpt_correction_T_max  0.9484
_exptl_absorpt_correction_T_min  0.7202
_exptl_absorpt_correction_type   multi-scan
_exptl_absorpt_process_details
;
SADABS-2012/1 (Bruker,2012) was used for absorption correction.
wR2(int) was 0.0885 before and 0.0412 after correction.
The Ratio of minimum to maximum transmission is 0.7753.
The \l/2 correction factor is 0.0015.
;
_exptl_crystal_colour            'clear greenish green'
_exptl_crystal_colour_lustre     clear
_exptl_crystal_colour_modifier   greenish
_exptl_crystal_colour_primary    green
_exptl_crystal_density_diffrn    1.480
_exptl_crystal_description       block
_exptl_crystal_F_000             1342
_exptl_crystal_size_max          0.21
_exptl_crystal_size_mid          0.155
_exptl_crystal_size_min          0.05
_refine_diff_density_max         0.484
_refine_diff_density_min         -0.450
_refine_diff_density_rms         0.092
_refine_ls_extinction_method     none
_refine_ls_goodness_of_fit_ref   1.044
_refine_ls_hydrogen_treatment    constr
_refine_ls_matrix_type           full
_refine_ls_number_parameters     200
_refine_ls_number_reflns         3372
_refine_ls_number_restraints     0
_refine_ls_restrained_S_all      1.044
_refine_ls_R_factor_all          0.0609
_refine_ls_R_factor_gt           0.0385
_refine_ls_shift/su_max          0.001
_refine_ls_shift/su_mean         0.000
_refine_ls_structure_factor_coef Fsqd
_refine_ls_weighting_details
'w=1/[\s^2^(Fo^2^)+(0.0442P)^2^+2.3083P] where P=(Fo^2^+2Fc^2^)/3'
_refine_ls_weighting_scheme      calc
_refine_ls_wR_factor_gt          0.0895
_refine_ls_wR_factor_ref         0.0995
_reflns_Friedel_coverage         0.000
_reflns_number_gt                2488
_reflns_number_total             3372
_reflns_threshold_expression     'I > 2\s(I)'
_iucr_refine_instructions_details
;
TITL solve1 in Pccn
    2b_prime.res
    created by SHELXL-2016/6 at 20:14:01 on 28-Mar-2017
REM solve1 in Pccn
REM 179 parameters refined using 0 restraints
REM Highest difference peak 0.724, deepest hole -0.693, 1-sigma level 0.099
REM 202 parameters refined using 0 restraints
REM Highest difference peak 0.484, deepest hole -0.448, 1-sigma level 0.092
REM 200 parameters refined using 0 restraints
REM Highest difference peak 0.484, deepest hole -0.450, 1-sigma level 0.092
CELL 0.71073 27.2549 11.8185 9.1477 90 90 90
ZERR 4 0.009 0.004 0.003 0 0 0
LATT 1
SYMM 0.5-X,0.5-Y,+Z
SYMM 0.5+X,-Y,0.5-Z
SYMM -X,0.5+Y,0.5-Z
SFAC C H Cu N O
UNIT 98.46 104 8 8 44.92

L.S. 10
PLAN  20
TEMP -173
GRID
BOND $H
fmap 2
acta 50
MERG 2
REM <olex2.extras>
REM <HklSrc "%.\\2b_prime.hkl">
REM </olex2.extras>

WGHT    0.044200    2.308300
FVAR       0.08540
CU1   3    0.539164    0.523299    0.577797    11.00000    0.01241    0.01085 =
         0.01323   -0.00021   -0.00172   -0.00192
O2    5    0.554059    0.360741    0.581701    11.00000    0.01555    0.01370 =
         0.02632   -0.00208   -0.00461    0.00050
O1    5    0.575816    0.528383    0.391799    11.00000    0.01858    0.02898 =
         0.01571   -0.00140    0.00045   -0.01036
O4    5    0.513522    0.677512    0.548753    11.00000    0.02488    0.01359 =
         0.02555    0.00223   -0.01200   -0.00121
O3    5    0.492356    0.501109    0.739301    11.00000    0.01426    0.02712 =
         0.01491    0.00164   -0.00059   -0.00025
C4    1    0.668717    0.654543    0.921582    11.00000    0.01205    0.02093 =
         0.01174    0.00262    0.00088   -0.00450
N5    4    0.597439    0.580365    0.722415    11.00000    0.01282    0.01587 =
         0.01459   -0.00160    0.00070   -0.00281
C6    1    0.634928    0.513588    0.762374    11.00000    0.01645    0.01438 =
         0.02181   -0.00247   -0.00073    0.00177
AFIX  43
H6    2    0.636718    0.439571    0.722223    11.00000   -1.20000
AFIX   0
C8    1    0.553507    0.510342    0.273271    11.00000    0.01985    0.00699 =
         0.01772    0.00100    0.00164   -0.00127
C9    1    0.583348    0.133245    0.595558    11.00000    0.01749    0.01542 =
         0.02013    0.00215    0.00256    0.00066
AFIX  23
H9A   2    0.588085    0.179396    0.684766    11.00000   -1.20000
H9B   2    0.611071    0.148992    0.528657    11.00000   -1.20000
AFIX   0
C10   1    0.583971    0.006893    0.637449    11.00000    0.01589    0.01680 =
         0.01702   -0.00118    0.00206    0.00426
AFIX  23
H10A  2    0.570460   -0.038923    0.556281    11.00000   -1.20000
H10B  2    0.618122   -0.017943    0.655614    11.00000   -1.20000
AFIX   0
C11   1    0.535475    0.168270    0.521599    11.00000    0.02332    0.01219 =
         0.01988    0.00186   -0.00640   -0.00161
AFIX  23
H11A  2    0.535940    0.139828    0.419814    11.00000   -1.20000
H11B  2    0.508022    0.130218    0.572637    11.00000   -1.20000
AFIX   0
C12   1    0.671015    0.547136    0.858931    11.00000    0.01341    0.02004 =
         0.02025    0.00104   -0.00218    0.00135
AFIX  43
H12   2    0.697228    0.497405    0.882532    11.00000   -1.20000
AFIX   0
C13   1    0.525002    0.293408    0.517748    11.00000    0.01647    0.01327 =
         0.01398    0.00015    0.00190   -0.00065
C16   1    0.595509    0.683577    0.783016    11.00000    0.01349    0.01473 =
         0.02076   -0.00009   -0.00083   -0.00095
AFIX  43
H16   2    0.569087    0.731910    0.756782    11.00000   -1.20000
AFIX   0
C1    1    0.750000    0.750000    0.929855    10.50000    0.01142    0.02989 =
         0.01393    0.00000    0.00000   -0.00764
AFIX  23
H1A   2    0.764097    0.690736    0.865933    10.50000   -1.20000
H1B   2    0.735904    0.809261    0.865928    10.50000   -1.20000
AFIX   0
C2    1    0.708536    0.697549    1.020578    11.00000    0.01417    0.02546 =
         0.01190   -0.00033   -0.00053   -0.00301
AFIX  23
H2A   2    0.721634    0.634376    1.079974    11.00000   -1.20000
H2B   2    0.694892    0.755065    1.087944    11.00000   -1.20000
AFIX   0
C3    1    0.629653    0.723333    0.881019    11.00000    0.01617    0.01707 =
         0.01662   -0.00144    0.00100   -0.00244
AFIX  43
H3    2    0.626569    0.797269    0.920717    11.00000   -1.20000
AFIX   0

O6    5    0.666274    0.174509    0.900140    10.59751    0.06150    0.06916 =
         0.08749   -0.03083   -0.01476    0.02085
O5    5    0.691729   -0.004688    0.912741    10.59751    0.02941    0.07277 =
         0.16373   -0.01597   -0.00383    0.00971
C7    1    0.678711    0.085826    0.906822    10.59751    0.02496    0.06147 =
         0.05711   -0.01543   -0.00292    0.00897
PART 1
O7    5    0.748768    0.152461    0.644498    10.41972    0.21687    0.12647 =
         0.10369    0.02083    0.06004    0.11286
PART 0
C14   1    0.750000    0.250000    0.645858    10.20986    0.22583    0.16115 =
         0.08415    0.00000    0.00000    0.15228
HKLF 4




REM  solve1 in Pccn
REM R1 =  0.0385 for    2488 Fo > 4sig(Fo)  and  0.0609 for all    3372 data
REM    200 parameters refined using      0 restraints

END  
     
WGHT      0.0442      2.3083 

REM Highest difference peak  0.484,  deepest hole -0.450,  1-sigma level  0.092
Q1    1   0.7871  0.2177  0.7422  11.00000  0.05    0.48
Q2    1   0.5599  0.4847  0.1958  11.00000  0.05    0.37
Q3    1   0.7096  0.0768  0.7155  11.00000  0.05    0.37
Q4    1   0.7089  0.2839  0.8850  11.00000  0.05    0.37
Q5    1   0.6865  0.2418  0.8452  11.00000  0.05    0.37
Q6    1   0.6825  0.6811  0.9581  11.00000  0.05    0.36
Q7    1   0.7587  0.2400  0.6211  11.00000  0.05    0.35
Q8    1   0.7134  0.1838  0.7255  11.00000  0.05    0.35
Q9    1   0.5317  0.6004  0.6407  11.00000  0.05    0.35
Q10   1   0.7204  0.1003  0.6849  11.00000  0.05    0.34
Q11   1   0.6921  0.2031  0.9437  11.00000  0.05    0.34
Q12   1   0.7881  0.2908  0.5540  11.00000  0.05    0.34
Q13   1   0.7671  0.2262  0.5977  11.00000  0.05    0.34
Q14   1   0.6977  0.0197  0.8018  11.00000  0.05    0.34
Q15   1   0.7418  0.1762  0.5705  11.00000  0.05    0.34
Q16   1   0.7501  0.0843  0.6074  11.00000  0.05    0.33
Q17   1   0.7223  0.2187  0.9740  11.00000  0.05    0.33
Q18   1   0.5306  0.5175  0.2739  11.00000  0.05    0.33
Q19   1   0.5327  0.2343  0.5265  11.00000  0.05    0.33
Q20   1   0.7188  0.1492  0.6276  11.00000  0.05    0.33

  REM The information below was added by Olex2.
  REM
  REM R1 = 0.0385 for 2488 Fo > 4sig(Fo) and 0.0609 for all 17575 data
  REM n/a parameters refined using n/a restraints
  REM Highest difference peak 0.48, deepest hole -0.45
  REM Mean Shift 0, Max Shift 0.001.

  REM +++ Tabular Listing of Refinement Information +++
  REM R1_all = 0.0609
  REM R1_gt = 0.0385
  REM wR_ref = 0.0995
  REM GOOF = 1.044
  REM Shift_max = 0.001
  REM Shift_mean = 0
  REM Reflections_all = 17575
  REM Reflections_gt = 2488
  REM Parameters = n/a
  REM Hole = -0.45
  REM Peak = 0.48
  REM Flack = n/a

  
;
_cod_data_source_file            2b_prime.cif
_cod_data_source_block           2b_prime
_cod_depositor_comments
'Adding full bibliography for 4125916--4125921.cif.'
_cod_original_cell_volume        2946.6(17)
_cod_database_code               4125920
_shelx_shelxl_version_number     2016/6
_shelx_space_group_comment
;
The symmetry employed for this shelxl refinement is uniquely defined
by the following loop, which should always be used as a source of
symmetry information in preference to the above space-group names.
They are only intended as comments.
;
_olex2_refinement_description
;
1. Fixed Uiso
 At 1.2 times of:
  All C(H) groups, All C(H,H) groups
2. Others
 Fixed Sof: H1A(0.5) H1B(0.5) O6(0.59751) O5(0.59751) C7(0.59751) O7(0.41972)
 C14(0.20986)
3.a Secondary CH2 refined with riding coordinates:
 C9(H9A,H9B), C10(H10A,H10B), C11(H11A,H11B), C1(H1A,H1B), C2(H2A,H2B)
3.b Aromatic/amide H refined with riding coordinates:
 C6(H6), C12(H12), C16(H16), C3(H3)
;
_olex2_submission_special_instructions 'No special instructions were received'
loop_
_space_group_symop_operation_xyz
'x, y, z'
'-x+1/2, -y+1/2, z'
'x+1/2, -y, -z+1/2'
'-x, y+1/2, -z+1/2'
'-x, -y, -z'
'x-1/2, y-1/2, -z'
'-x-1/2, y, z-1/2'
'x, -y-1/2, z-1/2'
loop_
_atom_site_label
_atom_site_type_symbol
_atom_site_fract_x
_atom_site_fract_y
_atom_site_fract_z
_atom_site_U_iso_or_equiv
_atom_site_adp_type
_atom_site_occupancy
_atom_site_site_symmetry_order
_atom_site_calc_flag
_atom_site_refinement_flags_posn
_atom_site_refinement_flags_adp
_atom_site_refinement_flags_occupancy
_atom_site_disorder_assembly
_atom_site_disorder_group
Cu1 Cu 0.53916(2) 0.52330(3) 0.57780(4) 0.01217(11) Uani 1 1 d . . . . .
O2 O 0.55406(7) 0.36074(16) 0.5817(2) 0.0185(4) Uani 1 1 d . . . . .
O1 O 0.57582(7) 0.52838(17) 0.3918(2) 0.0211(5) Uani 1 1 d . . . . .
O4 O 0.51352(7) 0.67751(16) 0.5488(2) 0.0213(5) Uani 1 1 d . . . . .
O3 O 0.49236(7) 0.50111(16) 0.7393(2) 0.0188(4) Uani 1 1 d . . . . .
C4 C 0.66872(10) 0.6545(2) 0.9216(3) 0.0149(6) Uani 1 1 d . . . . .
N5 N 0.59744(8) 0.58037(18) 0.7224(3) 0.0144(5) Uani 1 1 d . . . . .
C6 C 0.63493(10) 0.5136(2) 0.7624(3) 0.0175(6) Uani 1 1 d . . . . .
H6 H 0.636718 0.439571 0.722223 0.021 Uiso 1 1 calc R . . . .
C8 C 0.55351(10) 0.5103(2) 0.2733(3) 0.0149(6) Uani 1 1 d . . . . .
C9 C 0.58335(10) 0.1332(2) 0.5956(3) 0.0177(6) Uani 1 1 d . . . . .
H9A H 0.588085 0.179396 0.684766 0.021 Uiso 1 1 calc R . . . .
H9B H 0.611071 0.148992 0.528657 0.021 Uiso 1 1 calc R . . . .
C10 C 0.58397(10) 0.0069(2) 0.6374(3) 0.0166(6) Uani 1 1 d . . . . .
H10A H 0.570460 -0.038923 0.556281 0.020 Uiso 1 1 calc R . . . .
H10B H 0.618122 -0.017943 0.655614 0.020 Uiso 1 1 calc R . . . .
C11 C 0.53548(11) 0.1683(2) 0.5216(3) 0.0185(6) Uani 1 1 d . . . . .
H11A H 0.535940 0.139828 0.419814 0.022 Uiso 1 1 calc R . . . .
H11B H 0.508022 0.130218 0.572637 0.022 Uiso 1 1 calc R . . . .
C12 C 0.67101(10) 0.5471(2) 0.8589(3) 0.0179(6) Uani 1 1 d . . . . .
H12 H 0.697228 0.497405 0.882532 0.021 Uiso 1 1 calc R . . . .
C13 C 0.52500(10) 0.2934(2) 0.5177(3) 0.0146(6) Uani 1 1 d . . . . .
C16 C 0.59551(10) 0.6836(2) 0.7830(3) 0.0163(6) Uani 1 1 d . . . . .
H16 H 0.569087 0.731910 0.756782 0.020 Uiso 1 1 calc R . . . .
C1 C 0.750000 0.750000 0.9299(4) 0.0184(9) Uani 1 2 d S T P . .
H1A H 0.764097 0.690736 0.865933 0.022 Uiso 0.5 1 calc R . . . .
H1B H 0.735904 0.809261 0.865928 0.022 Uiso 0.5 1 calc R . . . .
C2 C 0.70854(10) 0.6975(2) 1.0206(3) 0.0172(6) Uani 1 1 d . . . . .
H2A H 0.721634 0.634376 1.079974 0.021 Uiso 1 1 calc R . . . .
H2B H 0.694892 0.755065 1.087944 0.021 Uiso 1 1 calc R . . . .
C3 C 0.62965(10) 0.7233(2) 0.8810(3) 0.0166(6) Uani 1 1 d . . . . .
H3 H 0.626569 0.797269 0.920717 0.020 Uiso 1 1 calc R . . . .
O6 O 0.6663(2) 0.1745(5) 0.9001(7) 0.0727(17) Uani 0.5975 1 d . . . . .
O5 O 0.69173(19) -0.0047(5) 0.9127(9) 0.089(2) Uani 0.5975 1 d . . . . .
C7 C 0.6787(2) 0.0858(7) 0.9068(8) 0.0478(18) Uani 0.5975 1 d . . . . .
O7 O 0.7488(6) 0.1525(10) 0.6445(13) 0.149(6) Uani 0.4197 1 d . . . A 1
C14 C 0.750000 0.250000 0.646(3) 0.157(15) Uani 0.4197 2 d S T P . .
loop_
_atom_site_aniso_label
_atom_site_aniso_U_11
_atom_site_aniso_U_22
_atom_site_aniso_U_33
_atom_site_aniso_U_23
_atom_site_aniso_U_13
_atom_site_aniso_U_12
Cu1 0.01241(18) 0.01085(17) 0.01323(18) -0.00021(14) -0.00172(14) -0.00192(12)
O2 0.0156(10) 0.0137(10) 0.0263(12) -0.0021(9) -0.0046(9) 0.0005(7)
O1 0.0186(11) 0.0290(11) 0.0157(11) -0.0014(9) 0.0005(8) -0.0104(9)
O4 0.0249(11) 0.0136(10) 0.0256(12) 0.0022(9) -0.0120(9) -0.0012(8)
O3 0.0143(10) 0.0271(11) 0.0149(10) 0.0016(9) -0.0006(8) -0.0003(8)
C4 0.0120(13) 0.0209(14) 0.0117(13) 0.0026(12) 0.0009(11) -0.0045(10)
N5 0.0128(11) 0.0159(12) 0.0146(12) -0.0016(10) 0.0007(9) -0.0028(9)
C6 0.0164(14) 0.0144(13) 0.0218(16) -0.0025(12) -0.0007(12) 0.0018(11)
C8 0.0198(14) 0.0070(12) 0.0177(15) 0.0010(11) 0.0016(12) -0.0013(10)
C9 0.0175(14) 0.0154(14) 0.0201(16) 0.0022(12) 0.0026(12) 0.0007(11)
C10 0.0159(14) 0.0168(14) 0.0170(14) -0.0012(12) 0.0021(12) 0.0043(11)
C11 0.0233(15) 0.0122(13) 0.0199(15) 0.0019(12) -0.0064(13) -0.0016(11)
C12 0.0134(14) 0.0200(15) 0.0202(16) 0.0010(12) -0.0022(12) 0.0014(11)
C13 0.0165(14) 0.0133(13) 0.0140(14) 0.0002(11) 0.0019(11) -0.0007(10)
C16 0.0135(14) 0.0147(13) 0.0208(15) -0.0001(12) -0.0008(12) -0.0009(10)
C1 0.0114(19) 0.030(2) 0.014(2) 0.000 0.000 -0.0076(16)
C2 0.0142(14) 0.0255(15) 0.0119(14) -0.0003(12) -0.0005(11) -0.0030(11)
C3 0.0162(14) 0.0171(14) 0.0166(15) -0.0014(11) 0.0010(11) -0.0024(11)
O6 0.062(4) 0.069(4) 0.087(4) -0.031(3) -0.015(3) 0.021(3)
O5 0.029(3) 0.073(4) 0.164(7) -0.016(4) -0.004(3) 0.010(3)
C7 0.025(3) 0.061(5) 0.057(5) -0.015(4) -0.003(3) 0.009(3)
O7 0.217(14) 0.126(10) 0.104(9) 0.021(8) 0.060(9) 0.113(10)
C14 0.23(3) 0.16(3) 0.084(18) 0.000 0.000 0.15(3)
loop_
_atom_type_symbol
_atom_type_description
_atom_type_scat_dispersion_real
_atom_type_scat_dispersion_imag
_atom_type_scat_source
C C 0.0033 0.0016 'International Tables Vol C Tables 4.2.6.8 and 6.1.1.4'
H H 0.0000 0.0000 'International Tables Vol C Tables 4.2.6.8 and 6.1.1.4'
Cu Cu 0.3201 1.2651 'International Tables Vol C Tables 4.2.6.8 and 6.1.1.4'
N N 0.0061 0.0033 'International Tables Vol C Tables 4.2.6.8 and 6.1.1.4'
O O 0.0106 0.0060 'International Tables Vol C Tables 4.2.6.8 and 6.1.1.4'
loop_
_geom_angle_atom_site_label_1
_geom_angle_atom_site_label_2
_geom_angle_atom_site_label_3
_geom_angle
_geom_angle_site_symmetry_1
_geom_angle_site_symmetry_3
O2 Cu1 Cu1 88.44(6) . 5_666
O2 Cu1 O1 86.61(9) . .
O2 Cu1 O4 168.76(8) . .
O2 Cu1 O3 89.43(8) . .
O2 Cu1 N5 98.13(8) . .
O1 Cu1 Cu1 87.17(6) . 5_666
O1 Cu1 N5 98.36(9) . .
O4 Cu1 Cu1 80.35(6) . 5_666
O4 Cu1 O1 92.01(9) . .
O4 Cu1 N5 93.11(8) . .
O3 Cu1 Cu1 81.49(6) . 5_666
O3 Cu1 O1 168.08(8) . .
O3 Cu1 O4 89.69(8) . .
O3 Cu1 N5 93.33(9) . .
N5 Cu1 Cu1 171.63(6) . 5_666
C13 O2 Cu1 118.50(18) . .
C8 O1 Cu1 119.46(18) . .
C13 O4 Cu1 127.77(18) 5_666 .
C8 O3 Cu1 125.96(19) 5_666 .
C12 C4 C2 121.6(3) . .
C3 C4 C12 117.2(3) . .
C3 C4 C2 121.1(3) . .
C6 N5 Cu1 122.65(18) . .
C16 N5 Cu1 120.34(18) . .
C16 N5 C6 116.9(2) . .
N5 C6 H6 118.4 . .
N5 C6 C12 123.2(3) . .
C12 C6 H6 118.4 . .
O1 C8 O3 125.0(3) . 5_666
O1 C8 C10 117.8(2) . 8_565
O3 C8 C10 117.1(3) 5_666 8_565
H9A C9 H9B 107.8 . .
C10 C9 H9A 109.1 . .
C10 C9 H9B 109.1 . .
C11 C9 H9A 109.1 . .
C11 C9 H9B 109.1 . .
C11 C9 C10 112.5(2) . .
C8 C10 C9 109.2(2) 8_566 .
C8 C10 H10A 109.8 8_566 .
C8 C10 H10B 109.8 8_566 .
C9 C10 H10A 109.8 . .
C9 C10 H10B 109.8 . .
H10A C10 H10B 108.3 . .
C9 C11 H11A 108.3 . .
C9 C11 H11B 108.3 . .
H11A C11 H11B 107.4 . .
C13 C11 C9 116.0(2) . .
C13 C11 H11A 108.3 . .
C13 C11 H11B 108.3 . .
C4 C12 H12 120.2 . .
C6 C12 C4 119.5(3) . .
C6 C12 H12 120.2 . .
O2 C13 C11 119.2(2) . .
O4 C13 O2 124.9(3) 5_666 .
O4 C13 C11 115.9(2) 5_666 .
N5 C16 H16 118.2 . .
N5 C16 C3 123.6(3) . .
C3 C16 H16 118.2 . .
H1A C1 H1B 107.6 . .
C2 C1 H1A 108.6 2_665 .
C2 C1 H1A 108.6 . .
C2 C1 H1B 108.6 . .
C2 C1 H1B 108.6 2_665 .
C2 C1 C2 114.4(3) 2_665 .
C4 C2 C1 110.1(2) . .
C4 C2 H2A 109.6 . .
C4 C2 H2B 109.6 . .
C1 C2 H2A 109.6 . .
C1 C2 H2B 109.6 . .
H2A C2 H2B 108.2 . .
C4 C3 H3 120.2 . .
C16 C3 C4 119.5(3) . .
C16 C3 H3 120.2 . .
O6 C7 O5 179.4(11) . .
O7 C14 O7 179(3) . 2_655
loop_
_geom_bond_atom_site_label_1
_geom_bond_atom_site_label_2
_geom_bond_distance
_geom_bond_site_symmetry_2
Cu1 Cu1 2.6242(9) 5_666
Cu1 O2 1.964(2) .
Cu1 O1 1.974(2) .
Cu1 O4 1.970(2) .
Cu1 O3 1.970(2) .
Cu1 N5 2.174(2) .
O2 C13 1.266(3) .
O1 C8 1.261(3) .
O4 C13 1.261(3) 5_666
O3 C8 1.263(3) 5_666
C4 C12 1.394(4) .
C4 C2 1.502(4) .
C4 C3 1.390(4) .
N5 C6 1.342(3) .
N5 C16 1.341(3) .
C6 H6 0.9500 .
C6 C12 1.380(4) .
C8 C10 1.508(4) 8_565
C9 H9A 0.9900 .
C9 H9B 0.9900 .
C9 C10 1.542(4) .
C9 C11 1.527(4) .
C10 H10A 0.9900 .
C10 H10B 0.9900 .
C11 H11A 0.9900 .
C11 H11B 0.9900 .
C11 C13 1.507(4) .
C12 H12 0.9500 .
C16 H16 0.9500 .
C16 C3 1.375(4) .
C1 H1A 0.9900 .
C1 H1B 0.9900 .
C1 C2 1.533(3) .
C1 C2 1.533(3) 2_665
C2 H2A 0.9900 .
C2 H2B 0.9900 .
C3 H3 0.9500 .
O6 C7 1.103(9) .
O5 C7 1.128(9) .
O7 C14 1.153(12) .
loop_
_refln_index_h
_refln_index_k
_refln_index_l
_refln_F_squared_meas
_refln_F_squared_sigma
0 0 -1 -0.16 0.15
0 0 -1 -0.17 0.12
0 0 -2 219.48 3.86
0 0 -2 218.91 3.95
0 0 -3 -0.31 0.31
0 0 -3 -0.51 0.31
0 0 -4 39.09 1.46
0 0 -4 40.91 1.55
0 0 -5 0.49 0.37
0 0 -5 -0.04 0.35
0 0 -6 472.99 9.11
0 0 -6 475.67 8.92
0 0 -7 0.42 0.47
0 0 -7 -0.16 0.44
0 0 -8 4.21 0.9
0 0 -8 2.47 0.73
0 0 -9 -0.16 0.59
0 0 -9 0.36 0.63
0 0 -10 2.12 0.9
0 0 -10 1.41 0.79
-1 0 0 -1.4 0.01
-1 0 0 -1.4 0.01
-1 0 -1 -0.19 0.12
-1 0 -1 0.1 0.14
1 0 -1 -0.26 0.11
-1 0 -2 28.41 0.94
-1 0 -2 28.84 0.94
1 0 -2 27.94 0.99
1 0 -2 29.04 0.92
-1 0 -3 -0.65 0.26
-1 0 -3 -0.53 0.25
1 0 -3 -0.04 0.28
1 0 -3 -0.58 0.27
-1 0 -4 1.24 0.43
-1 0 -4 1.54 0.43
1 0 -4 2.27 0.47
1 0 -4 1.92 0.51
-1 0 -5 0.2 0.33
-1 0 -5 -0.1 0.33
1 0 -5 -0.09 0.32
1 0 -5 0.29 0.36
-1 0 -6 11.65 1.14
-1 0 -6 12.69 1.21
1 0 -6 11.97 1.2
1 0 -6 12.64 1.17
-1 0 -7 -0.28 0.39
-1 0 -7 -0.2 0.46
1 0 -7 -0.08 0.46
1 0 -7 -0.04 0.43
-1 0 -8 2.04 0.75
-1 0 -8 2.61 0.81
1 0 -8 1.58 0.68
1 0 -8 2.19 0.75
-1 0 -9 0.22 0.61
-1 0 -9 0.71 0.63
1 0 -9 -0.97 0.56
1 0 -9 0.17 0.6
-1 0 -10 0.81 0.73
1 0 -10 1.02 0.85
1 0 -10 1.23 0.79
-2 0 0 868.68 14.29
-2 0 0 1000 14.42
-2 0 -1 -0.3 0.15
-2 0 -1 -0.27 0.13
2 0 -1 -0.31 0.15
-2 0 -2 50.27 1.27
-2 0 -2 48.22 1.3
2 0 -2 49.16 1.27
-2 0 -3 0.2 0.29
-2 0 -3 0.41 0.29
2 0 -3 -0.43 0.28
2 0 -3 -0.01 0.28
-2 0 -4 17.48 1.01
-2 0 -4 17.61 1
2 0 -4 19.76 1.14
2 0 -4 18.36 1
-2 0 -5 0.2 0.33
-2 0 -5 0.56 0.37
2 0 -5 0.07 0.35
2 0 -5 -0.21 0.35
-2 0 -6 184.31 4.44
-2 0 -6 189.69 4.53
2 0 -6 186.04 4.68
2 0 -6 197.56 4.47
-2 0 -7 -0.17 0.47
-2 0 -7 0.35 0.52
2 0 -7 0.29 0.52
2 0 -7 0.73 0.57
-2 0 -8 14.45 1.56
-2 0 -8 16.38 1.55
2 0 -8 15.05 1.52
2 0 -8 13.37 1.54
-2 0 -9 0.14 0.58
-2 0 -9 -0.35 0.55
2 0 -9 0.14 0.61
2 0 -9 -0.08 0.58
-2 0 -10 1.22 0.86
2 0 -10 0.64 0.74
2 0 -10 0.03 0.77
-3 0 0 0.15 0.12
-3 0 0 0 0.1
-3 0 -1 -0.18 0.16
-3 0 -1 0.14 0.19
3 0 1 -0.05 0.12
3 0 -1 -0.14 0.16
-3 0 -2 205.89 3.63
-3 0 -2 203.73 3.75
3 0 -2 206.07 3.69
-3 0 -3 -0.15 0.28
-3 0 -3 -0.37 0.24
3 0 -3 0.12 0.28
-3 0 -4 208.96 4.27
-3 0 -4 204.63 4.22
3 0 -4 210.36 4.55
3 0 -4 206.34 4.21
-3 0 -5 0.35 0.36
-3 0 -5 0.44 0.34
3 0 -5 0.58 0.36
3 0 -5 0.51 0.4
-3 0 -6 10.22 1.1
-3 0 -6 11.21 1.14
3 0 -6 9.58 1.15
3 0 -6 10.19 1.07
-3 0 -7 0.05 0.43
-3 0 -7 -0.59 0.4
3 0 -7 0.46 0.54
3 0 -7 -0.56 0.45
-3 0 -8 6.36 1.07
-3 0 -8 5.18 0.99
3 0 -8 5.97 1.13
3 0 -8 9.21 1.21
-3 0 -9 -0.18 0.56
-3 0 -9 -0.12 0.61
3 0 -9 0.01 0.63
3 0 -9 -0.38 0.6
-3 0 -10 42.48 2.5
3 0 -10 39.17 2.61
3 0 -10 43.25 2.45
3 0 -11 -0.54 0.89
-4 0 0 123.44 2.24
-4 0 0 121.77 2.17
-4 0 -1 -0.23 0.17
-4 0 -1 -0.13 0.2
4 0 1 -0.19 0.13
4 0 -1 -0.05 0.2
-4 0 -2 293.78 4.91
-4 0 -2 282.7 5.04
4 0 -2 287.74 4.99
-4 0 -3 0.18 0.28
-4 0 -3 -0.11 0.24
4 0 -3 -0.32 0.27
-4 0 -4 24.4 1.21
-4 0 -4 25.44 1.15
4 0 -4 23.78 1.15
4 0 -4 24.03 1.31
-4 0 -5 0.15 0.33
-4 0 -5 0.01 0.35
4 0 -5 0.06 0.32
4 0 -5 -0.17 0.37
-4 0 -6 16.98 1.24
-4 0 -6 17.97 1.21
4 0 -6 17.01 1.2
4 0 -6 18.19 1.37
-4 0 -7 -0.26 0.48
-4 0 -7 -0.25 0.39
4 0 -7 0.08 0.42
4 0 -7 0.25 0.53
-4 0 -8 25.38 1.71
-4 0 -8 28.02 1.82
4 0 -8 28.98 1.99
4 0 -8 25.84 1.74
-4 0 -9 0.68 0.67
4 0 -9 0.47 0.65
4 0 -9 -0.62 0.66
-4 0 -10 0.85 0.76
4 0 -10 0.22 0.77
4 0 -10 1.15 0.8
4 0 -11 0.18 0.95
-5 0 0 -0.07 0.16
-5 0 0 -0.03 0.19
-5 0 -1 0.05 0.22
-5 0 -1 -0.29 0.17
5 0 -1 0.02 0.23
5 0 1 0.03 0.14
-5 0 -2 886.07 13.71
-5 0 -2 874.01 13.88
5 0 -2 862.18 13.77
-5 0 -3 -0.01 0.26
-5 0 -3 -0.62 0.25
5 0 -3 -0.15 0.28
-5 0 -4 408.46 7.22
-5 0 -4 404.47 7.4
5 0 -4 404.89 7.28
-5 0 -5 -0.34 0.3
-5 0 -5 -0.07 0.31
5 0 -5 -0.23 0.29
5 0 -5 -0.28 0.37
-5 0 -6 3.58 0.71
-5 0 -6 4.42 0.73
5 0 -6 4.08 0.8
5 0 -6 3.66 0.72
-5 0 -7 -0.61 0.4
-5 0 -7 -0.02 0.41
5 0 -7 0.22 0.46
5 0 -7 -0.02 0.46
-5 0 -8 16.76 1.57
-5 0 -8 15.26 1.55
5 0 -8 15.48 1.76
5 0 -8 17.3 1.63
-5 0 -9 0.74 0.73
5 0 -9 0.06 0.69
5 0 -9 0.36 0.7
-5 0 -10 29.51 2.15
5 0 -10 30.37 2.36
-5 0 -11 -0.88 0.71
5 0 -11 -0.29 0.88
-6 0 0 1.45 0.3
-6 0 -1 0.5 0.26
-6 0 -1 0.15 0.21
-6 0 1 -0.2 0.22
6 0 1 -0.15 0.14
-6 0 -2 57.62 1.61
-6 0 -2 58.35 1.42
6 0 -2 56.49 1.56
-6 0 -3 -0.21 0.26
-6 0 -3 -0.04 0.28
6 0 -3 -0.65 0.24
-6 0 -4 18.83 1
-6 0 -4 17.01 1.06
6 0 -4 18.17 1.05
-6 0 -5 -0.48 0.29
-6 0 -5 -0.12 0.29
6 0 -5 0.51 0.41
6 0 -5 0.03 0.36
-6 0 -6 0.91 0.51
-6 0 -6 0.39 0.43
6 0 -6 0.19 0.41
6 0 -6 1.77 0.69
-6 0 -7 0.08 0.42
-6 0 -7 -0.52 0.44
6 0 -7 -0.15 0.45
6 0 -7 0.64 0.56
-6 0 -8 0.83 0.63
-6 0 -8 -0.47 0.48
6 0 -8 -0.14 0.52
6 0 -8 0.25 0.55
-6 0 -9 -0.45 0.61
6 0 -9 -0.82 0.55
6 0 -9 0.41 0.72
-6 0 -10 5.61 1.26
6 0 -10 9.4 1.7
-6 0 -11 -0.03 0.93
6 0 -11 -0.64 0.82
-7 0 0 -0.38 0.23
-7 0 -1 -0.18 0.2
-7 0 -1 0.08 0.26
-7 0 1 -0.39 0.22
7 0 1 0.15 0.17
-7 0 -2 52.42 1.36
-7 0 -2 51.57 1.56
7 0 -2 52.55 1.53
7 0 2 50 1.26
-7 0 -3 0.17 0.31
-7 0 -3 0.03 0.31
7 0 -3 -0.09 0.3
-7 0 -4 315.84 6.15
-7 0 -4 317.82 5.84
7 0 -4 316.53 6.05
-7 0 -5 0.12 0.34
-7 0 -5 -0.31 0.34
7 0 -5 -0.28 0.39
7 0 -5 0.11 0.37
-7 0 -6 34.32 1.75
-7 0 -6 32.49 1.53
7 0 -6 34.2 1.64
7 0 -6 32.9 1.91
-7 0 -7 -0.2 0.41
-7 0 -7 -0.53 0.46
7 0 -7 -0.03 0.51
7 0 -7 -0.2 0.49
-7 0 -8 10.79 1.36
7 0 -8 12.76 1.37
7 0 -8 14.03 1.72
-7 0 -9 -0.66 0.58
7 0 -9 -0.06 0.63
7 0 -9 -0.28 0.69
-7 0 -10 31.88 2.3
7 0 -10 31.31 2.46
-7 0 -11 -0.5 0.86
7 0 -11 0.32 0.96
-8 0 0 136.69 2.81
-8 0 -1 0.34 0.31
-8 0 -1 0.01 0.22
-8 0 1 0.1 0.27
8 0 1 -0.26 0.16
-8 0 -2 109.68 2.58
-8 0 -2 110.57 2.3
8 0 2 109.33 2.17
8 0 -2 108.61 2.54
-8 0 -3 -0.15 0.28
-8 0 -3 0.22 0.32
8 0 -3 -0.05 0.28
-8 0 -4 99.61 2.44
-8 0 -4 98.05 2.74
8 0 -4 98.15 2.64
-8 0 -5 0.09 0.37
-8 0 -5 -0.07 0.39
8 0 -5 0.45 0.38
-8 0 -6 22.52 1.32
-8 0 -6 23.1 1.47
8 0 -6 21.71 1.59
8 0 -6 24.76 1.43
-8 0 -7 -0.27 0.47
-8 0 -7 -0.43 0.44
8 0 -7 -0.12 0.54
8 0 -7 -0.81 0.41
-8 0 -8 9.1 1.27
8 0 -8 11.73 1.59
8 0 -8 9.71 1.27
-8 0 -9 -0.15 0.61
8 0 -9 -0.32 0.71
8 0 -9 0.12 0.61
-8 0 -10 5.65 1.28
8 0 -10 9.32 1.79
-8 0 -11 0.68 0.97
8 0 -11 0.33 0.95
-9 0 0 -0.15 0.25
-9 0 1 -0.23 0.26
-9 0 -1 -0.25 0.21
-9 0 -1 -0.15 0.27
9 0 1 0.03 0.16
-9 0 -2 128.82 2.67
-9 0 -2 133.73 3.02
9 0 2 132.84 2.54
9 0 -2 131.66 2.98
-9 0 -3 -0.33 0.25
-9 0 -3 0.15 0.31
9 0 -3 -0.03 0.3
-9 0 -4 175.51 3.66
-9 0 -4 171.5 4
9 0 -4 169.22 3.88
-9 0 -5 -0.23 0.35
-9 0 -5 -0.34 0.33
9 0 -5 -0.43 0.32
-9 0 -6 8.01 0.94
-9 0 -6 9.06 1.14
9 0 -6 8.16 1
9 0 -6 7.7 1.17
-9 0 -7 -0.26 0.46
-9 0 -7 -0.15 0.45
9 0 -7 0.95 0.63
9 0 -7 -0.2 0.45
-9 0 -8 5.99 1.12
9 0 -8 4.94 0.96
9 0 -8 5.73 1.22
-9 0 -9 0.5 0.79
9 0 -9 -0.47 0.57
9 0 -9 0 0.68
-9 0 -10 25.69 2.42
9 0 -10 28.85 2.75
-9 0 -11 1.04 0.88
9 0 -11 -0.18 0.91
-10 0 0 51.9 1.59
-10 0 1 0.28 0.3
-10 0 -1 -0.15 0.26
-10 0 -1 -0.08 0.23
10 0 1 0.02 0.17
-10 0 -2 109.04 2.38
-10 0 -2 110.42 2.74
10 0 2 110.86 2.23
10 0 -2 112.79 2.73
-10 0 -3 -0.2 0.29
-10 0 -3 0 0.3
10 0 -3 0.4 0.3
-10 0 -4 68.36 1.96
-10 0 -4 68.03 2.26
10 0 -4 70.49 2.22
-10 0 -5 0.18 0.35
-10 0 -5 -0.3 0.35
10 0 -5 0.43 0.42
-10 0 -6 77.21 2.38
-10 0 -6 68.99 2.64
10 0 -6 70.65 2.92
10 0 -6 67.03 2.47
-10 0 -7 0.45 0.53
10 0 -7 0.56 0.66
10 0 -7 -0.57 0.5
-10 0 -8 29.05 1.99
10 0 -8 30.75 1.94
10 0 -8 30.91 2.24
-10 0 -9 -0.76 0.6
10 0 -9 -0.39 0.78
10 0 -9 -0.24 0.62
-10 0 -10 0.77 0.83
10 0 -10 2.14 1.12
-10 0 -11 0.09 0.92
10 0 -11 0.19 0.97
-11 0 0 -0.1 0.3
-11 0 -1 -0.24 0.21
-11 0 1 -0.76 0.23
-11 0 -1 -0.23 0.26
11 0 1 0.12 0.18
-11 0 -2 100.72 2.27
-11 0 -2 102.25 2.64
11 0 -2 100.79 2.63
11 0 2 99.2 2.09
-11 0 -3 -0.15 0.32
-11 0 -3 0.18 0.28
11 0 -3 -0.27 0.3
-11 0 -4 89.15 2.29
-11 0 -4 86.76 2.66
11 0 -4 85.52 2.58
-11 0 -5 -0.16 0.34
-11 0 -5 -0.05 0.37
11 0 -5 0.74 0.47
-11 0 -6 16.86 1.59
-11 0 -6 15.73 1.15
11 0 -6 14.61 1.37
-11 0 -7 -0.37 0.49
11 0 -7 0.34 0.63
11 0 -7 -0.15 0.56
-11 0 -8 1.13 0.74
11 0 -8 0.68 0.68
11 0 -8 0.75 0.81
-11 0 -9 0.31 0.71
11 0 -9 -0.51 0.58
11 0 -9 -0.61 0.68
-11 0 -10 0.96 0.94
11 0 -10 1.57 1.03
-11 0 -11 1.13 1.02
11 0 -11 0.46 1.13
-12 0 0 22.88 1.13
-12 0 -1 0.17 0.3
-12 0 -1 -0.12 0.24
-12 0 1 0 0.28
12 0 1 -0.16 0.17
-12 0 -2 137.79 3.35
-12 0 -2 137.13 2.91
12 0 2 137.19 2.69
12 0 -2 140.12 3.36
-12 0 -3 -0.39 0.25
-12 0 -3 -0.06 0.34
12 0 -3 0.46 0.4
-12 0 -4 5.81 0.85
-12 0 -4 6.56 0.72
12 0 -4 5.52 0.8
-12 0 -5 0.68 0.44
-12 0 -5 0.04 0.39
12 0 -5 0.56 0.46
-12 0 -6 28.6 1.73
12 0 -6 27.74 1.66
-12 0 -7 0.05 0.52
12 0 -7 -0.31 0.6
12 0 -7 0.47 0.58
-12 0 -8 25.39 1.89
12 0 -8 24.89 1.78
12 0 -8 25.32 2.38
-12 0 -9 0.61 0.77
12 0 -9 0.6 0.86
-12 0 -10 5.34 1.29
12 0 -10 1.96 1.09
-12 0 -11 -0.43 0.89
12 0 -11 1.48 1.25
-13 0 0 0.01 0.27
-13 0 -1 0.18 0.32
-13 0 1 0.16 0.27
-13 0 -1 0.05 0.24
13 0 1 0.03 0.19
-13 0 -2 5.93 0.6
-13 0 -2 6.67 0.83
13 0 2 5.31 0.49
13 0 -2 7.21 0.87
-13 0 -3 -0.3 0.25
-13 0 -3 0.02 0.31
13 0 -3 0.07 0.36
13 0 3 0.31 0.28
-13 0 -4 12.61 1.24
-13 0 -4 12.61 0.86
13 0 -4 14.58 1.11
-13 0 -5 0.07 0.36
-13 0 -5 -0.08 0.4
13 0 -5 -0.29 0.39
-13 0 -6 0.06 0.51
13 0 -6 0.68 0.62
-13 0 -7 0.84 0.66
13 0 -7 -0.44 0.55
13 0 -7 -0.22 0.59
-13 0 -8 1.19 0.75
13 0 -8 1.23 0.77
13 0 -8 2.13 1.01
-13 0 -9 0.75 0.76
13 0 -9 -0.64 0.74
-13 0 -10 11.25 1.74
13 0 -10 10.25 1.89
-13 0 -11 0 1.02
13 0 -11 -0.55 1.12
-14 0 0 143.79 3.41
-14 0 1 -0.22 0.26
-14 0 -1 -0.12 0.29
-14 0 -1 0.15 0.3
14 0 1 0.01 0.2
-14 0 -2 94.28 2.73
-14 0 -2 92.01 2.28
14 0 2 93.69 2.05
14 0 -2 94.1 2.77
-14 0 -3 0.1 0.27
-14 0 -3 -0.29 0.32
14 0 3 0.19 0.25
14 0 -3 0.36 0.39
-14 0 -4 17.84 1.01
-14 0 -4 18.69 1.29
14 0 -4 19.79 1.32
-14 0 -5 0.13 0.39
-14 0 -5 0.19 0.43
14 0 -5 -0.06 0.43
-14 0 -6 40.04 2.09
14 0 -6 43.97 2.15
-14 0 -7 -0.37 0.56
14 0 -7 0.37 0.62
14 0 -7 0.99 0.64
-14 0 -8 49.57 2.64
14 0 -8 47.13 2.47
14 0 -8 50.81 2.98
-14 0 -9 0.12 0.8
14 0 -9 0.6 0.91
-14 0 -10 5.35 1.37
14 0 -10 2.56 1.29
-15 0 0 0.16 0.33
-15 0 1 0.03 0.3
-15 0 -1 0.58 0.38
-15 0 -1 -0.1 0.27
15 0 1 0.01 0.22
-15 0 -2 0.96 0.47
-15 0 -2 0.86 0.36
15 0 2 0.78 0.26
-15 0 -3 -0.18 0.28
-15 0 -3 0.33 0.38
15 0 -3 0.07 0.45
15 0 3 0.06 0.25
-15 0 -4 10.18 0.83
-15 0 -4 11.32 1.19
15 0 -4 11.05 1.19
-15 0 -5 -0.3 0.43
15 0 -5 -0.46 0.41
-15 0 -6 -0.3 0.45
15 0 -6 0.87 0.65
-15 0 -7 0.21 0.64
15 0 -7 0.09 0.76
15 0 -7 0.08 0.63
-15 0 -8 23.98 1.89
15 0 -8 18.92 2.25
15 0 -8 19.16 1.88
-15 0 -9 -0.07 0.76
15 0 -9 0.28 0.84
-15 0 -10 15.44 2.01
15 0 -10 18.26 2.51
-16 0 0 54.91 1.98
-16 0 1 -0.2 0.3
-16 0 -1 0.1 0.34
16 0 1 0.44 0.25
-16 0 -2 41 1.79
-16 0 -2 41.59 1.47
16 0 2 40.33 1.23
-16 0 -3 -0.35 0.35
-16 0 -3 0.13 0.29
16 0 -3 0.5 0.5
16 0 3 -0.24 0.23
-16 0 -4 0.3 0.33
-16 0 -4 -0.56 0.37
16 0 -4 -0.01 0.4
-16 0 -5 0.25 0.49
16 0 -5 -0.69 0.45
-16 0 -6 4.41 0.95
16 0 -6 3.58 0.85
-16 0 -7 -0.45 0.56
16 0 -7 -0.21 0.58
-16 0 -8 5.83 1.27
16 0 -8 8.46 1.35
16 0 -8 8.06 1.58
-16 0 -9 -0.05 0.77
16 0 -9 0.7 0.91
-16 0 -10 3.71 1.23
16 0 -10 1.8 1.22
-17 0 0 0.16 0.35
17 0 0 0.4 0.29
-17 0 1 -0.32 0.31
-17 0 -1 0.06 0.36
17 0 1 0.06 0.24
-17 0 -2 89.69 2.87
-17 0 -2 97.31 2.51
17 0 2 92.23 2.13
-17 0 -3 0.04 0.32
-17 0 -3 0.06 0.38
17 0 -3 0.88 0.54
17 0 3 0.07 0.25
-17 0 -4 63.53 1.99
-17 0 -4 60.94 2.48
17 0 -4 63.92 2.51
-17 0 -5 0.2 0.49
17 0 -5 -0.51 0.5
-17 0 -6 0.7 0.65
17 0 -6 0.89 0.65
-17 0 -7 -0.17 0.66
17 0 -7 0.78 0.69
-17 0 -8 33.87 2.34
17 0 -8 37.31 2.34
17 0 -8 37.08 2.7
-17 0 -9 1.25 0.88
17 0 -9 0.16 1
-17 0 -10 11.85 1.84
17 0 -10 12.2 2.12
-18 0 0 22.88 1.37
18 0 0 25.42 1.03
-18 0 -1 0.21 0.37
-18 0 1 -0.45 0.3
18 0 1 -0.23 0.24
-18 0 -2 17.54 1.03
-18 0 -2 16 1.25
-18 0 -3 -0.24 0.31
-18 0 -3 0.61 0.48
18 0 -3 -0.59 0.4
-18 0 -4 2.98 0.78
18 0 -4 4.8 0.91
-18 0 -5 -0.3 0.46
18 0 -5 0.83 0.66
-18 0 -6 0.14 0.63
18 0 -6 -0.27 0.54
-18 0 -7 1.32 0.78
18 0 -7 -0.41 0.68
-18 0 -8 1.02 0.96
18 0 -8 1.06 0.92
18 0 -8 1.86 0.94
-18 0 -9 -0.77 0.76
18 0 -9 0.21 0.87
-18 0 -10 0.81 1.13
18 0 -10 0.48 1.19
-19 0 0 -0.4 0.35
19 0 0 -0.05 0.26
-19 0 -1 -0.15 0.34
-19 0 1 0.28 0.38
-19 0 -2 150.6 3.54
-19 0 -2 151.4 4.11
-19 0 -3 -0.32 0.3
-19 0 -3 -0.5 0.42
19 0 -3 0.03 0.51
-19 0 -4 55.9 2.47
19 0 -4 62.15 2.55
-19 0 -5 0.36 0.58
19 0 -5 0.68 0.6
-19 0 -6 0.6 0.62
19 0 -6 1.03 0.73
-19 0 -7 1.69 0.85
19 0 -7 0.45 0.77
-19 0 -8 25.33 2.34
19 0 -8 26.33 2.73
-19 0 -9 -0.51 0.84
19 0 -9 0.88 0.97
-19 0 -10 10.54 1.74
-20 0 0 0.81 0.48
-20 0 -1 0.26 0.4
-20 0 1 0.33 0.44
-20 0 -2 11.27 1.27
-20 0 -3 -0.58 0.39
-20 0 -3 0.25 0.37
20 0 -3 -0.54 0.47
-20 0 -4 22.82 1.66
20 0 -4 23.16 1.7
-20 0 -5 -0.61 0.5
20 0 -5 0.34 0.67
-20 0 -6 13.6 1.62
20 0 -6 11.15 1.5
-20 0 -7 0.29 0.68
20 0 -7 0.59 0.78
-20 0 -8 7.48 1.39
20 0 -8 5.54 1.44
-20 0 -9 0.34 0.92
20 0 -9 1.14 1.1
-21 0 0 -0.02 0.39
-21 0 1 -0.02 0.42
-21 0 -1 0 0.36
-21 0 -2 25.75 1.64
-21 0 -3 0.42 0.53
21 0 -3 0.25 0.57
-21 0 -4 25.33 1.79
21 0 -4 26.44 1.81
-21 0 -5 -0.33 0.57
21 0 -5 0.2 0.67
-21 0 -6 2.21 0.91
21 0 -6 0.95 0.8
-21 0 -7 0.07 0.73
21 0 -7 -0.53 0.62
-21 0 -8 13.14 1.81
21 0 -8 14.96 2.2
-21 0 -9 -0.61 0.82
21 0 -9 -0.24 0.94
-22 0 0 82.31 2.94
-22 0 -1 0.41 0.52
-22 0 1 0.33 0.45
-22 0 -2 5.11 0.94
-22 0 -3 -0.42 0.45
22 0 -3 -0.54 0.5
-22 0 -4 4.28 0.96
22 0 -4 3.15 0.96
-22 0 -5 -0.7 0.54
22 0 -5 0.11 0.73
-22 0 -6 54.15 2.8
22 0 -6 54.28 2.83
-22 0 -7 -0.47 0.71
22 0 -7 -0.46 0.73
-22 0 -8 3.21 1.13
22 0 -8 0.2 0.81
-22 0 -9 0.55 0.96
-23 0 0 1.2 0.62
-23 0 1 0.41 0.5
-23 0 -1 -0.02 0.44
-23 0 -2 2.26 0.78
-23 0 -3 -0.53 0.5
23 0 -3 -0.38 0.63
-23 0 -4 1.71 0.75
23 0 -4 1.44 0.81
-23 0 -5 -0.77 0.53
23 0 -5 -0.13 0.63
-23 0 -6 3.97 1.05
23 0 -6 6.14 1.24
-23 0 -7 0.15 0.8
23 0 -7 0.69 0.85
-23 0 -8 -0.06 0.89
23 0 -8 1.03 1.15
-24 0 0 175.64 4.85
-24 0 -1 -0.14 0.5
-24 0 1 0.36 0.52
-24 0 -2 28.56 1.89
-24 0 -3 0.15 0.51
24 0 -3 0 0.62
-24 0 -4 31.93 2.17
24 0 -4 35.77 2.3
-24 0 -5 0.02 0.71
24 0 -5 0.53 0.78
-24 0 -6 54 2.95
24 0 -6 49.92 2.82
-24 0 -7 -0.32 0.75
24 0 -7 0.7 0.84
-24 0 -8 3.46 1.16
24 0 -8 3.28 1.35
-25 0 0 1.45 0.67
-25 0 -1 0.09 0.55
-25 0 1 0.06 0.55
-25 0 -2 1.47 0.73
-25 0 -3 -0.28 0.54
25 0 -3 -0.59 0.57
-25 0 -4 0.3 0.68
25 0 -4 -0.54 0.74
-25 0 -5 -0.73 0.65
25 0 -5 2.12 0.94
-25 0 -6 0.44 0.83
25 0 -6 -0.06 0.82
-25 0 -7 -0.65 0.79
-25 0 -8 1.11 1.02
25 0 -8 3.82 1.61
-26 0 0 6.83 1.15
-26 0 1 0.65 0.67
-26 0 -1 -0.93 0.5
-26 0 -2 30.73 2.05
-26 0 -3 0.76 0.65
26 0 -3 0.77 0.75
-26 0 -4 27.88 2.15
26 0 -4 22.48 2.18
-26 0 -5 -0.25 0.74
26 0 -5 -0.34 0.73
-26 0 -6 18.09 2.07
26 0 -6 20.89 2.27
-26 0 -7 0.02 0.78
-27 0 0 1.38 0.74
-27 0 1 -0.51 0.54
-27 0 -1 0.21 0.62
-27 0 -2 18.5 1.87
27 0 -2 21.08 2.17
-27 0 -3 0.01 0.65
27 0 -3 -1.05 0.7
-27 0 -4 11.85 1.64
27 0 -4 9.88 1.59
-27 0 -5 -0.38 0.75
27 0 -5 -0.31 0.84
-27 0 -6 1.87 1.02
27 0 -6 1.58 1.06
-27 0 -7 -0.3 0.85
-28 0 0 19.4 1.98
-28 0 1 0.87 0.6
-28 0 -1 0.47 0.64
-28 0 -2 17.78 1.89
28 0 -2 13.54 1.92
-28 0 -3 0.57 0.72
28 0 -3 0.14 0.77
-28 0 -4 3.26 1.07
28 0 -4 0.6 0.91
-28 0 -5 -0.19 0.78
28 0 -5 -0.23 0.8
-28 0 -6 9.34 1.59
28 0 -6 6.68 1.6
-29 0 0 0.45 0.62
-29 0 1 -0.74 0.51
-29 0 -1 0.57 0.65
-29 0 -2 29.12 2.12
29 0 -2 23.33 2.29
-29 0 -3 -0.15 0.65
29 0 -3 0.2 0.86
-29 0 -4 18.34 2.02
29 0 -4 19.52 2.25
-29 0 -5 0.01 0.76
29 0 -5 0.92 0.99
-29 0 -6 0.5 0.93
29 0 -6 -1.32 0.99
-30 0 0 14.09 1.73
-30 0 -1 0.22 0.76
-30 0 1 0.54 0.62
-30 0 -2 -0.43 0.69
30 0 -2 -0.27 0.87
-30 0 -3 0.72 0.78
30 0 -3 0.71 0.95
-30 0 -4 -0.24 0.79
30 0 -4 0.58 1.02
-30 0 -5 0.84 0.88
30 0 -5 0.27 0.95
-31 0 0 -0.33 0.61
-31 0 1 -0.09 0.64
-31 0 -1 -0.57 0.64
-31 0 -2 3.38 1.1
31 0 -2 3.55 1.31
-31 0 -3 -0.65 0.66
31 0 -3 0.25 0.9
-31 0 -4 15.62 2.01
31 0 -4 17.34 2.24
-31 0 -5 0.34 0.97
31 0 -5 -0.11 1.06
-32 0 0 -0.27 0.79
-32 0 -1 0.18 0.78
-32 0 1 0.36 0.74
-32 0 -2 1.36 0.92
32 0 -2 0.91 1.1
-32 0 -3 -0.37 0.7
32 0 -3 -0.34 0.94
-32 0 -4 2.2 1.04
32 0 -4 3.36 1.38
32 0 -5 0.86 1.12
-33 0 0 0.4 0.8
-33 0 -1 -0.47 0.78
-33 0 -2 10.43 1.76
33 0 -2 3.85 1.45
-33 0 -3 -0.01 0.86
33 0 -3 0.8 1.12
33 0 -4 10.78 1.97
-34 0 0 9.59 1.64
-34 0 -1 0.05 0.79
-34 0 -2 1.3 0.95
34 0 -2 0.08 1.05
34 0 -3 0.27 1.05
-35 0 0 1.05 0.81
0 1 -11 1.08 0.93
0 1 -10 0.07 0.68
0 1 -9 0.36 0.64
0 1 -9 0.9 0.66
0 1 -8 1.88 0.7
0 1 -8 1.25 0.7
0 1 -7 0.27 0.45
0 1 -7 0.67 0.55
0 1 -6 5.14 0.79
0 1 -6 5.81 0.86
0 1 -5 0.45 0.35
0 1 -5 -0.52 0.31
0 1 -4 -0.22 0.3
0 1 -4 1.14 0.41
0 1 -3 -0.33 0.28
0 1 -3 -0.24 0.28
0 1 -2 103.4 2.23
0 1 -1 -0.1 0.16
0 -1 1 -0.2 0.13
0 1 0 -0.44 0.09
0 -1 0 -0.4 0.1
0 -1 0 -0.54 0.09
0 -1 -1 -0.11 0.16
0 -1 -2 103.97 2.28
0 -1 -2 103.34 2
0 -1 -3 0.08 0.28
0 -1 -3 -0.12 0.32
0 -1 -4 0.49 0.32
0 -1 -4 0.39 0.4
0 -1 -5 -0.41 0.31
0 -1 -5 0.46 0.36
0 -1 -6 5.3 0.77
0 -1 -6 6.34 0.95
0 -1 -7 0.36 0.57
0 -1 -7 -0.56 0.29
0 -1 -8 2.09 0.79
0 -1 -8 2.72 0.76
0 -1 -9 0.38 0.61
0 -1 -9 1.36 0.77
0 -1 -10 1.44 0.93
-1 1 -11 5.13 1.31
1 1 -11 7.59 1.46
-1 1 -10 1.27 0.78
1 1 -10 1 0.78
-1 1 -9 -0.45 0.63
-1 1 -9 0.32 0.65
1 1 -9 0.41 0.6
1 1 -9 0.47 0.68
-1 1 -8 0.48 0.53
-1 1 -8 0.07 0.51
1 1 -8 0.35 0.65
1 1 -8 0.14 0.54
-1 1 -7 185.54 4.69
-1 1 -7 174.29 4.53
1 1 -7 183.16 4.68
1 1 -7 173.32 4.61
-1 1 -6 0.52 0.51
-1 1 -6 2.08 0.55
1 1 -6 0.97 0.5
1 1 -6 1.97 0.61
-1 1 -5 90.14 2.66
-1 1 -5 85.76 2.5
1 1 -5 90.55 2.65
1 1 -5 89.87 2.63
-1 1 -4 4.27 0.68
-1 1 -4 4.18 0.6
1 1 -4 4.72 0.65
1 1 -4 4.56 0.64
-1 1 -3 2.42 0.5
-1 1 -3 3.21 0.49
1 1 -3 2.13 0.47
-1 1 -2 1.88 0.37
1 1 -2 1.62 0.35
-1 1 -1 361.81 5.81
1 1 -1 356.51 5.81
1 -1 1 358.71 5.72
-1 1 0 46.48 0.87
-1 -1 0 47.58 0.86
-1 -1 0 45.61 0.97
1 -1 0 46.68 0.94
1 1 0 47.53 0.92
1 -1 0 46.48 0.9
-1 -1 -1 349.73 5.44
-1 -1 -1 348.07 5.72
1 -1 -1 350.94 5.76
-1 -1 -2 2 0.3
-1 -1 -2 1.88 0.38
1 -1 -2 1.76 0.38
1 -1 -2 1.41 0.27
-1 -1 -3 1.93 0.48
-1 -1 -3 2.74 0.43
1 -1 -3 1.99 0.39
1 -1 -3 2.12 0.49
-1 -1 -4 5.09 0.73
-1 -1 -4 4.61 0.59
1 -1 -4 4.87 0.73
1 -1 -4 3.65 0.54
-1 -1 -5 90.97 2.72
-1 -1 -5 88.9 2.46
1 -1 -5 89.33 2.45
1 -1 -5 90.37 2.78
-1 -1 -6 1.31 0.51
-1 -1 -6 1.84 0.61
1 -1 -6 1.19 0.51
1 -1 -6 1.66 0.59
-1 -1 -7 191.82 4.51
-1 -1 -7 177.62 4.78
1 -1 -7 177.61 4.41
1 -1 -7 183.2 4.88
-1 -1 -8 -0.19 0.5
-1 -1 -8 0.36 0.62
1 -1 -8 1.01 0.52
1 -1 -8 -0.57 0.5
-1 -1 -9 0.45 0.71
-1 -1 -9 0.18 0.62
1 -1 -9 -0.37 0.57
1 -1 -9 0.23 0.73
-1 -1 -10 -0.5 0.63
1 -1 -10 0.5 0.81
1 -1 -11 3.51 1.27
-2 1 -11 10.97 1.72
2 1 -11 12.63 1.79
-2 1 -10 7.41 1.33
2 1 -10 4.13 1.08
2 1 -10 4.87 1.18
-2 1 -9 10.08 1.45
2 1 -9 9.55 1.38
2 1 -9 11.2 1.5
-2 1 -8 0.8 0.55
-2 1 -8 0.43 0.58
2 1 -8 1.68 0.77
2 1 -8 0.68 0.57
-2 1 -7 1.29 0.64
-2 1 -7 0.55 0.47
2 1 -7 0.52 0.57
2 1 -7 0.81 0.55
-2 1 -6 -0.19 0.34
-2 1 -6 0.13 0.39
2 1 -6 -0.15 0.37
2 1 -6 0.07 0.36
-2 1 -5 46.47 1.86
-2 1 -5 48.06 1.74
2 1 -5 47.76 1.89
2 1 -5 48.87 1.84
-2 1 -4 0.2 0.36
-2 1 -4 0.74 0.35
2 1 -4 -0.22 0.28
-2 1 -3 3.35 0.54
-2 1 -3 2.87 0.43
2 1 -3 3.19 0.53
-2 1 -2 1.27 0.27
-2 1 -2 0.94 0.33
2 1 -2 1.01 0.32
-2 1 -1 29.65 0.86
2 1 -1 29.69 0.87
-2 -1 0 0.13 0.12
-2 -1 0 -0.03 0.1
-2 1 0 -0.09 0.1
-2 -1 0 -0.01 0.07
2 -1 0 -0.09 0.12
2 -1 0 0.14 0.1
-2 -1 -1 28.8 0.73
-2 -1 -1 28.06 0.84
2 -1 -1 29.17 0.89
-2 -1 -2 1.46 0.35
-2 -1 -2 1.34 0.29
2 -1 -2 1.05 0.35
2 -1 -2 1.12 0.24
-2 -1 -3 2.87 0.5
-2 -1 -3 2.49 0.42
2 -1 -3 2.86 0.54
2 -1 -3 3.27 0.44
-2 -1 -4 0.42 0.31
-2 -1 -4 -0.41 0.28
2 -1 -4 0.06 0.28
2 -1 -4 0.3 0.38
-2 -1 -5 48.21 1.71
-2 -1 -5 44.79 1.84
2 -1 -5 47.08 1.95
2 -1 -5 48.11 1.69
-2 -1 -6 0.15 0.37
-2 -1 -6 -0.28 0.41
2 -1 -6 0.91 0.45
2 -1 -6 -0.02 0.37
-2 -1 -7 0.21 0.5
-2 -1 -7 -0.4 0.43
2 -1 -7 0.56 0.52
2 -1 -7 -0.23 0.47
-2 -1 -8 0.43 0.6
-2 -1 -8 1.64 0.71
2 -1 -8 1.85 0.66
2 -1 -8 0.95 0.68
-2 -1 -9 10.77 1.49
-2 -1 -9 11.89 1.37
2 -1 -9 11.56 1.62
2 -1 -9 9.78 1.27
-2 -1 -10 6.92 1.33
2 -1 -10 6.65 1.43
2 -1 -11 9.92 1.74
-3 1 -11 1.53 0.98
3 1 -11 3.52 1.05
-3 1 -10 0.14 0.73
3 1 -10 0.47 0.75
3 1 -10 -0.45 0.63
-3 1 -9 1.21 0.75
3 1 -9 0.83 0.71
3 1 -9 0.11 0.69
-3 1 -8 -0.18 0.5
-3 1 -8 -0.55 0.49
3 1 -8 0.21 0.57
3 1 -8 -0.66 0.55
-3 1 -7 62.44 2.39
-3 1 -7 62.64 2.56
3 1 -7 64.22 2.63
3 1 -7 66.28 2.53
-3 1 -6 0.11 0.38
-3 1 -6 2.03 0.59
3 1 -6 3.07 0.69
3 1 -6 2.34 0.64
-3 1 -5 40.04 1.72
-3 1 -5 40.47 1.56
3 1 -5 42.12 1.78
3 1 -5 41.76 1.71
-3 1 -4 0.41 0.37
-3 1 -4 0.53 0.33
3 1 -4 1.44 0.45
-3 1 -3 3.11 0.42
-3 1 -3 2.99 0.5
3 1 -3 2.35 0.46
-3 1 -2 140.29 2.89
-3 1 -2 146.17 2.55
3 -1 2 145.28 2.78
3 1 -2 140.56 2.88
-3 1 -1 289.76 4.82
3 -1 1 285.7 4.68
3 1 -1 285.93 4.84
-3 -1 0 0.42 0.17
-3 -1 0 0.27 0.15
-3 1 0 0.65 0.16
-3 -1 -1 284.68 4.73
-3 -1 -1 285.86 4.87
3 -1 -1 298.78 4.6
3 -1 -1 285.52 4.93
-3 -1 -2 143.11 2.88
-3 -1 -2 147.71 2.77
3 -1 -2 140.92 2.62
3 -1 -2 145.72 3.04
-3 -1 -3 2.94 0.49
-3 -1 -3 2.08 0.4
3 -1 -3 2.79 0.42
3 -1 -3 2.79 0.55
-3 -1 -4 0.92 0.36
-3 -1 -4 0.15 0.35
3 -1 -4 -0.03 0.29
3 -1 -4 0.45 0.41
-3 -1 -5 39.02 1.56
-3 -1 -5 37.86 1.65
3 -1 -5 39.39 1.51
3 -1 -5 40.37 1.83
-3 -1 -6 2.83 0.6
-3 -1 -6 1.38 0.55
3 -1 -6 1.54 0.64
3 -1 -6 2.27 0.58
-3 -1 -7 66.51 2.57
-3 -1 -7 63.83 2.4
3 -1 -7 62.38 2.7
3 -1 -7 65.17 2.38
-3 -1 -8 0.64 0.59
-3 -1 -8 0.81 0.6
3 -1 -8 0.36 0.49
3 -1 -8 -0.26 0.55
-3 -1 -9 0.76 0.71
-3 -1 -9 1.32 0.7
3 -1 -9 0.29 0.68
3 -1 -9 0.06 0.63
-3 -1 -10 -0.11 0.66
3 -1 -10 -0.04 0.79
3 -1 -11 0.08 0.95
-4 1 -11 13.05 1.84
-4 1 -10 0.46 0.74
4 1 -10 0.56 0.89
4 1 -10 0.4 0.7
-4 1 -9 58.31 2.83
4 1 -9 58.98 2.79
4 1 -9 60.38 2.92
-4 1 -8 1.83 0.7
-4 1 -8 0.62 0.61
4 1 -8 1.11 0.76
4 1 -8 0.64 0.65
-4 1 -7 0.17 0.51
-4 1 -7 0.73 0.5
4 1 -7 0.66 0.57
4 1 -7 0.4 0.51
-4 1 -6 0.02 0.35
-4 1 -6 -0.08 0.39
4 1 -6 0.06 0.4
4 1 -6 -0.08 0.44
-4 1 -5 104.36 2.95
-4 1 -5 104.77 2.69
4 1 -5 101.81 2.87
-4 1 -4 8.76 0.68
-4 1 -4 8.65 0.88
4 1 -4 9.44 0.93
-4 1 -3 144.79 3.2
-4 1 -3 147.49 2.84
4 1 -3 146.59 3.2
-4 1 -2 22.82 0.96
4 1 -2 21.58 0.94
4 -1 2 22.1 0.83
-4 1 -1 0.13 0.23
4 1 -1 0.5 0.28
4 -1 1 0.39 0.2
-4 -1 0 -0.33 0.18
-4 -1 0 -0.29 0.17
-4 1 0 -0.32 0.16
-4 -1 -1 0.6 0.27
-4 1 1 0.02 0.17
-4 -1 -1 0.35 0.22
-4 -1 -2 21.26 0.85
-4 -1 -2 23.08 0.93
4 -1 -2 20.71 1.01
4 -1 -2 22.38 0.77
-4 -1 -3 145.74 3.05
-4 -1 -3 151.13 3.17
4 -1 -3 142.77 2.9
4 -1 -3 148.74 3.41
-4 -1 -4 8.95 0.8
-4 -1 -4 9.19 0.87
4 -1 -4 8.57 0.94
4 -1 -4 8.88 0.7
-4 -1 -5 101.23 2.82
-4 -1 -5 102.08 2.75
4 -1 -5 102.38 3.12
4 -1 -5 102.98 2.65
-4 -1 -6 0.46 0.4
-4 -1 -6 -0.31 0.35
4 -1 -6 0.32 0.48
4 -1 -6 -0.28 0.37
-4 -1 -7 -0.67 0.42
-4 -1 -7 0.35 0.48
4 -1 -7 -0.01 0.48
4 -1 -7 0.03 0.5
-4 -1 -8 2.24 0.7
-4 -1 -8 2.78 0.79
4 -1 -8 1.64 0.78
4 -1 -8 1.04 0.64
-4 -1 -9 59 2.67
-4 -1 -9 53.89 2.63
4 -1 -9 56.01 2.83
4 -1 -9 58.7 2.97
-4 -1 -10 -0.27 0.75
4 -1 -10 0.39 0.82
4 -1 -11 13.63 2.03
-5 1 -11 0.18 0.78
-5 1 -10 0.28 0.86
5 1 -10 0.3 0.73
5 1 -10 0.8 0.89
-5 1 -9 1.5 0.79
5 1 -9 1.08 0.8
5 1 -9 1.82 0.83
-5 1 -8 2.94 0.87
5 1 -8 5.39 1.01
5 1 -8 3.76 1
-5 1 -7 10.32 1.13
-5 1 -7 14.27 1.48
5 1 -7 12.59 1.32
5 1 -7 14.01 1.51
-5 1 -6 1.11 0.55
-5 1 -6 2.67 0.58
5 1 -6 3.51 0.76
5 1 -6 1.95 0.61
-5 1 -5 7.69 0.94
-5 1 -5 8.43 0.82
5 1 -5 9.09 0.99
-5 1 -4 2.58 0.58
-5 1 -4 3.36 0.48
5 1 -4 2.59 0.53
-5 1 -3 0.12 0.25
-5 1 -3 -0.13 0.32
5 1 -3 0.37 0.35
-5 1 -2 6.97 0.65
5 -1 2 7.43 0.53
5 1 -2 7.97 0.71
-5 1 -1 61.89 1.53
5 1 -1 60.75 1.55
5 -1 1 62.57 1.38
-5 -1 0 52.95 1.31
-5 1 0 55.21 1.28
-5 -1 0 56.02 1.33
-5 -1 -1 61.19 1.48
-5 -1 -1 59.13 1.47
-5 1 1 61.9 1.34
-5 -1 -2 6.41 0.6
-5 -1 -2 8.76 0.61
5 -1 -2 7.01 0.51
-5 -1 -3 0.64 0.35
-5 -1 -3 0.43 0.3
5 -1 -3 -0.36 0.3
5 -1 -3 0.17 0.26
-5 -1 -4 2.94 0.55
-5 -1 -4 2.58 0.49
5 -1 -4 1.63 0.54
5 -1 -4 2.77 0.49
-5 -1 -5 8.56 0.93
-5 -1 -5 8.5 0.96
5 -1 -5 8.86 0.84
5 -1 -5 9.57 1.09
-5 -1 -6 0.63 0.42
-5 -1 -6 0.87 0.48
5 -1 -6 1.81 0.53
5 -1 -6 2.01 0.71
-5 -1 -7 14.13 1.35
-5 -1 -7 15.08 1.44
5 -1 -7 16.55 1.68
5 -1 -7 12.05 1.19
-5 -1 -8 3.44 0.88
-5 -1 -8 4.89 0.99
5 -1 -8 3.49 0.98
5 -1 -8 3.2 0.85
-5 -1 -9 1.05 0.74
-5 -1 -9 0.44 0.7
5 -1 -9 0.28 0.75
-5 -1 -10 0.27 0.77
5 -1 -10 0.64 0.79
5 -1 -11 0.05 1.02
-6 1 -11 18.22 2.1
6 1 -11 21.19 2.41
-6 1 -10 0.27 0.83
6 1 -10 1 0.92
6 1 -10 1.75 1
-6 1 -9 75.33 3.21
6 1 -9 70.08 3.05
6 1 -9 73.25 3.33
-6 1 -8 1.75 0.81
6 1 -8 2.22 0.9
6 1 -8 2.17 0.81
-6 1 -7 1.62 0.64
-6 1 -7 0.29 0.47
6 1 -7 0.29 0.48
6 1 -7 0.28 0.51
-6 1 -6 -0.4 0.33
-6 1 -6 0.37 0.35
6 1 -6 -0.09 0.44
6 1 -6 -0.03 0.38
-6 1 -5 17.48 0.97
-6 1 -5 16.57 1.17
6 1 -5 15.58 1.14
-6 1 -4 9.86 0.7
-6 1 -4 9.57 0.95
6 1 -4 8.31 0.85
-6 1 -3 475.98 7.66
-6 1 -3 461.57 8.2
6 1 -3 462.27 8.17
-6 1 -2 73.95 1.95
6 1 -2 75.98 1.96
6 -1 2 74.93 1.74
-6 1 -1 2.55 0.41
6 1 -1 4.5 0.54
6 -1 1 2.49 0.31
-6 -1 0 -0.34 0.19
-6 1 0 -0.23 0.2
-6 -1 0 0.15 0.21
-6 -1 -1 3.89 0.44
-6 1 1 3.27 0.36
-6 -1 -1 4.31 0.48
-6 -1 -2 71.43 1.79
-6 -1 -2 72.75 1.83
6 -1 -2 71.68 1.69
-6 -1 -3 462.5 7.99
-6 -1 -3 460.35 7.97
6 -1 -3 466.22 7.8
-6 -1 -4 10.08 0.92
-6 -1 -4 10.19 0.83
6 -1 -4 11.02 0.78
6 -1 -4 9.63 1.09
-6 -1 -5 18.12 1.14
-6 -1 -5 18.87 1.16
6 -1 -5 16.78 1.29
6 -1 -5 18.35 1.09
-6 -1 -6 -0.35 0.35
-6 -1 -6 0.19 0.42
6 -1 -6 0.21 0.42
6 -1 -6 0.7 0.55
-6 -1 -7 0.68 0.54
-6 -1 -7 0.22 0.48
6 -1 -7 0.19 0.45
6 -1 -7 0.1 0.54
-6 -1 -8 2.03 0.77
-6 -1 -8 2.7 0.81
6 -1 -8 1.15 0.69
6 -1 -8 1.38 0.75
-6 -1 -9 68.57 2.95
-6 -1 -9 67.55 3.07
6 -1 -9 76.04 3.46
-6 -1 -10 0.36 0.79
6 -1 -10 0.35 0.89
6 -1 -11 25.02 2.85
-7 1 -11 0.33 0.95
7 1 -11 -0.34 0.99
-7 1 -10 0.56 0.81
7 1 -10 -0.32 0.77
7 1 -10 0.55 0.87
-7 1 -9 1.14 0.75
7 1 -9 0.55 0.79
7 1 -9 -0.27 0.58
-7 1 -8 4.69 1.05
7 1 -8 3.47 0.92
7 1 -8 4.09 0.98
-7 1 -7 7.63 1.11
7 1 -7 7.23 1.18
7 1 -7 9.52 1.22
-7 1 -6 1.25 0.47
-7 1 -6 -0.11 0.45
7 1 -6 0.95 0.52
-7 1 -5 13.44 1.27
-7 1 -5 13.3 0.86
7 1 -5 13.46 1.2
-7 1 -4 11.53 1.05
-7 1 -4 10.43 0.71
7 1 -4 9.38 0.93
-7 1 -3 4.84 0.67
-7 1 -3 4.61 0.46
7 1 -3 4.36 0.64
7 -1 3 4.68 0.53
-7 1 -2 0.15 0.28
7 -1 2 0.27 0.25
7 1 -2 -0.07 0.31
-7 1 -1 10.63 0.46
-7 1 -1 10.81 0.69
7 1 -1 9.86 0.72
7 -1 1 11.82 0.57
-7 -1 0 41.07 1.19
-7 1 0 40.08 1.18
-7 -1 0 40.94 1.23
-7 -1 -1 10.92 0.68
-7 -1 -1 10.76 0.66
-7 -1 -2 0.58 0.31
-7 -1 -2 -0.17 0.26
7 -1 -2 0.37 0.28
-7 -1 -3 5.15 0.64
-7 -1 -3 4.3 0.58
7 -1 -3 5.37 0.59
-7 -1 -4 10.28 0.94
-7 -1 -4 10.04 0.9
7 -1 -4 10.53 1.1
7 -1 -4 9.71 0.76
-7 -1 -5 10.8 1.06
-7 -1 -5 14.63 1.06
7 -1 -5 13.59 0.96
7 -1 -5 12.77 1.28
-7 -1 -6 0.87 0.5
-7 -1 -6 0.38 0.49
7 -1 -6 1.46 0.53
7 -1 -6 -0.01 0.46
-7 -1 -7 8.67 1.11
-7 -1 -7 8.78 1.14
7 -1 -7 7.51 1.24
7 -1 -7 9.22 1.08
-7 -1 -8 2.52 0.78
-7 -1 -8 5.49 1.01
7 -1 -8 3.98 1.11
7 -1 -8 5.01 0.95
-7 -1 -9 0.15 0.7
7 -1 -9 0.69 0.79
-7 -1 -10 1.59 0.96
7 -1 -10 0.21 0.8
7 -1 -11 0.95 1.08
-8 1 -11 14.8 1.98
8 1 -11 13.49 2.03
-8 1 -10 0.37 0.79
8 1 -10 0.65 0.85
8 1 -10 0.29 0.79
-8 1 -9 35.96 2.35
8 1 -9 33.74 2.2
8 1 -9 32.9 2.37
-8 1 -8 -0.21 0.6
8 1 -8 0.82 0.67
8 1 -8 0.56 0.62
-8 1 -7 7.21 1.11
8 1 -7 9.08 1.33
8 1 -7 9.13 1.22
-8 1 -6 3.75 0.63
-8 1 -6 2.98 0.75
8 1 -6 2.34 0.7
-8 1 -5 14.99 0.92
-8 1 -5 15.63 1.18
8 1 -5 16.65 1.19
-8 1 -4 3.36 0.63
-8 1 -4 2.83 0.46
8 1 -4 3.12 0.64
-8 1 -3 587.29 10.3
-8 1 -3 614.78 9.64
8 -1 3 590.03 9.86
8 1 -3 596.63 10.27
-8 1 -2 2.77 0.5
8 -1 2 2.85 0.4
8 1 -2 3.2 0.53
-8 1 -1 95.26 2.26
-8 1 -1 98.04 1.89
8 -1 1 96.94 2.01
-8 1 0 0.26 0.25
-8 -1 0 -0.38 0.22
-8 -1 0 0.28 0.25
-8 -1 -1 93.1 2.11
-8 1 1 93.7 2.08
-8 -1 -1 88.87 2.19
-8 -1 -2 3.43 0.49
-8 -1 -2 2.15 0.44
8 -1 -2 1.88 0.38
-8 -1 -3 582.87 9.9
-8 -1 -3 586.03 9.98
8 -1 -3 591.69 9.79
-8 -1 -4 3.23 0.59
-8 -1 -4 1.76 0.52
8 -1 -4 2.27 0.48
8 -1 -4 2.68 0.64
-8 -1 -5 13.07 1.05
-8 -1 -5 15.08 1.06
8 -1 -5 16.74 1.52
8 -1 -5 16.08 1.02
-8 -1 -6 1.81 0.6
-8 -1 -6 1.9 0.61
8 -1 -6 3.2 0.84
8 -1 -6 2.48 0.63
-8 -1 -7 8.65 1.15
-8 -1 -7 9.7 1.21
8 -1 -7 11.63 1.21
8 -1 -7 8.95 1.34
-8 -1 -8 1.3 0.72
-8 -1 -8 0.1 0.61
8 -1 -8 -0.06 0.55
8 -1 -8 -0.36 0.5
-8 -1 -9 37.38 2.28
8 -1 -9 37.69 2.56
-8 -1 -10 0.75 0.86
8 -1 -10 1.19 1
8 -1 -11 14.41 2.12
-9 1 -11 5.11 1.42
9 1 -11 6.37 1.54
-9 1 -10 0.63 0.9
9 1 -10 1.2 0.94
9 1 -10 0.14 0.86
-9 1 -9 0.58 0.79
9 1 -9 -0.54 0.64
9 1 -9 0.08 0.77
-9 1 -8 3.42 0.96
9 1 -8 3.92 0.96
9 1 -8 4.42 1.06
-9 1 -7 37.12 2.05
9 1 -7 36.44 2.18
9 1 -7 36.26 1.95
-9 1 -6 17.64 1.11
-9 1 -6 17.67 1.37
9 1 -6 20.07 1.41
-9 1 -5 53.31 2.14
-9 1 -5 56.28 1.73
9 1 -5 54.07 2.12
-9 1 -4 43.36 1.79
-9 1 -4 44.92 1.39
9 1 -4 43.5 1.76
-9 1 -3 0.6 0.31
-9 1 -3 0.5 0.4
9 1 -3 0.79 0.39
9 -1 3 0.72 0.33
-9 1 -2 0.8 0.24
-9 1 -2 1.32 0.41
9 1 -2 0.45 0.34
9 -1 2 1.19 0.31
-9 -1 1 110.19 2.52
-9 1 -1 110.89 2.55
9 -1 1 107.27 2.22
-9 1 0 1.47 0.37
-9 -1 0 2.18 0.4
-9 -1 0 2.6 0.44
-9 -1 -1 109.17 2.43
-9 1 1 110.35 2.43
-9 -1 -2 1.79 0.46
-9 -1 -2 0.91 0.35
9 -1 -2 0.54 0.33
-9 -1 -3 0.77 0.39
-9 -1 -3 0.64 0.39
9 -1 -3 0.81 0.34
-9 -1 -4 43.32 1.7
-9 -1 -4 43.79 1.65
9 -1 -4 45.1 1.61
-9 -1 -5 55.19 1.96
-9 -1 -5 54.69 2.05
9 -1 -5 52.13 2.3
9 -1 -5 57.94 1.98
-9 -1 -6 16.25 1.25
-9 -1 -6 16.36 1.27
9 -1 -6 18.62 1.27
9 -1 -6 18.92 1.53
-9 -1 -7 35.14 1.83
-9 -1 -7 34.46 1.93
9 -1 -7 39.47 1.86
9 -1 -7 37.78 2.27
-9 -1 -8 3.28 0.96
-9 -1 -8 5.81 1.1
9 -1 -8 2.54 0.94
9 -1 -8 4.17 0.88
-9 -1 -9 0.32 0.79
9 -1 -9 1.12 0.85
-9 -1 -10 -0.44 0.76
9 -1 -10 -0.3 0.82
9 -1 -11 7.79 1.77
-10 1 -11 1.62 1.07
10 1 -11 1.16 1.21
-10 1 -10 -0.21 0.86
10 1 -10 0.33 0.89
10 1 -10 1.21 0.85
-10 1 -9 19.85 2.05
10 1 -9 16.74 1.82
10 1 -9 19.97 2.24
-10 1 -8 2.17 0.88
10 1 -8 3.27 0.9
10 1 -8 1.95 0.94
-10 1 -7 14.3 1.55
10 1 -7 18.94 1.86
10 1 -7 15.5 1.55
-10 1 -6 2.01 0.65
10 1 -6 1.63 0.61
-10 1 -5 20.85 1.06
-10 1 -5 19.46 1.34
10 1 -5 20.76 1.36
-10 1 -4 14.55 0.79
-10 1 -4 12.61 1.18
10 1 -4 13.33 1.06
-10 1 -3 168.22 3.9
-10 1 -3 177.12 3.28
10 1 -3 174.1 3.93
10 -1 3 169.57 3.49
-10 1 -2 20.17 1.09
-10 1 -2 23.13 0.79
10 -1 2 21.93 0.89
10 1 -2 22.7 1.16
-10 1 -1 67.28 1.92
-10 -1 1 67.17 1.88
10 -1 1 68.34 1.63
-10 -1 0 0.06 0.26
-10 -1 0 -0.2 0.24
-10 1 0 -0.02 0.3
-10 -1 -1 67.96 1.81
-10 1 1 66.6 1.81
-10 -1 -1 70.15 1.99
-10 -1 -2 22.44 1.1
-10 -1 -2 21.95 1
10 -1 -2 20.72 1.03
-10 -1 -3 170.46 3.65
-10 -1 -3 176.6 3.86
10 -1 -3 165.7 3.64
-10 -1 -4 16.24 1.02
-10 -1 -4 12.71 1.12
10 -1 -4 12.65 0.92
-10 -1 -5 18.1 1.19
-10 -1 -5 17.89 1.25
10 -1 -5 20.17 1.48
10 -1 -5 22.04 1.25
-10 -1 -6 0.97 0.54
-10 -1 -6 2.47 0.7
10 -1 -6 3.24 0.68
10 -1 -6 1.84 0.79
-10 -1 -7 16.88 1.37
-10 -1 -7 16.2 1.53
10 -1 -7 15.87 1.81
10 -1 -7 16.94 1.47
-10 -1 -8 1.18 0.73
10 -1 -8 0.53 0.78
10 -1 -8 2.74 0.78
-10 -1 -9 17.96 1.86
10 -1 -9 17.43 2.12
-10 -1 -10 0.63 0.84
10 -1 -10 -0.15 0.92
10 -1 -11 3.4 1.42
-11 1 -11 9.38 1.71
11 1 -11 11 1.89
-11 1 -10 -0.29 0.8
11 1 -10 -0.22 0.72
11 1 -10 -0.31 0.86
-11 1 -9 8.88 1.46
11 1 -9 11.41 1.66
11 1 -9 10.83 1.5
-11 1 -8 0.8 0.75
11 1 -8 -0.95 0.7
11 1 -8 -0.31 0.57
-11 1 -7 41.37 2.25
11 1 -7 42.7 2.21
-11 1 -6 3.27 0.78
11 1 -6 2.55 0.76
-11 1 -5 90.45 2.34
-11 1 -5 92.45 3
11 1 -5 95.15 2.96
-11 1 -4 3.88 0.71
-11 1 -4 3.33 0.48
11 1 -4 2.76 0.66
-11 1 -3 0.26 0.26
-11 1 -3 -0.02 0.31
11 1 -3 0.7 0.4
11 -1 3 0.67 0.31
-11 1 -2 0.47 0.23
-11 1 -2 0.65 0.39
11 1 -2 -0.31 0.28
11 -1 2 0.41 0.25
-11 1 -1 135.54 3.1
-11 -1 1 131.58 3.07
11 -1 1 138.82 2.74
-11 -1 0 25.07 1.06
-11 -1 0 23.01 1.1
-11 1 0 23.76 1.09
-11 1 1 134.98 2.97
-11 -1 -1 130.5 2.9
-11 -1 -1 134.39 3.11
-11 -1 -2 0.23 0.35
-11 -1 -2 0.21 0.3
-11 -1 -3 0.51 0.38
-11 -1 -3 0.04 0.32
11 -1 -3 0.1 0.3
-11 -1 -4 3.34 0.61
-11 -1 -4 2.93 0.62
11 -1 -4 2.75 0.57
-11 -1 -5 91.19 2.84
-11 -1 -5 92.37 2.68
11 -1 -5 91.48 2.71
-11 -1 -6 1 0.55
-11 -1 -6 2.3 0.68
11 -1 -6 3.29 0.93
11 -1 -6 2.8 0.69
-11 -1 -7 47.31 2.24
-11 -1 -7 43.37 2.06
11 -1 -7 44.24 2.52
11 -1 -7 43.68 2.08
-11 -1 -8 -0.16 0.57
11 -1 -8 0.7 0.68
11 -1 -8 -0.42 0.62
-11 -1 -9 13.87 1.77
11 -1 -9 7.67 1.56
-11 -1 -10 0.88 0.89
11 -1 -10 -0.23 0.81
11 -1 -11 9.18 1.84
-12 1 -11 0.28 1
12 1 -11 0.93 1.12
-12 1 -10 2.25 1.06
12 1 -10 4.76 1.41
-12 1 -9 2.54 0.99
12 1 -9 1.2 0.86
12 1 -9 0.33 0.74
-12 1 -8 1.75 0.82
12 1 -8 1.03 0.69
12 1 -8 1.41 0.91
-12 1 -7 0.75 0.63
12 1 -7 0.23 0.59
-12 1 -6 0.13 0.48
12 1 -6 0.15 0.54
-12 1 -5 0.36 0.43
12 1 -5 0.47 0.47
-12 1 -4 1.18 0.49
-12 1 -4 0.65 0.3
12 1 -4 0.31 0.41
-12 1 -3 4.89 0.75
-12 1 -3 4.81 0.49
12 -1 3 4.14 0.53
12 1 -3 5.37 0.78
-12 1 -2 4.31 0.44
-12 1 -2 3.63 0.6
12 -1 2 4.73 0.49
12 1 -2 4.31 0.68
-12 -1 1 4.38 0.62
-12 1 -1 5.18 0.65
12 -1 1 6.07 0.55
-12 -1 0 0.09 0.26
-12 1 0 -0.21 0.26
-12 -1 0 0.03 0.27
-12 1 1 6 0.67
-12 -1 -1 5.54 0.7
-12 -1 -1 5.36 0.6
-12 -1 -2 5.39 0.73
-12 -1 -2 3.35 0.51
-12 -1 -3 3.93 0.7
-12 -1 -3 3.6 0.57
12 -1 -3 4.9 0.67
-12 -1 -4 0.85 0.41
-12 -1 -4 0.67 0.44
12 -1 -4 1.15 0.42
-12 -1 -5 0 0.46
-12 -1 -5 0.29 0.46
12 -1 -5 1.49 0.44
-12 -1 -6 0.2 0.51
-12 -1 -6 0.68 0.55
12 -1 -6 0.11 0.54
12 -1 -6 0.7 0.54
-12 -1 -7 -0.02 0.55
12 -1 -7 -0.59 0.5
12 -1 -7 -0.39 0.61
-12 -1 -8 2.85 0.95
12 -1 -8 1.08 0.81
-12 -1 -9 2.47 0.92
12 -1 -9 1.01 0.85
-12 -1 -10 1.14 0.97
12 -1 -10 2.88 1.26
12 -1 -11 -0.83 0.9
-13 1 -11 4.82 1.35
13 1 -11 6.34 1.67
-13 1 -10 2.18 1.02
13 1 -10 1.09 1.07
-13 1 -9 5.62 1.31
13 1 -9 5.86 1.32
13 1 -9 6.52 1.35
-13 1 -8 14.6 1.76
13 1 -8 13.69 1.85
13 1 -8 14.6 1.76
-13 1 -7 68.11 2.89
13 1 -7 67.28 2.83
-13 1 -6 13.63 1.45
13 1 -6 12.88 1.39
-13 1 -5 76.03 2.73
13 1 -5 77.68 2.75
-13 1 -4 0.64 0.33
-13 1 -4 1.46 0.5
13 1 -4 0.42 0.45
-13 1 -3 0.12 0.24
-13 1 -3 0.29 0.35
13 -1 3 -0.17 0.25
13 1 -3 -0.18 0.36
-13 1 -2 6.33 0.8
-13 1 -2 7.49 0.57
13 1 -2 6.23 0.82
13 -1 2 7.93 0.6
-13 -1 1 159.5 3.61
-13 1 -1 161.32 3.63
13 -1 1 150.24 3.11
-13 1 0 2.69 0.52
-13 -1 0 1.77 0.45
-13 -1 0 2.27 0.48
-13 -1 -1 160.05 3.45
-13 1 1 162.29 3.58
-13 -1 -2 6.49 0.81
-13 -1 -2 6.48 0.69
-13 -1 -3 -0.14 0.33
-13 -1 -3 0 0.35
13 -1 -3 0.14 0.35
-13 -1 -4 0.2 0.38
-13 -1 -4 1.04 0.44
13 -1 -4 0.93 0.47
-13 -1 -5 75.11 2.66
-13 -1 -5 77.62 2.45
13 -1 -5 78.1 2.57
-13 -1 -6 13.72 1.43
-13 -1 -6 13.24 1.26
13 -1 -6 10.81 1.21
13 -1 -6 12.78 1.54
-13 -1 -7 72.72 2.88
13 -1 -7 66.13 2.65
13 -1 -7 73.51 3.32
-13 -1 -8 13.34 1.58
13 -1 -8 8.74 1.63
-13 -1 -9 7.52 1.31
13 -1 -9 7.31 1.53
-13 -1 -10 1.04 0.82
13 -1 -10 2.84 1.24
-14 1 -10 1.92 1.12
14 1 -10 0.37 0.92
-14 1 -9 1.8 0.94
14 1 -9 3.83 1.23
14 1 -9 1.58 0.88
-14 1 -8 9.97 1.48
14 1 -8 10.67 1.64
14 1 -8 7.73 1.27
-14 1 -7 11.51 1.47
14 1 -7 10.13 1.39
-14 1 -6 7.03 1.1
14 1 -6 5.8 1.02
-14 1 -5 0.26 0.47
14 1 -5 1.43 0.63
-14 1 -4 1.82 0.59
-14 1 -4 0.59 0.31
14 1 -4 0.57 0.48
-14 1 -3 34.95 1.17
-14 1 -3 33.84 1.62
14 1 -3 33.8 1.65
14 -1 3 37.12 1.33
-14 1 -2 0.31 0.27
-14 1 -2 -0.18 0.31
14 -1 2 0.1 0.26
14 1 -2 0.1 0.35
-14 1 -1 6.7 0.8
-14 -1 1 6.91 0.81
14 -1 1 8.35 0.63
-14 1 0 -0.25 0.26
-14 -1 0 0.11 0.29
-14 -1 0 0.17 0.32
14 -1 0 0.06 0.26
-14 1 1 8.4 0.83
-14 -1 -1 7.54 0.73
-14 -1 -1 9.11 0.94
-14 -1 -2 -0.11 0.29
-14 -1 -2 0.13 0.32
-14 1 2 0.7 0.38
-14 -1 -3 34.45 1.42
-14 -1 -3 32.69 1.57
14 -1 -3 32.45 1.54
-14 -1 -4 0.57 0.46
-14 -1 -4 0.18 0.35
14 -1 -4 1.03 0.45
-14 -1 -5 0.23 0.43
-14 -1 -5 0.99 0.47
14 -1 -5 1.05 0.54
-14 -1 -6 8.89 1.05
-14 -1 -6 9.26 1.23
14 -1 -6 3.65 0.97
14 -1 -6 8.08 1.1
-14 -1 -7 14.85 1.59
14 -1 -7 11.81 1.41
14 -1 -7 11.05 1.68
-14 -1 -8 6.72 1.23
14 -1 -8 8.76 1.65
-14 -1 -9 1.87 0.92
14 -1 -9 3.78 1.35
-14 -1 -10 -0.1 0.83
14 -1 -10 1.58 1.15
-15 1 -10 -1.32 0.87
15 1 -10 0.74 1.08
-15 1 -9 0.54 0.87
15 1 -9 3.58 1.07
15 1 -9 0.92 0.95
-15 1 -8 0.36 0.74
15 1 -8 0.19 0.71
15 1 -8 -0.15 0.67
-15 1 -7 43.18 2.41
15 1 -7 43.62 2.4
-15 1 -6 0.98 0.66
15 1 -6 -0.21 0.51
-15 1 -5 20.93 1.5
15 1 -5 19.79 1.48
-15 1 -4 3.99 0.85
15 -1 4 2.47 0.53
15 1 -4 3.12 0.75
-15 1 -3 4.63 0.76
-15 1 -3 5.4 0.56
15 1 -3 3.79 0.77
15 -1 3 5.1 0.59
-15 1 -2 1.37 0.35
-15 1 -2 0.96 0.46
15 -1 2 0.91 0.32
15 1 -2 0.54 0.46
-15 -1 1 33.48 1.51
-15 1 -1 33.87 1.53
15 -1 1 31.66 1.17
-15 1 0 2.78 0.56
-15 -1 0 2.63 0.58
15 -1 0 4.28 0.54
-15 1 1 33.04 1.46
-15 -1 -1 33.94 1.38
-15 -1 -1 34.5 1.56
-15 -1 -2 0.55 0.4
-15 -1 -2 1.26 0.41
-15 1 2 0.37 0.34
-15 -1 -3 5.18 0.7
-15 -1 -3 4.98 0.78
15 -1 -3 4.48 0.74
-15 -1 -4 3.21 0.73
-15 -1 -4 4.26 0.71
15 -1 -4 3.11 0.7
-15 -1 -5 21.59 1.5
-15 -1 -5 24.52 1.37
15 -1 -5 19.85 1.4
-15 -1 -6 -0.41 0.49
15 -1 -6 0.62 0.57
15 -1 -6 0.3 0.69
-15 -1 -7 48.09 2.43
15 -1 -7 46.02 2.26
15 -1 -7 43.37 2.71
-15 -1 -8 0.63 0.67
15 -1 -8 -0.31 0.7
-15 -1 -9 2.76 1.05
15 -1 -9 0.55 0.99
-15 -1 -10 0.41 0.79
15 -1 -10 -1.16 0.91
-16 1 -10 0.75 0.96
16 1 -10 2.55 1.19
-16 1 -9 16.96 2.07
16 1 -9 19.1 2.39
16 1 -9 17.46 1.96
-16 1 -8 2.08 0.92
16 1 -8 1.81 0.99
16 1 -8 2.06 1.04
-16 1 -7 13.97 1.72
16 1 -7 15.91 1.71
-16 1 -6 1.28 0.72
16 1 -6 1.69 0.71
-16 1 -5 8.7 1.17
16 1 -5 7.05 1.11
-16 1 -4 2.74 0.68
16 1 -4 3.81 0.84
16 -1 4 3.44 0.57
-16 1 -3 148.73 3.93
-16 1 -3 153.36 3.15
16 -1 3 149.55 3.28
16 1 -3 147.54 3.99
-16 1 -2 7.44 0.97
16 1 -2 8.49 1.07
16 -1 2 8.87 0.66
-16 1 -1 71.72 2.37
-16 -1 1 71.27 2.34
16 -1 1 71.1 1.9
-16 1 0 0.06 0.32
-16 -1 0 0.11 0.34
16 -1 0 0.34 0.28
-16 -1 -1 72.76 2.18
-16 1 1 70.03 2.29
-16 -1 -1 72.9 2.39
-16 -1 -2 8.88 1.07
-16 -1 -2 8.75 0.86
-16 1 2 8.44 0.91
-16 -1 -3 150.29 3.5
-16 -1 -3 143.04 3.86
16 -1 -3 150.14 3.86
-16 -1 -4 4.05 0.68
-16 -1 -4 4.41 0.85
16 -1 -4 4.87 0.83
-16 -1 -5 7.41 0.94
-16 -1 -5 7.03 1.04
16 -1 -5 8.28 1.07
-16 -1 -6 1.78 0.73
16 -1 -6 3.1 0.79
-16 -1 -7 14.17 1.6
16 -1 -7 13.12 1.9
16 -1 -7 14.69 1.57
-16 -1 -8 1.83 0.9
16 -1 -8 1.46 1.01
-16 -1 -9 13.74 1.8
16 -1 -9 13.08 1.99
-16 -1 -10 0.32 0.99
16 -1 -10 0.74 1.12
-17 1 -10 1.72 1.07
17 1 -10 1.88 1.21
-17 1 -9 3.95 1.27
17 1 -9 1.19 0.98
17 1 -9 1.99 1.11
-17 1 -8 0.22 0.72
17 1 -8 -0.08 0.75
-17 1 -7 6.47 1.19
17 1 -7 4.73 1.15
-17 1 -6 0.42 0.59
17 1 -6 0.39 0.63
-17 1 -5 12.68 1.41
17 1 -5 12.42 1.41
-17 1 -4 0.14 0.41
17 -1 4 0.63 0.35
17 1 -4 2.16 0.7
-17 1 -3 0.74 0.5
-17 1 -3 0.55 0.32
17 1 -3 0.04 0.45
17 -1 3 0.51 0.34
-17 1 -2 7.07 0.96
17 1 -2 7.52 1.04
17 -1 2 6.74 0.65
-17 -1 1 7.89 0.93
-17 1 -1 9.65 1.05
17 -1 1 8.74 0.69
-17 -1 0 2.32 0.6
-17 1 0 1.39 0.5
17 -1 0 1.22 0.37
-17 1 1 9.6 0.98
-17 -1 -1 7.77 0.83
-17 -1 -1 9.09 1.02
-17 -1 -2 7.1 0.95
-17 1 2 6.67 0.84
-17 -1 -2 7.75 0.81
-17 -1 -3 0.22 0.41
-17 -1 -3 0.19 0.37
17 -1 -3 1.62 0.57
-17 -1 -4 1.49 0.53
-17 -1 -4 1.8 0.66
17 -1 -4 1.52 0.62
-17 -1 -5 12.57 1.4
-17 -1 -5 13.12 1.22
17 -1 -5 11.05 1.27
-17 -1 -6 -0.56 0.51
17 -1 -6 -0.34 0.5
-17 -1 -7 5.46 1.12
17 -1 -7 5.68 1.34
17 -1 -7 5.1 1.06
-17 -1 -8 -0.37 0.67
17 -1 -8 0.78 0.89
-17 -1 -9 2.1 1.11
17 -1 -9 1.22 1.07
-17 -1 -10 1.54 1.02
17 -1 -10 -0.19 1.03
-18 1 -10 0.78 1.03
18 1 -10 2.72 1.31
-18 1 -9 41.64 2.76
18 1 -9 37.37 2.67
18 1 -9 38.87 2.98
-18 1 -8 0.15 0.73
18 1 -8 0.95 0.77
-18 1 -7 16.91 1.9
18 1 -7 24.26 2.15
-18 1 -6 0.92 0.67
18 1 -6 0.1 0.64
-18 1 -5 41.98 2.2
18 1 -5 40.35 2.22
-18 1 -4 0.24 0.46
18 -1 4 0.06 0.36
18 1 -4 0.19 0.54
-18 1 -3 77.4 2.74
18 1 -3 72.62 2.75
18 -1 3 74.44 2.11
-18 1 -2 0.58 0.44
18 -1 2 0.76 0.35
18 1 -2 0.98 0.57
-18 1 -1 73.63 2.53
-18 -1 1 70.07 2.46
18 -1 1 70.49 1.95
-18 -1 0 0.21 0.31
-18 1 0 0.03 0.34
18 -1 0 -0.17 0.3
-18 -1 -1 72.16 2.52
-18 1 1 77.34 2.52
-18 -1 -1 72.5 2.29
-18 1 2 1.36 0.5
-18 -1 -2 1.42 0.45
-18 -1 -2 0.07 0.36
-18 -1 -3 75.48 2.32
-18 -1 -3 72.79 2.68
18 -1 -3 74.6 2.67
-18 -1 -4 -0.63 0.43
-18 -1 -4 0.42 0.4
18 -1 -4 0.17 0.5
-18 -1 -5 40.77 2.17
18 -1 -5 44.72 2.15
-18 -1 -6 -0.31 0.58
18 -1 -6 0.14 0.57
-18 -1 -7 15.59 1.72
18 -1 -7 18.07 1.95
18 -1 -7 20.7 2.3
-18 -1 -8 -0.29 0.7
18 -1 -8 0.41 0.94
-18 -1 -9 35.38 2.54
18 -1 -9 35.59 2.9
-18 -1 -10 2.11 1.2
-19 1 -9 -0.02 0.84
19 1 -9 0.09 0.97
-19 1 -8 2.06 0.99
19 1 -8 -0.07 0.72
-19 1 -7 1.51 0.9
19 1 -7 2.2 0.9
-19 1 -6 3.17 0.88
19 1 -6 1.25 0.84
-19 1 -5 1.54 0.68
19 1 -5 1.84 0.82
-19 1 -4 0.99 0.56
19 1 -4 0.35 0.6
-19 1 -3 2.18 0.71
19 1 -3 2.57 0.78
-19 1 -2 5.55 0.92
19 1 -2 3.77 0.87
19 -1 2 5.2 0.61
-19 1 -1 -0.17 0.35
-19 -1 1 0.03 0.36
19 -1 1 0.2 0.31
-19 1 0 0.29 0.41
-19 -1 0 -0.03 0.34
19 -1 0 -0.51 0.28
-19 -1 -1 0.24 0.39
-19 1 1 -0.43 0.36
-19 -1 -1 0.55 0.41
-19 1 2 4.47 0.76
-19 -1 -2 6.23 0.76
-19 -1 -2 3.78 0.84
-19 -1 -3 2.74 0.6
-19 -1 -3 3.43 0.78
19 -1 -3 3.14 0.75
-19 -1 -4 0.98 0.57
-19 -1 -4 0.19 0.45
19 -1 -4 0.24 0.54
-19 -1 -5 2.83 0.87
19 -1 -5 1.25 0.71
-19 -1 -6 1.55 0.83
19 -1 -6 1.32 0.76
-19 -1 -7 3.27 1
19 -1 -7 3.6 1.12
-19 -1 -8 0.93 0.84
19 -1 -8 0.5 0.91
-19 -1 -9 1.33 0.94
19 -1 -9 0.17 1.08
-19 -1 -10 0.02 1
-20 1 -9 17.53 2.2
20 1 -9 12.83 2.22
-20 1 -8 1.05 0.93
20 1 -8 1.15 1.02
-20 1 -7 9.81 1.53
20 1 -7 8.98 1.48
-20 1 -6 -0.41 0.56
20 1 -6 0.68 0.75
-20 1 -5 58.27 2.7
20 1 -5 57.78 2.73
-20 1 -4 1.21 0.61
20 1 -4 0.4 0.62
-20 1 -3 7.5 1.1
20 1 -3 5.45 1.04
-20 1 -2 1.03 0.6
20 1 -2 0.47 0.6
-20 -1 1 37.79 1.85
-20 1 -1 32.28 1.75
20 -1 1 38.6 1.41
-20 1 0 -0.36 0.31
-20 -1 0 0.1 0.43
20 -1 0 0.02 0.33
-20 1 1 35.5 1.79
-20 -1 -1 35.66 1.8
-20 -1 -2 1.17 0.58
-20 -1 -2 1.04 0.48
-20 1 2 0.65 0.5
-20 -1 -3 9.55 1
-20 -1 -3 8.22 1.18
20 -1 -3 9.8 1.23
-20 -1 -4 0.54 0.59
20 -1 -4 0.37 0.58
-20 -1 -5 58.82 2.7
20 -1 -5 59 2.61
-20 -1 -6 0.55 0.65
20 -1 -6 0.41 0.71
-20 -1 -7 9.81 1.53
20 -1 -7 10.33 1.73
-20 -1 -8 0.55 0.86
20 -1 -8 2.3 1.25
-20 -1 -9 16.61 2.12
20 -1 -9 16.53 2.29
-21 1 -9 -0.02 0.89
21 1 -9 0.87 1.06
-21 1 -8 0.08 0.71
21 1 -8 -1.01 0.83
-21 1 -7 20.91 2.17
21 1 -7 19.16 2.08
-21 1 -6 1.87 0.87
21 1 -6 2.74 1.02
-21 1 -5 3.09 0.93
21 1 -5 3.62 0.99
-21 1 -4 10.28 1.3
21 1 -4 7.99 1.25
-21 1 -3 0.77 0.54
21 1 -3 0.02 0.57
-21 1 -2 1.24 0.58
21 1 -2 1.87 0.72
-21 1 -1 30.59 1.71
-21 -1 1 27.35 1.64
-21 1 0 0.3 0.45
-21 -1 0 0.25 0.48
21 -1 0 1.16 0.43
-21 -1 -1 26.86 1.64
-21 1 1 30.6 1.7
-21 -1 -2 2.45 0.6
-21 1 2 2.48 0.71
-21 -1 -2 3.35 0.8
-21 -1 -3 0.44 0.57
-21 -1 -3 -0.48 0.37
21 -1 -3 0.03 0.51
-21 -1 -4 10.34 1.34
21 -1 -4 9.41 1.34
-21 -1 -5 4.37 1.03
21 -1 -5 4.23 1.02
-21 -1 -6 5.59 1.2
21 -1 -6 1.11 0.77
-21 -1 -7 16.03 1.88
21 -1 -7 22.15 2.44
-21 -1 -8 0.7 0.9
21 -1 -8 -1.16 0.95
-21 -1 -9 1.85 1.13
21 -1 -9 1.75 1.3
-22 1 -9 7.46 1.66
-22 1 -8 1.14 0.93
22 1 -8 -0.29 0.86
-22 1 -7 3.82 1.16
22 1 -7 1.99 1.03
-22 1 -6 -0.24 0.62
22 1 -6 -0.19 0.76
-22 1 -5 19.54 1.94
22 1 -5 15.73 1.75
-22 1 -4 1.34 0.71
22 1 -4 0.7 0.68
-22 1 -3 10.71 1.33
22 1 -3 8.89 1.35
-22 1 -2 1.54 0.64
22 1 -2 -0.1 0.57
-22 1 -1 11.23 1.29
-22 -1 1 13.13 1.39
-22 -1 0 0.16 0.46
-22 1 0 0.78 0.51
-22 1 1 15.15 1.42
-22 -1 -1 11.42 1.32
-22 1 2 0.03 0.38
-22 -1 -2 0.21 0.45
-22 -1 -2 -0.18 0.39
-22 -1 -3 10.96 1.4
-22 -1 -3 11.98 1.13
22 -1 -3 11.39 1.45
-22 -1 -4 1.97 0.79
22 -1 -4 1.15 0.71
-22 -1 -5 20.41 1.97
22 -1 -5 14.16 1.57
-22 -1 -6 0.2 0.68
22 -1 -6 -0.51 0.68
-22 -1 -7 2.42 0.94
22 -1 -7 1.76 1.08
-22 -1 -8 -0.42 0.8
22 -1 -8 -0.19 0.95
-22 -1 -9 7.95 1.68
-23 1 -8 -0.43 0.85
23 1 -8 1.6 1.09
-23 1 -7 38.07 2.61
23 1 -7 33.43 2.46
-23 1 -6 1.34 0.92
23 1 -6 1.84 0.98
-23 1 -5 15.15 1.72
23 1 -5 15.73 1.79
-23 1 -4 6.01 1.14
23 1 -4 6.25 1.2
-23 1 -3 3.17 0.88
23 1 -3 4.38 1.07
-23 1 -2 4.5 0.98
23 1 -2 3.73 0.99
-23 1 -1 13.73 1.42
-23 -1 1 12.37 1.37
-23 -1 0 0.3 0.5
-23 1 0 0.17 0.48
-23 1 1 9.82 1.2
-23 -1 -1 13.07 1.43
-23 -1 -2 3.96 0.86
-23 -1 -2 5.08 0.84
-23 1 2 4.03 0.84
-23 -1 -3 3.22 0.87
23 -1 -3 5.29 1.14
-23 -1 -4 7.02 1.25
23 -1 -4 4.47 0.98
-23 -1 -5 15.66 1.77
23 -1 -5 13.83 1.68
-23 -1 -6 0.97 0.79
23 -1 -6 2 0.88
-23 -1 -7 34.02 2.46
23 -1 -7 30.55 2.97
-23 -1 -8 0.09 0.8
23 -1 -8 0.88 1.23
-23 -1 -9 3.25 1.22
-24 1 -8 -0.42 0.87
24 1 -8 1.82 1.15
-24 1 -7 0.77 0.96
24 1 -7 2.37 1.04
-24 1 -6 1.5 0.91
24 1 -6 1.51 0.92
-24 1 -5 0.56 0.78
24 1 -5 1.23 0.79
-24 1 -4 -0.82 0.56
24 1 -4 0.23 0.69
-24 1 -3 0.28 0.61
24 1 -3 -0.08 0.66
-24 1 -2 0.47 0.55
24 1 -2 2.59 0.96
-24 1 -1 0.79 0.6
-24 -1 1 0.46 0.59
-24 1 0 -0.3 0.47
-24 -1 0 0.43 0.53
-24 1 1 0.61 0.54
-24 -1 -1 0.46 0.57
-24 1 2 1.04 0.63
-24 -1 -2 0.98 0.6
-24 -1 -3 -0.37 0.51
24 -1 -3 -0.96 0.54
-24 -1 -4 1.18 0.74
24 -1 -4 0.85 0.76
-24 -1 -5 3.52 1.04
24 -1 -5 1.16 0.89
-24 -1 -6 1.39 0.9
24 -1 -6 2.06 0.98
-24 -1 -7 1.39 0.91
24 -1 -7 1.75 1.16
-24 -1 -8 -0.11 0.9
24 -1 -8 -0.23 1.05
-25 1 -8 -0.26 0.95
-25 1 -7 26.21 2.54
25 1 -7 25.56 2.52
-25 1 -6 -0.28 0.76
25 1 -6 2.37 1.06
-25 1 -5 34.01 2.35
25 1 -5 33.12 2.43
-25 1 -4 4.38 1.05
25 1 -4 2.31 0.97
-25 1 -3 0.1 0.62
25 1 -3 -0.25 0.71
-25 1 -2 3.84 0.96
25 1 -2 3.37 1.01
-25 1 -1 33 1.98
-25 -1 1 31.06 1.94
-25 -1 0 19.12 1.79
-25 1 0 17.11 1.69
-25 -1 -1 34.39 2.07
-25 1 1 32.23 1.95
-25 -1 -2 2.52 0.82
-25 1 2 2.74 0.76
-25 -1 -3 0.85 0.7
25 -1 -3 0.38 0.67
-25 -1 -4 7.75 1.34
25 -1 -4 5.52 1.16
-25 -1 -5 31.08 2.26
25 -1 -5 27.32 2.13
-25 -1 -6 1.28 0.86
-25 -1 -7 25.1 2.43
25 -1 -7 30.35 3.25
-25 -1 -8 0.97 0.94
25 -1 -8 0.67 1.29
-26 1 -7 -0.44 0.87
26 1 -7 2.75 1.16
-26 1 -6 0.54 0.86
26 1 -6 0.85 0.89
-26 1 -5 0.05 0.7
26 1 -5 0.9 0.87
-26 1 -4 1.76 0.84
26 1 -4 0.33 0.8
-26 1 -3 10.91 1.5
26 1 -3 10.12 1.49
-26 1 -2 5.89 1.11
26 1 -2 5.45 1.27
-26 1 -1 3.23 0.89
-26 -1 1 2.37 0.79
-26 1 0 -0.05 0.56
-26 -1 0 0.49 0.58
-26 -1 -1 1.27 0.73
-26 1 1 1.36 0.66
-26 -1 -2 8.18 1.23
-26 -1 -3 12.26 1.63
26 -1 -3 11.32 1.56
-26 -1 -4 1.47 0.75
26 -1 -4 0.36 0.79
-26 -1 -5 0.36 0.78
26 -1 -5 -0.19 0.69
-26 -1 -6 0.65 0.85
-26 -1 -7 0.81 0.88
26 -1 -7 0.29 1.12
-27 1 -7 15.2 2.03
27 1 -7 15.39 2.13
-27 1 -6 0.73 0.85
27 1 -6 1.83 1.03
-27 1 -5 41.89 2.66
27 1 -5 42.28 2.78
-27 1 -4 0.87 0.73
27 1 -4 -0.01 0.78
-27 1 -3 -0.05 0.63
27 1 -3 1.81 0.93
-27 1 -2 2.36 0.88
27 1 -2 -0.34 0.68
-27 -1 1 46.69 2.44
-27 1 -1 45.13 2.42
-27 -1 0 0.73 0.61
-27 1 0 1.67 0.76
-27 -1 -1 48.02 2.58
-27 1 1 46.35 2.43
-27 -1 -2 0.68 0.72
-27 -1 -3 0.38 0.75
27 -1 -3 -0.65 0.76
-27 -1 -4 -0.02 0.72
27 -1 -4 0.4 0.77
-27 -1 -5 43.2 2.68
27 -1 -5 37.77 2.57
-27 -1 -6 1.75 1.01
-27 -1 -7 15.8 2.08
27 -1 -7 14.58 2.39
28 1 -7 4.03 1.44
-28 1 -6 -0.26 0.9
28 1 -6 0.63 1.11
-28 1 -5 2.35 1.03
28 1 -5 1.17 1.04
-28 1 -4 -1.32 0.56
28 1 -4 1.62 1.04
-28 1 -3 21.4 2.13
28 1 -3 17.6 2.08
-28 1 -2 1.56 0.8
28 1 -2 2.53 1.07
-28 1 -1 12.96 1.58
-28 -1 1 10.72 1.44
-28 -1 0 -0.09 0.63
-28 1 0 -0.14 0.64
-28 -1 -1 10 1.52
-28 1 1 12.58 1.54
-28 -1 -2 2.93 1
-28 -1 -3 22.13 2.1
28 -1 -3 17.35 1.9
-28 -1 -4 0.69 0.89
28 -1 -4 0.37 0.86
-28 -1 -5 2.29 1.08
28 -1 -5 2.48 1.08
-28 -1 -6 -1.06 0.82
-29 1 -6 0.17 0.82
29 1 -6 0.5 1.04
-29 1 -5 12.33 1.82
29 1 -5 12.56 1.98
-29 1 -4 0.15 0.73
29 1 -4 0.29 0.91
-29 1 -3 0.2 0.72
29 1 -3 1.68 0.98
-29 1 -2 7.02 1.29
29 1 -2 7.3 1.43
-29 1 -1 8.38 1.34
-29 -1 1 5.51 1.17
-29 1 0 -0.39 0.52
-29 -1 0 0.39 0.65
-29 1 1 5.57 1.06
-29 -1 -1 7.88 1.44
-29 -1 -2 7.11 1.32
-29 -1 -3 0.43 0.71
29 -1 -3 -0.03 0.83
-29 -1 -4 0.17 0.78
29 -1 -4 -0.24 0.82
-29 -1 -5 11.56 1.69
29 -1 -5 8.93 1.56
-29 -1 -6 -0.42 0.8
30 1 -6 0.1 1.15
-30 1 -5 3.27 1.19
30 1 -5 2.3 1.3
-30 1 -4 -0.3 0.77
30 1 -4 -0.3 0.9
-30 1 -3 30.73 2.36
30 1 -3 33.46 2.64
-30 1 -2 -0.16 0.7
30 1 -2 -0.29 0.85
-30 1 -1 4.07 1.05
-30 -1 0 -0.49 0.61
-30 1 0 0.19 0.6
-30 -1 -1 2.75 1.05
-30 1 1 4.85 1.14
-30 -1 -2 0.48 0.77
-30 -1 -3 35.55 2.42
30 -1 -3 26.54 2.45
-30 -1 -4 0.56 0.74
30 -1 -4 -0.72 0.84
-30 -1 -5 3.49 1.22
-31 1 -5 1.67 1.06
31 1 -5 1.53 1.26
-31 1 -4 2.2 1.03
31 1 -4 -0.72 0.95
-31 1 -3 -0.08 0.76
31 1 -3 0.62 1.01
-31 1 -2 3.88 1.17
31 1 -2 1.51 1.14
-31 1 -1 2.45 0.96
-31 1 0 12.12 1.65
-31 -1 0 9.6 1.54
-31 1 1 0.94 0.8
-31 -1 -1 0.92 0.8
-31 -1 -2 3.5 1.1
31 -1 -2 4.19 1.27
-31 -1 -3 1.39 0.92
31 -1 -3 0.31 0.94
-31 -1 -4 0.75 0.83
31 -1 -4 -0.32 0.91
-31 -1 -5 1.94 1.2
32 1 -5 8.24 1.77
-32 1 -4 0.22 0.86
32 1 -4 0.1 1.14
-32 1 -3 23.46 2.38
32 1 -3 26.38 2.65
-32 1 -2 0.03 0.87
32 1 -2 -0.35 0.94
-32 1 -1 19.49 2.13
-32 -1 0 0.5 0.69
-32 1 0 0.16 0.74
-32 1 1 16.9 1.92
-32 -1 -1 17.31 2.08
-32 -1 -2 -0.02 0.7
32 -1 -2 1.5 1.05
-32 -1 -3 25.82 2.55
32 -1 -3 18.52 2.32
-32 -1 -4 0.22 0.86
32 -1 -4 1.66 1.17
33 1 -4 0.39 1.08
-33 1 -3 0.05 0.88
33 1 -3 1.08 1.04
-33 1 -2 0.58 0.81
33 1 -2 2.13 1.29
-33 1 -1 3.54 1.19
-33 -1 0 9 1.52
-33 1 0 12.55 1.77
-33 1 1 4.2 1.17
-33 -1 -1 4.66 1.21
-33 -1 -2 -0.38 0.76
33 -1 -2 0.55 1.08
-33 -1 -3 0.45 0.95
33 -1 -3 -0.19 0.99
33 -1 -4 1.98 1.27
34 1 -3 12.9 2.12
-34 1 -2 0.54 0.9
34 1 -2 0.93 1.09
-34 1 -1 5.22 1.36
34 1 -1 4.99 1.57
-34 -1 0 0.95 0.86
-34 1 0 0.64 0.92
-34 1 1 5.45 1.3
-34 -1 -1 4.58 1.29
-34 -1 -2 0.18 0.96
34 -1 -2 -1.04 1.01
34 -1 -3 17.74 2.32
-35 1 -1 19.69 2.44
-35 1 0 0.16 0.83
0 2 -11 1.03 0.93
0 2 -10 0.75 0.79
0 2 -9 -0.17 0.59
0 2 -8 5.67 1
0 2 -8 4.64 0.98
0 2 -7 -0.86 0.42
0 2 -7 0.01 0.45
0 2 -6 222.01 5.19
0 2 -6 214.58 4.91
0 2 -5 0.86 0.43
0 2 -5 0.14 0.35
0 2 -4 36.89 1.52
0 2 -3 -0.06 0.33
0 -2 2 120.45 2.5
0 2 -2 119.66 2.62
0 2 -1 -0.1 0.22
0 -2 1 0.26 0.16
0 -2 1 0.29 0.2
0 -2 0 455.74 7.44
0 -2 0 473.1 7.33
0 2 0 470.77 7.29
0 -2 -1 0.03 0.24
0 -2 -2 116.85 2.62
0 -2 -3 -0.41 0.2
0 -2 -3 0.21 0.35
0 -2 -4 40.32 1.68
0 -2 -4 39.55 1.28
0 -2 -5 0.18 0.29
0 -2 -5 0.16 0.43
0 -2 -6 217.69 5.3
0 -2 -6 220.41 4.64
0 -2 -7 -0.06 0.5
0 -2 -7 -0.08 0.38
0 -2 -8 4.71 1.1
0 -2 -8 5.52 0.93
0 -2 -9 -0.69 0.61
0 -2 -10 0.9 0.88
0 -2 -11 -0.26 0.94
-1 2 -11 -0.18 0.79
1 2 -11 1.27 0.97
-1 2 -10 4.28 1.1
1 2 -10 5.04 1.2
-1 2 -9 2.67 0.88
1 2 -9 0.11 0.68
1 2 -9 1.89 0.84
-1 2 -8 5.95 1.11
-1 2 -8 7.79 1.14
1 2 -8 5.27 1.03
1 2 -8 6.17 1.08
-1 2 -7 0.48 0.56
-1 2 -7 0.05 0.41
1 2 -7 0.27 0.57
1 2 -7 0.01 0.45
-1 2 -6 -0.2 0.35
-1 2 -6 -0.21 0.42
1 2 -6 -0.71 0.29
1 2 -6 0.14 0.38
-1 2 -5 24.66 1.41
-1 2 -5 25.59 1.26
1 2 -5 26.59 1.34
1 2 -5 25.98 1.39
-1 2 -4 6.87 0.85
-1 2 -4 6.4 0.67
1 2 -4 4.66 0.69
-1 2 -3 17.39 0.99
1 2 -3 18.54 1.01
-1 2 -2 3.2 0.46
1 2 -2 2.88 0.46
1 -2 2 2.35 0.37
-1 -2 1 105.47 2.03
-1 2 -1 110.33 2.19
-1 -2 1 108.32 2.1
1 -2 1 108.2 1.9
1 -2 1 108.67 2.13
1 2 -1 109.68 2.22
-1 2 0 -0.2 0.15
-1 -2 0 -0.21 0.19
-1 -2 0 -0.14 0.16
1 2 0 0.07 0.18
1 -2 0 -0.33 0.17
1 -2 0 0.13 0.19
-1 -2 -1 107.84 2.25
-1 -2 -2 2.78 0.47
-1 -2 -2 3.55 0.31
1 -2 -2 2.21 0.43
-1 -2 -3 18.67 0.76
-1 -2 -3 17.72 1.04
1 -2 -3 18.5 1.08
1 -2 -3 18.54 0.72
-1 -2 -4 5.03 0.56
-1 -2 -4 5.99 0.78
1 -2 -4 4.85 0.54
1 -2 -4 5.18 0.8
-1 -2 -5 24.99 1.42
-1 -2 -5 24.91 1.16
1 -2 -5 26.24 1.15
1 -2 -5 24.04 1.46
-1 -2 -6 -0.02 0.47
-1 -2 -6 0.34 0.37
1 -2 -6 0.57 0.34
1 -2 -6 0.09 0.44
-1 -2 -7 0.52 0.46
-1 -2 -7 -0.26 0.52
1 -2 -7 0.57 0.63
1 -2 -7 0.63 0.43
-1 -2 -8 5.24 0.86
-1 -2 -8 6.62 1.22
1 -2 -8 6.53 1.18
1 -2 -8 6.75 0.97
-1 -2 -9 1.24 0.81
1 -2 -9 1.35 0.93
-1 -2 -10 6.4 1.36
1 -2 -10 7.73 1.44
-1 -2 -11 0.67 1.02
1 -2 -11 0.63 1.08
-2 2 -11 0.09 0.82
2 2 -11 0.59 0.75
-2 2 -10 0.79 0.73
2 2 -10 0.62 0.84
-2 2 -9 0.13 0.65
2 2 -9 -0.47 0.62
2 2 -9 0.06 0.63
-2 2 -8 11.63 1.42
2 2 -8 10.04 1.3
2 2 -8 10.62 1.39
-2 2 -7 -0.04 0.47
-2 2 -7 0.61 0.5
2 2 -7 0.78 0.55
2 2 -7 0.43 0.47
-2 2 -6 167.58 3.97
-2 2 -6 169.29 4.37
2 2 -6 162.92 4.19
2 2 -6 167.17 4.27
-2 2 -5 0.43 0.43
-2 2 -5 1.25 0.44
2 2 -5 1.17 0.49
-2 2 -4 20.22 0.95
-2 2 -4 16.27 1.08
2 2 -4 18.04 1.1
-2 2 -3 1.28 0.44
-2 2 -3 0.92 0.31
2 2 -3 0.69 0.38
-2 2 -2 1.74 0.42
2 -2 2 1.08 0.32
2 2 -2 1.06 0.37
-2 -2 1 6.37 0.44
-2 2 -1 7.13 0.53
-2 -2 1 5.91 0.42
2 -2 1 6.69 0.47
2 2 -1 6.92 0.55
-2 -2 0 540.83 8.2
-2 -2 0 522.84 8.52
-2 2 0 528.49 8.25
2 2 0 533.67 8.38
2 -2 0 535.61 8.39
2 -2 0 530.66 8.37
-2 -2 -1 6.61 0.56
-2 -2 -1 6.17 0.35
2 -2 -1 6.05 0.52
-2 -2 -2 1.45 0.25
-2 -2 -2 1.46 0.38
2 -2 -2 1.3 0.4
-2 -2 -3 0.56 0.37
-2 -2 -3 0.75 0.27
2 -2 -3 0.68 0.26
2 -2 -3 0.92 0.41
-2 -2 -4 19.66 0.92
-2 -2 -4 19.67 1.15
2 -2 -4 17.25 1.15
2 -2 -4 17.33 0.85
-2 -2 -5 0.27 0.41
-2 -2 -5 1.75 0.44
2 -2 -5 1.37 0.54
2 -2 -5 0.55 0.34
-2 -2 -6 164.6 4.38
-2 -2 -6 171.79 3.96
2 -2 -6 173.9 4.56
2 -2 -6 171.18 3.88
-2 -2 -7 0.99 0.66
-2 -2 -7 0.03 0.4
2 -2 -7 0.82 0.62
2 -2 -7 0.14 0.41
-2 -2 -8 9.12 1.29
-2 -2 -8 10.12 1.17
2 -2 -8 9.44 1.12
2 -2 -8 13.83 1.68
-2 -2 -9 0.42 0.69
2 -2 -9 0.89 0.81
-2 -2 -10 -0.64 0.75
2 -2 -10 -0.3 0.76
2 -2 -11 0.4 0.95
-3 2 -11 -0.42 0.76
3 2 -11 0.43 0.81
-3 2 -10 10.77 1.69
3 2 -10 11.92 1.7
-3 2 -9 0.74 0.74
3 2 -9 -0.24 0.64
3 2 -9 0.29 0.58
-3 2 -8 6.46 1.14
3 2 -8 5.99 1.06
3 2 -8 5.2 1.07
-3 2 -7 6.97 0.95
-3 2 -7 9.97 1.26
3 2 -7 7.54 1.08
3 2 -7 6.68 1.03
-3 2 -6 0.91 0.47
-3 2 -6 0.42 0.53
3 2 -6 0.78 0.48
3 2 -6 0.06 0.39
-3 2 -5 9.51 0.77
-3 2 -5 7.78 0.94
3 2 -5 9.63 1.01
-3 2 -4 25.16 1.32
-3 2 -4 26.17 1.04
3 2 -4 23.49 1.25
-3 2 -3 0.3 0.24
-3 2 -3 0.62 0.36
3 2 -3 -0.04 0.32
3 -2 3 0.79 0.35
-3 2 -2 112.32 2.54
3 -2 2 113.78 2.42
3 2 -2 112.3 2.56
-3 2 -1 31.57 0.99
-3 -2 1 29.9 0.93
-3 -2 1 30.55 0.88
3 2 -1 30.69 1.04
-3 -2 0 0.14 0.21
-3 2 0 -0.09 0.16
-3 -2 0 -0.03 0.12
3 2 0 -0.1 0.19
3 -2 0 -0.03 0.18
3 -2 0 0.21 0.23
-3 -2 -1 31.36 0.84
-3 -2 -1 29.5 1.04
3 -2 -1 29.87 1.01
-3 -2 -2 111.77 2.53
-3 -2 -2 111.42 2.19
3 -2 -2 107.42 2.57
-3 -2 -3 0.27 0.26
-3 -2 -3 0.88 0.41
3 -2 -3 0.52 0.24
3 -2 -3 -0.25 0.31
-3 -2 -4 25.55 1.3
-3 -2 -4 23.96 1.04
3 -2 -4 23.38 0.97
3 -2 -4 23.35 1.34
-3 -2 -5 8.43 0.83
-3 -2 -5 9.85 1.01
3 -2 -5 6.77 0.95
3 -2 -5 9.92 0.77
-3 -2 -6 -0.03 0.37
-3 -2 -6 -0.2 0.47
3 -2 -6 0.66 0.56
3 -2 -6 0.09 0.37
-3 -2 -7 9.84 1.29
-3 -2 -7 6.7 0.92
3 -2 -7 8.26 1.2
3 -2 -7 6.81 0.9
-3 -2 -8 5.06 0.93
-3 -2 -8 5.72 1.11
3 -2 -8 5.32 1.14
-3 -2 -9 -0.29 0.59
3 -2 -9 0.13 0.74
-3 -2 -10 11.46 1.66
3 -2 -10 8.76 1.61
3 -2 -11 -0.53 0.9
-4 2 -11 0.58 0.91
4 2 -11 0.61 0.89
-4 2 -10 1.04 0.87
4 2 -10 1.17 0.96
-4 2 -9 0.79 0.89
4 2 -9 -0.43 0.62
4 2 -9 0.13 0.72
-4 2 -8 6.43 1.08
4 2 -8 5.75 1.12
4 2 -8 6.92 1.18
-4 2 -7 3.77 0.73
-4 2 -7 2.74 0.74
4 2 -7 4.5 0.92
4 2 -7 3.83 0.89
-4 2 -6 63.11 2.11
-4 2 -6 65.43 2.5
4 2 -6 68.23 2.5
-4 2 -5 12.56 0.83
-4 2 -5 12.09 1.14
4 2 -5 11.9 1.17
-4 2 -4 12.31 0.96
-4 2 -4 12.26 0.72
4 2 -4 11 1.03
-4 2 -3 -0.16 0.3
4 2 -3 -0.09 0.32
4 -2 3 0.06 0.28
-4 2 -2 4.9 0.57
4 2 -2 5.59 0.63
4 -2 2 4.88 0.5
-4 2 -1 211.02 3.77
-4 -2 1 201.32 3.74
4 2 -1 206.01 3.84
-4 2 0 0.72 0.22
-4 -2 0 1.12 0.3
-4 -2 0 0.65 0.16
4 -2 0 0.83 0.23
4 2 0 1.39 0.34
4 -2 0 0.91 0.28
-4 -2 -1 204.36 3.83
-4 -2 -1 202.37 3.57
4 -2 -1 205.22 3.81
-4 -2 -2 6.37 0.66
-4 -2 -2 5.79 0.49
4 -2 -2 5.19 0.61
-4 -2 -3 -0.14 0.32
-4 -2 -3 0.11 0.24
4 -2 -3 -0.47 0.31
4 -2 -3 0.06 0.22
-4 -2 -4 12.15 0.98
-4 -2 -4 13.41 0.83
4 -2 -4 12.74 0.75
4 -2 -4 13.14 1.04
-4 -2 -5 13.2 1.22
-4 -2 -5 12.12 0.89
4 -2 -5 13.83 0.86
4 -2 -5 13.43 1.29
-4 -2 -6 65.9 2.49
-4 -2 -6 67.41 2.24
4 -2 -6 71.58 2.76
4 -2 -6 66.46 2.11
-4 -2 -7 1.66 0.68
-4 -2 -7 4.5 0.83
4 -2 -7 3.98 0.99
4 -2 -7 3.87 0.73
-4 -2 -8 7.98 1.14
-4 -2 -8 8.46 1.27
4 -2 -8 8.68 1.37
-4 -2 -9 -0.38 0.67
4 -2 -9 0.37 0.75
-4 -2 -10 1.69 0.95
4 -2 -10 1.51 0.97
4 -2 -11 -1.31 0.93
-5 2 -11 3.72 1.23
5 2 -11 3.53 1.23
-5 2 -10 54.96 2.96
5 2 -10 55.8 3
5 2 -10 51.71 2.97
-5 2 -9 0.97 0.83
5 2 -9 0.9 0.7
5 2 -9 0.25 0.74
-5 2 -8 22.53 2.05
5 2 -8 17.58 1.76
5 2 -8 16.35 1.69
-5 2 -7 0.09 0.52
5 2 -7 -0.27 0.46
5 2 -7 0.28 0.5
-5 2 -6 1.65 0.59
-5 2 -6 1.65 0.48
5 2 -6 1.45 0.6
-5 2 -5 -0.16 0.31
-5 2 -5 -0.35 0.23
5 2 -5 -0.61 0.29
-5 2 -4 76.91 2.39
-5 2 -4 84.05 1.94
5 2 -4 80.99 2.42
-5 2 -3 74.01 2.14
5 -2 3 74.68 2
5 2 -3 75.62 2.18
-5 2 -2 56.7 1.67
5 -2 2 54.82 1.52
-5 2 -1 4.18 0.47
-5 -2 1 3.98 0.46
5 -2 1 4.21 0.43
5 2 -1 4.61 0.53
-5 -2 0 -0.23 0.22
-5 -2 0 -0.1 0.21
-5 2 0 0.29 0.22
5 -2 0 -0.36 0.18
5 -2 0 0.12 0.26
-5 -2 -1 4.74 0.46
-5 -2 -1 3.72 0.5
-5 2 1 4.51 0.36
5 -2 -1 4.72 0.5
-5 -2 -2 52.27 1.44
-5 -2 -2 52.98 1.62
5 -2 -2 55.64 1.24
5 -2 -2 52.26 1.69
-5 -2 -3 75.24 2.13
-5 -2 -3 73.77 1.9
5 -2 -3 75.42 2.31
5 -2 -3 77.57 1.74
-5 -2 -4 80.86 2.16
-5 -2 -4 86.49 2.47
5 -2 -4 79.24 2
-5 -2 -5 1.05 0.47
-5 -2 -5 0.52 0.36
5 -2 -5 0.62 0.35
5 -2 -5 0.43 0.43
-5 -2 -6 1.74 0.63
-5 -2 -6 1.97 0.55
5 -2 -6 1.92 0.52
5 -2 -6 2.03 0.75
-5 -2 -7 -0.34 0.48
-5 -2 -7 1.31 0.57
5 -2 -7 0.56 0.58
5 -2 -7 0.56 0.43
-5 -2 -8 17.65 1.58
-5 -2 -8 16.48 1.69
5 -2 -8 19.83 2.07
-5 -2 -9 0.57 0.73
-5 -2 -9 1.76 0.86
5 -2 -9 1.11 0.82
-5 -2 -10 60.86 3.11
5 -2 -10 58.63 3.28
5 -2 -11 2.22 1.23
-6 2 -11 -1.12 0.78
6 2 -11 -0.48 0.92
-6 2 -10 3.1 1.06
6 2 -10 1.34 0.87
6 2 -10 0.22 0.84
-6 2 -9 0.96 0.75
6 2 -9 1.13 0.71
6 2 -9 1.66 0.78
-6 2 -8 0.24 0.65
6 2 -8 0.25 0.64
6 2 -8 0.64 0.7
-6 2 -7 4.85 0.96
6 2 -7 2.96 0.81
6 2 -7 3.81 0.87
-6 2 -6 4.85 0.94
-6 2 -6 4.25 0.63
6 2 -6 6.08 0.95
-6 2 -5 3.04 0.5
-6 2 -5 2.69 0.63
6 2 -5 2.51 0.62
-6 2 -4 13.2 1.16
-6 2 -4 11.9 0.65
6 2 -4 12.24 0.99
-6 2 -3 -0.01 0.31
6 -2 3 0.01 0.27
6 2 -3 0.2 0.34
-6 2 -2 50.19 1.59
6 2 -2 49.28 1.61
6 -2 2 50.88 1.46
-6 -2 1 5.23 0.55
-6 2 -1 4.04 0.49
6 2 -1 5.28 0.59
6 -2 1 3.8 0.43
-6 -2 0 0.33 0.27
-6 -2 0 0.14 0.27
-6 2 0 0.02 0.23
6 -2 0 0.19 0.28
6 -2 0 -0.07 0.22
-6 -2 -1 4.5 0.54
-6 2 1 4.38 0.38
-6 -2 -1 5.13 0.53
6 -2 -1 4.57 0.53
-6 -2 -2 50.26 1.45
-6 -2 -2 49.52 1.57
6 -2 -2 51.28 1.69
6 -2 -2 52.5 1.28
-6 -2 -3 0.04 0.35
-6 -2 -3 0.06 0.25
6 -2 -3 0.01 0.22
6 -2 -3 0.15 0.38
-6 -2 -4 13.08 1.01
-6 -2 -4 11.83 0.84
6 -2 -4 13.77 1.29
6 -2 -4 12.64 0.78
-6 -2 -5 2.67 0.62
-6 -2 -5 2.79 0.58
6 -2 -5 3.91 0.83
6 -2 -5 3.08 0.52
-6 -2 -6 3.84 0.77
-6 -2 -6 5.44 0.79
6 -2 -6 5.43 0.73
6 -2 -6 5.9 1.01
-6 -2 -7 1.39 0.6
-6 -2 -7 2.2 0.75
6 -2 -7 4.28 0.96
6 -2 -7 3.51 0.68
-6 -2 -8 0.07 0.52
-6 -2 -8 0.11 0.59
6 -2 -8 -0.72 0.58
-6 -2 -9 0.78 0.78
-6 -2 -9 0.21 0.69
6 -2 -9 -0.21 0.69
6 -2 -10 2.15 1.13
6 -2 -11 -1.04 0.89
-7 2 -11 -1.24 0.84
7 2 -11 -0.18 0.91
-7 2 -10 72.93 3.47
7 2 -10 66.81 3.44
7 2 -10 78.35 3.5
-7 2 -9 0.28 0.69
7 2 -9 -0.31 0.64
7 2 -9 0.51 0.71
-7 2 -8 34.23 2.16
7 2 -8 35.86 2.12
7 2 -8 35.51 2.21
-7 2 -7 -0.31 0.44
7 2 -7 0.95 0.61
7 2 -7 -0.12 0.45
-7 2 -6 0.28 0.46
7 2 -6 -0.12 0.45
-7 2 -5 3.51 0.52
-7 2 -5 4.49 0.76
7 2 -5 3.39 0.7
-7 2 -4 129.65 3.36
7 2 -4 127.45 3.33
-7 2 -3 54.78 1.82
7 2 -3 50.35 1.79
7 -2 3 49.46 1.59
-7 2 -2 12.38 0.83
7 2 -2 11.99 0.86
7 -2 2 11.88 0.73
-7 2 -1 2.99 0.47
-7 -2 1 2.46 0.43
7 -2 1 3 0.41
7 2 -1 2.76 0.5
-7 2 0 -0.24 0.22
-7 -2 0 0.29 0.24
-7 -2 0 0.1 0.27
7 -2 0 -0.61 0.22
-7 -2 -1 3.34 0.49
-7 2 1 2.73 0.36
-7 -2 -1 2.19 0.44
-7 -2 -2 12.15 0.76
-7 -2 -2 12.61 0.85
7 -2 -2 14.14 0.68
7 -2 -2 14.52 0.94
-7 -2 -3 51.21 1.75
-7 -2 -3 51.24 1.62
7 -2 -3 52.58 1.44
7 -2 -3 49.32 1.87
-7 -2 -4 126.38 3.03
-7 -2 -4 125.5 3.2
7 -2 -4 129.63 2.84
7 -2 -4 126.02 3.51
-7 -2 -5 3.4 0.6
-7 -2 -5 5.34 0.81
7 -2 -5 5.21 0.92
7 -2 -5 4.85 0.65
-7 -2 -6 0.11 0.4
-7 -2 -6 -0.09 0.44
7 -2 -6 -0.46 0.46
7 -2 -6 0.16 0.37
-7 -2 -7 -0.36 0.51
-7 -2 -7 0.18 0.49
7 -2 -7 -0.24 0.48
7 -2 -7 0.05 0.42
-7 -2 -8 34.62 2.1
-7 -2 -8 35.85 1.99
7 -2 -8 33.4 2.29
-7 -2 -9 -0.14 0.65
-7 -2 -9 0.28 0.75
7 -2 -9 0.14 0.81
7 -2 -10 74.7 3.78
7 -2 -11 1.32 1.1
-8 2 -11 -0.28 0.86
8 2 -11 -1.51 0.83
8 2 -11 -0.74 0.86
-8 2 -10 0.89 1
8 2 -10 1.59 1
8 2 -10 1.36 0.93
-8 2 -9 1.83 0.92
8 2 -9 2.42 0.93
8 2 -9 4.31 1.15
-8 2 -8 5.5 1.12
8 2 -8 5.4 1.09
8 2 -8 6.33 1.27
-8 2 -7 0.57 0.66
8 2 -7 1.16 0.64
-8 2 -6 10.74 1.26
8 2 -6 8.45 1.12
-8 2 -5 7.17 0.68
-8 2 -5 6 0.88
8 2 -5 6.55 0.92
-8 2 -4 111.31 3.04
8 2 -4 108.9 3.01
8 -2 4 100.9 2.71
-8 2 -3 33.4 1.45
8 2 -3 29.94 1.41
8 -2 3 32.94 1.27
-8 2 -2 93.2 2.44
8 -2 2 97.76 2.24
8 2 -2 94.49 2.49
-8 2 -1 0.21 0.28
-8 -2 1 0.27 0.29
8 2 -1 0.69 0.35
8 -2 1 -0.23 0.23
-8 2 0 206.64 3.83
-8 -2 0 198.83 3.93
8 -2 0 202.33 3.81
-8 2 1 0.07 0.25
-8 -2 -1 0.83 0.31
-8 -2 -1 0.09 0.29
-8 -2 -2 97.12 2.35
-8 -2 -2 94.27 2.41
8 -2 -2 98.77 2.19
8 -2 -2 95.7 2.58
-8 -2 -3 32.14 1.37
-8 -2 -3 30.83 1.27
8 -2 -3 32.09 1.12
8 -2 -3 30.9 1.52
-8 -2 -4 105.86 2.74
-8 -2 -4 105.6 2.87
8 -2 -4 103.49 3.14
8 -2 -4 103.57 2.5
-8 -2 -5 5.55 0.77
-8 -2 -5 5.51 0.83
8 -2 -5 6.58 0.75
8 -2 -5 5.37 0.94
-8 -2 -6 9.15 1.03
-8 -2 -6 9.24 1.13
8 -2 -6 11.95 1.43
8 -2 -6 9.92 0.99
-8 -2 -7 0.05 0.57
-8 -2 -7 0.76 0.67
8 -2 -7 1.16 0.7
8 -2 -7 1.23 0.57
-8 -2 -8 6.97 1.1
-8 -2 -8 5.87 1.08
8 -2 -8 6.13 1.25
-8 -2 -9 1.78 0.82
-8 -2 -9 5.15 1.17
8 -2 -9 3.07 1.13
8 -2 -10 1.71 0.94
8 -2 -11 1.5 1.11
-9 2 -11 0.75 1.01
9 2 -11 0.92 1.02
9 2 -11 -0.09 1.02
-9 2 -10 43.15 2.8
9 2 -10 41.94 2.85
9 2 -10 41.42 2.63
-9 2 -9 0.43 0.77
9 2 -9 0.6 0.78
9 2 -9 0.51 0.78
-9 2 -8 33.75 2.17
9 2 -8 34.99 2.24
9 2 -8 28 2
-9 2 -7 0.16 0.59
9 2 -7 0.28 0.61
-9 2 -6 9.92 1.19
9 2 -6 7.29 1.05
-9 2 -5 1.07 0.54
-9 2 -5 1.15 0.39
9 2 -5 1.17 0.57
-9 2 -4 164.81 4
9 2 -4 160.16 3.98
9 -2 4 161.68 3.65
-9 2 -3 16.42 1.07
9 2 -3 15.17 1.06
9 -2 3 17.66 0.94
-9 2 -2 171.05 3.73
9 -2 2 179.99 3.52
9 2 -2 167.35 3.78
-9 2 -1 3.42 0.52
-9 -2 1 2.98 0.51
9 2 -1 3.22 0.55
9 -2 1 3.09 0.43
-9 -2 0 0.17 0.27
-9 -2 0 -0.12 0.27
-9 2 0 -0.38 0.22
9 -2 0 -0.49 0.23
-9 2 1 3.34 0.43
-9 -2 -1 2.68 0.48
-9 -2 -1 2.55 0.46
-9 -2 -2 171.15 3.65
-9 -2 -2 169.09 3.6
-9 -2 -3 16.61 0.99
-9 -2 -3 16.7 1.04
9 -2 -3 16.26 0.85
9 -2 -3 14.78 1.12
-9 -2 -4 163.27 3.76
-9 -2 -4 163.23 3.87
9 -2 -4 163.86 4.27
9 -2 -4 166.54 3.53
-9 -2 -5 1.2 0.52
-9 -2 -5 2.43 0.57
9 -2 -5 -0.17 0.4
9 -2 -5 1.9 0.47
-9 -2 -6 5.75 0.85
-9 -2 -6 6.8 0.98
9 -2 -6 6.89 1.16
9 -2 -6 8.76 0.94
-9 -2 -7 -0.18 0.48
-9 -2 -7 0.45 0.59
9 -2 -7 -0.82 0.47
9 -2 -7 0.11 0.45
-9 -2 -8 29.45 1.87
-9 -2 -8 27.89 1.9
9 -2 -8 27.31 2.17
-9 -2 -9 -0.18 0.66
9 -2 -9 -0.15 0.72
9 -2 -10 36.73 2.78
9 -2 -11 -0.26 0.96
-10 2 -11 -0.33 0.98
10 2 -11 -0.34 0.95
10 2 -11 -0.5 0.9
-10 2 -10 0.44 0.93
10 2 -10 1.39 1.02
10 2 -10 -0.19 0.87
-10 2 -9 5.15 1.2
10 2 -9 2.17 0.9
10 2 -9 5.01 1.19
-10 2 -8 23.95 2.19
10 2 -8 25.13 1.89
10 2 -8 24.93 2
-10 2 -7 9.02 1.33
10 2 -7 9.22 1.31
10 2 -6 34.05 1.86
-10 2 -5 5.17 0.87
10 2 -5 6.95 0.99
-10 2 -4 0.08 0.37
10 2 -4 -0.16 0.34
10 -2 4 -0.03 0.31
-10 2 -3 2.28 0.54
10 2 -3 2.71 0.58
10 -2 3 1.77 0.43
-10 2 -2 38.34 1.5
10 -2 2 39.68 1.33
10 2 -2 37.94 1.56
-10 2 -1 46.38 1.56
-10 -2 1 48.43 1.6
10 -2 1 48.28 1.45
10 2 -1 51.25 1.76
-10 -2 0 55.28 1.69
-10 -2 0 57.27 1.73
-10 2 0 60.98 1.7
10 -2 0 56.49 1.61
-10 -2 -1 44.07 1.53
-10 2 1 48.15 1.43
-10 -2 -1 48.67 1.59
-10 -2 -2 38.87 1.48
-10 2 2 42.01 1.32
-10 -2 -2 41.76 1.52
-10 -2 -3 3.02 0.57
-10 -2 -3 1.88 0.48
10 -2 -3 2.21 0.44
-10 -2 -4 0.02 0.37
-10 -2 -4 0.08 0.34
10 -2 -4 0.42 0.29
10 -2 -4 0.05 0.43
-10 -2 -5 5.31 0.85
-10 -2 -5 5.39 0.79
10 -2 -5 3.51 0.82
10 -2 -5 6.15 0.77
-10 -2 -6 36.72 1.78
-10 -2 -6 35.43 1.83
10 -2 -6 32.8 1.58
10 -2 -6 33.8 2.07
-10 -2 -7 5.59 0.99
-10 -2 -7 9.14 1.17
10 -2 -7 5.68 1.21
-10 -2 -8 26.47 1.87
-10 -2 -8 24.81 1.79
10 -2 -8 29.8 2.25
-10 -2 -9 4.43 1.12
10 -2 -9 3.66 1.17
10 -2 -10 0.58 0.96
10 -2 -11 0.13 1.07
-11 2 -11 0.37 1.06
11 2 -11 -0.06 1.14
-11 2 -10 4.76 1.3
11 2 -10 8.16 1.42
11 2 -10 6.62 1.53
-11 2 -9 0.66 0.85
11 2 -9 0.15 0.74
11 2 -9 0.75 0.82
-11 2 -8 25.21 1.99
11 2 -8 22.15 2.21
11 2 -8 24.66 1.88
-11 2 -7 0.87 0.68
11 2 -7 1.22 0.75
-11 2 -6 9.68 1.22
11 2 -6 10.31 1.31
-11 2 -5 1.83 0.66
11 2 -5 2.32 0.64
-11 2 -4 0.37 0.38
11 2 -4 0.09 0.42
11 -2 4 0.77 0.4
-11 2 -3 0.45 0.37
11 2 -3 0.6 0.46
11 -2 3 0.66 0.35
-11 2 -2 19.76 1.11
11 2 -2 20.96 1.19
11 -2 2 21.17 0.97
-11 2 -1 50.01 1.67
11 -2 1 51.64 1.54
11 2 -1 51.52 1.85
-11 -2 0 0.24 0.3
-11 -2 0 0.06 0.28
-11 2 0 -0.31 0.25
11 -2 0 0 0.27
-11 -2 -1 48.51 1.66
-11 -2 -1 51.75 1.65
-11 2 1 50.2 1.53
-11 -2 -2 20.32 1.11
-11 2 2 22.13 0.99
-11 -2 -2 21.09 1.11
-11 -2 -3 0.23 0.34
-11 -2 -3 1.77 0.51
11 -2 -3 0.55 0.34
-11 -2 -4 0.3 0.37
-11 -2 -4 0.59 0.44
11 -2 -4 0.19 0.46
11 -2 -4 0.27 0.34
-11 -2 -5 3.29 0.71
-11 -2 -5 1.19 0.52
11 -2 -5 2.03 0.52
11 -2 -5 0.39 0.55
-11 -2 -6 11.91 1.28
-11 -2 -6 11.15 1.21
11 -2 -6 12.14 1.49
11 -2 -6 8.19 1
-11 -2 -7 1.54 0.68
-11 -2 -7 0.36 0.53
11 -2 -7 0.87 0.73
-11 -2 -8 20.07 1.83
-11 -2 -8 24 1.83
11 -2 -8 20.03 2.15
-11 -2 -9 0.2 0.67
11 -2 -9 2.02 1.01
11 -2 -10 2.26 1.26
11 -2 -11 0.62 1.03
-12 2 -11 1.28 1.07
12 2 -11 -0.02 1.09
-12 2 -10 0.39 0.81
12 2 -10 0.91 0.92
12 2 -10 0.71 0.98
-12 2 -9 1.74 0.87
12 2 -9 0.58 0.77
12 2 -9 0.75 0.87
-12 2 -8 89.42 3.61
12 2 -8 90.49 3.54
-12 2 -7 6.01 1.12
12 2 -7 5.99 1.14
-12 2 -6 119.45 3.79
12 2 -6 118.73 3.76
-12 2 -5 0.75 0.49
12 2 -5 0.59 0.5
-12 2 -4 3.79 0.73
12 2 -4 3.29 0.7
12 -2 4 3.63 0.6
-12 2 -3 2.71 0.6
12 2 -3 3.2 0.66
12 -2 3 4.09 0.59
-12 2 -2 30.33 1.4
12 2 -2 31.6 1.49
12 -2 2 29.87 1.19
-12 2 -1 16.77 1
12 -2 1 16.22 0.88
-12 -2 0 41.72 1.59
-12 2 0 47.16 1.59
-12 -2 0 45.37 1.56
12 -2 0 46.69 1.48
-12 -2 -1 15.87 0.96
-12 2 1 17.03 0.92
-12 -2 -1 17.69 1.02
-12 2 2 32.87 1.26
-12 -2 -2 31.58 1.42
-12 -2 -2 28.87 1.32
-12 -2 -3 4.31 0.67
-12 -2 -3 4.07 0.69
12 -2 -3 3.61 0.58
-12 -2 -4 4.52 0.74
-12 -2 -4 3.88 0.73
12 -2 -4 5.3 0.69
12 -2 -4 3.49 0.77
-12 -2 -5 0.56 0.43
-12 -2 -5 0.72 0.5
12 -2 -5 0.44 0.59
12 -2 -5 0.57 0.41
-12 -2 -6 113.09 3.42
-12 -2 -6 113.76 3.39
12 -2 -6 112.88 3.95
12 -2 -6 111.93 3.15
-12 -2 -7 4.97 1.06
-12 -2 -7 4.44 0.94
12 -2 -7 3.76 1.06
-12 -2 -8 82.33 3.19
12 -2 -8 89.3 3.87
-12 -2 -9 -0.17 0.74
12 -2 -9 -0.08 0.89
12 -2 -10 -0.42 0.9
-13 2 -10 -0.03 0.95
13 2 -10 0.99 0.86
13 2 -10 0.97 1
-13 2 -9 1.22 0.94
13 2 -9 0.5 0.78
13 2 -9 0.58 0.82
-13 2 -8 5.25 1.17
13 2 -8 6.23 1.3
-13 2 -7 -0.07 0.58
13 2 -7 0.49 0.7
-13 2 -6 3.26 0.9
13 2 -6 2.59 0.76
-13 2 -5 0.9 0.53
13 2 -5 1.44 0.62
-13 2 -4 5.39 0.82
13 -2 4 6.73 0.76
13 2 -4 6.15 0.92
-13 2 -3 1.5 0.48
13 -2 3 0.94 0.36
13 2 -3 0.56 0.42
-13 2 -2 0.3 0.34
13 2 -2 0.26 0.39
13 -2 2 0.59 0.33
-13 2 -1 0.26 0.33
13 -2 1 -0.04 0.27
-13 -2 0 -0.7 0.22
-13 2 0 -0.09 0.29
-13 -2 0 0 0.3
13 -2 0 0.15 0.28
-13 -2 -1 -0.13 0.25
-13 2 1 0.52 0.31
-13 -2 -1 -0.09 0.27
-13 -2 -2 0.39 0.35
-13 2 2 0.45 0.3
-13 -2 -2 1.02 0.41
-13 -2 -3 0.26 0.38
-13 -2 -3 1.08 0.47
13 -2 -3 0.33 0.35
-13 -2 -4 6.08 0.83
-13 -2 -4 4.06 0.74
13 -2 -4 4.6 0.67
-13 -2 -5 0.17 0.5
-13 -2 -5 -0.09 0.43
13 -2 -5 1.91 0.5
13 -2 -5 0.56 0.63
-13 -2 -6 3.84 0.83
-13 -2 -6 4.12 0.83
13 -2 -6 4.49 0.82
13 -2 -6 5.39 1.17
-13 -2 -7 -1.07 0.5
-13 -2 -7 0.01 0.52
13 -2 -7 0.09 0.7
-13 -2 -8 8.43 1.26
13 -2 -8 6.77 1.48
-13 -2 -9 0.66 0.71
13 -2 -9 0.92 0.97
13 -2 -10 -1.21 0.85
-14 2 -10 0.31 0.88
14 2 -10 1.59 1.15
14 2 -10 0.82 0.89
-14 2 -9 -0.71 0.78
14 2 -9 0.27 0.88
14 2 -9 0.2 0.81
-14 2 -8 37.41 2.43
14 2 -8 35.03 2.33
-14 2 -7 1.15 0.78
14 2 -7 -0.32 0.57
-14 2 -6 34.93 2.01
14 2 -6 32.97 2.01
-14 2 -5 0.84 0.61
14 2 -5 0.69 0.56
-14 2 -4 26.49 1.57
14 -2 4 31.88 1.4
14 2 -4 28.14 1.64
-14 2 -3 -0.75 0.33
14 -2 3 0.35 0.36
14 2 -3 0.02 0.44
-14 2 -2 65.26 2.23
14 2 -2 69.3 2.4
14 -2 2 69.55 1.97
-14 -2 1 8.69 0.89
-14 2 -1 8.69 0.89
14 -2 1 9.04 0.77
-14 -2 0 43.36 1.64
-14 2 0 42.9 1.64
-14 -2 0 41.39 1.67
14 -2 0 44.54 1.49
-14 -2 -1 7.92 0.88
-14 2 1 10.62 0.92
-14 -2 -1 8.74 0.86
-14 -2 -2 62.58 2.06
-14 2 2 66.61 2.02
-14 -2 -2 66.47 2.22
-14 -2 -3 0 0.34
-14 -2 -3 -0.29 0.34
14 -2 -3 0.02 0.35
-14 -2 -4 30 1.5
-14 -2 -4 27.95 1.55
14 -2 -4 29.85 1.44
-14 -2 -5 0.83 0.52
-14 -2 -5 0.37 0.46
14 -2 -5 1.02 0.51
14 -2 -5 0.06 0.5
-14 -2 -6 36.11 1.87
-14 -2 -6 38.2 1.99
14 -2 -6 36.42 2.31
14 -2 -6 36.65 1.8
-14 -2 -7 0.76 0.63
-14 -2 -7 0.4 0.61
14 -2 -7 -0.13 0.63
-14 -2 -8 36.56 2.24
14 -2 -8 33.79 2.57
-14 -2 -9 -0.39 0.7
14 -2 -9 -0.57 0.8
-14 -2 -10 -0.58 0.9
14 -2 -10 1.44 1.09
-15 2 -10 8.39 1.63
15 2 -10 6.92 1.54
15 2 -10 4.49 1.54
-15 2 -9 2.07 0.99
15 2 -9 4.96 1.33
15 2 -9 3.43 1.09
-15 2 -8 3.72 1.11
15 2 -8 4.01 1.04
-15 2 -7 0.16 0.62
15 2 -7 1.91 0.92
-15 2 -6 4.29 0.94
15 2 -6 5.58 1.07
-15 2 -5 10.94 1.28
15 2 -5 9.41 1.24
-15 2 -4 64.35 2.48
15 2 -4 66.29 2.56
15 -2 4 64.77 2.11
-15 2 -3 16.8 1.24
15 -2 3 20.53 1.1
15 2 -3 19.25 1.35
-15 2 -2 34.04 1.6
15 -2 2 34.55 1.33
15 2 -2 31.61 1.66
-15 -2 1 43.15 1.73
-15 2 -1 43.48 1.75
15 -2 1 41.05 1.48
-15 -2 0 -0.07 0.28
-15 -2 0 -0.06 0.27
-15 2 0 0.32 0.35
15 -2 0 0.18 0.29
-15 2 1 43.19 1.64
-15 -2 -1 41.36 1.61
-15 -2 -2 30.8 1.43
-15 -2 -2 29.87 1.5
-15 2 2 31.47 1.39
-15 -2 -3 20.91 1.31
-15 -2 -3 19.52 1.19
15 -2 -3 19.59 1.22
-15 -2 -4 70.85 2.54
-15 -2 -4 68.97 2.36
15 -2 -4 69.45 2.33
-15 -2 -5 12.7 1.3
-15 -2 -5 10.59 1.16
15 -2 -5 14.01 1.58
15 -2 -5 9.62 1.09
-15 -2 -6 5.81 0.96
-15 -2 -6 5 0.94
15 -2 -6 7.32 1.4
15 -2 -6 6.92 0.99
-15 -2 -7 0.78 0.64
15 -2 -7 2.66 0.94
-15 -2 -8 2.8 0.87
15 -2 -8 2.45 1.04
-15 -2 -9 2.45 0.97
15 -2 -9 3.5 1.32
-15 -2 -10 7.89 1.5
15 -2 -10 5.69 1.59
-16 2 -10 -0.48 0.94
16 2 -10 0.49 1.01
16 2 -10 0.7 0.99
-16 2 -9 0.17 0.87
16 2 -9 -0.51 0.79
16 2 -9 -0.7 0.81
-16 2 -8 19.37 2.04
16 2 -8 19.65 2.04
-16 2 -7 0 0.65
16 2 -7 -0.06 0.69
-16 2 -6 28.45 1.92
16 2 -6 25.76 1.89
-16 2 -5 11.65 1.35
16 2 -5 14.23 1.52
-16 2 -4 61.21 2.47
16 2 -4 65.86 2.63
16 -2 4 62.27 2.09
-16 2 -3 3.15 0.74
16 2 -3 4.09 0.82
16 -2 3 3.65 0.59
-16 2 -2 27.81 1.52
16 -2 2 30.71 1.28
16 2 -2 31.67 1.69
-16 2 -1 10.56 1.05
-16 -2 1 12.97 1.02
16 -2 1 11.15 0.83
-16 -2 0 11.97 0.93
-16 -2 0 12.9 1.01
-16 2 0 13.48 1.01
16 -2 0 13.17 0.88
-16 2 1 11.76 0.94
-16 -2 -1 12.66 1.01
-16 -2 -1 10.42 0.98
-16 -2 -2 27.84 1.36
-16 -2 -2 29.33 1.52
-16 2 2 28.62 1.39
-16 -2 -3 4.66 0.83
-16 -2 -3 3.77 0.68
16 -2 -3 2.95 0.64
-16 -2 -4 60.31 2.39
-16 -2 -4 62.77 2.26
16 -2 -4 59.7 2.22
-16 -2 -5 14.53 1.34
-16 -2 -5 14.56 1.42
16 -2 -5 16.37 1.28
16 -2 -5 14.44 1.72
-16 -2 -6 26.36 1.67
-16 -2 -6 26.17 1.76
16 -2 -6 26.84 1.69
16 -2 -6 26.42 2.12
-16 -2 -7 2.21 0.81
16 -2 -7 1.32 0.83
-16 -2 -8 23.15 2.06
16 -2 -8 18.44 2.23
-16 -2 -9 -0.21 0.79
16 -2 -9 -0.66 0.76
-16 -2 -10 0.03 0.86
16 -2 -10 1.14 1.3
-17 2 -10 13.45 2.1
17 2 -10 13.68 2.22
17 2 -10 14.95 2.09
-17 2 -9 3.4 1.26
17 2 -9 2.49 1.04
17 2 -9 1.44 1.03
-17 2 -8 28.53 2.28
17 2 -8 32.21 2.3
-17 2 -7 1.45 0.83
17 2 -7 1.05 0.8
-17 2 -6 10.21 1.38
17 2 -6 8.24 1.3
-17 2 -5 3.1 0.83
17 2 -5 3.29 0.91
-17 2 -4 71.32 2.73
17 2 -4 71.12 2.8
17 -2 4 69.06 2.22
-17 2 -3 0.61 0.44
17 -2 3 0.61 0.43
17 2 -3 1.1 0.6
-17 2 -2 89.15 2.84
17 -2 2 89.19 2.4
17 2 -2 92.63 3.06
-17 2 -1 6.87 0.88
-17 -2 1 5.28 0.78
17 -2 1 6.54 0.72
-17 -2 0 -0.12 0.31
-17 -2 0 0.13 0.33
-17 2 0 0.28 0.37
17 -2 0 0.34 0.33
-17 2 1 7.09 0.83
-17 -2 -1 7.3 0.92
-17 -2 -1 6.81 0.8
-17 2 2 88 2.63
-17 -2 -2 89.21 2.62
-17 -2 -2 87.09 2.81
-17 -2 -3 0.45 0.45
-17 -2 -3 1.01 0.56
17 -2 -3 0.76 0.46
-17 -2 -4 74.79 2.53
-17 -2 -4 73.34 2.7
17 -2 -4 72.3 2.53
-17 -2 -5 3.82 0.77
-17 -2 -5 4.64 0.94
17 -2 -5 3.98 0.79
-17 -2 -6 12.97 1.48
17 -2 -6 13.47 1.57
17 -2 -6 10.22 1.67
-17 -2 -7 2.66 0.89
17 -2 -7 0.05 0.85
-17 -2 -8 29.69 2.15
17 -2 -8 28.33 2.73
-17 -2 -9 3.94 1.09
17 -2 -9 3.47 1.28
-17 -2 -10 16.05 2.02
17 -2 -10 13.12 2.39
-18 2 -10 2.06 1.18
18 2 -10 0.64 1.15
-18 2 -9 0.17 0.8
18 2 -9 -0.14 0.87
18 2 -9 0.21 0.96
-18 2 -8 3.44 1.16
18 2 -8 1.6 0.91
-18 2 -7 0.83 0.79
18 2 -7 2.25 0.98
-18 2 -6 7.18 1.29
18 2 -6 9.59 1.38
-18 2 -5 3.13 0.79
18 2 -5 2.52 0.86
-18 2 -4 16.25 1.56
18 2 -4 20.42 1.61
18 -2 4 17.95 1.15
-18 2 -3 0.19 0.46
18 2 -3 0.91 0.59
18 -2 3 0.97 0.42
-18 2 -2 7.32 0.99
18 -2 2 6.49 0.72
18 2 -2 7.03 1.09
-18 -2 1 3.07 0.68
-18 2 -1 4.52 0.77
18 -2 1 2.97 0.55
-18 -2 0 3.55 0.68
-18 -2 0 5.34 0.78
-18 2 0 6.28 0.87
18 -2 0 5.51 0.68
-18 -2 -1 3.71 0.75
-18 2 1 2.85 0.64
-18 -2 -1 3.21 0.65
-18 -2 -2 5.41 0.88
-18 2 2 4.3 0.75
-18 -2 -2 4.44 0.72
-18 -2 -3 0.91 0.53
-18 -2 -3 0.16 0.39
18 -2 -3 0.55 0.48
-18 -2 -4 19.15 1.45
-18 -2 -4 19.02 1.33
18 -2 -4 20.54 1.43
-18 -2 -5 0.91 0.63
-18 -2 -5 2.94 0.76
18 -2 -5 1.78 0.65
-18 -2 -6 10.97 1.37
18 -2 -6 7.84 1.52
-18 -2 -7 2.49 0.89
18 -2 -7 1.02 0.9
-18 -2 -8 2.31 0.91
18 -2 -8 2.05 1.03
-18 -2 -9 0.44 0.86
18 -2 -9 -0.71 0.86
-18 -2 -10 -0.31 0.98
-19 2 -9 0.17 0.87
19 2 -9 0.55 0.99
19 2 -9 0.31 1
-19 2 -8 24.29 2.36
19 2 -8 19.45 2.12
-19 2 -7 -0.68 0.61
19 2 -7 0.92 0.84
-19 2 -6 3.54 1.02
19 2 -6 5.22 1.15
-19 2 -5 -0.66 0.47
19 2 -5 0.18 0.63
-19 2 -4 47.35 2.3
19 -2 4 49.82 1.88
19 2 -4 52.21 2.47
-19 2 -3 10.12 1.26
19 -2 3 10.06 0.94
19 2 -3 8.07 1.2
-19 2 -2 101.67 3.21
19 -2 2 104.53 2.72
19 2 -2 100.72 3.43
-19 -2 1 0.06 0.35
-19 2 -1 0.8 0.51
19 -2 1 0.45 0.37
-19 2 0 0.35 0.38
-19 -2 0 0.21 0.38
19 -2 0 0.11 0.33
-19 -2 -1 -0.05 0.37
-19 -2 -1 0.41 0.42
-19 2 1 0.32 0.42
-19 -2 -2 104.59 2.98
-19 -2 -2 101.17 3.23
-19 2 2 104.05 3.06
-19 -2 -3 9.78 1.06
-19 -2 -3 9.17 1.17
19 -2 -3 8.99 1.14
-19 -2 -4 52.61 2.15
-19 -2 -4 52.77 2.43
19 -2 -4 58.79 2.4
-19 -2 -5 -0.14 0.52
-19 -2 -5 0.16 0.51
19 -2 -5 0.28 0.54
-19 -2 -6 4.82 1.03
19 -2 -6 4.7 1.22
-19 -2 -7 -0.13 0.61
19 -2 -7 0.4 0.81
-19 -2 -8 25.4 2.34
19 -2 -8 24.8 2.67
-19 -2 -9 0.58 0.92
19 -2 -9 -0.41 0.97
-20 2 -9 0.59 0.92
20 2 -9 0.12 0.88
20 2 -9 0.33 1.06
-20 2 -8 -0.01 0.91
20 2 -8 -0.66 0.79
-20 2 -7 3 1.13
20 2 -7 1.69 0.89
-20 2 -6 1.98 0.84
20 2 -6 1.11 0.82
-20 2 -5 12.84 1.56
20 2 -5 6.42 1.23
-20 2 -4 10.19 1.36
20 2 -4 7.56 1.2
-20 2 -3 1.23 0.56
20 -2 3 0.8 0.42
20 2 -3 0.96 0.7
-20 2 -2 -0.33 0.4
20 -2 2 -0.24 0.34
20 2 -2 0.41 0.61
-20 2 -1 33 1.77
-20 -2 1 32.92 1.75
20 -2 1 31.17 1.4
-20 -2 0 6.84 0.98
-20 2 0 5.55 0.86
20 -2 0 7.11 0.79
-20 2 1 33.46 1.69
-20 -2 -1 28.63 1.66
-20 -2 -1 29.78 1.54
-20 2 2 0.27 0.43
-20 -2 -2 0.2 0.39
-20 -2 -2 -0.03 0.39
-20 -2 -3 0.52 0.49
-20 -2 -3 0.35 0.49
20 -2 -3 1.18 0.61
-20 -2 -4 8.87 1.06
-20 -2 -4 10.71 1.33
20 -2 -4 10.18 1.26
-20 -2 -5 8.29 1.26
20 -2 -5 8.56 1.23
-20 -2 -6 2.93 0.94
20 -2 -6 3.17 1.16
-20 -2 -7 2.69 0.89
20 -2 -7 2.24 1.12
-20 -2 -8 -0.56 0.75
20 -2 -8 0.94 1.08
-20 -2 -9 -1.23 0.86
20 -2 -9 -0.36 0.97
-21 2 -9 0.69 1.02
21 2 -9 1.14 1.09
-21 2 -8 9.41 1.69
21 2 -8 10.91 1.76
-21 2 -7 -1.49 0.63
21 2 -7 1.31 0.9
-21 2 -6 1.88 0.86
21 2 -6 1.1 0.87
-21 2 -5 0.64 0.71
21 2 -5 2.34 0.92
-21 2 -4 42.06 2.31
21 2 -4 45.74 2.46
-21 2 -3 5.86 1.04
21 2 -3 4.6 1
-21 2 -2 68.1 2.65
21 -2 2 64.06 2.15
21 2 -2 67.08 2.86
-21 -2 1 1.06 0.53
-21 2 -1 1.52 0.61
21 -2 1 1.42 0.49
-21 2 0 -0.02 0.44
-21 -2 0 0.24 0.42
21 -2 0 0.48 0.41
-21 -2 -1 1.19 0.58
-21 2 1 0.85 0.51
-21 -2 -1 0.97 0.52
-21 -2 -2 68.1 2.42
-21 2 2 65.56 2.48
-21 -2 -2 69.31 2.69
-21 -2 -3 4.43 0.8
-21 -2 -3 5.69 1
21 -2 -3 5.07 0.98
-21 -2 -4 43.42 1.99
-21 -2 -4 47.8 2.41
21 -2 -4 45.25 2.26
-21 -2 -5 2.29 0.87
21 -2 -5 1.43 0.77
-21 -2 -6 1.4 0.8
21 -2 -6 0.73 0.8
-21 -2 -7 -0.35 0.68
21 -2 -7 0.21 0.93
-21 -2 -8 10.08 1.57
21 -2 -8 10.64 1.94
-21 -2 -9 1.2 1
21 -2 -9 -0.79 1.08
22 2 -9 0.13 1.07
-22 2 -8 1.42 1.05
22 2 -8 2.68 1.2
-22 2 -7 2.04 0.97
22 2 -7 1.16 1.01
-22 2 -6 21.09 2.08
22 2 -6 23.99 2.35
-22 2 -5 3.39 0.9
22 2 -5 4.98 1.21
-22 2 -4 2.42 0.84
22 2 -4 2.62 0.95
-22 2 -3 0.18 0.52
22 2 -3 -0.83 0.5
-22 2 -2 8.43 1.18
22 2 -2 9.12 1.38
-22 -2 1 2.34 0.71
-22 2 -1 2.22 0.69
-22 2 0 95.41 3.15
-22 -2 0 97.87 3.29
22 -2 0 99.87 2.77
-22 2 1 1.72 0.62
-22 -2 -1 3.13 0.77
-22 -2 -1 2.39 0.65
-22 -2 -2 9.3 1.21
-22 -2 -2 8.58 1.04
-22 2 2 10.81 1.23
-22 -2 -3 -0.32 0.45
-22 -2 -3 0.4 0.51
22 -2 -3 -0.31 0.51
-22 -2 -4 2.11 0.8
-22 -2 -4 3.05 0.75
22 -2 -4 1.42 0.73
-22 -2 -5 3.71 1.03
22 -2 -5 3.37 0.99
-22 -2 -6 25.68 2.06
22 -2 -6 23.98 2.52
-22 -2 -7 1.11 0.88
22 -2 -7 1.64 1.17
-22 -2 -8 2.89 1.18
22 -2 -8 1.56 1.2
-22 -2 -9 0.08 0.9
-23 2 -8 13.13 1.95
23 2 -8 8.57 1.72
-23 2 -7 3.47 1.2
23 2 -7 2.11 1.1
-23 2 -6 -0.15 0.69
23 2 -6 0.08 0.77
-23 2 -5 0.41 0.75
23 2 -5 1.87 0.94
-23 2 -4 20.26 1.94
23 2 -4 20.37 2.01
-23 2 -3 12.9 1.57
23 2 -3 16.06 1.81
-23 2 -2 22.26 1.69
23 2 -2 20.48 2.03
-23 2 -1 12.01 1.36
-23 -2 1 9.63 1.26
-23 2 0 0.47 0.48
-23 -2 0 -0.43 0.45
-23 2 1 10.1 1.23
-23 -2 -1 11.3 1.39
23 -2 -1 12.37 1.17
-23 -2 -2 22.29 1.46
-23 2 2 19.16 1.46
-23 -2 -2 24.47 1.69
-23 -2 -3 13.74 1.3
-23 -2 -3 11.6 1.44
23 -2 -3 11.79 1.47
-23 -2 -4 21.77 1.74
23 -2 -4 18.58 1.81
-23 -2 -5 0.64 0.7
23 -2 -5 1.49 0.8
-23 -2 -6 0.13 0.61
23 -2 -6 1 0.99
-23 -2 -7 1.08 0.93
23 -2 -7 2.25 1.15
-23 -2 -8 14.32 1.91
23 -2 -8 10.67 2.05
-24 2 -8 4.36 1.38
24 2 -8 4.57 1.42
-24 2 -7 -0.39 0.81
24 2 -7 2.51 1.12
-24 2 -6 23.24 2.4
24 2 -6 21.51 2.33
-24 2 -5 7.78 1.39
24 2 -5 3.13 0.97
-24 2 -4 7.68 1.26
24 2 -4 6.04 1.23
-24 2 -3 0.65 0.6
24 2 -3 1.77 0.84
-24 2 -2 8.81 1.31
24 2 -2 10.2 1.52
-24 2 -1 8.86 1.25
-24 -2 1 9.3 1.28
-24 2 0 57.73 2.49
-24 -2 0 60.16 2.64
-24 -2 -1 10.14 1.33
-24 2 1 7.35 1.14
-24 -2 -2 9.79 1.3
-24 -2 -2 10.47 1.21
-24 2 2 9.33 1.2
-24 -2 -3 0.1 0.49
-24 -2 -3 0.31 0.59
24 -2 -3 0.7 0.69
-24 -2 -4 7.39 1.27
24 -2 -4 9.21 1.39
-24 -2 -5 6.67 1.32
-24 -2 -6 26.51 2.12
24 -2 -6 21.54 2.49
-24 -2 -7 1.87 0.96
24 -2 -7 0.34 1.06
-24 -2 -8 4.24 1.27
24 -2 -8 7.32 1.84
25 2 -8 -0.8 0.97
-25 2 -7 -0.87 0.79
25 2 -7 -0.64 0.79
-25 2 -6 4.07 1.16
25 2 -6 1.15 1.1
-25 2 -5 0.83 0.76
25 2 -5 -0.32 0.77
-25 2 -4 -0.22 0.6
25 2 -4 1.13 0.78
-25 2 -3 18.75 1.92
25 2 -3 20.05 2.11
-25 2 -2 0.59 0.67
25 2 -2 0.84 0.76
-25 2 -1 0.1 0.52
-25 2 0 0.7 0.6
-25 -2 0 0.26 0.54
-25 -2 -1 -0.72 0.47
-25 2 1 -0.14 0.45
-25 -2 -2 0.46 0.5
-25 -2 -2 -0.44 0.49
-25 2 2 1.23 0.64
-25 -2 -3 22.21 2.02
25 -2 -3 19.74 1.91
-25 -2 -4 -0.25 0.56
25 -2 -4 0.22 0.62
-25 -2 -5 1.08 0.84
-25 -2 -6 1.58 0.94
25 -2 -6 2.33 1.18
-25 -2 -7 0.35 0.93
25 -2 -7 -0.78 0.98
-25 -2 -8 1.31 1
-26 2 -7 -0.51 0.81
26 2 -7 0 1.01
-26 2 -6 35.8 2.55
26 2 -6 34.19 2.66
-26 2 -5 0.45 0.79
26 2 -5 1.11 0.95
-26 2 -4 17.08 1.89
26 2 -4 20.93 2.27
-26 2 -3 0.28 0.73
26 2 -3 0.33 0.68
-26 2 -2 48.8 2.51
26 2 -2 43.58 2.68
-26 2 -1 0.17 0.55
-26 2 0 101.22 3.55
-26 -2 0 102.88 3.68
-26 -2 -1 0.15 0.6
-26 2 1 -0.32 0.57
-26 2 2 49.1 2.37
-26 -2 -2 44.53 2.45
-26 -2 -3 -0.15 0.62
26 -2 -3 1.11 0.82
-26 -2 -4 15.8 1.88
26 -2 -4 15.52 1.71
-26 -2 -5 0.52 0.74
-26 -2 -6 38.87 2.62
26 -2 -6 30.43 3.12
-26 -2 -7 -0.11 0.81
26 -2 -7 -0.08 1.17
-27 2 -7 -0.56 0.93
27 2 -7 -0.91 0.86
-27 2 -6 1.36 0.99
27 2 -6 1.12 0.98
-27 2 -5 0.61 0.82
27 2 -5 2.25 1.25
-27 2 -4 3.6 1.08
27 2 -4 3.19 1.13
-27 2 -3 7.04 1.25
27 2 -3 5.8 1.35
-27 2 -2 4.02 1.04
27 2 -2 4.05 1.21
-27 2 -1 -0.08 0.58
-27 -2 0 0.74 0.58
-27 2 0 1.39 0.68
-27 2 1 0.58 0.67
-27 -2 -1 1.38 0.72
-27 2 2 3.27 0.86
-27 -2 -2 3.92 1.04
-27 -2 -3 5.95 1.15
27 -2 -3 5.85 1.23
-27 -2 -4 2.97 0.98
27 -2 -4 2.68 1.01
-27 -2 -5 1.83 0.95
-27 -2 -6 0.27 0.78
27 -2 -6 0.35 1
-27 -2 -7 0.54 0.96
27 -2 -7 -0.35 1.2
28 2 -7 1.91 1.23
-28 2 -6 21.94 2.39
28 2 -6 22.33 2.52
-28 2 -5 2.81 1.08
28 2 -5 3.86 1.31
-28 2 -4 12.17 1.74
28 2 -4 7.38 1.54
-28 2 -3 0.08 0.72
28 2 -3 0.4 0.84
-28 2 -2 9 1.39
28 2 -2 9.61 1.61
-28 2 -1 21.22 1.96
-28 -2 0 36.71 2.3
-28 2 0 40.03 2.3
-28 -2 -1 19.87 2.08
-28 2 1 19.55 1.85
-28 2 2 11.52 1.43
-28 -2 -2 10.13 1.56
-28 -2 -3 0.43 0.7
28 -2 -3 -0.14 0.77
-28 -2 -4 8.66 1.45
28 -2 -4 9.01 1.46
-28 -2 -5 1.81 1.04
-28 -2 -6 21.06 2.22
28 -2 -6 23.54 2.77
-29 2 -6 1.87 1.14
29 2 -6 3.21 1.26
-29 2 -5 1.46 0.92
29 2 -5 1.24 1.11
-29 2 -4 20.15 2.23
29 2 -4 23.05 2.48
-29 2 -3 2.08 0.94
29 2 -3 1.43 0.96
-29 2 -2 8.03 1.38
29 2 -2 6.68 1.48
-29 2 -1 1.74 0.76
-29 2 0 0.35 0.7
-29 -2 0 0.29 0.65
-29 2 1 2.64 0.89
-29 -2 -1 3.37 0.98
-29 -2 -2 7.58 1.43
-29 -2 -3 3.06 1.1
29 -2 -3 1.15 0.96
-29 -2 -4 16.57 1.99
29 -2 -4 16.19 1.95
-29 -2 -5 0.89 0.93
-29 -2 -6 2.52 1.17
29 -2 -6 0.16 1.19
30 2 -6 3.83 1.4
-30 2 -5 0.5 0.93
30 2 -5 -0.12 1.11
-30 2 -4 0.22 0.8
30 2 -4 -0.08 0.88
-30 2 -3 -0.75 0.69
30 2 -3 0.08 0.88
-30 2 -2 0.9 0.78
30 2 -2 1.76 1.1
-30 2 -1 3.86 1.08
30 2 -1 6.33 1.65
-30 -2 0 5.05 1.18
-30 2 0 4.44 1.13
-30 -2 -1 5.63 1.23
-30 2 1 5.73 1.17
-30 -2 -2 -0.07 0.72
-30 -2 -3 -1.15 0.65
30 -2 -3 1.16 0.9
-30 -2 -4 1.05 0.82
-30 -2 -5 1.23 1
30 -2 -6 7.93 1.91
31 2 -5 -1.43 1.01
-31 2 -4 24.62 2.42
31 2 -4 25.32 2.71
-31 2 -3 0.92 0.89
31 2 -3 -0.91 0.86
-31 2 -2 10.76 1.64
31 2 -2 12.54 1.97
-31 2 -1 1.32 0.84
31 2 -1 3 1.3
-31 -2 0 0.55 0.7
-31 2 0 0.18 0.76
-31 2 1 0.35 0.72
-31 -2 -1 1.72 1.01
-31 -2 -2 6.71 1.4
-31 -2 -3 2.34 0.98
31 -2 -3 3.38 1.13
-31 -2 -4 24.49 2.44
-31 -2 -5 0.71 0.97
-32 2 -4 1.83 1.08
32 2 -4 0.9 1.14
-32 2 -3 0.1 0.78
32 2 -3 1.01 1.17
-32 2 -2 0.42 0.84
32 2 -2 0.41 0.93
-32 2 -1 5.08 1.29
32 2 -1 5.23 1.49
-32 2 0 4.77 1.16
-32 -2 0 5.38 1.22
-32 2 1 8.86 1.44
-32 -2 -1 6.88 1.4
-32 -2 -2 -0.69 0.7
-32 -2 -3 1.71 1
32 -2 -3 0.86 1.1
-32 -2 -4 0.33 0.98
33 2 -4 19.57 2.61
-33 2 -3 3.43 1.24
33 2 -3 1.1 1.21
-33 2 -2 28.17 2.59
33 2 -2 24.34 2.67
-33 2 -1 1.09 0.88
33 2 -1 0.05 0.93
-33 2 0 0.78 0.81
-33 -2 0 0.05 0.75
-33 2 1 0.37 0.77
-33 -2 -1 -0.38 0.73
-33 -2 -2 31.76 2.51
33 -2 -2 27.18 2.69
-33 -2 -3 1.5 1.11
33 -2 -3 -0.18 1.04
-34 2 -2 2.51 1.13
34 2 -2 1.54 1.25
-34 2 -1 5.81 1.31
34 2 -1 5.7 1.64
-34 2 0 5.71 1.27
-34 -2 -1 5.25 1.31
-34 2 1 6.29 1.32
34 -2 -2 0.86 1.19
-35 2 0 0.56 0.93
0 3 -11 0.05 0.89
0 3 -10 2.82 1.03
0 3 -9 -0.76 0.62
0 3 -8 9.23 1.39
0 3 -7 -0.33 0.35
0 3 -7 0.46 0.58
0 3 -6 11.9 1.31
0 3 -6 12.06 1.16
0 3 -5 -0.19 0.34
0 3 -4 8.53 0.95
0 3 -3 -0.03 0.34
0 -3 2 9.28 0.67
0 3 -2 9.69 0.75
0 -3 1 0.31 0.22
0 3 -1 -0.13 0.26
0 -3 1 0.09 0.22
0 -3 0 -0.84 0.23
0 -3 0 -0.92 0.25
0 3 0 -0.99 0.21
0 -3 -1 -0.03 0.3
0 -3 -2 10.37 0.87
0 -3 -3 -0.42 0.33
0 -3 -4 6.77 0.86
0 -3 -4 8.42 0.57
0 -3 -5 0.42 0.46
0 -3 -5 0.11 0.27
0 -3 -6 11.75 0.89
0 -3 -6 12.48 1.36
0 -3 -7 -0.18 0.38
0 -3 -7 0.52 0.62
0 -3 -8 9.36 1.41
0 -3 -9 0.84 0.82
0 -3 -10 1.16 0.96
0 -3 -11 0.96 1.07
-1 3 -11 11.22 1.75
1 3 -11 8.43 1.54
-1 3 -10 -0.48 0.72
1 3 -10 1.31 0.92
-1 3 -9 0.52 0.71
1 3 -9 0.72 0.82
-1 3 -8 -0.54 0.56
1 3 -8 0.07 0.5
1 3 -8 0.08 0.6
-1 3 -7 106.17 3.17
-1 3 -7 108.61 3.58
1 3 -7 109.64 3.56
1 3 -7 95.72 3.15
-1 3 -6 0.03 0.47
-1 3 -6 0.1 0.35
1 3 -6 0.24 0.48
1 3 -6 -0.12 0.34
-1 3 -5 47.7 1.68
-1 3 -5 43.73 1.91
1 3 -5 44.78 1.92
-1 3 -4 -0.05 0.32
1 3 -4 0.56 0.41
-1 3 -3 2.29 0.51
1 -3 3 2.97 0.49
1 3 -3 2.26 0.54
-1 3 -2 17.73 0.93
-1 -3 2 15.17 0.81
1 -3 2 17.53 0.86
1 3 -2 17.58 0.95
-1 -3 1 159.17 3
-1 3 -1 165.82 3.14
-1 -3 1 163.57 3.05
1 -3 1 161.28 2.87
1 -3 1 154.23 3.07
1 3 -1 160.45 3.15
-1 -3 0 -0.02 0.22
-1 -3 0 0.23 0.28
-1 3 0 0.53 0.25
1 3 0 -0.15 0.24
1 -3 0 -0.07 0.24
1 -3 0 0.58 0.3
-1 -3 -1 152.54 3.12
1 -3 -1 154.32 3.1
-1 -3 -2 14.56 0.92
1 -3 -2 15.36 0.92
-1 -3 -3 2.39 0.56
1 -3 -3 1.85 0.51
-1 -3 -4 -0.15 0.34
-1 -3 -4 0.23 0.24
1 -3 -4 -0.29 0.33
-1 -3 -5 45.44 1.48
-1 -3 -5 41.53 1.91
1 -3 -5 46.54 1.46
1 -3 -5 42.68 1.97
-1 -3 -6 0.07 0.35
-1 -3 -6 -0.01 0.48
1 -3 -6 0.09 0.32
1 -3 -6 0.36 0.51
-1 -3 -7 102 3.54
-1 -3 -7 107.31 2.94
1 -3 -7 101.82 3.59
1 -3 -7 100.78 3.07
-1 -3 -8 0.4 0.67
1 -3 -8 0.01 0.67
-1 -3 -9 3.42 1.12
1 -3 -9 3.03 1.03
-1 -3 -10 -0.99 0.77
1 -3 -10 -0.52 0.81
-1 -3 -11 11.98 2.02
1 -3 -11 9.09 1.7
-2 3 -11 6.54 1.49
2 3 -11 3.48 1.21
-2 3 -10 0.52 0.86
2 3 -10 -0.14 0.82
-2 3 -9 3.42 0.98
2 3 -9 1.08 0.9
-2 3 -8 0.17 0.58
2 3 -8 -0.25 0.55
2 3 -8 -0.02 0.5
-2 3 -7 0.2 0.58
-2 3 -7 -0.12 0.39
2 3 -7 0.68 0.55
2 3 -7 0.31 0.47
-2 3 -6 5.1 0.75
-2 3 -6 5.26 0.9
2 3 -6 5.12 0.89
-2 3 -5 9.84 1.16
-2 3 -5 12 0.83
2 3 -5 11.57 1.17
-2 3 -4 3.28 0.64
2 3 -4 3.32 0.61
-2 3 -3 6.29 0.73
2 -3 3 4.64 0.58
2 3 -3 6.41 0.8
-2 3 -2 4.83 0.58
-2 -3 2 4.4 0.5
2 -3 2 5.22 0.58
2 3 -2 4.13 0.57
-2 -3 1 5.22 0.47
-2 -3 1 5.15 0.49
-2 3 -1 5.19 0.53
2 -3 1 6.11 0.54
2 -3 1 4.56 0.36
2 3 -1 5.57 0.58
-2 -3 0 -0.13 0.19
-2 3 0 -0.21 0.19
-2 -3 0 -0.4 0.24
2 -3 0 -0.04 0.24
2 -3 0 0.16 0.24
2 3 0 0 0.23
-2 -3 -1 4.64 0.55
2 -3 -1 4.9 0.53
-2 -3 -2 3.58 0.57
-2 -3 -2 4.51 0.36
2 -3 -2 4.29 0.59
-2 -3 -3 7.31 0.83
-2 -3 -3 6.22 0.47
2 -3 -3 6.26 0.79
-2 -3 -4 3.17 0.65
-2 -3 -4 4.11 0.48
2 -3 -4 3.73 0.69
-2 -3 -5 11.07 1.17
-2 -3 -5 9.66 0.74
2 -3 -5 8.83 1.09
2 -3 -5 10.6 0.71
-2 -3 -6 4.04 0.81
-2 -3 -6 3.39 0.58
2 -3 -6 4.26 0.63
2 -3 -6 2.97 0.78
-2 -3 -7 0.24 0.61
-2 -3 -7 -0.52 0.39
2 -3 -7 -0.85 0.52
-2 -3 -8 -0.13 0.57
2 -3 -8 -0.68 0.6
-2 -3 -9 2.01 1.01
2 -3 -9 1.62 0.91
-2 -3 -10 1.29 0.96
2 -3 -10 0.12 0.83
-2 -3 -11 4.67 1.4
2 -3 -11 2.14 1.25
-3 3 -11 0.46 0.91
3 3 -11 -0.47 0.92
-3 3 -10 0.24 0.76
3 3 -10 0.11 0.82
-3 3 -9 0.22 0.68
3 3 -9 0.09 0.75
-3 3 -8 2.35 0.74
3 3 -8 1.63 0.73
3 3 -8 1.18 0.75
-3 3 -7 26.99 1.79
3 3 -7 24.09 1.7
3 3 -7 25.54 1.65
-3 3 -6 8.13 1.09
-3 3 -6 7.24 0.87
3 3 -6 10.28 1.21
-3 3 -5 18.76 0.99
-3 3 -5 18.97 1.33
3 3 -5 19.22 1.3
-3 3 -4 3.37 0.65
-3 3 -4 4.86 0.55
3 3 -4 5.27 0.81
-3 3 -3 26.36 1.27
3 3 -3 26.36 1.26
3 -3 3 26.03 1.17
-3 3 -2 2 0.45
-3 -3 2 2.27 0.41
3 3 -2 2.54 0.49
3 -3 2 2.33 0.43
-3 -3 1 9.32 0.6
-3 3 -1 8.81 0.64
-3 -3 1 9.62 0.57
3 3 -1 10.13 0.72
-3 -3 0 58.87 1.31
-3 -3 0 57.76 1.56
-3 3 0 59.68 1.33
3 -3 0 59.34 1.52
3 -3 0 59.36 1.4
3 3 0 58.21 1.46
-3 -3 -1 9.51 0.73
-3 -3 -1 9.2 0.49
3 -3 -1 10 0.68
-3 -3 -2 1.92 0.47
-3 -3 -2 1.39 0.27
3 -3 -2 1.98 0.48
-3 -3 -3 26.23 0.92
-3 -3 -3 27.48 1.34
3 -3 -3 28.72 1.38
-3 -3 -4 3.93 0.48
-3 -3 -4 3.76 0.69
3 -3 -4 3.63 0.71
-3 -3 -5 20.98 1.04
-3 -3 -5 17.62 1.33
3 -3 -5 16.69 1.32
3 -3 -5 20.05 0.94
-3 -3 -6 6.25 0.79
-3 -3 -6 9.75 1.24
3 -3 -6 8.27 1.19
3 -3 -6 8.28 0.81
-3 -3 -7 29.19 1.51
-3 -3 -7 27.67 1.86
3 -3 -7 27.39 1.94
-3 -3 -8 2.86 0.96
3 -3 -8 2.11 0.87
-3 -3 -9 0.32 0.82
3 -3 -9 1.15 0.86
-3 -3 -10 0.61 0.91
3 -3 -10 1.21 0.9
-3 -3 -11 0.25 0.94
3 -3 -11 -0.57 1
-4 3 -11 20.32 2.36
4 3 -11 14.42 2.04
-4 3 -10 4.74 1.27
4 3 -10 4.94 1.25
-4 3 -9 55.51 2.81
4 3 -9 52.62 2.79
4 3 -9 48.21 2.61
-4 3 -8 0.28 0.62
4 3 -8 -0.91 0.45
4 3 -8 0.1 0.52
-4 3 -7 -0.12 0.52
4 3 -7 1.35 0.52
4 3 -7 0.1 0.57
-4 3 -6 0.23 0.36
-4 3 -6 0.04 0.43
4 3 -6 -0.3 0.42
-4 3 -5 24.94 1.48
-4 3 -5 26.7 1.12
4 3 -5 25.46 1.46
-4 3 -4 21.06 0.86
-4 3 -4 21.24 1.25
4 3 -4 21.34 1.27
-4 3 -3 97.56 2.61
-4 3 -2 6.37 0.67
4 3 -2 6.13 0.68
4 -3 2 5.33 0.6
-4 -3 1 33.46 1.14
-4 3 -1 36.34 1.17
-4 -3 1 35.8 1.04
4 -3 1 33.89 1.16
4 3 -1 34.36 1.23
-4 -3 0 0.19 0.27
-4 -3 0 0.1 0.16
-4 3 0 0.22 0.21
4 -3 0 -0.3 0.19
4 3 0 -0.35 0.23
4 -3 0 0.34 0.26
-4 -3 -1 35.95 1.3
-4 -3 -1 35.78 1.03
4 -3 -1 36.52 1.23
-4 -3 -2 6.06 0.52
-4 -3 -2 5.41 0.68
4 -3 -2 6.21 0.72
-4 -3 -3 89.75 2.52
-4 -3 -3 93 2.08
4 -3 -3 90.76 2.6
-4 -3 -4 20.06 1.27
-4 -3 -4 19.78 0.93
4 -3 -4 21.03 1.32
-4 -3 -5 26.87 1.54
-4 -3 -5 25.88 1.18
4 -3 -5 28.22 1.13
4 -3 -5 30.41 1.69
-4 -3 -6 -0.09 0.35
-4 -3 -6 0.2 0.49
4 -3 -6 0.19 0.52
4 -3 -6 -0.3 0.34
-4 -3 -7 0.49 0.47
-4 -3 -7 0.18 0.57
4 -3 -7 0.09 0.59
-4 -3 -8 0.76 0.68
4 -3 -8 -0.34 0.65
-4 -3 -9 58.5 2.94
4 -3 -9 60.19 3.19
-4 -3 -10 8.69 1.43
4 -3 -10 8.09 1.64
-4 -3 -11 18.9 2.39
4 -3 -11 19.58 2.42
-5 3 -11 1 1.01
5 3 -11 -0.09 1.04
-5 3 -10 1.25 0.96
5 3 -10 1.14 1.01
-5 3 -9 1.21 0.85
5 3 -9 1.32 0.79
5 3 -9 1.8 0.91
-5 3 -8 0.38 0.68
5 3 -8 0.92 0.69
5 3 -8 0.3 0.59
-5 3 -7 4.43 0.99
5 3 -7 2.75 0.82
-5 3 -6 8.49 1.1
5 3 -6 9.74 1.26
-5 3 -5 1.24 0.51
-5 3 -5 1.86 0.39
5 3 -5 1.85 0.54
-5 3 -4 2.42 0.61
5 3 -4 1.34 0.47
5 -3 4 1.78 0.5
-5 3 -3 3.28 0.56
5 -3 3 3.4 0.55
5 3 -3 3.01 0.58
-5 3 -2 11.77 0.8
5 -3 2 10.51 0.73
5 3 -2 10.19 0.81
-5 3 -1 3.91 0.49
-5 -3 1 4.97 0.46
-5 -3 1 4.34 0.52
5 -3 1 4.12 0.47
5 3 -1 3.97 0.55
-5 3 0 29.45 0.92
-5 -3 0 26.88 1.08
-5 -3 0 28.78 0.77
5 3 0 27.79 1.06
5 -3 0 28.61 0.92
5 -3 0 27.1 1.05
-5 -3 -1 4.93 0.59
-5 -3 -1 4.74 0.46
5 -3 -1 4.35 0.53
-5 -3 -2 9.77 0.61
-5 -3 -2 10.99 0.87
5 -3 -2 10.56 0.84
-5 -3 -3 3.12 0.61
-5 -3 -3 3.44 0.47
5 -3 -3 3.61 0.66
-5 -3 -4 2.08 0.6
-5 -3 -4 2.55 0.45
5 -3 -4 2.34 0.63
-5 -3 -5 2.01 0.64
-5 -3 -5 2.51 0.5
5 -3 -5 1.98 0.64
5 -3 -5 1.06 0.36
-5 -3 -6 9.09 1.18
-5 -3 -6 10.7 1.01
5 -3 -6 11.03 0.93
5 -3 -6 9.14 1.22
-5 -3 -7 3.24 0.72
-5 -3 -7 3.19 0.86
5 -3 -7 3.83 0.97
-5 -3 -8 0.55 0.72
5 -3 -8 -0.05 0.66
-5 -3 -9 3.31 1.1
5 -3 -9 1.39 0.91
-5 -3 -10 1.63 1
5 -3 -10 -0.54 0.87
5 -3 -11 0.19 0.98
-6 3 -11 7 1.5
6 3 -11 2.39 1.21
-6 3 -10 0.78 0.87
6 3 -10 0.13 0.9
-6 3 -9 27.6 2.18
6 3 -9 28.21 2.09
6 3 -9 29.75 2.14
-6 3 -8 -0.22 0.63
6 3 -8 0.03 0.51
6 3 -8 -0.39 0.51
-6 3 -7 -0.14 0.54
6 3 -7 0.03 0.52
-6 3 -6 5.68 0.94
6 3 -6 6.46 1.01
-6 3 -5 5.89 0.88
6 3 -5 4.83 0.86
-6 3 -4 11.81 1.1
6 -3 4 10.12 0.93
6 3 -4 11.05 1.11
-6 3 -3 179.79 4
6 3 -3 177.25 4.03
6 -3 3 177.33 3.79
-6 3 -2 -0.15 0.3
6 -3 2 0.16 0.29
6 3 -2 1.1 0.39
-6 -3 1 0.07 0.26
-6 3 -1 -0.1 0.25
6 3 -1 0.57 0.33
6 -3 1 0.52 0.29
-6 3 0 0.16 0.22
-6 -3 0 0.25 0.3
-6 -3 0 0.17 0.15
6 -3 0 -0.12 0.25
6 3 0 0.33 0.32
6 -3 0 -0.17 0.21
-6 -3 -1 0.48 0.26
-6 -3 -1 0.04 0.29
6 -3 -1 -0.06 0.22
-6 -3 -2 0.12 0.22
-6 -3 -2 -0.02 0.33
6 -3 -2 0.19 0.35
-6 -3 -3 172.89 3.5
-6 -3 -3 170.18 3.91
6 -3 -3 175.54 4.08
-6 -3 -4 12.07 0.81
-6 -3 -4 10.3 1.07
6 -3 -4 11.45 1.16
-6 -3 -5 4.36 0.79
-6 -3 -5 5.43 0.68
6 -3 -5 4.96 0.57
6 -3 -5 5.19 0.91
-6 -3 -6 5.27 0.92
-6 -3 -6 5.4 0.79
6 -3 -6 8.13 1.29
6 -3 -6 5.57 0.68
-6 -3 -7 0.3 0.48
-6 -3 -7 0.28 0.56
6 -3 -7 -0.32 0.53
-6 -3 -8 -0.42 0.68
-6 -3 -8 0.37 0.57
6 -3 -8 -0.53 0.64
-6 -3 -9 30.39 2.22
6 -3 -9 29.7 2.36
-6 -3 -10 0.46 0.91
6 -3 -10 0.06 0.87
6 -3 -11 2.17 1.28
-7 3 -11 0.48 1.04
7 3 -11 -0.2 0.94
-7 3 -10 -0.47 0.79
7 3 -10 1 0.9
7 3 -10 -0.45 0.76
-7 3 -9 2.44 0.96
7 3 -9 0.87 0.73
7 3 -9 1.41 0.9
-7 3 -8 2.6 0.9
7 3 -8 4.04 0.96
7 3 -8 3.29 0.95
-7 3 -7 2.82 0.87
7 3 -7 3.3 0.86
-7 3 -6 6.25 1.01
7 3 -6 7.97 1.14
-7 3 -5 -0.23 0.36
7 3 -5 -0.96 0.29
-7 3 -4 18.67 1.24
7 -3 4 16.53 1.05
7 3 -4 18 1.22
-7 3 -3 6.69 0.78
7 3 -3 5.53 0.8
7 -3 3 5.27 0.64
-7 3 -2 36.18 1.41
7 -3 2 38.22 1.35
7 3 -2 37.25 1.48
-7 3 -1 75.82 1.95
-7 -3 1 75.02 1.99
7 3 -1 71.66 2.06
7 -3 1 78.66 1.97
-7 3 0 66.17 1.63
-7 -3 0 67.15 1.88
7 3 0 69.74 1.93
7 -3 0 69.15 1.63
7 -3 0 66.36 1.8
-7 -3 -1 77.62 1.94
-7 3 1 76.65 1.68
-7 -3 -1 74.53 2.08
7 -3 -1 76.8 2.02
-7 -3 -2 37.11 1.26
-7 -3 -2 34.53 1.42
7 -3 -2 36.22 1.48
-7 -3 -3 6.38 0.84
-7 -3 -3 6.7 0.67
7 -3 -3 5.98 0.86
-7 -3 -4 17.4 1.21
-7 -3 -4 17.47 0.98
7 -3 -4 18.02 1.31
7 -3 -4 17.61 0.8
-7 -3 -5 0.53 0.37
-7 -3 -5 -0.28 0.41
7 -3 -5 -0.08 0.43
7 -3 -5 0.08 0.27
-7 -3 -6 8.75 1.14
-7 -3 -6 9.01 0.95
7 -3 -6 7.26 0.79
7 -3 -6 8.75 1.3
-7 -3 -7 3.55 0.95
-7 -3 -7 3.99 0.8
7 -3 -7 4.37 1.06
-7 -3 -8 1.91 0.94
-7 -3 -8 2.32 0.74
7 -3 -8 3.43 1
-7 -3 -9 1.93 0.93
7 -3 -9 1.89 1.03
-7 -3 -10 0.03 0.95
7 -3 -10 -0.34 0.86
7 -3 -11 0.09 1.09
-8 3 -11 9.41 1.81
8 3 -11 6.46 1.5
-8 3 -10 1.52 0.94
8 3 -10 3.48 1.2
8 3 -10 2.47 1.14
-8 3 -9 17.71 1.93
8 3 -9 20.56 2.11
8 3 -9 21.32 2.21
-8 3 -8 0.62 0.65
8 3 -8 -0.28 0.56
8 3 -8 0.62 0.65
-8 3 -7 9.29 1.29
8 3 -7 8.28 1.27
-8 3 -6 3.92 0.87
8 3 -6 3.32 0.84
-8 3 -5 2.65 0.67
8 3 -5 1.9 0.64
-8 3 -4 -0.18 0.35
8 -3 4 0.09 0.35
8 3 -4 -0.07 0.34
-8 3 -3 77.06 2.39
8 3 -3 80.38 2.49
8 -3 3 83.33 2.27
-8 3 -2 32.66 1.33
8 3 -2 31 1.4
8 -3 2 29.34 1.2
-8 3 -1 54.38 1.64
-8 -3 1 53.65 1.67
8 3 -1 51.93 1.74
8 -3 1 57.09 1.64
-8 3 0 -0.07 0.24
-8 -3 0 0.5 0.33
8 -3 0 -0.13 0.26
8 -3 0 -0.01 0.24
-8 3 1 55.04 1.42
-8 -3 -1 57.13 1.77
-8 -3 -1 55.1 1.63
8 -3 -1 57.14 1.7
-8 -3 -2 29.04 1.16
-8 -3 -2 27.96 1.31
8 -3 -2 28.17 1.31
-8 -3 -3 76.4 2.36
-8 -3 -3 78.74 2.14
8 -3 -3 78.22 2.52
8 -3 -3 80.4 1.83
-8 -3 -4 0.65 0.34
-8 -3 -4 0.48 0.44
8 -3 -4 -0.09 0.4
8 -3 -4 0.12 0.25
-8 -3 -5 1.99 0.65
-8 -3 -5 2.07 0.51
8 -3 -5 1.76 0.43
8 -3 -5 1.5 0.64
-8 -3 -6 3.35 0.83
-8 -3 -6 3.11 0.65
8 -3 -6 4.15 0.91
-8 -3 -7 10.1 1.12
-8 -3 -7 6.34 1.08
8 -3 -7 8.46 1.35
-8 -3 -8 -0.81 0.52
-8 -3 -8 -0.11 0.65
8 -3 -8 -1.15 0.57
-8 -3 -9 21.15 2.04
8 -3 -9 16.98 2.19
8 -3 -10 3.73 1.27
8 -3 -11 13.15 2.17
-9 3 -11 4.16 1.42
9 3 -11 2.06 1.28
-9 3 -10 -0.41 0.88
9 3 -10 1.49 0.98
9 3 -10 -0.3 0.83
-9 3 -9 5.41 1.19
9 3 -9 6.83 1.44
9 3 -9 5.6 1.22
-9 3 -8 3.13 0.91
9 3 -8 2.3 0.87
-9 3 -7 28.15 1.93
9 3 -7 29.92 1.97
-9 3 -6 1.86 0.71
9 3 -6 3.9 0.9
-9 3 -5 18.55 1.38
9 3 -5 18.51 1.4
-9 3 -4 1.04 0.48
9 3 -4 0.63 0.42
9 -3 4 0.82 0.41
-9 3 -3 9.67 1
9 -3 3 9.36 0.88
9 3 -3 10.41 1.09
-9 3 -2 24.88 1.21
9 3 -2 22.66 1.22
9 -3 2 23.94 1.1
-9 3 -1 42.03 1.45
-9 -3 1 40.9 1.48
9 3 -1 42.26 1.6
9 -3 1 44.37 1.46
-9 -3 0 7.71 0.75
-9 3 0 8 0.63
-9 -3 0 8.08 0.77
9 -3 0 7.39 0.69
9 -3 0 8.44 0.61
-9 3 1 42.95 1.27
-9 -3 -1 41.31 1.54
-9 -3 -1 43.9 1.47
9 -3 -1 42.84 1.48
-9 3 2 23.84 0.9
-9 -3 -2 23.76 1.09
-9 -3 -2 23.25 1.22
9 -3 -2 23.75 1.23
-9 -3 -3 7.56 0.88
-9 -3 -3 9.69 0.78
9 -3 -3 9.18 1.06
9 -3 -3 8.81 0.62
-9 -3 -4 1.6 0.48
-9 -3 -4 1.2 0.55
9 -3 -4 0.71 0.31
9 -3 -4 0.68 0.51
-9 -3 -5 19.76 1.2
-9 -3 -5 18.02 1.34
9 -3 -5 18.48 1.5
9 -3 -5 18.63 1
-9 -3 -6 3.67 0.72
-9 -3 -6 2.91 0.77
9 -3 -6 4.12 0.99
-9 -3 -7 31.68 1.95
-9 -3 -7 31.43 1.71
9 -3 -7 32.96 2.2
-9 -3 -8 2.35 0.73
-9 -3 -8 0.39 0.7
9 -3 -8 4.69 1.19
-9 -3 -9 3.83 1.18
9 -3 -9 5.47 1.44
9 -3 -10 -1.27 0.89
9 -3 -11 2.64 1.38
-10 3 -11 3.36 1.27
10 3 -11 2.21 1.23
-10 3 -10 4.11 1.29
10 3 -10 4.59 1.24
10 3 -10 4.75 1.24
-10 3 -9 21.1 2.21
10 3 -9 18.23 2.04
10 3 -9 20.48 2.22
-10 3 -8 -0.15 0.74
10 3 -8 -0.22 0.59
-10 3 -7 5.72 1.11
10 3 -7 7.02 1.19
-10 3 -6 -0.14 0.52
10 3 -6 -0.39 0.44
-10 3 -5 19.89 1.45
10 3 -5 22.26 1.5
-10 3 -4 43.43 1.9
10 3 -4 40.71 1.89
10 -3 4 45.04 1.73
-10 3 -3 74.99 2.4
10 3 -3 75.2 2.48
10 -3 3 76.53 2.22
-10 3 -2 11.12 0.88
10 -3 2 13.06 0.86
10 3 -2 12.11 1.08
-10 -3 1 38.92 1.5
-10 3 -1 40.5 1.45
10 -3 1 39.93 1.42
10 3 -1 41.61 1.62
-10 3 0 -0.1 0.24
-10 -3 0 0.19 0.28
-10 -3 0 0.02 0.28
10 -3 0 0.03 0.24
10 -3 0 -0.03 0.28
-10 3 1 39.22 1.27
-10 -3 -1 39.95 1.45
-10 -3 -1 39.53 1.52
10 -3 -1 40.17 1.48
-10 -3 -2 11.15 0.82
-10 -3 -2 11.57 0.93
-10 3 2 10.92 0.69
10 -3 -2 11.54 0.93
-10 -3 -3 76.44 2.4
-10 -3 -3 74.65 2.23
10 -3 -3 81.35 2
10 -3 -3 76.55 2.57
-10 -3 -4 42.31 1.67
-10 -3 -4 44.27 1.86
10 -3 -4 43.12 1.45
10 -3 -4 45.12 2.07
-10 -3 -5 19.5 1.24
-10 -3 -5 19.85 1.42
10 -3 -5 23.77 1.68
10 -3 -5 20.26 1.08
-10 -3 -6 0.55 0.43
-10 -3 -6 0.21 0.53
10 -3 -6 0.33 0.6
-10 -3 -7 5.61 1.07
-10 -3 -7 7.82 1.06
10 -3 -7 7.95 1.37
-10 -3 -8 -0.66 0.51
-10 -3 -8 -1.05 0.6
10 -3 -8 -0.12 0.79
-10 -3 -9 13.58 1.68
10 -3 -9 19.35 2.39
10 -3 -10 4.59 1.36
10 -3 -11 2.73 1.34
-11 3 -11 0.29 1.04
11 3 -11 3.4 1.34
11 3 -11 0.35 1.19
-11 3 -10 0.69 0.92
11 3 -10 0.95 0.96
11 3 -10 -0.66 0.8
-11 3 -9 10.61 1.62
11 3 -9 8.46 1.54
11 3 -9 8.5 1.56
-11 3 -8 5.6 1.25
11 3 -8 3.27 0.95
-11 3 -7 7.32 1.24
11 3 -7 6.36 1.16
-11 3 -6 5.87 1.05
11 3 -6 6.92 1.08
-11 3 -5 26.49 1.63
11 3 -5 25.41 1.63
11 -3 5 28.39 1.51
-11 3 -4 1.85 0.56
11 -3 4 1.72 0.5
11 3 -4 1.18 0.53
-11 3 -3 7.74 0.99
11 3 -3 8.83 1.03
11 -3 3 9.02 0.86
-11 3 -2 1.62 0.48
11 -3 2 0.96 0.38
11 3 -2 1.36 0.47
-11 3 -1 100.33 2.55
-11 -3 1 97.48 2.62
11 -3 1 99.91 2.51
11 3 -1 96.75 2.73
-11 3 0 4.29 0.57
-11 -3 0 4.18 0.62
-11 -3 0 4.53 0.68
11 -3 0 4.4 0.59
-11 3 1 96.97 2.3
-11 -3 -1 97.4 2.6
-11 -3 -1 92.93 2.51
11 -3 -1 97.4 2.54
-11 3 2 1.13 0.34
-11 -3 -2 1.33 0.47
-11 -3 -2 1.22 0.43
11 -3 -2 1.18 0.48
-11 -3 -3 7.53 0.88
-11 -3 -3 9.14 0.92
11 -3 -3 8.52 1.04
11 -3 -3 8.53 0.75
-11 -3 -4 1.85 0.51
-11 -3 -4 1.79 0.6
11 -3 -4 2.33 0.66
11 -3 -4 2.12 0.45
-11 -3 -5 27.01 1.46
-11 -3 -5 28.07 1.6
11 -3 -5 27.5 1.28
11 -3 -5 28.51 1.85
-11 -3 -6 3.62 0.91
-11 -3 -6 4.88 0.86
11 -3 -6 8.67 1.31
-11 -3 -7 6.29 1.15
-11 -3 -7 5.23 0.92
11 -3 -7 2.53 0.94
-11 -3 -8 4.15 1.11
-11 -3 -8 2.12 0.8
11 -3 -8 3.29 1.09
11 -3 -9 6.73 1.52
11 -3 -10 1.04 1
-12 3 -10 5.74 1.43
12 3 -10 4.07 1.27
12 3 -10 2.5 1.07
-12 3 -9 3.2 1.12
12 3 -9 5.59 1.33
12 3 -9 6.34 1.31
-12 3 -8 2.48 1
12 3 -8 5.91 1.26
-12 3 -7 2.11 0.87
12 3 -7 2.82 0.91
-12 3 -6 8.44 1.2
12 3 -6 5.5 1.03
-12 3 -5 3.83 0.82
12 -3 5 4.19 0.73
12 3 -5 3.46 0.79
-12 3 -4 25.65 1.52
12 -3 4 23.96 1.3
12 3 -4 23.42 1.5
-12 3 -3 19.6 1.24
12 -3 3 18.3 1.08
12 3 -3 19.2 1.31
-12 3 -2 61.82 2.06
12 -3 2 58.68 1.87
-12 3 -1 0.6 0.35
-12 -3 1 1.41 0.44
12 -3 1 0.82 0.39
12 3 -1 1.22 0.49
-12 -3 0 0.27 0.31
-12 3 0 0.02 0.28
-12 -3 0 0.25 0.31
12 -3 0 0.22 0.31
-12 -3 -1 0.95 0.37
-12 3 1 1.41 0.38
-12 -3 -1 1.54 0.43
-12 -3 -2 58.93 2.04
-12 -3 -2 59.98 1.98
-12 3 2 60.47 1.73
12 -3 -2 56.71 2.08
-12 -3 -3 19.35 1.16
-12 -3 -3 19.32 1.21
12 -3 -3 16.34 1.29
12 -3 -3 17.05 0.97
-12 -3 -4 24.16 1.44
-12 -3 -4 20.82 1.28
12 -3 -4 23.47 1.12
12 -3 -4 21.71 1.53
-12 -3 -5 3.14 0.77
-12 -3 -5 3.69 0.75
12 -3 -5 3.35 0.92
12 -3 -5 3 0.61
-12 -3 -6 5.49 0.98
-12 -3 -6 7.9 1.06
12 -3 -6 6.04 1.2
-12 -3 -7 2.16 0.75
-12 -3 -7 3.15 0.89
12 -3 -7 2.6 1.01
-12 -3 -8 1.76 0.92
-12 -3 -8 2.51 0.86
12 -3 -8 2.1 0.91
12 -3 -9 7.03 1.58
12 -3 -10 4.58 1.46
-13 3 -10 -0.69 0.8
13 3 -10 -0.62 0.79
13 3 -10 3.92 1.31
-13 3 -9 5.93 1.33
13 3 -9 5.96 1.39
13 3 -9 6.22 1.29
-13 3 -8 2.93 1.05
13 3 -8 1.48 0.89
-13 3 -7 32.94 2.16
13 3 -7 29.86 2.06
-13 3 -6 1.32 0.69
13 3 -6 1.39 0.71
-13 3 -5 23.67 1.6
13 3 -5 22.61 1.6
13 -3 5 26.11 1.46
-13 3 -4 0.35 0.38
13 -3 4 -0.36 0.37
13 3 -4 0.5 0.5
-13 3 -3 7.6 0.96
13 3 -3 10.69 1.19
13 -3 3 8.48 0.84
-13 3 -2 0.17 0.35
13 3 -2 -0.1 0.35
13 -3 2 0.23 0.31
-13 3 -1 138.05 3.27
-13 -3 1 135.37 3.33
13 -3 1 131.4 3.14
13 3 -1 130.16 3.48
-13 3 0 25.02 1.17
-13 -3 0 24.23 1.23
-13 -3 0 21.86 1.19
13 -3 0 21.92 1.11
-13 -3 -1 141.89 3.42
-13 -3 -1 139.93 3.41
-13 3 1 135.52 3.13
-13 3 2 -0.07 0.28
-13 -3 -2 -0.11 0.31
-13 -3 -2 0 0.36
-13 -3 -3 9.35 1.02
-13 -3 -3 9.05 1
13 -3 -3 11.13 1.19
13 -3 -3 9.9 0.89
-13 -3 -4 0.39 0.39
-13 -3 -4 0.24 0.47
13 -3 -4 0.42 0.54
13 -3 -4 0.14 0.32
-13 -3 -5 22.29 1.49
-13 -3 -5 22.94 1.43
13 -3 -5 23.01 1.24
13 -3 -5 24.92 1.78
-13 -3 -6 0.84 0.59
-13 -3 -6 1.92 0.7
13 -3 -6 0.74 0.71
-13 -3 -7 30.15 1.85
-13 -3 -7 33.29 1.99
13 -3 -7 27.86 2.22
-13 -3 -8 2.96 0.99
-13 -3 -8 3.61 0.92
13 -3 -8 4.44 1.25
13 -3 -9 8.62 1.59
13 -3 -10 1.01 1.12
-14 3 -10 2.66 1.21
14 3 -10 2.98 1.23
14 3 -10 1.28 1.09
-14 3 -9 0.72 0.95
14 3 -9 1.17 0.91
14 3 -9 -0.28 0.67
-14 3 -8 11.44 1.71
14 3 -8 10.39 1.65
-14 3 -7 1.42 0.78
14 3 -7 0.3 0.69
-14 3 -6 6.11 1.1
14 3 -6 6.99 1.24
-14 3 -5 15.74 1.53
14 3 -5 19.98 1.56
14 -3 5 19.8 1.31
-14 3 -4 27.16 1.62
14 -3 4 30.74 1.48
14 3 -4 27.95 1.71
-14 3 -3 0.49 0.4
14 3 -3 0.58 0.47
14 -3 3 0.35 0.36
-14 3 -2 43.59 1.78
14 -3 2 39.13 1.55
14 3 -2 42.45 1.88
-14 3 -1 6.97 0.82
-14 -3 1 7.43 0.85
14 -3 1 7.98 0.82
14 3 -1 7.3 0.99
-14 -3 0 0.23 0.33
-14 -3 0 0.35 0.34
-14 3 0 -0.21 0.28
14 -3 0 -0.26 0.3
-14 -3 -1 6.07 0.76
-14 -3 -1 6.9 0.84
-14 3 1 7.01 0.76
-14 -3 -2 41.15 1.72
-14 -3 -2 38.81 1.67
-14 3 2 40.37 1.49
-14 -3 -3 0.2 0.38
-14 -3 -3 0.28 0.41
14 -3 -3 1.06 0.39
14 -3 -3 1.01 0.53
-14 -3 -4 26.79 1.53
-14 -3 -4 25.62 1.48
14 -3 -4 29.98 1.39
14 -3 -4 29.91 1.85
-14 -3 -5 21.02 1.42
-14 -3 -5 18.06 1.41
14 -3 -5 18.65 1.21
14 -3 -5 21.03 1.71
-14 -3 -6 6.65 1.1
-14 -3 -6 8.1 1.16
14 -3 -6 5.7 1.2
-14 -3 -7 1.69 0.75
-14 -3 -7 0.16 0.6
14 -3 -7 0.1 0.78
-14 -3 -8 10.83 1.41
14 -3 -8 10.07 1.71
-14 -3 -9 0.6 0.76
14 -3 -9 0.23 0.95
14 -3 -10 2.23 1.22
-15 3 -10 -0.37 0.96
15 3 -10 -1.87 0.84
15 3 -10 -0.25 1.08
-15 3 -9 7.79 1.6
15 3 -9 6.15 1.34
-15 3 -8 0.43 0.78
15 3 -8 1.32 0.82
-15 3 -7 78.17 3.33
15 3 -7 74.45 3.27
-15 3 -6 1.22 0.67
15 3 -6 0.13 0.65
-15 3 -5 23.09 1.64
15 3 -5 24.28 1.73
15 -3 5 23.31 1.45
-15 3 -4 0.02 0.43
15 -3 4 0.33 0.4
15 3 -4 -0.17 0.46
-15 3 -3 6.84 0.94
15 -3 3 6.25 0.77
15 3 -3 8.34 1.14
-15 3 -2 0.02 0.4
15 3 -2 0.43 0.43
15 -3 2 0.73 0.36
-15 3 -1 65.64 2.16
-15 -3 1 58.18 2.1
15 -3 1 62.35 2.01
15 3 -1 63.32 2.38
-15 3 0 0.68 0.38
-15 -3 0 -0.01 0.36
-15 -3 0 0.58 0.35
15 -3 0 0.27 0.32
-15 -3 -1 63.28 2.14
-15 -3 -1 61.54 2.18
-15 3 1 61.95 1.98
-15 3 2 0.14 0.33
-15 -3 -2 1.35 0.47
-15 -3 -2 0.04 0.36
-15 -3 -3 8.28 1.05
-15 -3 -3 6.46 0.89
15 -3 -3 5.7 0.95
15 -3 -3 6.35 0.81
-15 -3 -4 -0.27 0.36
-15 -3 -4 0.76 0.5
15 -3 -4 -0.15 0.56
15 -3 -4 0.12 0.35
-15 -3 -5 22.5 1.56
-15 -3 -5 22.53 1.53
15 -3 -5 22.79 1.42
15 -3 -5 26.42 1.92
-15 -3 -6 0.85 0.57
-15 -3 -6 1.66 0.69
15 -3 -6 -0.62 0.61
-15 -3 -7 76.34 3.04
-15 -3 -7 78.13 3.07
15 -3 -7 84.15 3.76
-15 -3 -8 0.05 0.66
15 -3 -8 -0.26 0.75
-15 -3 -9 5.05 1.2
15 -3 -9 5.76 1.58
15 -3 -10 0.24 1
-16 3 -10 1.43 1.19
16 3 -10 0.24 1.15
16 3 -10 1.53 1.09
-16 3 -9 2.65 1.11
16 3 -9 -0.82 0.84
-16 3 -8 5.18 1.24
16 3 -8 3.88 1.2
-16 3 -7 0.51 0.67
16 3 -7 0.21 0.72
-16 3 -6 9.27 1.32
16 3 -6 7.91 1.33
-16 3 -5 4.08 0.91
16 3 -5 4.35 0.96
16 -3 5 4.65 0.84
-16 3 -4 1.81 0.68
16 -3 4 2.09 0.58
16 3 -4 3.09 0.82
-16 3 -3 80.72 2.78
16 3 -3 83.3 2.96
16 -3 3 87.2 2.55
-16 3 -2 6.47 0.93
16 -3 2 5.03 0.68
16 3 -2 6.79 1.01
-16 3 -1 24.34 1.36
16 -3 1 22.76 1.23
16 3 -1 25.81 1.58
-16 -3 0 -0.21 0.31
-16 3 0 0.09 0.35
-16 -3 0 -0.05 0.33
16 -3 0 -0.1 0.35
-16 3 1 22.26 1.21
-16 -3 -1 24.86 1.36
-16 -3 -1 22.85 1.35
-16 -3 -2 5.58 0.84
-16 3 2 6.79 0.77
-16 -3 -2 6.2 0.84
-16 -3 -3 88.99 2.77
-16 -3 -3 82.2 2.74
16 -3 -3 80.83 2.54
-16 -3 -4 2.89 0.68
-16 -3 -4 2.15 0.68
16 -3 -4 3 0.65
16 -3 -4 3.32 0.91
-16 -3 -5 5.2 0.93
-16 -3 -5 3.88 0.81
16 -3 -5 4.44 1.05
-16 -3 -6 8.9 1.2
-16 -3 -6 7.59 1.16
16 -3 -6 9.8 1.47
-16 -3 -7 -0.12 0.65
-16 -3 -7 1.18 0.77
16 -3 -7 0.03 0.82
-16 -3 -8 3.05 0.99
16 -3 -8 4.15 1.32
-16 -3 -9 0.53 0.84
16 -3 -9 1.08 1.15
16 -3 -10 0.06 1.09
17 3 -10 0.04 1
17 3 -10 -0.74 1.03
-17 3 -9 -0.46 0.88
17 3 -9 -0.52 0.9
-17 3 -8 3.67 1.1
17 3 -8 0.66 0.92
-17 3 -7 11.74 1.59
17 3 -7 11.76 1.69
-17 3 -6 17.19 1.76
17 3 -6 15.64 1.76
-17 3 -5 17.54 1.74
17 -3 5 17.23 1.3
17 3 -5 18.63 1.83
-17 3 -4 3.53 0.81
17 -3 4 4 0.71
17 3 -4 3.62 0.87
-17 3 -3 2.52 0.66
17 -3 3 1.83 0.53
17 3 -3 1.78 0.63
-17 3 -2 1.17 0.51
17 3 -2 0.95 0.55
17 -3 2 1.52 0.5
-17 3 -1 58.11 2.16
17 -3 1 58.92 2
17 3 -1 56.59 2.39
-17 -3 0 55.24 2.13
-17 -3 0 52.09 2.04
-17 3 0 54.57 2.02
17 -3 0 52.09 1.85
-17 -3 -1 60.2 2.14
-17 3 1 55.82 1.98
-17 -3 -1 54.8 2.18
-17 -3 -2 1.09 0.51
-17 3 2 0.88 0.43
-17 -3 -2 1.23 0.48
-17 -3 -3 1.74 0.6
-17 -3 -3 1.11 0.51
17 -3 -3 1.05 0.53
-17 -3 -4 3.24 0.76
-17 -3 -4 5.08 0.89
17 -3 -4 3.91 0.75
17 -3 -4 4.28 1.02
-17 -3 -5 18.91 1.51
-17 -3 -5 19.24 1.47
17 -3 -5 17.13 1.86
-17 -3 -6 14.58 1.57
-17 -3 -6 16.99 1.57
17 -3 -6 14.15 1.83
-17 -3 -7 10.46 1.43
17 -3 -7 11.46 1.86
-17 -3 -8 2.75 0.98
17 -3 -8 4.12 1.39
-17 -3 -9 0.2 0.81
17 -3 -9 1.08 1.12
18 3 -10 0.44 1.05
-18 3 -9 7.23 1.5
18 3 -9 7.25 1.54
-18 3 -8 -0.17 0.87
18 3 -8 0.26 0.76
-18 3 -7 0.12 0.7
18 3 -7 -0.4 0.64
-18 3 -6 1.47 0.71
18 3 -6 1.56 0.82
-18 3 -5 53.59 2.55
18 3 -5 53.66 2.66
18 -3 5 54.27 2.19
-18 3 -4 2.38 0.79
18 -3 4 4.47 0.76
18 3 -4 5.36 1.07
-18 3 -3 140.88 3.99
18 -3 3 142.24 3.57
18 3 -3 141.74 4.19
-18 3 -2 7.47 1
18 3 -2 8.21 1.19
18 -3 2 6.64 0.79
-18 3 -1 32.33 1.64
18 3 -1 32.2 1.88
18 -3 1 34.98 1.55
-18 -3 0 0.21 0.36
-18 -3 0 0.02 0.36
-18 3 0 -0.19 0.35
18 -3 0 0.1 0.36
-18 3 1 35.22 1.59
-18 -3 -1 34.92 1.77
-18 -3 -1 31.91 1.61
-18 3 2 9.15 0.96
-18 -3 -2 6.94 0.99
-18 -3 -2 7.17 0.91
-18 -3 -3 143.69 3.84
-18 -3 -3 146.37 4
18 -3 -3 138.44 3.75
-18 -3 -4 4.06 0.86
-18 -3 -4 4.58 0.84
18 -3 -4 3.38 0.74
18 -3 -4 2.76 0.94
-18 -3 -5 56.71 2.41
-18 -3 -5 51.71 2.42
18 -3 -5 53.01 2.84
-18 -3 -6 0.39 0.58
-18 -3 -6 -1.12 0.49
18 -3 -6 0.97 0.81
-18 -3 -7 0.35 0.76
18 -3 -7 0.44 0.91
-18 -3 -8 0.69 0.76
18 -3 -8 -0.2 0.96
-18 -3 -9 12.48 1.7
18 -3 -9 8.15 1.83
-19 3 -9 0.66 0.97
19 3 -9 0.12 1.06
-19 3 -8 3.6 1.13
19 3 -8 2.92 1.11
-19 3 -7 -0.01 0.64
19 3 -7 0.5 0.85
-19 3 -6 11.88 1.54
19 3 -6 10.07 1.59
-19 3 -5 32.55 2.06
19 3 -5 34.27 2.19
19 -3 5 30.5 1.7
-19 3 -4 -0.08 0.49
19 3 -4 0.86 0.73
19 -3 4 0.57 0.49
-19 3 -3 -0.3 0.47
19 -3 3 0.29 0.47
19 3 -3 0.59 0.61
-19 3 -2 1.72 0.62
19 -3 2 0.86 0.46
19 3 -2 1.06 0.6
-19 3 -1 1.66 0.56
19 -3 1 2.37 0.58
19 3 -1 1.19 0.63
-19 3 0 9.3 1.04
-19 -3 0 12.42 1.34
-19 -3 0 12.36 1.22
19 -3 0 12.34 1.1
-19 -3 -1 2.58 0.67
-19 -3 -1 2.46 0.64
-19 3 1 2.69 0.63
-19 3 2 0.8 0.49
-19 -3 -2 2.3 0.65
-19 -3 -2 1.18 0.54
-19 -3 -3 0.4 0.49
-19 -3 -3 0.2 0.51
19 -3 -3 0.21 0.49
-19 -3 -4 -0.31 0.43
-19 -3 -4 0.67 0.54
19 -3 -4 0.43 0.51
19 -3 -4 0.42 0.75
-19 -3 -5 32.26 1.99
-19 -3 -5 32.92 1.94
19 -3 -5 32.19 2.34
-19 -3 -6 14.86 1.6
-19 -3 -6 12.78 1.42
19 -3 -6 13.51 1.82
-19 -3 -7 0.89 0.71
19 -3 -7 -0.29 0.8
-19 -3 -8 3.17 1.04
19 -3 -8 5.94 1.67
-19 -3 -9 0.89 0.91
19 -3 -9 -0.02 1.11
-20 3 -9 19.16 2.26
20 3 -9 30.6 2.96
-20 3 -8 2.22 1.09
20 3 -8 2.11 1.1
-20 3 -7 8.96 1.55
20 3 -7 6.03 1.32
-20 3 -6 0.98 0.72
20 3 -6 0.67 0.82
-20 3 -5 79 3.21
20 3 -5 78.11 3.34
-20 3 -4 2.04 0.74
20 3 -4 0.36 0.68
20 -3 4 0.25 0.47
-20 3 -3 54.99 2.48
20 -3 3 56.5 2.09
20 3 -3 53.12 2.57
-20 3 -2 1.08 0.56
20 -3 2 2.38 0.58
20 3 -2 1.28 0.67
-20 3 -1 42.22 1.99
20 -3 1 39.91 1.72
20 3 -1 38.95 2.18
-20 -3 0 -0.17 0.4
-20 -3 0 -0.01 0.39
-20 3 0 -0.28 0.38
20 -3 0 0.28 0.37
-20 -3 -1 41.05 1.88
-20 3 1 41.79 1.85
-20 -3 -1 37.98 1.97
-20 3 2 1.48 0.57
-20 -3 -2 2.39 0.64
-20 -3 -2 2.22 0.66
-20 -3 -3 54.75 2.24
-20 -3 -3 50 2.32
20 -3 -3 53.04 2.29
-20 -3 -4 0.82 0.59
-20 -3 -4 0.99 0.6
20 -3 -4 1.02 0.64
20 -3 -4 0.72 0.73
-20 -3 -5 84.24 3.24
-20 -3 -5 81.12 2.98
20 -3 -5 83.53 3.65
-20 -3 -6 -0.96 0.53
20 -3 -6 1.85 0.96
-20 -3 -7 6.71 1.22
20 -3 -7 5.13 1.41
-20 -3 -8 1.3 0.93
20 -3 -8 0.26 1.06
-20 -3 -9 23.18 2.34
20 -3 -9 22.24 2.66
21 3 -9 0.71 1.02
-21 3 -8 7.53 1.54
21 3 -8 2.55 1.25
-21 3 -7 5.17 1.32
21 3 -7 5.9 1.38
-21 3 -6 3.15 1.03
21 3 -6 6.58 1.34
-21 3 -5 0.62 0.68
21 3 -5 0.11 0.86
-21 3 -4 0.21 0.6
21 3 -4 1.11 0.69
-21 3 -3 -0.37 0.47
21 -3 3 0.87 0.48
21 3 -3 0.39 0.62
-21 3 -2 14.06 1.43
21 -3 2 13.97 1.09
21 3 -2 11.03 1.45
-21 3 -1 9.2 1.17
21 -3 1 11.43 1.1
21 3 -1 10.06 1.48
-21 3 0 18.58 1.36
-21 -3 0 20.37 1.48
-21 -3 0 17.56 1.35
21 -3 0 20.12 1.26
-21 -3 -1 12 1.24
-21 -3 -1 9.69 1.29
-21 3 1 9.12 1.08
21 -3 -1 9.78 1.1
-21 3 2 11.9 1.21
-21 -3 -2 13.23 1.45
-21 -3 -2 12.15 1.27
-21 -3 -3 0.1 0.54
-21 -3 -3 0.08 0.52
21 -3 -3 0.77 0.57
-21 -3 -4 -0.42 0.48
-21 -3 -4 0.19 0.53
21 -3 -4 0.41 0.56
-21 -3 -5 1 0.7
-21 -3 -5 1.27 0.74
21 -3 -5 0.84 0.83
-21 -3 -6 6.15 1.19
21 -3 -6 4.66 1.21
-21 -3 -7 6.24 1.28
21 -3 -7 5.74 1.42
-21 -3 -8 5.13 1.29
21 -3 -8 3.88 1.38
-21 -3 -9 0.78 0.93
22 3 -9 3.56 1.48
-22 3 -8 1.09 1.04
22 3 -8 1.25 1.1
-22 3 -7 1.11 0.95
22 3 -7 1.58 0.94
-22 3 -6 0.63 0.7
22 3 -6 0.1 0.78
-22 3 -5 48.5 2.62
22 3 -5 49.99 2.81
-22 3 -4 0.84 0.64
22 3 -4 1.36 0.76
-22 3 -3 18.03 1.7
22 3 -3 23.29 2.13
-22 3 -2 6.35 1.08
22 3 -2 6.74 1.21
22 -3 2 6.21 0.84
-22 3 -1 42.29 2.09
22 -3 1 40.01 1.75
22 3 -1 42.87 2.4
-22 -3 0 0.05 0.46
-22 3 0 0.36 0.48
22 -3 0 0.06 0.42
-22 -3 -1 37.07 1.88
-22 -3 -1 41.45 2.13
-22 3 1 41.2 1.98
22 -3 -1 41.49 1.85
-22 -3 -2 6.64 1.06
-22 3 2 4.7 0.87
-22 -3 -2 7.76 1.04
-22 -3 -3 22.17 1.65
-22 -3 -3 22.81 1.55
22 -3 -3 20.09 1.78
-22 -3 -4 1.66 0.73
-22 -3 -4 0.51 0.57
22 -3 -4 1.54 0.68
-22 -3 -5 46.3 2.51
22 -3 -5 50.04 2.93
-22 -3 -6 -0.25 0.64
22 -3 -6 0.95 0.95
-22 -3 -7 2.46 0.91
22 -3 -7 1.99 1.09
-22 -3 -8 3.09 1.12
22 -3 -8 2.46 1.34
-22 -3 -9 2.3 1.14
-23 3 -8 1.05 1.08
23 3 -8 1.3 1.13
-23 3 -7 26.04 2.5
23 3 -7 27.59 2.69
-23 3 -6 1.95 0.9
23 3 -6 2.99 1.14
-23 3 -5 13.15 1.69
23 3 -5 13.38 1.85
-23 3 -4 5.99 1.1
23 3 -4 6.47 1.27
-23 3 -3 7.6 1.22
23 3 -3 6.77 1.27
-23 3 -2 5.36 1.06
23 3 -2 7.16 1.25
-23 3 -1 60.66 2.57
23 -3 1 65.22 2.29
23 3 -1 55.64 2.83
-23 3 0 4.33 0.84
-23 -3 0 7.41 1.13
23 -3 0 5.83 0.84
-23 3 1 61.61 2.49
-23 -3 -1 59.42 2.59
-23 -3 -1 57.63 2.4
23 -3 -1 62.32 2.28
-23 -3 -2 6.44 1.1
-23 -3 -2 6.16 0.98
-23 3 2 7.34 1.06
-23 -3 -3 9.83 1.18
-23 -3 -3 7.88 1.23
23 -3 -3 5.96 1.05
-23 -3 -4 9.41 1.42
-23 -3 -4 8.76 1.18
-23 -3 -5 13.91 1.64
23 -3 -5 11.67 1.72
-23 -3 -6 2.35 0.99
23 -3 -6 0.07 0.81
-23 -3 -7 27.76 2.25
23 -3 -7 31.61 2.96
-23 -3 -8 1.83 1.07
23 -3 -8 -0.43 1.02
-24 3 -8 1.52 1.14
24 3 -8 2.62 1.19
-24 3 -7 0.96 0.98
24 3 -7 0.27 0.86
-24 3 -6 0.84 0.86
24 3 -6 -0.26 0.81
-24 3 -5 18.21 1.99
24 3 -5 20.39 2.22
-24 3 -4 10.95 1.49
24 3 -4 9.55 1.48
-24 3 -3 3.57 0.98
24 3 -3 3.26 1
-24 3 -2 3.44 0.88
24 3 -2 1.48 0.81
-24 3 -1 12.29 1.4
24 3 -1 15.23 1.87
-24 3 0 0.55 0.57
-24 -3 0 0.34 0.52
24 -3 0 0.24 0.49
-24 3 1 12.99 1.39
-24 -3 -1 12.31 1.55
-24 -3 -1 13.33 1.42
24 -3 -1 17.03 1.31
-24 3 2 4.75 0.9
-24 -3 -2 3.41 0.84
-24 -3 -2 4.2 1.03
-24 -3 -3 5.15 1.05
-24 -3 -3 2.71 0.75
24 -3 -3 5.41 1.05
-24 -3 -4 10.07 1.29
-24 -3 -4 9.53 1.41
-24 -3 -5 19.83 1.98
24 -3 -5 21.94 2.4
-24 -3 -6 0.17 0.68
24 -3 -6 0.44 0.99
-24 -3 -7 -0.1 0.83
24 -3 -7 -1.1 0.94
-24 -3 -8 -0.13 0.89
24 -3 -8 -0.21 1.09
25 3 -8 1.4 1.19
-25 3 -7 25.65 2.52
25 3 -7 22.28 2.49
-25 3 -6 0.74 0.99
25 3 -6 0.34 0.89
-25 3 -5 26.91 2.16
25 3 -5 28.11 2.62
-25 3 -4 0.26 0.67
25 3 -4 1.08 0.86
-25 3 -3 7.88 1.27
25 3 -3 7.39 1.46
-25 3 -2 6.5 1.16
25 3 -2 8.4 1.5
-25 3 -1 81.23 3.12
25 3 -1 84.52 3.59
-25 3 0 10.74 1.33
-25 -3 0 9.36 1.33
-25 -3 -1 87.57 3.38
-25 3 1 89.87 3.21
25 -3 -1 87.13 2.93
-25 3 2 6.15 1.04
-25 -3 -2 7.8 1.25
-25 -3 -2 7.09 1.08
-25 -3 -3 7.26 1.29
-25 -3 -3 7.72 1.11
25 -3 -3 4.6 1.04
-25 -3 -4 0.42 0.65
-25 -3 -5 27.35 2.09
25 -3 -5 24.51 2.54
-25 -3 -6 0.27 0.79
25 -3 -6 0.15 1.01
-25 -3 -7 26.26 2.53
25 -3 -7 20.94 2.74
-25 -3 -8 -0.35 0.94
-26 3 -7 0.94 1.05
26 3 -7 -0.72 0.96
-26 3 -6 0 0.79
26 3 -6 0.23 0.9
-26 3 -5 0.92 0.88
26 3 -5 1.91 1.06
-26 3 -4 5.06 1.2
26 3 -4 4.69 1.25
-26 3 -3 1.85 0.8
26 3 -3 1.64 1.03
-26 3 -2 2.37 0.89
26 3 -2 2.11 0.94
-26 3 -1 5.17 1.03
26 3 -1 5.21 1.21
-26 -3 0 0.01 0.48
-26 3 0 -0.37 0.48
-26 3 1 4.03 0.94
-26 -3 -1 5.72 1.15
-26 -3 -2 4.63 0.94
-26 3 2 3.5 0.84
-26 -3 -2 4.14 1.01
-26 -3 -3 1.44 0.72
-26 -3 -3 1.68 0.82
26 -3 -3 0.22 0.65
-26 -3 -4 8.2 1.37
-26 -3 -5 -0.29 0.7
26 -3 -5 0.15 0.86
-26 -3 -6 -0.95 0.65
26 -3 -6 -0.27 1
-26 -3 -7 1.1 0.93
26 -3 -7 0.72 1.28
27 3 -7 12.32 2.08
-27 3 -6 1.2 0.9
27 3 -6 1.15 1.16
-27 3 -5 19.79 2.15
27 3 -5 21.95 2.46
-27 3 -4 0.06 0.67
27 3 -4 0.66 0.91
-27 3 -3 3.86 1.03
27 3 -3 1.15 0.94
-27 3 -2 1.58 0.8
27 3 -2 1.1 0.93
-27 3 -1 60.56 2.8
27 3 -1 61.57 3.23
-27 3 0 -0.58 0.49
-27 -3 0 -0.76 0.51
-27 3 1 59.09 2.66
-27 -3 -1 55.15 2.79
-27 -3 -2 1.34 0.67
-27 3 2 1.16 0.64
-27 -3 -2 1.05 0.73
-27 -3 -3 1.25 0.81
-27 -3 -3 0.75 0.75
27 -3 -3 0.29 0.75
-27 -3 -4 1.07 0.78
-27 -3 -5 31.88 2.34
27 -3 -5 23.46 2.64
-27 -3 -6 1.29 0.95
27 -3 -6 -1.7 0.94
-27 -3 -7 8.4 1.6
27 -3 -7 7.61 1.88
-28 3 -6 0.98 1.03
28 3 -6 0.89 1.15
-28 3 -5 2.19 1.05
28 3 -5 3.79 1.31
-28 3 -4 5.74 1.21
28 3 -4 7.18 1.52
-28 3 -3 18.72 2
28 3 -3 14.62 2.04
-28 3 -2 4.45 1.01
28 3 -2 5.31 1.29
-28 3 -1 0.23 0.62
28 3 -1 0.91 0.87
-28 -3 0 0.17 0.65
-28 3 0 0.37 0.63
-28 -3 -1 0.67 0.72
-28 3 1 0.28 0.61
-28 -3 -2 6.57 1.33
-28 3 2 4.22 0.93
-28 -3 -3 15.66 1.92
28 -3 -3 16.4 1.87
-28 -3 -4 10.59 1.64
-28 -3 -5 3.45 1.19
28 -3 -5 0.95 1.11
-28 -3 -6 1.88 1.02
28 -3 -6 0.23 1.23
29 3 -6 3.53 1.54
-29 3 -5 6.78 1.44
29 3 -5 7.77 1.67
-29 3 -4 5.76 1.31
29 3 -4 2.34 1.15
-29 3 -3 3.65 1.14
29 3 -3 6.11 1.55
-29 3 -2 0.73 0.81
29 3 -2 -0.67 0.79
-29 3 -1 36.88 2.29
29 3 -1 36.7 2.69
-29 -3 0 0.93 0.73
-29 3 0 1.57 0.79
-29 3 1 31.32 2.12
-29 -3 -1 35.98 2.4
-29 3 2 1.97 0.75
-29 -3 -2 0.47 0.75
-29 -3 -3 4.98 1.28
-29 -3 -4 3.86 1.19
-29 -3 -5 8.49 1.56
29 -3 -5 5.46 1.53
-29 -3 -6 2.21 1.09
29 -3 -6 1.52 1.36
-30 3 -5 7.13 1.54
30 3 -5 8.59 1.77
-30 3 -4 0.34 0.92
30 3 -4 0.45 1.01
-30 3 -3 24.31 2.33
30 3 -3 21.81 2.49
-30 3 -2 2.94 1.06
30 3 -2 3.73 1.38
-30 3 -1 9.18 1.48
30 3 -1 10.72 1.91
-30 -3 0 -0.11 0.65
-30 3 0 0.61 0.63
-30 3 1 6.75 1.18
-30 -3 -1 8.42 1.43
-30 3 2 3.67 0.96
-30 -3 -2 2.21 0.95
-30 -3 -3 28.56 2.65
-30 -3 -4 1.96 1.02
-30 -3 -5 10.9 1.7
30 -3 -5 7.06 1.72
31 3 -5 0.56 1.12
-31 3 -4 4.22 1.27
31 3 -4 3.16 1.43
-31 3 -3 1.92 1
31 3 -3 0.62 1
-31 3 -2 2.04 0.98
31 3 -2 -0.32 0.94
-31 3 -1 2.1 0.98
31 3 -1 1.13 1.07
-31 3 0 15.79 1.85
-31 -3 -1 5.2 1.2
-31 3 1 3.59 1.07
-31 -3 -2 1.05 0.9
-31 -3 -3 -0.24 0.85
-31 -3 -4 4.95 1.28
31 -3 -5 -0.67 1.11
-32 3 -4 0.38 0.94
32 3 -4 1.52 1.2
-32 3 -3 15.19 1.89
32 3 -3 17.58 2.43
-32 3 -2 3.61 1.1
32 3 -2 3.26 1.46
-32 3 -1 5.97 1.33
32 3 -1 3.19 1.3
-32 3 0 -0.49 0.7
-32 3 1 6.87 1.29
-32 -3 -1 5.84 1.32
-32 -3 -2 4.36 1.31
-32 -3 -3 17.37 2.24
-33 3 -3 1.52 1.07
33 3 -3 -0.82 0.95
-33 3 -2 2.2 1.07
33 3 -2 0.09 1.01
-33 3 -1 2.58 0.98
33 3 -1 0.03 0.94
-33 3 0 3.69 1.13
-33 3 1 -0.01 0.8
-33 -3 -1 1.85 0.94
-33 -3 -2 0.41 0.87
-34 3 -2 0.59 1
-34 3 -1 3.39 1.07
-34 3 0 -0.34 0.79
-34 3 1 1.83 0.94
0 4 -11 0.99 0.92
0 4 -10 1.51 1.03
0 4 -9 -0.47 0.64
0 4 -8 0.2 0.64
0 4 -7 -0.34 0.52
0 4 -6 72.35 2.77
0 4 -5 0.54 0.47
0 4 -4 2.69 0.64
0 -4 3 0.01 0.3
0 4 -3 -0.1 0.3
0 -4 2 9.77 0.58
0 4 -2 10.03 0.8
0 -4 2 9.22 0.72
0 -4 1 -0.38 0.24
0 -4 1 0.04 0.23
0 4 -1 -0.46 0.27
0 -4 0 525.99 8.84
0 4 0 535.25 8.56
0 -4 0 529.85 8.68
0 -4 -1 -0.43 0.28
0 -4 -2 8.46 0.84
0 -4 -3 0.34 0.42
0 -4 -4 4.02 0.74
0 -4 -5 -0.03 0.42
0 -4 -6 70.64 2.78
0 -4 -7 -0.55 0.51
0 -4 -8 0.83 0.72
0 -4 -9 0.07 0.83
0 -4 -10 1.2 1.02
0 -4 -11 -0.73 0.98
-1 4 -11 4.19 1.33
1 4 -11 9.09 1.67
-1 4 -10 5.77 1.4
1 4 -10 4.61 1.23
-1 4 -9 9.73 1.5
1 4 -9 8.52 1.45
-1 4 -8 0.74 0.75
1 4 -8 -0.4 0.64
-1 4 -7 3.04 0.9
1 4 -7 1.92 0.66
1 4 -7 3.46 0.91
-1 4 -6 0.65 0.6
-1 4 -6 0.9 0.46
1 4 -6 0.08 0.49
-1 4 -5 6.45 1.02
1 4 -5 5.04 0.87
-1 4 -4 3.55 0.72
1 4 -4 3.89 0.71
-1 -4 3 8.69 0.83
-1 4 -3 8.55 0.89
1 -4 3 10.21 0.81
1 4 -3 8.86 0.9
-1 -4 2 10 0.62
-1 4 -2 9.77 0.86
-1 -4 2 9.19 0.72
1 4 -2 10.72 0.83
1 -4 2 10.23 0.74
1 -4 2 10.65 0.56
-1 -4 1 1.21 0.31
-1 4 -1 1.54 0.38
-1 -4 1 1.43 0.34
1 -4 1 1.49 0.36
1 -4 1 1.35 0.29
1 4 -1 2.04 0.4
-1 -4 0 -0.17 0.24
-1 4 0 -0.03 0.23
-1 -4 0 0.12 0.29
1 -4 0 -0.27 0.23
1 -4 0 0.11 0.29
1 4 0 0.04 0.26
-1 -4 -1 1.46 0.43
1 -4 -1 1.79 0.43
-1 -4 -2 10.33 0.93
1 -4 -2 9.06 0.87
-1 -4 -3 8.32 0.96
1 -4 -3 9.2 0.96
-1 -4 -4 4.37 0.81
1 -4 -4 3.72 0.72
-1 -4 -5 5.57 0.91
-1 -4 -5 5.06 0.55
1 -4 -5 4.61 0.85
-1 -4 -6 0.73 0.58
1 -4 -6 1.46 0.66
-1 -4 -7 2.75 0.88
1 -4 -7 2.26 0.89
-1 -4 -8 0.25 0.7
1 -4 -8 -0.91 0.6
-1 -4 -9 8.97 1.58
1 -4 -9 8.29 1.51
-1 -4 -10 4.25 1.32
1 -4 -10 5.06 1.41
-1 -4 -11 5.09 1.49
1 -4 -11 3.89 1.41
-2 4 -11 0.04 0.91
2 4 -11 0.9 1.1
-2 4 -10 0.03 0.84
2 4 -10 1.33 1.1
-2 4 -9 4.98 1.18
2 4 -9 3.71 1.1
-2 4 -8 2.75 0.87
2 4 -8 1.58 0.83
-2 4 -7 23.65 1.78
2 4 -7 22.98 1.73
2 4 -7 22.57 1.51
-2 4 -6 63.36 2.59
-2 4 -6 60.29 2.04
2 4 -6 58.85 2.5
-2 4 -5 6.19 0.96
2 4 -5 7.66 1.01
-2 4 -4 0.42 0.43
2 4 -4 1.14 0.48
2 -4 4 0.62 0.38
-2 -4 3 2.74 0.53
-2 4 -3 2.8 0.56
2 4 -3 3.41 0.61
2 -4 3 3.08 0.52
-2 -4 2 3.37 0.48
-2 -4 2 4.34 0.5
-2 4 -2 5.38 0.66
2 4 -2 4.41 0.63
2 -4 2 3.28 0.51
2 -4 2 4.39 0.38
-2 -4 1 62.54 1.68
-2 -4 1 63.52 1.65
-2 4 -1 64.61 1.73
2 -4 1 65.14 1.51
2 4 -1 67.34 1.82
2 -4 1 63.79 1.74
-2 -4 0 147.91 2.87
-2 4 0 148.91 2.79
-2 -4 0 148.49 3.13
2 4 0 149.18 2.94
2 -4 0 144.34 3.01
2 -4 0 149.91 2.98
-2 -4 -1 63.03 1.88
2 4 1 65.09 1.48
2 -4 -1 63.71 1.82
-2 -4 -2 3.17 0.62
2 -4 -2 3.73 0.59
-2 -4 -3 3.42 0.64
2 -4 -3 1.92 0.54
-2 -4 -4 0.23 0.45
2 -4 -4 0.47 0.47
-2 -4 -5 6.48 0.95
-2 -4 -5 5.83 0.59
2 -4 -5 7.18 1.05
-2 -4 -6 60.84 2.63
-2 -4 -6 63.79 1.92
2 -4 -6 64.39 2.7
-2 -4 -7 22.38 1.81
2 -4 -7 21.8 1.99
-2 -4 -8 2.04 0.85
2 -4 -8 1.96 0.96
-2 -4 -9 5.52 1.29
2 -4 -9 3.16 1.1
-2 -4 -10 -1.01 0.75
2 -4 -10 1.76 1.05
-2 -4 -11 -0.84 1
2 -4 -11 -0.56 1.02
-3 4 -11 2.56 1.19
3 4 -11 2.95 1.27
-3 4 -10 19.83 2.19
3 4 -10 21.63 2.35
-3 4 -9 19.23 2.07
3 4 -9 23.52 2.24
-3 4 -8 0.53 0.62
3 4 -8 0.83 0.72
3 4 -8 0.12 0.51
-3 4 -7 10.59 1.36
3 4 -7 9.21 1.29
-3 4 -6 1.04 0.6
3 4 -6 -0.04 0.47
-3 4 -5 2.34 0.63
-3 4 -5 2.92 0.54
3 4 -5 1.72 0.59
-3 4 -4 21.78 1.34
3 4 -4 21.82 1.33
3 -4 4 21.54 1.23
-3 4 -3 32.8 1.48
3 -4 3 33.45 1.39
3 4 -3 32.4 1.48
-3 -4 2 4.46 0.53
-3 -4 2 5.32 0.57
-3 4 -2 6.16 0.71
3 4 -2 4.57 0.7
3 -4 2 4.77 0.61
-3 4 -1 1.61 0.39
-3 -4 1 2.19 0.36
-3 -4 1 1.59 0.37
3 -4 1 1.48 0.29
3 -4 1 2.89 0.47
3 4 -1 1.21 0.4
-3 -4 0 -0.07 0.19
-3 4 0 0.11 0.22
-3 -4 0 -0.13 0.24
3 -4 0 0.2 0.27
3 4 0 -0.03 0.27
3 -4 0 -0.25 0.28
-3 -4 -1 1.98 0.35
-3 -4 -1 2.31 0.51
3 -4 -1 1.76 0.45
3 4 1 1.63 0.33
-3 -4 -2 4.25 0.39
-3 -4 -2 4.12 0.66
3 -4 -2 4.76 0.67
-3 -4 -3 32.54 1.52
3 -4 -3 31.41 1.5
-3 -4 -4 19.79 1.34
-3 -4 -4 21.66 0.89
3 -4 -4 20.18 1.37
-3 -4 -5 2.62 0.44
-3 -4 -5 2.25 0.7
3 -4 -5 3.26 0.77
-3 -4 -6 -0.02 0.51
-3 -4 -6 0.45 0.38
3 -4 -6 0.59 0.59
-3 -4 -7 5.71 1.1
3 -4 -7 7.87 1.25
-3 -4 -8 0.58 0.76
3 -4 -8 0.82 0.73
-3 -4 -9 21.83 2.24
3 -4 -9 22.29 2.36
-3 -4 -10 22.41 2.32
3 -4 -10 20.61 2.39
-3 -4 -11 2.24 1.28
3 -4 -11 2.91 1.39
-4 4 -11 -0.02 0.94
4 4 -11 -0.37 0.94
-4 4 -10 1.5 0.89
4 4 -10 0.6 0.92
-4 4 -9 1.44 0.91
4 4 -9 -0.16 0.69
-4 4 -8 11.85 1.5
4 4 -8 15.68 1.7
4 4 -8 10.04 1.43
-4 4 -7 25.18 1.79
4 4 -7 25.42 1.8
-4 4 -6 41.09 2.09
4 4 -6 40.6 2.08
-4 4 -5 19.71 1.39
-4 4 -5 20.7 0.96
4 4 -5 22.09 1.43
-4 4 -4 6.15 0.88
4 -4 4 6.57 0.79
4 4 -4 6.74 0.91
-4 4 -3 35.96 1.56
4 4 -3 36.22 1.57
4 -4 3 35.65 1.45
-4 -4 2 4.9 0.57
-4 -4 2 5.7 0.6
-4 4 -2 4.51 0.64
4 -4 2 4.27 0.55
4 4 -2 5.36 0.73
-4 -4 1 26.48 1.08
-4 -4 1 25.1 0.95
-4 4 -1 26.88 1.05
4 -4 1 26.24 1.11
4 -4 1 26.88 0.81
4 4 -1 24.97 1.13
-4 -4 0 57.15 1.37
-4 4 0 51.96 1.35
-4 -4 0 54.68 1.66
4 4 0 53.43 1.54
4 -4 0 54.09 1.45
4 -4 0 53.79 1.59
-4 -4 -1 25.4 1.18
-4 -4 -1 25.08 0.85
4 4 1 26.75 0.98
4 -4 -1 25.58 1.09
-4 -4 -2 4.59 0.45
-4 -4 -2 5.05 0.71
4 -4 -2 4.74 0.67
-4 -4 -3 34.56 1.1
-4 -4 -3 34.39 1.58
4 -4 -3 33.31 1.57
-4 -4 -4 5.14 0.8
-4 -4 -4 6.56 0.62
4 -4 -4 5.43 0.9
-4 -4 -5 22.49 1.06
-4 -4 -5 23.65 1.54
4 -4 -5 21.6 1.54
-4 -4 -6 41.19 1.58
-4 -4 -6 41.93 2.15
4 -4 -6 39.32 2.19
-4 -4 -7 23.84 1.81
4 -4 -7 23.45 1.88
-4 -4 -8 11.22 1.53
4 -4 -8 12.47 1.72
-4 -4 -9 1.47 0.97
4 -4 -9 -0.14 0.73
-4 -4 -10 -1.04 0.84
4 -4 -10 1.54 1
-4 -4 -11 1.24 1.23
4 -4 -11 -0.04 1.04
-5 4 -11 1.6 1.09
5 4 -11 -0.69 1
-5 4 -10 10.25 1.61
5 4 -10 9.68 1.8
-5 4 -9 -0.19 0.61
5 4 -9 -0.27 0.75
-5 4 -8 1.26 0.77
5 4 -8 3.15 0.91
5 4 -8 1.22 0.69
-5 4 -7 2.53 0.83
5 4 -7 3.07 0.88
-5 4 -6 0.02 0.46
5 4 -6 0.27 0.44
-5 4 -5 1.56 0.59
5 4 -5 1.62 0.59
-5 4 -4 19.67 1.27
5 4 -4 18.02 1.25
5 -4 4 22.52 1.23
-5 4 -3 9.19 0.94
5 -4 3 8.2 0.82
5 4 -3 7 0.91
-5 4 -2 13.72 0.91
-5 -4 2 13.76 0.82
5 -4 2 14.06 0.9
5 4 -2 13.36 0.96
-5 -4 1 9.28 0.62
-5 -4 1 8.58 0.68
-5 4 -1 10.56 0.7
5 -4 1 9.7 0.75
5 4 -1 9.43 0.86
-5 -4 0 -0.07 0.29
-5 -4 0 -0.2 0.17
-5 4 0 -0.21 0.19
5 4 0 -0.16 0.27
5 -4 0 0.02 0.25
5 -4 0 0.06 0.29
-5 -4 -1 8.28 0.49
-5 -4 -1 9.45 0.87
5 -4 -1 9.15 0.7
-5 -4 -2 14.74 1.03
-5 -4 -2 14.25 0.71
5 -4 -2 13.54 0.97
-5 -4 -3 8.61 0.99
-5 -4 -3 9 0.62
5 -4 -3 9.18 0.98
-5 -4 -4 21.55 1.39
-5 -4 -4 20.32 0.95
5 -4 -4 19.17 1.37
-5 -4 -5 1.64 0.62
-5 -4 -5 1.27 0.41
5 -4 -5 2.4 0.73
-5 -4 -6 -0.38 0.33
-5 -4 -6 0.23 0.59
5 -4 -6 -0.15 0.55
-5 -4 -7 0.42 0.69
5 -4 -7 1.27 0.83
-5 -4 -8 1.6 0.87
5 -4 -8 2.08 0.94
-5 -4 -9 0.55 0.92
5 -4 -9 1.29 0.82
-5 -4 -10 7.19 1.54
5 -4 -10 9.84 1.81
-5 -4 -11 1.45 1.31
5 -4 -11 -0.53 1.08
-6 4 -11 8.91 1.74
6 4 -11 5.51 1.51
-6 4 -10 0.45 0.87
6 4 -10 -0.57 0.86
-6 4 -9 -0.06 0.71
6 4 -9 1.67 0.85
6 4 -9 1.63 0.91
-6 4 -8 1.01 0.67
6 4 -8 0.17 0.66
6 4 -8 1.49 0.72
-6 4 -7 16.28 1.64
6 4 -7 19.23 1.81
-6 4 -6 3.16 0.82
6 4 -6 4.15 0.87
-6 4 -5 21.5 1.44
6 4 -5 20.98 1.48
-6 4 -4 13.73 1.11
6 -4 4 13.51 1.01
6 4 -4 14.43 1.15
-6 4 -3 7.11 0.84
6 4 -3 6.3 0.84
6 -4 3 6.26 0.71
-6 -4 2 16.05 0.91
-6 4 -2 16.95 1
6 -4 2 15.03 0.92
6 4 -2 14.47 1.01
-6 4 -1 57.89 1.66
-6 -4 1 56.69 1.73
-6 -4 1 57.4 1.47
6 4 -1 54.73 1.79
6 -4 1 56.22 1.72
-6 -4 0 7.7 0.77
-6 4 0 7.85 0.56
-6 -4 0 8.26 0.47
6 -4 0 8.17 0.77
6 4 0 8.36 0.77
6 -4 0 6.87 0.54
-6 -4 -1 56.21 1.85
-6 -4 -1 57.45 1.29
-6 -4 -1 55.19 1.54
6 -4 -1 59 1.74
-6 -4 -2 15.11 1.05
-6 -4 -2 17.38 0.81
6 -4 -2 15.3 1.03
-6 -4 -3 7.53 0.94
-6 -4 -3 7.1 0.64
6 -4 -3 6.34 0.86
-6 -4 -4 13.26 1.23
-6 -4 -4 14.98 0.85
6 -4 -4 15.06 1.23
-6 -4 -5 20.25 1.06
-6 -4 -5 17.53 1.39
6 -4 -5 21.52 1.55
-6 -4 -6 3.86 0.68
-6 -4 -6 4.1 0.95
6 -4 -6 3 0.84
-6 -4 -7 17.11 1.79
6 -4 -7 14.43 1.65
-6 -4 -8 0.44 0.78
6 -4 -8 1.15 0.84
-6 -4 -9 2.59 1.12
6 -4 -9 -0.88 0.8
-6 -4 -10 -0.85 0.82
6 -4 -10 0.53 1
-6 -4 -11 8.6 1.77
6 -4 -11 11.04 2.03
-7 4 -11 -1.51 0.87
7 4 -11 -0.02 1.08
-7 4 -10 38.22 2.71
7 4 -10 31.29 2.5
-7 4 -9 -0.49 0.71
7 4 -9 -0.07 0.69
7 4 -9 0.41 0.77
-7 4 -8 30.96 2.16
7 4 -8 33.75 2.21
-7 4 -7 2.64 0.83
7 4 -7 2.21 0.78
-7 4 -6 2.21 0.72
7 4 -6 1.09 0.64
-7 4 -5 6.33 0.96
7 -4 5 7.91 0.96
7 4 -5 8.34 1.13
-7 4 -4 124.13 3.45
7 -4 4 129.26 3.28
7 4 -4 122.08 3.49
-7 4 -3 19.99 1.2
7 -4 3 17.04 1.07
7 4 -3 18.49 1.2
-7 4 -2 108.33 2.74
-7 -4 2 109.92 2.72
7 4 -2 104.49 2.85
7 -4 2 109.53 2.71
-7 -4 1 0.47 0.33
-7 4 -1 0.82 0.35
-7 -4 1 1.06 0.27
7 -4 1 0.1 0.3
7 4 -1 0.81 0.41
-7 -4 0 -0.12 0.16
-7 4 0 0.03 0.21
-7 -4 0 0.31 0.3
7 -4 0 0.07 0.23
7 -4 0 0.05 0.29
7 4 0 -0.15 0.3
-7 -4 -1 1.36 0.34
-7 4 1 0.54 0.23
-7 -4 -1 1 0.41
7 -4 -1 0.72 0.35
-7 -4 -2 107.63 2.48
-7 -4 -2 110.49 2.91
7 -4 -2 107.47 2.84
-7 -4 -3 18.17 1.23
-7 -4 -3 17.47 0.91
7 -4 -3 17.99 1.24
-7 -4 -4 123.23 2.92
-7 -4 -4 124.25 3.47
7 -4 -4 122.83 3.58
-7 -4 -5 7.17 0.77
-7 -4 -5 4.63 0.86
7 -4 -5 7.27 1.11
-7 -4 -6 2.2 0.56
-7 -4 -6 0.92 0.64
7 -4 -6 1.73 0.66
-7 -4 -7 2.08 0.8
-7 -4 -7 2.32 0.67
7 -4 -7 2.5 0.87
-7 -4 -8 33.23 2.22
7 -4 -8 37.9 2.52
-7 -4 -9 -0.11 0.81
7 -4 -9 0.13 0.85
-7 -4 -10 37.62 2.69
7 -4 -10 34.11 2.79
7 -4 -11 -0.52 1.05
-8 4 -11 13.85 2.13
8 4 -11 10.74 1.85
-8 4 -10 -0.08 0.83
8 4 -10 1.12 0.92
-8 4 -9 6.92 1.34
8 4 -9 5.26 1.19
8 4 -9 6.08 1.35
-8 4 -8 4.26 1.12
8 4 -8 2.93 0.99
-8 4 -7 17.39 1.76
8 4 -7 15.5 1.76
-8 4 -6 0.53 0.56
8 4 -6 0.08 0.55
-8 4 -5 57.12 2.4
8 -4 5 62.24 2.27
8 4 -5 60.33 2.45
-8 4 -4 8.26 1.04
8 -4 4 9.02 0.96
8 4 -4 8.28 1.12
-8 4 -3 1.43 0.5
8 -4 3 2.65 0.55
8 4 -3 3 0.66
-8 -4 2 11.13 0.83
-8 4 -2 10.29 0.94
8 4 -2 12.26 0.97
8 -4 2 12.67 0.89
-8 -4 1 9.79 0.9
-8 4 -1 8.81 0.71
8 4 -1 9.97 0.95
8 -4 1 7.73 0.75
-8 -4 0 1 0.38
-8 4 0 0.73 0.3
8 -4 0 0.89 0.38
8 -4 0 0.87 0.32
8 4 0 0.52 0.37
-8 -4 -1 9.45 0.88
-8 -4 -1 8.32 0.67
-8 4 1 8.13 0.54
8 -4 -1 8.69 0.82
-8 -4 -2 12.04 1.08
-8 -4 -2 10.99 0.75
8 -4 -2 10.51 0.99
-8 -4 -3 2.52 0.61
-8 -4 -3 2.76 0.47
8 -4 -3 2.24 0.58
-8 -4 -4 7.9 0.77
-8 -4 -4 7.85 1.02
8 -4 -4 7.23 1.01
-8 -4 -5 60.6 2.45
-8 -4 -5 59.31 2.02
8 -4 -5 63.98 2.65
-8 -4 -6 -0.21 0.53
-8 -4 -6 0.18 0.4
8 -4 -6 1.08 0.72
-8 -4 -7 13.38 1.26
-8 -4 -7 16.05 1.69
8 -4 -7 15.94 1.88
-8 -4 -8 2.95 1.05
8 -4 -8 3.62 1.21
-8 -4 -9 5.61 1.37
8 -4 -9 6.51 1.54
-8 -4 -10 -0.35 0.98
8 -4 -10 -0.52 0.93
8 -4 -11 14.87 2.45
9 4 -11 4.12 1.42
-9 4 -10 21.96 2.45
9 4 -10 19.9 2.34
-9 4 -9 3.99 1.23
9 4 -9 5.3 1.23
9 4 -9 4.18 1.09
-9 4 -8 21.08 2.07
9 4 -8 19.6 2.06
-9 4 -7 0.16 0.57
9 4 -7 -0.17 0.56
-9 4 -6 0.71 0.53
9 4 -6 -0.71 0.43
-9 4 -5 0.72 0.52
9 4 -5 0.02 0.41
9 -4 5 1.05 0.52
-9 4 -4 73.23 2.56
9 -4 4 70 2.35
9 4 -4 74.84 2.62
-9 4 -3 27.74 1.43
9 -4 3 30.88 1.41
-9 -4 2 48.83 1.77
-9 4 -2 53.81 1.83
9 4 -2 53.13 1.95
9 -4 2 51.52 1.75
-9 4 -1 3.17 0.52
-9 -4 1 3.23 0.61
9 4 -1 2.75 0.59
9 -4 1 3.1 0.54
-9 4 0 -0.17 0.22
-9 -4 0 -0.25 0.28
9 -4 0 -0.32 0.22
9 -4 0 0.25 0.32
9 4 0 -0.02 0.31
-9 4 1 3.82 0.45
-9 -4 -1 3.46 0.53
-9 -4 -1 3.42 0.59
9 -4 -1 3.02 0.52
-9 -4 -2 46.79 1.59
-9 -4 -2 49.54 1.89
9 -4 -2 49.46 1.84
-9 -4 -3 28.77 1.25
-9 -4 -3 30.93 1.55
9 -4 -3 27.96 1.53
-9 -4 -4 72.89 2.53
-9 -4 -4 70.15 2.15
9 -4 -4 69.94 2.64
-9 -4 -5 0.71 0.43
-9 -4 -5 1.21 0.6
9 -4 -5 1.79 0.67
-9 -4 -6 -0.18 0.38
-9 -4 -6 -0.12 0.61
9 -4 -6 0 0.56
-9 -4 -7 0.57 0.52
-9 -4 -7 -0.14 0.66
9 -4 -7 0.21 0.73
-9 -4 -8 20.8 2.01
9 -4 -8 20.68 2.21
-9 -4 -9 0.96 0.93
9 -4 -9 5.47 1.41
-9 -4 -10 21.59 2.36
9 -4 -10 21.08 2.57
10 4 -11 2.13 1.26
-10 4 -10 -0.89 0.84
10 4 -10 -0.48 0.87
10 4 -10 1.96 0.99
-10 4 -9 0.7 0.81
10 4 -9 0.58 0.85
10 4 -9 1.34 0.86
-10 4 -8 14.36 1.74
10 4 -8 15.62 1.87
-10 4 -7 0.66 0.65
10 4 -7 -0.21 0.58
-10 4 -6 34.78 2.06
10 4 -6 35.39 2.06
-10 4 -5 3.38 0.82
10 4 -5 1.82 0.66
10 -4 5 1.85 0.59
-10 4 -4 0.09 0.4
10 -4 4 0.44 0.43
10 4 -4 1.1 0.53
-10 4 -3 0.06 0.37
10 -4 3 -0.08 0.31
10 4 -3 0.1 0.38
-10 4 -2 5.46 0.71
-10 -4 2 4.44 0.67
10 -4 2 6.58 0.76
10 4 -2 4.97 0.76
-10 -4 1 3.35 0.57
-10 4 -1 2.49 0.48
10 4 -1 3.35 0.61
10 -4 1 2.91 0.53
-10 4 0 37.09 1.31
-10 -4 0 38.61 1.53
10 4 0 33.9 1.51
10 -4 0 39.13 1.47
10 -4 0 38.17 1.27
-10 -4 -1 1.73 0.42
-10 -4 -1 4.03 0.64
-10 4 1 2.45 0.41
10 -4 -1 3.48 0.56
-10 -4 -2 4.41 0.7
-10 4 2 4.57 0.47
-10 -4 -2 5.82 0.69
10 -4 -2 5.54 0.76
-10 -4 -3 -0.43 0.24
-10 -4 -3 0.35 0.42
10 -4 -3 -0.16 0.38
-10 -4 -4 1.28 0.44
-10 -4 -4 0.62 0.55
10 -4 -4 0.41 0.5
-10 -4 -5 3.01 0.61
-10 -4 -5 2.88 0.76
10 -4 -5 2.23 0.78
-10 -4 -6 34.35 1.68
-10 -4 -6 33.72 1.99
10 -4 -6 33.76 2.16
-10 -4 -7 -0.27 0.6
-10 -4 -7 -0.08 0.5
10 -4 -7 -0.2 0.58
-10 -4 -8 12.35 1.66
10 -4 -8 16.68 2.13
-10 -4 -9 -1.43 0.79
10 -4 -9 0.25 0.9
10 -4 -10 1.27 1.13
-11 4 -10 1.86 1
11 4 -10 7.42 1.66
11 4 -10 4.38 1.3
-11 4 -9 17.67 2.09
11 4 -9 20.26 2.25
-11 4 -8 6.02 1.21
11 4 -8 4.91 1.16
-11 4 -7 0.6 0.74
11 4 -7 -0.57 0.55
-11 4 -6 0.83 0.63
11 4 -6 0.45 0.64
-11 4 -5 34.65 1.92
11 4 -5 28.73 1.81
11 -4 5 31.9 1.68
-11 4 -4 20.12 1.37
11 -4 4 21.82 1.3
11 4 -4 19.73 1.43
-11 4 -3 68.43 2.38
11 4 -3 70.71 2.53
11 -4 3 71.94 2.27
-11 4 -2 23.66 1.28
11 -4 2 26.73 1.29
11 4 -2 25.11 1.42
-11 -4 1 13.09 0.93
-11 4 -1 14.02 0.91
11 4 -1 14.29 1.06
11 -4 1 13.26 0.95
-11 -4 0 -0.1 0.29
-11 4 0 0.52 0.33
11 4 0 -0.31 0.33
11 -4 0 0.34 0.32
11 -4 0 0.15 0.28
-11 -4 -1 14.21 0.93
-11 -4 -1 13.73 1.01
-11 4 1 13.29 0.79
11 -4 -1 13.25 0.92
-11 -4 -2 24.32 1.21
-11 4 2 24.14 0.97
-11 -4 -2 25.1 1.37
11 -4 -2 24.14 1.34
-11 -4 -3 70.43 2.18
-11 -4 -3 68.89 2.43
11 -4 -3 71.05 2.55
-11 -4 -4 22.58 1.27
-11 -4 -4 21.13 1.43
11 -4 -4 25.81 1.65
-11 -4 -5 32.94 1.84
-11 -4 -5 31.32 1.57
11 -4 -5 33.5 2.01
-11 -4 -6 0.01 0.63
-11 -4 -6 0.3 0.47
11 -4 -6 0.48 0.66
-11 -4 -7 0 0.69
-11 -4 -7 -0.13 0.49
11 -4 -7 0.59 0.75
-11 -4 -8 7.96 1.37
11 -4 -8 4.52 1.3
-11 -4 -9 20.18 2.11
11 -4 -9 19.65 2.34
11 -4 -10 1.27 1.03
-12 4 -10 4.17 1.29
12 4 -10 2.79 1.31
12 4 -10 3.55 1.31
-12 4 -9 1.24 0.94
12 4 -9 2.06 1.06
-12 4 -8 27.09 2.15
12 4 -8 26.21 2.4
-12 4 -7 2.44 0.92
12 4 -7 1.56 0.8
-12 4 -6 72.27 2.93
12 4 -6 64.41 2.88
-12 4 -5 5.46 0.97
12 -4 5 6.14 0.98
12 4 -5 4.27 0.91
-12 4 -4 6.81 0.98
12 4 -4 6.6 1
12 -4 4 6.72 0.93
-12 4 -3 -0.02 0.36
12 -4 3 1.4 0.47
12 4 -3 0.47 0.47
-12 4 -2 36.87 1.58
12 -4 2 34.59 1.51
-12 -4 1 3.56 0.64
-12 4 -1 2.84 0.56
12 -4 1 2.46 0.55
12 4 -1 1.29 0.54
-12 -4 0 118.97 3.14
-12 4 0 123.29 2.91
12 -4 0 122.51 2.8
12 -4 0 123.09 3.03
-12 4 1 3.23 0.5
-12 -4 -1 2.86 0.6
-12 -4 -1 3.32 0.61
12 -4 -1 3.22 0.59
-12 4 2 35.53 1.27
-12 -4 -2 34.87 1.49
-12 -4 -2 34.83 1.63
12 -4 -2 36.01 1.64
-12 -4 -3 1.08 0.5
-12 -4 -3 0.7 0.38
12 -4 -3 0.02 0.46
12 -4 -3 0.51 0.33
-12 -4 -4 7.38 0.9
-12 -4 -4 7.12 0.99
12 -4 -4 7.1 1.11
12 -4 -4 5.83 0.67
-12 -4 -5 4.77 0.78
-12 -4 -5 5.13 0.95
12 -4 -5 6.83 1.16
-12 -4 -6 71.07 2.56
-12 -4 -6 70.11 2.84
12 -4 -6 66.58 3.09
-12 -4 -7 1.98 0.87
-12 -4 -7 2.28 0.74
12 -4 -7 1.25 0.83
-12 -4 -8 26.21 2.31
12 -4 -8 22.56 2.35
-12 -4 -9 1.71 1.1
12 -4 -9 2.41 1.14
12 -4 -10 1.85 1.17
-13 4 -10 0.66 1
13 4 -10 0.83 1.1
13 4 -10 -0.07 0.94
-13 4 -9 13.93 1.85
13 4 -9 17.28 2.05
-13 4 -8 1.82 0.92
13 4 -8 0.06 0.87
-13 4 -7 2.56 0.9
13 4 -7 4.34 1.11
-13 4 -6 0.78 0.64
13 4 -6 0.73 0.65
-13 4 -5 22.88 1.65
13 4 -5 20.13 1.62
13 -4 5 20.5 1.4
-13 4 -4 0.19 0.48
13 -4 4 0.58 0.48
13 4 -4 0.44 0.47
-13 4 -3 85.64 2.72
13 -4 3 81.82 2.53
13 4 -3 77.13 2.74
-13 4 -2 7.38 0.88
13 4 -2 9.48 1.12
13 -4 2 7.85 0.86
-13 -4 1 25.15 1.35
-13 4 -1 26.64 1.29
13 -4 1 24.15 1.29
-13 -4 0 -0.32 0.26
-13 4 0 -0.02 0.28
13 -4 0 0.07 0.3
13 -4 0 0.59 0.36
-13 -4 -1 24.33 1.28
-13 4 1 22.12 1.06
-13 -4 -1 24.84 1.34
13 -4 -1 24.48 1.26
-13 -4 -2 7.33 0.92
-13 4 2 7.55 0.71
-13 -4 -2 8.59 0.93
13 -4 -2 7.06 0.92
-13 -4 -3 79.94 2.53
-13 -4 -3 83.66 2.75
13 -4 -3 84.88 2.25
13 -4 -3 84.69 2.9
-13 -4 -4 0.71 0.49
-13 -4 -4 0.66 0.43
13 -4 -4 0.52 0.54
-13 -4 -5 21.95 1.42
-13 -4 -5 21.61 1.56
13 -4 -5 19.15 1.92
-13 -4 -6 1.01 0.59
-13 -4 -6 -0.02 0.67
13 -4 -6 1.26 0.82
-13 -4 -7 5.81 1.01
-13 -4 -7 4.96 1.08
13 -4 -7 3.47 1.15
-13 -4 -8 1.26 0.74
13 -4 -8 1.12 0.99
13 -4 -9 15.72 2.17
13 -4 -10 1.51 1.13
-14 4 -10 -0.07 0.97
14 4 -10 1.98 1.19
14 4 -10 -0.3 0.94
-14 4 -9 3.18 1.16
14 4 -9 5.45 1.4
-14 4 -8 41.14 2.66
14 4 -8 38.4 2.61
-14 4 -7 -1.01 0.52
14 4 -7 -0.23 0.58
-14 4 -6 25.01 1.86
14 4 -6 28.73 1.99
-14 4 -5 11.08 1.36
14 4 -5 6.99 1.2
14 -4 5 6.35 0.95
-14 4 -4 19.73 1.45
14 -4 4 21.28 1.36
14 4 -4 22.98 1.64
-14 4 -3 2.15 0.62
14 -4 3 2.68 0.63
14 4 -3 1.43 0.57
-14 4 -2 68.29 2.29
14 -4 2 64.94 2.18
14 4 -2 63.95 2.44
-14 4 -1 9.28 0.95
-14 -4 1 11.57 1.12
14 4 -1 11.61 1.21
14 -4 1 7.79 0.86
-14 4 0 14.76 0.99
-14 -4 0 14.66 1.06
14 -4 0 15.66 1.04
14 -4 0 14.39 0.92
-14 -4 -1 9.3 1.01
-14 4 1 10.13 0.8
-14 -4 -1 10.1 1.05
14 -4 -1 10.03 0.98
-14 -4 -2 66.84 2.26
-14 -4 -2 68.19 2.4
-14 4 2 68.83 2
14 -4 -2 67.55 2.41
-14 -4 -3 2.05 0.62
-14 -4 -3 1.22 0.5
14 -4 -3 1.22 0.61
14 -4 -3 1.76 0.49
-14 -4 -4 19.41 1.44
-14 -4 -4 22.51 1.38
14 -4 -4 21.47 1.65
-14 -4 -5 7.63 1.13
-14 -4 -5 7.84 1.03
14 -4 -5 7.69 1.31
-14 -4 -6 25.59 1.8
-14 -4 -6 22.6 1.55
14 -4 -6 28.69 2.12
-14 -4 -7 -0.58 0.64
-14 -4 -7 -0.27 0.51
14 -4 -7 0.07 0.78
-14 -4 -8 38.56 2.44
14 -4 -8 41.54 2.85
14 -4 -9 3.91 1.36
14 -4 -10 2.7 1.25
-15 4 -10 5.85 1.61
15 4 -10 9.06 1.75
15 4 -10 6.14 1.56
-15 4 -9 5.91 1.29
15 4 -9 3.46 1.15
-15 4 -8 7.5 1.45
15 4 -8 7.75 1.51
-15 4 -7 5.36 1.12
15 4 -7 6.53 1.27
-15 4 -6 -0.09 0.57
15 4 -6 0.23 0.65
-15 4 -5 -0.19 0.43
15 -4 5 0.8 0.51
15 4 -5 1.05 0.71
-15 4 -4 19.45 1.46
15 -4 4 16.92 1.25
15 4 -4 18.42 1.8
-15 4 -3 31.35 1.68
15 4 -3 25.49 1.68
15 -4 3 32.61 1.57
-15 4 -2 6.62 0.89
15 4 -2 8.25 1.13
15 -4 2 6.96 0.85
-15 -4 1 18.92 1.21
-15 4 -1 16.58 1.13
15 -4 1 18.89 1.18
15 4 -1 17.32 1.3
-15 4 0 -0.17 0.32
-15 -4 0 0.21 0.38
15 -4 0 0.41 0.34
15 -4 0 -0.3 0.31
-15 4 1 18.45 1.06
-15 -4 -1 16.95 1.19
-15 -4 -1 16.54 1.17
15 -4 -1 18.89 1.22
-15 -4 -2 6.78 0.92
-15 4 2 7.44 0.8
-15 -4 -2 6.79 0.91
15 -4 -2 6.04 0.93
-15 -4 -3 32.34 1.62
-15 -4 -3 32.28 1.73
15 -4 -3 34.51 1.88
15 -4 -3 33.39 1.46
-15 -4 -4 13.69 1.3
-15 -4 -4 19.95 1.47
15 -4 -4 16.3 1.7
-15 -4 -5 1.41 0.68
-15 -4 -5 0.71 0.53
15 -4 -5 -0.7 0.54
-15 -4 -6 1.19 0.68
-15 -4 -6 0.03 0.53
15 -4 -6 0.48 0.75
-15 -4 -7 5.44 1.06
-15 -4 -7 6.14 1.23
15 -4 -7 6.03 1.38
-15 -4 -8 6.38 1.18
-15 -4 -8 5.95 1.21
15 -4 -8 11.98 1.99
15 -4 -9 3.58 1.25
16 4 -10 1.45 1.09
16 4 -10 1.13 1.16
-16 4 -9 4.89 1.43
16 4 -9 4.8 1.44
-16 4 -8 12.88 1.81
16 4 -8 16.29 2.04
-16 4 -7 46.06 2.66
16 4 -7 43.13 2.65
-16 4 -6 2.74 0.91
16 4 -6 4.12 1.11
-16 4 -5 5.61 1.04
16 4 -5 7.56 1.24
16 -4 5 5.58 0.95
-16 4 -4 18.58 1.47
16 -4 4 14 1.31
16 4 -4 17.67 1.78
-16 4 -3 0.27 0.47
16 4 -3 0.3 0.42
16 -4 3 0.34 0.41
-16 4 -2 44.27 1.92
16 -4 2 41.71 1.78
16 4 -2 43.19 2.09
-16 4 -1 7.72 0.93
-16 -4 1 9.51 1.08
16 4 -1 9.06 1.2
16 -4 1 8.04 0.89
-16 -4 0 0.3 0.36
-16 4 0 0.7 0.41
-16 -4 0 0.71 0.43
16 -4 0 0.44 0.36
16 -4 0 0.15 0.4
-16 4 1 10.46 0.96
-16 -4 -1 8.44 1.06
-16 -4 -1 9.87 1.04
16 -4 -1 9.5 1.03
-16 4 2 39.98 1.6
-16 -4 -2 44.2 1.91
-16 -4 -2 41.4 1.89
16 -4 -2 41.06 1.95
-16 -4 -3 -0.01 0.48
-16 -4 -3 0.19 0.39
16 -4 -3 1.13 0.64
16 -4 -3 0.98 0.52
-16 -4 -4 16.22 1.51
-16 -4 -4 16.25 1.53
16 -4 -4 16.27 1.68
-16 -4 -5 6.74 1.12
-16 -4 -5 6.92 1.02
16 -4 -5 6.86 1.29
-16 -4 -6 4.47 1.03
-16 -4 -6 3.41 0.84
16 -4 -6 2.96 0.96
-16 -4 -7 42.26 2.27
-16 -4 -7 40.05 2.35
16 -4 -7 40.86 2.76
-16 -4 -8 11.59 1.5
16 -4 -8 8.68 1.6
16 -4 -9 2.75 1.27
-17 4 -9 0.65 0.95
17 4 -9 0.29 1.02
-17 4 -8 20.73 2.23
17 4 -8 26.67 2.57
-17 4 -7 -0.33 0.59
17 4 -7 -0.45 0.73
-17 4 -6 0.25 0.66
17 4 -6 0.51 0.7
-17 4 -5 8.08 1.22
17 -4 5 9.42 1.15
17 4 -5 11.5 1.58
-17 4 -4 69.78 2.77
17 4 -4 71.09 2.95
17 -4 4 69.43 2.57
-17 4 -3 8.5 1.16
17 4 -3 7.66 1.12
17 -4 3 6.47 0.89
-17 4 -2 91.22 2.9
17 -4 2 84.43 2.69
17 4 -2 92.85 3.18
-17 4 -1 1.21 0.5
-17 -4 1 1.39 0.49
17 -4 1 0.42 0.44
17 4 -1 0.87 0.62
-17 -4 0 -0.27 0.33
-17 -4 0 -0.19 0.3
-17 4 0 0.17 0.41
17 -4 0 -0.39 0.34
-17 4 1 0.88 0.45
-17 -4 -1 1.95 0.57
-17 -4 -1 2.07 0.58
17 -4 -1 0.77 0.48
-17 -4 -2 90.23 2.91
-17 -4 -2 87.66 2.88
-17 4 2 88.75 2.54
17 -4 -2 85.67 2.97
-17 -4 -3 7.44 1
-17 -4 -3 5.96 0.92
17 -4 -3 6.87 0.93
17 -4 -3 4.69 0.97
-17 -4 -4 66.97 2.66
-17 -4 -4 70 2.62
17 -4 -4 67.61 2.93
-17 -4 -5 8.71 1.18
-17 -4 -5 9.08 1.23
17 -4 -5 8.99 1.46
-17 -4 -6 0.96 0.65
-17 -4 -6 1.27 0.76
17 -4 -6 0.41 0.82
-17 -4 -7 0.58 0.63
-17 -4 -7 -0.53 0.62
17 -4 -7 -1 0.69
-17 -4 -8 21.36 1.95
17 -4 -8 23.94 2.76
17 -4 -9 -0.82 0.93
-18 4 -9 0.92 1.12
18 4 -9 0.61 1.07
-18 4 -8 3.08 1.14
18 4 -8 1.97 1.04
-18 4 -7 29.76 2.28
18 4 -7 27.15 2.56
-18 4 -6 9.65 1.49
18 4 -6 9.2 1.54
-18 4 -5 1.46 0.73
18 -4 5 0.15 0.53
18 4 -5 1.24 0.81
-18 4 -4 14.84 1.57
18 4 -4 15.78 1.71
18 -4 4 16.36 1.29
-18 4 -3 -0.11 0.46
18 4 -3 -0.33 0.48
18 -4 3 0.66 0.51
-18 4 -2 24.04 1.51
18 4 -2 23.98 1.67
18 -4 2 23.04 1.39
-18 -4 1 45.56 2.02
-18 4 -1 43.96 1.94
18 4 -1 46.89 2.26
18 -4 1 44.97 1.87
-18 4 0 47.32 1.95
-18 -4 0 47.84 2.07
-18 -4 0 48.25 2.05
18 -4 0 52.12 1.98
-18 4 1 44.48 1.79
-18 -4 -1 48.61 2.04
-18 -4 -1 43.84 2
18 -4 -1 49.93 2.04
18 -4 -1 44.09 1.9
-18 4 2 21.34 1.25
-18 -4 -2 22.39 1.48
-18 -4 -2 23.7 1.51
18 -4 -2 21.84 1.52
-18 -4 -3 -0.02 0.4
-18 -4 -3 -0.32 0.47
18 -4 -3 0.63 0.51
18 -4 -3 1.64 0.78
-18 -4 -4 15.54 1.51
-18 -4 -4 16.83 1.56
18 -4 -4 16.97 1.86
-18 -4 -5 2.45 0.76
-18 -4 -5 0.45 0.6
18 -4 -5 2.42 1.03
-18 -4 -6 7.59 1.24
-18 -4 -6 10.36 1.39
18 -4 -6 11.41 1.78
-18 -4 -7 30.15 2.05
-18 -4 -7 27.62 2.05
18 -4 -7 33.81 3.12
-18 -4 -8 1.52 0.91
18 -4 -8 1.18 1.17
18 -4 -9 0.05 1.05
-19 4 -9 0.51 1.09
19 4 -9 -1.48 0.95
-19 4 -8 7.7 1.53
19 4 -8 4.55 1.32
-19 4 -7 0.01 0.74
19 4 -7 0.1 0.7
-19 4 -6 -0.25 0.54
19 4 -6 0.6 0.71
-19 4 -5 0.39 0.6
19 -4 5 0.78 0.58
19 4 -5 -0.69 0.63
-19 4 -4 29.7 1.92
19 4 -4 31.51 2.08
19 -4 4 29.73 1.67
-19 4 -3 0.96 0.59
19 4 -3 1.1 0.68
19 -4 3 0.32 0.51
-19 4 -2 38.45 1.96
19 -4 2 41.15 1.84
19 4 -2 36.5 2.1
-19 4 -1 0.37 0.48
19 -4 1 0.46 0.48
19 4 -1 0.62 0.55
-19 4 0 -0.15 0.35
-19 -4 0 0.07 0.39
-19 -4 0 0.56 0.42
19 -4 0 0.48 0.47
-19 -4 -1 0.76 0.51
-19 -4 -1 -0.18 0.4
-19 4 1 0.03 0.39
19 -4 -1 0.24 0.49
-19 4 2 36.57 1.67
-19 -4 -2 38.97 1.96
-19 -4 -2 39.24 1.91
19 -4 -2 40.3 2.04
-19 -4 -3 1.1 0.63
-19 -4 -3 0.93 0.58
19 -4 -3 1.31 0.74
19 -4 -3 0.24 0.52
-19 -4 -4 27.57 1.75
-19 -4 -4 31.03 1.87
19 -4 -4 27.35 1.97
-19 -4 -5 -0.49 0.49
-19 -4 -5 0.48 0.67
19 -4 -5 0.59 0.77
-19 -4 -6 0.12 0.65
-19 -4 -6 0.17 0.63
19 -4 -6 -1.24 0.67
-19 -4 -7 0.35 0.69
19 -4 -7 0.18 0.95
-19 -4 -8 6.07 1.25
19 -4 -8 5.33 1.51
19 -4 -9 0.94 1.28
20 4 -9 3.37 1.35
-20 4 -8 5.49 1.31
20 4 -8 2.4 1.11
-20 4 -7 14.16 1.89
20 4 -7 13.62 1.89
-20 4 -6 5.39 1.14
20 4 -6 4.57 1.16
-20 4 -5 12.37 1.61
20 4 -5 10.87 1.65
20 -4 5 11.53 1.28
-20 4 -4 3.33 0.87
20 4 -4 2.69 0.89
20 -4 4 2.64 0.74
-20 4 -3 2.44 0.76
20 4 -3 0.52 0.6
20 -4 3 0.35 0.57
-20 4 -2 0.12 0.51
20 4 -2 0.96 0.65
20 -4 2 0 0.58
-20 4 -1 16.42 1.47
20 4 -1 11.75 1.43
20 -4 1 15.1 1.18
-20 -4 0 0.56 0.5
-20 4 0 0.51 0.42
-20 -4 0 -0.22 0.37
20 -4 0 -0.51 0.41
-20 -4 -1 16.42 1.47
-20 4 1 13.95 1.13
-20 -4 -1 17.33 1.66
20 -4 -1 15.46 1.35
-20 -4 -2 0.64 0.53
-20 -4 -2 0.46 0.48
-20 4 2 -0.21 0.41
20 -4 -2 0.54 0.59
-20 -4 -3 0.56 0.53
-20 -4 -3 1.12 0.58
20 -4 -3 0.64 0.54
20 -4 -3 0.26 0.63
-20 -4 -4 3.1 0.84
-20 -4 -4 1.82 0.67
20 -4 -4 2.76 0.94
-20 -4 -5 12.67 1.53
-20 -4 -5 10.5 1.41
20 -4 -5 11.49 1.7
-20 -4 -6 5.21 1.12
-20 -4 -6 4.62 1.03
20 -4 -6 4.41 1.28
-20 -4 -7 14.32 1.67
20 -4 -7 13.08 2.11
-20 -4 -8 4.84 1.16
20 -4 -8 2.83 1.33
21 4 -9 7.71 1.69
-21 4 -8 8.32 1.58
21 4 -8 7.27 1.67
-21 4 -7 3.37 1.03
21 4 -7 1.12 1.05
-21 4 -6 5.29 1.25
21 4 -6 6.34 1.33
-21 4 -5 2.05 0.83
21 4 -5 3 0.98
21 -4 5 1.18 0.67
-21 4 -4 31.76 2.03
21 -4 4 28.82 1.7
21 4 -4 26.64 2.07
-21 4 -3 9.76 1.33
21 -4 3 8.29 1.08
21 4 -3 11.78 1.57
-21 4 -2 37.08 1.99
21 -4 2 34.97 1.76
21 4 -2 34 2.16
-21 4 -1 1.65 0.68
21 4 -1 1.23 0.7
21 -4 1 2.45 0.65
-21 -4 0 0.01 0.43
-21 -4 0 -0.16 0.44
-21 4 0 0.04 0.43
21 -4 0 -0.7 0.41
-21 -4 -1 2.73 0.77
-21 -4 -1 3.18 0.75
-21 4 1 3.69 0.78
21 -4 -1 2.85 0.75
-21 -4 -2 39.04 1.99
-21 4 2 37 1.8
-21 -4 -2 35.2 2.01
21 -4 -2 37.96 2.08
-21 -4 -3 10.6 1.28
-21 -4 -3 11.22 1.35
21 -4 -3 7.98 1.12
21 -4 -3 12.82 1.63
-21 -4 -4 29.23 1.91
-21 -4 -4 30.82 1.88
21 -4 -4 30.43 2.18
-21 -4 -5 2.85 0.86
-21 -4 -5 1.44 0.7
21 -4 -5 4.28 1.21
-21 -4 -6 6.8 1.24
-21 -4 -6 6.85 1.24
21 -4 -6 4.77 1.31
-21 -4 -7 4.23 1.11
21 -4 -7 1.21 1.08
-21 -4 -8 10.86 1.61
21 -4 -8 9.9 1.93
-22 4 -8 0.01 0.84
22 4 -8 -0.97 0.94
-22 4 -7 5.06 1.23
22 4 -7 4.9 1.39
-22 4 -6 16.72 1.92
22 4 -6 13.39 1.93
-22 4 -5 18.15 1.93
22 4 -5 20.19 2.17
-22 4 -4 -0.6 0.59
22 4 -4 0.53 0.74
22 -4 4 0.19 0.55
-22 4 -3 3.97 0.98
22 -4 3 3.78 0.81
22 4 -3 2.78 0.97
-22 4 -2 -0.14 0.45
22 -4 2 -0.17 0.49
22 4 -2 0.4 0.63
-22 4 -1 24.16 1.62
22 -4 1 21.31 1.41
22 4 -1 25.16 1.89
-22 4 0 23.64 1.56
-22 -4 0 21.7 1.59
-22 -4 0 23.93 1.6
22 -4 0 22.8 1.45
-22 4 1 22.57 1.5
-22 -4 -1 24.2 1.62
-22 -4 -1 21.52 1.62
22 -4 -1 22.78 1.47
-22 -4 -2 0.65 0.54
-22 -4 -2 -0.06 0.52
-22 4 2 -0.08 0.48
22 -4 -2 0.61 0.63
-22 -4 -3 3.39 0.93
-22 -4 -3 2.52 0.79
22 -4 -3 3.37 0.96
-22 -4 -4 -0.45 0.51
-22 -4 -4 0.41 0.57
22 -4 -4 -0.51 0.7
-22 -4 -5 20.95 1.9
-22 -4 -5 21.06 1.94
22 -4 -5 16.66 2.08
-22 -4 -6 14.42 1.68
22 -4 -6 13.79 1.99
-22 -4 -7 4.31 1.13
22 -4 -7 4.34 1.49
-22 -4 -8 1.96 1.03
22 -4 -8 2.09 1.33
-23 4 -8 8.88 1.64
23 4 -8 6.49 1.62
-23 4 -7 -0.24 0.85
23 4 -7 0.42 1.02
-23 4 -6 6.13 1.29
23 4 -6 6.81 1.54
-23 4 -5 1.79 0.94
23 4 -5 2.5 1.02
-23 4 -4 11.57 1.55
23 4 -4 8.14 1.48
-23 4 -3 11.98 1.49
23 4 -3 12.36 1.66
-23 4 -2 18.06 1.72
23 -4 2 20.66 1.44
23 4 -2 18.71 2
-23 4 -1 3.38 0.86
23 -4 1 3.36 0.76
23 4 -1 3.9 1.07
-23 -4 0 0.11 0.49
-23 4 0 -0.8 0.42
-23 -4 0 -0.38 0.42
23 -4 0 -0.04 0.51
-23 4 1 3.89 0.83
-23 -4 -1 4.03 1
-23 -4 -1 2.73 0.82
23 -4 -1 2.7 0.71
-23 -4 -2 20.24 1.97
-23 4 2 20.3 1.48
-23 -4 -2 19.52 1.51
23 -4 -2 17.99 1.81
-23 -4 -3 13.94 1.61
-23 -4 -3 11.86 1.44
23 -4 -3 12.68 1.63
-23 -4 -4 10.22 1.41
-23 -4 -4 8.57 1.25
23 -4 -4 7.52 1.41
-23 -4 -5 0.81 0.67
-23 -4 -5 0.98 0.74
23 -4 -5 2.64 1.06
-23 -4 -6 5.76 1.19
23 -4 -6 4.2 1.25
-23 -4 -7 -0.11 0.81
23 -4 -7 -0.38 1.03
-23 -4 -8 9.28 1.61
23 -4 -8 9.53 2
24 4 -8 3.09 1.49
-24 4 -7 0.29 0.86
24 4 -7 0.86 0.99
-24 4 -6 17.43 2
24 4 -6 20.11 2.39
-24 4 -5 8.09 1.4
24 4 -5 7.05 1.54
-24 4 -4 8.12 1.31
24 4 -4 6.31 1.45
-24 4 -3 0.05 0.61
24 4 -3 0.31 0.71
-24 4 -2 6.41 1.11
24 4 -2 4.66 1.21
-24 4 -1 5.55 1.05
24 -4 1 4.58 0.85
24 4 -1 5.82 1.23
-24 4 0 63.15 2.59
24 -4 0 62.12 2.44
-24 -4 -1 6.47 1.06
-24 4 1 5.03 0.89
-24 -4 -1 6.95 1.14
24 -4 -1 5.77 0.97
-24 -4 -2 5.57 1.16
-24 4 2 7.79 1.07
-24 -4 -2 5.23 0.98
-24 -4 -3 0.66 0.54
-24 -4 -3 0.59 0.65
24 -4 -3 1.29 0.81
-24 -4 -4 7.33 1.24
-24 -4 -4 8.44 1.25
24 -4 -4 7.04 1.42
-24 -4 -5 6.11 1.21
24 -4 -5 9.07 1.7
-24 -4 -6 21.01 2.1
24 -4 -6 24.34 2.69
-24 -4 -7 0.05 0.77
24 -4 -7 -1.16 1
-24 -4 -8 1.65 0.97
-25 4 -7 -0.69 0.81
25 4 -7 -0.84 1
-25 4 -6 1.5 0.92
25 4 -6 -0.94 0.86
-25 4 -5 3.27 1.06
25 4 -5 5.23 1.38
-25 4 -4 -1.17 0.58
25 4 -4 -0.08 0.78
-25 4 -3 8.55 1.35
25 4 -3 7.43 1.45
-25 4 -2 3.57 0.94
25 4 -2 2.72 1
-25 4 -1 0.45 0.59
25 4 -1 0.93 0.8
-25 4 0 0.39 0.52
25 -4 0 0.01 0.54
-25 4 1 0.48 0.59
-25 -4 -1 1.66 0.74
-25 -4 -1 1.27 0.74
25 -4 -1 1.95 0.65
-25 -4 -2 4.61 1.04
-25 -4 -2 4.91 0.99
-25 4 2 5.39 1.04
-25 -4 -3 8.79 1.26
-25 -4 -3 12.32 1.55
25 -4 -3 10.88 1.61
-25 -4 -4 -1.01 0.49
-25 -4 -4 -0.52 0.62
25 -4 -4 0.07 0.81
-25 -4 -5 4.88 1.12
25 -4 -5 4.84 1.39
-25 -4 -6 1.67 0.95
25 -4 -6 1.08 1.11
-25 -4 -7 0.39 0.86
25 -4 -7 -1.16 1.1
-26 4 -7 0.27 1.03
26 4 -7 1.48 1.15
-26 4 -6 26.62 2.59
26 4 -6 33.06 3.14
-26 4 -5 0.63 0.79
26 4 -5 -0.87 0.83
-26 4 -4 16.27 1.88
26 4 -4 12.61 1.9
-26 4 -3 0.7 0.77
26 4 -3 0.33 0.79
-26 4 -2 17.38 1.8
26 4 -2 14.04 1.82
-26 4 -1 0.64 0.61
26 4 -1 0.61 0.75
-26 4 0 44.06 2.25
-26 -4 -1 1.01 0.68
-26 -4 -1 0.32 0.67
-26 4 1 0.32 0.57
26 -4 -1 0.71 0.62
-26 -4 -2 15.78 1.78
-26 -4 -2 17.55 1.78
26 -4 -2 19.15 1.69
-26 -4 -3 0.88 0.74
-26 -4 -3 -0.13 0.57
26 -4 -3 0.09 0.69
-26 -4 -4 12 1.66
-26 -4 -4 14.23 1.55
26 -4 -4 12.75 1.95
-26 -4 -5 -0.42 0.69
26 -4 -5 0.07 0.92
-26 -4 -6 35.39 2.5
26 -4 -6 31.49 3.09
-26 -4 -7 0.35 0.96
26 -4 -7 -0.39 1.06
27 4 -7 0.23 1.1
-27 4 -6 0.39 0.86
27 4 -6 -0.88 0.93
-27 4 -5 3.27 1.16
27 4 -5 4.31 1.38
-27 4 -4 1.06 0.79
27 4 -4 1.04 0.91
-27 4 -3 8.82 1.43
27 4 -3 9.31 1.68
-27 4 -2 1.37 0.72
27 4 -2 2.99 1.19
-27 4 -1 2.35 0.83
27 4 -1 1.62 0.98
-27 4 0 -0.05 0.61
-27 -4 -1 1.21 0.71
-27 4 1 1.57 0.79
-27 -4 -2 0.57 0.63
-27 -4 -2 0.3 0.7
27 -4 -2 1.48 0.75
-27 -4 -3 8.93 1.31
-27 -4 -3 11.92 1.63
27 -4 -3 11.61 1.72
-27 -4 -4 0.37 0.81
27 -4 -4 1.09 1.05
-27 -4 -5 7.32 1.34
27 -4 -5 2.78 1.24
-27 -4 -6 0.74 0.89
27 -4 -6 0.65 1.08
-27 -4 -7 2.03 1.01
27 -4 -7 1.69 1.42
-28 4 -6 24.98 2.55
28 4 -6 26.04 2.81
-28 4 -5 7.58 1.52
28 4 -5 9.26 1.81
-28 4 -4 4.63 1.25
28 4 -4 5.03 1.53
-28 4 -3 1.91 0.9
28 4 -3 -0.04 0.85
-28 4 -2 13.4 1.63
28 4 -2 10.69 1.73
-28 4 -1 0.97 0.74
28 4 -1 1.22 0.95
-28 4 0 29.42 2
-28 -4 -1 0.04 0.62
-28 4 1 -0.27 0.62
-28 -4 -2 10.09 1.54
-28 -4 -2 11.77 1.52
-28 -4 -3 1.48 0.85
-28 -4 -3 1.67 0.93
-28 -4 -4 1.75 0.94
28 -4 -4 2.86 1.34
-28 -4 -5 9.41 1.54
28 -4 -5 8.87 1.74
-28 -4 -6 27.58 2.57
28 -4 -6 26.32 2.91
-29 4 -5 2.29 1.18
29 4 -5 1.93 1.24
-29 4 -4 5.54 1.29
29 4 -4 5.89 1.44
-29 4 -3 1.98 0.93
29 4 -3 2.98 1.24
-29 4 -2 9.55 1.46
29 4 -2 10.37 1.8
-29 4 -1 3.93 1.02
29 4 -1 4.88 1.42
-29 4 0 1.13 0.69
-29 4 1 2.68 0.91
-29 -4 -1 3 0.97
-29 -4 -2 10.24 1.46
-29 -4 -2 9.67 1.52
-29 -4 -3 4.78 1.2
-29 -4 -4 5.22 1.29
29 -4 -4 2.93 1.35
-29 -4 -5 3.09 1.16
29 -4 -5 1.28 1.22
-29 -4 -6 0.3 0.87
29 -4 -6 2.19 1.27
-30 4 -5 3.95 1.25
30 4 -5 6.06 1.62
-30 4 -4 1.17 0.94
30 4 -4 2.02 1.17
-30 4 -3 1.08 0.87
30 4 -3 1.83 1.16
-30 4 -2 1.95 0.97
30 4 -2 0.53 1.01
-30 4 -1 3.17 1
30 4 -1 0.99 1.1
-30 4 0 3.72 1.01
30 4 0 6.32 1.52
-30 4 1 1.87 0.85
-30 -4 -1 3.4 1.01
-30 -4 -2 2.13 1
-30 -4 -3 -0.06 0.79
-30 -4 -4 2.15 1.01
-30 -4 -5 6.59 1.51
30 -4 -5 9.01 1.83
-31 4 -4 29.63 2.7
31 4 -4 24.39 2.76
-31 4 -3 0.53 0.84
31 4 -3 -1.04 0.94
-31 4 -2 17.58 2.04
31 4 -2 17.71 2.34
-31 4 -1 -0.12 0.72
31 4 -1 -0.24 0.88
-31 4 0 1.31 0.8
31 4 0 -1.64 0.85
-31 -4 -1 0.49 0.74
-31 -4 -2 13 1.79
-31 -4 -3 -0.21 0.89
-31 -4 -4 32.32 2.89
-32 4 -3 0.77 0.9
32 4 -3 1.31 1.14
-32 4 -2 1.26 0.95
32 4 -2 1.08 0.96
-32 4 -1 4.36 1.15
32 4 -1 2.98 1.21
-32 4 0 -0.05 0.74
32 4 0 -1.12 0.94
-32 -4 -1 4.58 1.33
-32 -4 -2 0.15 0.81
-32 -4 -3 1.2 0.99
-33 4 -3 0.41 0.99
-33 4 -2 8.45 1.48
-33 4 -1 0.31 0.87
33 4 -1 -1.17 0.91
-33 4 0 0.3 0.83
33 4 0 -0.21 1.05
-34 4 -1 2.47 1.11
-34 4 0 10.63 1.7
0 5 -11 0.43 0.97
0 5 -10 32.71 2.53
0 5 -9 -0.31 0.72
0 5 -8 31.23 2.21
0 5 -7 0.32 0.62
0 5 -6 20.11 1.82
0 5 -5 0.52 0.48
0 5 -4 73.45 2.53
0 -5 4 79.07 2.45
0 5 -3 0.12 0.35
0 -5 3 0 0.31
0 -5 2 55.74 1.77
0 5 -2 57.48 1.87
0 -5 2 54.24 1.51
0 5 -1 0.32 0.29
0 -5 1 0.43 0.29
0 -5 1 0.03 0.25
0 5 0 0.16 0.24
0 -5 0 0.16 0.25
0 -5 0 -0.13 0.27
0 -5 -1 0.03 0.27
0 -5 -1 -0.07 0.34
0 -5 -2 56.12 1.96
0 -5 -3 -0.46 0.36
0 -5 -4 79.97 2.75
0 -5 -5 0.12 0.5
0 -5 -6 18.65 1.82
0 -5 -7 -0.27 0.64
0 -5 -8 35.72 2.42
0 -5 -9 -0.68 0.79
0 -5 -10 27.67 2.67
0 -5 -11 -0.79 1.07
-1 5 -11 10.37 1.82
1 5 -11 8.77 1.72
-1 5 -10 1.44 0.91
1 5 -10 0.29 0.87
-1 5 -9 2.3 1.02
1 5 -9 1.16 0.99
-1 5 -8 -0.55 0.7
1 5 -8 0.09 0.67
-1 5 -7 49.9 2.55
1 5 -7 50.24 2.52
-1 5 -6 6.76 1.13
1 5 -6 8.78 1.22
-1 5 -5 46.55 2.11
1 5 -5 46.23 2.12
-1 5 -4 10.88 1.16
1 5 -4 12.71 1.28
1 -5 4 11.05 1.04
-1 -5 3 21.6 1.16
-1 5 -3 19.94 1.22
1 5 -3 19.92 1.22
1 -5 3 20.76 1.16
-1 5 -2 0.78 0.39
-1 -5 2 1.65 0.36
-1 -5 2 2.13 0.45
1 -5 2 1.25 0.3
1 5 -2 1.26 0.45
1 -5 2 1.74 0.44
-1 -5 1 141.65 3.02
-1 -5 1 139.63 3.01
-1 5 -1 136.11 3.04
1 -5 1 139.62 2.89
1 -5 1 140.44 3.09
1 5 -1 139.7 3.1
-1 -5 0 117.68 2.75
-1 5 0 119.85 2.49
-1 -5 0 113.27 2.58
1 -5 0 118.62 2.7
1 5 0 118.8 2.55
1 -5 0 117.13 2.68
-1 -5 -1 135.57 2.91
-1 -5 -1 139.5 3.25
1 -5 -1 137.22 3.02
1 -5 -1 138.96 3.18
-1 -5 -2 1.27 0.48
1 -5 -2 1.66 0.52
-1 -5 -3 19.51 1.31
1 -5 -3 20.06 1.29
-1 -5 -4 13.34 1.32
1 -5 -4 11.6 1.25
-1 -5 -5 42 2.09
1 -5 -5 45.7 2.16
-1 -5 -6 6.3 1.11
1 -5 -6 6.13 1.11
-1 -5 -7 55.84 2.73
1 -5 -7 47.06 2.56
-1 -5 -8 0.96 0.84
1 -5 -8 0.1 0.74
-1 -5 -9 2.31 1.1
1 -5 -9 1.5 1.02
-1 -5 -10 1.07 0.97
1 -5 -10 -0.38 0.96
-1 -5 -11 9.93 1.94
1 -5 -11 9.73 1.89
-2 5 -11 3 1.32
2 5 -11 2.29 1.18
-2 5 -10 11.83 1.77
2 5 -10 9.9 1.73
-2 5 -9 7.49 1.39
2 5 -9 6.99 1.5
-2 5 -8 13.12 1.66
2 5 -8 11.32 1.61
-2 5 -7 1.56 0.79
2 5 -7 1.35 0.72
-2 5 -6 1.79 0.78
2 5 -6 2.22 0.74
-2 5 -5 8.99 1.14
2 5 -5 9.68 1.21
-2 5 -4 48.04 2.01
2 -5 4 49.91 1.92
2 5 -4 51.99 2.08
-2 5 -3 9.67 0.98
-2 -5 3 10.1 0.91
2 -5 3 10.9 0.87
2 5 -3 11.03 1.09
-2 -5 2 71.95 1.9
-2 5 -2 70.11 2.12
-2 -5 2 72.8 2.04
2 -5 2 70.6 1.67
2 -5 2 71.33 2.08
2 5 -2 70.98 2.17
-2 -5 1 0.12 0.27
-2 5 -1 -0.2 0.26
-2 -5 1 -0.14 0.24
2 -5 1 0.22 0.28
2 -5 1 0.15 0.22
2 5 -1 0.59 0.38
-2 -5 0 0.2 0.23
-2 -5 0 -0.43 0.26
-2 5 0 -0.19 0.24
2 5 0 -0.11 0.27
2 -5 0 0.39 0.3
2 -5 0 -0.33 0.28
-2 -5 -1 -0.05 0.24
-2 -5 -1 0.16 0.36
2 5 1 -0.03 0.24
2 -5 -1 0.26 0.35
2 -5 -1 0.16 0.34
-2 -5 -2 72.83 2.27
2 -5 -2 65.41 2.13
-2 -5 -3 12.85 1.18
2 -5 -3 11.28 1.12
-2 -5 -4 51.01 2.17
2 -5 -4 53.51 2.19
-2 -5 -5 8.97 1.2
2 -5 -5 9.12 1.24
-2 -5 -6 2.45 0.79
2 -5 -6 2.04 0.76
-2 -5 -7 2.21 0.89
2 -5 -7 2.12 0.86
-2 -5 -8 10.78 1.56
2 -5 -8 12.83 1.75
-2 -5 -9 10.99 1.72
2 -5 -9 7.03 1.53
-2 -5 -10 17.33 2.16
2 -5 -10 13.42 2.03
-2 -5 -11 2.54 1.4
2 -5 -11 1.52 1.39
-3 5 -11 0.15 0.91
3 5 -11 0.09 1.01
-3 5 -10 4.46 1.28
3 5 -10 4.48 1.29
-3 5 -9 0.67 0.78
3 5 -9 0.34 0.78
-3 5 -8 3.35 1.08
3 5 -8 1.64 0.85
-3 5 -7 35.02 2.18
3 5 -7 33.41 2.06
-3 5 -6 57.27 2.58
3 5 -6 58.7 2.56
-3 5 -5 2.82 0.71
3 5 -5 3.43 0.74
-3 5 -4 16.85 1.25
3 -5 4 16.99 1.15
3 5 -4 18.14 1.26
-3 5 -3 3.05 0.61
-3 -5 3 2.49 0.52
3 5 -3 1.88 0.6
3 -5 3 2.35 0.51
-3 5 -2 25.56 1.24
-3 -5 2 26.35 1.16
-3 -5 2 25.82 1.09
3 -5 2 25.84 0.86
3 -5 2 25.11 1.2
3 5 -2 27.49 1.31
-3 5 -1 154.46 3.26
-3 -5 1 145.61 3.12
-3 -5 1 149.32 3.28
3 -5 1 153.25 2.99
3 -5 1 148.62 3.33
3 5 -1 153.75 3.36
-3 5 0 278.42 4.88
-3 -5 0 280.84 5.36
-3 -5 0 271.44 4.95
3 -5 0 275.06 5.1
3 5 0 283.19 5.12
3 -5 0 275.95 5.23
-3 -5 -1 149.99 3.03
-3 -5 -1 146.5 3.49
3 5 1 152.5 3.01
3 -5 -1 154.41 3.35
3 -5 -1 154.39 3.42
-3 -5 -2 24.4 1.34
3 -5 -2 25.31 1.32
-3 -5 -3 2.57 0.64
3 -5 -3 2.13 0.59
-3 -5 -4 15.62 1.4
3 -5 -4 15.37 1.25
-3 -5 -5 2.76 0.78
3 -5 -5 2.14 0.7
-3 -5 -6 56.96 2.63
3 -5 -6 57.01 2.66
-3 -5 -7 31.7 2.14
3 -5 -7 31.45 2.16
-3 -5 -8 0.73 0.83
3 -5 -8 1.95 0.9
-3 -5 -9 -0.93 0.73
3 -5 -9 0.73 0.95
-3 -5 -10 4.16 1.41
3 -5 -10 5.17 1.37
-3 -5 -11 -0.37 1.14
3 -5 -11 -0.47 1.08
-4 5 -11 2.63 1.3
4 5 -11 2.82 1.32
-4 5 -10 3.36 1.12
4 5 -10 0.53 1.04
-4 5 -9 15.96 1.9
4 5 -9 16.17 1.92
-4 5 -8 1.83 0.81
4 5 -8 1.39 0.83
-4 5 -7 1.14 0.71
4 5 -7 0.94 0.64
-4 5 -6 6.5 1.05
4 5 -6 6.27 1.08
-4 5 -5 27.03 1.67
4 5 -5 25.7 1.61
4 -5 5 27.5 1.55
-4 5 -4 7.39 1.02
4 -5 4 6.98 0.92
4 5 -4 5.25 0.88
-4 5 -3 89.13 2.69
4 -5 3 93.28 2.63
4 5 -3 93.79 2.77
-4 5 -2 25.39 1.25
-4 -5 2 25.5 1.13
-4 -5 2 26.14 1.14
4 -5 2 26.32 1.25
4 5 -2 23.29 1.26
-4 -5 1 1.42 0.39
-4 5 -1 1.31 0.4
-4 -5 1 1.17 0.32
4 5 -1 0.64 0.37
4 -5 1 1.05 0.39
4 -5 1 0.83 0.28
-4 5 0 -0.14 0.2
-4 -5 0 0.04 0.21
-4 -5 0 0.23 0.32
4 -5 0 0.29 0.33
4 -5 0 -0.09 0.27
4 5 0 0.05 0.28
-4 -5 -1 0.52 0.43
-4 -5 -1 0.62 0.27
4 5 1 1.06 0.32
4 -5 -1 1.16 0.4
-4 -5 -2 24.55 1.35
4 -5 -2 24.75 1.29
-4 -5 -3 88.29 2.77
-4 -5 -3 92.34 2.03
4 -5 -3 91.46 2.81
-4 -5 -4 5.82 0.57
-4 -5 -4 7.36 1.04
4 -5 -4 7.14 0.97
-4 -5 -5 25.75 1.08
-4 -5 -5 23.57 1.63
4 -5 -5 26.4 1.72
-4 -5 -6 7.18 1.18
4 -5 -6 7.39 1.28
-4 -5 -7 2.75 0.95
4 -5 -7 2.87 0.92
-4 -5 -8 -0.29 0.79
4 -5 -8 1.26 0.84
-4 -5 -9 17.19 2.03
4 -5 -9 19.34 2.37
-4 -5 -10 2.38 1.31
4 -5 -10 -0.02 0.97
-4 -5 -11 3.4 1.49
4 -5 -11 1.92 1.33
5 5 -11 0.98 1.16
-5 5 -10 4.01 1.23
5 5 -10 7.84 1.57
-5 5 -9 1.25 0.87
5 5 -9 1.37 0.91
-5 5 -8 26.29 2.03
5 5 -8 26.02 2.05
-5 5 -7 19.21 1.84
5 5 -7 17.19 1.84
-5 5 -6 96.07 3.37
5 5 -6 90.77 3.28
-5 5 -5 0.27 0.47
5 5 -5 0.65 0.56
5 -5 5 0.37 0.41
-5 5 -4 16.6 1.23
5 5 -4 13.67 1.38
5 -5 4 11.73 1.12
-5 5 -3 12.01 1.18
5 5 -3 11.77 1.2
5 -5 3 10.37 0.98
-5 -5 2 71.01 1.98
-5 5 -2 71.29 2.16
-5 -5 2 71.47 2.07
5 -5 2 76.07 2.2
5 5 -2 71.38 2.27
-5 -5 1 40.49 1.5
-5 -5 1 40.27 1.32
-5 5 -1 42.5 1.43
5 -5 1 42.56 1.18
5 5 -1 45.38 1.62
5 -5 1 41.93 1.54
-5 5 0 230.84 4.22
-5 -5 0 229.33 4.18
-5 -5 0 230.28 4.73
5 -5 0 235.95 4.65
5 5 0 234.71 4.55
5 -5 0 230.45 4.38
-5 -5 -1 44.11 1.24
-5 -5 -1 44.96 1.7
5 5 1 43.34 1.41
5 -5 -1 42.72 1.56
-5 -5 -2 71.35 1.74
-5 -5 -2 65.25 2.24
5 -5 -2 71.6 2.23
-5 -5 -3 10.08 1.08
-5 -5 -3 10.71 0.65
5 -5 -3 10.76 1.11
-5 -5 -4 13 0.75
-5 -5 -4 12.81 1.27
5 -5 -4 15.61 1.41
-5 -5 -5 -0.12 0.51
-5 -5 -5 0.64 0.33
5 -5 -5 0.61 0.59
-5 -5 -6 90.08 3.31
5 -5 -6 93.29 3.46
-5 -5 -7 14.45 1.67
5 -5 -7 14.87 1.75
-5 -5 -8 26.27 2.13
5 -5 -8 21.96 2.28
-5 -5 -9 0.02 0.89
5 -5 -9 -0.36 0.77
-5 -5 -10 5.06 1.35
5 -5 -10 5.5 1.54
-5 -5 -11 1.04 1.22
5 -5 -11 2.23 1.45
6 5 -11 10.55 2.02
-6 5 -10 2.65 1.2
6 5 -10 1.53 1.01
-6 5 -9 33.74 2.48
6 5 -9 36.6 2.54
-6 5 -8 1.38 0.71
6 5 -8 1.16 0.81
-6 5 -7 0.86 0.68
6 5 -7 -0.9 0.58
-6 5 -6 0.67 0.59
6 5 -6 2.5 0.76
-6 5 -5 11.47 1.31
6 5 -5 12.44 1.4
6 -5 5 9.3 1.08
-6 5 -4 4.91 0.82
6 -5 4 4.94 0.77
6 5 -4 4.01 0.77
-6 5 -3 110.85 3.03
6 5 -3 102.39 3.07
6 -5 3 108.79 2.93
-6 -5 2 5.35 0.68
-6 5 -2 3.1 0.58
-6 -5 2 3.63 0.51
6 5 -2 3.52 0.7
6 -5 2 3.9 0.62
-6 5 -1 0.22 0.28
-6 -5 1 0.47 0.24
-6 -5 1 0.51 0.33
6 5 -1 0.24 0.36
6 -5 1 0.09 0.32
-6 5 0 -0.05 0.2
-6 -5 0 -0.82 0.24
-6 -5 0 0.13 0.19
6 -5 0 -0.03 0.28
6 -5 0 0.2 0.27
6 5 0 -0.09 0.29
-6 -5 -1 -0.32 0.17
-6 -5 -1 -0.45 0.29
6 -5 -1 -0.06 0.27
6 5 1 -0.07 0.28
-6 -5 -2 4.85 0.8
-6 -5 -2 4.16 0.49
6 -5 -2 4.33 0.71
-6 -5 -3 109.98 3.19
-6 -5 -3 108.57 2.47
6 -5 -3 107.46 3.16
-6 -5 -4 3.35 0.5
-6 -5 -4 4.35 0.88
6 -5 -4 3.99 0.85
-6 -5 -5 8.27 1.18
-6 -5 -5 10.78 0.8
6 -5 -5 8.47 1.26
-6 -5 -6 1.27 0.76
6 -5 -6 0.48 0.67
-6 -5 -7 -0.41 0.62
6 -5 -7 -0.6 0.68
-6 -5 -8 0.51 0.84
6 -5 -8 1.17 0.91
-6 -5 -9 39.16 2.64
6 -5 -9 32.7 2.57
-6 -5 -10 1.14 1.03
6 -5 -10 2.79 1.21
-6 -5 -11 11.83 2.1
-7 5 -10 -0.62 0.86
7 5 -10 0.2 0.92
-7 5 -9 -0.5 0.8
7 5 -9 1.05 0.88
-7 5 -8 7.53 1.4
7 5 -8 7.22 1.35
-7 5 -7 0.94 0.64
7 5 -7 2.48 0.88
-7 5 -6 18.31 1.72
7 5 -6 19.22 1.9
-7 5 -5 17.61 1.38
7 5 -5 15.35 1.54
7 -5 5 18.57 1.33
-7 5 -4 9.58 1.09
7 5 -4 10.8 1.28
7 -5 4 10.68 1.13
-7 5 -3 7.88 0.93
7 -5 3 7.45 0.84
7 5 -3 9.02 1.08
-7 -5 2 21.76 1.16
-7 5 -2 22.18 1.19
7 -5 2 23.97 1.24
7 5 -2 23.16 1.32
-7 -5 1 2.98 0.42
-7 5 -1 3.08 0.5
-7 -5 1 1.8 0.43
7 -5 1 2.61 0.53
7 5 -1 2.14 0.54
-7 -5 0 78.03 2.31
-7 -5 0 78.3 1.77
-7 5 0 78.54 1.92
7 -5 0 76.82 1.95
7 5 0 74.55 2.18
7 -5 0 75.06 2.2
-7 -5 -1 2.97 0.34
-7 -5 -1 2.94 0.58
7 -5 -1 2.87 0.53
7 5 1 1.89 0.45
-7 -5 -2 22.75 1
-7 -5 -2 22.11 1.3
7 -5 -2 24.07 1.31
-7 -5 -3 9.37 1.07
-7 -5 -3 7.33 0.67
7 -5 -3 7.89 1.02
-7 -5 -4 8.79 1.1
-7 -5 -4 10.47 0.76
7 -5 -4 10.92 1.23
-7 -5 -5 19.94 1.54
-7 -5 -5 18.58 1.07
7 -5 -5 22.94 1.67
-7 -5 -6 19.65 1.78
7 -5 -6 18.95 1.94
-7 -5 -7 3.92 1.06
7 -5 -7 1.09 0.83
-7 -5 -8 6.68 1.34
7 -5 -8 4.36 1.17
-7 -5 -9 1.12 0.96
7 -5 -9 0.45 0.9
-7 -5 -10 -0.34 0.98
7 -5 -10 0.01 0.88
-8 5 -10 8.52 1.6
8 5 -10 7.94 1.64
-8 5 -9 6.63 1.38
8 5 -9 5.06 1.24
-8 5 -8 5.62 1.27
8 5 -8 5.28 1.31
-8 5 -7 0.82 0.66
8 5 -7 -0.67 0.54
-8 5 -6 5.07 1.05
8 5 -6 3.79 0.96
-8 5 -5 18.28 1.47
8 -5 5 20.99 1.42
8 5 -5 20.87 1.51
-8 5 -4 57.62 2.29
8 -5 4 58.8 2.18
8 5 -4 60.66 2.42
-8 5 -3 130.77 3.45
8 5 -3 127.05 3.54
8 -5 3 128.29 3.34
-8 -5 2 28.54 1.36
-8 5 -2 27.35 1.34
8 5 -2 29.76 1.51
8 -5 2 31.43 1.41
-8 5 -1 33.61 1.33
-8 -5 1 35.5 1.47
-8 -5 1 32.73 1.13
8 -5 1 34.14 1.44
8 5 -1 32.7 1.49
-8 -5 0 0.07 0.18
-8 5 0 -0.13 0.22
-8 -5 0 -0.11 0.28
8 5 0 0.14 0.33
8 -5 0 -0.32 0.29
8 -5 0 0.45 0.28
-8 -5 -1 34.05 1.54
-8 -5 -1 32.4 0.94
8 5 1 32.4 1.37
8 -5 -1 34.54 1.38
-8 -5 -2 31.34 1.56
-8 -5 -2 31.39 1.24
8 -5 -2 30.89 1.49
-8 -5 -3 127.39 2.93
-8 -5 -3 129.07 3.57
8 -5 -3 127.55 3.55
-8 -5 -4 55.18 2.33
-8 -5 -4 58.91 1.84
8 -5 -4 57.92 2.43
-8 -5 -5 21.93 1.17
-8 -5 -5 19.83 1.56
8 -5 -5 19.94 1.62
-8 -5 -6 5.57 1.17
8 -5 -6 3.94 1
-8 -5 -7 -0.38 0.67
8 -5 -7 -0.96 0.59
-8 -5 -8 6.47 1.32
8 -5 -8 3.73 1.14
-8 -5 -9 3.69 1.24
8 -5 -9 6.2 1.46
-8 -5 -10 7.83 1.67
8 -5 -10 8.48 1.72
-9 5 -10 0.11 0.86
9 5 -10 -0.18 0.87
-9 5 -9 1.45 1.01
9 5 -9 0.61 0.83
-9 5 -8 6.28 1.36
9 5 -8 6.75 1.28
-9 5 -7 13.89 1.68
9 5 -7 17.49 1.93
-9 5 -6 14.13 1.58
9 5 -6 18.02 1.77
-9 5 -5 3.21 0.81
9 -5 5 3.06 0.7
9 5 -5 2.5 0.77
-9 5 -4 1.18 0.58
9 -5 4 1.66 0.57
9 5 -4 0.79 0.53
-9 5 -3 2.41 0.62
9 -5 3 2.86 0.61
9 5 -3 4.57 0.8
-9 -5 2 13.5 0.97
-9 5 -2 12.85 0.96
9 5 -2 11.99 1.22
9 -5 2 9.57 0.91
-9 -5 1 20.49 1.18
-9 5 -1 21.79 1.1
9 -5 1 22.91 1.21
9 5 -1 21.65 1.25
-9 -5 0 42.68 1.7
-9 5 0 42.01 1.38
-9 -5 0 42.43 1.15
9 -5 0 42.41 1.39
9 5 0 44.07 1.68
9 -5 0 41.64 1.62
-9 -5 -1 22 1.27
-9 5 1 22.3 0.88
9 -5 -1 22.41 1.14
-9 -5 -2 12.92 0.85
-9 -5 -2 13.41 1.24
9 -5 -2 13.34 1.03
-9 -5 -3 3.32 0.74
-9 -5 -3 2.75 0.48
9 -5 -3 3.5 0.78
-9 -5 -4 1.24 0.42
-9 -5 -4 2.17 0.67
9 -5 -4 0.42 0.48
-9 -5 -5 3.02 0.86
-9 -5 -5 3.79 0.66
9 -5 -5 3.42 0.88
-9 -5 -6 16.56 1.7
-9 -5 -6 17.4 1.2
9 -5 -6 16.96 1.82
-9 -5 -7 12.78 1.62
9 -5 -7 12.18 1.73
-9 -5 -8 8.25 1.46
9 -5 -8 9.98 1.64
-9 -5 -9 0.78 1.05
9 -5 -9 1.45 1.01
-9 -5 -10 -1.44 0.94
9 -5 -10 0.78 1.09
-10 5 -10 11.52 1.84
10 5 -10 18.52 2.23
-10 5 -9 2.02 0.98
10 5 -9 2.28 1.03
-10 5 -8 2.18 1
10 5 -8 1.64 0.92
-10 5 -7 3.94 1.02
10 5 -7 2.68 1.02
-10 5 -6 0.22 0.6
10 5 -6 0.5 0.68
-10 5 -5 5.46 0.97
10 -5 5 5.42 0.9
10 5 -5 4.72 1.05
-10 5 -4 69.27 2.59
10 5 -4 68.03 2.64
10 -5 4 71.93 2.49
-10 5 -3 67.15 2.37
10 5 -3 65 2.48
10 -5 3 66.44 2.28
-10 -5 2 28.67 1.4
-10 5 -2 31.29 1.45
10 -5 2 30.03 1.44
10 5 -2 29.77 1.55
-10 -5 1 35.51 1.54
-10 5 -1 37.69 1.47
10 -5 1 33.73 1.51
10 5 -1 35.26 1.6
-10 5 0 0.08 0.25
-10 -5 0 0.16 0.36
10 5 0 -0.26 0.31
10 -5 0 0.46 0.36
10 -5 0 -0.29 0.25
-10 -5 -1 36.15 1.65
-10 5 1 35.99 1.19
10 -5 -1 38.49 1.51
-10 -5 -2 28.46 1.27
-10 -5 -2 28.32 1.51
10 -5 -2 27.21 1.41
-10 -5 -3 70.86 2.11
-10 -5 -3 65.39 2.45
10 -5 -3 68.73 2.5
-10 -5 -4 70.1 2.67
-10 -5 -4 67.67 2.16
10 -5 -4 74.11 2.79
-10 -5 -5 5.69 1.05
-10 -5 -5 4.41 0.69
10 -5 -5 3.57 0.92
-10 -5 -6 0.55 0.73
-10 -5 -6 0.96 0.49
10 -5 -6 0.79 0.76
-10 -5 -7 3.59 1.04
10 -5 -7 3.26 1.06
-10 -5 -8 0.96 0.8
10 -5 -8 -0.09 0.64
-10 -5 -9 3.83 1.16
10 -5 -9 0.22 1.02
-10 -5 -10 14.62 2
10 -5 -10 12.37 2.14
-11 5 -10 -0.31 0.98
11 5 -10 0.85 1.04
-11 5 -9 0.95 0.96
11 5 -9 -0.66 0.79
-11 5 -8 2.94 1.08
11 5 -8 1.11 0.82
-11 5 -7 29.63 2.12
11 5 -7 31.54 2.24
-11 5 -6 2 0.73
11 5 -6 1.8 0.8
-11 5 -5 5.99 1
11 -5 5 5.83 0.94
11 5 -5 7.79 1.16
-11 5 -4 0.88 0.51
11 5 -4 0.14 0.45
11 -5 4 -0.87 0.35
-11 5 -3 3.64 0.74
11 5 -3 2.82 0.69
11 -5 3 2.62 0.61
-11 -5 2 0.52 0.41
-11 5 -2 0.14 0.38
11 -5 2 0.03 0.38
11 5 -2 -0.06 0.38
-11 -5 1 18.27 1.16
-11 5 -1 20.14 1.09
11 5 -1 18.14 1.23
11 -5 1 20.68 1.2
-11 5 0 4.22 0.57
-11 -5 0 4.05 0.68
11 -5 0 4.22 0.67
11 5 0 4.68 0.76
11 -5 0 4.59 0.6
-11 5 1 18.19 0.88
-11 -5 -1 17.55 1.2
-11 -5 -1 17.95 1.06
11 -5 -1 17.76 1.07
-11 -5 -2 0.43 0.33
-11 -5 -2 0.43 0.46
11 -5 -2 0.44 0.43
-11 -5 -3 2.3 0.52
-11 -5 -3 2.88 0.68
11 -5 -3 2.88 0.71
-11 -5 -4 1.18 0.46
-11 -5 -4 0.02 0.46
11 -5 -4 1.22 0.62
-11 -5 -5 5.72 0.82
-11 -5 -5 6.37 1.09
11 -5 -5 6.74 1.15
-11 -5 -6 2.51 0.88
-11 -5 -6 1.71 0.61
11 -5 -6 0.67 0.76
-11 -5 -7 28.89 2.11
11 -5 -7 30.59 2.31
-11 -5 -8 1.33 1.02
11 -5 -8 2.77 1.17
-11 -5 -9 0.56 0.98
11 -5 -9 2 1.19
-11 -5 -10 -0.17 1
11 -5 -10 -0.86 0.89
-12 5 -10 7.95 1.65
12 5 -10 10.06 1.72
-12 5 -9 2.21 1.1
12 5 -9 0.62 0.89
-12 5 -8 2.58 1.07
12 5 -8 1.63 0.9
-12 5 -7 2.17 0.94
12 5 -7 1.15 0.78
-12 5 -6 0.55 0.62
12 5 -6 0.12 0.62
12 -5 6 0.88 0.63
-12 5 -5 0.98 0.56
12 -5 5 0.65 0.55
12 5 -5 2.32 0.85
-12 5 -4 62.97 2.51
12 5 -4 63.79 2.63
12 -5 4 66.28 2.41
-12 5 -3 21.14 1.39
12 5 -3 22.15 1.5
12 -5 3 23.72 1.38
-12 5 -2 62.61 2.19
-12 -5 2 59.45 2.18
12 5 -2 61.89 2.37
12 -5 2 64.32 2.21
-12 5 -1 -0.18 0.27
-12 -5 1 0.02 0.3
12 -5 1 0.44 0.38
12 5 -1 -0.2 0.32
-12 5 0 0.2 0.3
-12 -5 0 0.22 0.36
12 5 0 0.3 0.43
12 -5 0 -0.33 0.33
12 -5 0 0.16 0.3
-12 -5 -1 0.67 0.38
-12 5 1 0.02 0.25
-12 -5 -1 -0.14 0.27
12 -5 -1 0.29 0.34
-12 5 2 60.84 1.7
-12 -5 -2 65.41 2.1
-12 -5 -2 62.85 2.3
12 -5 -2 60.48 2.22
-12 -5 -3 23.15 1.48
-12 -5 -3 23.03 1.26
12 -5 -3 22.4 1.5
-12 -5 -4 59.16 2.11
-12 -5 -4 60.93 2.49
12 -5 -4 58.76 2.57
-12 -5 -5 3.03 0.86
-12 -5 -5 1.37 0.55
12 -5 -5 0.94 0.69
-12 -5 -6 -0.2 0.6
-12 -5 -6 -0.26 0.43
12 -5 -6 1.4 0.83
-12 -5 -7 1.73 0.91
12 -5 -7 0.08 0.75
-12 -5 -8 1.27 0.94
12 -5 -8 1.2 0.89
-12 -5 -9 1.57 1.09
12 -5 -9 0.88 0.96
12 -5 -10 12.61 2.12
-13 5 -10 -0.55 0.91
13 5 -10 -0.56 0.85
13 5 -10 0.34 1.02
-13 5 -9 6.86 1.49
13 5 -9 3.76 1.24
-13 5 -8 1.58 0.93
13 5 -8 0.54 0.87
-13 5 -7 22.25 2.11
13 5 -7 23.03 2.3
-13 5 -6 9.05 1.33
13 -5 6 6.02 1.04
13 5 -6 7.25 1.3
-13 5 -5 20.14 1.82
13 -5 5 18.08 1.41
13 5 -5 15.51 1.63
-13 5 -4 -0.01 0.44
13 -5 4 1.32 0.55
13 5 -4 0.05 0.46
-13 5 -3 0.13 0.41
13 -5 3 0.5 0.44
13 5 -3 0.31 0.54
-13 -5 2 3.3 0.67
-13 5 -2 4.72 0.74
13 -5 2 4.12 0.7
13 5 -2 3.22 0.71
-13 5 -1 29.61 1.39
-13 -5 1 30.85 1.5
13 -5 1 29.31 1.48
13 5 -1 28.51 1.58
-13 -5 0 12.7 1.03
-13 5 0 14.85 0.95
13 -5 0 12.77 0.84
13 5 0 12.84 1.23
13 -5 0 12.43 1.11
-13 -5 -1 29.76 1.43
-13 -5 -1 30.74 1.58
-13 5 1 31.91 1.28
13 -5 -1 31.71 1.45
13 -5 -1 29.69 1.51
-13 -5 -2 3.82 0.77
-13 -5 -2 4 0.67
-13 5 2 3.6 0.52
13 -5 -2 3.75 0.74
-13 -5 -3 0.63 0.41
-13 -5 -3 0.47 0.53
13 -5 -3 -0.37 0.42
-13 -5 -4 0.19 0.51
-13 -5 -4 0.29 0.41
13 -5 -4 0.47 0.62
-13 -5 -5 18.34 1.7
-13 -5 -5 16.73 1.27
13 -5 -5 18.87 1.88
-13 -5 -6 6.85 1.01
-13 -5 -6 6.4 1.18
13 -5 -6 7.46 1.37
-13 -5 -7 21.65 2.06
13 -5 -7 19.72 2.28
-13 -5 -8 1.71 0.94
13 -5 -8 0.38 0.89
-13 -5 -9 2.91 1.09
13 -5 -9 4.06 1.36
13 -5 -10 -1.35 0.96
14 5 -10 4.82 1.45
14 5 -10 7.45 1.75
-14 5 -9 -0.24 0.89
14 5 -9 0.01 0.84
-14 5 -8 12.53 1.78
14 5 -8 16.64 2.09
-14 5 -7 10.97 1.5
14 5 -7 11.15 1.65
-14 5 -6 4.12 1.02
14 -5 6 4.29 1
14 5 -6 4.65 1.1
-14 5 -5 0.85 0.6
14 5 -5 -0.21 0.49
14 -5 5 1.74 0.68
-14 5 -4 46.08 2.22
14 5 -4 41.24 2.22
14 -5 4 47.53 2.09
-14 5 -3 -0.35 0.34
14 -5 3 0.21 0.4
14 5 -3 0.21 0.46
-14 5 -2 52.53 2.07
-14 -5 2 59.2 2.23
14 -5 2 54.65 2.12
14 5 -2 58.4 2.37
-14 -5 1 6.39 0.89
-14 5 -1 5.45 0.75
14 5 -1 6.35 0.99
14 -5 1 5.84 0.8
-14 5 0 0.12 0.3
-14 -5 0 0.1 0.34
14 -5 0 -0.45 0.27
14 5 0 -0.3 0.41
14 -5 0 0.47 0.39
-14 5 1 5.69 0.65
-14 -5 -1 6.13 0.86
-14 -5 -1 5.69 0.84
14 -5 -1 6.03 0.89
14 -5 -1 5.63 0.78
-14 -5 -2 57.28 2.3
-14 -5 -2 57.75 2.11
-14 5 2 57.43 1.78
14 -5 -2 57.02 2.22
-14 -5 -3 -0.19 0.37
-14 -5 -3 0.05 0.45
14 -5 -3 -0.17 0.46
-14 -5 -4 40.59 2.09
-14 -5 -4 46.02 1.95
14 -5 -4 42.19 2.25
-14 -5 -5 2.1 0.76
-14 -5 -5 0.6 0.48
14 -5 -5 2.21 0.92
-14 -5 -6 3.95 1
-14 -5 -6 3.37 0.78
14 -5 -6 5.11 1.24
-14 -5 -7 8.44 1.34
14 -5 -7 12.82 1.79
-14 -5 -8 14.28 1.82
14 -5 -8 11.16 1.71
-14 -5 -9 -0.16 0.93
14 -5 -9 -0.82 0.88
15 5 -10 -0.78 1.03
-15 5 -9 0.42 0.87
15 5 -9 2.32 1.17
-15 5 -8 7.39 1.51
15 5 -8 7.57 1.58
-15 5 -7 3.69 1.03
15 5 -7 3.29 1.06
-15 5 -6 6.87 1.24
15 -5 6 5.68 1.1
15 5 -6 6.61 1.32
-15 5 -5 28.19 1.91
15 -5 5 26.94 1.7
15 5 -5 26.75 1.92
-15 5 -4 0.29 0.53
15 -5 4 -0.39 0.42
15 5 -4 0.66 0.56
-15 5 -3 4.91 0.87
15 -5 3 6.5 0.93
15 5 -3 6.15 1.04
-15 5 -2 10.66 1.1
15 -5 2 14.33 1.28
15 5 -2 9.18 1.16
-15 -5 1 43.87 1.91
-15 5 -1 39.81 1.71
15 -5 1 39.59 1.78
-15 -5 0 49 2.05
-15 5 0 50.62 1.83
15 -5 0 50.49 1.74
15 5 0 54.09 2.26
15 -5 0 52.93 2.01
-15 -5 -1 39.98 1.76
-15 -5 -1 40.84 1.88
-15 5 1 41.41 1.56
15 -5 -1 39.38 1.72
15 -5 -1 40.31 1.8
-15 -5 -2 13.95 1.34
-15 -5 -2 12.64 1.2
-15 5 2 12.84 0.9
15 -5 -2 13.49 1.29
-15 -5 -3 6.37 0.88
-15 -5 -3 4.52 0.88
15 -5 -3 4.46 0.9
-15 -5 -4 -0.26 0.48
-15 -5 -4 0.16 0.45
15 -5 -4 -0.18 0.49
-15 -5 -5 22.98 1.77
-15 -5 -5 31.33 1.72
15 -5 -5 23.01 2.15
-15 -5 -6 5.41 1.14
-15 -5 -6 4.75 0.91
15 -5 -6 5 1.18
-15 -5 -7 3.94 1.05
15 -5 -7 3.64 1.19
-15 -5 -8 8.28 1.47
15 -5 -8 4.06 1.29
15 -5 -9 0.49 1.1
-16 5 -9 4.25 1.39
16 5 -9 6.65 1.66
-16 5 -8 10.47 1.64
16 5 -8 11.35 1.81
-16 5 -7 1.31 0.82
16 5 -7 2.37 1.14
-16 5 -6 4.4 1.04
16 5 -6 4.51 1.24
16 -5 6 1.99 0.8
-16 5 -5 0.64 0.65
16 -5 5 0.6 0.6
16 5 -5 1.43 0.72
-16 5 -4 10.45 1.27
16 5 -4 13.33 1.55
16 -5 4 12.68 1.32
-16 5 -3 33.98 1.79
16 -5 3 30.02 1.66
16 5 -3 29.13 1.88
-16 5 -2 28.98 1.58
16 5 -2 28.26 1.74
16 -5 2 25.86 1.53
-16 -5 1 5.36 0.86
-16 5 -1 5.64 0.81
16 5 -1 6.82 1.04
16 -5 1 4.59 0.78
-16 5 0 0.38 0.37
-16 -5 0 -0.13 0.37
16 5 0 -0.37 0.45
16 -5 0 0.75 0.49
16 -5 0 -0.08 0.35
-16 -5 -1 5.57 0.9
-16 5 1 4.42 0.66
-16 -5 -1 5.02 0.86
16 -5 -1 4.91 0.78
16 -5 -1 6.42 0.92
-16 5 2 28.62 1.32
-16 -5 -2 28.63 1.57
-16 -5 -2 29.18 1.68
16 -5 -2 26.14 1.6
-16 -5 -3 31.84 1.68
-16 -5 -3 31.09 1.84
16 -5 -3 30.63 1.87
-16 -5 -4 11.89 1.38
-16 -5 -4 14.55 1.4
16 -5 -4 12.59 1.52
-16 -5 -5 2.19 0.78
-16 -5 -5 1.72 0.66
16 -5 -5 -0.17 0.67
-16 -5 -6 1.82 0.71
-16 -5 -6 1.6 0.84
16 -5 -6 3.91 1.18
-16 -5 -7 1.23 0.73
-16 -5 -7 3.69 1.06
16 -5 -7 1.47 1.07
-16 -5 -8 10.96 1.56
16 -5 -8 9.73 1.79
16 -5 -9 5.23 1.52
-17 5 -9 1.84 1.15
17 5 -9 0.91 1.17
-17 5 -8 6.82 1.38
17 5 -8 6.53 1.45
-17 5 -7 4.47 1.14
17 5 -7 2.21 1.05
-17 5 -6 6.2 1.15
17 -5 6 4.48 1.05
17 5 -6 4.67 1.27
-17 5 -5 27.5 1.93
17 -5 5 26.09 1.74
17 5 -5 24.12 1.92
-17 5 -4 0.08 0.53
17 5 -4 -0.15 0.54
17 -5 4 -0.72 0.44
-17 5 -3 4.23 0.88
17 -5 3 4.52 0.83
17 5 -3 2.1 0.77
-17 5 -2 10.94 1.17
17 -5 2 10.85 1.14
17 5 -2 14.13 1.49
-17 5 -1 9.81 1.07
-17 -5 1 8.18 1.07
17 5 -1 10.87 1.37
17 -5 1 6.85 0.93
-17 5 0 31.37 1.5
-17 -5 0 28.35 1.61
17 -5 0 27.62 1.55
17 5 0 28.72 1.8
-17 -5 -1 8.34 1.05
-17 -5 -1 9.26 1.17
-17 5 1 8.27 0.93
17 -5 -1 8.06 1
17 -5 -1 8.02 1
-17 -5 -2 13.96 1.38
-17 5 2 12.35 1.07
-17 -5 -2 13.86 1.38
17 -5 -2 14.45 1.43
-17 -5 -3 2.05 0.71
-17 -5 -3 1.82 0.63
17 -5 -3 1.53 0.78
-17 -5 -4 0.51 0.62
-17 -5 -4 -0.53 0.34
17 -5 -4 0.97 0.74
-17 -5 -5 32.26 2
-17 -5 -5 28.07 1.75
17 -5 -5 29.82 2.21
-17 -5 -6 4.59 0.96
-17 -5 -6 5.71 1.13
17 -5 -6 4.86 1.34
-17 -5 -7 1.35 0.77
-17 -5 -7 1.62 0.85
17 -5 -7 3.81 1.29
-17 -5 -8 5.33 1.29
17 -5 -8 6.09 1.58
17 -5 -9 0.83 1.27
-18 5 -9 19.51 2.26
18 5 -9 22.91 2.73
-18 5 -8 -0.34 0.79
18 5 -8 0 0.87
-18 5 -7 5.2 1.24
18 5 -7 5.69 1.44
-18 5 -6 -0.36 0.54
18 -5 6 -0.41 0.58
18 5 -6 -0.35 0.66
-18 5 -5 6.63 1.16
18 5 -5 5.98 1.28
18 -5 5 4.54 0.96
-18 5 -4 0.28 0.59
18 -5 4 -0.03 0.61
18 5 -4 -0.19 0.56
-18 5 -3 20.31 1.53
18 -5 3 22.86 1.54
18 5 -3 19.06 1.86
-18 5 -2 -0.54 0.4
18 5 -2 0.19 0.57
18 -5 2 0.27 0.52
-18 -5 1 6.84 1
-18 5 -1 9.72 1.07
18 -5 1 9.49 1.06
18 5 -1 10.76 1.4
-18 -5 0 -0.24 0.38
-18 5 0 0.09 0.39
18 5 0 -0.38 0.5
18 -5 0 0.65 0.53
-18 5 1 9.01 0.97
-18 -5 -1 10.39 1.2
-18 -5 -1 8.59 1.15
18 -5 -1 8.25 1.03
18 -5 -1 8.26 1.05
-18 -5 -2 0.42 0.49
-18 5 2 0.21 0.5
-18 -5 -2 -0.19 0.41
18 -5 -2 -0.64 0.4
-18 -5 -3 23.44 1.66
-18 -5 -3 23.8 1.56
18 -5 -3 26 1.81
-18 -5 -4 0.17 0.63
-18 -5 -4 0.04 0.48
18 -5 -4 0.3 0.7
-18 -5 -5 7.13 1.1
-18 -5 -5 5.3 1.12
18 -5 -5 6.09 1.31
-18 -5 -6 -0.14 0.61
-18 -5 -6 -0.02 0.65
18 -5 -6 0.06 0.79
-18 -5 -7 7.54 1.4
-18 -5 -7 7.9 1.27
18 -5 -7 8.39 1.62
18 -5 -8 -0.43 1.04
18 -5 -9 21.09 2.67
19 5 -9 -0.71 1
-19 5 -8 16.84 2.13
19 5 -8 12.68 1.96
-19 5 -7 -0.33 0.74
19 5 -7 0.21 0.82
-19 5 -6 43.51 2.58
19 -5 6 37.43 2.19
19 5 -6 39.48 2.64
-19 5 -5 -0.36 0.54
19 5 -5 -0.3 0.66
19 -5 5 0.28 0.62
-19 5 -4 -0.92 0.47
19 -5 4 -0.18 0.55
19 5 -4 -0.24 0.61
-19 5 -3 5.89 1.03
19 5 -3 6.7 1.27
19 -5 3 6.52 1
-19 5 -2 31.05 1.79
19 -5 2 34.73 1.81
19 5 -2 31.13 2.02
-19 -5 1 6.18 0.97
-19 5 -1 5.93 0.89
19 -5 1 6.25 0.95
19 5 -1 5.28 1.05
-19 -5 0 60.76 2.47
-19 5 0 61.33 2.29
19 -5 0 65.36 2.4
19 5 0 68.05 2.83
-19 -5 -1 8.54 1.17
-19 5 1 7.68 0.91
-19 -5 -1 6.78 1.03
19 -5 -1 5.81 0.9
19 -5 -1 6.29 0.94
-19 -5 -2 33.99 1.87
-19 -5 -2 32.78 1.85
19 -5 -2 35.41 1.95
-19 -5 -3 6.87 1.05
-19 -5 -3 6.93 1.09
19 -5 -3 6.22 1.1
-19 -5 -4 -0.13 0.59
-19 -5 -4 -0.29 0.47
19 -5 -4 0.71 0.74
-19 -5 -5 -0.25 0.55
-19 -5 -5 0.24 0.64
19 -5 -5 1.27 0.83
-19 -5 -6 36.85 2.31
-19 -5 -6 36.86 2.17
19 -5 -6 41.54 2.76
-19 -5 -7 -0.19 0.71
-19 -5 -7 0.33 0.63
19 -5 -7 0.3 0.94
19 -5 -8 14.62 2.38
-20 5 -8 0 0.97
20 5 -8 -0.07 1
-20 5 -7 9.32 1.56
20 5 -7 11.77 1.9
-20 5 -6 0.27 0.71
20 5 -6 0.26 0.79
20 -5 6 0.73 0.7
-20 5 -5 27.73 2.05
20 -5 5 28.83 1.88
20 5 -5 27.97 2.18
-20 5 -4 -0.09 0.58
20 5 -4 0.27 0.62
20 -5 4 -0.14 0.56
-20 5 -3 15.12 1.53
20 5 -3 13.2 1.64
20 -5 3 10.08 1.2
-20 5 -2 9.47 1.17
20 -5 2 12.2 1.27
20 5 -2 11.33 1.55
-20 -5 1 24.79 1.64
-20 5 -1 29.09 1.67
20 5 -1 24.19 1.86
20 -5 1 27.52 1.63
-20 5 0 -0.76 0.38
-20 -5 0 -0.31 0.44
20 -5 0 0.44 0.51
20 5 0 -1.09 0.47
-20 -5 -1 25.13 1.63
-20 5 1 25.88 1.48
-20 -5 -1 28.02 1.7
20 -5 -1 26.25 1.59
20 -5 -1 26.68 1.73
-20 -5 -2 12.8 1.45
-20 -5 -2 10.55 1.27
20 -5 -2 11.43 1.38
-20 -5 -3 13.85 1.47
-20 -5 -3 13.99 1.53
20 -5 -3 10.91 1.51
-20 -5 -4 0.79 0.63
-20 -5 -4 0.41 0.58
20 -5 -4 0.47 0.73
-20 -5 -5 29.09 2.04
-20 -5 -5 24.39 1.77
20 -5 -5 25.52 2.46
-20 -5 -6 1.84 0.8
-20 -5 -6 0.4 0.72
20 -5 -6 1.38 0.95
-20 -5 -7 9.52 1.39
-20 -5 -7 5.6 1.22
20 -5 -7 8.36 1.73
20 -5 -8 -0.64 0.93
-21 5 -8 0.99 1.01
21 5 -8 0.64 1.11
-21 5 -7 1.06 0.91
21 5 -7 3.43 1.26
-21 5 -6 9.04 1.46
21 5 -6 8.91 1.62
21 -5 6 8.9 1.33
-21 5 -5 7.07 1.29
21 -5 5 5.9 1.06
21 5 -5 4.85 1.2
-21 5 -4 3.36 0.9
21 5 -4 3.7 1.04
21 -5 4 5.18 0.98
-21 5 -3 -0.11 0.53
21 -5 3 0.27 0.53
21 5 -3 1.37 0.83
-21 5 -2 11.78 1.35
21 5 -2 11.88 1.61
21 -5 2 13.15 1.37
-21 5 -1 3.34 0.81
21 -5 1 3.15 0.75
21 5 -1 3.29 1.01
-21 -5 0 45.79 2.25
-21 5 0 46.16 2.08
21 -5 0 50.54 2.16
21 5 0 51.98 2.63
-21 -5 -1 3.46 0.86
-21 5 1 2.87 0.72
-21 -5 -1 3.26 0.82
21 -5 -1 4.6 0.87
-21 -5 -2 13.05 1.46
-21 -5 -2 11.65 1.37
21 -5 -2 10.08 1.33
-21 -5 -3 0.9 0.63
-21 -5 -3 1.03 0.61
21 -5 -3 0.55 0.69
-21 -5 -4 5.34 1.08
-21 -5 -4 3.66 0.98
21 -5 -4 4.49 1.19
-21 -5 -5 8.73 1.27
-21 -5 -5 7.27 1.28
21 -5 -5 6.82 1.43
-21 -5 -6 12.08 1.52
-21 -5 -6 9.09 1.4
21 -5 -6 9.71 1.77
-21 -5 -7 1.65 0.87
21 -5 -7 1.82 1.22
21 -5 -8 2.92 1.4
-22 5 -8 3.8 1.33
22 5 -8 7.41 1.77
-22 5 -7 8.01 1.55
22 5 -7 6.66 1.59
-22 5 -6 0.04 0.76
22 5 -6 0.38 0.92
-22 5 -5 13.71 1.74
22 -5 5 16.47 1.68
22 5 -5 12.34 1.77
-22 5 -4 14.64 1.66
22 5 -4 13.47 1.77
22 -5 4 16.22 1.56
-22 5 -3 3.01 0.86
22 5 -3 4.65 1.15
22 -5 3 4.89 0.96
-22 5 -2 18.2 1.7
22 5 -2 19.29 1.98
22 -5 2 19 1.51
-22 5 -1 18.08 1.6
22 -5 1 16.76 1.48
22 5 -1 17.19 1.9
-22 5 0 -0.54 0.47
-22 -5 0 0.12 0.47
22 5 0 -0.36 0.58
22 -5 0 0.59 0.59
-22 -5 -1 21.85 1.95
-22 5 1 16.72 1.44
-22 -5 -1 18.73 1.7
22 -5 -1 18.64 1.44
-22 -5 -2 16.26 1.64
-22 -5 -2 19.01 1.81
22 -5 -2 16.87 1.69
-22 -5 -3 5.88 1.1
-22 -5 -3 3.38 0.87
22 -5 -3 3.28 0.91
-22 -5 -4 18.34 1.75
-22 -5 -4 16.68 1.68
22 -5 -4 16.84 1.98
-22 -5 -5 16.82 1.75
-22 -5 -5 16.88 1.81
22 -5 -5 14.69 2.05
-22 -5 -6 0.32 0.73
-22 -5 -6 3.2 1.04
22 -5 -6 1.75 1.16
-22 -5 -7 10.41 1.51
22 -5 -7 6.85 1.72
22 -5 -8 2.74 1.49
23 5 -8 0.96 1.3
-23 5 -7 17.74 2.15
23 5 -7 22.9 2.58
-23 5 -6 2.72 1.03
23 5 -6 3.32 1.26
-23 5 -5 15.73 1.89
23 5 -5 14.9 1.96
-23 5 -4 5.76 1.18
23 5 -4 4.61 1.26
23 -5 4 3.39 0.91
-23 5 -3 0.33 0.62
23 5 -3 -0.06 0.73
23 -5 3 0.74 0.59
-23 5 -2 8.88 1.29
23 -5 2 9.54 1.19
23 5 -2 10 1.51
-23 5 -1 1.9 0.7
23 -5 1 1 0.63
23 5 -1 4.64 1.24
-23 -5 0 23.65 1.72
-23 5 0 20.97 1.51
23 5 0 21.68 2.07
23 -5 0 23.71 1.61
-23 -5 -1 3.36 0.85
-23 -5 -1 2.69 0.85
-23 5 1 1.64 0.68
23 -5 -1 3.26 0.82
-23 -5 -2 9.86 1.33
-23 -5 -2 10.29 1.36
23 -5 -2 9.16 1.22
-23 -5 -3 0.81 0.68
-23 -5 -3 1.26 0.66
23 -5 -3 0.79 0.75
-23 -5 -4 4.44 1.08
-23 -5 -4 5.89 1.17
23 -5 -4 2.14 1
-23 -5 -5 13.94 1.67
-23 -5 -5 15.15 1.71
23 -5 -5 13.35 1.95
-23 -5 -6 4.58 1.21
-23 -5 -6 4.31 1.07
23 -5 -6 3.68 1.32
-23 -5 -7 17.32 1.91
23 -5 -7 19.7 2.59
-24 5 -7 -0.44 0.78
24 5 -7 -0.08 0.97
-24 5 -6 2.34 1
24 5 -6 3.18 1.31
-24 5 -5 0.68 0.78
24 5 -5 2.72 1.07
-24 5 -4 23.78 2.22
24 5 -4 27.51 2.65
-24 5 -3 0.45 0.67
24 -5 3 0.6 0.61
24 5 -3 0.2 0.79
-24 5 -2 11.22 1.45
24 -5 2 8.48 1.16
24 5 -2 9.81 1.57
-24 5 -1 0.51 0.66
24 -5 1 0.99 0.67
24 5 -1 2.11 0.89
-24 5 0 0 0.51
-24 -5 0 0.27 0.56
24 5 0 -0.98 0.61
24 -5 0 -0.18 0.5
-24 5 1 0.87 0.64
-24 -5 -1 1.14 0.69
-24 -5 -1 2.76 0.9
24 -5 -1 0.4 0.61
-24 -5 -2 10.57 1.51
-24 -5 -2 11.97 1.46
24 -5 -2 9.72 1.33
-24 -5 -3 0.72 0.73
-24 -5 -3 1.07 0.73
24 -5 -3 0.77 0.76
-24 -5 -4 23.66 1.87
-24 -5 -4 26.87 1.97
24 -5 -4 25.15 2.43
-24 -5 -5 2.24 0.86
-24 -5 -5 1.74 0.93
24 -5 -5 1.31 1.02
-24 -5 -6 3.05 1.05
24 -5 -6 1.35 1.16
-24 -5 -7 -0.39 0.73
24 -5 -7 1.17 1.16
-25 5 -7 36.25 2.82
25 5 -7 33.36 3.17
-25 5 -6 -0.48 0.75
25 5 -6 0.03 0.96
-25 5 -5 21.24 2.21
25 5 -5 19.85 2.32
-25 5 -4 0.35 0.72
25 5 -4 0.98 0.92
-25 5 -3 0.75 0.72
25 5 -3 2.06 0.99
-25 5 -2 0.79 0.69
25 5 -2 1.87 0.97
25 -5 2 1.93 0.76
-25 5 -1 22.25 1.72
25 5 -1 27.43 2.2
25 -5 1 21.18 1.61
-25 5 0 -0.03 0.52
-25 -5 0 -0.64 0.46
25 -5 0 -0.16 0.57
25 5 0 0.09 0.74
-25 -5 -1 22.42 2
-25 -5 -1 21.45 2.1
25 -5 -1 20.76 1.58
-25 -5 -2 2.93 0.92
-25 -5 -2 0.1 0.59
25 -5 -2 0.39 0.73
-25 -5 -3 2.42 0.84
-25 -5 -3 2.35 0.96
25 -5 -3 1.09 0.85
-25 -5 -4 1.09 0.67
-25 -5 -4 1.05 0.77
25 -5 -4 1.1 0.94
-25 -5 -5 20.2 1.98
-25 -5 -5 22.75 2.19
25 -5 -5 19.56 2.31
-25 -5 -6 -0.69 0.69
25 -5 -6 -0.27 0.97
-25 -5 -7 39.19 2.61
25 -5 -7 32.2 3.4
-26 5 -6 0.46 0.9
26 5 -6 0.15 1.06
-26 5 -5 -0.36 0.79
26 5 -5 -0.49 0.89
-26 5 -4 16.04 1.94
26 5 -4 11.89 1.92
-26 5 -3 3.4 1.01
26 5 -3 2.69 1.16
-26 5 -2 10.67 1.46
26 5 -2 11.35 1.76
-26 5 -1 1.59 0.84
26 5 -1 0.58 0.84
-26 5 0 -0.02 0.55
26 5 0 -0.61 0.64
26 -5 0 -0.63 0.55
-26 -5 -1 2.23 0.79
-26 -5 -1 1.51 0.74
26 -5 -1 0.78 0.69
-26 -5 -2 9.77 1.44
-26 -5 -2 14.36 1.63
26 -5 -2 12.93 1.45
-26 -5 -3 3.3 0.97
-26 -5 -3 5.49 1.18
-26 -5 -4 13.34 1.66
-26 -5 -4 13.05 1.74
26 -5 -4 14.3 1.99
-26 -5 -5 -0.48 0.67
26 -5 -5 -1.04 0.94
-26 -5 -6 0.8 0.79
26 -5 -6 0.07 1.09
-26 -5 -7 -0.13 0.85
26 -5 -7 1.49 1.31
-27 5 -6 2.75 1.18
27 5 -6 2.58 1.33
-27 5 -5 10.75 1.71
27 5 -5 13.76 2.07
-27 5 -4 0.49 0.76
27 5 -4 0.32 1.02
-27 5 -3 0.83 0.75
27 5 -3 1.21 0.98
-27 5 -2 2.7 0.89
27 5 -2 1.52 0.96
-27 5 -1 20.98 1.88
27 5 -1 20.74 2.34
-27 5 0 2.19 0.82
27 5 0 0.11 0.85
-27 -5 -1 25.99 1.95
-27 -5 -1 23.85 2.19
27 -5 -1 21.46 1.67
-27 -5 -2 2.05 0.8
-27 -5 -2 4.35 1.04
27 -5 -2 2.58 0.88
-27 -5 -3 2.11 0.85
-27 -5 -3 1.29 0.81
-27 -5 -4 0.87 0.8
-27 -5 -4 0.36 0.86
27 -5 -4 0.45 0.94
-27 -5 -5 13.03 1.78
27 -5 -5 14.25 2.12
-27 -5 -6 1.32 0.91
27 -5 -6 2.33 1.39
-28 5 -5 5.13 1.3
28 5 -5 1.61 1.25
-28 5 -4 5.21 1.27
28 5 -4 3.91 1.37
-28 5 -3 13.32 1.74
28 5 -3 10.63 1.84
-28 5 -2 3.89 0.97
28 5 -2 4.22 1.25
-28 5 -1 0.85 0.72
28 5 -1 0.21 0.87
-28 5 0 -0.32 0.61
28 5 0 -1.04 0.74
-28 -5 -1 2.31 0.88
-28 -5 -2 3.85 0.97
-28 -5 -2 1.55 0.88
28 -5 -2 2.94 0.85
-28 -5 -3 12.57 1.56
-28 -5 -3 16.73 1.98
28 -5 -3 14.84 1.75
-28 -5 -4 3.6 1.06
-28 -5 -4 7.75 1.45
-28 -5 -5 2.67 1.13
28 -5 -5 3.14 1.4
-28 -5 -6 0.71 0.95
28 -5 -6 -0.44 1.3
-29 5 -5 9.04 1.56
29 5 -5 12.06 2.11
-29 5 -4 1.85 1.08
29 5 -4 -0.42 0.94
-29 5 -3 1.83 0.88
29 5 -3 0.45 0.93
-29 5 -2 5.26 1.19
29 5 -2 4.5 1.44
-29 5 -1 1.35 0.85
29 5 -1 0.3 0.89
-29 5 0 10.03 1.41
29 5 0 9.84 1.79
-29 -5 -2 6.53 1.31
-29 -5 -2 5.75 1.24
-29 -5 -3 0.48 0.83
-29 -5 -3 0.97 0.8
-29 -5 -4 2.59 1.13
-29 -5 -5 12.15 1.86
29 -5 -5 12.35 2.15
-30 5 -4 2.21 1.13
30 5 -4 4.69 1.48
-30 5 -3 12.01 1.74
30 5 -3 10.97 2
-30 5 -2 1 0.82
30 5 -2 0.02 0.89
-30 5 -1 1.3 0.81
30 5 -1 2.8 1.23
-30 5 0 -0.07 0.73
30 5 0 -1.45 0.89
-30 -5 -2 1.02 0.75
-30 -5 -2 1.03 0.86
-30 -5 -3 13.98 1.71
-30 -5 -3 12.66 1.79
-30 -5 -4 2.49 1.16
-31 5 -4 1.69 1.15
-31 5 -3 0.73 0.91
31 5 -3 1.15 1.23
-31 5 -2 -0.42 0.72
31 5 -2 0.78 1.08
-31 5 -1 1.06 0.86
31 5 -1 0.42 0.99
31 5 0 11.77 1.92
-31 -5 -2 1.72 0.91
-31 -5 -3 0.49 0.95
-31 -5 -4 0.64 0.97
-32 5 -3 17.37 2.08
-32 5 -2 0.03 0.81
32 5 -2 0.02 1.11
-32 5 -1 5.41 1.27
32 5 -1 4.85 1.75
32 5 0 0.68 0.99
32 5 1 7.26 1.82
-32 -5 -2 0.85 0.94
-33 5 -1 7.92 1.47
0 6 -10 1.47 1.03
0 6 -9 -0.03 0.89
0 6 -8 3.35 1.11
0 6 -7 -0.17 0.59
0 6 -6 83.4 3.19
0 6 -5 -0.11 0.48
0 6 -4 0.38 0.39
0 -6 4 0.25 0.42
0 -6 3 -0.03 0.33
0 6 -3 0.1 0.34
0 -6 2 43.07 1.64
0 -6 2 43.63 1.43
0 6 -2 44.28 1.71
0 -6 1 0.35 0.3
0 -6 1 -0.04 0.26
0 6 -1 0.54 0.3
0 -6 0 762.18 12.83
0 6 0 769.51 12.43
0 -6 0 773.38 12.64
0 -6 -1 -0.01 0.36
0 -6 -1 -0.21 0.26
0 -6 -2 43.23 1.8
0 -6 -3 0.47 0.44
0 -6 -4 0.8 0.58
0 -6 -5 0.28 0.54
0 -6 -6 86.11 3.33
0 -6 -7 -0.66 0.63
0 -6 -8 4.74 1.26
0 -6 -9 -0.01 0.88
0 -6 -10 0.45 1.06
-1 6 -10 1.68 1.11
1 6 -10 0.33 0.95
-1 6 -9 23.17 2.36
1 6 -9 24.26 2.53
-1 6 -8 0.25 0.79
1 6 -8 3.66 1.16
-1 6 -7 5.15 1.16
1 6 -7 2.46 0.91
-1 6 -6 0.88 0.66
1 6 -6 1.56 0.81
-1 6 -5 26.03 1.66
1 6 -5 25.19 1.66
-1 6 -4 8.37 1.09
-1 -6 4 7.19 0.89
1 -6 4 9.12 0.98
1 6 -4 7.89 1.06
-1 -6 3 66.33 2.18
-1 6 -3 65.59 2.29
1 -6 3 65.61 2.21
1 6 -3 67.61 2.35
-1 6 -2 1.59 0.47
-1 -6 2 2.41 0.47
-1 -6 2 1.71 0.41
1 -6 2 1.1 0.32
1 6 -2 1.77 0.52
1 -6 2 2.28 0.51
-1 -6 1 45.39 1.56
-1 6 -1 42.15 1.52
-1 -6 1 43.21 1.54
1 -6 1 43.62 1.44
1 -6 1 45.54 1.61
1 6 -1 42.88 1.57
-1 -6 0 0.49 0.31
-1 6 0 -0.17 0.24
-1 -6 0 -0.49 0.31
1 -6 0 0.2 0.36
1 6 0 -0.07 0.3
1 -6 0 0.31 0.31
-1 -6 -1 42.3 1.68
-1 -6 -1 40.2 1.44
1 -6 -1 45.72 1.71
1 -6 -1 45.08 1.57
1 6 1 42.6 1.25
-1 -6 -2 1.2 0.52
1 -6 -2 1.26 0.55
-1 -6 -3 70.54 2.5
1 -6 -3 68.39 2.48
-1 -6 -4 8.92 1.18
1 -6 -4 8.76 1.14
-1 -6 -5 27.34 1.81
1 -6 -5 25.42 1.74
-1 -6 -6 1.18 0.76
1 -6 -6 0.94 0.73
-1 -6 -7 3.2 1.02
1 -6 -7 2.27 0.96
-1 -6 -8 3.15 0.99
1 -6 -8 3.42 1.22
-1 -6 -9 20.69 2.27
1 -6 -9 20.51 2.38
-1 -6 -10 1.39 1.16
1 -6 -10 0.9 1.19
-2 6 -10 0.67 0.96
2 6 -10 -0.88 0.9
-2 6 -9 1.76 0.93
2 6 -9 1.72 1.01
-2 6 -8 5.77 1.22
2 6 -8 2.02 0.94
-2 6 -7 19.75 1.95
2 6 -7 19.29 1.92
-2 6 -6 54.09 2.56
2 6 -6 56.59 2.61
-2 6 -5 23.47 1.62
2 -6 5 23.18 1.5
2 6 -5 22.23 1.58
-2 6 -4 -0.42 0.38
-2 -6 4 0.54 0.41
2 -6 4 0.32 0.38
2 6 -4 -0.79 0.31
-2 6 -3 1.14 0.48
-2 -6 3 1.05 0.44
2 6 -3 2.02 0.56
2 -6 3 2.14 0.54
-2 6 -2 20.46 1.17
-2 -6 2 19.16 1.07
-2 -6 2 19.61 1.01
2 6 -2 19.92 1.2
2 -6 2 19 1.13
2 -6 2 19.68 0.87
-2 6 -1 10.38 0.79
-2 -6 1 10.54 0.76
-2 -6 1 10.8 0.81
2 -6 1 10.24 0.71
2 6 -1 13.52 0.9
2 -6 1 11.36 0.85
-2 -6 0 312.69 5.68
-2 -6 0 308.74 5.97
-2 6 0 303.83 5.49
2 -6 0 310.33 5.86
2 -6 0 309.61 5.82
2 6 0 309.88 5.68
-2 -6 -1 10.68 0.74
-2 -6 -1 9.59 0.99
2 -6 -1 10.42 0.9
2 -6 -1 10.99 0.98
2 6 1 11.79 0.7
-2 -6 -2 18.71 1.28
2 -6 -2 21.15 1.28
-2 -6 -3 2.72 0.72
2 -6 -3 1.58 0.61
-2 -6 -4 0.2 0.49
2 -6 -4 0.29 0.48
-2 -6 -5 20.04 1.62
2 -6 -5 22.43 1.72
-2 -6 -6 59.62 2.77
2 -6 -6 55.24 2.71
-2 -6 -7 16.77 1.82
2 -6 -7 18.57 2.03
-2 -6 -8 3.97 1.23
2 -6 -8 6.35 1.41
-2 -6 -9 4.38 1.38
2 -6 -9 1.72 1.13
-2 -6 -10 -0.47 1.02
2 -6 -10 -0.3 0.91
-3 6 -10 13.37 2.11
3 6 -10 8.88 1.65
-3 6 -9 26.23 2.56
3 6 -9 26.26 2.51
-3 6 -8 0.29 0.69
3 6 -8 1.7 0.86
-3 6 -7 -1.02 0.53
3 6 -7 0.46 0.69
-3 6 -6 4.39 0.96
3 6 -6 5.06 1
-3 6 -5 39.29 2.04
3 -6 5 38.08 1.87
3 6 -5 35.88 1.99
-3 6 -4 60.35 2.37
3 -6 4 58.58 2.21
3 6 -4 59.57 2.36
-3 -6 3 72.3 2.25
-3 6 -3 68.05 2.38
3 6 -3 72.78 2.49
3 -6 3 74.14 2.37
-3 6 -2 31.37 1.44
-3 -6 2 31.04 1.31
-3 -6 2 32.62 1.36
3 -6 2 33.18 1.47
3 -6 2 33.75 1.1
3 6 -2 31.74 1.49
-3 6 -1 2.63 0.51
-3 -6 1 2.33 0.46
-3 -6 1 2.23 0.5
3 6 -1 2.64 0.56
3 -6 1 2.32 0.41
3 -6 1 2.36 0.5
-3 -6 0 0.44 0.33
-3 6 0 0.01 0.25
-3 -6 0 -0.22 0.22
3 6 0 -0.06 0.29
3 -6 0 0.05 0.32
3 -6 0 0.03 0.33
-3 -6 -1 3.69 0.66
-3 -6 -1 2.92 0.47
3 -6 -1 2.32 0.56
3 -6 -1 2.34 0.49
3 6 1 2.23 0.4
-3 -6 -2 33.04 1.63
3 -6 -2 33.93 1.6
-3 -6 -3 77.35 2.66
3 -6 -3 76.04 2.61
-3 -6 -4 61.37 2.51
3 -6 -4 64.18 2.56
-3 -6 -5 38.42 2.09
3 -6 -5 33.2 1.99
-3 -6 -6 6.86 1.19
3 -6 -6 3.86 0.95
-3 -6 -7 0.59 0.8
3 -6 -7 -0.58 0.69
-3 -6 -8 0.9 0.9
3 -6 -8 1.79 1.02
-3 -6 -9 26.51 2.72
3 -6 -9 27.44 2.81
-3 -6 -10 14.09 2.08
3 -6 -10 12.39 2.11
-4 6 -10 -0.24 0.85
4 6 -10 -0.51 0.89
-4 6 -9 0.07 0.77
4 6 -9 0.84 0.9
-4 6 -8 0.58 0.7
4 6 -8 0.91 0.83
-4 6 -7 13.04 1.62
4 6 -7 17.42 1.86
-4 6 -6 12.82 1.57
4 6 -6 13.91 1.61
-4 6 -5 40.02 2.09
4 -6 5 43.55 2.02
4 6 -5 39.75 2.08
-4 6 -4 3.65 0.81
4 6 -4 5.22 0.97
4 -6 4 4.09 0.75
-4 -6 3 1.23 0.43
-4 6 -3 1.37 0.5
4 -6 3 1.3 0.47
4 6 -3 1.35 0.52
-4 6 -2 8.43 0.92
-4 -6 2 8.28 0.81
-4 -6 2 8.39 0.81
4 -6 2 7.67 0.82
4 6 -2 8.87 1
-4 -6 1 129.68 3.13
-4 6 -1 127.35 2.99
-4 -6 1 122.44 2.87
4 6 -1 125.37 3.13
4 -6 1 127.99 3.16
4 -6 1 130.84 2.77
-4 6 0 84.31 2.07
-4 -6 0 86.53 2.49
-4 -6 0 86.16 2.15
4 -6 0 90.03 2.31
4 -6 0 90.35 2.47
4 6 0 91.25 2.37
-4 -6 -1 126.04 2.75
-4 -6 -1 120.53 3.22
4 -6 -1 126.43 3.08
4 -6 -1 125.44 3.1
4 6 1 125.56 2.79
-4 -6 -2 8.73 1.01
4 -6 -2 7.71 0.91
4 6 2 8.08 0.61
-4 -6 -3 1.3 0.57
4 -6 -3 1.96 0.64
-4 -6 -4 4.79 0.89
4 -6 -4 5.12 0.95
-4 -6 -5 39.12 2.16
4 -6 -5 43.5 2.21
-4 -6 -6 10.77 1.44
4 -6 -6 10.04 1.43
-4 -6 -7 18.85 2.06
4 -6 -7 17.26 1.93
-4 -6 -8 0.96 0.91
4 -6 -8 1.11 0.85
-4 -6 -9 1.79 1.16
4 -6 -9 1.29 1.12
-4 -6 -10 -0.06 1.11
4 -6 -10 0.2 1.08
-5 6 -10 21.16 2.47
5 6 -10 22.83 2.62
-5 6 -9 3.43 1.09
5 6 -9 6.83 1.47
-5 6 -8 5.46 1.22
5 6 -8 4.13 1.12
-5 6 -7 3.4 0.92
5 6 -7 2.04 0.89
-5 6 -6 6.11 1.09
5 6 -6 7.6 1.26
-5 6 -5 0.63 0.48
5 6 -5 0.26 0.57
5 -6 5 0.69 0.49
-5 6 -4 113.03 3.39
5 -6 4 112.16 3.26
5 6 -4 111.8 3.46
-5 6 -3 34.65 1.64
-5 -6 3 35.51 1.51
5 -6 3 33.03 1.57
5 6 -3 33.57 1.68
-5 6 -2 99.34 2.73
-5 -6 2 101.14 2.67
-5 -6 2 98.66 2.56
5 6 -2 95.07 2.83
5 -6 2 98.29 2.74
-5 -6 1 2.13 0.42
-5 6 -1 2.82 0.49
-5 -6 1 2.17 0.49
5 -6 1 3.19 0.59
5 6 -1 2.48 0.56
5 -6 1 2.37 0.39
-5 6 0 -0.16 0.23
-5 -6 0 -0.15 0.2
-5 -6 0 0.22 0.36
5 -6 0 -0.41 0.29
5 -6 0 0.35 0.31
5 6 0 0.19 0.28
-5 -6 -1 3.31 0.67
-5 -6 -1 2.31 0.41
5 -6 -1 1.6 0.48
5 6 1 2.43 0.46
5 -6 -1 2.04 0.53
-5 -6 -2 92.77 2.29
-5 -6 -2 97.86 2.95
5 6 2 99.47 2.34
5 -6 -2 100.8 2.87
-5 -6 -3 33.14 1.76
-5 -6 -3 33.66 1.13
5 -6 -3 30.66 1.65
-5 -6 -4 113.56 3.52
5 -6 -4 109.16 3.45
-5 -6 -5 -0.02 0.57
5 -6 -5 0.12 0.57
-5 -6 -6 7.84 1.3
5 -6 -6 6.68 1.22
-5 -6 -7 3.67 1.13
5 -6 -7 1.88 0.95
-5 -6 -8 5.25 1.24
5 -6 -8 4.16 1.18
-5 -6 -9 9.9 1.73
5 -6 -9 6.86 1.6
-5 -6 -10 19.09 2.39
5 -6 -10 20.96 2.52
-6 6 -10 0.03 0.96
6 6 -10 0.54 1.06
-6 6 -9 0.54 0.85
6 6 -9 0.62 0.88
-6 6 -8 2.62 0.89
6 6 -8 2.44 0.98
-6 6 -7 70.01 3.11
6 6 -7 68.26 3.16
-6 6 -6 12.31 1.55
6 6 -6 11.74 1.5
-6 6 -5 79.88 2.95
6 -6 5 81.52 2.84
6 6 -5 81.79 3.06
-6 6 -4 24.59 1.51
6 -6 4 22.79 1.42
6 6 -4 25.24 1.61
-6 6 -3 5.44 0.81
6 6 -3 3.63 0.76
6 -6 3 6.46 0.85
-6 -6 2 0.73 0.39
-6 6 -2 0.2 0.34
-6 -6 2 0.68 0.34
6 -6 2 1.21 0.47
6 6 -2 1.01 0.48
-6 -6 1 102.55 2.79
-6 6 -1 103.02 2.6
-6 -6 1 101.6 2.47
6 -6 1 100.2 2.8
6 -6 1 106.62 2.32
6 6 -1 103.44 2.85
-6 6 0 20.65 0.92
-6 -6 0 22.72 0.94
-6 -6 0 20.33 1.21
6 -6 0 21.23 1.03
6 -6 0 21.68 1.21
6 6 0 22.85 1.16
-6 -6 -1 98.78 2.24
6 -6 -1 103.76 2.69
6 6 1 96.25 2.49
6 -6 -1 99.2 2.71
-6 -6 -2 0.86 0.29
-6 -6 -2 1.19 0.52
6 -6 -2 0.79 0.47
6 6 2 0.6 0.34
-6 -6 -3 5.8 0.58
-6 -6 -3 6.46 0.99
6 -6 -3 5.98 0.92
-6 -6 -4 23.15 1.03
-6 -6 -4 24.05 1.65
6 -6 -4 23.52 1.61
-6 -6 -5 78.54 3.06
6 -6 -5 87.57 3.23
-6 -6 -6 10.99 1.49
6 -6 -6 13.76 1.73
-6 -6 -7 68.95 3.19
6 -6 -7 71.74 3.31
-6 -6 -8 3.29 1.09
6 -6 -8 1.99 1.03
-6 -6 -9 1.71 1.11
6 -6 -9 0.96 0.94
-6 -6 -10 1.45 1.24
6 -6 -10 1.02 1.2
-7 6 -10 1.88 1.11
7 6 -10 3.11 1.26
-7 6 -9 3.5 1.11
7 6 -9 2.24 1.06
-7 6 -8 10.38 1.6
7 6 -8 8.66 1.53
-7 6 -7 1.97 0.8
7 6 -7 3.99 1.06
-7 6 -6 12.15 1.44
7 6 -6 14.83 1.68
-7 6 -5 1.81 0.67
7 -6 5 1.3 0.57
7 6 -5 1.89 0.66
-7 6 -4 31.17 1.71
7 -6 4 28.53 1.61
7 6 -4 31.28 1.77
-7 6 -3 0.83 0.47
7 -6 3 1.23 0.43
7 6 -3 1.22 0.59
-7 -6 2 28.17 1.34
-7 6 -2 27.62 1.37
-7 -6 2 25.48 1.18
7 6 -2 25.01 1.43
7 -6 2 28.18 1.41
-7 -6 1 5.93 0.79
-7 -6 1 5.8 0.61
-7 6 -1 4.52 0.62
7 -6 1 5.04 0.71
7 -6 1 5.78 0.54
7 6 -1 4.38 0.73
-7 -6 0 -0.44 0.19
-7 -6 0 -0.25 0.32
-7 6 0 -0.13 0.22
7 6 0 -0.23 0.32
7 -6 0 -0.29 0.31
7 -6 0 0.39 0.3
-7 -6 -1 6.3 0.85
-7 -6 -1 6.05 0.54
7 6 1 4.77 0.65
7 -6 -1 6.08 0.79
7 -6 -1 5.09 0.73
-7 -6 -2 27.21 1
-7 -6 -2 25.36 1.49
7 6 2 26.63 1.22
7 -6 -2 28.45 1.45
-7 -6 -3 1.67 0.39
-7 -6 -3 1.36 0.62
7 -6 -3 1.23 0.58
-7 -6 -4 31.65 1.25
-7 -6 -4 32.76 1.89
7 -6 -4 29.88 1.81
-7 -6 -5 0.92 0.71
7 -6 -5 1.3 0.68
-7 -6 -6 10.32 1.43
7 -6 -6 12.25 1.58
-7 -6 -7 2.57 1
7 -6 -7 3.23 1.03
-7 -6 -8 4.73 1.34
7 -6 -8 5.91 1.38
-7 -6 -9 1.5 1.03
7 -6 -9 0.24 0.98
-7 -6 -10 3.67 1.45
7 -6 -10 1.77 1.23
-8 6 -10 4.9 1.34
8 6 -10 3.54 1.24
-8 6 -9 2.79 1.18
8 6 -9 2.97 1.2
-8 6 -8 3.21 1.07
8 6 -8 4.51 1.24
-8 6 -7 63.85 3.01
8 6 -7 63.31 3.04
-8 6 -6 6.22 1.18
8 -6 6 6.17 1.08
8 6 -6 7.75 1.32
-8 6 -5 24.79 1.7
8 6 -5 25.73 1.75
8 -6 5 25.88 1.64
-8 6 -4 23.96 1.54
8 -6 4 22.41 1.46
8 6 -4 20.62 1.53
-8 6 -3 6.29 0.93
8 -6 3 6.08 0.82
8 6 -3 6.48 1.01
-8 -6 2 22.53 1.24
-8 6 -2 20.08 1.19
8 -6 2 21.35 1.25
8 6 -2 20.04 1.32
-8 -6 1 63.65 2.15
-8 -6 1 65.22 1.82
-8 6 -1 64.68 1.99
8 -6 1 70.85 2.26
8 6 -1 67.95 2.27
-8 -6 0 30.7 1.08
-8 6 0 31.8 1.19
-8 -6 0 32.32 1.52
8 -6 0 29.78 1.22
8 6 0 30.88 1.42
8 -6 0 30.09 1.43
-8 -6 -1 68.14 2.36
-8 -6 -1 67.63 1.66
8 -6 -1 68.83 2.24
8 6 1 68.71 2.12
8 -6 -1 69.11 2.13
-8 -6 -2 20.16 0.84
-8 -6 -2 20.57 1.36
8 -6 -2 21.12 1.3
-8 -6 -3 5.9 0.66
-8 -6 -3 6.03 0.95
8 -6 -3 7.46 1.04
-8 -6 -4 27.57 1.72
-8 -6 -4 24.71 1.16
8 -6 -4 24.63 1.67
-8 -6 -5 25.63 1.84
8 -6 -5 24.77 1.81
-8 -6 -6 7.59 1.23
8 -6 -6 4.53 1.13
-8 -6 -7 66.11 3.13
8 -6 -7 61.58 3.16
-8 -6 -8 2.03 0.99
8 -6 -8 0.22 0.84
-8 -6 -9 1.19 1.1
8 -6 -9 3.06 1.21
-8 -6 -10 1.66 1.26
8 -6 -10 4.42 1.56
-9 6 -10 2.73 1.23
9 6 -10 6.08 1.54
-9 6 -9 5.25 1.37
9 6 -9 2.24 1.03
-9 6 -8 10.03 1.63
9 6 -8 5.38 1.27
-9 6 -7 -0.27 0.64
9 6 -7 0.54 0.67
-9 6 -6 10.11 1.38
9 -6 6 9.31 1.22
9 6 -6 10.06 1.59
-9 6 -5 2.73 0.77
9 6 -5 3.44 0.88
9 -6 5 4.05 0.87
-9 6 -4 50.18 2.23
9 6 -4 55.85 2.45
9 -6 4 57.88 2.28
-9 6 -3 48.08 2.03
9 -6 3 50.57 2.05
9 6 -3 52.56 2.22
-9 6 -2 56.16 2.03
-9 -6 2 54.18 2.02
9 -6 2 58.2 2.11
9 6 -2 59.42 2.26
-9 6 -1 6.41 0.75
-9 -6 1 6.73 0.63
-9 -6 1 5.39 0.8
9 6 -1 5.88 0.85
9 -6 1 6.54 0.82
-9 -6 0 0.28 0.21
-9 6 0 -0.09 0.23
-9 -6 0 -0.17 0.34
9 -6 0 0.11 0.34
9 -6 0 -0.05 0.26
9 6 0 0.14 0.37
-9 -6 -1 5.77 0.45
-9 -6 -1 6.32 0.89
9 -6 -1 6.31 0.75
9 -6 -1 6.08 0.8
9 6 1 6.26 0.78
-9 -6 -2 55.72 1.44
-9 -6 -2 63.42 2.33
9 -6 -2 54.89 2.09
-9 -6 -3 44.42 2.08
-9 -6 -3 51.59 1.71
9 -6 -3 48.35 2.15
-9 -6 -4 52.63 2.4
-9 -6 -4 50.56 1.77
9 -6 -4 55 2.45
-9 -6 -5 3.65 0.91
9 -6 -5 3.94 1.01
-9 -6 -6 8.25 1.34
9 -6 -6 11.1 1.56
-9 -6 -7 -0.59 0.74
9 -6 -7 -0.1 0.77
-9 -6 -8 9.98 1.62
9 -6 -8 5.48 1.37
-9 -6 -9 3.28 1.19
9 -6 -9 3.56 1.32
-9 -6 -10 5.48 1.43
9 -6 -10 3.32 1.38
-10 6 -10 0.31 1.02
10 6 -10 2.73 1.22
-10 6 -9 5.26 1.32
10 6 -9 8.43 1.67
-10 6 -8 5.11 1.2
10 6 -8 5.37 1.33
-10 6 -7 17.87 1.89
10 6 -7 24.26 2.31
-10 6 -6 25.58 1.88
10 -6 6 20.71 1.62
10 6 -6 20.33 2.11
-10 6 -5 14.46 1.52
10 6 -5 14.28 1.64
10 -6 5 15.95 1.49
-10 6 -4 0.58 0.52
10 6 -4 2.4 0.81
10 -6 4 0.42 0.53
-10 6 -3 0.16 0.46
10 -6 3 -0.74 0.37
10 6 -3 0.44 0.44
-10 -6 2 6.07 0.88
-10 6 -2 5.7 0.82
10 6 -2 6.49 0.97
10 -6 2 4.09 0.69
-10 6 -1 6.67 0.81
-10 -6 1 5.96 0.82
10 -6 1 4.26 0.7
10 6 -1 4.17 0.73
-10 -6 0 27.29 0.97
-10 -6 0 26.93 1.45
-10 6 0 26.02 1.13
10 6 0 28.62 1.47
10 -6 0 27.56 1.42
10 -6 0 28.3 1.2
-10 -6 -1 6.79 0.93
-10 6 1 6.2 0.57
10 6 1 4.82 0.73
10 -6 -1 6.05 0.76
10 -6 -1 5.13 0.78
-10 -6 -2 3.78 0.74
-10 -6 -2 5.34 0.67
10 -6 -2 5.38 0.86
-10 -6 -3 -0.29 0.28
-10 -6 -3 0.64 0.5
10 -6 -3 -0.04 0.43
-10 -6 -4 0.48 0.58
-10 -6 -4 0.94 0.4
10 -6 -4 1.33 0.71
-10 -6 -5 14.63 1.63
-10 -6 -5 12.74 1
10 -6 -5 11.66 1.51
-10 -6 -6 20.6 1.96
10 -6 -6 20.7 2.06
-10 -6 -7 14.77 1.81
10 -6 -7 20.87 2.32
-10 -6 -8 7.42 1.43
10 -6 -8 6.86 1.56
-10 -6 -9 5.84 1.5
10 -6 -9 5.01 1.48
-10 -6 -10 0.89 1.25
10 -6 -10 2.74 1.41
11 6 -10 0.43 1.07
-11 6 -9 28.62 2.78
11 6 -9 27.25 2.63
-11 6 -8 -0.02 0.78
11 6 -8 0.42 0.77
-11 6 -7 14.84 1.79
11 6 -7 15.96 1.91
-11 6 -6 0.72 0.69
11 6 -6 -0.01 0.64
11 -6 6 1.89 0.76
-11 6 -5 21.86 1.68
11 -6 5 21.62 1.56
11 6 -5 19.21 1.92
-11 6 -4 21.39 1.51
11 -6 4 23.24 1.54
11 6 -4 21.9 1.61
-11 6 -3 122.09 3.51
11 6 -3 117.32 3.66
11 -6 3 128.21 3.52
-11 6 -2 8.93 1
-11 -6 2 9.93 1.14
11 6 -2 8.37 1.1
11 -6 2 8.36 0.99
-11 6 -1 18.3 1.08
-11 -6 1 18.43 1.22
11 -6 1 18.03 1.21
11 6 -1 21.5 1.36
-11 -6 0 -0.16 0.19
-11 6 0 0.16 0.28
-11 -6 0 -0.35 0.29
11 6 0 0.37 0.42
11 -6 0 -0.21 0.33
11 -6 0 -0.02 0.27
-11 6 1 18.64 0.91
-11 -6 -1 17.01 1.27
11 -6 -1 18.78 1.14
11 -6 -1 18.22 1.22
11 6 1 18.63 1.22
-11 -6 -2 10.98 0.88
-11 -6 -2 9.92 1.15
11 -6 -2 10.48 1.14
-11 -6 -3 125.25 3.77
-11 -6 -3 132.81 3.25
11 -6 -3 124.96 3.73
-11 -6 -4 23.5 1.66
-11 -6 -4 24.66 1.3
11 -6 -4 23.4 1.71
-11 -6 -5 22.28 1.76
-11 -6 -5 22.15 1.3
11 -6 -5 22.17 1.8
-11 -6 -6 1.67 0.82
11 -6 -6 1.83 0.93
-11 -6 -7 15.77 1.8
11 -6 -7 15.08 2.08
-11 -6 -8 -0.14 0.82
11 -6 -8 1.03 0.89
-11 -6 -9 31.95 2.59
11 -6 -9 34.64 2.82
-11 -6 -10 0.16 1.13
12 6 -10 -0.68 0.96
-12 6 -9 1.86 1.05
12 6 -9 1.03 1.04
-12 6 -8 11.29 1.74
12 6 -8 12.83 1.87
-12 6 -7 1.07 0.83
12 6 -7 0.3 0.79
-12 6 -6 11.03 1.5
12 -6 6 13.19 1.46
12 6 -6 14 1.83
-12 6 -5 0.16 0.56
12 -6 5 1.74 0.69
12 6 -5 0.2 0.59
-12 6 -4 1.23 0.64
12 -6 4 1.26 0.61
12 6 -4 0.61 0.6
-12 6 -3 -0.12 0.43
12 -6 3 -0.27 0.37
12 6 -3 -0.05 0.43
-12 -6 2 21.22 1.35
-12 6 -2 19 1.26
12 6 -2 20.79 1.44
12 -6 2 21.44 1.37
-12 6 -1 1.25 0.47
-12 -6 1 2.06 0.54
12 6 -1 1.99 0.58
12 -6 1 1.27 0.51
-12 -6 0 25.74 1.45
-12 6 0 23.69 1.15
12 -6 0 23.09 1.11
12 -6 0 22.72 1.37
12 6 0 24.37 1.44
-12 -6 -1 0.42 0.44
-12 6 1 1.03 0.34
12 -6 -1 1.68 0.55
12 6 1 0.72 0.47
12 -6 -1 1.15 0.46
-12 -6 -2 20.78 1.43
-12 -6 -2 20.86 1.21
12 -6 -2 23.29 1.41
-12 -6 -3 0.07 0.47
-12 -6 -3 0.23 0.35
12 -6 -3 0.32 0.5
-12 -6 -4 1.29 0.5
-12 -6 -4 2.08 0.77
12 -6 -4 0.72 0.67
-12 -6 -5 1.62 0.54
-12 -6 -5 0.46 0.62
12 -6 -5 0.37 0.72
-12 -6 -6 12.52 1.63
12 -6 -6 12.36 1.76
-12 -6 -7 1.35 0.86
12 -6 -7 0.58 0.84
-12 -6 -8 16.19 1.98
12 -6 -8 9.92 1.91
-12 -6 -9 1.82 1.07
12 -6 -9 1.72 1.22
-12 -6 -10 2.27 1.21
-13 6 -9 29.64 2.72
13 6 -9 30.69 2.87
-13 6 -8 6.08 1.35
13 6 -8 3.71 1.25
-13 6 -7 12.54 1.67
13 6 -7 10.32 1.62
-13 6 -6 0.01 0.62
13 6 -6 -0.46 0.56
13 -6 6 0.25 0.62
-13 6 -5 15.06 1.59
13 6 -5 11.89 1.53
13 -6 5 15.23 1.58
-13 6 -4 -0.37 0.47
13 6 -4 -0.3 0.49
13 -6 4 -0.22 0.51
-13 6 -3 105.35 3.28
13 -6 3 99.24 3.17
13 6 -3 108.18 3.53
-13 -6 2 1.08 0.5
-13 6 -2 0.59 0.44
13 -6 2 0.33 0.46
13 6 -2 0.61 0.53
-13 6 -1 27.61 1.37
-13 -6 1 29.06 1.56
13 6 -1 29.89 1.65
13 -6 1 26.58 1.5
-13 6 0 -0.18 0.29
-13 -6 0 -0.17 0.31
13 6 0 0.33 0.44
13 -6 0 -0.06 0.33
13 -6 0 -0.1 0.35
-13 -6 -1 28.58 1.61
-13 6 1 28.98 1.21
13 -6 -1 27.26 1.42
13 -6 -1 30.21 1.56
13 6 1 29.25 1.63
-13 -6 -2 0.75 0.55
-13 -6 -2 1.4 0.46
13 -6 -2 0.09 0.45
-13 -6 -3 105.8 3
-13 -6 -3 104.15 3.42
13 -6 -3 104.26 3.36
-13 -6 -4 0.38 0.59
-13 -6 -4 0.16 0.41
13 -6 -4 1.05 0.64
-13 -6 -5 16.66 1.25
-13 -6 -5 16.03 1.73
13 -6 -5 15.41 1.76
-13 -6 -6 0.8 0.74
13 -6 -6 0.08 0.69
-13 -6 -7 14.46 1.8
13 -6 -7 10.61 1.73
-13 -6 -8 2.69 1.13
13 -6 -8 4.51 1.45
-13 -6 -9 32.15 2.54
13 -6 -9 24.51 2.84
-13 -6 -10 -0.13 1.03
-14 6 -9 0 0.87
14 6 -9 -0.55 0.8
-14 6 -8 12.75 1.87
14 6 -8 15.43 2.16
-14 6 -7 3.73 1.14
14 6 -7 6.42 1.38
-14 6 -6 6.74 1.25
14 -6 6 6.48 1.14
14 6 -6 5.35 1.25
-14 6 -5 1.53 0.78
14 6 -5 2.56 0.88
14 -6 5 2.51 0.77
-14 6 -4 7.6 1.15
14 -6 4 6.42 1.02
14 6 -4 6.76 1.2
-14 6 -3 0.55 0.47
14 -6 3 0.35 0.5
14 6 -3 0.02 0.49
-14 -6 2 38 1.84
-14 6 -2 38.73 1.79
14 6 -2 39.76 2.03
14 -6 2 34.81 1.8
-14 6 -1 11.84 1.1
-14 -6 1 11.68 1.23
14 -6 1 11.26 1.13
14 6 -1 12.13 1.3
-14 -6 0 8.38 1.06
-14 6 0 9.31 0.89
14 -6 0 8.79 0.87
14 6 0 9.42 1.17
14 -6 0 9.71 1.06
-14 6 1 9.91 0.87
-14 -6 -1 10.02 1.15
14 -6 -1 11.81 1.15
14 6 1 11.58 1.3
14 -6 -1 13.01 1.26
-14 -6 -2 37.38 1.97
-14 -6 -2 37.78 1.72
14 -6 -2 38.31 1.83
-14 -6 -3 -0.15 0.4
-14 -6 -3 -0.12 0.52
14 -6 -3 0.4 0.56
-14 -6 -4 6.39 0.89
-14 -6 -4 7.5 1.23
14 -6 -4 6.34 1.16
-14 -6 -5 0.42 0.48
-14 -6 -5 1.88 0.78
14 -6 -5 2.21 0.87
-14 -6 -6 6.5 1.24
14 -6 -6 3.96 1.14
-14 -6 -7 5.97 1.26
14 -6 -7 7.28 1.54
-14 -6 -8 16.8 2.06
14 -6 -8 9.13 1.78
-14 -6 -9 1.98 1.12
14 -6 -9 -1.05 1
-15 6 -9 9.37 1.81
15 6 -9 7.99 1.66
-15 6 -8 9.46 1.6
15 6 -8 8.8 1.8
-15 6 -7 1.17 0.89
15 6 -7 1.29 1.02
-15 6 -6 0.55 0.71
15 6 -6 0.37 0.83
15 -6 6 -0.73 0.58
-15 6 -5 5.75 1.09
15 6 -5 6.42 1.24
15 -6 5 7.17 1.15
-15 6 -4 9.2 1.3
15 -6 4 6.93 1.09
15 6 -4 7.66 1.23
-15 6 -3 36.13 1.9
15 -6 3 37.62 1.93
15 6 -3 37.02 2.12
-15 6 -2 8.53 1.03
-15 -6 2 11.54 1.31
15 6 -2 11.15 1.35
15 -6 2 7.46 1.01
-15 6 -1 18.83 1.21
-15 -6 1 14.79 1.21
15 -6 1 16.35 1.27
15 6 -1 18.97 1.46
-15 -6 0 -0.17 0.36
-15 6 0 0.14 0.31
15 6 0 0 0.47
15 -6 0 -0.31 0.39
-15 -6 -1 13.43 1.36
-15 6 1 14.75 0.99
15 6 1 17.98 1.4
15 -6 -1 17.83 1.3
15 -6 -1 15.01 1.13
-15 -6 -2 10.82 1.11
-15 -6 -2 8.65 1.14
15 -6 -2 7.82 1.07
-15 -6 -3 37.21 1.78
-15 -6 -3 36.03 2.01
15 -6 -3 34.83 1.97
-15 -6 -4 8.51 1.27
-15 -6 -4 6.86 0.96
15 -6 -4 8.6 1.35
-15 -6 -5 4.23 0.81
-15 -6 -5 3.95 0.99
15 -6 -5 3.24 1.02
-15 -6 -6 -0.44 0.63
15 -6 -6 -0.22 0.71
-15 -6 -7 2.37 0.98
15 -6 -7 -1.09 0.66
-15 -6 -8 8.11 1.46
15 -6 -8 9.9 1.91
-15 -6 -9 5.62 1.43
15 -6 -9 7.86 1.96
-16 6 -9 -0.39 1
16 6 -9 1.64 1.11
-16 6 -8 1.71 0.98
16 6 -8 3.35 1.26
-16 6 -7 23.19 2.26
16 6 -7 28.17 2.79
-16 6 -6 2.32 0.79
16 -6 6 1.77 0.73
16 6 -6 2.4 0.99
-16 6 -5 7.02 1.2
16 -6 5 7.6 1.18
16 6 -5 8.93 1.41
-16 6 -4 15.46 1.56
16 6 -4 13.95 1.69
16 -6 4 14.05 1.44
-16 6 -3 9.71 1.15
16 6 -3 5.7 1.08
16 -6 3 5.52 0.99
-16 6 -2 36.49 1.8
-16 -6 2 37.67 1.92
16 6 -2 35.68 2.02
16 -6 2 32.88 1.8
-16 6 -1 40.26 1.78
-16 -6 1 40.86 1.97
16 -6 1 39.14 1.89
16 6 -1 43.55 2.17
-16 6 0 15.37 1.09
-16 -6 0 19.47 1.39
16 -6 0 20.09 1.36
16 6 0 16.36 1.6
-16 -6 -1 40.46 1.98
-16 6 1 39.72 1.6
16 6 1 39.72 2.07
16 -6 -1 40.13 1.8
16 -6 -1 39.69 1.88
-16 -6 -2 36.99 1.82
-16 -6 -2 37.38 1.99
16 -6 -2 35.06 1.85
-16 -6 -3 7.17 0.96
-16 -6 -3 10.55 1.35
16 -6 -3 7.67 1.3
-16 -6 -4 16.28 1.74
-16 -6 -4 13.56 1.31
16 -6 -4 13.55 1.62
-16 -6 -5 7.98 1.06
-16 -6 -5 5.89 1.14
16 -6 -5 6.86 1.31
-16 -6 -6 2.62 0.96
16 -6 -6 1.33 0.99
-16 -6 -7 29.28 2.23
16 -6 -7 21.03 2.42
-16 -6 -8 6.38 1.39
16 -6 -8 5.13 1.54
-16 -6 -9 -0.67 0.97
16 -6 -9 0.42 1.12
17 6 -9 6.97 1.72
-17 6 -8 3.63 1.14
17 6 -8 0.52 0.94
-17 6 -7 0.82 0.87
17 6 -7 1.76 1.01
-17 6 -6 -0.7 0.57
17 -6 6 0.09 0.64
17 6 -6 0.56 0.86
-17 6 -5 3.85 0.95
17 -6 5 2.75 0.84
17 6 -5 2.67 0.97
-17 6 -4 14.97 1.58
17 6 -4 14.57 1.72
17 -6 4 17.67 1.66
-17 6 -3 0.38 0.47
17 6 -3 0.33 0.61
17 -6 3 0.55 0.58
-17 6 -2 5.59 0.94
-17 -6 2 5.73 0.95
17 -6 2 5.99 0.99
17 6 -2 5.32 1.11
-17 -6 1 0.63 0.47
-17 6 -1 1.67 0.56
17 6 -1 1.75 0.73
17 -6 1 1.86 0.66
-17 -6 0 0.29 0.49
-17 6 0 0.65 0.47
17 -6 0 0.36 0.51
17 6 0 0.93 0.62
-17 -6 -1 2.27 0.69
17 -6 -1 1.25 0.62
17 -6 -1 1.04 0.56
17 6 1 0.21 0.54
-17 -6 -2 6.36 0.95
-17 -6 -2 7.23 1.13
17 -6 -2 6.97 1.04
-17 -6 -3 0.59 0.63
-17 -6 -3 0.64 0.5
17 -6 -3 0.32 0.59
-17 -6 -4 14.35 1.41
-17 -6 -4 17.82 1.77
17 -6 -4 14.68 1.72
-17 -6 -5 2.73 0.87
-17 -6 -5 2.87 0.75
17 -6 -5 1.77 0.94
-17 -6 -6 0.19 0.54
-17 -6 -6 0.27 0.66
17 -6 -6 -0.12 0.77
-17 -6 -7 2.05 0.95
17 -6 -7 1.58 1.05
-17 -6 -8 2.17 1.04
17 -6 -8 1.47 1.07
17 -6 -9 4.2 1.78
-18 6 -8 0.09 0.88
18 6 -8 1.01 0.96
-18 6 -7 10.83 1.63
18 6 -7 12.58 2.01
-18 6 -6 0.44 0.75
18 6 -6 2.14 0.97
18 -6 6 0.88 0.74
-18 6 -5 18 1.83
18 -6 5 21.73 1.73
18 6 -5 21.08 2.23
-18 6 -4 1.36 0.72
18 -6 4 2.62 0.79
18 6 -4 2.16 0.88
-18 6 -3 0.24 0.55
18 -6 3 0.52 0.61
18 6 -3 0.26 0.62
-18 6 -2 1.1 0.59
18 -6 2 2.11 0.68
18 6 -2 1.97 0.82
-18 6 -1 23.61 1.48
-18 -6 1 25.73 1.66
18 6 -1 23.51 1.75
18 -6 1 24.29 1.57
-18 6 0 0.77 0.44
-18 -6 0 0.25 0.49
18 6 0 1.23 0.68
18 -6 0 -0.17 0.47
-18 -6 -1 22.55 1.59
18 -6 -1 25.91 1.63
-18 -6 -2 1.09 0.57
-18 -6 -2 1.1 0.68
18 -6 -2 0.89 0.6
-18 -6 -3 1.42 0.67
-18 -6 -3 -0.08 0.47
18 -6 -3 0.4 0.55
-18 -6 -4 1.77 0.68
-18 -6 -4 1.68 0.82
18 -6 -4 0.93 0.77
-18 -6 -5 22.14 1.61
-18 -6 -5 24.88 1.91
18 -6 -5 27.51 2.52
-18 -6 -6 3.75 1.06
-18 -6 -6 1.92 0.77
18 -6 -6 2.48 1.09
-18 -6 -7 17 1.92
18 -6 -7 15.83 2.22
-18 -6 -8 1.05 0.99
18 -6 -8 -0.61 0.92
-19 6 -8 1.93 1.08
19 6 -8 2.2 1.22
-19 6 -7 0.41 0.83
19 6 -7 0.25 0.98
-19 6 -6 0.57 0.75
19 -6 6 0.36 0.68
19 6 -6 0.89 0.81
-19 6 -5 0.37 0.64
19 6 -5 0.58 0.82
19 -6 5 0.1 0.64
-19 6 -4 32.77 2.08
19 -6 4 27.47 1.83
19 6 -4 31.07 2.2
-19 6 -3 5.05 0.98
19 -6 3 4.98 1
19 6 -3 5.93 1.24
-19 6 -2 21.65 1.56
19 -6 2 20.24 1.53
19 6 -2 22.76 2.12
-19 -6 1 0.79 0.54
-19 6 -1 0.91 0.49
19 -6 1 0.32 0.52
19 6 -1 0.63 0.6
-19 6 0 0.43 0.48
-19 -6 0 0.61 0.51
19 -6 0 0.4 0.53
19 6 0 1.25 0.67
-19 -6 -1 0.65 0.54
19 -6 -1 -0.95 0.45
-19 -6 -2 22.44 1.67
-19 -6 -2 21.17 1.52
19 -6 -2 19.05 1.56
-19 -6 -3 5.02 0.96
-19 -6 -3 3.13 0.89
19 -6 -3 7.4 1.19
-19 -6 -4 35.73 2.01
-19 -6 -4 32.24 2.13
19 -6 -4 33.97 2.27
-19 -6 -5 1.3 0.8
-19 -6 -5 0.71 0.6
19 -6 -5 0.97 0.81
-19 -6 -6 1.58 0.88
-19 -6 -6 0.13 0.59
19 -6 -6 -1.08 0.77
-19 -6 -7 0.57 0.77
19 -6 -7 0.6 1.05
-19 -6 -8 4.43 1.33
19 -6 -8 4.08 1.53
-20 6 -8 0.11 0.96
20 6 -8 0.22 0.98
-20 6 -7 3.52 1.23
20 6 -7 4.65 1.45
-20 6 -6 0.7 0.85
20 -6 6 1.28 0.8
20 6 -6 0.28 0.81
-20 6 -5 8.55 1.41
20 -6 5 7.21 1.22
20 6 -5 10.19 1.68
-20 6 -4 0.58 0.69
20 -6 4 -1.01 0.52
20 6 -4 1.14 0.81
-20 6 -3 1.97 0.73
20 -6 3 0.88 0.68
20 6 -3 2.02 0.94
-20 6 -2 0.3 0.55
20 6 -2 0.61 0.73
20 -6 2 0.56 0.65
-20 -6 1 24.3 1.68
-20 6 -1 23.45 1.56
20 6 -1 26.56 1.94
20 -6 1 26.09 1.67
-20 6 0 1.6 0.59
-20 -6 0 3.34 0.82
20 -6 0 3.38 0.87
20 6 0 2.53 0.93
-20 -6 -1 26.95 1.77
20 -6 -1 26.62 1.68
-20 -6 -2 0.88 0.57
-20 -6 -2 1 0.65
20 -6 -2 1.41 0.7
20 -6 -2 0.55 0.62
-20 -6 -3 2.75 0.8
-20 -6 -3 1.61 0.69
20 -6 -3 1.67 0.77
-20 -6 -4 0.42 0.56
-20 -6 -4 -0.01 0.67
20 -6 -4 0.48 0.78
-20 -6 -5 8.3 1.28
-20 -6 -5 9.01 1.47
20 -6 -5 7.45 1.49
-20 -6 -6 1.95 0.89
-20 -6 -6 1.15 0.7
20 -6 -6 0.79 0.96
-20 -6 -7 6.32 1.42
20 -6 -7 4.93 1.51
20 -6 -8 0.15 1.04
-21 6 -8 5.78 1.51
21 6 -8 1.52 1.19
-21 6 -7 1.27 1
21 6 -7 -1.34 0.87
-21 6 -6 0.3 0.83
21 6 -6 -0.73 0.87
21 -6 6 -0.1 0.68
-21 6 -5 11.85 1.63
21 -6 5 12.33 1.51
21 6 -5 11.71 1.84
-21 6 -4 4.04 1.03
21 6 -4 4.11 1.2
21 -6 4 2.49 0.83
-21 6 -3 13.03 1.48
21 6 -3 16.21 2.01
21 -6 3 12.51 1.43
-21 6 -2 21.14 1.63
21 -6 2 23.08 1.69
21 6 -2 20.7 2.08
-21 6 -1 4.87 0.9
-21 -6 1 7.75 1.18
21 6 -1 5.69 1.16
21 -6 1 5.42 0.95
-21 6 0 -0.66 0.43
-21 -6 0 -0.47 0.47
21 6 0 0.34 0.6
21 -6 0 0.42 0.56
-21 -6 -1 5.04 1.01
21 -6 -1 6.4 1.06
-21 -6 -2 21.47 1.7
-21 -6 -2 22 1.64
21 -6 -2 23.25 1.69
-21 -6 -3 10.9 1.41
-21 -6 -3 12.58 1.45
21 -6 -3 13.6 1.61
-21 -6 -4 4.68 1.05
-21 -6 -4 3.68 1.03
21 -6 -4 5.08 1.29
-21 -6 -5 10.66 1.55
-21 -6 -5 11.12 1.41
21 -6 -5 13.78 1.88
-21 -6 -6 0.94 0.79
-21 -6 -6 0.58 0.69
21 -6 -6 -0.94 0.77
-21 -6 -7 1.31 0.93
21 -6 -7 0.66 1.13
21 -6 -8 7.54 1.84
-22 6 -7 11.63 1.86
22 6 -7 7.39 1.72
-22 6 -6 14.4 1.87
22 -6 6 11.31 1.54
22 6 -6 10.73 1.85
-22 6 -5 6.82 1.32
22 -6 5 7.43 1.31
22 6 -5 7.8 1.66
-22 6 -4 0.9 0.73
22 6 -4 -1.14 0.62
22 -6 4 0.48 0.67
-22 6 -3 0.45 0.68
22 -6 3 1.41 0.71
22 6 -3 1.17 0.91
-22 6 -2 0.38 0.58
22 6 -2 -0.71 0.56
22 -6 2 0.7 0.63
-22 -6 1 2.34 0.74
-22 6 -1 2.62 0.79
22 6 -1 3.5 1.01
22 -6 1 2.74 0.87
-22 6 0 21.89 1.52
-22 -6 0 20.97 1.68
22 6 0 25.52 2.03
22 -6 0 25.44 1.72
-22 -6 -1 4.55 1.01
22 -6 -1 3.88 0.92
-22 -6 -2 -1.05 0.5
-22 -6 -2 0.63 0.57
22 -6 -2 -0.35 0.6
-22 -6 -3 0.17 0.65
-22 -6 -3 -0.55 0.44
22 -6 -3 -0.3 0.62
-22 -6 -4 0.87 0.77
-22 -6 -4 0.68 0.71
22 -6 -4 0.35 0.82
-22 -6 -5 7.88 1.35
-22 -6 -5 6.13 1.18
22 -6 -5 8.33 1.63
-22 -6 -6 11.91 1.67
-22 -6 -6 12.85 1.58
22 -6 -6 15.85 2.16
-22 -6 -7 11.05 1.81
22 -6 -7 8.77 1.8
-23 6 -7 -0.41 0.93
23 6 -7 1.32 1.18
-23 6 -6 7.86 1.53
23 6 -6 8.74 1.78
-23 6 -5 2.46 1.08
23 6 -5 2.41 1.26
23 -6 5 2.77 0.97
-23 6 -4 0.8 0.72
23 6 -4 1.05 0.84
23 -6 4 0 0.66
-23 6 -3 24.24 1.89
23 6 -3 18.71 2.13
23 -6 3 21.91 1.74
-23 6 -2 4.61 0.98
23 -6 2 4.13 1.02
23 6 -2 2.94 1
-23 6 -1 11.27 1.36
23 -6 1 11.13 1.33
23 6 -1 16.64 2.04
-23 -6 0 0.81 0.61
-23 6 0 -0.38 0.55
23 -6 0 0.57 0.62
23 6 0 -0.19 0.65
-23 -6 -1 14.49 1.63
23 -6 -1 11.58 1.39
-23 -6 -2 5.38 1.15
-23 -6 -2 8.13 1.3
23 -6 -2 5.97 1.13
-23 -6 -3 22.16 2.03
-23 -6 -3 21.28 1.96
23 -6 -3 20.27 2.22
-23 -6 -4 1.16 0.75
-23 -6 -4 -0.01 0.67
23 -6 -4 0.45 0.87
-23 -6 -5 3.49 1.03
-23 -6 -5 2.66 0.9
23 -6 -5 2.5 1.17
-23 -6 -6 6.01 1.32
-23 -6 -6 4.98 1.12
23 -6 -6 4.44 1.44
23 -6 -7 1.03 1.22
-24 6 -7 1.37 1.15
24 6 -7 2.88 1.58
-24 6 -6 9.85 1.73
24 6 -6 10.04 1.89
-24 6 -5 3.44 1.14
24 6 -5 3.76 1.35
-24 6 -4 4.36 1.17
24 -6 4 3.92 1.09
24 6 -4 1.54 1.03
-24 6 -3 2.11 0.85
24 -6 3 2.01 0.84
24 6 -3 1.08 0.85
-24 6 -2 5.23 1.04
24 -6 2 2.75 0.88
24 6 -2 6.27 1.41
-24 6 -1 2.81 0.81
24 -6 1 3.24 0.91
24 6 -1 3.39 1.09
-24 -6 0 41.73 2.31
24 -6 0 45.68 2.27
24 6 0 44.25 2.67
-24 -6 -1 3.48 0.98
24 6 1 1.35 0.86
24 -6 -1 3.27 0.84
-24 -6 -2 5.7 1.09
-24 -6 -2 4.63 1.06
24 -6 -2 2.92 0.87
-24 -6 -3 1.74 0.85
-24 -6 -3 3.26 0.92
-24 -6 -4 2.46 0.92
-24 -6 -4 1.29 0.93
24 -6 -4 2.1 1.06
-24 -6 -5 3.93 1.08
-24 -6 -5 3.6 1.02
24 -6 -5 2.81 1.32
-24 -6 -6 13 1.77
-24 -6 -6 15.13 1.81
24 -6 -6 14.45 2.18
24 -6 -7 0.66 1.16
-25 6 -6 4.38 1.24
25 6 -6 1.39 1.11
-25 6 -5 2.75 1.08
25 6 -5 5.19 1.42
-25 6 -4 4.6 1.24
25 6 -4 3.31 1.15
-25 6 -3 14.94 1.69
25 6 -3 12.37 1.79
25 -6 3 13.07 1.51
-25 6 -2 0.9 0.76
25 -6 2 2.17 0.76
25 6 -2 0.18 0.73
-25 6 -1 1.93 0.78
25 -6 1 1.2 0.76
25 6 -1 -0.56 0.67
-25 -6 0 -0.64 0.55
25 6 0 0.96 0.81
25 -6 0 -0.91 0.53
-25 -6 -1 2.08 0.84
25 -6 -1 1.86 0.79
25 6 1 1.52 0.93
-25 -6 -2 0.64 0.7
-25 -6 -2 0.38 0.67
25 -6 -2 1.24 0.78
-25 -6 -3 12.83 1.68
-25 -6 -3 20.53 2.07
-25 -6 -4 3.29 0.98
-25 -6 -4 2.65 0.94
25 -6 -4 2.75 1.11
-25 -6 -5 6.25 1.29
-25 -6 -5 4.29 1.12
25 -6 -5 2.47 1.22
-25 -6 -6 2.74 1.07
25 -6 -6 2.8 1.36
25 -6 -7 -0.97 1.07
-26 6 -6 6.35 1.49
26 6 -6 6.35 1.74
-26 6 -5 -0.48 0.75
26 6 -5 0.3 0.89
-26 6 -4 9.84 1.64
26 6 -4 8.83 1.6
-26 6 -3 1.12 0.74
26 6 -3 0.69 0.81
-26 6 -2 7.87 1.29
26 6 -2 10.67 1.76
26 -6 2 7.73 1.23
-26 6 -1 0.29 0.63
26 -6 1 -0.14 0.63
26 6 -1 1.39 0.93
-26 -6 0 25.34 2.23
26 -6 0 24.94 1.86
26 6 0 21.88 2.31
-26 -6 -1 0.49 0.68
26 -6 -1 0.48 0.68
26 6 1 0.87 0.86
-26 -6 -2 7.67 1.32
-26 -6 -2 7.49 1.4
26 -6 -2 10.88 1.47
-26 -6 -3 1.28 0.78
-26 -6 -3 0.06 0.7
26 -6 -3 1.81 0.87
-26 -6 -4 7.83 1.38
-26 -6 -4 9.57 1.51
-26 -6 -5 0.39 0.78
-26 -6 -5 -0.06 0.83
26 -6 -5 0.96 1.08
-26 -6 -6 5.82 1.32
26 -6 -6 8.23 1.93
-27 6 -5 10.04 1.62
27 6 -5 8.99 1.85
-27 6 -4 -0.71 0.73
27 6 -4 0.82 0.97
-27 6 -3 8.07 1.35
27 6 -3 10.36 1.91
-27 6 -2 3.87 0.99
27 6 -2 3.32 1.23
-27 6 -1 0.1 0.64
27 6 -1 0.51 0.77
27 6 0 0.84 0.9
27 -6 0 -0.27 0.66
-27 -6 -1 0.03 0.65
27 6 1 -0.19 0.84
27 -6 -1 -0.29 0.6
-27 -6 -2 3.56 1.01
-27 -6 -2 2.2 0.93
27 -6 -2 2.04 0.87
-27 -6 -3 11.28 1.6
-27 -6 -3 9.89 1.55
27 -6 -3 8.36 1.4
-27 -6 -4 0.68 0.81
-27 -6 -4 0.51 0.85
-27 -6 -5 11.3 1.77
-27 -6 -5 10.29 1.51
27 -6 -5 12.12 2.02
-27 -6 -6 0.31 0.91
27 -6 -6 -0.44 1.22
-28 6 -5 0.16 0.86
28 6 -5 1.02 1.13
-28 6 -4 -0.72 0.76
28 6 -4 -0.58 0.94
-28 6 -3 1.2 0.89
28 6 -3 0.71 0.86
-28 6 -2 2.68 1.01
28 6 -2 2.97 1.25
-28 6 -1 14.8 1.68
28 6 -1 15.65 2.27
28 6 0 2.74 1.19
-28 -6 -1 17.76 1.99
28 6 1 17.97 2.23
28 -6 -1 19.23 1.89
-28 -6 -2 3.12 1.05
-28 -6 -2 3.34 1.09
28 -6 -2 3.53 1.04
-28 -6 -3 -0.57 0.66
-28 -6 -3 0.08 0.73
28 -6 -3 -0.68 0.72
-28 -6 -4 -0.34 0.77
-28 -6 -4 -0.02 0.73
-28 -6 -5 0.66 0.95
-29 6 -5 -0.34 0.96
-29 6 -4 9.09 1.65
29 6 -4 5.76 1.6
-29 6 -3 1.01 0.94
29 6 -3 1.67 0.96
-29 6 -2 16.04 1.81
29 6 -2 11.65 2.04
29 6 -1 2.73 1.17
29 6 0 0.52 0.92
-29 -6 -1 6.64 1.3
29 6 1 2.69 1.23
-29 -6 -2 12.88 1.72
29 -6 -2 13.96 1.66
-29 -6 -3 2.95 1.08
-29 -6 -3 2.04 0.93
29 -6 -3 3.76 1.1
-29 -6 -4 7.07 1.47
-29 -6 -4 5.52 1.4
-30 6 -4 0.36 0.85
-30 6 -3 0.7 0.98
30 6 -3 -0.96 0.89
-30 6 -2 0.83 0.89
30 6 -2 1.88 1.22
30 6 -1 16.25 2.45
30 6 0 1.64 1.13
30 6 1 13.21 2.2
-30 -6 -2 3.43 1.09
-30 -6 -3 0.31 0.77
-30 -6 -3 0.2 0.76
-30 -6 -4 -1.36 0.74
30 -6 -4 -1.17 0.88
-31 6 -3 1.71 1.07
-31 6 -2 2.25 1.01
31 6 -2 1.17 1.02
31 6 -1 1.98 1.22
31 6 0 0.9 1.14
31 6 1 0.86 1.14
-31 -6 -2 2.66 0.98
-31 -6 -3 1.29 0.96
-31 -6 -3 1.69 0.98
-32 6 -2 0.16 0.93
0 7 -10 45.5 3.09
0 7 -9 0.12 0.93
0 7 -8 9.04 1.65
0 7 -7 -0.33 0.59
0 7 -6 5.4 1.19
0 7 -5 -0.42 0.46
0 7 -4 141.53 4.06
0 -7 4 151.43 3.93
0 -7 3 -0.06 0.38
0 -7 3 0.19 0.27
0 7 -3 -0.4 0.29
0 7 -2 36.65 1.65
0 -7 2 38.09 1.41
0 -7 2 39 1.62
0 -7 1 -0.08 0.3
0 -7 1 -0.15 0.26
0 7 -1 0.09 0.29
0 -7 0 0.02 0.3
0 7 0 -0.21 0.24
0 -7 0 -0.27 0.32
0 -7 -1 -0.19 0.28
0 -7 -1 -0.21 0.39
0 -7 -2 38.25 1.58
0 -7 -2 38.15 1.8
0 -7 -3 0.12 0.54
0 -7 -4 148.86 4.28
0 -7 -5 -0.59 0.56
0 -7 -6 1.27 0.8
0 -7 -7 0.05 0.87
0 -7 -8 8.02 1.51
0 -7 -9 0.25 0.94
0 -7 -10 55.63 3.6
-1 7 -10 -0.38 0.91
1 7 -10 0.16 0.92
-1 7 -9 0.81 0.95
1 7 -9 0.17 0.9
-1 7 -8 -0.26 0.75
1 7 -8 0.31 0.75
-1 7 -7 27.34 2.1
1 7 -7 29.92 2.17
-1 7 -6 7.05 1.3
1 7 -6 7.02 1.23
-1 7 -5 24.48 1.71
1 -7 5 26.66 1.65
1 7 -5 29.01 1.85
-1 -7 4 1.03 0.52
-1 7 -4 0.95 0.56
1 7 -4 1.35 0.62
1 -7 4 0.59 0.47
-1 7 -3 0.36 0.42
-1 -7 3 0.81 0.45
-1 -7 3 0.03 0.29
1 -7 3 0.13 0.28
1 -7 3 0.46 0.42
1 7 -3 0.75 0.48
-1 7 -2 1.18 0.47
-1 -7 2 0.94 0.42
-1 -7 2 0.59 0.35
1 -7 2 1.83 0.51
1 7 -2 1.22 0.46
1 -7 2 1.12 0.36
-1 7 -1 20.18 1.09
-1 -7 1 19.75 1.12
-1 -7 1 21.65 1.14
1 7 -1 19.77 1.13
1 -7 1 21.43 1.08
1 -7 1 22.55 1.22
-1 -7 0 35.46 1.44
-1 7 0 36.23 1.31
-1 -7 0 36.33 1.57
1 -7 0 37.84 1.52
1 7 0 40.26 1.43
1 -7 0 36.27 1.5
-1 -7 -1 21.53 1.12
-1 -7 -1 20.65 1.29
1 -7 -1 21.85 1.17
1 -7 -1 20.62 1.28
-1 -7 -2 0.19 0.46
-1 -7 -2 1.04 0.43
1 -7 -2 1.92 0.58
1 -7 -2 1.26 0.46
-1 -7 -3 1.53 0.63
1 -7 -3 0.87 0.61
-1 -7 -4 0.43 0.55
1 -7 -4 0.01 0.56
-1 -7 -5 29.62 1.97
1 -7 -5 30.75 2.03
-1 -7 -6 5.32 1.15
1 -7 -6 4.42 1.12
-1 -7 -7 24.63 2.42
1 -7 -7 28.79 2.19
-1 -7 -8 -0.35 0.79
1 -7 -8 -0.67 0.77
-1 -7 -9 0.44 1.01
1 -7 -9 -0.03 0.93
-1 -7 -10 -0.01 1.16
1 -7 -10 -0.1 1.05
-2 7 -10 38.23 2.83
2 7 -10 32.94 3.07
-2 7 -9 9.5 1.81
2 7 -9 5.96 1.44
-2 7 -8 12.4 1.86
2 7 -8 9.46 1.61
-2 7 -7 0.75 0.71
2 7 -7 1.94 0.97
-2 7 -6 1.03 0.74
2 7 -6 0.88 0.68
-2 7 -5 8.13 1.19
2 -7 5 13.22 1.36
2 7 -5 12.19 1.46
-2 7 -4 79.59 2.82
-2 -7 4 77.51 2.64
2 -7 4 72.45 2.61
2 7 -4 78.97 2.86
-2 -7 3 13.15 1.17
-2 7 -3 12.38 1.22
-2 -7 3 10.28 0.92
2 -7 3 11.95 1.13
2 7 -3 11.6 1.22
2 -7 3 10.25 0.72
-2 -7 2 58.38 1.99
-2 -7 2 54.4 1.84
-2 7 -2 58.96 2.05
2 -7 2 55.32 1.67
2 -7 2 58.38 2.06
2 7 -2 54.07 2.06
-2 -7 1 10.31 0.94
-2 -7 1 10.07 0.89
-2 7 -1 9.8 0.93
2 7 -1 9.14 0.9
2 -7 1 9.91 0.93
2 -7 1 10.31 0.79
-2 -7 0 0.01 0.34
-2 -7 0 -0.05 0.29
-2 7 0 -0.18 0.23
2 -7 0 0.06 0.3
2 -7 0 -0.39 0.3
2 7 0 -0.14 0.3
-2 -7 -1 11.3 0.94
-2 -7 -1 10.29 1.07
2 -7 -1 8.93 0.98
2 -7 -1 11.35 1.01
2 7 1 10.88 0.74
-2 -7 -2 54.44 1.81
-2 -7 -2 60.78 2.3
2 -7 -2 53.95 2.14
-2 -7 -3 11.08 1.24
2 -7 -3 11.37 1.25
-2 -7 -4 75.89 2.9
2 -7 -4 71.36 2.82
-2 -7 -5 9.75 1.33
2 -7 -5 14.45 1.58
-2 -7 -6 2.33 0.92
2 -7 -6 2.01 0.87
-2 -7 -7 1.38 0.91
2 -7 -7 1.83 0.92
-2 -7 -8 11.96 1.89
2 -7 -8 6.34 1.43
-2 -7 -9 6.71 1.58
2 -7 -9 8.06 1.66
-2 -7 -10 31.98 3.12
2 -7 -10 30.05 3.02
-3 7 -10 0.82 1.07
3 7 -10 0.43 0.99
-3 7 -9 1.08 0.93
3 7 -9 0.18 0.87
-3 7 -8 8.62 1.45
3 7 -8 13.1 1.85
-3 7 -7 52.73 2.81
3 7 -7 53.43 2.78
-3 7 -6 69.6 3.04
3 7 -6 68.46 2.98
-3 7 -5 13.57 1.49
3 -7 5 12.68 1.32
3 7 -5 10.1 1.35
-3 -7 4 12.59 1.18
-3 7 -4 10.25 1.23
3 -7 4 13.44 1.3
3 7 -4 15.15 1.53
-3 -7 3 2.71 0.56
-3 7 -3 3.51 0.73
-3 -7 3 2.84 0.55
3 -7 3 2.98 0.43
3 7 -3 3.25 0.76
3 -7 3 2.59 0.62
-3 -7 2 7.26 0.81
-3 -7 2 9.13 0.89
-3 7 -2 8.38 0.96
3 -7 2 8.74 0.96
3 7 -2 9.33 1.06
3 -7 2 7.87 0.63
-3 7 -1 8.9 0.91
-3 -7 1 9.25 0.87
-3 -7 1 7.68 0.86
3 -7 1 8.74 0.79
3 7 -1 9.57 0.97
3 -7 1 8.65 0.91
-3 -7 0 113.87 2.78
-3 -7 0 114.72 3.07
-3 7 0 109.41 2.6
3 -7 0 114.36 2.89
3 7 0 115.53 2.83
3 -7 0 113.77 3.01
-3 -7 -1 8.61 0.99
-3 -7 -1 9.44 0.76
3 7 1 10.25 0.75
3 -7 -1 10.11 0.94
3 -7 -1 10.06 1.02
-3 -7 -2 7.83 1.03
-3 -7 -2 7.05 0.74
3 -7 -2 7.5 0.97
-3 -7 -3 2.92 0.8
3 -7 -3 2.12 0.67
-3 -7 -4 10.84 1.37
3 -7 -4 11.64 1.36
-3 -7 -5 13.32 1.55
3 -7 -5 14.94 1.67
-3 -7 -6 69.1 3.08
3 -7 -6 64.52 3.02
-3 -7 -7 55.19 2.92
3 -7 -7 52.89 2.93
-3 -7 -8 12.39 1.87
3 -7 -8 14.59 1.95
-3 -7 -9 -1.73 0.82
3 -7 -9 -0.23 0.89
-3 -7 -10 1.5 1.26
3 -7 -10 1.44 1.38
-4 7 -10 4.77 1.42
4 7 -10 4.59 1.43
-4 7 -9 14.63 1.94
4 7 -9 14.45 2.04
-4 7 -8 9.22 1.54
4 7 -8 6.04 1.33
-4 7 -7 -0.58 0.58
4 7 -7 -0.35 0.6
-4 7 -6 8.5 1.3
4 7 -6 9.79 1.48
-4 7 -5 0.64 0.65
4 -7 5 0.64 0.55
4 7 -5 0.54 0.56
-4 7 -4 30.02 1.75
4 -7 4 28.31 1.62
4 7 -4 27.77 1.72
-4 -7 3 46.58 1.77
-4 -7 3 47 1.84
-4 7 -3 50.71 2.06
4 7 -3 47.31 2.09
4 -7 3 45.79 1.95
-4 7 -2 57.53 2.05
-4 -7 2 57.71 1.96
-4 -7 2 55.18 1.93
4 -7 2 55.77 1.6
4 7 -2 60.54 2.18
4 -7 2 55.09 2.06
-4 -7 1 3.43 0.55
-4 -7 1 2.63 0.56
-4 7 -1 4.12 0.65
4 7 -1 4.26 0.74
4 -7 1 3.42 0.52
4 -7 1 3.19 0.61
-4 -7 0 -0.63 0.29
-4 7 0 0.22 0.26
-4 -7 0 -0.09 0.25
4 7 0 0.08 0.32
4 -7 0 0.47 0.34
4 -7 0 -0.13 0.3
-4 -7 -1 4.94 0.6
-4 -7 -1 2.66 0.63
4 7 1 3.64 0.53
4 -7 -1 3.61 0.66
4 -7 -1 2.92 0.6
-4 -7 -2 50.27 2.14
-4 -7 -2 52.92 1.71
4 7 2 54.96 1.59
4 -7 -2 50.67 2.07
-4 -7 -3 48.61 2.2
4 -7 -3 45.84 2.1
-4 -7 -4 30.3 1.87
4 -7 -4 31.2 1.88
-4 -7 -5 1.06 0.73
4 -7 -5 0.12 0.65
-4 -7 -6 9.92 1.51
4 -7 -6 7.19 1.3
-4 -7 -7 -0.62 0.73
4 -7 -7 0.36 0.84
-4 -7 -8 7.96 1.53
4 -7 -8 9.05 1.57
-4 -7 -9 14.56 2.08
4 -7 -9 14.01 2.13
-4 -7 -10 5.73 1.6
4 -7 -10 3.92 1.45
-5 7 -10 3.01 1.26
5 7 -10 2.24 1.22
-5 7 -9 1.4 0.84
5 7 -9 -0.24 0.86
-5 7 -8 15.47 1.92
5 7 -8 18.05 2.11
-5 7 -7 2.77 0.91
5 7 -7 2.13 0.87
-5 7 -6 65.59 2.89
5 7 -6 60.48 2.89
-5 7 -5 -0.44 0.49
5 7 -5 -0.3 0.43
5 -7 5 0.71 0.51
-5 7 -4 19.33 1.44
5 7 -4 20.62 1.54
5 -7 4 22.17 1.47
-5 -7 3 3.56 0.65
-5 -7 3 2.8 0.58
-5 7 -3 4.26 0.75
5 7 -3 2.11 0.69
5 -7 3 3.05 0.63
-5 7 -2 28.23 1.42
-5 -7 2 30.19 1.41
-5 -7 2 28.48 1.34
5 7 -2 29.81 1.57
5 -7 2 28.71 1.49
-5 -7 1 5.61 0.68
-5 -7 1 6.3 0.83
-5 7 -1 5.68 0.71
5 -7 1 5.2 0.75
5 7 -1 7.55 0.9
5 -7 1 5.77 0.63
-5 -7 0 102.2 2.5
-5 7 0 101.09 2.4
-5 -7 0 99.15 2.89
5 7 0 104.43 2.74
5 -7 0 99.05 2.83
5 -7 0 101.98 2.66
-5 -7 -1 6.79 0.69
-5 -7 -1 6.01 0.9
5 -7 -1 6.22 0.81
5 -7 -1 5.34 0.74
5 7 1 5.98 0.7
-5 -7 -2 27.89 1.18
-5 -7 -2 26.34 1.57
5 -7 -2 29.12 1.57
5 7 2 29.54 1.2
-5 -7 -3 3.55 0.78
5 -7 -3 2.69 0.74
-5 -7 -4 22.14 1.67
5 -7 -4 21.28 1.64
-5 -7 -5 0.19 0.66
5 -7 -5 0.23 0.62
-5 -7 -6 63.08 2.96
5 -7 -6 62.05 2.98
-5 -7 -7 2.71 1.02
5 -7 -7 1.51 0.99
-5 -7 -8 15.24 2.05
5 -7 -8 14.07 1.93
-5 -7 -9 0.8 1.14
5 -7 -9 1 1.05
-5 -7 -10 1.68 1.3
5 -7 -10 0.77 1.17
-6 7 -10 1.91 1.22
6 7 -10 0.81 1.08
-6 7 -9 16.87 2.1
6 7 -9 20.16 2.28
-6 7 -8 4.53 1.24
6 7 -8 3.3 1.02
-6 7 -7 1.37 0.84
6 7 -7 -0.09 0.68
-6 7 -6 1.4 0.69
6 7 -6 1.48 0.85
6 -7 6 1.29 0.68
-6 7 -5 1.87 0.73
6 -7 5 3.15 0.72
6 7 -5 3.02 0.88
-6 7 -4 0.23 0.48
6 -7 4 -0.05 0.44
6 7 -4 0.07 0.47
-6 7 -3 91.25 2.88
-6 -7 3 89.12 2.66
-6 -7 3 86.78 2.66
6 7 -3 93.7 3.03
6 -7 3 89.85 2.88
-6 -7 2 5.11 0.69
-6 7 -2 4.95 0.75
-6 -7 2 6.08 0.8
6 7 -2 7.88 1.03
6 -7 2 5.4 0.8
-6 -7 1 7.9 0.93
-6 7 -1 6.91 0.79
-6 -7 1 6.45 0.7
6 7 -1 7.36 0.93
6 -7 1 8 0.72
6 -7 1 8.97 0.96
-6 -7 0 -0.25 0.36
-6 -7 0 -0.11 0.23
-6 7 0 -0.02 0.22
6 7 0 -0.01 0.36
6 -7 0 -0.13 0.34
6 -7 0 -0.35 0.29
-6 -7 -1 7.67 0.68
-6 -7 -1 6.91 0.93
6 -7 -1 8.31 0.94
6 -7 -1 6.75 0.85
6 7 1 6.58 0.74
-6 -7 -2 5.66 0.91
-6 -7 -2 6.42 0.66
6 7 2 6.19 0.7
6 -7 -2 6.95 0.91
-6 -7 -3 95.36 3.19
6 -7 -3 93.6 3.12
-6 -7 -4 0.93 0.66
6 -7 -4 0.7 0.65
-6 -7 -5 3.94 0.95
6 -7 -5 2.27 0.91
-6 -7 -6 1.51 0.8
6 -7 -6 2.17 0.9
-6 -7 -7 0.57 0.95
6 -7 -7 3.48 1.11
-6 -7 -8 2.54 1.19
6 -7 -8 3.36 1.19
-6 -7 -9 15.12 2.08
6 -7 -9 17.42 2.26
-6 -7 -10 1.49 1.26
6 -7 -10 1.44 1.16
-7 7 -10 0.46 1.15
7 7 -10 0.31 1.01
-7 7 -9 -0.06 0.94
7 7 -9 0.28 0.84
-7 7 -8 21.77 2.26
7 7 -8 29.29 2.67
-7 7 -7 3.46 0.97
7 7 -7 5.71 1.3
-7 7 -6 61.68 2.84
7 -7 6 63.94 2.75
7 7 -6 59.3 2.83
-7 7 -5 0.14 0.52
7 -7 5 -0.41 0.45
7 7 -5 0.31 0.57
-7 7 -4 22.2 1.53
7 7 -4 26.91 1.76
7 -7 4 27.7 1.65
-7 7 -3 5.7 0.92
-7 -7 3 8.06 0.95
7 -7 3 9.3 1.07
7 7 -3 11.36 1.32
-7 -7 2 31.81 1.39
-7 7 -2 33.04 1.54
-7 -7 2 33.24 1.56
7 7 -2 33.17 1.7
7 -7 2 34.23 1.64
-7 7 -1 6 0.73
-7 -7 1 6.14 0.68
-7 -7 1 6.55 0.87
7 7 -1 4.76 0.79
7 -7 1 6.79 0.86
7 -7 1 6.22 0.64
-7 7 0 130.76 2.95
-7 -7 0 136.83 2.98
-7 -7 0 137.02 3.62
7 -7 0 133.25 3.49
7 -7 0 132.38 3.13
7 7 0 134.23 3.39
-7 -7 -1 6.48 0.63
-7 -7 -1 7.28 1.02
7 7 1 4.94 0.71
7 -7 -1 5.42 0.79
7 -7 -1 5.39 0.8
-7 -7 -2 35.86 1.82
-7 -7 -2 31.92 1.2
7 -7 -2 34.87 1.7
7 7 2 31.49 1.35
-7 -7 -3 8.86 1.15
7 7 3 8.77 0.86
7 -7 -3 10.96 1.3
-7 -7 -4 24.46 1.72
7 -7 -4 22.8 1.66
-7 -7 -5 0.5 0.7
7 -7 -5 0.57 0.64
-7 -7 -6 65 3.02
7 -7 -6 58.33 2.93
-7 -7 -7 4 1.2
7 -7 -7 4.57 1.17
-7 -7 -8 24.89 2.46
7 -7 -8 25.39 2.56
-7 -7 -9 0.35 1.06
7 -7 -9 -0.76 0.86
-7 -7 -10 -0.71 1.13
7 -7 -10 -0.65 1.2
-8 7 -9 16.98 2.14
8 7 -9 19.25 2.27
-8 7 -8 1.8 0.94
8 7 -8 1.96 0.98
-8 7 -7 15.24 1.85
8 7 -7 12.41 1.82
-8 7 -6 2.05 0.81
8 -7 6 1.26 0.74
8 7 -6 1.9 0.9
-8 7 -5 6.83 1.12
8 7 -5 6.41 1.14
8 -7 5 4.82 0.93
-8 7 -4 1.78 0.59
8 7 -4 0.61 0.58
8 -7 4 1.79 0.67
-8 7 -3 42.6 1.96
-8 -7 3 46 1.92
8 7 -3 45.12 2.14
8 -7 3 45.63 2.03
-8 7 -2 0.83 0.44
-8 -7 2 0.8 0.46
-8 -7 2 0.44 0.35
8 -7 2 1.38 0.51
8 7 -2 1.18 0.55
-8 7 -1 31.52 1.39
-8 -7 1 32.98 1.59
-8 -7 1 30.9 1.27
8 7 -1 29.41 1.58
8 -7 1 32.01 1.19
-8 -7 0 0.08 0.38
-8 -7 0 0.08 0.26
-8 7 0 0.55 0.28
8 -7 0 -0.19 0.32
8 7 0 0.05 0.33
8 -7 0 0.01 0.38
-8 -7 -1 29.82 1.63
-8 -7 -1 30.9 1.13
8 7 1 32.38 1.44
8 -7 -1 32.45 1.49
8 -7 -1 28.76 1.51
-8 -7 -2 0.59 0.55
-8 -7 -2 0.61 0.31
8 -7 -2 0.33 0.53
8 7 2 1.86 0.5
-8 -7 -3 49.64 2.25
8 -7 -3 46.43 2.13
-8 -7 -4 2.43 0.81
8 -7 -4 0.4 0.6
-8 -7 -5 6.16 1.13
8 -7 -5 6.21 1.17
-8 -7 -6 0.61 0.88
8 -7 -6 2.15 0.87
-8 -7 -7 13.8 1.82
8 -7 -7 13.23 1.86
-8 -7 -8 1.6 0.97
8 -7 -8 3 1.08
-8 -7 -9 20.01 2.35
8 -7 -9 21.9 2.57
-8 -7 -10 5.63 1.53
-9 7 -9 0.58 0.92
9 7 -9 0.02 0.8
-9 7 -8 15.31 1.99
9 7 -8 12.29 1.88
-9 7 -7 10.73 1.63
9 7 -7 12.39 1.71
-9 7 -6 30.75 2.09
9 -7 6 30 1.98
9 7 -6 26.5 2.04
-9 7 -5 4.17 0.94
9 -7 5 3.93 0.92
9 7 -5 5.85 1.18
-9 7 -4 1.59 0.6
9 7 -4 1.74 0.77
9 -7 4 1.17 0.58
-9 -7 3 0.66 0.46
-9 7 -3 1.04 0.48
9 7 -3 0.81 0.57
9 -7 3 0.57 0.49
-9 -7 2 3.32 0.66
-9 7 -2 3.87 0.72
9 7 -2 5.08 0.93
9 -7 2 5.63 0.82
-9 -7 1 16.51 1.17
-9 7 -1 14.03 0.99
-9 -7 1 17.91 0.94
9 -7 1 17.34 1.26
9 7 -1 15.85 1.21
-9 -7 0 18.21 1.29
-9 7 0 20.17 1.02
-9 -7 0 20.81 0.95
9 -7 0 20.54 1.08
9 7 0 21.45 1.3
9 -7 0 18.04 1.25
-9 -7 -1 15.9 0.78
-9 -7 -1 16.6 1.26
9 -7 -1 17.52 1.2
9 7 1 15.19 1.09
9 -7 -1 17.02 1.12
-9 -7 -2 4.21 0.83
9 7 2 3.3 0.62
9 -7 -2 4.21 0.81
-9 -7 -3 0.35 0.55
9 -7 -3 0.45 0.54
-9 -7 -4 2.11 0.83
9 -7 -4 2.86 0.87
-9 -7 -5 6.85 1.22
9 -7 -5 5.27 1.12
-9 -7 -6 32.1 2.23
9 -7 -6 30.31 2.21
-9 -7 -7 10.05 1.66
9 -7 -7 9.3 1.61
-9 -7 -8 15.86 2.03
9 -7 -8 16.56 2.14
-9 -7 -9 0.01 0.96
9 -7 -9 1.13 1.08
-9 -7 -10 0.85 1.19
-10 7 -9 1.09 0.98
10 7 -9 1.94 1.04
-10 7 -8 16.61 2.04
10 7 -8 24.42 2.57
-10 7 -7 1.28 0.77
10 7 -7 0.92 0.87
-10 7 -6 0.44 0.59
10 7 -6 -0.34 0.59
10 -7 6 -0.25 0.58
-10 7 -5 0 0.55
10 -7 5 -0.28 0.53
10 7 -5 0.17 0.61
-10 7 -4 20.14 1.51
10 7 -4 15.9 1.67
10 -7 4 20.88 1.54
-10 7 -3 4.71 0.83
10 -7 3 5.08 0.87
10 7 -3 3.95 0.89
-10 7 -2 34.38 1.65
-10 -7 2 36.92 1.75
10 7 -2 34.22 1.86
10 -7 2 36.21 1.8
-10 -7 1 8.31 0.75
-10 7 -1 8.01 0.86
-10 -7 1 7.76 0.95
10 -7 1 7.09 0.93
10 7 -1 9.79 1.14
-10 -7 0 0.04 0.38
-10 -7 0 -0.21 0.21
-10 7 0 0.19 0.31
10 -7 0 -0.16 0.33
10 -7 0 -0.49 0.33
10 7 0 -0.14 0.36
-10 -7 -1 6.87 0.98
10 7 1 9.02 1.02
10 -7 -1 7.73 0.93
10 -7 -1 5.87 0.89
-10 -7 -2 34.53 1.86
10 -7 -2 36.03 1.73
10 7 2 30.28 1.52
-10 -7 -3 4.01 0.86
10 -7 -3 4.46 0.94
-10 -7 -4 18.65 1.73
10 -7 -4 19.19 1.84
-10 -7 -5 -0.1 0.67
10 -7 -5 0.89 0.72
-10 -7 -6 0.37 0.77
10 -7 -6 -0.18 0.64
-10 -7 -7 2.2 1.04
10 -7 -7 0.86 0.84
-10 -7 -8 21.82 2.47
10 -7 -8 20.66 2.42
-10 -7 -9 0.07 1.06
10 -7 -9 1.52 1.16
-10 -7 -10 9.32 1.91
-11 7 -9 -1.17 0.81
11 7 -9 0.56 0.93
-11 7 -8 9.96 1.63
11 7 -8 4.99 1.23
-11 7 -7 20.45 2.13
11 7 -7 22.79 2.45
-11 7 -6 6.14 1.15
11 7 -6 5.58 1.23
11 -7 6 4.34 1.01
-11 7 -5 34.37 2.07
11 7 -5 32.41 2.13
11 -7 5 30.51 1.93
-11 7 -4 0.03 0.48
11 7 -4 -0.02 0.54
11 -7 4 0.12 0.58
-11 7 -3 0.8 0.51
11 7 -3 0.81 0.6
11 -7 3 1.69 0.66
-11 -7 2 6.11 0.93
-11 7 -2 8.36 0.99
11 7 -2 6.83 1.05
11 -7 2 6.78 0.99
-11 7 -1 56.88 2
-11 -7 1 56.42 2.23
11 -7 1 56.35 2.23
11 7 -1 58.62 2.3
-11 7 0 8.6 0.81
-11 -7 0 10.02 1.14
11 7 0 10.53 1.15
11 -7 0 9.89 1.09
11 -7 0 8.85 0.87
-11 -7 -1 57.24 2.36
11 -7 -1 57.19 2.04
11 -7 -1 54.84 2.18
11 7 1 56.53 2.14
-11 -7 -2 7.87 1.07
11 -7 -2 9.73 1.13
11 7 2 10.28 1.07
-11 -7 -3 0.55 0.36
-11 -7 -3 0.22 0.57
11 -7 -3 1.96 0.7
-11 -7 -4 0.27 0.37
-11 -7 -4 0.41 0.67
11 -7 -4 -0.09 0.55
-11 -7 -5 33.52 2.17
11 -7 -5 31.61 2.14
-11 -7 -6 8.67 1.46
11 -7 -6 9.54 1.6
-11 -7 -7 20.85 2.12
11 -7 -7 22.58 2.37
-11 -7 -8 9.9 1.64
11 -7 -8 10.14 1.81
-11 -7 -9 0.05 1.04
11 -7 -9 -0.78 0.93
-12 7 -9 0.97 1.06
12 7 -9 0.93 1.18
-12 7 -8 13.96 1.88
12 7 -8 22.89 2.56
-12 7 -7 -0.07 0.73
12 7 -7 -0.74 0.72
-12 7 -6 0.35 0.67
12 7 -6 1.53 0.89
12 -7 6 0.34 0.68
-12 7 -5 4.43 0.99
12 -7 5 5.09 0.98
12 7 -5 1.98 0.92
-12 7 -4 30.21 1.86
12 7 -4 31.85 2
12 -7 4 26.43 1.76
-12 7 -3 1.6 0.64
12 7 -3 2.03 0.74
12 -7 3 1.52 0.62
-12 -7 2 82.13 2.81
-12 7 -2 80.58 2.68
12 -7 2 80.78 2.82
12 7 -2 80.61 2.94
-12 -7 1 5.85 0.89
-12 7 -1 5.01 0.75
12 7 -1 4.75 0.91
12 -7 1 6.01 0.88
-12 7 0 -0.09 0.31
-12 -7 0 -0.23 0.4
12 -7 0 -0.44 0.4
12 -7 0 -0.13 0.38
12 7 0 0.04 0.41
-12 -7 -1 5.39 0.92
12 7 1 5.97 0.92
12 -7 -1 5.2 0.76
12 -7 -1 5.33 0.85
-12 -7 -2 80.52 2.93
12 7 2 82.38 2.72
12 -7 -2 85 2.81
-12 -7 -3 1.5 0.67
-12 -7 -3 1.97 0.53
12 -7 -3 1.14 0.65
-12 -7 -4 30.35 1.99
-12 -7 -4 28.02 1.46
12 -7 -4 30.85 2
-12 -7 -5 3.33 0.96
12 -7 -5 4.13 1.15
-12 -7 -6 0.1 0.74
12 -7 -6 0.68 0.86
-12 -7 -7 0.32 0.81
12 -7 -7 0.84 0.87
-12 -7 -8 16.66 2.02
12 -7 -8 15.1 2.08
-12 -7 -9 2.16 1.13
12 -7 -9 0.43 1.15
-13 7 -9 -0.66 0.9
13 7 -9 3.33 1.32
-13 7 -8 0.69 0.89
13 7 -8 0.21 0.85
-13 7 -7 14.08 1.84
13 7 -7 11.37 1.85
-13 7 -6 -0.69 0.6
13 -7 6 0.21 0.64
13 7 -6 -0.3 0.57
-13 7 -5 31.22 2.03
13 -7 5 32.45 2
13 7 -5 30.49 2.15
-13 7 -4 3.82 0.89
13 -7 4 3.15 0.81
13 7 -4 2.53 0.9
-13 7 -3 0.8 0.54
13 -7 3 1 0.64
13 7 -3 1.31 0.68
-13 -7 2 -0.37 0.36
-13 7 -2 1.9 0.57
13 7 -2 0.14 0.54
13 -7 2 0.05 0.47
-13 -7 1 30.7 1.69
-13 7 -1 33.97 1.57
13 7 -1 32.77 1.84
13 -7 1 33.1 1.74
-13 -7 0 -0.08 0.39
-13 7 0 0.08 0.35
13 7 0 0.18 0.46
13 -7 0 -0.29 0.43
-13 -7 -1 33.08 1.84
13 7 1 34.94 1.8
13 -7 -1 32.31 1.72
13 -7 -1 32.65 1.59
-13 -7 -2 0.13 0.49
13 7 2 -0.53 0.38
13 -7 -2 0.11 0.5
-13 -7 -3 0.65 0.4
-13 -7 -3 0.77 0.62
13 -7 -3 1.03 0.64
-13 -7 -4 2.48 0.83
-13 -7 -4 3.91 0.73
13 -7 -4 3.79 1
-13 -7 -5 30.95 2.15
13 -7 -5 33.77 2.26
-13 -7 -6 -0.17 0.74
13 -7 -6 0.03 0.84
-13 -7 -7 11.35 1.65
13 -7 -7 14.6 2.04
-13 -7 -8 0.76 0.93
13 -7 -8 0.14 1.01
-13 -7 -9 0.27 1
13 -7 -9 1.4 1.21
-14 7 -9 -0.32 0.91
14 7 -9 -1.11 0.88
-14 7 -8 24.33 2.41
14 7 -8 18.9 2.32
-14 7 -7 0.54 0.79
14 7 -7 1.02 0.96
-14 7 -6 -0.14 0.66
14 -7 6 0.42 0.66
14 7 -6 2.11 0.89
-14 7 -5 5.43 1.15
14 -7 5 6.44 1.15
14 7 -5 4.51 1.12
-14 7 -4 35.97 2.09
14 7 -4 38.1 2.26
14 -7 4 39.7 2.12
-14 7 -3 5.83 0.94
14 -7 3 6.34 1.09
14 7 -3 5.22 1.06
-14 7 -2 35.69 1.77
-14 -7 2 36.98 1.88
14 7 -2 32.54 1.94
14 -7 2 32.78 1.85
-14 7 -1 15.53 1.12
-14 -7 1 14.42 1.42
14 7 -1 15.1 1.49
14 -7 1 15.93 1.45
-14 7 0 -0.61 0.32
-14 -7 0 0.37 0.42
14 -7 0 0.09 0.46
14 7 0 -0.12 0.43
-14 -7 -1 17.37 1.6
14 -7 -1 15.41 1.43
14 7 1 14.68 1.43
14 -7 -1 14.52 1.14
-14 -7 -2 35.94 2
14 -7 -2 30.63 1.75
14 7 2 33.89 1.82
-14 -7 -3 5.91 1.16
-14 -7 -3 6.08 0.87
14 -7 -3 5.8 1.19
-14 -7 -4 36.64 2.2
-14 -7 -4 39.53 1.84
14 -7 -4 38.06 2.28
-14 -7 -5 5.7 1.21
14 -7 -5 7.03 1.36
-14 -7 -6 0.6 0.79
14 -7 -6 0.08 0.78
-14 -7 -7 0.39 0.85
14 -7 -7 0.07 0.8
-14 -7 -8 24.34 2.49
14 -7 -8 21.55 2.76
-14 -7 -9 -0.32 0.91
14 -7 -9 -0.36 0.96
15 7 -9 4.09 1.5
-15 7 -8 0.79 0.91
15 7 -8 2.11 1.16
-15 7 -7 1.66 0.96
15 7 -7 5.03 1.39
-15 7 -6 3.65 1.04
15 7 -6 6.62 1.36
15 -7 6 5.51 1.07
-15 7 -5 7.97 1.26
15 7 -5 7.07 1.4
15 -7 5 6.8 1.13
-15 7 -4 1.57 0.7
15 -7 4 0.84 0.61
15 7 -4 2.27 0.8
-15 7 -3 0.84 0.56
15 -7 3 0.95 0.66
15 7 -3 1.57 0.7
-15 7 -2 0.32 0.5
-15 -7 2 0.2 0.47
15 -7 2 -0.57 0.45
15 7 -2 0.04 0.53
-15 -7 1 0.51 0.51
-15 7 -1 0.71 0.44
15 7 -1 0.95 0.64
15 -7 1 -0.13 0.48
-15 7 0 3.39 0.66
-15 -7 0 3.86 0.85
15 -7 0 1.72 0.65
15 7 0 3.62 0.87
-15 -7 -1 0.97 0.56
15 -7 -1 -0.26 0.44
15 -7 -1 0.87 0.57
15 7 1 0.48 0.53
-15 -7 -2 0.21 0.5
15 -7 -2 -0.27 0.44
15 7 2 0.12 0.54
15 -7 -2 -0.02 0.55
-15 -7 -3 0.25 0.43
-15 -7 -3 0.14 0.54
15 -7 -3 0.62 0.63
-15 -7 -4 3.16 0.72
-15 -7 -4 1.75 0.81
15 -7 -4 2.41 0.93
-15 -7 -5 7.54 1.36
15 -7 -5 8.18 1.42
-15 -7 -6 3.93 1.18
15 -7 -6 5.57 1.38
-15 -7 -7 4.06 1.15
15 -7 -7 0.81 1.09
-15 -7 -8 2.92 1.17
15 -7 -8 1.17 1.13
-15 -7 -9 3.06 1.26
15 -7 -9 5.15 1.82
-16 7 -8 3.91 1.19
16 7 -8 8.55 1.87
-16 7 -7 4.13 1.16
16 7 -7 5.09 1.28
-16 7 -6 2.23 0.92
16 -7 6 1.09 0.76
16 7 -6 -0.64 0.67
-16 7 -5 2.66 0.89
16 7 -5 5.48 1.24
16 -7 5 1.75 0.78
-16 7 -4 21.22 1.69
16 -7 4 18.55 1.7
16 7 -4 22.38 2.13
-16 7 -3 64.4 2.6
16 -7 3 52.93 2.46
16 7 -3 58.89 2.78
-16 7 -2 13.07 1.35
-16 -7 2 13.36 1.44
16 7 -2 10.93 1.42
16 -7 2 11.34 1.38
-16 7 -1 9.7 1.07
-16 -7 1 13.07 1.37
16 -7 1 11.21 1.25
16 7 -1 12.11 1.42
-16 -7 0 -0.48 0.42
16 -7 0 -0.01 0.51
16 7 0 0.19 0.54
-16 -7 -1 11.13 1.33
16 7 1 13.82 1.49
16 -7 -1 10.64 1.24
-16 -7 -2 13.1 1.51
16 -7 -2 12.06 1.36
16 -7 -2 14.55 1.53
-16 -7 -3 58.53 2.36
-16 -7 -3 58.39 2.71
16 -7 -3 57.21 2.61
-16 -7 -4 20.83 1.98
-16 -7 -4 19.93 1.44
16 -7 -4 22.89 2.14
-16 -7 -5 2.85 0.97
16 -7 -5 2.58 1.05
-16 -7 -6 0.74 0.85
16 -7 -6 -0.26 0.78
-16 -7 -7 4.89 1.24
16 -7 -7 4.02 1.41
-16 -7 -8 4.87 1.36
16 -7 -8 4.41 1.4
-16 -7 -9 9.97 1.84
-17 7 -8 8.98 1.74
17 7 -8 6.47 1.7
-17 7 -7 1.73 0.99
17 -7 7 2.01 0.94
17 7 -7 2.13 1.1
-17 7 -6 18.54 1.99
17 7 -6 19.9 2.35
17 -7 6 16.13 1.72
-17 7 -5 3.63 0.97
17 -7 5 3.93 1
17 7 -5 3.1 1.13
-17 7 -4 4.75 1.02
17 -7 4 5 0.96
17 7 -4 5.65 1.34
-17 7 -3 2.7 0.77
17 -7 3 2.15 0.81
17 7 -3 1.78 0.85
-17 -7 2 7.08 1.1
-17 7 -2 6.35 0.95
17 -7 2 2.87 0.79
17 7 -2 4.72 1.03
-17 7 -1 0.07 0.41
-17 -7 1 0.02 0.42
17 7 -1 -0.28 0.5
17 -7 1 0.48 0.58
-17 -7 0 24.57 1.66
17 7 0 23.81 1.73
17 -7 0 25.24 1.65
-17 -7 -1 0.85 0.58
17 7 1 -0.13 0.5
17 -7 -1 0 0.49
-17 -7 -2 5.39 1.05
17 -7 -2 5.21 0.98
17 -7 -2 4.73 0.97
-17 -7 -3 0.94 0.55
-17 -7 -3 2.5 0.85
17 -7 -3 2 0.8
-17 -7 -4 4.59 0.89
-17 -7 -4 8.85 1.43
17 -7 -4 5.15 1.16
-17 -7 -5 4.2 1.08
17 -7 -5 4.93 1.19
-17 -7 -6 17.89 1.94
17 -7 -6 20.53 2.31
-17 -7 -7 0.23 0.91
17 -7 -7 2.35 1.26
-17 -7 -8 10.17 1.78
17 -7 -8 9.9 2.03
-18 7 -8 1.08 1.09
18 7 -8 1.48 1.19
-18 7 -7 0.34 0.79
18 -7 7 0.67 0.83
18 7 -7 0.96 0.97
-18 7 -6 -0.39 0.67
18 7 -6 0.03 0.89
18 -7 6 -0.09 0.65
-18 7 -5 1.3 0.77
18 7 -5 4.5 1.2
18 -7 5 3.22 0.9
-18 7 -4 2.5 0.9
18 7 -4 3.41 1.01
18 -7 4 2.28 0.79
-18 7 -3 29.99 1.88
18 -7 3 24.47 1.8
18 7 -3 30.05 2.14
-18 -7 2 2.52 0.77
-18 7 -2 3.66 0.79
18 7 -2 2.69 0.93
18 -7 2 1.84 0.74
-18 7 -1 4.37 0.81
-18 -7 1 4.4 0.92
18 7 -1 6.22 1.16
18 -7 1 4.02 0.89
-18 -7 0 0.5 0.51
18 -7 0 1.03 0.57
18 7 0 0.19 0.54
-18 -7 -1 2.55 0.79
18 -7 -1 4.95 0.99
18 7 1 5.01 1.01
-18 -7 -2 2.61 0.78
18 -7 -2 1.12 0.7
18 -7 -2 3.54 0.91
-18 -7 -3 32.7 2.1
-18 -7 -3 30.72 1.81
18 -7 -3 28.91 1.91
-18 -7 -4 1.95 0.8
-18 -7 -4 2.93 0.84
18 -7 -4 0.5 0.71
-18 -7 -5 4.23 1.09
-18 -7 -5 3.42 0.86
18 -7 -5 1.65 1.03
-18 -7 -6 1.74 0.93
18 -7 -6 -1.11 0.79
-18 -7 -7 0.94 0.86
18 -7 -7 0.57 1.12
-18 -7 -8 1.69 1.04
18 -7 -8 0.68 1.14
-19 7 -8 4.65 1.35
19 7 -8 7.19 1.77
-19 7 -7 0.76 1
19 -7 7 2.03 0.96
19 7 -7 0.4 1.08
-19 7 -6 32.38 2.36
19 -7 6 30.77 2.18
19 7 -6 31.71 3.01
-19 7 -5 0.93 0.76
19 7 -5 0.45 0.81
19 -7 5 0.95 0.78
-19 7 -4 1.9 0.85
19 -7 4 2.27 0.82
19 7 -4 2.07 0.92
-19 7 -3 1.12 0.7
19 -7 3 0.54 0.65
19 7 -3 0.87 0.83
-19 7 -2 1.25 0.64
19 -7 2 1.91 0.79
19 7 -2 1.99 0.9
-19 -7 1 13.46 1.57
-19 7 -1 8.97 1.14
19 -7 1 9.42 1.22
19 7 -1 10.93 1.52
-19 -7 0 19.43 1.78
19 -7 0 16.12 1.53
19 7 0 18.57 1.86
-19 -7 -1 10.6 1.39
19 -7 -1 10.03 1.33
19 7 1 9.67 1.37
-19 -7 -2 2.49 0.82
19 -7 -2 1.95 0.71
-19 -7 -3 0.93 0.71
-19 -7 -3 0.81 0.59
19 -7 -3 -0.16 0.58
-19 -7 -4 2.09 0.75
-19 -7 -4 2.22 0.91
19 -7 -4 2.29 0.95
-19 -7 -5 0.15 0.6
-19 -7 -5 -0.19 0.66
19 -7 -5 -0.12 0.84
-19 -7 -6 31.71 2.38
19 -7 -6 30.97 2.52
-19 -7 -7 0.17 0.86
19 -7 -7 0.85 1.12
-19 -7 -8 9.37 1.63
19 -7 -8 8.31 1.86
-20 7 -7 0.8 0.86
20 7 -7 0.99 0.99
20 -7 7 1.56 0.9
-20 7 -6 0.88 0.9
20 7 -6 -0.34 0.81
20 -7 6 1.38 0.82
-20 7 -5 9.08 1.46
20 7 -5 11.85 1.91
20 -7 5 6.57 1.3
-20 7 -4 8.62 1.37
20 7 -4 8.22 1.53
20 -7 4 10.68 1.45
-20 7 -3 0.05 0.55
20 -7 3 -0.3 0.63
20 7 -3 1.07 0.78
-20 7 -2 6.24 1.04
20 -7 2 6.74 1.08
20 7 -2 6.43 1.24
-20 7 -1 3.61 0.8
-20 -7 1 2.96 0.81
20 -7 1 1.64 0.74
20 7 -1 3.56 1.02
-20 -7 0 0.39 0.53
20 -7 0 -0.32 0.5
20 7 0 0.55 0.66
-20 -7 -1 1.96 0.79
20 -7 -1 2.99 0.87
20 7 1 3.25 1
-20 -7 -2 5.79 1.18
20 -7 -2 9.29 1.29
-20 -7 -3 1.57 0.65
-20 -7 -3 0.39 0.69
20 -7 -3 1.5 0.73
-20 -7 -4 9.13 1.32
-20 -7 -4 7.83 1.4
20 -7 -4 6.58 1.36
-20 -7 -5 9.85 1.58
-20 -7 -5 8.52 1.33
20 -7 -5 8.94 1.63
-20 -7 -6 3.01 1.08
20 -7 -6 1.65 1.08
-20 -7 -7 3.09 1.19
20 -7 -7 1.93 1.28
-20 -7 -8 0.36 0.9
20 -7 -8 -0.35 1.13
-21 7 -7 7.42 1.51
21 7 -7 4.71 1.41
21 -7 7 7.3 1.39
-21 7 -6 33.57 2.52
21 7 -6 36.48 2.8
21 -7 6 35.06 2.34
-21 7 -5 3.53 1.06
21 7 -5 3.03 1.23
21 -7 5 2.9 1
-21 7 -4 13.25 1.59
21 -7 4 11.99 1.48
21 7 -4 14.21 1.93
-21 7 -3 0.22 0.62
21 7 -3 2.71 1.02
21 -7 3 1.03 0.74
-21 7 -2 2.97 0.81
21 7 -2 3.66 1.07
21 -7 2 2.06 0.93
-21 -7 1 10.07 1.41
-21 7 -1 10.72 1.24
21 -7 1 10 1.29
21 7 -1 10.75 1.51
-21 -7 0 28.56 1.92
21 -7 0 31.01 1.88
21 7 0 29.5 2.13
-21 -7 -1 9.99 1.36
21 -7 -1 11.09 1.41
21 7 1 10.1 1.49
-21 -7 -2 3.33 0.97
21 -7 -2 4.16 1.02
-21 -7 -3 1 0.77
-21 -7 -3 1.59 0.67
-21 -7 -4 13.89 1.71
-21 -7 -4 11.47 1.45
21 -7 -4 17.23 1.99
-21 -7 -5 2.68 1.03
-21 -7 -5 2.07 0.82
21 -7 -5 2.74 1.12
-21 -7 -6 35.5 2.53
21 -7 -6 32.95 3.07
-21 -7 -7 2.96 1.16
21 -7 -7 4.03 1.52
-22 7 -7 1.11 1.02
22 7 -7 -0.3 1.01
22 -7 7 1.84 1.04
-22 7 -6 1.55 1.01
22 -7 6 1.47 0.92
22 7 -6 1.41 1.02
-22 7 -5 15.94 1.91
22 -7 5 18.29 1.94
22 7 -5 21.36 2.57
-22 7 -4 19.18 1.98
22 7 -4 13.67 1.99
22 -7 4 17.81 1.81
-22 7 -3 2.37 0.85
22 -7 3 1.3 0.81
22 7 -3 2.74 1.03
-22 7 -2 5.48 1.05
22 -7 2 6.74 1.15
22 7 -2 5.31 1.29
-22 -7 1 4.02 1.06
-22 7 -1 4.83 0.93
22 -7 1 4.64 1.07
22 7 -1 4.12 1.14
-22 -7 0 -0.21 0.48
22 7 0 0.1 0.65
22 -7 0 -0.37 0.52
-22 -7 -1 4.66 1.09
22 7 1 5.22 1.14
22 -7 -1 3.79 0.95
-22 -7 -2 8.6 1.36
22 -7 -2 8.38 1.26
-22 -7 -3 4.07 1.05
-22 -7 -3 2.46 0.86
-22 -7 -4 14.31 1.6
-22 -7 -4 16.23 1.89
22 -7 -4 16.3 1.97
-22 -7 -5 16.03 1.79
-22 -7 -5 15.84 1.89
22 -7 -5 18.56 2.31
-22 -7 -6 1.99 1.03
22 -7 -6 -0.25 0.95
-22 -7 -7 0.54 0.89
22 -7 -7 0.54 1.14
-23 7 -7 0.96 1.03
-23 7 -6 5.96 1.43
23 7 -6 8.18 1.92
23 -7 6 4.58 1.22
-23 7 -5 0.79 0.86
23 7 -5 2.02 1.09
23 -7 5 0.79 0.88
-23 7 -4 9.62 1.5
23 -7 4 9.7 1.43
23 7 -4 8.64 1.62
-23 7 -3 -0.12 0.63
23 -7 3 0.09 0.71
23 7 -3 1.95 0.97
-23 7 -2 3.65 0.86
23 7 -2 4.43 1.3
23 -7 2 3.98 0.98
-23 -7 1 7.04 1.3
23 -7 1 6.15 1.16
23 7 -1 5.99 1.23
-23 -7 0 6.09 1.23
23 7 0 5.76 1.32
23 -7 0 5.09 1.03
-23 -7 -1 7.35 1.3
23 7 1 5.17 1.31
23 -7 -1 5.11 1.09
-23 -7 -2 0.82 0.77
23 -7 -2 3.31 1.02
-23 -7 -3 0.76 0.68
-23 -7 -3 0.83 0.78
23 -7 -3 0.36 0.75
-23 -7 -4 9.65 1.41
-23 -7 -4 10.33 1.53
23 -7 -4 6.44 1.45
-23 -7 -5 1.28 0.86
-23 -7 -5 3.37 1.09
23 -7 -5 -0.29 1
-23 -7 -6 7.43 1.49
23 -7 -6 2.65 1.23
-23 -7 -7 2.58 1.18
23 -7 -7 1.78 1.29
-24 7 -6 2.89 1.18
24 7 -6 1.99 1.3
-24 7 -5 -0.38 0.78
24 7 -5 0.15 0.98
24 -7 5 0.01 0.82
-24 7 -4 23.65 2.18
24 7 -4 22.54 2.56
24 -7 4 23.89 2.15
-24 7 -3 2.77 0.95
24 7 -3 3.74 1.24
24 -7 3 4.06 1
-24 7 -2 19.69 1.86
24 -7 2 24.07 1.86
24 7 -2 21.03 2.48
-24 -7 1 3.06 0.97
24 -7 1 2.23 0.87
24 7 -1 2.54 0.94
-24 -7 0 0.12 0.61
24 -7 0 -0.01 0.64
24 7 0 -0.56 0.69
-24 -7 -1 4.06 1.03
24 -7 -1 4.89 1.05
24 7 1 1.46 0.88
-24 -7 -2 23.3 2.15
24 -7 -2 17.77 1.73
-24 -7 -3 2.68 0.93
-24 -7 -3 3.93 0.96
24 -7 -3 4.24 1.15
-24 -7 -4 21.38 2.07
-24 -7 -4 23.14 2.17
-24 -7 -5 0.26 0.65
-24 -7 -5 -0.05 0.78
24 -7 -5 -0.7 0.87
-24 -7 -6 2.43 1.07
24 -7 -6 1.73 1.22
-25 7 -6 2.15 1.13
-25 7 -5 1.63 1.03
25 7 -5 0.39 1.06
-25 7 -4 4.57 1.19
25 7 -4 6.76 1.61
25 -7 4 2.33 0.99
-25 7 -3 -0.27 0.72
25 7 -3 1.34 1.1
25 -7 3 0.17 0.77
-25 7 -2 0.43 0.75
25 7 -2 0.41 0.8
25 -7 2 1.21 0.75
25 -7 1 8.24 1.27
25 7 -1 8.53 1.66
-25 -7 0 1.81 0.76
25 -7 0 0.98 0.75
25 7 0 2.19 1.11
-25 -7 -1 7.69 1.41
25 7 1 5.9 1.35
25 -7 -1 8.36 1.32
-25 -7 -2 -0.21 0.81
25 -7 -2 -0.04 0.66
-25 -7 -3 0.36 0.76
-25 -7 -3 0.95 0.72
25 -7 -3 0.65 0.84
-25 -7 -4 5.36 1.26
-25 -7 -4 2.45 0.97
-25 -7 -5 -0.13 0.74
-25 -7 -5 1.44 0.96
25 -7 -5 -0.69 0.99
-25 -7 -6 2.6 1.19
25 -7 -6 0.28 1.06
-26 7 -5 3.05 1.18
26 7 -5 0.15 1.15
-26 7 -4 8.66 1.52
26 7 -4 5.24 1.65
-26 7 -3 1.59 0.88
26 -7 3 2.59 1.02
26 7 -3 0.81 0.99
-26 7 -2 16.49 1.77
26 7 -2 13.52 2.01
26 -7 2 15.32 1.67
26 7 -1 3.39 1.3
26 -7 1 1.86 0.89
-26 -7 0 0.27 0.68
26 -7 0 0.53 0.72
26 7 0 1.66 1.03
-26 -7 -1 4.33 1.09
26 -7 -1 0.6 0.83
26 7 1 1.47 1.03
-26 -7 -2 19.29 2
26 -7 -2 16.89 1.76
26 7 2 12.9 1.99
-26 -7 -3 2.11 0.96
-26 -7 -3 1.92 0.98
26 -7 -3 1.63 0.94
-26 -7 -4 4.03 1.12
-26 -7 -4 5.23 1.31
-26 -7 -5 1.16 0.98
-26 -7 -5 1.39 0.98
-27 7 -5 2.56 1.15
-27 7 -4 0.05 0.83
27 7 -4 0.18 1.01
-27 7 -3 -0.75 0.69
27 7 -3 0 0.8
-27 7 -2 3.28 1.06
27 7 -2 6.05 1.66
27 -7 2 4.13 1.1
27 7 -1 2.07 1.15
27 -7 1 1.74 0.99
-27 -7 0 2.87 1.04
27 7 0 4.9 1.52
27 -7 0 2.32 0.93
-27 -7 -1 1.89 0.89
27 -7 -1 1.86 0.91
27 7 1 3.83 1.27
-27 -7 -2 3.83 1.09
27 -7 -2 2.54 0.95
27 7 2 3.75 1.42
-27 -7 -3 0.34 0.69
-27 -7 -3 0.31 0.8
27 -7 -3 1.34 0.85
-27 -7 -4 0.91 0.88
-27 -7 -4 0.45 0.89
-27 -7 -5 2.1 1.06
-27 -7 -5 1.12 0.89
-28 7 -4 3.91 1.28
28 7 -4 4.78 1.55
-28 7 -3 -0.24 0.79
28 7 -3 0.17 1.01
28 7 -2 3.88 1.32
28 -7 1 -0.52 0.84
28 7 -1 0.6 0.9
28 7 0 -1.09 0.78
28 -7 0 0.5 0.78
-28 -7 -1 -0.17 0.74
28 7 1 0.46 1.07
28 -7 -1 0.18 0.81
-28 -7 -2 5.7 1.25
28 7 2 3.22 1.26
28 -7 -2 8.01 1.34
-28 -7 -3 1.92 0.98
-28 -7 -3 1.54 0.98
28 -7 -3 2.25 1.07
-28 -7 -4 6.63 1.35
-28 -7 -4 8.48 1.54
28 -7 -4 5.45 1.39
-29 7 -4 2.71 1.13
-29 7 -3 0.94 0.87
29 7 -3 -0.61 0.97
29 7 -2 7.99 1.73
29 7 -1 3.12 1.31
29 7 0 17.45 2.42
-29 -7 -1 0.3 0.84
29 7 1 3.52 1.27
29 -7 -1 1.1 0.88
-29 -7 -2 11.98 1.73
29 7 2 8.96 1.79
29 -7 -2 9.29 1.5
-29 -7 -3 0.17 0.83
29 -7 -3 -1.03 0.68
-29 -7 -4 4.99 1.32
-29 -7 -4 4.23 1.2
29 -7 -4 1.86 1.16
-30 7 -3 5.49 1.35
30 7 -2 -0.4 1
30 7 -1 2.73 1.28
30 7 0 0.17 1.06
-30 -7 -1 2.98 1.13
30 7 1 4.8 1.56
-30 -7 -2 0.54 0.88
30 7 2 0.1 1.1
30 -7 -2 0.96 0.86
-30 -7 -3 9.48 1.64
30 -7 -3 7.79 1.53
31 7 1 -0.71 1.06
0 8 -9 1.93 1.17
0 8 -8 -0.32 0.76
0 8 -7 0.27 0.68
0 8 -6 68.43 3.07
0 -8 5 0.52 0.53
0 8 -5 -0.4 0.47
0 -8 4 16.83 1.35
0 8 -4 20.87 1.51
0 -8 3 -0.41 0.36
0 -8 3 0.56 0.36
0 8 -3 -0.08 0.39
0 8 -2 1.55 0.53
0 -8 2 1.92 0.47
0 -8 2 1.26 0.5
0 -8 1 0.3 0.36
0 8 -1 -0.33 0.3
0 -8 1 0 0.3
0 -8 0 41.61 1.69
0 -8 0 38.8 1.71
0 8 0 40.26 1.5
0 -8 -1 -0.43 0.27
0 -8 -1 -0.46 0.42
0 -8 -2 1.47 0.5
0 -8 -2 1.95 0.66
0 -8 -3 -0.12 0.55
0 -8 -4 21.3 1.72
0 -8 -5 0.2 0.65
0 -8 -6 58.72 2.98
0 -8 -7 -0.35 0.79
0 -8 -8 1.09 1.13
0 -8 -9 0.82 1.04
-1 8 -9 12.86 1.9
1 8 -9 13.3 2.08
-1 8 -8 -1.11 0.7
1 8 -8 0.28 0.87
-1 8 -7 1.53 0.86
1 8 -7 1.07 0.83
-1 8 -6 5.15 1.16
1 8 -6 3.35 0.96
-1 8 -5 40.6 2.23
-1 -8 5 42.6 2.14
1 -8 5 45.47 2.22
1 8 -5 47.08 2.37
-1 -8 4 0.24 0.45
-1 8 -4 1.04 0.61
1 -8 4 0.96 0.54
1 8 -4 -0.26 0.42
-1 -8 3 96.46 2.96
-1 8 -3 91.43 3.01
-1 -8 3 94.37 2.61
1 8 -3 91.22 3.02
1 -8 3 94.17 2.98
1 -8 3 90.44 2.46
-1 -8 2 5.66 0.78
-1 -8 2 5.48 0.73
-1 8 -2 5.17 0.79
1 8 -2 4.66 0.8
1 -8 2 4.08 0.61
1 -8 2 5.65 0.85
-1 -8 1 12.06 1.08
-1 -8 1 10.86 1.01
-1 8 -1 11.6 0.93
1 -8 1 11.06 1.04
1 8 -1 13.13 1.15
1 -8 1 11.53 1.02
-1 -8 0 -0.49 0.34
-1 -8 0 0.15 0.38
-1 8 0 0.23 0.31
1 -8 0 -0.19 0.33
1 -8 0 -0.18 0.34
1 8 0 0.11 0.29
-1 -8 -1 12.75 1.26
-1 -8 -1 10.99 1
1 -8 -1 8.54 0.93
1 -8 -1 10.82 1.14
-1 -8 -2 6.63 1.04
-1 -8 -2 5.59 0.77
1 -8 -2 4.33 0.7
1 -8 -2 5.39 0.95
-1 -8 -3 94.68 3.23
1 -8 -3 94.44 3.2
-1 -8 -4 -0.71 0.58
1 -8 -4 0.19 0.63
-1 -8 -5 44.01 2.47
1 -8 -5 38.06 2.31
-1 -8 -6 7.5 1.44
1 -8 -6 4.28 1.16
-1 -8 -7 0.99 0.87
1 -8 -7 1.11 0.95
-1 -8 -8 1.18 0.96
1 -8 -8 0.61 1
-1 -8 -9 12.97 2
1 -8 -9 10.52 1.98
-2 8 -9 1.07 0.94
2 8 -9 0.04 0.92
-2 8 -8 -0.15 0.71
2 8 -8 -1.36 0.7
-2 8 -7 -0.04 0.71
2 8 -7 -0.18 0.65
-2 8 -6 17.27 1.86
2 8 -6 19.88 1.93
-2 8 -5 19.5 1.89
2 8 -5 18.09 1.77
2 -8 5 16.82 1.56
-2 8 -4 4.8 0.97
-2 -8 4 5.08 0.86
2 8 -4 3.91 0.93
2 -8 4 2.72 0.75
-2 8 -3 1.02 0.52
-2 -8 3 0.98 0.47
-2 -8 3 1.73 0.46
2 8 -3 1.44 0.58
2 -8 3 0.73 0.47
-2 -8 2 2.99 0.61
-2 8 -2 1.83 0.55
-2 -8 2 1.65 0.51
2 -8 2 2.51 0.51
2 8 -2 1.99 0.59
2 -8 2 2.61 0.63
-2 8 -1 34.99 1.49
-2 -8 1 35.42 1.54
-2 -8 1 34.18 1.54
2 -8 1 35.23 1.45
2 8 -1 31.74 1.52
2 -8 1 34.81 1.63
-2 8 0 32.61 1.29
-2 -8 0 32.74 1.45
-2 -8 0 29.63 1.54
2 8 0 32.42 1.39
2 -8 0 31.76 1.53
2 -8 0 36.05 1.56
-2 -8 -1 34.82 1.73
-2 -8 -1 32.61 1.44
2 -8 -1 35.59 1.6
2 8 1 33.22 1.28
2 -8 -1 35.32 1.7
-2 -8 -2 2.43 0.73
-2 -8 -2 2.63 0.61
2 -8 -2 1.36 0.52
2 -8 -2 1.1 0.59
-2 -8 -3 0.45 0.62
2 -8 -3 -0.05 0.56
-2 -8 -4 3.74 0.97
2 -8 -4 2.4 0.86
-2 -8 -5 16.79 1.76
2 -8 -5 14.26 1.7
-2 -8 -6 19.4 2.07
2 -8 -6 20.33 2.1
-2 -8 -7 -0.19 0.82
2 -8 -7 1.46 1.02
-2 -8 -8 0.04 0.93
2 -8 -8 -0.04 0.87
-2 -8 -9 0.56 1.07
2 -8 -9 -1.14 0.87
-3 8 -9 6.55 1.45
3 8 -9 7.54 1.75
-3 8 -8 5.47 1.31
3 8 -8 2.01 1.08
-3 8 -7 0.43 0.69
3 8 -7 0.23 0.76
-3 8 -6 -0.21 0.64
3 8 -6 1.25 0.74
-3 8 -5 17.8 1.81
3 8 -5 14.34 1.65
3 -8 5 16.53 1.56
-3 8 -4 18.16 1.65
-3 -8 4 19.85 1.4
3 -8 4 17.9 1.41
3 8 -4 16.81 1.67
-3 8 -3 52.19 2.21
-3 -8 3 53.52 2.11
-3 -8 3 49.51 1.89
3 8 -3 52.82 2.24
3 -8 3 53.81 2.2
-3 8 -2 23.04 1.37
-3 -8 2 22.9 1.33
-3 -8 2 23.55 1.31
3 -8 2 25.37 1.15
3 -8 2 25.72 1.49
3 8 -2 26.13 1.5
-3 -8 1 5.48 0.79
-3 -8 1 4.93 0.71
-3 8 -1 6.64 0.84
3 8 -1 6.52 0.87
3 -8 1 6.8 0.88
3 -8 1 5.64 0.7
-3 8 0 -0.45 0.24
-3 -8 0 0.05 0.38
-3 -8 0 0.63 0.32
3 -8 0 -0.35 0.33
3 -8 0 -0.45 0.28
3 8 0 0.09 0.32
-3 -8 -1 6.31 0.93
-3 -8 -1 6.97 0.81
3 -8 -1 4.76 0.76
3 8 1 6.92 0.76
3 -8 -1 4.39 0.82
-3 -8 -2 23.88 1.58
-3 -8 -2 24.77 1.26
3 -8 -2 23.99 1.39
3 -8 -2 22.08 1.5
-3 -8 -3 54.05 2.44
3 -8 -3 51.85 2.32
-3 -8 -4 17.72 1.69
3 -8 -4 18.25 1.71
-3 -8 -5 19.33 2.02
3 -8 -5 13.32 1.68
-3 -8 -6 0.44 0.77
3 -8 -6 0.25 0.67
-3 -8 -7 -0.07 0.87
3 -8 -7 -0.27 0.77
-3 -8 -8 1.22 1.01
3 -8 -8 2.94 1.19
-3 -8 -9 7.25 1.73
3 -8 -9 5.56 1.59
-4 8 -9 1.34 1.02
4 8 -9 -0.53 0.81
-4 8 -8 0.49 0.77
4 8 -8 0.7 0.87
-4 8 -7 17.7 1.94
4 8 -7 19.21 2.11
-4 8 -6 12.69 1.7
4 8 -6 13.52 1.65
4 -8 6 14.88 1.64
-4 8 -5 40.37 2.27
4 8 -5 39.15 2.25
4 -8 5 40.32 2.12
-4 -8 4 -0.11 0.39
-4 8 -4 0.01 0.51
4 8 -4 0.2 0.51
4 -8 4 0.3 0.48
-4 -8 3 0.14 0.39
-4 -8 3 0.22 0.46
-4 8 -3 0 0.41
4 -8 3 0.25 0.43
4 8 -3 -0.38 0.42
-4 -8 2 13.31 1.06
-4 8 -2 14 1.11
-4 -8 2 11.88 1.09
4 8 -2 15.23 1.47
4 -8 2 14.24 0.87
4 -8 2 13.23 1.24
-4 8 -1 118.66 3.05
-4 -8 1 121.08 3.26
-4 -8 1 114.02 3
4 8 -1 113.77 3.17
4 -8 1 116.68 2.91
4 -8 1 118.48 3.29
-4 -8 0 6.1 0.75
-4 -8 0 7.3 0.94
-4 8 0 6.48 0.73
4 -8 0 6.91 0.83
4 -8 0 6.65 0.91
4 8 0 8.8 0.94
-4 -8 -1 118.53 2.92
-4 -8 -1 111.56 3.38
4 -8 -1 118.37 3.24
4 -8 -1 117.18 3.24
4 8 1 114.53 2.84
-4 -8 -2 14.63 0.99
-4 -8 -2 12.53 1.36
4 -8 -2 15.34 1.47
4 -8 -2 13.62 1.22
-4 -8 -3 0.05 0.55
-4 -8 -3 0.28 0.4
4 -8 -3 -0.05 0.56
-4 -8 -4 0.68 0.74
4 -8 -4 -0.17 0.6
-4 -8 -5 37.2 2.29
4 -8 -5 35.44 2.25
-4 -8 -6 12.75 1.7
4 -8 -6 12.7 1.69
-4 -8 -7 21.5 2.28
4 -8 -7 19.09 2.24
-4 -8 -8 0.67 0.96
4 -8 -8 -0.81 0.86
-4 -8 -9 -0.66 1.02
4 -8 -9 1.13 1.22
-5 8 -9 1.33 0.95
5 8 -9 2.13 1.12
-5 8 -8 5.84 1.38
5 8 -8 6.89 1.45
-5 8 -7 0.18 0.65
5 8 -7 1.35 0.76
-5 8 -6 1.65 0.85
5 8 -6 0.2 0.65
5 -8 6 2.66 0.8
-5 8 -5 9.32 1.3
5 8 -5 11.69 1.52
5 -8 5 7.99 1.13
-5 8 -4 11.35 1.34
5 -8 4 10.38 1.19
5 8 -4 10.27 1.36
-5 8 -3 27.32 1.59
-5 -8 3 28.59 1.47
-5 -8 3 26.88 1.45
5 -8 3 28.16 1.64
5 8 -3 26.8 1.68
-5 8 -2 11.31 1.17
-5 -8 2 13.37 1.2
-5 -8 2 12.29 1.08
5 8 -2 12.78 1.31
5 -8 2 11.55 1.16
-5 8 -1 19.44 1.13
-5 -8 1 17.82 1.09
-5 -8 1 19.09 1.27
5 8 -1 21.39 1.34
5 -8 1 20.76 1.08
5 -8 1 19.55 1.33
-5 -8 0 0.71 0.45
-5 -8 0 0.02 0.29
-5 8 0 0.13 0.25
5 8 0 -0.19 0.36
5 -8 0 -0.31 0.3
5 -8 0 -0.64 0.31
-5 -8 -1 19.97 1.06
-5 -8 -1 17.52 1.33
5 8 1 20.2 1.15
5 -8 -1 18.27 1.28
5 -8 -1 19.84 1.31
-5 -8 -2 14.33 1.45
-5 -8 -2 11.67 0.97
5 -8 -2 12.96 1.21
5 -8 -2 13.42 1.3
-5 -8 -3 31.07 1.88
-5 -8 -3 27.23 1.35
5 -8 -3 26.61 1.76
-5 -8 -4 6.13 1.14
5 -8 -4 12.09 1.43
-5 -8 -5 5.98 1.19
5 -8 -5 7.24 1.28
-5 -8 -6 2.75 1.1
5 -8 -6 0.25 0.74
-5 -8 -7 -0.45 0.78
5 -8 -7 0 0.79
-5 -8 -8 5.92 1.37
5 -8 -8 7.11 1.57
-5 -8 -9 0.37 1.07
5 -8 -9 2.73 1.29
-6 8 -9 0.41 0.9
6 8 -9 0.96 0.98
-6 8 -8 0.1 0.77
6 8 -8 0.52 0.84
-6 8 -7 44.41 2.65
6 8 -7 45.14 2.69
-6 8 -6 -1.07 0.51
6 -8 6 -0.59 0.63
6 8 -6 0.79 0.7
-6 8 -5 8.87 1.29
6 -8 5 6.38 1.02
6 8 -5 9.39 1.34
-6 8 -4 17.87 1.44
6 -8 4 19.47 1.48
6 8 -4 19.86 1.86
-6 -8 3 10.99 1.09
-6 -8 3 9.71 1.03
-6 8 -3 11.48 1.21
6 8 -3 10.93 1.35
6 -8 3 9.88 1.17
-6 8 -2 31.73 1.55
-6 -8 2 29.77 1.44
-6 -8 2 30.1 1.53
6 8 -2 28.64 1.67
6 -8 2 29.27 1.64
-6 8 -1 103 2.81
-6 -8 1 106.74 3.11
-6 -8 1 105.72 2.82
6 8 -1 110.7 3.19
6 -8 1 109.79 3.22
6 -8 1 114.25 2.74
-6 -8 0 10.2 0.88
-6 -8 0 8.12 1.07
-6 8 0 10.04 0.75
6 -8 0 7.67 0.96
6 8 0 9.77 1.03
6 -8 0 10.4 1
-6 -8 -1 107.47 2.71
-6 -8 -1 108.83 3.35
6 8 1 112.6 2.91
6 -8 -1 110.81 3.18
6 -8 -1 108.93 3.09
-6 -8 -2 28.86 1.28
-6 -8 -2 27.99 1.72
6 -8 -2 30.05 1.68
6 -8 -2 32.13 1.66
-6 -8 -3 8.14 1.18
-6 -8 -3 10.76 0.93
6 -8 -3 10.65 1.34
-6 -8 -4 15.9 1.63
6 -8 -4 20.2 1.85
-6 -8 -5 7.06 1.37
6 -8 -5 6.23 1.23
-6 -8 -6 -0.18 0.7
6 -8 -6 -0.37 0.76
-6 -8 -7 45.19 2.79
6 -8 -7 43.77 2.88
-6 -8 -8 -0.31 0.91
6 -8 -8 1.14 1.07
-6 -8 -9 0.33 1.1
6 -8 -9 0.09 1.02
-7 8 -9 0.23 0.88
7 8 -9 -0.8 0.84
-7 8 -8 5.8 1.32
7 8 -8 3.12 1.13
-7 8 -7 0.03 0.64
7 8 -7 0.43 0.75
-7 8 -6 2.59 0.93
7 -8 6 0.79 0.72
7 8 -6 1.93 0.88
-7 8 -5 2.64 0.82
7 -8 5 1.58 0.73
7 8 -5 3.66 1.04
-7 8 -4 12.36 1.42
7 -8 4 11.24 1.31
7 8 -4 11.18 1.43
-7 -8 3 0.32 0.37
-7 8 -3 0.1 0.41
-7 -8 3 -0.1 0.37
7 -8 3 -0.21 0.43
7 8 -3 0.21 0.5
-7 8 -2 10.65 1.11
-7 -8 2 8.87 0.93
-7 -8 2 9.98 1.09
7 -8 2 9.43 1.13
7 8 -2 8.74 1.16
-7 -8 1 8.29 0.85
-7 8 -1 5.68 0.79
-7 -8 1 6.69 0.93
7 8 -1 6.08 0.92
7 -8 1 4.96 0.84
-7 -8 0 -0.46 0.4
-7 -8 0 -0.21 0.25
7 -8 0 0.11 0.41
7 -8 0 -0.3 0.4
7 8 0 0.09 0.43
-7 -8 -1 5.68 0.65
-7 -8 -1 5.09 0.89
7 -8 -1 5.39 0.82
7 8 1 5.62 0.79
7 -8 -1 5.73 0.86
-7 -8 -2 9.5 1.3
-7 -8 -2 9.24 0.83
7 -8 -2 12.02 1.24
7 -8 -2 8.43 1.11
-7 -8 -3 -0.24 0.53
7 -8 -3 0.01 0.51
-7 -8 -4 10.51 1.42
7 -8 -4 11.22 1.47
-7 -8 -5 1.73 0.88
7 -8 -5 2.59 0.9
-7 -8 -6 2.28 0.97
7 -8 -6 1.03 0.86
-7 -8 -7 0.83 0.93
7 -8 -7 0.61 0.95
-7 -8 -8 6.88 1.5
7 -8 -8 3.99 1.4
-7 -8 -9 0.53 0.99
7 -8 -9 0.04 1.07
-8 8 -9 -1.57 0.81
8 8 -9 1.4 1.01
-8 8 -8 5.08 1.41
8 8 -8 4.21 1.26
-8 8 -7 35.28 2.44
8 8 -7 34.32 2.48
-8 8 -6 3.62 0.97
8 8 -6 3.71 1.11
8 -8 6 3.22 0.88
-8 8 -5 2.43 0.77
8 8 -5 2.99 0.93
8 -8 5 2.44 0.8
-8 8 -4 3.46 0.83
8 -8 4 4.77 0.91
8 8 -4 5.64 1.07
-8 8 -3 4.79 0.87
-8 -8 3 5.67 0.89
8 8 -3 7.56 1.16
8 -8 3 6.62 1.01
-8 8 -2 10.12 1.12
-8 -8 2 12.6 0.94
-8 -8 2 11.21 1.16
8 8 -2 10.29 1.26
8 -8 2 9.13 1.09
-8 -8 1 53.77 1.85
-8 -8 1 52.94 2.16
-8 8 -1 55.85 1.95
8 -8 1 57.4 2.28
8 8 -1 54.25 2.21
-8 -8 0 11.48 1.24
-8 -8 0 9.44 0.83
8 8 0 10.26 1.1
8 -8 0 10.3 0.97
8 -8 0 11.04 1.14
-8 -8 -1 54.37 2.29
-8 -8 -1 53.71 1.69
8 -8 -1 54.67 2.06
8 8 1 50.59 1.94
8 -8 -1 54 2.17
-8 -8 -2 8.65 1.14
8 -8 -2 8.94 1.14
8 -8 -2 9.05 1.04
8 8 2 10.75 1.01
-8 -8 -3 7.52 1.2
8 -8 -3 6.31 1.08
-8 -8 -4 4.2 0.97
8 -8 -4 5.6 1.12
-8 -8 -5 3.11 0.98
8 -8 -5 3.2 0.97
-8 -8 -6 3.36 1.09
8 -8 -6 3.79 1.14
-8 -8 -7 32.68 2.51
8 -8 -7 32.36 2.49
-8 -8 -8 4.99 1.49
8 -8 -8 4.53 1.43
-8 -8 -9 0.9 1.18
8 -8 -9 0.28 1.15
-9 8 -9 9.64 1.7
9 8 -9 5.95 1.54
-9 8 -8 1.29 1
9 8 -8 1.82 1.03
-9 8 -7 1.4 0.86
9 8 -7 0.52 0.81
-9 8 -6 0.43 0.65
9 8 -6 -0.1 0.67
9 -8 6 0.8 0.69
-9 8 -5 3.33 0.88
9 -8 5 2.76 0.85
9 8 -5 2.21 0.81
-9 8 -4 1.98 0.69
9 8 -4 3.18 0.91
9 -8 4 2.92 0.79
-9 8 -3 26.16 1.58
-9 -8 3 25.45 1.53
9 -8 3 22.92 1.58
9 8 -3 20.64 1.61
-9 -8 2 -0.15 0.33
-9 -8 2 -0.14 0.39
-9 8 -2 0.17 0.38
9 8 -2 -0.85 0.38
9 -8 2 0.62 0.5
-9 8 -1 5.64 0.76
-9 -8 1 6.58 0.75
-9 -8 1 7.12 0.99
9 -8 1 5.56 0.94
9 8 -1 7.48 1.09
-9 -8 0 -0.45 0.41
-9 -8 0 -0.01 0.28
9 -8 0 0.42 0.47
9 -8 0 -0.32 0.37
9 8 0 -0.04 0.41
-9 -8 -1 6.9 1.02
9 -8 -1 7.3 0.98
9 -8 -1 7.04 0.97
9 8 1 7.37 0.95
-9 -8 -2 0.37 0.47
9 -8 -2 0.51 0.55
9 -8 -2 0.18 0.46
9 8 2 0.07 0.42
-9 -8 -3 25.16 1.76
9 -8 -3 20.98 1.64
-9 -8 -4 2.82 0.89
9 -8 -4 2.84 0.94
-9 -8 -5 2.41 0.92
9 -8 -5 2.26 0.89
-9 -8 -6 -0.06 0.71
9 -8 -6 0.74 0.78
-9 -8 -7 0.69 0.96
9 -8 -7 0.67 0.9
-9 -8 -8 1.32 1.09
9 -8 -8 1.87 1.13
-9 -8 -9 6.47 1.73
9 -8 -9 10.1 2.03
-10 8 -9 1.88 1.12
10 8 -9 1.5 1.16
-10 8 -8 9.43 1.61
10 8 -8 6 1.5
-10 8 -7 11.7 1.62
10 8 -7 8.99 1.53
-10 8 -6 8.74 1.37
10 8 -6 10.94 1.66
10 -8 6 13.02 1.58
-10 8 -5 7.97 1.3
10 -8 5 8.08 1.22
10 8 -5 5.88 1.19
-10 8 -4 1.84 0.74
10 -8 4 2.59 0.78
10 8 -4 2.03 0.82
-10 -8 3 9.42 1.15
-10 8 -3 5.78 0.97
10 -8 3 8.61 1.14
10 8 -3 9.47 1.3
-10 8 -2 2.03 0.62
-10 -8 2 2.44 0.63
10 -8 2 1.92 0.62
10 8 -2 2.49 0.71
-10 -8 1 63.56 2
-10 -8 1 67.78 2.51
-10 8 -1 68.57 2.24
10 8 -1 65.74 2.55
10 -8 1 70.54 2.6
-10 -8 0 40.71 1.98
10 8 0 36.73 1.81
10 -8 0 42.16 1.96
-10 -8 -1 68.73 2.69
10 -8 -1 65.9 2.32
10 -8 -1 67.99 2.51
10 8 1 62.29 2.3
-10 -8 -2 2.83 0.79
10 8 2 2.03 0.61
10 -8 -2 2.57 0.72
10 -8 -2 1.38 0.62
-10 -8 -3 6.87 1.2
10 -8 -3 9.6 1.29
-10 -8 -4 2.15 0.89
10 -8 -4 0.65 0.71
-10 -8 -5 6.55 1.29
10 -8 -5 3.74 0.99
-10 -8 -6 11.98 1.68
10 -8 -6 10.92 1.66
-10 -8 -7 13.03 1.77
10 -8 -7 7.56 1.53
-10 -8 -8 9.01 1.66
10 -8 -8 5.56 1.51
-10 -8 -9 -0.34 1.05
10 -8 -9 1.07 1.27
-11 8 -9 15.04 2.21
11 8 -9 16.09 2.33
-11 8 -8 5.32 1.38
11 8 -8 5.1 1.5
-11 8 -7 1.23 0.77
11 8 -7 1.05 0.87
-11 8 -6 -0.21 0.63
11 -8 6 -0.26 0.57
11 8 -6 1.17 0.86
-11 8 -5 32.4 2.09
11 8 -5 28.79 2.08
11 -8 5 29.33 1.99
-11 8 -4 0.02 0.5
11 -8 4 0.67 0.63
11 8 -4 0.37 0.6
-11 -8 3 25.75 1.62
-11 8 -3 25.21 1.62
11 -8 3 25.69 1.73
11 8 -3 26.49 1.81
-11 8 -2 5.17 0.82
-11 -8 2 5.16 0.9
11 -8 2 5.22 0.94
11 8 -2 3.83 0.84
-11 8 -1 8.49 0.94
-11 -8 1 8.17 1.1
11 -8 1 9.46 1.17
11 8 -1 9.02 1.19
-11 -8 0 -0.38 0.38
11 8 0 -0.26 0.42
11 -8 0 0.25 0.49
-11 -8 -1 8.6 1.21
11 -8 -1 8.97 1.09
11 8 1 6.83 0.94
11 -8 -1 9.69 1.1
-11 -8 -2 4.43 0.93
11 -8 -2 4.54 0.86
11 8 2 5.11 0.83
11 -8 -2 6.05 0.99
-11 -8 -3 24.66 1.78
11 -8 -3 26.61 1.77
-11 -8 -4 0.27 0.65
11 -8 -4 0.11 0.68
-11 -8 -5 27.79 2.08
11 -8 -5 30.87 2.17
-11 -8 -6 0.79 0.83
11 -8 -6 0.7 0.77
-11 -8 -7 -0.33 0.81
11 -8 -7 0.14 0.82
-11 -8 -8 4.87 1.34
11 -8 -8 2.16 1.22
-11 -8 -9 13.28 2
11 -8 -9 12.08 2.1
-12 8 -9 2.67 1.4
-12 8 -8 6.25 1.42
12 8 -8 6.77 1.58
-12 8 -7 0.15 0.77
12 8 -7 0.77 0.95
-12 8 -6 11.31 1.59
12 -8 6 11.17 1.49
12 8 -6 13.87 1.82
-12 8 -5 1.95 0.72
12 -8 5 1.93 0.77
12 8 -5 0.61 0.74
-12 8 -4 2.6 0.81
12 -8 4 2.91 0.87
12 8 -4 3.43 0.98
-12 -8 3 6.56 1.04
-12 8 -3 7.52 1.08
12 -8 3 7.27 1.09
12 8 -3 8.73 1.31
-12 8 -2 0.02 0.43
-12 -8 2 -0.29 0.4
12 8 -2 0.21 0.54
12 -8 2 0.52 0.51
-12 -8 1 11.09 1.27
-12 8 -1 12.73 1.14
12 8 -1 14.17 1.45
12 -8 1 12.81 1.3
-12 -8 0 15.35 1.52
12 8 0 14.08 1.43
12 -8 0 12.69 1.38
-12 -8 -1 12.67 1.42
12 -8 -1 13.64 1.24
12 8 1 12.92 1.31
12 -8 -1 11.38 1.22
-12 -8 -2 1.21 0.68
12 8 2 0.16 0.51
12 -8 -2 0.17 0.49
12 -8 -2 -0.29 0.49
-12 -8 -3 6.51 1.16
12 -8 -3 6.01 1.07
-12 -8 -4 2.54 0.91
12 -8 -4 3.43 1.04
-12 -8 -5 0.32 0.73
12 -8 -5 2.42 0.94
-12 -8 -6 12.37 1.71
12 -8 -6 11.34 1.73
-12 -8 -7 0.46 0.94
12 -8 -7 0.47 0.97
-12 -8 -8 12.44 1.96
12 -8 -8 6.78 1.65
-12 -8 -9 1.12 1.17
-13 8 -8 0.04 0.91
13 8 -8 0.11 0.79
-13 8 -7 0.83 0.86
13 8 -7 -0.26 0.84
13 -8 7 0.13 0.77
-13 8 -6 0.26 0.69
13 8 -6 1.02 0.98
13 -8 6 0.51 0.73
-13 8 -5 20.55 1.99
13 8 -5 27.78 2.57
13 -8 5 22.81 2.07
-13 8 -4 10.78 1.41
13 8 -4 13.5 1.73
13 -8 4 10.79 1.31
-13 8 -3 64.74 2.6
13 -8 3 55.23 2.55
13 8 -3 60.21 2.78
-13 8 -2 0.95 0.56
-13 -8 2 0.7 0.51
13 -8 2 -0.64 0.5
13 8 -2 -0.2 0.49
-13 -8 1 12.3 1.41
-13 8 -1 13.94 1.11
13 -8 1 14.12 1.42
13 8 -1 13.32 1.45
-13 -8 0 0.38 0.53
13 8 0 -0.15 0.48
13 -8 0 -0.24 0.45
-13 -8 -1 12.14 1.43
13 -8 -1 12.55 1.39
13 8 1 9.72 1.19
-13 -8 -2 -0.52 0.53
13 -8 -2 0.75 0.61
13 -8 -2 0.3 0.53
13 8 2 0.4 0.49
-13 -8 -3 67.46 2.92
13 -8 -3 65.56 2.75
-13 -8 -4 11.4 1.56
13 -8 -4 9.16 1.38
-13 -8 -5 19.18 2.07
13 -8 -5 23.05 2.3
-13 -8 -6 3.45 1.16
13 -8 -6 0.58 0.85
-13 -8 -7 -0.31 0.76
13 -8 -7 0.62 0.96
-13 -8 -8 -0.18 0.88
13 -8 -8 0.28 1
-13 -8 -9 12.16 2
-14 8 -8 6.69 1.36
14 8 -8 12.88 1.99
-14 8 -7 3.74 1.17
14 -8 7 3.05 1.05
14 8 -7 3.65 1.26
-14 8 -6 2.23 0.91
14 -8 6 2.46 0.94
14 8 -6 2.08 0.96
-14 8 -5 0.83 0.73
14 8 -5 1.46 0.87
14 -8 5 0.12 0.65
-14 8 -4 3.12 0.9
14 8 -4 3.95 1.01
14 -8 4 4.2 0.91
-14 8 -3 2.52 0.72
14 -8 3 1.05 0.68
14 8 -3 3.29 0.97
-14 -8 2 20.91 1.55
-14 8 -2 23.79 1.51
14 -8 2 22.89 1.66
14 8 -2 23.03 2.01
-14 -8 1 3.61 0.84
-14 8 -1 3.27 0.67
14 -8 1 1.74 0.7
14 8 -1 1.99 0.72
-14 -8 0 0.74 0.52
14 -8 0 0.16 0.49
14 8 0 0.03 0.48
-14 -8 -1 1.67 0.63
14 -8 -1 2.86 0.76
14 8 1 3.74 0.83
-14 -8 -2 23.08 1.75
14 -8 -2 22.65 1.63
14 -8 -2 26.15 1.64
14 8 2 21.44 1.55
-14 -8 -3 2.01 0.76
14 -8 -3 1.04 0.73
14 8 3 1.99 0.73
-14 -8 -4 4.28 1.05
14 -8 -4 3.98 1.07
-14 -8 -5 0.13 0.73
14 -8 -5 1.27 0.8
-14 -8 -6 3.41 1.08
14 -8 -6 2.98 1.15
-14 -8 -7 6.4 1.46
14 -8 -7 3.96 1.35
-14 -8 -8 13.05 1.96
14 -8 -8 10.9 1.89
-15 8 -8 -0.21 0.89
15 8 -8 0.57 1.04
-15 8 -7 2.29 1
15 -8 7 4.09 1.11
15 8 -7 2.13 1.04
-15 8 -6 3.25 1.05
15 -8 6 3.25 1
15 8 -6 3.27 1.12
-15 8 -5 9.35 1.46
15 -8 5 10.69 1.42
15 8 -5 10.91 1.8
-15 8 -4 10.31 1.37
15 -8 4 10.76 1.39
15 8 -4 10.06 1.64
-15 8 -3 116.42 3.7
15 8 -3 123.63 4.15
15 -8 3 107.48 3.75
-15 -8 2 2.12 0.7
-15 8 -2 2.27 0.71
15 -8 2 3.22 0.89
15 8 -2 1.66 0.81
-15 -8 1 20.25 1.8
15 -8 1 21.12 1.62
15 8 -1 20.56 1.85
-15 -8 0 0.19 0.56
15 8 0 0.4 0.53
15 -8 0 -0.28 0.54
-15 -8 -1 18.39 1.79
15 8 1 19.26 1.49
15 -8 -1 18.26 1.63
-15 -8 -2 2.03 0.81
15 8 2 1.53 0.7
15 -8 -2 1.98 0.74
15 -8 -2 2.71 0.79
-15 -8 -3 125.53 4.18
15 8 3 120.81 3.74
15 -8 -3 118.07 3.88
-15 -8 -4 9.91 1.51
15 -8 -4 13.73 1.73
-15 -8 -5 6.79 1.23
15 -8 -5 9.19 1.54
-15 -8 -6 2.79 1.05
15 -8 -6 1.27 1.01
-15 -8 -7 5.58 1.41
15 -8 -7 1.95 1.22
-15 -8 -8 0.86 1
15 -8 -8 1.74 1.16
-16 8 -8 3.86 1.32
16 8 -8 2.09 1.35
-16 8 -7 15.28 1.97
16 8 -7 12.62 1.95
16 -8 7 13.85 1.82
-16 8 -6 0.51 0.78
16 8 -6 0.55 0.95
16 -8 6 0.82 0.76
-16 8 -5 1.77 0.8
16 8 -5 1.73 0.94
16 -8 5 1.61 0.87
-16 8 -4 15.53 1.68
16 -8 4 17.41 1.73
16 8 -4 21.92 2.22
-16 8 -3 0.85 0.62
16 -8 3 0.88 0.74
16 8 -3 0.34 0.71
-16 -8 2 8.94 1.25
-16 8 -2 8.22 1.07
16 8 -2 8.04 1.32
16 -8 2 6.46 1.15
-16 -8 1 0.34 0.51
16 -8 1 -0.32 0.51
16 8 -1 0.86 0.67
-16 -8 0 12.98 1.48
16 8 0 10.96 1.43
16 -8 0 12.26 1.39
-16 -8 -1 1.14 0.65
16 8 1 0.04 0.54
16 -8 -1 0.98 0.59
-16 -8 -2 6.88 1.22
16 8 2 8.15 1.2
16 -8 -2 6.54 1.07
-16 -8 -3 0.78 0.72
16 8 3 0.69 0.66
16 -8 -3 0.55 0.7
-16 -8 -4 15.41 1.8
16 -8 -4 16.42 1.83
-16 -8 -5 0.57 0.8
16 -8 -5 1.41 0.95
-16 -8 -6 0.46 0.82
16 -8 -6 -0.13 0.9
-16 -8 -7 13.59 2.03
16 -8 -7 12.42 1.96
-16 -8 -8 3.78 1.3
16 -8 -8 2.51 1.3
-17 8 -8 1.75 1.09
-17 8 -7 0.41 0.86
17 8 -7 0.38 1.02
17 -8 7 -0.27 0.86
-17 8 -6 2.81 1.02
17 -8 6 0.98 0.82
17 8 -6 1.91 1.18
-17 8 -5 9.48 1.47
17 8 -5 9.19 1.62
17 -8 5 8.23 1.39
-17 8 -4 12.11 1.51
17 8 -4 16.95 1.96
17 -8 4 12.71 1.54
-17 8 -3 18.29 1.71
17 8 -3 21.23 2.21
17 -8 3 16 1.63
-17 -8 2 18.81 1.81
-17 8 -2 15.29 1.46
17 8 -2 24.72 2.25
17 -8 2 17.85 1.74
-17 -8 1 7.05 1.16
17 -8 1 6.36 1.14
17 8 -1 6.71 1.2
-17 -8 0 -0.7 0.44
17 8 0 -0.8 0.47
17 -8 0 -0.79 0.47
-17 -8 -1 9.03 1.32
17 8 1 6.47 1.13
17 -8 -1 7.21 1.13
-17 -8 -2 20.89 2.01
17 8 2 20.11 1.86
17 -8 -2 18.87 1.84
-17 -8 -3 21.98 2.13
17 -8 -3 20.94 1.96
-17 -8 -4 11.14 1.59
17 -8 -4 14.63 1.8
-17 -8 -5 9.51 1.53
17 -8 -5 10.69 1.72
-17 -8 -6 1.26 1.03
17 -8 -6 1.82 1.18
-17 -8 -7 -1.28 0.79
17 -8 -7 -0.3 0.96
-17 -8 -8 4.01 1.42
17 -8 -8 2.25 1.3
-18 8 -7 12.96 1.83
18 8 -7 16.13 2.2
18 -8 7 12.17 1.73
-18 8 -6 0.53 0.82
18 -8 6 0.75 0.82
18 8 -6 0.08 0.79
-18 8 -5 11.48 1.54
18 -8 5 11.07 1.54
18 8 -5 8.74 1.65
-18 8 -4 12.46 1.56
18 -8 4 14.83 1.7
18 8 -4 12.74 1.81
-18 8 -3 4.3 0.93
18 -8 3 3.41 1
18 8 -3 2.02 0.93
-18 8 -2 0 0.54
-18 -8 2 0.21 0.55
18 -8 2 0.03 0.61
18 8 -2 -0.3 0.62
-18 -8 1 30.04 1.93
18 -8 1 26.55 1.85
18 8 -1 28.48 2.01
-18 -8 0 2.84 0.82
18 8 0 4.34 1.05
18 -8 0 1.15 0.65
-18 -8 -1 30.22 1.95
18 -8 -1 24.28 1.75
18 8 1 28.82 1.99
-18 -8 -2 1.1 0.7
18 -8 -2 0.5 0.67
18 8 2 1.1 0.7
-18 -8 -3 3.72 1.06
18 -8 -3 3.13 0.9
-18 -8 -4 17.43 1.99
18 -8 -4 9.9 1.54
-18 -8 -5 12.65 1.72
18 -8 -5 12.09 1.81
-18 -8 -6 1.04 0.87
18 -8 -6 0.78 1.04
-18 -8 -7 13.61 1.97
18 -8 -7 13.66 2.15
-18 -8 -8 0.74 1.08
18 -8 -8 0.73 1.31
-19 8 -7 -0.48 0.82
19 -8 7 1.86 1.09
19 8 -7 1.9 1.27
-19 8 -6 -1.01 0.68
19 8 -6 0.47 0.92
19 -8 6 0.53 0.82
-19 8 -5 1.19 0.83
19 -8 5 2.24 1.01
19 8 -5 1.07 0.93
-19 8 -4 4.04 1.01
19 -8 4 5.22 1.15
19 8 -4 7.45 1.53
-19 8 -3 1.51 0.7
19 -8 3 1.82 0.82
19 8 -3 2.88 1
-19 -8 2 7.76 1.28
-19 8 -2 4.89 0.94
19 8 -2 6.81 1.38
19 -8 2 3.79 0.99
-19 -8 1 0.08 0.59
19 8 -1 0.08 0.72
19 -8 1 -0.94 0.52
-19 -8 0 -0.18 0.5
19 -8 0 -0.15 0.62
19 8 0 0.17 0.64
-19 -8 -1 -0.95 0.49
19 -8 -1 1.01 0.67
19 8 1 0.49 0.69
-19 -8 -2 8.36 1.28
19 8 2 6.16 1.21
19 -8 -2 5.66 1.07
-19 -8 -3 1.73 0.84
19 -8 -3 3.74 1.06
-19 -8 -4 4.41 1.15
-19 -8 -4 6.13 1.17
19 -8 -4 3.53 1.13
-19 -8 -5 4.09 1.27
19 -8 -5 3.24 1.14
-19 -8 -6 0.39 0.85
19 -8 -6 0.34 1.01
-19 -8 -7 0.56 0.9
19 -8 -7 0.31 1.12
-20 8 -7 20.02 2.3
20 8 -7 21.1 2.67
20 -8 7 12.83 1.87
-20 8 -6 1.47 0.95
20 -8 6 0.25 0.89
20 8 -6 1.01 0.99
-20 8 -5 43.24 2.59
20 -8 5 38.88 2.53
20 8 -5 44.53 2.95
-20 8 -4 0.01 0.64
20 8 -4 0.49 0.8
20 -8 4 -0.01 0.7
-20 8 -3 -0.29 0.56
20 8 -3 -0.18 0.65
20 -8 3 -0.36 0.68
-20 -8 2 2.61 0.85
-20 8 -2 1.51 0.69
20 8 -2 0.65 0.75
20 -8 2 0.45 0.73
-20 -8 1 64.66 2.93
20 8 -1 63.27 3.05
20 -8 1 65.38 2.87
-20 -8 0 4.74 1.03
20 -8 0 4.1 1
20 8 0 3.73 1.02
-20 -8 -1 65.06 2.91
20 8 1 60.87 2.96
20 -8 -1 59.56 2.71
-20 -8 -2 1.53 0.78
20 -8 -2 2.76 0.84
20 8 2 1.34 0.81
-20 -8 -3 -0.12 0.69
20 -8 -3 0.79 0.8
-20 -8 -4 -0.02 0.69
-20 -8 -4 0.1 0.52
20 -8 -4 -1.52 0.73
-20 -8 -5 38.89 2.66
20 -8 -5 42.53 2.86
-20 -8 -6 1.77 1.08
20 -8 -6 -0.75 0.97
-20 -8 -7 13.85 1.9
20 -8 -7 16.53 2.4
-21 8 -7 0.25 1.04
21 -8 7 -1.22 0.93
-21 8 -6 0.27 0.88
21 8 -6 -0.38 1.01
21 -8 6 0.42 0.87
-21 8 -5 -0.03 0.74
21 8 -5 -0.02 0.78
21 -8 5 0.67 0.93
-21 8 -4 2.73 0.95
21 -8 4 6.77 1.27
21 8 -4 6.95 1.66
-21 8 -3 3.98 0.99
21 8 -3 5.52 1.39
21 -8 3 3.03 0.93
-21 8 -2 11.16 1.62
21 8 -2 13.18 1.88
21 -8 2 10.53 1.45
-21 -8 1 0.1 0.57
21 8 -1 0.46 0.76
21 -8 1 -0.28 0.61
-21 -8 0 -0.1 0.52
21 8 0 0.63 0.76
21 -8 0 -0.01 0.68
-21 -8 -1 1.01 0.66
21 -8 -1 0.22 0.58
21 8 1 0.1 0.75
-21 -8 -2 13.39 1.63
21 -8 -2 14.6 1.6
21 8 2 18.26 1.99
-21 -8 -3 6.12 1.23
21 -8 -3 2.87 0.98
-21 -8 -4 5.51 1.04
-21 -8 -4 5.54 1.28
-21 -8 -5 0.61 0.85
21 -8 -5 1.37 1.04
-21 -8 -6 0.59 0.93
21 -8 -6 0.39 1.1
-21 -8 -7 1.74 1.13
21 -8 -7 2.65 1.39
-22 8 -6 1.3 1.08
22 8 -6 3.17 1.3
22 -8 6 4.6 1.22
-22 8 -5 12.22 1.73
22 -8 5 13.3 1.82
22 8 -5 14.89 2.13
-22 8 -4 -0.09 0.69
22 8 -4 -0.31 0.9
22 -8 4 1.05 0.88
-22 8 -3 2.23 0.83
22 8 -3 0.24 0.83
22 -8 3 -0.18 0.72
22 -8 2 2.65 0.92
22 8 -2 2.94 1.19
-22 -8 1 31.81 2.11
22 -8 1 35.51 2.19
22 8 -1 33.79 2.39
-22 -8 0 20.92 2.03
22 -8 0 18.85 1.93
22 8 0 20.04 2.11
-22 -8 -1 35.59 2.23
22 8 1 32.18 2.37
22 -8 -1 37.43 2.19
-22 -8 -2 2.99 0.94
22 8 2 1.78 0.93
22 -8 -2 3.26 0.95
-22 -8 -3 -0.02 0.68
22 -8 -3 0.2 0.8
-22 -8 -4 0.18 0.61
-22 -8 -4 0.32 0.81
-22 -8 -5 13.93 1.9
22 -8 -5 8.72 1.7
-22 -8 -6 3.08 1.24
22 -8 -6 2.77 1.31
-23 8 -6 0.05 0.9
23 8 -6 -0.56 1
23 -8 6 0.93 0.98
-23 8 -5 7.61 1.48
23 8 -5 9.74 2
23 -8 5 4.66 1.21
-23 8 -4 -0.21 0.79
23 -8 4 0.21 0.76
23 8 -4 0.52 0.88
-23 8 -3 24.88 1.97
23 -8 3 19.25 1.95
23 8 -3 23.97 2.71
23 8 -2 2.45 1
23 -8 2 2.58 0.91
-23 -8 1 10.03 1.49
23 -8 1 8.84 1.38
23 8 -1 7.9 1.55
-23 -8 0 -0.17 0.64
23 8 0 0.38 0.68
23 -8 0 -0.46 0.61
-23 -8 -1 7.74 1.38
23 8 1 11.93 1.81
23 -8 -1 10.28 1.46
-23 -8 -2 1.78 1.01
23 8 2 0.39 0.8
23 -8 -2 2.51 1.03
-23 -8 -3 25.2 2.4
23 -8 -3 25.24 2.22
-23 -8 -4 0.14 0.67
-23 -8 -4 -0.23 0.72
-23 -8 -5 8.21 1.54
-23 -8 -6 0.88 0.9
23 -8 -6 -0.34 1.07
-24 8 -6 10.07 1.78
24 -8 6 8.86 1.64
-24 8 -5 0.51 0.85
24 8 -5 1.71 1.12
24 -8 5 3.55 1.18
-24 8 -4 2.28 1.01
24 8 -4 1.07 1.22
24 -8 4 2.1 0.93
-24 8 -3 1.31 0.89
24 -8 3 -0.65 0.73
24 8 -3 -0.19 0.84
24 8 -2 0.54 0.88
24 -8 2 1.48 0.83
-24 -8 1 14.44 1.79
24 -8 1 9.78 1.49
24 8 -1 12.49 2.01
-24 -8 0 15.49 1.84
24 8 0 18.81 2.34
24 -8 0 17.83 1.83
-24 -8 -1 15.38 1.81
24 -8 -1 12.8 1.67
24 8 1 10.93 1.75
-24 -8 -2 1.26 0.88
24 -8 -2 0.94 0.77
24 8 2 1.61 0.93
-24 -8 -3 0.73 0.74
24 -8 -3 -0.09 0.75
-24 -8 -4 1.19 0.94
-24 -8 -4 0.79 0.74
-24 -8 -5 2.53 1.12
-24 -8 -6 8.25 1.66
24 -8 -6 7.82 1.89
-25 8 -5 9.64 1.63
25 -8 5 12.91 1.83
25 8 -5 14.78 2.23
-25 8 -4 0.02 0.81
25 -8 4 -0.39 0.82
25 8 -4 -0.44 0.92
-25 8 -3 32.04 2.27
25 -8 3 27.98 2.21
25 8 -3 30.23 3.03
25 -8 2 0.72 0.75
25 8 -2 1.04 1.03
-25 -8 1 11.79 1.67
25 -8 1 12.79 1.68
25 8 -1 12.62 1.95
-25 -8 0 0.03 0.69
25 8 0 0.57 0.92
25 -8 0 -0.39 0.67
-25 -8 -1 9.47 1.58
25 8 1 7.79 1.51
25 -8 -1 9.74 1.48
-25 -8 -2 0.79 0.81
25 -8 -2 0.06 0.81
25 8 2 0.31 0.94
-25 -8 -3 33.29 2.45
25 8 3 30.09 2.86
25 -8 -3 34.54 2.32
-25 -8 -4 -0.19 0.89
-25 -8 -4 0 0.7
25 -8 -4 0.03 0.82
-25 -8 -5 12.56 1.87
-26 8 -5 2.67 1.13
-26 8 -4 0.73 0.99
26 8 -4 -0.77 0.87
26 -8 4 -0.19 0.93
26 8 -3 -0.07 0.81
26 -8 3 1.59 1.02
26 8 -2 1.69 1
26 -8 2 1.9 0.91
26 8 -1 -1.11 0.73
26 -8 1 0.66 0.8
-26 -8 0 16.1 1.9
26 8 0 16.09 2.1
26 -8 0 18.21 1.95
-26 -8 -1 0.36 0.71
26 8 1 -0.55 0.96
26 -8 -1 0.54 0.8
-26 -8 -2 0.87 0.87
26 8 2 2.16 1.13
26 -8 -2 2.33 0.99
-26 -8 -3 0.1 0.84
26 8 3 -0.11 0.95
26 -8 -3 1.68 0.98
-26 -8 -4 0.62 0.92
-26 -8 -4 1 0.84
26 -8 -4 2.02 1.1
-26 -8 -5 0.44 0.92
-27 8 -4 1.24 1.01
27 8 -3 13.56 2.19
27 -8 3 12.31 1.73
27 -8 2 3.61 1.18
27 8 -2 1.9 1.13
27 8 -1 4.91 1.41
27 -8 1 2.74 1.05
-27 -8 0 0.3 0.77
27 -8 0 0.28 0.73
27 8 0 0.1 0.91
-27 -8 -1 5.9 1.32
27 -8 -1 3.48 1.08
27 8 1 4.23 1.44
-27 -8 -2 4.15 1.08
27 -8 -2 1.95 1
27 8 2 1.99 1.16
-27 -8 -3 13.44 1.84
27 8 3 11.89 2.03
27 -8 -3 11.26 1.69
-27 -8 -4 3.51 1.21
27 -8 -4 1.74 1.12
28 8 -3 1.38 1.2
28 -8 2 0.47 0.97
28 8 -2 -0.55 0.84
28 8 -1 16.16 2.35
28 -8 1 11.17 1.64
-28 -8 0 0.11 0.8
28 8 0 0.91 1.09
28 -8 0 0.33 0.81
-28 -8 -1 14.8 1.94
28 8 1 8.52 1.75
28 -8 -1 12.37 1.7
-28 -8 -2 0.67 0.92
28 8 2 0.51 1.03
28 -8 -2 0.07 0.79
-28 -8 -3 3.75 1.25
28 8 3 0.11 1.1
28 -8 -3 1.05 0.89
29 8 -1 7.55 1.87
29 -8 0 0.03 0.81
29 8 0 -0.1 1.03
-29 -8 -1 4.27 1.27
29 8 1 5.11 1.58
29 -8 -1 4.72 1.29
-29 -8 -2 1.11 0.96
29 -8 -2 -0.05 0.79
29 8 2 1.45 1.21
30 -8 -1 13.36 1.82
30 8 1 12.75 2.22
0 9 -9 0.61 0.99
0 9 -8 4.79 1.46
0 9 -7 -0.48 0.71
0 9 -6 3.18 1.03
0 -9 5 -0.47 0.48
0 9 -5 -0.04 0.53
0 -9 4 24.31 1.64
0 9 -4 22.97 1.71
0 9 -3 -0.43 0.42
0 -9 3 -0.15 0.4
0 -9 2 2.05 0.51
0 9 -2 1.53 0.57
0 -9 2 1.08 0.56
0 -9 1 0.5 0.46
0 9 -1 0.81 0.41
0 -9 1 0.54 0.46
0 -9 0 -0.1 0.36
0 -9 0 0.51 0.46
0 -9 -1 -0.18 0.32
0 -9 -1 -0.34 0.47
0 -9 -2 2.4 0.75
0 -9 -2 1.98 0.57
0 -9 -3 -0.68 0.55
0 -9 -3 -0.53 0.43
0 -9 -4 19.7 1.96
0 -9 -5 -0.78 0.63
0 -9 -6 5.63 1.35
0 -9 -7 0.3 0.94
0 -9 -8 3.37 1.27
0 -9 -9 -0.39 0.98
-1 9 -9 1.29 1.16
1 9 -9 1.12 1.06
-1 9 -8 -0.03 0.85
1 9 -8 0.01 0.92
-1 9 -7 4.83 1.17
1 9 -7 2.76 1
-1 9 -6 7.4 1.32
1 9 -6 10.37 1.56
-1 9 -5 2.75 0.92
-1 -9 5 1.39 0.71
1 -9 5 1.08 0.66
1 9 -5 3.21 0.96
-1 -9 4 4.29 0.87
-1 9 -4 5 0.98
1 -9 4 5.78 1.01
1 9 -4 5.74 1.08
-1 9 -3 2.59 0.76
-1 -9 3 2.34 0.67
-1 -9 3 1.29 0.47
1 9 -3 1.27 0.6
1 -9 3 0.48 0.54
-1 -9 2 1.22 0.52
-1 -9 2 1.63 0.51
-1 9 -2 1.56 0.58
1 9 -2 1.41 0.56
1 -9 2 2.34 0.64
1 -9 2 1.21 0.46
-1 -9 1 4.21 0.75
-1 -9 1 2.35 0.62
-1 9 -1 4.82 0.77
1 -9 1 2.95 0.61
1 9 -1 4.69 0.78
1 -9 1 4.48 0.76
-1 -9 0 8.7 0.97
-1 -9 0 7.97 1.03
1 -9 0 7.61 0.98
1 -9 0 6.34 0.89
-1 -9 -1 4.18 0.85
-1 -9 -1 5.05 0.79
1 -9 -1 5.71 0.86
1 -9 -1 5.58 0.92
-1 -9 -2 1.89 0.55
-1 -9 -2 1.91 0.73
1 -9 -2 1.6 0.71
1 -9 -2 2.03 0.61
-1 -9 -3 0.7 0.72
-1 -9 -3 2.34 0.61
1 -9 -3 1.44 0.74
1 -9 -3 2.02 0.65
-1 -9 -4 3.31 1
1 -9 -4 3.76 1.07
-1 -9 -5 1.62 0.89
1 -9 -5 0.54 0.78
-1 -9 -6 7.68 1.65
1 -9 -6 10.48 1.68
-1 -9 -7 4.91 1.39
1 -9 -7 4.41 1.32
-1 -9 -8 0.66 1.15
1 -9 -8 1.83 1.12
-1 -9 -9 3.25 1.47
1 -9 -9 -0.1 1.07
-2 9 -9 -0.59 0.82
2 9 -9 0.21 0.91
-2 9 -8 2.16 0.99
2 9 -8 2.2 1.06
-2 9 -7 0.23 0.78
2 9 -7 -0.48 0.65
-2 9 -6 4.19 1.1
2 9 -6 3.27 1.09
-2 9 -5 -0.74 0.52
-2 -9 5 0.42 0.51
2 9 -5 0.49 0.63
2 -9 5 0.79 0.56
-2 -9 4 47.3 2.18
-2 9 -4 50.49 2.41
2 9 -4 47.86 2.35
2 -9 4 44.21 2.21
-2 9 -3 0.05 0.47
-2 -9 3 0.77 0.5
-2 -9 3 1.09 0.47
2 -9 3 1.77 0.65
2 9 -3 -0.01 0.48
-2 -9 2 31.13 1.62
-2 -9 2 32.62 1.54
-2 9 -2 27.76 1.56
2 9 -2 28.9 1.63
2 -9 2 28.53 1.38
2 -9 2 31.46 1.69
-2 9 -1 1.22 0.53
-2 -9 1 0.83 0.48
-2 -9 1 1.92 0.55
2 9 -1 1.86 0.56
2 -9 1 1.51 0.51
2 -9 1 1.45 0.53
-2 -9 0 -0.23 0.4
-2 -9 0 0.28 0.36
2 -9 0 0.03 0.43
2 9 0 -0.33 0.38
2 -9 0 0.37 0.43
-2 -9 -1 1.79 0.65
-2 -9 -1 1.09 0.5
2 -9 -1 0.55 0.51
2 -9 -1 2.32 0.68
-2 -9 -2 29.27 1.5
-2 -9 -2 29.25 1.82
2 -9 -2 29.36 1.81
2 -9 -2 29.69 1.6
-2 -9 -3 1.31 0.52
-2 -9 -3 1.19 0.72
2 -9 -3 1.26 0.6
2 -9 -3 1.21 0.73
-2 -9 -4 41.3 2.41
2 -9 -4 44.1 2.44
-2 -9 -5 1.09 0.86
2 -9 -5 -0.24 0.74
-2 -9 -6 1.68 1.01
2 -9 -6 2.64 1.04
-2 -9 -7 1.46 0.95
2 -9 -7 -0.21 0.84
-2 -9 -8 1.28 1.13
2 -9 -8 2.04 1.24
-2 -9 -9 -1.68 0.97
2 -9 -9 -0.49 1.02
-3 9 -9 3.64 1.26
3 9 -9 4.81 1.5
-3 9 -8 1.72 1.01
3 9 -8 0.26 0.87
-3 9 -7 0.29 0.78
3 9 -7 0.14 0.75
-3 9 -6 6.65 1.25
3 9 -6 6.58 1.27
3 -9 6 9.53 1.36
-3 9 -5 1.45 0.73
3 9 -5 -0.06 0.54
3 -9 5 1.25 0.66
-3 9 -4 2 0.77
-3 -9 4 2.43 0.72
3 9 -4 3.04 0.9
3 -9 4 1.81 0.7
-3 9 -3 -0.29 0.45
-3 -9 3 -0.75 0.38
-3 -9 3 -0.23 0.36
3 9 -3 0.62 0.53
3 -9 3 -0.14 0.47
-3 -9 2 15.86 1.23
-3 -9 2 15.76 1.17
-3 9 -2 18.26 1.31
3 9 -2 18.41 1.36
3 -9 2 17.33 1.36
-3 9 -1 2.72 0.62
-3 -9 1 2.2 0.58
-3 -9 1 2.13 0.61
3 -9 1 2.99 0.7
3 -9 1 3.21 0.61
3 9 -1 1.95 0.59
-3 -9 0 17.58 1.17
-3 -9 0 18.52 1.34
3 -9 0 19.59 1.29
3 -9 0 17.7 1.27
3 9 0 18.9 1.17
-3 -9 -1 0.97 0.44
-3 -9 -1 2.86 0.79
3 -9 -1 1.52 0.59
3 -9 -1 2.79 0.67
-3 -9 -2 18.9 1.52
-3 -9 -2 15.97 1.12
3 -9 -2 19.4 1.33
3 -9 -2 19.08 1.67
-3 -9 -3 0.55 0.62
-3 -9 -3 -0.27 0.38
3 -9 -3 0.03 0.55
3 -9 -3 0.4 0.55
-3 -9 -4 2.68 1.01
3 -9 -4 1.76 0.82
-3 -9 -5 1.7 0.84
3 -9 -5 0.51 0.73
-3 -9 -6 8.48 1.51
3 -9 -6 5.65 1.32
-3 -9 -7 -0.47 0.88
3 -9 -7 2.38 1.22
-3 -9 -8 3.25 1.28
3 -9 -8 0.14 1.06
-3 -9 -9 5.86 1.69
3 -9 -9 -0.6 1.07
-4 9 -9 0.57 0.93
4 9 -9 0.26 1.02
-4 9 -8 10.87 1.69
4 9 -8 8.5 1.62
-4 9 -7 1.58 0.97
4 9 -7 2.41 1.03
-4 9 -6 -0.32 0.58
4 9 -6 -0.44 0.57
4 -9 6 0.55 0.62
-4 9 -5 1.17 0.68
4 9 -5 0.32 0.62
4 -9 5 0.76 0.63
-4 -9 4 14.14 1.41
-4 9 -4 13.95 1.6
4 9 -4 13.25 1.57
4 -9 4 15.13 1.51
-4 -9 3 19.18 1.36
-4 -9 3 16.96 1.25
-4 9 -3 18.79 1.45
4 9 -3 17.03 1.63
4 -9 3 18.37 1.62
-4 -9 2 24.71 1.44
-4 9 -2 24.77 1.49
-4 -9 2 23.65 1.4
4 9 -2 22.91 1.55
4 -9 2 26.6 1.61
-4 9 -1 0.43 0.36
-4 -9 1 0.54 0.47
-4 -9 1 0.24 0.4
4 -9 1 0.71 0.51
4 -9 1 0.69 0.43
4 9 -1 0.54 0.45
-4 -9 0 0.02 0.44
-4 -9 0 0.14 0.34
4 -9 0 -0.38 0.37
4 9 0 0.16 0.37
4 -9 0 -0.33 0.36
-4 -9 -1 -0.13 0.31
-4 -9 -1 1.19 0.62
4 -9 -1 0.4 0.49
4 -9 -1 -0.17 0.46
-4 -9 -2 26.31 1.76
-4 -9 -2 24.54 1.34
4 -9 -2 24.97 1.53
4 -9 -2 24.42 1.67
-4 -9 -3 15.94 1.15
-4 -9 -3 14.19 1.6
4 -9 -3 18.73 1.77
4 -9 -3 17.82 1.52
-4 -9 -4 9.2 1.38
4 -9 -4 15.14 1.7
-4 -9 -5 0.45 0.78
4 -9 -5 -0.27 0.71
-4 -9 -6 0.93 0.82
4 -9 -6 -0.97 0.69
-4 -9 -7 1.2 1.04
4 -9 -7 2.11 1.1
-4 -9 -8 9.28 1.83
4 -9 -8 9.88 1.92
-4 -9 -9 -0.44 1.11
4 -9 -9 0.77 1.27
-5 9 -9 4.64 1.38
5 9 -9 -0.52 0.99
-5 9 -8 14.02 1.95
5 9 -8 11.36 1.87
-5 9 -7 0.88 0.76
5 9 -7 0.3 0.79
-5 9 -6 26.38 2.04
5 9 -6 25.52 2.4
5 -9 6 24.95 1.93
-5 9 -5 0.71 0.66
5 9 -5 0.27 0.69
5 -9 5 0.98 0.64
-5 -9 4 1.29 0.57
-5 9 -4 1.94 0.77
5 9 -4 4.83 0.95
5 -9 4 3.4 0.85
-5 9 -3 2.47 0.7
-5 -9 3 2.21 0.62
-5 -9 3 3.7 0.72
5 -9 3 2.76 0.79
5 9 -3 3.13 0.89
-5 9 -2 21.52 1.37
-5 -9 2 19.28 1.35
-5 -9 2 24.04 1.39
5 -9 2 22.13 1.5
5 9 -2 21.93 1.51
-5 -9 1 4.96 0.76
-5 9 -1 5.66 0.78
-5 -9 1 5.53 0.86
5 9 -1 6.13 0.94
5 -9 1 5.57 0.88
-5 -9 0 40.4 1.67
-5 -9 0 44.1 2.06
5 -9 0 42.82 1.8
5 9 0 42.15 1.83
5 -9 0 43.38 1.98
-5 -9 -1 6.8 0.83
-5 -9 -1 6.24 1.04
5 -9 -1 4.25 0.87
5 -9 -1 5.4 0.91
-5 -9 -2 20.52 1.6
-5 -9 -2 21.89 1.22
5 -9 -2 22.16 1.47
5 -9 -2 19.4 1.54
-5 -9 -3 2.5 0.58
-5 -9 -3 1.82 0.75
5 -9 -3 3.06 0.81
5 -9 -3 0.51 0.64
-5 -9 -4 2.81 0.93
5 -9 -4 3.21 1
-5 -9 -5 0.58 0.83
5 -9 -5 0.55 0.72
-5 -9 -6 28.81 2.29
5 -9 -6 19.84 2.14
-5 -9 -7 0.14 0.88
5 -9 -7 -1.26 0.76
-5 -9 -8 10.23 1.83
5 -9 -8 12.47 2.05
-5 -9 -9 -0.84 1.1
5 -9 -9 1.52 1.34
-6 9 -9 1.92 1.11
6 9 -9 1.91 1.09
-6 9 -8 4.39 1.26
6 9 -8 2.53 1.09
-6 9 -7 0.26 0.75
6 9 -7 2.44 1.01
-6 9 -6 0.93 0.73
6 9 -6 0.61 0.81
6 -9 6 1.15 0.76
-6 9 -5 2.65 0.82
6 9 -5 1.08 0.79
6 -9 5 0.68 0.65
-6 9 -4 1.9 0.7
6 9 -4 3.02 0.94
6 -9 4 2.83 0.83
-6 9 -3 9.03 1.15
-6 -9 3 6.51 0.92
-6 -9 3 7.33 1
6 -9 3 5.68 1.01
6 9 -3 9.91 1.31
-6 -9 2 8.05 1.03
-6 -9 2 5.79 0.82
-6 9 -2 4.76 0.81
6 9 -2 7.83 1.08
6 -9 2 7.98 1.07
-6 -9 1 2.59 0.69
-6 -9 1 2.72 0.57
-6 9 -1 2.09 0.61
6 9 -1 2.08 0.66
6 -9 1 2.23 0.72
-6 -9 0 0.19 0.48
-6 -9 0 -0.38 0.29
6 9 0 0.01 0.4
6 -9 0 -0.17 0.43
6 -9 0 -0.02 0.46
-6 -9 -1 1.63 0.44
-6 -9 -1 1.18 0.62
6 -9 -1 2.59 0.72
6 -9 -1 2.55 0.68
-6 -9 -2 7.75 1.16
-6 -9 -2 6.23 0.75
6 -9 -2 6.08 1.05
6 -9 -2 7.27 1.03
-6 -9 -3 5.86 1.16
6 -9 -3 7.22 1.19
-6 -9 -4 2.15 0.87
6 -9 -4 2.1 0.91
-6 -9 -5 1.55 0.83
6 -9 -5 0.86 0.82
-6 -9 -6 0.1 0.88
6 -9 -6 0.47 0.79
-6 -9 -7 2.11 1.15
6 -9 -7 1.7 1.05
-6 -9 -8 3.18 1.2
6 -9 -8 3.56 1.37
-6 -9 -9 2.04 1.3
6 -9 -9 -0.41 1.11
-7 9 -9 0.53 0.98
-7 9 -8 8.45 1.56
7 9 -8 9.51 1.79
-7 9 -7 3.32 1.08
7 9 -7 3.23 1.05
-7 9 -6 49.91 2.72
7 9 -6 46.97 2.75
7 -9 6 53.69 2.71
-7 9 -5 0.92 0.65
7 9 -5 0.02 0.58
7 -9 5 0.47 0.63
-7 9 -4 5.21 1
7 9 -4 4.75 1.08
7 -9 4 4.96 0.98
-7 -9 3 0.35 0.45
-7 -9 3 -0.02 0.39
-7 9 -3 1.46 0.56
7 9 -3 0.37 0.51
7 -9 3 0.27 0.53
-7 -9 2 9.6 1.03
-7 -9 2 12.33 1.27
-7 9 -2 10.99 1.16
7 9 -2 11.15 1.36
7 -9 2 10.62 1.26
-7 -9 1 0.41 0.53
-7 -9 1 0.78 0.45
7 -9 1 1.24 0.6
7 9 -1 0.92 0.56
-7 -9 0 155.06 3.64
-7 -9 0 145.88 4.17
7 -9 0 150.87 3.77
7 -9 0 164.24 4.26
7 9 0 160.21 4.01
-7 -9 -1 1.01 0.59
-7 -9 -1 1.08 0.41
7 -9 -1 1.19 0.6
7 -9 -1 1.98 0.63
-7 -9 -2 10.1 1.3
7 -9 -2 7.08 1.15
7 -9 -2 11.13 1.26
-7 -9 -3 -0.09 0.58
7 -9 -3 0.62 0.64
-7 -9 -4 4.18 1.13
7 -9 -4 5.41 1.21
-7 -9 -5 -0.22 0.68
7 -9 -5 -0.04 0.69
-7 -9 -6 46.32 2.79
7 -9 -6 44.78 2.76
-7 -9 -7 0.64 0.98
7 -9 -7 2.03 1.17
-7 -9 -8 6 1.67
7 -9 -8 7.24 1.68
-7 -9 -9 -0.49 1.11
-8 9 -8 1.22 0.92
8 9 -8 0.67 0.94
-8 9 -7 0.08 0.88
8 9 -7 -0.51 0.75
-8 9 -6 1.92 0.81
8 9 -6 3.89 1.05
8 -9 6 3.71 1.07
-8 9 -5 -0.07 0.59
8 -9 5 -0.27 0.63
8 9 -5 0.41 0.76
-8 9 -4 2.02 0.71
8 -9 4 1.94 0.77
8 9 -4 3.31 1.03
-8 9 -3 4.26 0.91
-8 -9 3 4.81 0.81
-8 -9 3 4.98 0.89
8 -9 3 6.21 1.04
8 9 -3 5.27 1.08
-8 9 -2 -0.33 0.37
-8 -9 2 0.89 0.52
-8 -9 2 0.21 0.37
8 -9 2 -0.21 0.47
8 9 -2 0.03 0.54
-8 -9 1 2.65 0.58
-8 -9 1 2.9 0.72
8 9 -1 3.5 0.8
8 -9 1 3.13 0.75
-8 -9 0 0.24 0.34
-8 -9 0 0.04 0.47
8 9 0 -0.19 0.43
8 -9 0 0.77 0.52
-8 -9 -1 2.13 0.74
8 -9 -1 1.73 0.67
8 -9 -1 1.78 0.65
-8 -9 -2 0.14 0.51
8 -9 -2 0.08 0.56
8 -9 -2 -0.14 0.53
-8 -9 -3 3.95 0.98
8 -9 -3 5.19 1.03
-8 -9 -4 2.74 0.89
8 -9 -4 1.84 0.81
-8 -9 -5 0.7 0.8
8 -9 -5 0.17 0.78
-8 -9 -6 3.96 1.22
8 -9 -6 3.73 1.2
-8 -9 -7 -1.12 0.69
8 -9 -7 -1.47 0.77
-8 -9 -8 -0.04 1.04
8 -9 -8 1.66 1.13
-8 -9 -9 -0.55 1.07
-9 9 -8 5.63 1.44
9 9 -8 4.99 1.41
-9 9 -7 0.93 0.84
9 9 -7 2.71 1.14
-9 9 -6 28.7 2.17
9 -9 6 31.22 2.15
9 9 -6 29.3 2.21
-9 9 -5 1.48 0.73
9 -9 5 1.16 0.76
9 9 -5 1.78 0.89
-9 9 -4 0.16 0.57
9 9 -4 0.02 0.58
9 -9 4 0.66 0.61
-9 9 -3 -0.24 0.43
-9 -9 3 -0.24 0.45
9 9 -3 0.39 0.61
9 -9 3 0.15 0.53
-9 9 -2 7.34 1.04
-9 -9 2 8.77 1.13
-9 -9 2 8.47 0.95
9 -9 2 8.58 1.14
9 9 -2 7.57 1.2
-9 -9 1 17.73 1.6
-9 -9 1 14.96 1.13
9 9 -1 18.43 1.41
9 -9 1 15.74 1.5
-9 -9 0 100.61 3.35
9 9 0 97.98 3.15
9 -9 0 109.97 3.42
-9 -9 -1 16.6 1.64
9 -9 -1 16.96 1.31
9 9 1 12.55 1.22
9 -9 -1 14.43 1.42
-9 -9 -2 5.64 1.12
9 -9 -2 7.43 1.07
9 -9 -2 8.01 1.09
-9 -9 -3 -0.16 0.59
9 -9 -3 -0.85 0.54
-9 -9 -4 0.13 0.68
9 -9 -4 0.93 0.72
-9 -9 -5 0.52 0.79
9 -9 -5 1.63 0.9
-9 -9 -6 30.78 2.39
9 -9 -6 31.32 2.44
-9 -9 -7 2.05 1.01
9 -9 -7 1.81 1.18
-9 -9 -8 6.19 1.57
9 -9 -8 3.15 1.39
-10 9 -8 1.43 0.99
10 9 -8 1.11 1.06
-10 9 -7 2.15 0.95
10 -9 7 1.3 0.9
10 9 -7 1.11 0.93
-10 9 -6 1.11 0.76
10 -9 6 0.61 0.75
10 9 -6 1.01 0.81
-10 9 -5 -0.68 0.49
10 9 -5 0.6 0.73
10 -9 5 0.48 0.87
-10 9 -4 28.68 1.91
10 -9 4 37.18 2.19
10 9 -4 36.91 2.23
-10 9 -3 9.74 1.26
-10 -9 3 9.72 1.19
10 9 -3 8.16 1.29
10 -9 3 8.78 1.22
-10 9 -2 20.61 1.43
-10 -9 2 23.52 1.55
10 9 -2 24.34 1.72
10 -9 2 22.52 1.59
-10 -9 1 9.15 1.19
10 9 -1 7.73 1.16
10 -9 1 10.58 1.25
-10 -9 0 -0.31 0.42
10 -9 0 0.01 0.51
10 9 0 0.61 0.54
-10 -9 -1 8.84 1.28
10 9 1 9.17 1.1
10 -9 -1 7.13 1.08
10 -9 -1 9.41 1.14
-10 -9 -2 22.37 1.74
10 -9 -2 25.09 1.69
10 -9 -2 23.74 1.64
-10 -9 -3 8.05 1.32
10 -9 -3 7.42 1.21
10 -9 -3 7.65 1.19
-10 -9 -4 33.69 2.22
10 -9 -4 34.78 2.23
-10 -9 -5 -0.37 0.67
10 -9 -5 -0.86 0.73
-10 -9 -6 0.9 0.88
10 -9 -6 4.02 1.27
-10 -9 -7 2.33 1.17
10 -9 -7 1.37 1.06
-10 -9 -8 2.08 1.22
10 -9 -8 2.62 1.31
-11 9 -8 4.71 1.34
11 9 -8 2.75 1.24
-11 9 -7 2.53 0.98
11 -9 7 0.29 0.83
11 9 -7 -0.35 0.7
-11 9 -6 2.7 0.97
11 9 -6 3.71 1.22
11 -9 6 5.81 1.13
-11 9 -5 -0.38 0.6
11 9 -5 -0.45 0.67
11 -9 5 0.6 0.79
-11 9 -4 4.02 1.01
11 9 -4 2.09 0.96
11 -9 4 4.09 1.02
-11 -9 3 4.75 0.93
-11 9 -3 3.11 0.79
11 -9 3 5.91 1.08
11 9 -3 5.03 1.11
-11 9 -2 4.74 0.84
-11 -9 2 7.39 1.06
11 -9 2 5.26 0.98
11 9 -2 5.02 1.02
-11 -9 1 5.26 0.95
11 9 -1 4.1 0.91
11 -9 1 5.5 0.96
-11 -9 0 1.78 0.69
11 -9 0 0.66 0.54
11 9 0 1.85 0.65
-11 -9 -1 5.17 1.04
11 9 1 4.98 0.91
11 -9 -1 4.37 0.89
-11 -9 -2 5.41 1.05
11 -9 -2 4.31 0.94
11 -9 -2 5.61 1.03
-11 -9 -3 4.27 1.1
11 -9 -3 7.47 1.21
11 -9 -3 6.37 1.19
-11 -9 -4 4.5 1.14
11 -9 -4 2.84 0.93
-11 -9 -5 0.51 0.83
11 -9 -5 -0.5 0.74
-11 -9 -6 3.83 1.23
11 -9 -6 4.05 1.17
-11 -9 -7 -0.12 0.84
11 -9 -7 1.55 1.08
-11 -9 -8 1.94 1.2
11 -9 -8 1.2 1.17
-12 9 -8 22.83 2.53
12 9 -8 17.1 2.31
-12 9 -7 1.19 0.89
12 -9 7 -0.19 0.81
12 9 -7 0.26 0.99
-12 9 -6 0.48 0.73
12 -9 6 -0.6 0.65
12 9 -6 -0.54 0.68
-12 9 -5 1.18 0.68
12 -9 5 0.18 0.69
12 9 -5 1 0.81
-12 9 -4 72.06 3.02
12 -9 4 69.6 3.02
12 9 -4 72.47 3.25
-12 9 -3 0.68 0.57
-12 -9 3 0.3 0.49
12 9 -3 0.59 0.59
12 -9 3 -0.87 0.54
-12 9 -2 101.62 3.23
-12 -9 2 99.36 3.37
12 -9 2 103.24 3.5
12 9 -2 103.77 3.63
-12 -9 1 4.49 0.89
12 9 -1 2.62 0.8
12 -9 1 2.59 0.77
-12 -9 0 1 0.63
12 9 0 0.08 0.54
12 -9 0 0.19 0.55
-12 -9 -1 2.87 0.82
12 9 1 2.72 0.78
12 -9 -1 4.04 0.85
-12 -9 -2 96.94 3.58
12 -9 -2 99.86 3.38
12 -9 -2 98.51 3.28
-12 -9 -3 -0.12 0.51
12 -9 -3 0.35 0.61
12 -9 -3 0.35 0.67
-12 -9 -4 79.5 3.39
12 -9 -4 74.8 3.27
-12 -9 -5 1.55 0.82
12 -9 -5 -0.05 0.81
-12 -9 -6 -0.7 0.64
12 -9 -6 0.68 0.9
-12 -9 -7 -0.5 0.85
12 -9 -7 1.07 1.02
-12 -9 -8 19.49 2.34
12 -9 -8 14.54 2.23
-13 9 -8 -1.67 0.76
13 9 -8 1.28 1.12
-13 9 -7 -0.58 0.82
13 9 -7 -0.73 0.77
13 -9 7 -0.04 0.84
-13 9 -6 2.3 0.98
13 -9 6 0.97 0.83
13 9 -6 2.88 1.02
-13 9 -5 1.27 0.8
13 9 -5 1.01 0.82
13 -9 5 0.49 0.75
-13 9 -4 1.81 0.75
13 -9 4 4.37 1.04
13 9 -4 2.18 0.93
-13 -9 3 1.76 0.72
-13 9 -3 1.49 0.68
13 -9 3 0.28 0.65
13 9 -3 1.23 0.76
-13 9 -2 21.75 1.53
-13 -9 2 25.28 1.7
13 -9 2 23.74 1.73
13 9 -2 21.85 1.77
-13 -9 1 17.35 1.63
13 -9 1 15.99 1.58
13 9 -1 18.81 1.79
-13 -9 0 1.19 0.62
13 9 0 0.63 0.58
13 -9 0 1.05 0.63
-13 -9 -1 15.73 1.73
13 9 1 15.35 1.49
13 -9 -1 16.04 1.59
-13 -9 -2 22.51 1.82
13 -9 -2 20.38 1.59
13 -9 -2 23.2 1.68
-13 -9 -3 0.6 0.72
13 -9 -3 0.49 0.61
13 -9 -3 0.49 0.69
-13 -9 -4 1.76 0.88
13 -9 -4 3.16 0.96
-13 -9 -5 1.68 0.83
13 -9 -5 0.62 0.82
-13 -9 -6 2.57 1.04
13 -9 -6 3.15 1.11
-13 -9 -7 0.79 0.9
13 -9 -7 0.36 0.95
-13 -9 -8 0.49 1.01
13 -9 -8 -0.35 1.01
-14 9 -8 12.03 1.98
14 9 -8 8.4 1.92
-14 9 -7 1.51 0.96
14 9 -7 2.35 1.17
14 -9 7 0.66 0.95
-14 9 -6 0.42 0.7
14 9 -6 1.46 1.04
14 -9 6 0.8 0.85
-14 9 -5 0.1 0.61
14 -9 5 -0.47 0.7
14 9 -5 0.7 0.86
-14 9 -4 50.28 2.57
14 -9 4 49.53 2.6
14 9 -4 48.16 2.75
-14 -9 3 5.1 0.98
-14 9 -3 3.67 0.87
14 9 -3 4.89 1.1
14 -9 3 6.02 1.16
-14 -9 2 45.47 2.32
14 -9 2 48.28 2.41
14 9 -2 52.39 2.64
-14 -9 1 11.18 1.39
14 -9 1 11.01 1.43
14 9 -1 11.54 1.42
-14 -9 0 -0.21 0.46
14 9 0 0.06 0.58
14 -9 0 -0.33 0.54
-14 -9 -1 9.42 1.35
14 9 1 7.84 1.21
14 -9 -1 8.23 1.19
-14 -9 -2 50.31 2.59
14 -9 -2 45.64 2.31
-14 -9 -3 3.15 0.99
14 -9 -3 4.05 1
14 -9 -3 4.14 1
-14 -9 -4 53.21 2.83
14 -9 -4 55.66 2.79
-14 -9 -5 0.25 0.73
14 -9 -5 -1.42 0.62
-14 -9 -6 0.53 1
14 -9 -6 2.2 1.12
-14 -9 -7 0.59 0.92
14 -9 -7 -0.61 0.91
-14 -9 -8 7.72 1.73
14 -9 -8 5.45 1.53
-15 9 -8 4.3 1.45
-15 9 -7 -0.29 0.87
15 9 -7 1.63 0.99
15 -9 7 -1.33 0.8
-15 9 -6 9.51 1.55
15 9 -6 14.27 2.09
15 -9 6 11.89 1.64
-15 9 -5 1.55 0.9
15 -9 5 1.41 0.86
15 9 -5 0.99 0.91
-15 9 -4 0.51 0.68
15 9 -4 0.28 0.76
15 -9 4 1.14 0.74
-15 9 -3 -0.22 0.54
15 9 -3 0.26 0.71
15 -9 3 0.13 0.71
-15 -9 2 4.4 1
15 9 -2 3.49 1.08
15 -9 2 4.32 1.04
-15 -9 1 18.88 1.78
15 -9 1 18.82 1.77
15 9 -1 22.64 2.09
-15 -9 0 38.29 2.13
15 9 0 33.62 2.06
15 -9 0 32.86 2.02
-15 -9 -1 19.03 1.83
15 9 1 19.01 1.54
15 -9 -1 19.21 1.76
-15 -9 -2 2.75 0.9
15 -9 -2 3.15 0.9
-15 -9 -3 0.64 0.76
15 -9 -3 -0.92 0.56
15 -9 -3 0.51 0.7
-15 -9 -4 0.36 0.72
15 -9 -4 -0.06 0.77
-15 -9 -5 3.3 1.06
15 -9 -5 2.14 0.99
-15 -9 -6 14.77 1.97
15 -9 -6 17.24 2.18
-15 -9 -7 0.66 1
15 -9 -7 1 1.1
-15 -9 -8 4.89 1.45
15 -9 -8 2.32 1.33
-16 9 -7 1.08 1.01
16 -9 7 0.28 0.95
16 9 -7 -0.18 0.96
-16 9 -6 4.1 1.11
16 9 -6 2.9 1.2
16 -9 6 2.34 0.97
-16 9 -5 2.2 0.91
16 9 -5 1.95 1.04
16 -9 5 1.59 0.93
-16 9 -4 36.24 2.23
16 -9 4 33.54 2.26
16 9 -4 30.84 2.32
-16 9 -3 4.69 0.97
16 -9 3 4.86 1.13
16 9 -3 4.21 1.12
-16 -9 2 27.87 1.9
16 -9 2 31.21 2.06
16 9 -2 29.21 2.12
-16 -9 1 -0.33 0.51
16 9 -1 -0.24 0.54
16 -9 1 0.47 0.7
-16 -9 0 -0.41 0.48
16 -9 0 0.4 0.6
16 9 0 -0.22 0.6
-16 -9 -1 -0.31 0.56
16 -9 -1 -0.68 0.54
16 9 1 -0.53 0.56
-16 -9 -2 28.46 2.06
16 9 2 28.48 1.89
16 -9 -2 27.15 1.88
-16 -9 -3 5.5 1.19
16 -9 -3 5.16 1.15
-16 -9 -4 28.23 2.17
16 -9 -4 30.21 2.18
-16 -9 -5 1.62 0.99
16 -9 -5 3.17 1.13
-16 -9 -6 2.98 1.01
16 -9 -6 1.64 1.12
-16 -9 -7 -0.49 0.9
16 -9 -7 -0.25 1.04
-17 9 -7 0.02 0.83
17 -9 7 -0.49 0.92
17 9 -7 -0.21 0.89
-17 9 -6 13.09 1.8
17 9 -6 13.66 2.02
17 -9 6 11.52 1.79
-17 9 -5 -0.12 0.75
17 9 -5 0.57 0.97
17 -9 5 0.13 0.81
-17 9 -4 10.04 1.45
17 -9 4 7.28 1.3
17 9 -4 13.02 1.84
-17 9 -3 3.33 0.94
17 9 -3 3.05 1.05
17 -9 3 2.95 0.93
-17 -9 2 20.18 1.91
17 -9 2 17.26 1.72
17 9 -2 20.8 2.04
-17 -9 1 0.36 0.53
17 9 -1 1.23 0.79
17 -9 1 0.17 0.68
-17 -9 0 20.01 1.92
17 -9 0 17.08 1.75
17 9 0 21.41 2.04
-17 -9 -1 0.35 0.57
17 9 1 1.07 0.68
17 -9 -1 -0.11 0.56
-17 -9 -2 21.61 2.08
17 9 2 19.22 1.81
17 -9 -2 14.44 1.56
-17 -9 -3 3.81 1.04
17 -9 -3 2.37 0.96
-17 -9 -4 9.95 1.62
17 -9 -4 10.14 1.61
-17 -9 -5 0.39 0.83
17 -9 -5 -0.49 0.79
-17 -9 -6 13.78 1.87
17 -9 -6 16.12 2.2
-17 -9 -7 1.62 1.09
17 -9 -7 -1.35 1.02
-18 9 -7 1.19 1.06
18 -9 7 0.71 0.99
18 9 -7 -0.18 0.93
-18 9 -6 2.72 1.07
18 -9 6 2.97 1.09
18 9 -6 0.83 0.98
-18 9 -5 3.53 1.03
18 9 -5 0.79 0.89
18 -9 5 4.5 1.2
-18 9 -4 5.41 1.1
18 9 -4 3.79 1.11
18 -9 4 4.18 1.12
-18 9 -3 6.83 1.14
18 9 -3 4.61 1.21
18 -9 3 5.25 1.17
-18 -9 2 3.32 0.87
18 9 -2 5.69 1.23
18 -9 2 4.75 1.07
-18 -9 1 -0.09 0.58
18 -9 1 2.72 0.88
18 9 -1 1.18 0.81
-18 -9 0 0.41 0.61
18 -9 0 0.29 0.65
18 9 0 0.41 0.64
-18 -9 -1 0.61 0.66
18 9 1 1.38 0.7
18 -9 -1 1.26 0.79
-18 -9 -2 5.69 1.24
18 9 2 3.54 0.99
18 -9 -2 3.27 0.97
-18 -9 -3 4.47 1.21
18 -9 -3 4.03 1.15
-18 -9 -4 5.85 1.35
18 -9 -4 5.73 1.33
-18 -9 -5 2.41 0.99
18 -9 -5 1.4 1.02
-18 -9 -6 1.05 1.02
18 -9 -6 3.95 1.3
-18 -9 -7 2.48 1.2
18 -9 -7 1.41 1.2
-19 9 -7 1.37 1.03
19 -9 7 -0.63 0.88
-19 9 -6 25.09 2.44
19 9 -6 26.16 2.9
19 -9 6 24.62 2.43
-19 9 -5 0.97 0.88
19 -9 5 1.66 0.98
19 9 -5 0.3 0.99
-19 9 -4 3.9 1
19 -9 4 0.61 0.82
19 9 -4 3.3 1.11
-19 9 -3 5.76 1.16
19 9 -3 4.13 1.24
19 -9 3 4.14 1.13
-19 -9 2 28.97 2.05
19 9 -2 23.68 2.36
19 -9 2 24.96 1.96
-19 -9 1 0.59 0.63
19 9 -1 0.47 0.79
19 -9 1 -0.59 0.61
-19 -9 0 21.11 2.02
19 9 0 19.44 2.03
19 -9 0 23.09 2.09
-19 -9 -1 -0.56 0.49
19 -9 -1 0.23 0.67
19 9 1 0.47 0.7
-19 -9 -2 26.64 2.09
19 9 2 29.18 2.11
19 -9 -2 27.06 1.97
-19 -9 -3 6.9 1.35
19 -9 -3 4.5 1.1
-19 -9 -4 2.8 1.11
-19 -9 -5 -0.39 0.79
19 -9 -5 0.19 0.89
-19 -9 -6 31.11 2.51
19 -9 -6 20.15 2.47
-19 -9 -7 -0.68 0.99
19 -9 -7 3.09 1.33
-20 9 -6 3.48 1.23
20 -9 6 2.04 1.18
20 9 -6 2.6 1.19
-20 9 -5 10.79 1.6
20 -9 5 11.73 1.74
20 9 -5 11.64 1.95
-20 9 -4 0.83 0.77
20 9 -4 1.02 1.03
20 -9 4 -0.3 0.77
20 -9 3 0.45 0.79
20 9 -3 0.53 0.88
-20 -9 2 3.66 1.02
20 -9 2 2.83 0.96
20 9 -2 3.13 1.15
-20 -9 1 4.37 1.09
20 9 -1 4.71 1.2
20 -9 1 4.58 1.12
-20 -9 0 0.55 0.7
20 9 0 1.53 0.82
20 -9 0 0.06 0.71
-20 -9 -1 5.88 1.21
20 -9 -1 4.9 1.14
20 9 1 2.93 0.98
-20 -9 -2 1.33 0.84
20 9 2 2.09 0.92
20 -9 -2 1.67 0.88
-20 -9 -3 0.99 0.85
20 -9 -3 2.55 0.99
-20 -9 -4 1.75 0.86
-20 -9 -5 6.32 1.43
20 -9 -5 9.7 1.64
-20 -9 -6 3.43 1.28
20 -9 -6 2.99 1.33
-21 9 -6 18.96 2.13
21 9 -6 19.64 2.64
21 -9 6 25.97 2.5
-21 9 -5 -0.33 0.75
21 -9 5 -0.69 0.9
21 9 -5 0.42 0.84
-21 9 -4 1.81 0.91
21 -9 4 1.23 0.89
21 9 -4 2.88 1.09
21 9 -3 -0.31 0.78
21 -9 3 -0.73 0.7
-21 -9 2 19.45 1.98
21 -9 2 17.32 1.91
21 9 -2 16.92 2.1
-21 -9 1 1.54 0.8
21 9 -1 0.5 0.77
21 -9 1 0.13 0.82
-21 -9 0 64.48 2.99
21 -9 0 64.47 2.97
21 9 0 65.53 3.18
-21 -9 -1 1.56 0.74
21 9 1 -0.46 0.7
21 -9 -1 -0.72 0.65
-21 -9 -2 21.39 2.16
21 -9 -2 16.52 1.76
21 9 2 19.75 2.12
-21 -9 -3 0.12 0.77
21 -9 -3 0.05 0.72
-21 -9 -4 1.95 1.05
21 -9 -4 2.93 1.06
-21 -9 -5 -0.18 0.85
-21 -9 -6 23.36 2.47
21 -9 -6 22.17 2.67
-22 9 -6 0.15 0.96
22 -9 6 -0.13 0.97
-22 9 -5 10.47 1.68
22 -9 5 9.55 1.69
22 9 -5 7.44 1.75
-22 9 -4 12.91 1.67
22 9 -4 11.68 1.96
22 -9 4 14.8 1.86
22 9 -3 -0.45 0.8
22 -9 3 -0.19 0.79
22 9 -2 5.59 1.4
22 -9 2 8.88 1.41
-22 -9 1 5.75 1.21
22 -9 1 2.94 0.96
22 9 -1 2.92 1.12
-22 -9 0 0.21 0.66
22 9 0 0.45 0.78
22 -9 0 0.05 0.71
-22 -9 -1 3.29 1.13
22 -9 -1 3.31 1.06
22 9 1 3.98 1.14
-22 -9 -2 9.76 1.58
22 -9 -2 6.6 1.2
22 9 2 10.97 1.73
-22 -9 -3 -0.24 0.68
22 -9 -3 -0.22 0.72
-22 -9 -4 17.25 2.08
22 -9 -4 12.53 1.74
-22 -9 -5 6.95 1.52
-22 -9 -6 0.71 1.09
22 -9 -6 1.09 1.28
-23 9 -5 0.64 0.96
23 -9 5 -0.25 0.98
23 9 -5 -1.29 0.95
-23 9 -4 3.13 1.12
23 9 -4 4.5 1.33
23 -9 4 6.81 1.41
23 9 -3 0.29 0.96
23 -9 3 0.57 0.93
23 9 -2 3.14 1.18
23 -9 2 4.07 1.12
-23 -9 1 -0.07 0.68
23 -9 1 1.38 0.84
23 9 -1 1.03 0.91
-23 -9 0 45.91 2.63
23 -9 0 41.7 2.49
23 9 0 42.5 2.72
-23 -9 -1 0.76 0.84
23 9 1 0.45 0.82
23 -9 -1 1.17 0.9
-23 -9 -2 5.5 1.36
23 9 2 4.89 1.3
23 -9 -2 3.89 1.13
-23 -9 -3 0.48 0.89
23 -9 -3 -1.09 0.71
-23 -9 -4 5.53 1.36
23 -9 -4 4.55 1.32
-23 -9 -5 0.79 0.88
-24 9 -5 2.66 1.18
24 -9 5 2.88 1.3
24 -9 4 7.4 1.44
24 9 -4 11.52 2
24 9 -3 1.1 1.05
24 -9 3 -0.47 0.77
24 9 -2 5.89 1.5
24 -9 2 5.03 1.16
-24 -9 1 2.72 0.99
24 -9 1 1.09 0.91
24 9 -1 3.41 1.22
-24 -9 0 0.09 0.67
24 -9 0 -0.25 0.74
24 9 0 -0.93 0.72
-24 -9 -1 2.01 0.92
24 9 1 3.46 1.13
24 -9 -1 2.11 0.93
-24 -9 -2 6.36 1.39
24 9 2 8.19 1.62
24 -9 -2 6.95 1.29
-24 -9 -3 0.94 0.81
24 -9 -3 0.07 0.77
-24 -9 -4 11.51 1.75
24 -9 -4 9.99 1.7
-24 -9 -5 0.92 1.05
25 -9 4 -0.06 0.88
25 9 -4 0.21 1.1
25 9 -3 0.83 1.08
25 -9 3 0.64 1.05
25 9 -2 1.19 1.03
25 -9 2 4 1.12
-25 -9 1 1.48 0.86
25 9 -1 0.85 0.94
25 -9 1 2.15 0.99
-25 -9 0 8.93 1.49
25 -9 0 6.68 1.29
25 9 0 7.81 1.6
-25 -9 -1 0.48 0.77
25 -9 -1 -0.16 0.81
25 9 1 1.77 0.99
-25 -9 -2 3.95 1.15
25 -9 -2 3.03 1.13
25 9 2 1.13 1.14
-25 -9 -3 0.66 0.93
25 -9 -3 2.5 1.09
-25 -9 -4 0.24 0.89
25 -9 -4 -0.53 0.88
26 -9 4 21.35 2.24
26 9 -3 -0.09 0.99
26 -9 3 0.82 1.01
26 -9 2 30.33 2.4
26 9 -2 26.18 2.68
26 -9 1 4.16 1.21
26 9 -1 2.78 1.16
-26 -9 0 -0.52 0.68
26 9 0 0.82 0.98
26 -9 0 0.31 0.79
-26 -9 -1 1.13 0.86
26 -9 -1 1.94 1.11
26 9 1 4.53 1.36
-26 -9 -2 29.54 2.73
26 -9 -2 30.93 2.32
26 9 2 26.09 2.7
-26 -9 -3 -0.48 0.88
26 -9 -3 -0.48 0.84
27 -9 3 0.42 1.03
27 -9 2 -1.19 0.79
27 9 -2 2.46 1.26
27 -9 1 1.8 1.09
27 9 -1 4.67 1.61
-27 -9 0 0.46 0.8
27 -9 0 1.2 0.93
27 9 0 1.4 1.3
-27 -9 -1 1.05 0.94
27 9 1 2.8 1.2
27 -9 -1 4.04 1.16
-27 -9 -2 -0.85 0.76
27 9 2 -0.95 1.09
27 -9 -2 -0.2 0.9
27 9 3 0.74 1.15
27 -9 -3 0.84 0.94
28 -9 2 13.26 1.84
28 9 -1 -0.95 0.93
28 -9 1 0.37 0.88
28 9 0 0.87 1.17
28 -9 0 -0.37 0.9
28 -9 -1 -0.18 0.82
28 9 1 1.36 1.15
28 -9 -2 13.42 1.87
28 9 2 13.42 2.26
0 10 -8 3.59 1.27
0 10 -7 -0.53 0.73
0 10 -6 0.62 0.76
0 10 -5 -0.03 0.62
0 -10 5 -0.59 0.58
0 -10 4 23.11 1.69
0 10 -4 17.87 1.78
0 10 -3 -0.34 0.46
0 -10 3 -0.5 0.4
0 10 -2 9.57 1.19
0 -10 2 11.11 1.23
0 -10 2 7.52 1.03
0 -10 1 -0.79 0.41
0 -10 1 -0.03 0.42
0 -10 0 11.62 1.22
0 -10 0 13.41 1.34
0 -10 -1 -0.27 0.43
0 -10 -1 0.57 0.59
0 -10 -2 9.31 1.34
0 -10 -2 9.92 1.13
0 -10 -3 -0.33 0.67
0 -10 -3 0.08 0.48
0 -10 -4 21.33 2.09
0 -10 -4 19.84 1.54
0 -10 -5 1.33 0.87
0 -10 -6 -0.71 0.75
0 -10 -7 -0.06 0.97
0 -10 -8 2.3 1.21
-1 10 -8 2.07 1.07
1 10 -8 0.66 1.05
-1 10 -7 9.01 1.54
1 10 -7 9.46 1.71
-1 10 -6 -0.64 0.65
1 10 -6 0.83 0.76
-1 10 -5 2.38 0.94
-1 -10 5 3.21 0.9
1 -10 5 1.28 0.76
1 10 -5 1.48 0.78
-1 -10 4 0.8 0.64
-1 10 -4 0.46 0.64
1 10 -4 1.09 0.67
1 -10 4 0.22 0.57
-1 10 -3 49.15 2.33
-1 -10 3 53.08 2.36
1 -10 3 54.3 2.42
1 10 -3 54.8 2.46
-1 10 -2 0.94 0.54
-1 -10 2 0.71 0.5
-1 -10 2 1.12 0.55
1 10 -2 1.57 0.6
1 -10 2 1.19 0.59
-1 -10 1 4.45 0.82
-1 -10 1 3.93 0.75
1 -10 1 4.16 0.84
1 -10 1 2.77 0.63
-1 -10 0 -0.36 0.6
-1 -10 0 0.82 0.49
1 -10 0 0.7 0.45
1 -10 0 0.68 0.51
-1 -10 -1 2.91 0.69
-1 -10 -1 3.38 0.86
1 -10 -1 2.33 0.79
1 -10 -1 4.73 0.82
-1 -10 -2 0.55 0.53
-1 -10 -2 1.56 0.77
1 -10 -2 0.65 0.65
1 -10 -2 1.83 0.62
-1 -10 -3 50.4 2.54
-1 -10 -3 53.03 2.19
1 -10 -3 49.77 2.2
1 -10 -3 51.96 2.62
-1 -10 -4 0.25 0.76
-1 -10 -4 0.62 0.56
1 -10 -4 0.59 0.81
1 -10 -4 0.31 0.65
-1 -10 -5 1.35 0.88
1 -10 -5 2.69 1.09
-1 -10 -6 -0.31 0.81
1 -10 -6 -0.33 0.8
-1 -10 -7 7.83 1.66
1 -10 -7 6.44 1.58
-1 -10 -8 0.87 1.27
1 -10 -8 1 1.27
-2 10 -8 -0.44 0.8
2 10 -8 1.57 0.98
-2 10 -7 13.19 1.94
2 10 -7 11.11 1.78
-2 10 -6 1.06 0.89
2 -10 6 2.64 0.94
2 10 -6 0.28 0.7
-2 10 -5 19.22 1.99
-2 -10 5 17.84 1.68
2 -10 5 17.64 1.72
2 10 -5 18.87 1.93
-2 10 -4 1.37 0.7
-2 -10 4 1.69 0.67
2 -10 4 1 0.62
2 10 -4 1.89 0.77
-2 -10 3 0.08 0.47
-2 10 -3 -0.06 0.48
2 -10 3 0.56 0.6
2 10 -3 -0.4 0.44
-2 -10 2 4.24 0.77
-2 10 -2 2.76 0.7
-2 -10 2 4.21 0.81
2 10 -2 4.36 0.88
2 -10 2 4.99 0.9
-2 -10 1 15.37 1.36
-2 -10 1 16.94 1.3
2 -10 1 17.35 1.25
2 10 -1 14.21 1.49
2 -10 1 18.17 1.37
-2 -10 0 9.51 1.19
-2 -10 0 10.06 1.1
2 -10 0 11.14 1.21
2 -10 0 10.46 1.17
-2 -10 -1 16.66 1.23
-2 -10 -1 18.33 1.7
2 -10 -1 21.37 1.48
2 -10 -1 18.62 1.67
-2 -10 -2 5.72 0.88
-2 -10 -2 4.79 1.03
2 -10 -2 6.22 1.11
2 -10 -2 3.48 0.75
-2 -10 -3 -0.82 0.6
-2 -10 -3 0.12 0.49
2 -10 -3 0.27 0.53
2 -10 -3 0.66 0.71
-2 -10 -4 2.54 0.97
-2 -10 -4 1.47 0.63
2 -10 -4 1.02 0.85
-2 -10 -5 13.31 1.75
2 -10 -5 18.33 2
-2 -10 -6 -0.02 0.87
2 -10 -6 3.62 1.25
-2 -10 -7 10.27 1.8
2 -10 -7 12.74 1.95
-2 -10 -8 -1.43 0.92
2 -10 -8 -1.17 0.89
-3 10 -8 1.24 1.05
3 10 -8 1.22 1
-3 10 -7 4.88 1.29
3 10 -7 3.33 1.17
-3 10 -6 5.2 1.16
3 -10 6 2.25 0.89
3 10 -6 4.25 1.16
-3 10 -5 5.26 1.14
3 -10 5 5.22 1.04
3 10 -5 6.87 1.34
-3 -10 4 0.49 0.52
-3 10 -4 -0.47 0.57
3 10 -4 -0.1 0.59
3 -10 4 0.24 0.6
-3 10 -3 21.96 1.62
-3 -10 3 25.93 1.65
-3 -10 3 26.3 1.54
3 -10 3 27.01 1.76
3 10 -3 27.32 1.81
-3 -10 2 0.23 0.4
-3 10 -2 -0.09 0.42
-3 -10 2 0.34 0.49
3 10 -2 0.26 0.45
3 -10 2 -0.1 0.48
-3 -10 1 3.2 0.72
-3 -10 1 2.38 0.69
3 -10 1 2.57 0.7
3 10 -1 3.52 0.73
-3 -10 0 0.12 0.36
-3 -10 0 0.15 0.48
3 -10 0 0.36 0.51
3 -10 0 0.24 0.55
-3 -10 -1 4.07 0.89
-3 -10 -1 2.73 0.66
3 -10 -1 2.63 0.7
3 -10 -1 1.71 0.74
-3 -10 -2 0.04 0.6
-3 -10 -2 -0.49 0.38
3 -10 -2 0.53 0.55
3 -10 -2 0.3 0.65
-3 -10 -3 23.92 1.91
-3 -10 -3 27.52 1.55
3 -10 -3 25.34 1.88
3 -10 -3 27.15 1.68
-3 -10 -4 0.23 0.69
-3 -10 -4 0.63 0.56
3 -10 -4 0.02 0.72
-3 -10 -5 5.07 1.34
3 -10 -5 5.88 1.38
-3 -10 -6 1.62 1.06
3 -10 -6 2.79 1.15
-3 -10 -7 5.78 1.42
3 -10 -7 4.27 1.33
-3 -10 -8 -1.39 0.95
3 -10 -8 0.03 1.06
-4 10 -8 -0.09 0.74
4 10 -8 -0.13 0.86
-4 10 -7 20.86 2.24
4 10 -7 24.12 2.5
-4 10 -6 -0.38 0.58
4 -10 6 0.73 0.72
4 10 -6 -0.48 0.64
-4 10 -5 32.98 2.19
4 -10 5 32.79 2.16
4 10 -5 35.21 2.28
-4 -10 4 1.34 0.64
-4 10 -4 1.1 0.7
4 -10 4 1.95 0.78
4 10 -4 0.84 0.67
-4 10 -3 3.37 0.86
-4 -10 3 3.34 0.77
-4 -10 3 2.57 0.74
4 10 -3 4.18 0.95
4 -10 3 3.15 0.8
-4 -10 2 1.48 0.61
-4 10 -2 1.5 0.58
-4 -10 2 1.99 0.63
4 10 -2 0.88 0.53
4 -10 2 1.18 0.64
-4 -10 1 26.23 1.51
-4 -10 1 32.14 1.76
4 10 -1 29.95 1.69
4 -10 1 30.07 1.78
-4 -10 0 2.44 0.61
-4 -10 0 1.92 0.68
4 -10 0 1.96 0.7
4 -10 0 2.48 0.7
-4 -10 -1 30.35 1.89
-4 -10 -1 29.25 1.53
4 -10 -1 31.72 1.8
4 -10 -1 30.98 1.8
-4 -10 -2 1.05 0.51
-4 -10 -2 1.52 0.79
4 -10 -2 0.47 0.58
4 -10 -2 1 0.76
-4 -10 -3 3.42 0.75
-4 -10 -3 2.45 0.87
4 -10 -3 2.08 0.9
4 -10 -3 1.77 0.73
-4 -10 -4 1.26 0.85
4 -10 -4 1.19 0.85
-4 -10 -5 30.57 2.34
4 -10 -5 31.04 2.32
-4 -10 -6 1.09 0.98
4 -10 -6 0.99 0.92
-4 -10 -7 21.38 2.49
4 -10 -7 18.62 2.31
-4 -10 -8 0.22 1.07
4 -10 -8 -0.97 1.01
-5 10 -8 -0.75 0.77
5 10 -8 -0.03 0.93
-5 10 -7 0.77 0.83
5 10 -7 0.78 0.86
-5 10 -6 0.74 0.64
5 -10 6 -0.23 0.66
5 10 -6 -0.8 0.64
-5 10 -5 0.79 0.74
5 10 -5 0.19 0.68
5 -10 5 2.03 0.77
-5 10 -4 -0.13 0.5
-5 -10 4 -0.08 0.49
5 -10 4 0.81 0.65
5 10 -4 0.39 0.54
-5 -10 3 -0.23 0.45
-5 -10 3 -0.03 0.44
-5 10 -3 0.04 0.49
5 10 -3 0.11 0.51
5 -10 3 0.09 0.59
-5 10 -2 0.1 0.45
-5 -10 2 -0.06 0.44
-5 -10 2 0.58 0.51
5 10 -2 1.08 0.66
5 -10 2 0.3 0.57
-5 -10 1 3.75 0.74
-5 -10 1 4.55 0.86
5 -10 1 5.04 0.91
5 10 -1 4.59 0.9
-5 -10 0 0.44 0.55
-5 -10 0 -0.39 0.34
5 -10 0 -0.07 0.46
5 -10 0 0.65 0.55
-5 -10 -1 3.52 0.72
-5 -10 -1 5.26 0.99
5 -10 -1 4.4 0.88
5 -10 -1 4.27 0.88
-5 -10 -2 -0.16 0.4
-5 -10 -2 0.56 0.65
5 -10 -2 1.11 0.61
5 -10 -2 0.11 0.58
-5 -10 -3 -0.19 0.63
5 -10 -3 -0.37 0.61
5 -10 -3 0.12 0.58
-5 -10 -4 0.05 0.79
5 -10 -4 0.32 0.74
-5 -10 -5 2.06 1.02
5 -10 -5 2.23 1.02
-5 -10 -6 -0.72 0.84
5 -10 -6 0.49 0.92
-5 -10 -7 1.08 1.2
5 -10 -7 1.03 1.12
-5 -10 -8 0.47 1.17
5 -10 -8 1.3 1.35
-6 10 -8 -0.28 0.82
6 10 -8 -1.59 0.85
-6 10 -7 43.24 2.76
6 10 -7 39.8 2.79
-6 10 -6 0.79 0.72
6 -10 6 2.2 0.87
6 10 -6 0.48 0.73
-6 10 -5 35.61 2.27
6 10 -5 37.62 2.45
6 -10 5 43.54 2.44
-6 -10 4 0.84 0.64
-6 10 -4 2.78 0.81
6 -10 4 3.21 0.92
6 10 -4 2.62 0.83
-6 -10 3 3.71 0.76
-6 10 -3 3.26 0.79
-6 -10 3 2.27 0.71
6 -10 3 3.37 0.94
6 10 -3 0.73 0.69
-6 -10 2 0.96 0.56
-6 -10 2 0.61 0.45
6 -10 2 0.75 0.66
6 10 -2 1.98 0.76
-6 -10 1 42.83 2.11
-6 -10 1 47.69 1.95
6 -10 1 49.47 2.29
6 10 -1 43.9 2.06
-6 -10 0 -0.5 0.38
-6 -10 0 0.26 0.54
6 -10 0 -0.18 0.49
-6 -10 -1 43.91 2.29
-6 -10 -1 46.79 1.99
6 -10 -1 46.22 2.21
6 -10 -1 44.41 2.1
-6 -10 -2 1.17 0.7
6 -10 -2 0.99 0.68
6 -10 -2 1.16 0.65
-6 -10 -3 3.2 0.99
6 -10 -3 2.55 0.95
6 -10 -3 3.05 0.82
-6 -10 -4 2.07 0.97
6 -10 -4 2.78 1.04
-6 -10 -5 39.79 2.61
6 -10 -5 41.56 2.59
-6 -10 -6 1.59 0.98
6 -10 -6 1.5 1.11
-6 -10 -7 38.91 2.9
6 -10 -7 40.87 2.97
-6 -10 -8 -1.22 0.97
6 -10 -8 -0.18 1.02
-7 10 -8 1.8 1.12
7 10 -8 -0.79 0.96
-7 10 -7 3.24 1.1
7 10 -7 5.19 1.32
-7 10 -6 0.05 0.66
7 10 -6 -1.24 0.67
7 -10 6 -0.23 0.74
-7 10 -5 0.16 0.62
7 10 -5 -0.34 0.61
7 -10 5 0.17 0.7
-7 10 -4 1.04 0.62
7 -10 4 0.1 0.6
7 10 -4 0.92 0.74
-7 -10 3 9.72 1.12
-7 -10 3 7.02 1.04
-7 10 -3 9.49 1.23
7 10 -3 7.87 1.25
7 -10 3 7.85 1.15
-7 -10 2 0.96 0.54
-7 -10 2 0.88 0.51
7 10 -2 0.7 0.59
7 -10 2 0.52 0.63
-7 -10 1 3.77 0.72
-7 -10 1 2.46 0.72
7 -10 1 3.02 0.8
7 10 -1 2.13 0.72
-7 -10 0 -0.12 0.46
7 -10 0 -0.12 0.47
-7 -10 -1 4.07 0.95
7 -10 -1 4.13 0.93
7 -10 -1 4.8 0.97
-7 -10 -2 1.97 0.78
7 -10 -2 2.33 0.81
7 -10 -2 1.15 0.69
-7 -10 -3 10.74 1.46
7 -10 -3 5.77 1.2
7 -10 -3 9.07 1.31
-7 -10 -4 -0.32 0.72
7 -10 -4 0.6 0.81
-7 -10 -5 0.63 0.89
7 -10 -5 1.56 0.94
-7 -10 -6 1.03 0.92
7 -10 -6 -0.3 0.86
-7 -10 -7 2.82 1.21
7 -10 -7 5.04 1.46
-7 -10 -8 0.8 1.15
7 -10 -8 -0.29 1.09
-8 10 -8 1.18 0.98
8 10 -8 0.22 0.96
-8 10 -7 37.43 2.7
8 10 -7 37.01 2.71
-8 10 -6 1.12 0.89
8 -10 6 1.74 0.86
8 10 -6 2.22 1.04
-8 10 -5 24.43 1.94
8 -10 5 21.33 2.01
8 10 -5 22.34 2.23
-8 10 -4 -0.13 0.59
8 10 -4 -0.84 0.57
8 -10 4 -0.03 0.63
-8 -10 3 -0.23 0.48
-8 10 -3 -0.09 0.46
-8 -10 3 0.37 0.46
8 -10 3 -0.69 0.52
8 10 -3 0.15 0.59
-8 -10 2 -0.03 0.49
-8 -10 2 0.11 0.43
8 -10 2 -0.01 0.58
8 10 -2 1.16 0.66
-8 -10 1 14.99 1.52
8 10 -1 12.96 1.45
8 -10 1 12.93 1.39
-8 -10 0 4.35 0.97
8 -10 0 3.23 0.8
-8 -10 -1 15.95 1.7
8 -10 -1 11.6 1.37
8 -10 -1 17.18 1.63
-8 -10 -2 0.3 0.76
8 -10 -2 0.67 0.68
8 -10 -2 0.06 0.64
-8 -10 -3 -0.28 0.58
8 -10 -3 -0.99 0.52
8 -10 -3 -0.12 0.64
-8 -10 -4 -0.41 0.68
8 -10 -4 0.25 0.78
-8 -10 -5 18.33 2.07
8 -10 -5 18.54 2.11
-8 -10 -6 1.02 0.97
8 -10 -6 0.04 0.91
-8 -10 -7 43.21 2.96
8 -10 -7 40.58 2.98
-8 -10 -8 -0.49 0.96
8 -10 -8 1.28 1.2
-9 10 -8 1.68 1.07
9 10 -8 1.72 1.04
-9 10 -7 1.56 1.06
9 -10 7 -0.29 0.7
9 10 -7 0.1 0.87
-9 10 -6 0.67 0.89
9 -10 6 0.91 0.76
9 10 -6 -0.97 0.62
-9 10 -5 9.11 1.43
9 -10 5 9.95 1.43
9 10 -5 9.97 1.61
-9 10 -4 4.26 1.02
9 10 -4 5.45 1.18
9 -10 4 3.63 1.09
-9 10 -3 10.11 1.28
-9 -10 3 6.99 1.08
9 10 -3 7.56 1.31
9 -10 3 10.34 1.41
-9 -10 2 -0.04 0.48
9 10 -2 0.47 0.67
9 -10 2 -1.15 0.48
-9 -10 1 3.25 0.84
9 10 -1 3.69 0.92
9 -10 1 2.59 0.78
-9 -10 0 -0.22 0.49
9 -10 0 -0.06 0.54
9 10 0 -0.27 0.5
-9 -10 -1 2.18 0.8
9 -10 -1 5.8 1.03
-9 -10 -2 -0.11 0.66
9 -10 -2 -0.47 0.51
9 -10 -2 -0.59 0.56
-9 -10 -3 9 1.45
9 -10 -3 8.7 1.28
9 -10 -3 6.49 1.19
-9 -10 -4 5.13 1.34
9 -10 -4 3.5 1.1
-9 -10 -5 9.35 1.65
9 -10 -5 7.14 1.49
-9 -10 -6 0.53 0.89
9 -10 -6 -0.05 0.87
-9 -10 -7 0.39 1.08
9 -10 -7 0.57 1.08
-9 -10 -8 -0.83 1.01
9 -10 -8 2.3 1.29
-10 10 -8 0.81 0.97
10 10 -8 0.27 1.13
-10 10 -7 7.66 1.53
10 10 -7 10.5 1.84
10 -10 7 11.95 1.74
-10 10 -6 0.46 0.71
10 10 -6 -0.8 0.56
10 -10 6 0.37 0.77
-10 10 -5 3.49 0.95
10 -10 5 6.18 1.24
10 10 -5 5.33 1.22
-10 10 -4 0.11 0.59
10 10 -4 -0.51 0.66
10 -10 4 0.78 0.68
-10 -10 3 0.51 0.54
-10 10 -3 0.45 0.57
10 -10 3 -0.43 0.59
10 10 -3 1.39 0.77
-10 -10 2 0.52 0.62
10 -10 2 0.49 0.66
10 10 -2 0.55 0.64
-10 -10 1 0.65 0.58
10 -10 1 0.75 0.68
10 10 -1 0.64 0.58
-10 -10 0 16.54 1.63
10 10 0 14.31 1.49
10 -10 0 13.46 1.48
-10 -10 -1 0.3 0.62
10 -10 -1 0.36 0.59
-10 -10 -2 0.19 0.61
10 -10 -2 1.13 0.75
10 -10 -2 0.55 0.64
-10 -10 -3 1.98 0.81
10 -10 -3 0.19 0.63
10 -10 -3 -0.25 0.68
-10 -10 -4 0.5 0.83
10 -10 -4 -0.01 0.82
-10 -10 -5 3.1 1.15
10 -10 -5 3.64 1.12
-10 -10 -6 0.14 0.89
10 -10 -6 -0.2 0.8
-10 -10 -7 13.22 2.06
10 -10 -7 12.3 1.95
-10 -10 -8 -0.46 1.08
10 -10 -8 0.84 1.24
-11 10 -8 0.39 1.02
-11 10 -7 5.63 1.41
11 -10 7 4.48 1.28
11 10 -7 3.95 1.31
-11 10 -6 4.32 1.24
11 10 -6 -0.09 0.82
11 -10 6 2.87 0.99
-11 10 -5 25.47 2.02
11 10 -5 24.25 2.44
11 -10 5 25.11 2.3
-11 10 -4 -0.5 0.55
11 -10 4 -1.04 0.59
11 10 -4 0.34 0.69
-11 10 -3 35.89 2.05
-11 -10 3 34.01 2.02
11 -10 3 36.09 2.19
11 10 -3 30.03 2.15
-11 -10 2 1.27 0.63
11 -10 2 -0.6 0.54
11 10 -2 0.78 0.72
-11 -10 1 28.87 1.87
11 10 -1 30.79 1.92
11 -10 1 33.48 2.03
-11 -10 0 0.02 0.57
11 -10 0 -0.05 0.56
11 10 0 -0.95 0.5
-11 -10 -1 29.2 1.99
11 -10 -1 33.17 2.01
-11 -10 -2 0.74 0.77
11 -10 -2 1.78 0.71
-11 -10 -3 42.92 2.48
11 -10 -3 35.97 2.25
11 -10 -3 32.37 2.05
-11 -10 -4 0.32 0.8
11 -10 -4 0.52 0.82
-11 -10 -5 19.23 2.07
11 -10 -5 26.25 2.47
-11 -10 -6 1.8 1.03
11 -10 -6 -0.42 0.8
-11 -10 -7 2.72 1.23
11 -10 -7 4.67 1.57
11 -10 -8 0.07 1.11
-12 10 -7 1.32 1.01
12 10 -7 0.93 0.94
12 -10 7 0.64 1.08
-12 10 -6 1.02 0.88
12 10 -6 -0.39 0.79
12 -10 6 0.4 0.83
-12 10 -5 7.44 1.34
12 -10 5 3.84 1.04
12 10 -5 5.43 1.28
-12 10 -4 -0.15 0.62
12 -10 4 1.66 0.87
12 10 -4 -0.47 0.57
-12 -10 3 1.22 0.65
12 -10 3 0 0.7
12 10 -3 0.22 0.72
-12 -10 2 3.38 0.87
12 -10 2 3.66 0.89
12 10 -2 3.58 0.93
-12 -10 1 0.17 0.55
12 -10 1 0.43 0.56
12 10 -1 0.26 0.55
-12 -10 0 4.75 1.05
12 -10 0 5.6 1.05
12 10 0 3.45 0.87
-12 -10 -1 0.33 0.61
12 -10 -1 -0.07 0.59
-12 -10 -2 3.76 1.05
12 -10 -2 4.35 1.06
-12 -10 -3 -0.09 0.71
12 -10 -3 1.29 0.75
12 -10 -3 0.85 0.85
-12 -10 -4 0.49 0.75
12 -10 -4 0.39 0.71
-12 -10 -5 4.84 1.32
12 -10 -5 3.92 1.23
-12 -10 -6 0.11 0.8
12 -10 -6 0.9 1.03
-12 -10 -7 0.66 1.05
12 -10 -7 -0.2 0.99
-13 10 -7 5.86 1.46
13 -10 7 6.37 1.42
13 10 -7 4 1.27
-13 10 -6 0.64 0.83
13 10 -6 -0.98 0.83
13 -10 6 -1.02 0.79
-13 10 -5 10.4 1.6
13 -10 5 16.65 1.9
13 10 -5 13.39 1.95
-13 10 -4 0.41 0.63
13 10 -4 -1.04 0.59
13 -10 4 0.92 0.71
-13 -10 3 60.73 2.73
13 10 -3 64.56 3.09
13 -10 3 60.1 2.89
-13 -10 2 8.02 1.26
13 -10 2 5.34 1.05
13 10 -2 4.05 1.02
-13 -10 1 11.61 1.48
13 10 -1 12.37 1.55
13 -10 1 13.5 1.51
-13 -10 0 0.48 0.57
13 -10 0 0.44 0.62
13 10 0 -0.17 0.57
-13 -10 -1 11.28 1.5
13 -10 -1 11.12 1.43
-13 -10 -2 3.31 1
13 -10 -2 3.17 0.82
-13 -10 -3 66.4 3.12
13 -10 -3 63.85 2.87
13 -10 -3 59.89 2.84
-13 -10 -4 -0.21 0.73
13 -10 -4 -0.12 0.8
-13 -10 -5 12.41 1.75
13 -10 -5 14.89 1.98
-13 -10 -6 0.39 0.86
13 -10 -6 -0.88 0.95
-13 -10 -7 3.7 1.33
13 -10 -7 4.66 1.56
-14 10 -7 2.61 1.16
14 10 -7 0.73 1.11
14 -10 7 2.13 1.19
-14 10 -6 0.73 0.85
14 10 -6 -0.29 0.77
14 -10 6 -0.15 0.91
-14 10 -5 1.98 0.9
14 10 -5 0.78 0.74
14 -10 5 0.69 0.9
-14 10 -4 0.71 0.75
14 10 -4 -0.34 0.7
14 -10 4 0.28 0.72
-14 -10 3 6.68 1.21
14 -10 3 5.28 1.14
14 10 -3 2.74 1.01
-14 -10 2 0.23 0.55
14 -10 2 1.43 0.79
14 10 -2 0.04 0.63
-14 -10 1 1.38 0.76
14 10 -1 0.58 0.72
14 -10 1 1.27 0.76
-14 -10 0 6.6 1.16
14 -10 0 3.68 0.93
14 10 0 3.52 0.93
-14 -10 -1 1.89 0.81
14 -10 -1 0.33 0.68
-14 -10 -2 0.55 0.72
14 -10 -2 0.25 0.65
-14 -10 -3 4.6 1.21
14 -10 -3 3.17 0.97
-14 -10 -4 0.53 0.79
14 -10 -4 0.98 0.86
-14 -10 -5 1.61 0.97
14 -10 -5 -0.59 0.92
-14 -10 -6 0.51 0.88
14 -10 -6 -1.9 0.88
-14 -10 -7 3.12 1.26
14 -10 -7 -0.19 1.1
-15 10 -7 0.58 1.03
15 -10 7 0.15 0.99
15 10 -7 0.65 1.11
-15 10 -6 0.16 0.82
15 10 -6 -1.43 0.79
15 -10 6 -0.54 0.81
-15 10 -5 3.98 1.12
15 10 -5 3.56 1.23
15 -10 5 3.97 1.27
-15 10 -4 0.42 0.66
15 10 -4 0.31 0.75
15 -10 4 1.01 0.75
-15 -10 3 53.67 2.66
15 10 -3 53.81 2.9
15 -10 3 51.05 2.72
-15 -10 2 0.92 0.61
15 -10 2 0.47 0.69
15 10 -2 0.73 0.73
-15 -10 1 0.78 0.69
15 10 -1 0.23 0.6
15 -10 1 0.54 0.77
-15 -10 0 -0.75 0.44
15 -10 0 -0.38 0.6
15 10 0 -0.62 0.55
-15 -10 -1 0.18 0.7
15 -10 -1 -0.54 0.6
-15 -10 -2 -0.58 0.65
15 -10 -2 1.61 0.79
-15 -10 -3 53.59 2.93
15 -10 -3 58.15 2.8
-15 -10 -4 0.42 0.85
15 -10 -4 -0.4 0.74
15 -10 -4 0.2 0.77
-15 -10 -5 2.8 1.07
15 -10 -5 0.46 0.96
-15 -10 -6 1.23 0.97
15 -10 -6 -0.03 0.94
-15 -10 -7 2.32 1.22
15 -10 -7 0.67 1.16
-16 10 -7 16.87 2.2
16 -10 7 14.54 2.16
-16 10 -6 0.52 0.87
16 10 -6 0.72 0.96
16 -10 6 -0.06 0.84
-16 10 -5 1.66 0.87
16 -10 5 2.92 1.08
16 10 -5 3.58 1.19
-16 10 -4 -0.06 0.62
16 -10 4 -0.23 0.65
16 10 -4 -0.63 0.77
16 10 -3 0.66 0.88
16 -10 3 2.71 1.02
-16 -10 2 2.21 0.87
16 -10 2 3.91 1.04
16 10 -2 1.82 0.88
-16 -10 1 18.53 1.83
16 10 -1 18.76 1.96
16 -10 1 18.63 1.97
-16 -10 0 0.8 0.67
16 10 0 2.02 0.85
16 -10 0 0.52 0.7
-16 -10 -1 22.15 2.13
16 -10 -1 16.41 1.72
-16 -10 -2 3.46 1.04
16 -10 -2 0.75 0.78
-16 -10 -3 0.94 0.79
16 -10 -3 2.39 0.9
-16 -10 -4 1.77 1
16 -10 -4 0.82 0.79
-16 -10 -5 2.51 1.09
16 -10 -5 4.34 1.33
-16 -10 -6 2.09 1.15
16 -10 -6 1.29 1.07
-16 -10 -7 18.68 2.51
16 -10 -7 15.7 2.33
-17 10 -7 3.07 1.2
-17 10 -6 0.77 0.87
17 -10 6 0.22 0.86
17 10 -6 -0.77 0.83
-17 10 -5 3.7 1.06
17 -10 5 5.05 1.29
17 10 -5 3.98 1.34
-17 10 -4 -0.01 0.66
17 10 -4 -0.14 0.79
17 -10 4 0.16 0.8
17 10 -3 21.03 2.21
17 -10 3 22.25 2.18
-17 -10 2 0.87 0.66
17 -10 2 2.51 0.85
17 10 -2 -0.6 0.7
-17 -10 1 4.51 1.07
17 -10 1 4.06 1.08
17 10 -1 4.55 1.14
-17 -10 0 0.32 0.7
17 10 0 -0.73 0.54
17 -10 0 0.19 0.75
-17 -10 -1 2.84 0.97
17 -10 -1 3.17 0.96
17 10 1 1.9 0.97
-17 -10 -2 0.52 0.81
17 -10 -2 0.86 0.79
-17 -10 -3 19.77 2.2
17 -10 -3 26.82 2.04
-17 -10 -4 -0.19 0.78
17 -10 -4 -0.58 0.81
-17 -10 -5 3.54 1.18
17 -10 -5 4.29 1.37
-17 -10 -6 0.19 0.82
17 -10 -6 1.83 1.16
-18 10 -6 -0.17 0.88
18 10 -6 0.33 0.89
18 -10 6 -0.72 0.85
-18 10 -5 18.68 1.99
18 10 -5 17.86 2.37
18 -10 5 13.99 1.93
18 -10 4 1.63 0.93
18 10 -4 2.34 1.05
18 10 -3 0.3 0.78
18 -10 3 -1.13 0.67
-18 -10 2 1.3 0.74
18 -10 2 4.79 1.16
18 10 -2 0.01 0.79
-18 -10 1 38.18 2.35
18 10 -1 37.32 2.46
18 -10 1 37.31 2.35
-18 -10 0 7.73 1.35
18 -10 0 6.43 1.24
18 10 0 4.74 1.16
-18 -10 -1 41.12 2.47
18 -10 -1 37.36 2.33
18 10 1 38.83 2.38
-18 -10 -2 3.03 1
18 -10 -2 1.05 0.89
-18 -10 -3 0.33 0.76
18 -10 -3 0.68 0.85
-18 -10 -4 2.72 1.15
18 -10 -4 1.73 1.05
-18 -10 -5 19.81 2.31
18 -10 -5 19.32 2.32
-18 -10 -6 0.96 0.94
18 -10 -6 -0.5 0.92
-19 10 -6 -0.65 0.85
19 -10 6 0.14 0.92
-19 10 -5 0.87 0.89
19 10 -5 -0.18 0.95
19 -10 5 -0.01 0.86
19 10 -4 -0.4 0.77
19 -10 4 0.59 0.83
19 10 -3 0.6 0.96
19 -10 3 0.51 0.83
-19 -10 2 -0.28 0.68
19 -10 2 0.88 0.74
19 10 -2 1.07 0.96
-19 -10 1 6.45 1.25
19 -10 1 7.77 1.41
19 10 -1 6.28 1.3
-19 -10 0 -0.35 0.62
19 -10 0 0.13 0.73
19 10 0 -0.39 0.74
-19 -10 -1 5.85 1.24
19 -10 -1 6.8 1.33
19 10 1 7.74 1.39
-19 -10 -2 0.91 0.85
19 -10 -2 -0.2 0.67
-19 -10 -3 0.14 0.73
19 -10 -3 0.48 0.77
-19 -10 -4 -0.06 0.77
19 -10 -4 0.21 0.92
-19 -10 -5 0.42 0.94
-19 -10 -6 0.7 1
19 -10 -6 -0.92 0.97
-20 10 -6 0.91 1.05
20 -10 6 -0.05 1.02
-20 10 -5 29.46 2.37
20 -10 5 21.83 2.37
20 10 -5 28.58 3.06
20 10 -4 0.53 0.93
20 -10 4 1.14 0.99
20 -10 3 0.15 0.77
20 10 -3 -0.07 0.81
-20 -10 2 2.05 0.91
20 10 -2 1.37 1.02
20 -10 2 3.41 1.05
-20 -10 1 44.45 2.61
20 10 -1 41.54 2.66
20 -10 1 42.25 2.57
-20 -10 0 1.94 0.9
20 -10 0 2.16 0.89
20 10 0 1.8 1
-20 -10 -1 40.92 2.55
20 10 1 37.42 2.48
20 -10 -1 39.61 2.47
-20 -10 -2 1.23 0.86
20 -10 -2 2.56 0.95
-20 -10 -3 -0.15 0.72
20 -10 -3 -0.59 0.7
-20 -10 -4 -0.69 0.79
20 -10 -4 -0.08 0.89
-20 -10 -5 31.17 2.83
20 -10 -6 1.65 1.36
-21 10 -5 0.77 1.01
21 10 -5 1.7 1.24
21 -10 5 0.67 1.04
21 10 -4 0.25 0.95
21 -10 4 -0.15 0.83
21 -10 3 16.31 1.94
21 10 -3 16.23 2.16
-21 -10 2 1.12 0.82
21 -10 2 2.57 0.99
21 10 -2 1.53 1.06
-21 -10 1 -0.36 0.65
21 10 -1 1.56 0.95
21 -10 1 0.85 0.83
-21 -10 0 -0.61 0.63
21 -10 0 0.13 0.8
21 10 0 0.47 0.83
-21 -10 -1 -0.02 0.7
21 10 1 0.69 0.77
21 -10 -1 0.28 0.75
-21 -10 -2 1.59 0.91
21 -10 -2 2.42 1.08
-21 -10 -3 19.73 2.2
21 -10 -3 20.35 2.23
-21 -10 -4 1.58 0.96
21 -10 -4 0.14 0.91
-21 -10 -5 1.13 1.04
22 -10 5 24.91 2.52
22 10 -4 -0.49 0.81
22 -10 4 -0.71 0.85
22 10 -3 0.38 0.96
22 -10 3 -0.15 0.9
22 10 -2 4.13 1.28
22 -10 2 2.62 1.03
-22 -10 1 28.82 2.2
22 10 -1 30.55 2.84
22 -10 1 28.45 2.24
-22 -10 0 3.18 1.02
22 10 0 2.92 1.2
22 -10 0 2.27 1.02
-22 -10 -1 25.68 2.39
22 -10 -1 27.73 2.16
22 10 1 29.19 2.35
-22 -10 -2 2.49 1.03
22 -10 -2 3.83 1.11
-22 -10 -3 0.54 0.83
22 -10 -3 -0.05 0.79
-22 -10 -4 -0.63 0.8
22 -10 -4 -0.09 0.9
23 -10 4 1.72 1.13
23 10 -4 0.78 1.07
23 -10 3 31.58 2.49
23 10 -3 28.54 2.88
23 10 -2 6.64 1.61
23 -10 2 5.07 1.27
-23 -10 1 9.71 1.56
23 10 -1 7.74 1.55
23 -10 1 8.87 1.59
-23 -10 0 -0.07 0.67
23 10 0 -0.39 0.78
23 -10 0 -0.51 0.76
-23 -10 -1 8.38 1.48
23 -10 -1 9.78 1.61
23 10 1 8.98 1.58
-23 -10 -2 6.14 1.45
23 -10 -2 5.36 1.25
-23 -10 -3 25.68 2.55
23 -10 -3 31.71 2.4
-23 -10 -4 -0.05 0.92
23 -10 -4 0.77 1.01
24 -10 4 0.62 1
24 10 -3 0.18 1.04
24 -10 3 0.04 0.98
24 -10 2 -0.35 0.93
24 10 -2 0 0.97
-24 -10 1 10.12 1.63
24 10 -1 5.36 1.46
24 -10 1 5.74 1.28
-24 -10 0 -0.04 0.72
24 10 0 -0.11 0.9
24 -10 0 0.46 0.82
-24 -10 -1 4.88 1.28
24 10 1 5.6 1.4
24 -10 -1 7.22 1.36
-24 -10 -2 0.06 0.88
24 -10 -2 -0.71 0.85
-24 -10 -3 0.9 0.98
24 -10 -3 -0.51 0.88
25 10 -3 22.69 2.78
25 -10 3 18.91 2.17
25 -10 2 2.11 1.2
25 10 -2 0.73 1.19
-25 -10 1 14.15 1.91
25 -10 1 14.38 1.85
25 10 -1 13.45 2.17
-25 -10 0 0.95 0.86
25 10 0 -0.18 0.95
25 -10 0 0.96 0.96
-25 -10 -1 10.85 1.71
25 -10 -1 11.93 1.69
25 10 1 9.75 1.77
-25 -10 -2 2.03 1
25 -10 -2 -0.2 0.88
26 -10 2 1.49 0.99
26 10 -2 -0.49 1.1
26 -10 1 0.87 0.92
26 10 -1 -0.04 1.07
26 -10 0 -0.34 0.86
26 10 0 -0.77 0.89
26 -10 -1 -0.77 0.88
26 10 1 0.44 1.09
26 -10 -2 1.05 1.09
0 11 -8 6.04 1.64
0 11 -7 -0.64 0.77
0 11 -6 0.86 0.97
0 11 -5 -0.87 0.62
0 -11 5 -0.23 0.66
0 11 -4 70.82 3.08
0 -11 4 69.3 2.97
0 -11 3 0.16 0.5
0 11 -3 -0.07 0.51
0 -11 2 34.87 1.97
0 -11 1 0.04 0.51
0 -11 1 0.38 0.52
0 -11 0 -0.06 0.52
0 -11 0 -0.13 0.44
0 -11 -1 -0.25 0.46
0 -11 -1 0.41 0.63
0 -11 -2 29.8 1.76
0 -11 -2 29.94 2.03
0 -11 -3 0.21 0.71
0 -11 -3 -0.33 0.5
0 -11 -4 66.09 3.24
0 -11 -4 72.58 2.82
0 -11 -5 0.07 0.72
0 -11 -5 -0.89 0.8
0 -11 -6 1.49 1
0 -11 -7 -0.14 1.04
-1 11 -8 -0.05 0.94
1 11 -8 -0.11 0.99
-1 11 -7 1.25 0.98
1 11 -7 0.05 0.81
-1 11 -6 0.35 0.8
1 11 -6 0.34 0.93
-1 -11 5 0.32 0.63
-1 11 -5 -1 0.57
1 -11 5 -0.33 0.62
1 11 -5 0.19 0.66
-1 11 -4 -0.58 0.57
-1 -11 4 0.18 0.62
1 11 -4 0.52 0.62
1 -11 4 -0.28 0.58
-1 11 -3 -0.22 0.54
-1 -11 3 0.55 0.59
1 11 -3 0.74 0.58
1 -11 3 0.5 0.58
-1 -11 2 1.06 0.68
1 -11 2 2.21 0.68
-1 -11 1 -0.54 0.45
-1 -11 1 0.02 0.51
1 -11 1 0.38 0.54
-1 -11 0 8.35 1.1
-1 -11 0 9.24 1.22
1 -11 0 12.42 1.31
1 -11 0 11.29 1.29
-1 -11 -1 -0.33 0.48
-1 -11 -1 0.12 0.59
1 -11 -1 0.55 0.64
1 -11 -1 -0.44 0.45
-1 -11 -2 1.23 0.77
-1 -11 -2 1.43 0.64
1 -11 -2 0.28 0.6
1 -11 -2 0.73 0.74
-1 -11 -3 -0.37 0.52
-1 -11 -3 -0.09 0.72
1 -11 -3 0.61 0.57
1 -11 -3 0.38 0.76
-1 -11 -4 2.3 0.92
-1 -11 -4 -0.74 0.52
1 -11 -4 0.72 0.6
1 -11 -4 -0.37 0.74
-1 -11 -5 -1.57 0.68
-1 -11 -5 0.15 0.72
1 -11 -5 -0.04 0.8
-1 -11 -6 1.77 1.15
1 -11 -6 2.23 1.08
-1 -11 -7 1.34 1.09
1 -11 -7 -0.13 1.06
-2 11 -8 7.56 1.62
2 11 -8 6.73 1.7
-2 11 -7 0.19 0.82
2 11 -7 -0.58 0.8
-2 11 -6 -0.12 0.76
2 11 -6 0.86 0.89
2 -11 6 0.22 0.7
-2 -11 5 1.6 0.77
-2 11 -5 2.22 0.95
2 11 -5 2.66 1.04
2 -11 5 4.36 1.04
-2 -11 4 30.82 1.99
-2 11 -4 26.56 1.98
2 -11 4 29.09 1.98
2 11 -4 29.53 2.01
-2 -11 3 8.21 1.18
-2 11 -3 8.25 1.25
2 11 -3 6.95 1.16
2 -11 3 6.55 1.13
-2 -11 2 19.53 1.5
2 -11 2 19.33 1.74
-2 -11 1 0.04 0.52
-2 -11 1 0.21 0.53
2 -11 1 -0.07 0.54
-2 -11 0 0.67 0.62
-2 -11 0 0.33 0.49
2 -11 0 -0.45 0.53
2 -11 0 -0.15 0.52
-2 -11 -1 0.01 0.51
-2 -11 -1 0.72 0.64
2 -11 -1 -0.25 0.48
2 -11 -1 0.77 0.69
-2 -11 -2 20.2 1.98
-2 -11 -2 17.18 1.51
2 -11 -2 20.71 1.57
2 -11 -2 18.08 1.84
-2 -11 -3 10.54 1.51
-2 -11 -3 10.77 1.2
2 -11 -3 9.89 1.52
2 -11 -3 9 1.25
-2 -11 -4 31.49 2
-2 -11 -4 28.63 2.23
2 -11 -4 28.94 1.89
2 -11 -4 29.69 2.27
-2 -11 -5 1.99 1.05
2 -11 -5 3.65 1.28
-2 -11 -6 0.22 1
2 -11 -6 -0.39 0.97
-2 -11 -7 -0.04 1.05
2 -11 -7 -0.36 1.02
-3 11 -8 4.48 1.34
3 11 -8 7.55 1.68
-3 11 -7 0.42 0.95
3 11 -7 1.63 1.06
-3 11 -6 37.67 2.52
3 -11 6 29.04 2.24
3 11 -6 36.38 2.53
-3 -11 5 5.49 1.09
-3 11 -5 5.51 1.24
3 -11 5 6.53 1.24
3 11 -5 6.27 1.28
-3 11 -4 7.01 1.31
-3 -11 4 7.45 1.17
3 11 -4 7.9 1.29
3 -11 4 4.86 1.08
-3 -11 3 1.68 0.7
-3 11 -3 1.55 0.76
3 -11 3 1.67 0.73
3 11 -3 1.33 0.69
-3 -11 2 9.18 1.16
-3 -11 2 7.09 1.06
3 -11 2 7.81 1.18
-3 -11 1 1.3 0.64
-3 -11 1 1.75 0.68
3 -11 1 2.99 0.81
-3 -11 0 45.63 2.06
-3 -11 0 46.58 2.31
3 -11 0 48.4 2.28
3 -11 0 49.88 2.32
-3 -11 -1 2.36 0.86
-3 -11 -1 1.81 0.65
3 -11 -1 2.51 0.75
3 -11 -1 0.8 0.65
-3 -11 -2 9.33 1.41
-3 -11 -2 9.86 1.16
3 -11 -2 10.36 1.44
3 -11 -2 7.19 1.09
-3 -11 -3 1.31 0.9
3 -11 -3 0.66 0.77
3 -11 -3 1.09 0.68
-3 -11 -4 5.48 1.3
3 -11 -4 4.47 1.2
3 -11 -4 4.73 1.07
-3 -11 -5 7.03 1.45
3 -11 -5 5.64 1.37
-3 -11 -6 34.15 2.71
3 -11 -6 31.65 2.94
-3 -11 -7 0.45 1.06
3 -11 -7 2.15 1.35
-4 11 -8 6.9 1.53
4 11 -8 8.03 1.86
-4 11 -7 1.29 0.89
4 11 -7 -0.22 0.88
-4 11 -6 -0.61 0.63
4 -11 6 0.22 0.74
4 11 -6 0.6 0.8
-4 11 -5 0.24 0.66
4 -11 5 -0.2 0.62
4 11 -5 1.09 0.72
-4 -11 4 14.31 1.54
-4 11 -4 12.89 1.55
4 11 -4 12.09 1.54
4 -11 4 13.44 1.63
-4 -11 3 0.18 0.5
4 -11 3 0.06 0.55
4 11 -3 1.76 0.8
-4 -11 2 24.07 1.59
-4 -11 2 23.95 1.62
4 11 -2 20.77 1.6
4 -11 2 23.17 1.74
-4 -11 1 -0.3 0.48
-4 -11 1 0.81 0.53
4 -11 1 1.05 0.62
-4 -11 0 -0.15 0.4
-4 -11 0 0.5 0.61
4 -11 0 0.67 0.6
-4 -11 -1 0.88 0.52
-4 -11 -1 1.43 0.74
4 -11 -1 -0.21 0.55
4 -11 -1 -0.03 0.56
-4 -11 -2 23.9 1.9
4 -11 -2 24.97 1.83
4 -11 -2 22.92 1.68
-4 -11 -3 1.03 0.81
4 -11 -3 0.02 0.73
4 -11 -3 0.82 0.7
-4 -11 -4 12.12 1.69
4 -11 -4 8.02 1.43
4 -11 -4 13.56 1.52
-4 -11 -5 -0.23 0.79
4 -11 -5 0.58 0.85
-4 -11 -6 0.7 1.01
4 -11 -6 -0.34 0.85
-4 -11 -7 -0.56 1.03
4 -11 -7 2.79 1.31
-5 11 -8 11.35 1.86
-5 11 -7 -0.48 0.7
5 11 -7 0.07 0.93
-5 11 -6 36.86 2.47
5 -11 6 39.94 2.58
5 11 -6 38.34 2.65
-5 11 -5 -0.37 0.57
5 -11 5 0.1 0.67
5 11 -5 0.18 0.73
-5 11 -4 8.38 1.29
-5 -11 4 9.34 1.27
5 -11 4 9.24 1.36
5 11 -4 8.2 1.35
-5 -11 3 1.92 0.71
5 11 -3 0.64 0.65
5 -11 3 2.03 0.77
-5 -11 2 19.07 1.5
-5 -11 2 19.42 1.49
5 11 -2 19.45 1.56
5 -11 2 22.14 1.74
-5 -11 1 2.3 0.67
-5 -11 1 0.92 0.63
5 -11 1 1.52 0.73
-5 -11 0 73.25 2.93
-5 -11 0 71.51 2.54
5 -11 0 71.51 2.88
-5 -11 -1 0.15 0.63
5 -11 -1 0.54 0.62
5 -11 -1 1.52 0.74
-5 -11 -2 22.16 2.05
5 -11 -2 22.86 1.72
5 -11 -2 22.56 1.79
-5 -11 -3 0.58 0.82
5 -11 -3 1.9 0.78
5 -11 -3 0.55 0.77
-5 -11 -4 9.11 1.48
5 -11 -4 8.74 1.32
5 -11 -4 6.27 1.39
-5 -11 -5 -1.35 0.78
5 -11 -5 0.46 0.88
-5 -11 -6 36.5 2.72
5 -11 -6 34.12 2.75
-5 -11 -7 2.96 1.22
5 -11 -7 0.43 1.15
-6 11 -8 2.2 1.21
-6 11 -7 0.16 0.83
6 11 -7 0.28 0.83
-6 11 -6 0.45 0.72
6 11 -6 0.11 0.75
6 -11 6 -0.51 0.69
-6 11 -5 2.81 0.92
6 11 -5 5.78 1.33
6 -11 5 7.46 1.35
-6 11 -4 -0.28 0.5
-6 -11 4 -0.38 0.45
6 11 -4 0.35 0.67
6 -11 4 0.52 0.64
-6 -11 3 2.56 0.73
-6 -11 3 1.35 0.62
6 -11 3 1.52 0.79
6 11 -3 0.64 0.62
-6 -11 2 3.58 0.85
-6 -11 2 3.48 0.72
6 11 -2 4.36 1.05
6 -11 2 2.2 0.83
-6 -11 1 7.23 1.01
-6 -11 1 4.77 0.98
6 -11 1 5.44 1.07
-6 -11 0 0.53 0.61
6 -11 0 0.17 0.58
-6 -11 -1 4.64 1.01
6 -11 -1 5.6 1.06
-6 -11 -2 4.94 1.09
6 -11 -2 2.24 0.86
6 -11 -2 3.99 0.94
-6 -11 -3 0.35 0.74
6 -11 -3 0.63 0.82
6 -11 -3 1.38 0.73
-6 -11 -4 0.85 0.84
6 -11 -4 0.2 0.67
6 -11 -4 -0.36 0.79
-6 -11 -5 5.39 1.34
6 -11 -5 4.32 1.33
-6 -11 -6 1.05 1.1
6 -11 -6 -0.54 0.93
-6 -11 -7 -0.22 0.88
6 -11 -7 0.44 1.15
-7 11 -7 1.7 1.01
7 11 -7 0.35 0.87
-7 11 -6 40.06 2.56
7 11 -6 36.44 2.64
7 -11 6 31.23 2.37
-7 11 -5 -0.07 0.67
7 11 -5 -0.55 0.68
7 -11 5 -0.59 0.66
-7 11 -4 3.65 0.97
7 11 -4 4.21 1.14
7 -11 4 3.65 1.01
-7 -11 3 0.07 0.51
-7 -11 3 -0.6 0.41
7 11 -3 -0.12 0.61
7 -11 3 -0.25 0.55
-7 -11 2 12.83 1.3
-7 -11 2 13.09 1.42
7 -11 2 13.53 1.53
7 11 -2 12.27 1.49
-7 -11 1 9.11 1.26
7 -11 1 6.29 1.12
-7 -11 0 71.76 2.96
7 -11 0 73.32 2.97
-7 -11 -1 6.59 1.18
7 -11 -1 7.1 1.15
-7 -11 -2 14.6 1.73
7 -11 -2 12.22 1.48
7 -11 -2 14.4 1.62
-7 -11 -3 -0.65 0.63
7 -11 -3 1.8 0.96
7 -11 -3 -0.03 0.6
-7 -11 -4 6.85 1.38
7 -11 -4 2.52 0.95
7 -11 -4 3.46 1.13
-7 -11 -5 1.66 1.04
7 -11 -5 0.04 0.9
-7 -11 -6 35.98 2.82
7 -11 -6 37.94 2.82
-7 -11 -7 -0.2 1.02
7 -11 -7 0.56 1.16
-8 11 -7 2.56 1.09
8 11 -7 3.38 1.12
8 -11 7 2.29 1.12
-8 11 -6 0.78 0.85
8 -11 6 2.27 0.96
8 11 -6 1.36 1
-8 11 -5 1.19 0.85
8 11 -5 1.49 0.86
8 -11 5 1.3 0.88
-8 11 -4 7.8 1.28
8 11 -4 9.32 1.49
8 -11 4 7.24 1.29
-8 -11 3 1.07 0.67
-8 -11 3 0.64 0.6
8 11 -3 0.7 0.76
8 -11 3 0.38 0.61
-8 -11 2 3.6 0.87
8 -11 2 3.63 0.95
8 11 -2 3.52 0.9
-8 -11 1 9.57 1.35
8 -11 1 10.84 1.42
-8 -11 0 0.28 0.62
8 -11 0 -1.02 0.51
-8 -11 -1 11.57 1.54
8 -11 -1 9 1.29
-8 -11 -2 3.8 1.07
8 -11 -2 5.32 1.07
8 -11 -2 3.81 1.04
-8 -11 -3 -0.16 0.68
8 -11 -3 -1 0.7
8 -11 -3 -0.75 0.61
-8 -11 -4 10.1 1.59
8 -11 -4 8.37 1.52
8 -11 -4 11.21 1.51
-8 -11 -5 2.07 1.02
8 -11 -5 1.87 1.06
-8 -11 -6 0.85 1.06
8 -11 -6 1.25 1.06
-8 -11 -7 3.05 1.33
8 -11 -7 0.93 1.21
-9 11 -7 1.56 1.12
9 11 -7 0.39 0.85
9 -11 7 0.35 0.88
-9 11 -6 30.57 2.38
9 -11 6 27.78 2.22
9 11 -6 25.51 2.67
-9 11 -5 1.55 0.88
9 11 -5 0.18 0.68
9 -11 5 1.24 0.83
-9 11 -4 4.31 1.06
9 -11 4 3.14 0.95
9 11 -4 3.59 1.12
-9 -11 3 0.9 0.65
9 11 -3 1.87 0.76
9 -11 3 0.15 0.64
-9 -11 2 0.54 0.6
9 11 -2 1.38 0.75
9 -11 2 1.36 0.74
-9 -11 1 0.36 0.6
9 -11 1 1.76 0.76
-9 -11 0 40.97 2.3
9 -11 0 40.4 2.25
-9 -11 -1 1.81 0.86
9 -11 -1 1.58 0.8
-9 -11 -2 0.96 0.72
9 -11 -2 -0.01 0.62
-9 -11 -3 0.7 0.82
9 -11 -3 2.69 0.88
9 -11 -3 0.62 0.84
-9 -11 -4 3.29 1.19
9 -11 -4 4.31 1.06
9 -11 -4 3.16 1.15
-9 -11 -5 0.41 0.88
9 -11 -5 0.49 0.85
-9 -11 -6 27.31 2.62
9 -11 -6 26.6 2.69
-9 -11 -7 0.75 0.97
9 -11 -7 -1.32 1
-10 11 -7 1.82 1.04
10 -11 7 0.75 0.99
10 11 -7 -0.26 0.96
-10 11 -6 0.93 0.86
10 11 -6 2.15 1.1
10 -11 6 2.17 0.95
-10 11 -5 0 0.62
10 -11 5 -0.35 0.61
10 11 -5 0.17 0.79
10 -11 4 35.51 2.37
10 11 -4 32.96 2.35
-10 -11 3 0.56 0.61
10 11 -3 -1.5 0.5
10 -11 3 -1.83 0.53
-10 -11 2 36.06 2.09
10 11 -2 35.75 2.21
10 -11 2 37.99 2.24
-10 -11 1 0.28 0.61
10 -11 1 1.06 0.63
-10 -11 0 0.57 0.6
10 -11 0 -0.15 0.62
-10 -11 -1 0.21 0.65
10 -11 -1 -0.03 0.64
-10 -11 -2 37.89 2.38
10 -11 -2 35.4 2.16
-10 -11 -3 -0.15 0.71
10 -11 -3 -1.04 0.73
10 -11 -3 0.52 0.72
-10 -11 -4 37.33 2.53
10 -11 -4 32.05 2.36
10 -11 -4 32.7 2.2
-10 -11 -5 -0.63 0.82
10 -11 -5 0.36 0.87
-10 -11 -6 1.17 0.97
10 -11 -6 -0.85 0.92
-10 -11 -7 2.27 1.21
10 -11 -7 -1.36 1.02
-11 11 -7 4.28 1.28
11 11 -7 3.94 1.33
-11 11 -6 6.01 1.42
11 11 -6 5.86 1.42
11 -11 6 6.01 1.37
-11 11 -5 0.68 0.76
11 -11 5 1.55 0.93
11 11 -5 0.94 0.97
11 11 -4 1.74 0.87
11 -11 4 -0.95 0.66
-11 -11 3 2.56 0.88
11 11 -3 0.73 0.74
11 -11 3 1.06 0.9
-11 -11 2 4.68 1
11 11 -2 4.4 1.05
11 -11 2 5.75 1.14
-11 -11 1 5.75 1.12
11 11 -1 5.61 1.17
11 -11 1 7.01 1.21
-11 -11 0 7.44 1.23
11 -11 0 7.77 1.23
-11 -11 -1 6.02 1.22
11 -11 -1 6.41 1.15
-11 -11 -2 5.82 1.23
11 -11 -2 7.73 1.24
-11 -11 -3 0.57 0.81
11 -11 -3 1.35 0.91
11 -11 -3 2.6 0.9
-11 -11 -4 2.29 1.01
11 -11 -4 1.36 0.85
11 -11 -4 2.02 1.04
-11 -11 -5 -0.02 0.92
11 -11 -5 1.31 1.09
-11 -11 -6 5.73 1.53
11 -11 -6 5.12 1.55
-11 -11 -7 4.31 1.49
11 -11 -7 3.56 1.52
-12 11 -7 -0.56 0.83
12 11 -7 -0.44 0.89
-12 11 -6 0.2 0.76
12 -11 6 0.65 0.9
12 11 -6 1.53 1.06
-12 11 -5 0.46 0.86
12 -11 5 2.49 1.01
12 11 -5 -0.04 0.84
12 -11 4 39.92 2.55
12 11 -4 39.31 2.64
-12 -11 3 0.57 0.62
12 -11 3 -0.38 0.64
12 11 -3 -0.36 0.59
-12 -11 2 39.88 2.3
12 11 -2 44 2.51
12 -11 2 46.56 2.57
-12 -11 1 1.57 0.73
12 -11 1 0.62 0.67
12 11 -1 2.08 0.83
-12 -11 0 1.04 0.71
12 -11 0 -0.54 0.57
-12 -11 -1 -0.41 0.57
12 -11 -1 0.9 0.76
-12 -11 -2 42.97 2.61
12 -11 -2 45.99 2.48
-12 -11 -3 0.36 0.77
12 -11 -3 0.12 0.67
-12 -11 -4 35.57 2.63
12 -11 -4 42.96 2.68
12 -11 -4 41.14 2.5
-12 -11 -5 2.23 1.12
12 -11 -5 1.65 1.11
-12 -11 -6 0.51 1
12 -11 -6 0.21 1.04
12 -11 -7 -0.25 1.13
-13 11 -7 0.26 1.03
-13 11 -6 1.66 1.05
13 -11 6 0.75 0.91
13 11 -6 0.86 1
-13 11 -5 1.2 0.82
13 11 -5 0.43 0.82
13 -11 5 -0.42 0.8
13 -11 4 3.21 1.12
13 11 -4 4.21 1.18
-13 -11 3 2.33 0.84
13 11 -3 0.2 0.72
13 -11 3 0.35 0.79
-13 -11 2 1.62 0.78
13 11 -2 0.15 0.72
13 -11 2 0.49 0.83
-13 -11 1 1.53 0.76
13 11 -1 1.83 0.84
13 -11 1 1.62 0.78
-13 -11 0 27.94 2.03
13 -11 0 23.1 1.87
-13 -11 -1 2.07 0.91
13 -11 -1 0.51 0.76
-13 -11 -2 -0.08 0.73
13 -11 -2 0.52 0.76
-13 -11 -3 1.63 0.87
13 -11 -3 0.92 0.8
-13 -11 -4 3.89 1.37
13 -11 -4 1.4 0.97
13 -11 -4 2.66 1.03
-13 -11 -5 1.54 1
13 -11 -5 -0.2 0.94
-13 -11 -6 0.84 1.01
13 -11 -6 0.23 1.1
13 -11 -7 0.82 1.17
-14 11 -6 -0.12 0.89
14 11 -6 -0.96 0.88
14 -11 6 0.66 0.93
-14 11 -5 2.33 1.02
14 -11 5 2.85 1.12
14 11 -5 2.16 1.16
14 11 -4 41.42 2.71
14 -11 4 42.22 2.63
-14 -11 3 2.13 0.83
14 -11 3 1.1 0.86
14 11 -3 0.51 0.88
-14 -11 2 51.1 2.61
14 11 -2 50.25 2.74
14 -11 2 45.17 2.63
-14 -11 1 2.12 0.86
14 -11 1 3.99 1.12
14 11 -1 3.72 1.02
-14 -11 0 0.08 0.59
14 -11 0 0.36 0.64
-14 -11 -1 1.51 0.81
14 -11 -1 2.45 0.9
-14 -11 -2 44.95 2.67
14 -11 -2 49.9 2.63
-14 -11 -3 0.78 0.86
14 -11 -3 1.75 0.86
-14 -11 -4 40.48 2.75
14 -11 -4 39.62 2.5
-14 -11 -5 2.96 1.16
14 -11 -5 1.63 1.03
-14 -11 -6 0.97 1.02
14 -11 -6 -0.91 1
-15 11 -6 4.31 1.34
15 11 -6 4.02 1.51
15 -11 6 4.5 1.3
-15 11 -5 -0.58 0.83
15 -11 5 0.43 0.92
15 11 -5 0.37 0.94
15 11 -4 -0.94 0.69
15 -11 4 0.41 0.78
-15 -11 3 0.09 0.68
15 11 -3 0.23 0.69
15 -11 3 0.18 0.77
-15 -11 2 3.32 1
15 -11 2 3.67 1.12
15 11 -2 3.49 1.03
-15 -11 1 0.11 0.65
15 11 -1 -0.3 0.68
15 -11 1 0.76 0.79
-15 -11 0 25.38 2.32
15 -11 0 22.13 2.02
-15 -11 -1 -0.14 0.69
15 -11 -1 -0.34 0.66
-15 -11 -2 4.16 1.14
15 -11 -2 4.93 1.17
-15 -11 -3 0.32 0.85
15 -11 -3 -0.63 0.66
-15 -11 -4 0.26 0.8
15 -11 -4 0.09 0.8
-15 -11 -5 0.81 1.06
15 -11 -5 0 0.83
15 -11 -5 1.07 0.99
-15 -11 -6 4.28 1.46
15 -11 -6 5.93 1.58
-16 11 -6 1.42 0.98
16 11 -6 -0.32 1.03
16 -11 5 -0.24 0.91
16 11 -5 -0.07 0.85
16 -11 4 18.87 2.08
16 11 -4 19.95 2.33
16 11 -3 2.84 1.09
16 -11 3 4.65 1.21
-16 -11 2 10.69 1.57
16 11 -2 15.9 1.94
16 -11 2 12.13 1.68
-16 -11 1 2.5 0.94
16 11 -1 0.06 0.75
16 -11 1 0.93 0.79
-16 -11 0 0.18 0.65
16 -11 0 -0.3 0.63
-16 -11 -1 1.62 0.86
16 -11 -1 2.33 0.96
-16 -11 -2 11.33 1.74
16 -11 -2 12.75 1.62
-16 -11 -3 7.39 1.53
16 -11 -3 5.19 1.21
-16 -11 -4 17.83 2.13
16 -11 -4 16.02 1.95
-16 -11 -5 1 1
16 -11 -5 0.21 0.97
16 -11 -6 -0.03 1.1
-17 11 -6 6.53 1.41
17 -11 5 2.25 1.24
17 11 -5 1.33 1.14
17 11 -4 1.68 1.02
17 -11 4 1.94 0.94
17 -11 3 0.07 0.87
17 11 -3 0.11 0.76
-17 -11 2 21.85 2.18
17 11 -2 23.23 2.31
17 -11 2 23.1 2.28
-17 -11 1 0.59 0.77
17 -11 1 0.46 0.83
17 11 -1 0.85 0.88
-17 -11 0 27.69 2.15
17 -11 0 26.62 2.08
-17 -11 -1 1.88 0.92
17 -11 -1 0.95 0.83
-17 -11 -2 21.56 2.27
17 -11 -2 21.1 2.14
-17 -11 -3 1.09 0.94
17 -11 -3 1.55 0.9
-17 -11 -4 0.33 0.91
17 -11 -4 1.51 0.89
-17 -11 -5 0.28 0.93
17 -11 -5 0.67 0.98
17 -11 -6 8.15 1.82
18 -11 5 -1.07 0.98
18 11 -5 0.25 0.93
18 11 -4 -0.09 0.92
18 -11 4 0.36 0.88
18 -11 3 2.58 1.09
18 11 -3 3.63 1.26
-18 -11 2 0.66 0.72
18 11 -2 0.63 0.77
18 -11 2 0.61 0.86
-18 -11 1 3.02 1.1
18 11 -1 0.37 0.81
18 -11 1 2.44 1.01
-18 -11 0 -0.93 0.62
18 -11 0 0.05 0.76
-18 -11 -1 2.27 0.99
18 -11 -1 1.64 0.93
-18 -11 -2 0.91 0.91
18 -11 -2 0.7 0.85
-18 -11 -3 5.76 1.3
18 -11 -3 3.38 1.11
-18 -11 -4 1.27 1.1
18 -11 -4 -0.03 0.85
-18 -11 -5 0.95 1.08
18 -11 -5 0 0.92
19 11 -5 3.73 1.57
19 11 -4 -0.71 0.87
19 -11 4 2.24 1.02
19 11 -3 1.18 1.05
19 -11 3 -0.22 0.86
-19 -11 2 19.9 2.12
19 11 -2 12.96 1.78
19 -11 2 21.63 2.21
-19 -11 1 1.1 0.82
19 11 -1 0.03 0.76
19 -11 1 1.51 0.81
-19 -11 0 49.39 2.81
19 -11 0 49.36 2.81
-19 -11 -1 1.03 0.86
19 -11 -1 1.07 0.93
-19 -11 -2 21.98 2.29
19 -11 -2 19.12 2.09
-19 -11 -3 0.42 0.89
19 -11 -3 0.24 0.8
-19 -11 -4 1.5 1.04
19 -11 -4 2.83 1.12
20 11 -4 3.74 1.31
20 -11 4 5.24 1.33
20 -11 3 3.19 1.13
20 11 -3 6.35 1.43
-20 -11 2 2.68 1.04
20 -11 2 2.13 0.99
20 11 -2 2 1.07
-20 -11 1 3.12 1.12
20 -11 1 3.05 1.09
20 11 -1 2.3 1.14
-20 -11 0 -0.18 0.75
20 11 0 0.13 0.91
20 -11 0 0.28 0.77
-20 -11 -1 1.69 0.95
20 -11 -1 1.75 0.96
-20 -11 -2 3.82 1.26
20 -11 -2 1.52 1.04
-20 -11 -3 3.33 1.19
20 -11 -3 3.91 1.23
-20 -11 -4 4.53 1.36
20 -11 -4 3.62 1.18
21 11 -4 2.26 1.26
21 -11 4 3.02 1.24
21 11 -3 -1.68 0.88
21 -11 3 0.14 0.85
-21 -11 2 9.93 1.65
21 -11 2 7.94 1.52
21 11 -2 8.57 1.67
-21 -11 1 1.54 0.94
21 11 -1 1.61 0.98
21 -11 1 1.12 0.83
-21 -11 0 34.07 2.45
21 -11 0 34.29 2.43
21 11 0 33.49 2.59
-21 -11 -1 0.84 1.02
21 -11 -1 -0.49 0.83
-21 -11 -2 6.39 1.44
21 -11 -2 8.8 1.55
-21 -11 -3 -0.55 0.87
21 -11 -3 -0.05 0.84
22 -11 3 2.18 1.15
22 11 -3 1.73 1.21
-22 -11 2 5.12 1.3
22 -11 2 5.61 1.49
22 11 -2 4.8 1.53
-22 -11 1 -0.47 0.73
22 -11 1 0.69 0.9
22 11 -1 -0.48 0.89
-22 -11 0 0.01 0.83
22 -11 0 0.05 0.84
22 11 0 -0.23 0.88
-22 -11 -1 -0.09 0.8
22 -11 -1 -1.36 0.82
-22 -11 -2 4.96 1.32
22 -11 -2 3.25 1.25
22 -11 -3 0.71 1.09
23 11 -3 0.03 1.01
23 -11 2 5.51 1.36
23 11 -2 1.83 1.28
-23 -11 1 2.06 1
23 11 -1 0.17 0.99
23 -11 1 1.47 0.99
-23 -11 0 12.09 1.79
23 11 0 9.48 1.73
23 -11 0 10.46 1.67
-23 -11 -1 0.45 0.89
23 -11 -1 1.63 1.01
23 -11 -2 4.36 1.27
24 11 -2 20.61 2.53
24 11 -1 -1.45 0.92
24 -11 1 0.69 0.95
24 11 0 1.02 1.05
24 -11 0 0.43 0.92
24 -11 -1 0.28 0.99
0 12 -7 -0.73 0.97
0 12 -6 0.02 0.8
0 -12 5 0.12 0.66
0 12 -5 -0.81 0.68
0 -12 4 11.47 1.56
0 12 -4 10.94 1.51
0 -12 3 -0.76 0.54
0 -12 2 13.71 1.5
0 -12 1 0.82 0.65
0 -12 0 1.39 0.71
0 -12 0 1.46 0.71
0 -12 -1 -0.14 0.59
0 -12 -1 0.17 0.54
0 -12 -2 12.2 1.65
0 -12 -2 11.99 1.42
0 -12 -3 0.22 0.73
0 -12 -3 0.4 0.65
0 -12 -4 10.39 1.35
0 -12 -4 10.99 1.74
0 -12 -5 0.3 1.01
0 -12 -6 1.04 1.18
0 -12 -7 0.29 1.21
-1 12 -7 -0.22 0.86
1 12 -7 0.59 1.09
-1 12 -6 1.67 1.08
1 -12 6 0.66 0.82
1 12 -6 0.78 0.97
-1 -12 5 23.4 2.16
-1 12 -5 24.1 2.3
1 -12 5 21.97 2.09
1 12 -5 22.97 2.24
-1 12 -4 4.85 1.16
-1 -12 4 4.27 1.03
1 -12 4 5.09 1.13
1 12 -4 2.38 0.9
-1 -12 3 42.67 2.33
1 -12 3 39.67 2.29
-1 -12 2 0.95 0.65
1 -12 2 0.48 0.65
-1 -12 1 11.95 1.39
1 -12 1 14.44 1.49
-1 -12 0 0.67 0.51
-1 -12 0 -0.02 0.6
1 -12 0 0.72 0.66
-1 -12 -1 13.16 1.44
-1 -12 -1 15.53 1.69
1 -12 -1 12.2 1.41
1 -12 -1 13.41 1.56
-1 -12 -2 0.48 0.58
-1 -12 -2 0.41 0.69
1 -12 -2 -0.7 0.65
1 -12 -2 -0.12 0.52
-1 -12 -3 43.86 2.64
-1 -12 -3 38.89 2.14
1 -12 -3 47.44 2.75
1 -12 -3 43.75 2.3
-1 -12 -4 4.69 1.36
1 -12 -4 2.28 1.02
1 -12 -4 4.38 1
-1 -12 -5 24.22 2.46
1 -12 -5 23 1.84
1 -12 -5 17.33 2.13
-1 -12 -6 0.21 1.01
1 -12 -6 1.29 1.16
-1 -12 -7 -1.27 1
1 -12 -7 -0.94 0.92
-2 12 -7 3.65 1.23
2 12 -7 1.4 1.15
-2 12 -6 1.9 1.02
2 -12 6 1.45 0.94
2 12 -6 2.74 1.21
-2 -12 5 20.58 1.94
-2 12 -5 17.82 2.04
2 -12 5 20.94 2.05
2 12 -5 22.44 2.19
-2 -12 4 7.26 1.18
2 12 -4 6.92 1.31
2 -12 4 5.78 1.23
-2 -12 3 0.4 0.58
2 -12 3 0.72 0.73
-2 -12 2 4.61 0.94
2 -12 2 4.23 0.98
-2 -12 1 21.58 1.61
2 -12 1 21.47 1.66
-2 -12 0 0.68 0.61
-2 -12 0 0.41 0.65
2 -12 0 0.38 0.59
-2 -12 -1 24.59 1.88
-2 -12 -1 26.33 1.69
2 -12 -1 20.06 1.82
2 -12 -1 20.87 1.9
-2 -12 -2 3.19 0.98
-2 -12 -2 5.43 0.94
2 -12 -2 6.78 1.15
2 -12 -2 6.57 1.26
-2 -12 -3 0.75 0.78
2 -12 -3 -0.61 0.75
2 -12 -3 -0.08 0.67
-2 -12 -4 3.91 1.21
2 -12 -4 7.79 1.59
2 -12 -4 5.8 1.16
-2 -12 -5 19.59 2.35
2 -12 -5 19.79 1.94
2 -12 -5 17.93 2.27
-2 -12 -6 1.01 1.05
2 -12 -6 1.47 0.92
2 -12 -6 1.35 1.04
2 -12 -7 3.32 1.52
-3 12 -7 0.94 0.96
3 12 -7 -0.82 0.91
-3 12 -6 0.1 0.76
3 12 -6 1.95 1.03
3 -12 6 0.39 0.78
-3 -12 5 7.07 1.27
-3 12 -5 9.9 1.55
3 -12 5 10.06 1.55
3 12 -5 9.76 1.59
-3 -12 4 0.72 0.7
3 -12 4 0.45 0.65
3 12 -4 1.18 0.72
-3 -12 3 67.09 2.88
3 -12 3 68.05 3.04
-3 -12 2 -0.3 0.5
3 -12 2 1.05 0.69
-3 -12 1 8.32 1.16
-3 -12 1 8.41 1.18
3 -12 1 8.95 1.28
-3 -12 0 0.04 0.61
-3 -12 0 -0.02 0.51
3 -12 0 0.8 0.65
-3 -12 -1 9.77 1.2
-3 -12 -1 9.29 1.39
3 -12 -1 10.33 1.35
3 -12 -1 9.19 1.33
-3 -12 -2 -0.13 0.69
3 -12 -2 -0.23 0.71
3 -12 -2 -0.36 0.77
-3 -12 -3 68.68 3.28
3 -12 -3 66.09 3.16
3 -12 -3 67.54 2.88
-3 -12 -4 0.93 0.89
3 -12 -4 0.28 0.88
3 -12 -4 1.71 0.8
-3 -12 -5 9.59 1.75
3 -12 -5 8.26 1.34
3 -12 -5 12.3 1.93
-3 -12 -6 -0.04 0.92
3 -12 -6 0.81 1.06
3 -12 -7 0.14 1.27
-4 12 -7 17.35 2.17
4 12 -7 16.36 2.24
-4 12 -6 0.79 0.75
4 -12 6 0.06 0.8
4 12 -6 0.02 0.88
-4 12 -5 18.85 1.98
4 12 -5 16.43 1.94
4 -12 5 19.93 2.14
-4 -12 4 0.01 0.61
4 -12 4 1.06 0.72
4 12 -4 0.43 0.8
-4 -12 3 0.96 0.7
4 -12 3 1.39 0.78
-4 -12 2 0.16 0.47
4 -12 2 0.62 0.68
-4 -12 1 43 2.24
-4 -12 1 41.39 2.14
4 -12 1 43.21 2.38
-4 -12 0 0.29 0.55
-4 -12 0 0.25 0.62
4 -12 0 2.09 0.8
-4 -12 -1 44.59 2.44
4 -12 -1 45.29 2.35
-4 -12 -2 0.36 0.78
4 -12 -2 0.2 0.61
4 -12 -2 0.26 0.72
-4 -12 -3 -0.46 0.77
4 -12 -3 1.04 0.85
4 -12 -3 1.5 0.87
-4 -12 -4 0.28 0.76
4 -12 -4 0.2 0.73
4 -12 -4 -0.24 0.93
-4 -12 -5 19.38 2.27
4 -12 -5 17.2 1.83
4 -12 -5 17.35 2.13
-4 -12 -6 1.13 1.06
4 -12 -6 -1.55 0.91
4 -12 -7 13.38 2.19
-5 12 -7 1.25 0.98
5 12 -7 1.16 1.06
-5 12 -6 0.38 0.77
5 -12 6 -0.12 0.79
5 12 -6 0.51 0.85
-5 12 -5 2.65 0.99
5 -12 5 1.62 0.88
5 12 -5 0.51 0.79
-5 -12 4 0.91 0.65
5 -12 4 1.11 0.87
5 12 -4 0.75 0.76
-5 -12 3 13.25 1.5
5 -12 3 15.15 1.74
-5 -12 2 1.51 0.67
-5 -12 2 1.7 0.77
5 -12 2 0.43 0.71
-5 -12 1 0.51 0.63
5 -12 1 1.42 0.78
-5 -12 0 0.08 0.62
5 -12 0 -0.72 0.55
-5 -12 -1 1.63 0.89
5 -12 -1 1.32 0.75
-5 -12 -2 2.97 1.04
5 -12 -2 1.07 0.74
5 -12 -2 2.02 0.95
-5 -12 -3 15.97 1.92
5 -12 -3 16.3 1.71
5 -12 -3 12 1.76
-5 -12 -4 1.38 0.98
5 -12 -4 0.09 0.64
5 -12 -4 0.43 0.94
-5 -12 -5 1.51 1.03
5 -12 -5 0.23 0.9
5 -12 -5 1.14 1.03
-5 -12 -6 0.53 1.12
5 -12 -6 -0.7 1
5 -12 -7 -0.84 1.12
-6 12 -7 49.65 3.14
6 12 -7 49.81 3.34
-6 12 -6 1.83 0.98
6 -12 6 5.12 1.32
6 12 -6 4.33 1.31
-6 12 -5 15.18 1.87
6 -12 5 19.95 2.15
6 12 -5 18.46 2.16
-6 -12 4 0.08 0.57
6 -12 4 -0.15 0.71
6 12 -4 -0.58 0.64
-6 -12 3 0.26 0.44
6 12 -3 0.44 0.6
6 -12 3 0.33 0.61
-6 -12 2 0.35 0.61
6 -12 2 2.07 0.8
-6 -12 1 51.67 2.51
6 -12 1 51.24 2.56
-6 -12 0 -0.41 0.53
6 -12 0 0.03 0.6
-6 -12 -1 49.75 2.64
6 -12 -1 45.32 2.42
-6 -12 -2 2.34 0.92
6 -12 -2 2.96 0.9
-6 -12 -3 1.9 1.06
6 -12 -3 -0.84 0.61
6 -12 -3 1.02 0.9
-6 -12 -4 -0.25 0.79
6 -12 -4 -0.57 0.65
6 -12 -4 -0.6 0.8
-6 -12 -5 19.97 2.37
6 -12 -5 21.05 2.38
6 -12 -5 16.98 1.93
-6 -12 -6 3.97 1.46
6 -12 -6 4.51 1.5
6 -12 -7 39.66 3.8
-7 12 -7 -0.57 0.93
7 12 -7 0.39 1.03
-7 12 -6 -0.02 0.88
7 12 -6 0.67 0.88
7 -12 6 -0.05 0.76
-7 12 -5 0.55 0.71
7 -12 5 -0.04 0.78
7 12 -5 1.09 0.79
7 -12 4 0.51 0.78
7 12 -4 0.61 0.79
7 12 -3 3.28 0.96
7 -12 3 2.96 0.97
-7 -12 2 3.38 0.89
7 -12 2 2.07 0.89
-7 -12 1 0.29 0.63
7 -12 1 0.05 0.59
-7 -12 0 -0.44 0.62
7 -12 0 0.46 0.7
-7 -12 -1 -1.01 0.63
7 -12 -1 0.26 0.69
-7 -12 -2 5.29 1.26
7 -12 -2 1.49 0.85
-7 -12 -3 4.12 1.14
7 -12 -3 2.44 0.88
7 -12 -3 2.2 1.08
-7 -12 -4 -0.01 0.91
7 -12 -4 0.59 0.93
7 -12 -4 0.85 0.76
-7 -12 -5 1.38 1.03
7 -12 -5 0.49 0.87
7 -12 -5 1.34 1.13
-7 -12 -6 0.01 0.97
7 -12 -6 1.14 1.27
-8 12 -6 2.6 1.12
8 -12 6 2.64 1
8 12 -6 2.81 1.08
8 12 -5 16.81 2.14
8 -12 5 12.62 1.79
8 12 -4 1.36 0.8
8 -12 4 0 0.76
-8 -12 3 0.72 0.64
8 12 -3 0.53 0.75
8 -12 3 0.82 0.72
-8 -12 2 -0.49 0.54
8 -12 2 -0.32 0.63
-8 -12 1 56.87 2.68
8 -12 1 55.98 2.75
-8 -12 0 2.83 0.94
8 -12 0 5.23 1.15
-8 -12 -1 55.88 2.84
8 -12 -1 54.78 2.69
-8 -12 -2 0.16 0.73
8 -12 -2 0.33 0.69
-8 -12 -3 -0.67 0.68
8 -12 -3 0.09 0.66
8 -12 -3 0.2 0.84
-8 -12 -4 0.91 0.95
8 -12 -4 0.29 0.91
8 -12 -4 0.39 0.76
-8 -12 -5 12.04 1.85
8 -12 -5 17.55 2
8 -12 -5 14.67 2.04
-8 -12 -6 0.86 1.04
8 -12 -6 1.77 1.32
-9 12 -6 0.72 0.82
9 12 -6 -0.97 0.86
9 -12 6 -0.24 0.76
9 12 -5 0.3 0.82
9 -12 5 3.78 1.21
9 -12 4 0.12 0.74
9 12 -4 1.31 0.76
-9 -12 3 22.97 1.77
9 12 -3 27.67 2.49
9 -12 3 25.86 2.25
-9 -12 2 0.02 0.64
9 -12 2 2.47 0.88
-9 -12 1 0.55 0.63
9 -12 1 1.06 0.82
-9 -12 0 0.26 0.61
9 -12 0 -0.63 0.61
-9 -12 -1 0.48 0.75
9 -12 -1 1.18 0.77
-9 -12 -2 0.95 0.79
9 -12 -2 1.25 0.82
-9 -12 -3 25.39 2.41
9 -12 -3 23.31 2.12
-9 -12 -4 0.88 0.95
9 -12 -4 1.4 0.85
9 -12 -4 -1.35 0.81
-9 -12 -5 2.03 1.14
9 -12 -5 0.59 1.14
9 -12 -5 2.5 1.07
-9 -12 -6 0.28 1.03
9 -12 -6 -0.8 1
-10 12 -6 1.1 1.04
10 -12 6 -0.04 0.95
10 12 -6 1.28 1.04
10 12 -5 5.51 1.33
10 -12 5 6.54 1.35
10 12 -4 -1.59 0.64
10 -12 4 0.47 0.94
-10 -12 3 0.18 0.58
10 -12 3 1.95 0.86
10 12 -3 1.03 0.88
-10 -12 2 0.94 0.67
10 -12 2 1.36 0.84
-10 -12 1 10.71 1.45
10 -12 1 11.45 1.54
-10 -12 0 3.24 1
10 -12 0 2.59 1
-10 -12 -1 11.59 1.61
10 -12 -1 8.64 1.4
-10 -12 -2 2.2 1.03
10 -12 -2 0.05 0.7
-10 -12 -3 -0.64 0.77
10 -12 -3 0.5 0.73
-10 -12 -4 0.13 0.95
10 -12 -4 0.03 0.91
10 -12 -4 0.54 0.76
-10 -12 -5 9.86 1.81
10 -12 -5 8.51 1.65
10 -12 -5 3.83 1.35
-10 -12 -6 2.89 1.33
10 -12 -6 0.16 1.09
-11 12 -6 0.99 0.99
11 12 -6 -0.07 0.9
11 12 -5 17.59 2.15
11 -12 5 15.81 2.03
11 -12 4 0.89 0.85
11 12 -4 0.96 0.92
-11 -12 3 43.48 2.45
11 12 -3 48.26 2.77
11 -12 3 47.29 2.74
-11 -12 2 0.34 0.64
11 -12 2 0.19 0.74
-11 -12 1 6.14 1.19
11 -12 1 5.82 1.19
-11 -12 0 0.04 0.61
11 -12 0 0.34 0.68
-11 -12 -1 7.93 1.38
11 -12 -1 7.51 1.35
-11 -12 -2 -1 0.68
11 -12 -2 0.75 0.89
-11 -12 -3 47.64 2.85
11 -12 -3 40.1 2.5
-11 -12 -4 0.72 0.86
11 -12 -4 1.17 0.83
-11 -12 -5 12 1.92
11 -12 -5 13.2 1.86
11 -12 -5 13.84 2.01
11 -12 -6 0.47 1.14
-12 12 -6 2.41 1.21
12 12 -6 2.75 1.23
12 -12 5 1.07 1
12 12 -5 0.13 0.9
12 -12 4 0.53 0.85
12 12 -4 -0.32 0.85
-12 -12 3 0.94 0.74
12 -12 3 0.45 0.8
12 12 -3 2.02 1
-12 -12 2 1.41 0.86
12 -12 2 2.4 1.01
-12 -12 1 -0.29 0.63
12 -12 1 -0.2 0.65
-12 -12 0 6.91 1.29
12 -12 0 10.6 1.52
-12 -12 -1 1.23 0.77
12 -12 -1 1.13 0.88
-12 -12 -2 0.12 0.86
12 -12 -2 2.07 1.03
-12 -12 -3 1.68 0.97
12 -12 -3 0.56 0.75
-12 -12 -4 -0.38 0.77
12 -12 -4 -0.06 0.8
-12 -12 -5 2.26 1.09
12 -12 -5 1.12 1
12 -12 -5 0.39 1.05
12 -12 -6 2.97 1.51
13 12 -6 1.2 1
13 12 -5 10 1.87
13 -12 5 9.31 1.63
13 -12 4 0.84 0.99
13 12 -4 3.38 1.18
-13 -12 3 50.22 2.68
13 -12 3 50.47 2.85
13 12 -3 45.32 2.78
-13 -12 2 0.63 0.7
13 -12 2 0.48 0.75
-13 -12 1 10.91 1.54
13 -12 1 8.74 1.43
-13 -12 0 -0.27 0.6
13 -12 0 0.59 0.73
-13 -12 -1 7.94 1.49
13 -12 -1 8.71 1.42
-13 -12 -2 -0.71 0.68
13 -12 -2 -0.23 0.8
-13 -12 -3 47.33 2.95
13 -12 -3 47.15 2.71
-13 -12 -4 1.69 0.97
13 -12 -4 1.76 0.98
-13 -12 -5 11 2.01
13 -12 -5 11.99 1.83
13 -12 -5 10.27 1.94
14 12 -5 1.32 1.15
14 -12 5 2.27 1.13
14 12 -4 -0.51 0.81
14 -12 4 0.43 0.99
-14 -12 3 0.64 0.82
14 -12 3 0.59 0.86
14 12 -3 0.64 0.89
-14 -12 2 1.43 0.82
14 -12 2 0.34 0.74
14 12 -2 0.51 0.86
-14 -12 1 3.6 1.06
14 -12 1 5.21 1.26
-14 -12 0 0.56 0.72
14 -12 0 0.18 0.7
-14 -12 -1 3.47 1.12
14 -12 -1 3.4 1.04
-14 -12 -2 1.12 0.87
14 -12 -2 0.17 0.79
-14 -12 -3 1.42 0.96
14 -12 -3 0.76 0.83
-14 -12 -4 0.63 0.93
14 -12 -4 0.79 0.88
-14 -12 -5 2.88 1.22
14 -12 -5 2.1 1.11
15 12 -5 1.77 1.22
15 -12 4 0.69 0.95
15 12 -4 -0.63 0.77
-15 -12 3 26.15 2.41
15 -12 3 23.05 2.32
15 12 -3 26.29 2.59
-15 -12 2 1.11 0.84
15 12 -2 0.33 0.84
15 -12 2 0.99 0.93
-15 -12 1 8.45 1.43
15 -12 1 5.27 1.17
-15 -12 0 0.45 0.72
15 -12 0 -0.41 0.71
-15 -12 -1 6.23 1.27
15 -12 -1 6.91 1.3
-15 -12 -2 0.52 0.91
15 -12 -2 1.05 0.89
-15 -12 -3 24.58 2.53
15 -12 -3 29.32 2.27
-15 -12 -4 1.09 0.93
15 -12 -4 -0.5 0.8
16 12 -5 6.81 1.65
16 -12 4 0 0.86
16 12 -4 0.2 0.93
16 12 -3 0.69 0.93
16 -12 3 -0.21 0.84
-16 -12 2 -0.36 0.73
16 12 -2 1.13 0.96
16 -12 2 1.16 0.85
-16 -12 1 22.44 2.22
16 -12 1 21 2.07
-16 -12 0 0.47 0.82
16 -12 0 1.5 1.01
-16 -12 -1 18.49 2.07
16 -12 -1 16.89 2.04
-16 -12 -2 -0.34 0.79
16 -12 -2 0.06 0.79
-16 -12 -3 -0.54 0.8
16 -12 -3 0.81 0.85
-16 -12 -4 1.23 1.07
16 -12 -4 -0.16 0.86
17 12 -4 0.69 0.99
17 -12 4 1 1.09
17 12 -3 2.16 1.14
17 -12 3 0.34 0.91
-17 -12 2 1.77 0.87
17 12 -2 2.39 1.06
17 -12 2 0.74 0.8
-17 -12 1 5.06 1.2
17 -12 1 4.99 1.2
-17 -12 0 0.29 0.72
17 -12 0 -0.83 0.78
-17 -12 -1 5.49 1.3
17 -12 -1 4.38 1.18
-17 -12 -2 0.64 0.86
17 -12 -2 0.68 0.87
-17 -12 -3 1.21 1.01
17 -12 -3 3.83 1.04
17 -12 -4 2.19 1.16
18 12 -4 1.38 1.11
18 12 -3 0.97 1.11
18 -12 3 -0.35 0.84
-18 -12 2 -0.59 0.67
18 12 -2 0.16 0.77
18 -12 2 -0.69 0.8
-18 -12 1 9.32 1.56
18 -12 1 8.24 1.48
-18 -12 0 0.5 0.81
18 -12 0 0.15 0.8
-18 -12 -1 9.67 1.63
18 -12 -1 11.71 1.8
-18 -12 -2 1.5 0.98
18 -12 -2 -0.09 0.78
-18 -12 -3 0.28 0.91
18 -12 -3 0.18 0.86
19 12 -3 3.5 1.31
19 -12 3 2.32 1.21
-19 -12 2 0.86 0.9
19 -12 2 2.37 1.13
19 12 -2 -0.27 0.89
-19 -12 1 -0.08 0.73
19 -12 1 0 0.79
-19 -12 0 1.23 0.92
19 -12 0 -0.38 0.83
-19 -12 -1 -0.06 0.8
19 -12 -1 -0.41 0.85
-19 -12 -2 0.51 0.94
19 -12 -2 1.13 0.99
20 12 -3 0.38 1.05
-20 -12 2 1.77 0.96
20 12 -2 1.49 1.09
20 -12 2 -0.57 0.92
-20 -12 1 16.73 2.13
20 -12 1 18.53 2.1
-20 -12 0 5.01 1.3
20 -12 0 6.19 1.33
-20 -12 -1 16.01 2.03
20 -12 -1 15.56 1.88
20 -12 -2 1.44 1.08
21 12 -2 1.34 1.02
21 -12 0 -0.17 0.92
0 13 -6 -1.93 0.82
0 -13 5 0.07 0.73
0 -13 4 55.55 2.91
0 -13 3 -0.03 0.71
0 -13 2 47.32 2.53
0 -13 1 -0.13 0.61
0 -13 0 0.29 0.59
0 -13 -1 0.99 0.72
0 -13 -1 0.28 0.62
0 -13 -2 47.02 2.71
0 -13 -2 41.69 2.31
0 -13 -3 0.7 0.95
0 -13 -4 55.7 3.25
0 -13 -5 0.19 0.98
0 -13 -6 2.86 1.3
-1 13 -6 5.32 1.43
1 13 -6 5.5 1.46
-1 -13 5 5.41 1.28
1 -13 5 6.42 1.33
-1 -13 4 -0.1 0.67
1 -13 4 -0.73 0.68
-1 -13 3 0.96 0.74
1 -13 3 -0.23 0.62
-1 -13 2 -0.38 0.59
1 -13 2 0.11 0.67
-1 -13 1 10.42 1.36
1 -13 1 9.55 1.37
-1 -13 0 8.36 1.22
1 -13 0 6 1.12
-1 -13 -1 10.21 1.35
-1 -13 -1 11.67 1.61
1 -13 -1 9.05 1.36
-1 -13 -2 0.78 0.83
1 -13 -2 0.6 0.66
1 -13 -2 0.36 0.7
-1 -13 -3 1.27 0.97
1 -13 -3 2.42 1.07
1 -13 -3 -0.79 0.66
-1 -13 -4 0.9 1.01
1 -13 -4 0.27 1
-1 -13 -5 4.59 1.49
1 -13 -5 8.09 1.72
-1 -13 -6 10.68 2.06
1 -13 -6 10.53 1.99
-2 13 -6 3.22 1.21
2 13 -6 1.73 1.18
2 -13 6 2.56 1.07
-2 -13 5 0.25 0.77
2 -13 5 0.95 0.84
2 13 -5 -0.71 0.81
-2 -13 4 53.06 2.76
2 -13 4 51.25 2.85
-2 -13 3 0.62 0.71
2 -13 3 0.25 0.7
-2 -13 2 29.77 2.03
2 -13 2 33.47 2.23
-2 -13 1 0.56 0.65
2 -13 1 -0.12 0.62
-2 -13 0 -0.5 0.63
-2 -13 0 0.41 0.6
2 -13 0 0.86 0.67
-2 -13 -1 0.35 0.69
2 -13 -1 -0.01 0.61
-2 -13 -2 28.09 2.21
2 -13 -2 26.2 1.92
2 -13 -2 30.46 2.21
-2 -13 -3 1.24 0.97
2 -13 -3 0.28 0.71
2 -13 -3 1.11 0.88
-2 -13 -4 50.02 3.07
2 -13 -4 50.04 2.64
2 -13 -4 47.71 3.01
-2 -13 -5 1.09 1.14
2 -13 -5 -0.55 0.83
-2 -13 -6 2.69 1.51
2 -13 -6 3.75 1.45
-3 13 -6 26.72 2.55
3 13 -6 24.21 2.58
3 -13 6 28.68 2.84
-3 -13 5 0.03 0.71
3 13 -5 -0.94 0.76
3 -13 5 0.78 0.88
-3 -13 4 0.47 0.72
3 -13 4 0.65 0.77
-3 -13 3 2.02 0.81
3 -13 3 1.13 0.8
-3 -13 2 2.72 0.83
3 -13 2 0.97 0.8
-3 -13 1 5.75 1.1
3 -13 1 3.57 0.96
-3 -13 0 55.85 2.7
3 -13 0 50.28 2.62
-3 -13 -1 5.53 1.16
3 -13 -1 4.3 1.06
-3 -13 -2 3.11 1.02
3 -13 -2 4.02 1.13
3 -13 -2 1.61 0.92
-3 -13 -3 0.87 1.02
3 -13 -3 2.36 0.91
3 -13 -3 -0.61 0.79
-3 -13 -4 0.87 0.95
3 -13 -4 1.68 1.12
3 -13 -4 1.11 0.82
-3 -13 -5 1.02 1.03
3 -13 -5 -0.43 0.96
3 -13 -5 -0.68 0.71
3 -13 -6 22.21 2.67
4 13 -6 0.61 0.96
4 -13 5 4.72 1.2
4 13 -5 3.76 1.15
-4 -13 4 7.63 1.24
4 -13 4 9.46 1.5
-4 -13 3 1.14 0.75
4 -13 3 1.09 0.91
-4 -13 2 7.26 1.23
4 -13 2 7.29 1.34
4 -13 1 1.83 0.79
-4 -13 0 -0.32 0.65
4 -13 0 0.54 0.67
-4 -13 -1 1.84 0.87
4 -13 -1 2.44 0.92
-4 -13 -2 11.57 1.65
4 -13 -2 5.86 1.14
-4 -13 -3 3.71 1.14
4 -13 -3 1.02 0.99
4 -13 -3 0.83 0.82
-4 -13 -4 7.94 1.57
4 -13 -4 7.4 1.4
4 -13 -4 6.86 1.46
-4 -13 -5 5.41 1.49
4 -13 -5 4.29 1.13
4 -13 -5 4.63 1.49
4 -13 -6 3.23 1.53
4 -13 -6 3.41 1.13
5 13 -6 37.78 2.85
5 -13 5 -0.12 0.83
5 13 -5 0.47 0.86
-5 -13 4 6.8 1.24
5 -13 4 12.3 1.7
5 -13 3 1.67 0.88
5 -13 2 15.51 1.82
-5 -13 1 0.13 0.66
5 -13 1 0.74 0.7
-5 -13 0 81.25 3.31
5 -13 0 76.07 3.26
-5 -13 -1 0.37 0.8
5 -13 -1 0.34 0.7
-5 -13 -2 17.14 1.95
5 -13 -2 16.43 1.8
-5 -13 -3 1.6 1.02
5 -13 -3 0.18 0.93
5 -13 -3 1.21 0.82
-5 -13 -4 10.44 1.78
5 -13 -4 13.62 1.7
5 -13 -4 12.44 1.9
-5 -13 -5 0.44 1.12
5 -13 -5 0.24 1.11
5 -13 -5 0.11 0.82
5 -13 -6 38.16 2.61
5 -13 -6 38.26 3.02
6 13 -6 -0.23 0.91
6 -13 5 1.03 0.87
6 13 -5 2.28 1.06
6 -13 4 0.58 0.82
6 -13 3 0.83 0.76
6 -13 2 2.43 1.01
-6 -13 1 4.63 1.02
6 -13 1 1.69 0.93
-6 -13 0 1.34 0.79
6 -13 0 -0.14 0.6
-6 -13 -1 7.12 1.39
6 -13 -1 7.54 1.34
-6 -13 -2 2.53 1
6 -13 -2 2.31 0.93
-6 -13 -3 2.69 1.13
6 -13 -3 0.49 0.85
-6 -13 -4 1.14 1
6 -13 -4 0.01 0.83
6 -13 -4 0.51 0.98
-6 -13 -5 1.14 1.07
6 -13 -5 3.69 1.08
6 -13 -5 1.56 1.16
6 -13 -6 1.13 0.94
7 -13 5 0.73 0.96
7 13 -5 0.58 0.9
7 -13 4 3.06 1.05
7 -13 3 0.21 0.75
7 -13 2 15.9 1.8
-7 -13 1 1.59 0.77
7 -13 1 0.99 0.75
-7 -13 0 34.62 2.29
7 -13 0 39.33 2.43
-7 -13 -1 0.13 0.78
7 -13 -1 2.13 0.96
-7 -13 -2 18.25 2.01
7 -13 -2 15.69 1.84
-7 -13 -3 -1.06 0.68
7 -13 -3 -0.57 0.73
-7 -13 -4 4.02 1.26
7 -13 -4 1.85 1.02
7 -13 -4 2.33 1.28
-7 -13 -5 -0.59 0.98
7 -13 -5 0.85 1.09
7 -13 -5 2.56 1.09
8 -13 5 4.12 1.25
8 13 -5 3.07 1.21
8 -13 4 4.01 1.16
8 -13 3 2.81 0.99
-8 -13 2 3.61 0.97
8 -13 2 4.49 1.17
-8 -13 1 2.22 0.92
8 -13 1 2.1 0.88
-8 -13 0 0.14 0.66
8 -13 0 0.49 0.74
-8 -13 -1 2.77 1
8 -13 -1 1.41 0.88
-8 -13 -2 3.98 1.22
8 -13 -2 2.1 0.87
-8 -13 -3 1.58 1.13
8 -13 -3 2.08 0.98
-8 -13 -4 4.98 1.32
8 -13 -4 2.49 1.08
8 -13 -4 4.49 1.43
-8 -13 -5 6.59 1.6
8 -13 -5 3.1 1.31
8 -13 -5 3.86 1.15
9 13 -5 -0.46 0.93
9 -13 4 -0.72 0.74
9 -13 3 0.27 0.84
-9 -13 2 5.11 1.09
9 -13 2 7.44 1.39
-9 -13 1 1.32 0.8
9 -13 1 2.01 0.85
-9 -13 0 27.33 2.12
9 -13 0 26.81 2.39
-9 -13 -1 -0.59 0.64
9 -13 -1 2.25 0.97
-9 -13 -2 8.82 1.57
9 -13 -2 8.44 1.46
-9 -13 -3 1.4 0.98
9 -13 -3 0.86 0.84
-9 -13 -4 0.22 0.92
9 -13 -4 1.14 0.91
-9 -13 -5 1.95 1.33
9 -13 -5 0.45 0.95
9 -13 -5 -0.58 0.97
10 13 -5 7.17 1.63
10 -13 4 12.93 1.79
10 13 -4 15.27 2.01
10 -13 3 2.12 1.05
-10 -13 2 16.14 1.77
10 -13 2 21.59 2.19
-10 -13 1 0.66 0.74
10 -13 1 -0.33 0.64
-10 -13 0 -0.25 0.73
10 -13 0 1.2 0.85
-10 -13 -1 0.07 0.78
10 -13 -1 -0.17 0.71
-10 -13 -2 16.47 2.09
10 -13 -2 15.79 1.94
-10 -13 -3 3.05 1.24
10 -13 -3 2.84 1.17
-10 -13 -4 15.39 2.09
10 -13 -4 12.54 1.74
10 -13 -5 6.7 1.41
10 -13 -5 4.99 1.58
11 13 -5 -0.06 0.94
11 13 -4 0.99 0.97
11 -13 4 0.71 0.93
-11 -13 3 0.52 0.77
11 -13 3 0.07 0.86
-11 -13 2 1.92 0.9
11 -13 2 1.83 1.03
-11 -13 1 1.5 0.94
11 -13 1 2.92 1.01
-11 -13 0 5.16 1.2
11 -13 0 4.89 1.15
-11 -13 -1 2.79 1.09
11 -13 -1 2.59 1.04
-11 -13 -2 0.91 0.89
11 -13 -2 0.53 0.85
-11 -13 -3 2.26 1.08
11 -13 -3 -0.63 0.82
-11 -13 -4 -0.09 0.99
11 -13 -4 1.15 1.01
11 -13 -5 0.81 1
12 13 -4 22.18 2.47
12 -13 4 21.54 2.35
-12 -13 3 1.58 0.84
12 -13 3 2.73 1.17
-12 -13 2 23.43 2.24
12 -13 2 16.1 2.01
-12 -13 1 0.76 0.79
12 -13 1 1.79 0.92
-12 -13 0 -0.14 0.72
12 -13 0 -0.16 0.71
-12 -13 -1 1.31 0.91
12 -13 -1 1.62 0.96
-12 -13 -2 23.32 2.34
12 -13 -2 23.12 2.35
-12 -13 -3 2.57 1.12
12 -13 -3 0.61 0.96
-12 -13 -4 17.62 2.25
12 -13 -4 18.04 2.2
13 13 -4 -0.05 0.96
-13 -13 3 0.38 0.79
13 -13 3 2.45 1.11
-13 -13 2 2.06 0.9
13 -13 2 0.86 0.93
-13 -13 1 0.23 0.71
13 -13 1 2.2 0.94
-13 -13 0 -0.15 0.73
13 -13 0 -0.14 0.77
-13 -13 -1 0.93 0.9
13 -13 -1 1.96 0.96
-13 -13 -2 2.21 1.03
13 -13 -2 2.56 1.04
-13 -13 -3 0.13 0.95
13 -13 -3 0.31 0.9
13 -13 -4 0.68 0.94
14 13 -4 7.82 1.64
-14 -13 3 1.29 0.86
14 -13 3 0.29 0.88
-14 -13 2 19.28 2.1
14 -13 2 16.98 2.01
-14 -13 1 0.67 0.88
14 -13 1 1.26 0.95
-14 -13 0 -1.13 0.69
14 -13 0 -0.13 0.79
-14 -13 -1 1.98 1.1
14 -13 -1 1.19 0.9
-14 -13 -2 14.49 2.05
14 -13 -2 15.8 2.01
-14 -13 -3 -0.4 0.8
14 -13 -3 -0.61 0.91
-15 -13 3 3.34 1.1
-15 -13 2 0.91 0.88
15 -13 2 0.18 0.83
-15 -13 1 1.31 0.92
15 -13 1 2.51 1.01
-15 -13 0 3.96 1.22
15 -13 0 2.77 1.17
-15 -13 -1 3.69 1.26
15 -13 -1 2.55 1.09
-15 -13 -2 0.66 0.93
15 -13 -2 0.98 0.88
-15 -13 -3 4.78 1.53
15 -13 -3 4.35 1.48
-16 -13 2 7.63 1.49
16 -13 2 4.49 1.28
-16 -13 1 0.96 0.87
16 -13 1 0 0.81
-16 -13 0 -0.46 0.8
16 -13 0 -0.39 0.78
-16 -13 -1 -0.98 0.75
16 -13 -1 0.7 0.96
-16 -13 -2 4.29 1.26
16 -13 -2 5.05 1.26
-17 -13 2 1.04 0.93
-17 -13 1 1.43 1.01
17 -13 1 1.37 1.09
-17 -13 0 9.55 1.64
17 -13 0 11.17 1.79
-17 -13 -1 1.88 0.99
17 -13 -1 2.07 1.14
-18 -13 1 0.32 0.82
-18 -13 0 -0.14 0.95
0 -14 4 0.5 0.79
0 -14 3 0.44 0.75
0 -14 2 9.29 1.44
0 -14 1 -0.6 0.63
0 -14 0 0.4 0.66
0 -14 -1 0.33 0.69
0 -14 -2 6.95 1.42
0 -14 -3 0.29 0.85
0 -14 -4 2.08 1.22
-1 -14 4 0.63 0.85
1 -14 4 -0.77 0.78
-1 -14 3 30.57 2.23
1 -14 3 30.51 2.28
-1 -14 2 -0.15 0.74
1 -14 2 0.35 0.74
-1 -14 1 8.68 1.32
1 -14 1 6.57 1.28
-1 -14 0 0.61 0.82
1 -14 0 -1.29 0.62
1 -14 -1 8.19 1.39
-1 -14 -2 0.31 0.88
1 -14 -2 0.31 0.73
-1 -14 -3 35.08 2.65
1 -14 -3 26.74 2.58
-1 -14 -4 0.14 0.96
1 -14 -4 0.98 1.07
-2 -14 4 -0.62 0.66
2 -14 4 -0.5 0.84
-2 -14 3 -0.92 0.7
2 -14 3 -0.66 0.74
-2 -14 2 6.05 1.15
2 -14 2 6.37 1.3
2 -14 1 8.92 1.52
2 -14 0 1.01 0.84
2 -14 -1 10.01 1.44
-2 -14 -2 9.72 1.71
2 -14 -2 3.66 1.13
-2 -14 -3 0.45 0.98
2 -14 -3 -0.4 0.95
2 -14 -3 0.51 0.85
-2 -14 -4 0.37 1.02
2 -14 -4 2.12 1.09
-3 -14 4 3.47 1.07
3 -14 4 3.03 1.13
-3 -14 3 19.11 1.99
3 -14 3 16.68 1.92
3 -14 2 0.49 0.8
3 -14 1 1.39 0.9
3 -14 0 0.2 0.74
-3 -14 -1 1.69 0.98
3 -14 -1 1.45 0.79
-3 -14 -2 0.89 0.99
3 -14 -2 0.02 0.75
-3 -14 -3 20.05 2.32
3 -14 -3 20.72 2.11
3 -14 -3 22.89 2.6
-3 -14 -4 3.51 1.42
3 -14 -4 2.63 1.05
3 -14 -4 2.72 1.23
4 -14 4 1.43 1
4 -14 3 -0.94 0.74
4 -14 2 4.9 1.19
4 -14 1 27.27 2.19
4 -14 0 6.47 1.21
-4 -14 -1 23.64 2.28
4 -14 -1 26.64 2.37
-4 -14 -2 2.83 1.09
4 -14 -2 3.46 1.12
-4 -14 -3 1.57 1.03
4 -14 -3 -0.02 0.84
-4 -14 -4 3.04 1.28
4 -14 -4 2.21 1.01
4 -14 -4 0.7 1.07
5 -14 4 -0.6 0.78
5 -14 3 8.87 1.55
5 -14 2 1.01 0.87
5 -14 1 -0.81 0.72
-5 -14 0 0.53 0.8
5 -14 0 0.04 0.71
-5 -14 -1 0.48 0.88
5 -14 -1 1.87 0.89
-5 -14 -2 -0.04 0.77
5 -14 -2 1.26 0.91
-5 -14 -3 6.57 1.58
5 -14 -3 5.12 1.28
-5 -14 -4 3.59 1.32
5 -14 -4 -0.67 0.84
5 -14 -4 1.04 1.13
6 -14 4 0.52 0.96
6 -14 3 4.37 1.31
6 -14 2 2.16 1.05
6 -14 1 47.37 2.71
-6 -14 0 1.61 0.93
6 -14 0 0.42 0.84
-6 -14 -1 47.81 2.8
6 -14 -1 45.83 2.73
-6 -14 -2 2.51 1.14
6 -14 -2 1.68 0.99
-6 -14 -3 0 1.11
6 -14 -3 1.61 0.98
-6 -14 -4 2.07 1.14
6 -14 -4 0.58 0.98
7 -14 3 1.69 1.08
7 -14 2 8.47 1.58
7 -14 1 2.19 0.96
-7 -14 0 -1.12 0.64
7 -14 0 1.03 0.84
-7 -14 -1 0.94 0.89
7 -14 -1 0.92 0.91
-7 -14 -2 9.97 1.73
7 -14 -2 7.66 1.38
-7 -14 -3 0.98 1.05
7 -14 -3 1.03 1.01
-7 -14 -4 4.33 1.43
7 -14 -4 5.43 1.42
8 -14 3 1.24 0.93
8 -14 2 -1.24 0.79
-8 -14 1 17.32 1.93
8 -14 1 11.87 1.66
-8 -14 0 0.25 0.79
8 -14 0 0.62 0.9
-8 -14 -1 16.44 1.95
8 -14 -1 23.93 2.3
-8 -14 -2 1.09 0.98
8 -14 -2 1.02 0.87
-8 -14 -3 1.77 1.15
8 -14 -3 3.56 1.24
8 -14 -4 -1.25 0.89
9 -14 3 18.01 2.1
9 -14 2 13.57 1.9
-9 -14 1 -0.22 0.75
9 -14 1 -0.66 0.74
-9 -14 0 -0.24 0.76
9 -14 0 -0.3 0.8
-9 -14 -1 1.44 0.99
9 -14 -1 1.16 0.94
-9 -14 -2 9.81 1.74
9 -14 -2 14.76 1.91
-9 -14 -3 15.89 2.09
9 -14 -3 16.8 1.99
10 -14 2 -0.4 0.79
-10 -14 1 14.57 1.9
10 -14 1 14.01 1.96
-10 -14 0 1.82 1
10 -14 0 1.33 0.95
-10 -14 -1 11.29 1.71
10 -14 -1 12.75 1.76
-10 -14 -2 -0.63 0.89
10 -14 -2 0.53 0.9
-10 -14 -3 5.41 1.51
10 -14 -3 6.67 1.43
-11 -14 2 9.67 1.64
11 -14 2 6.6 1.48
-11 -14 1 6.19 1.3
11 -14 1 6.39 1.37
-11 -14 0 -0.34 0.79
11 -14 0 1.09 0.91
-11 -14 -1 5.65 1.42
11 -14 -1 5.07 1.34
-11 -14 -2 7.9 1.58
11 -14 -2 9.23 1.59
-12 -14 2 0.38 0.8
-12 -14 1 1.63 0.99
12 -14 1 2.41 1.17
-12 -14 0 1.83 0.99
12 -14 0 3.83 1.16
-12 -14 -1 4.76 1.3
12 -14 -1 1.82 1.1
-12 -14 -2 3.26 1.16
12 -14 -2 0.26 0.94
-13 -14 2 0.68 0.86
-13 -14 1 6.45 1.4
-13 -14 0 0.49 0.89
-13 -14 -1 6.76 1.51
-14 -14 1 0.87 0.92
-14 -14 0 12.23 1.81
-14 -14 -1 2.77 1.28
0 -15 2 2.55 1.07
0 -15 1 -0.54 0.75
1 -15 2 -0.06 0.92
1 -15 1 2.58 1.06
1 -15 0 0.66 0.87
2 -15 2 3.55 1.2
2 -15 1 2.32 1.07
2 -15 0 0.22 0.8
2 -15 -1 1.44 0.82
3 -15 2 1.09 0.96
3 -15 1 2.92 1.15
3 -15 0 13.35 1.72
3 -15 -1 0.83 0.93
-3 -15 -2 0.46 0.98
3 -15 -2 1.16 0.98
4 -15 2 2.29 1.11
4 -15 1 2.83 1.13
4 -15 0 0.17 0.89
4 -15 -1 1.64 0.96
-4 -15 -2 2.53 1.31
4 -15 -2 3.54 1.11
5 -15 1 -0.02 0.87
5 -15 0 5.2 1.31
5 -15 -1 0.02 0.83
5 -15 -2 2.62 1.11
6 -15 1 0.61 0.97
6 -15 0 -0.6 0.83
-6 -15 -1 1.44 1.08
6 -15 -1 3.25 1.03
7 -15 1 -0.34 0.96
7 -15 0 16.14 1.97
7 -15 -1 3.7 1.2
