#------------------------------------------------------------------------------
#$Date: 2017-10-26 01:44:16 +0300 (Thu, 26 Oct 2017) $
#$Revision: 202303 $
#$URL: file:///home/coder/svn-repositories/cod/cif/4/12/66/4126641.cif $
#------------------------------------------------------------------------------
#
# This file is available in the Crystallography Open Database (COD),
# http://www.crystallography.net/
#
# All data on this site have been placed in the public domain by the
# contributors.
#
data_4126641
loop_
_publ_author_name
'Martell, Jeffrey D.'
'Porter-Zasada, Leo B'
'Forse, Alexander C.'
'Siegelman, Rebecca L.'
'Gonzalez, Miguel I.'
'Oktawiec, Julia'
'Runcevski, Tomce'
'Xu, Jiawei'
'Srebro-Hooper, Monika'
'Milner, Phillip J.'
'Colwell, Kristen A.'
'Autschbach, Jochen'
'Reimer, Jeffrey A.'
'Long, Jeffrey R.'
_publ_section_title
;
 Enantioselective Recognition of Ammonium Carbamates in a Chiral
 Metal-Organic Framework.
;
_journal_name_full               'Journal of the American Chemical Society'
_journal_paper_doi               10.1021/jacs.7b09983
_journal_year                    2017
_chemical_formula_moiety         'C28 H34 N4 O10 Zn2'
_chemical_formula_sum            'C28 H34 N4 O10 Zn2'
_chemical_formula_weight         717.33
_chemical_name_common            Zn2(dobpdc)(dach-CO2)2
_space_group_crystal_system      trigonal
_space_group_IT_number           154
_space_group_name_Hall           'P 32 2"'
_space_group_name_H-M_alt        'P 32 2 1'
_symmetry_space_group_name_Hall  'P 32 2"'
_symmetry_space_group_name_H-M   'P 32 2 1'
_atom_sites_solution_hydrogens   geom
_atom_sites_solution_primary     'intrinsic phasing'
_atom_sites_solution_secondary   difmap
_audit_creation_date             2017-10-11
_audit_creation_method
;
Olex2 1.2
(compiled Aug 10 2017 17:28:52 for OlexSys, GUI svn.r5381)
;
_cell_angle_alpha                90
_cell_angle_beta                 90
_cell_angle_gamma                120
_cell_formula_units_Z            3
_cell_length_a                   20.6012(7)
_cell_length_b                   20.6012(7)
_cell_length_c                   6.8939(3)
_cell_measurement_reflns_used    9946
_cell_measurement_temperature    100(2)
_cell_measurement_theta_max      34.056
_cell_measurement_theta_min      2.845
_cell_volume                     2533.85(16)
_computing_cell_refinement       'SAINT v8.34A (Bruker, 2013)'
_computing_data_collection       'Bruker APEX3 Bruker-AXS, Madison WI'
_computing_data_reduction        'SAINT v8.34A (Bruker, 2013)'
_computing_molecular_graphics    'Olex2 (Dolomanov et al., 2009)'
_computing_publication_material  'Olex2 (Dolomanov et al., 2009)'
_computing_structure_refinement  'ShelXL (Sheldrick, 2015)'
_computing_structure_solution    'ShelXT (Sheldrick, 2015)'
_diffrn_ambient_temperature      100(2)
_diffrn_detector_area_resol_mean 10.42
_diffrn_measured_fraction_theta_full 0.999
_diffrn_measured_fraction_theta_max 0.999
_diffrn_measurement_device_type  'Bruker D8 with PHOTON 100 detector'
_diffrn_measurement_method       '\f and \w shutterless scans'
_diffrn_radiation_monochromator  'silicon 111'
_diffrn_radiation_type           synchrotron
_diffrn_radiation_wavelength     0.8856
_diffrn_reflns_av_R_equivalents  0.0684
_diffrn_reflns_av_unetI/netI     0.0409
_diffrn_reflns_Laue_measured_fraction_full 0.999
_diffrn_reflns_Laue_measured_fraction_max 0.999
_diffrn_reflns_limit_h_max       26
_diffrn_reflns_limit_h_min       -25
_diffrn_reflns_limit_k_max       26
_diffrn_reflns_limit_k_min       -26
_diffrn_reflns_limit_l_max       8
_diffrn_reflns_limit_l_min       -8
_diffrn_reflns_number            28152
_diffrn_reflns_point_group_measured_fraction_full 1.000
_diffrn_reflns_point_group_measured_fraction_max 1.000
_diffrn_reflns_theta_full        32.097
_diffrn_reflns_theta_max         34.076
_diffrn_reflns_theta_min         2.464
_diffrn_source
;
Advanced Light Source, station 11.3.1
;
_diffrn_standards_number         0
_exptl_absorpt_coefficient_mu    2.658
_exptl_absorpt_correction_T_max  0.879
_exptl_absorpt_correction_T_min  0.680
_exptl_absorpt_correction_type   multi-scan
_exptl_absorpt_process_details
;
SADABS-2014/2 (Bruker,2014) was used for absorption correction.
wR2(int) was 0.1467 before and 0.0949 after correction.
The Ratio of minimum to maximum transmission is 0.7739.
The \l/2 correction factor is Not present.
;
_exptl_crystal_colour            'pale yellow'
_exptl_crystal_colour_primary    'pale yellow'
_exptl_crystal_density_diffrn    1.410
_exptl_crystal_density_method    'not measured'
_exptl_crystal_description       prism
_exptl_crystal_F_000             1110
_exptl_crystal_size_max          0.107
_exptl_crystal_size_mid          0.05
_exptl_crystal_size_min          0.05
_refine_diff_density_max         0.804
_refine_diff_density_min         -0.996
_refine_diff_density_rms         0.122
_refine_ls_abs_structure_details
;
 Refined as an inversion twin.
;
_refine_ls_abs_structure_Flack   0.41(3)
_refine_ls_extinction_method     none
_refine_ls_goodness_of_fit_ref   1.182
_refine_ls_hydrogen_treatment    constr
_refine_ls_matrix_type           full
_refine_ls_number_parameters     236
_refine_ls_number_reflns         3597
_refine_ls_number_restraints     169
_refine_ls_restrained_S_all      1.186
_refine_ls_R_factor_all          0.0617
_refine_ls_R_factor_gt           0.0566
_refine_ls_shift/su_max          0.001
_refine_ls_shift/su_mean         0.000
_refine_ls_structure_factor_coef Fsqd
_refine_ls_weighting_details
'w=1/[\s^2^(Fo^2^)+(0.0577P)^2^+7.3863P] where P=(Fo^2^+2Fc^2^)/3'
_refine_ls_weighting_scheme      calc
_refine_ls_wR_factor_gt          0.1377
_refine_ls_wR_factor_ref         0.1401
_reflns_Friedel_coverage         0.845
_reflns_Friedel_fraction_full    1.000
_reflns_Friedel_fraction_max     1.000
_reflns_number_gt                3358
_reflns_number_total             3597
_reflns_threshold_expression     'I > 2\s(I)'
_cod_data_source_file            ja7b09983_si_001.cif
_cod_data_source_block           rls133s
_cod_original_cell_volume        2533.8(2)
_cod_database_code               4126641
_shelx_shelxl_version_number     2016/6
_shelx_space_group_comment
;
The symmetry employed for this shelxl refinement is uniquely defined
by the following loop, which should always be used as a source of
symmetry information in preference to the above space-group names.
They are only intended as comments.
;
_shelx_estimated_absorpt_t_max   0.879
_shelx_estimated_absorpt_t_min   0.764
_olex2_refinement_description
;
1. Twinned data refinement
 Scales: 0.59(3)
 0.41(3)
2. Fixed Uiso
 At 1.2 times of:
  All C(H) groups, All C(H,H) groups, All C(H,H,H,H) groups, All N(H,H)
  groups, All N(H,H,H,H,H,H) groups
3. Restrained distances
 C9B-C10B \\sim C9A-C10A \\sim C11-C10B \\sim C11-C10A \\sim C12A-C11 \\sim
C12B-C11 \\sim C13B-C12B ~
 C13A-C12A \\sim C14-C13B \\sim C14-C13A \\sim C9B-C14 \\sim C9A-C14
 with sigma of 0.02
 N1-C9B \\sim N1-C9A
 with sigma of 0.02
4. Rigid body (RIGU) restrains
 N1, N2, C11, C14, C9A, C10A, C12A, C13A
 with sigma for 1-2 distances of 0.004 and sigma for 1-3 distances of 0.004
 N1, N2, C11, C14, C9B, C10B, C12B, C13B
 with sigma for 1-2 distances of 0.004 and sigma for 1-3 distances of 0.004
5. Others
 Fixed Sof: H1B(0.47) H1A(0.53) H2BD(0.47) H2BE(0.47) H2BF(0.47) H2AA(0.53)
 H2AB(0.53) H2AC(0.53) H11A(0.53) H11B(0.53) H11C(0.47) H11D(0.47) H14A(0.53)
 H14B(0.53) H14C(0.47) H14D(0.47) C9A(0.53) H9A(0.53) C10A(0.53) H10A(0.53)
 C12A(0.53) H12A(0.53) H12B(0.53) C13A(0.53) H13A(0.53) H13B(0.53) C9B(0.47)
 H9B(0.47) C10B(0.47) H10B(0.47) C12B(0.47) H12C(0.47) H12D(0.47) C13B(0.47)
 H13C(0.47) H13D(0.47)
6.a Ternary CH refined with riding coordinates:
 C9A(H9A), C10A(H10A), C9B(H9B), C10B(H10B)
6.b Secondary CH2 refined with riding coordinates:
 C11(H11A,H11B), C11(H11C,H11D), C14(H14A,H14B), C14(H14C,H14D), C12A(H12A,
 H12B), C13A(H13A,H13B), C12B(H12C,H12D), C13B(H13C,H13D)
6.c Me refined with riding coordinates:
 N2(H2BD,H2BE,H2BF), N2(H2AA,H2AB,H2AC)
6.d Aromatic/amide H refined with riding coordinates:
 N1(H1B), N1(H1A), C3(H3), C5(H5), C6(H6)
;
_shelx_res_file
;
TITL rls133s_a.res in P3(2)21
    rls133s.res
    created by SHELXL-2016/6 at 20:19:06 on 11-Oct-2017
REM Old TITL RLS133S in P3(2)21
REM SHELXT solution in P3(2)21
REM R1 0.119, Rweak 0.060, Alpha 0.011, Orientation as input
REM Flack x = 0.382 ( 0.007 ) from Parsons' quotients
REM Formula found by SHELXT: C12 O6 Zn
CELL 0.8856 20.6012 20.6012 6.8939 90 90 120
ZERR 3 0.0007 0.0007 0.0003 0 0 0
LATT -1
SYMM -Y,+X-Y,0.667+Z
SYMM +Y-X,-X,0.333+Z
SYMM +Y,+X,-Z
SYMM -Y+X,-Y,0.333-Z
SYMM -X,-X+Y,0.667-Z
SFAC C H N O Zn
DISP C 0.006 0.003 18.6
DISP H 0 0 0.7
DISP N 0.01 0.005 33.8
DISP O 0.018 0.01 57.9
DISP Zn 0.035 2.098 10597.5
UNIT 84 102 12 30 6
EQIV $1 +X,+Y,-1+Z
EQIV $2 -Y+X,-Y,0.333-Z
SADI C9B C10B C9A C10A C11 C10B C11 C10A C12A C11 C12B C11 C13B C12B C13A =
 C12A C14 C13B C14 C13A C9B C14 C9A C14
SADI N1 C9B N1 C9A
RIGU N1 N2 C11 > C13A
RIGU N1 N2 C11 C14 C9B > C13B

L.S. 100
PLAN  20
SIZE 0.05 0.05 0.107
TEMP -173(2)
HTAB N1 O2_$1
HTAB N2 O3_$1
HTAB N2 O4_$1
HTAB N2 O5_$1
HTAB N2 O5_$2
HTAB
MORE -1
CONF
BOND $H
list 4
fmap 2
acta
TWIN -1 0 0 0 -1 0 0 0 -1 2
REM <olex2.extras>
REM <HklSrc "%./RLS133S.hkl">
REM </olex2.extras>

WGHT    0.057700    7.386300
BASF   0.40804
FVAR       0.41668
ZN1   5    0.616724    0.265307    0.629516    11.00000    0.02112    0.01710 =
         0.01433    0.00071   -0.00056    0.01034
O1    4    0.688502    0.251452    1.445462    11.00000    0.02172    0.01414 =
         0.02036   -0.00314   -0.00140    0.00943
O2    4    0.654728    0.287112    1.086759    11.00000    0.02822    0.01387 =
         0.01666    0.00244   -0.00005    0.00968
O3    4    0.621350    0.202951    0.852950    11.00000    0.04082    0.01960 =
         0.01357    0.00216   -0.00112    0.01715
O4    4    0.520992    0.170128    0.539247    11.00000    0.03053    0.04349 =
         0.05887   -0.02391   -0.00973    0.00795
O5    4    0.423287    0.068646    0.437081    11.00000    0.04904    0.04182 =
         0.09834   -0.01390    0.00295   -0.00608
N1    3    0.481575    0.169860    0.240466    11.00000    0.07278    0.08314 =
         0.03917   -0.00213    0.00136    0.04404
PART 2
AFIX  43
H1B   2    0.529158    0.199119    0.211085    10.47000   -1.20000
AFIX  43
PART 0
PART 1
H1A   2    0.523193    0.208534    0.197530    10.53000   -1.20000
AFIX   0
PART 0
N2    3    0.455266    0.086576   -0.119458    11.00000    0.04782    0.04322 =
         0.08645   -0.01090    0.00497    0.01912
PART 2
AFIX  33
H2BD  2    0.433384    0.041046   -0.178898    10.47000   -1.20000
H2BE  2    0.478521    0.123351   -0.209763    10.47000   -1.20000
H2BF  2    0.489566    0.089366   -0.031693    10.47000   -1.20000
AFIX  33
PART 0
PART 1
H2AA  2    0.500556    0.109128   -0.058745    10.53000   -1.20000
H2AB  2    0.426353    0.039523   -0.071119    10.53000   -1.20000
H2AC  2    0.462035    0.083894   -0.249028    10.53000   -1.20000
AFIX   0
PART 0
C1    1    0.665456    0.185622    1.359429    11.00000    0.01677    0.02084 =
         0.01296   -0.00084   -0.00186    0.00752
C2    1    0.645745    0.170404    1.162855    11.00000    0.01661    0.01447 =
         0.01107    0.00510    0.00452    0.00664
C3    1    0.620204    0.097685    1.090268    11.00000    0.01867    0.02277 =
         0.01302   -0.00183   -0.00176    0.00990
AFIX  43
H3    2    0.608512    0.088770    0.956141    11.00000   -1.20000
AFIX   0
C4    1    0.611312    0.038684    1.204444    11.00000    0.02090    0.01246 =
         0.02062   -0.00238    0.00158    0.00700
C5    1    0.631284    0.054369    1.399774    11.00000    0.02811    0.01645 =
         0.01749    0.00449   -0.00075    0.00979
AFIX  43
H5    2    0.626468    0.015222    1.482121    11.00000   -1.20000
AFIX   0
C6    1    0.658078    0.125843    1.477229    11.00000    0.02306    0.02418 =
         0.01607   -0.00016   -0.00424    0.01264
AFIX  43
H6    2    0.671543    0.134593    1.610417    11.00000   -1.20000
AFIX   0
C7    1    0.640495    0.223897    1.024581    11.00000    0.01621    0.02090 =
         0.01227    0.00162    0.00495    0.00754
C8    1    0.473706    0.132999    0.415256    11.00000    0.03737    0.04868 =
         0.06015   -0.01146    0.00007    0.01676
C11   1    0.342136    0.096432   -0.182975    11.00000    0.07055    0.05652 =
         0.06820   -0.00713   -0.01023    0.03156
PART 1
AFIX  23
H11A  2    0.311553    0.044304   -0.135642    10.53000   -1.20000
H11B  2    0.349468    0.094352   -0.324282    10.53000   -1.20000
AFIX  23
PART 0
PART 2
H11C  2    0.369380    0.140677   -0.268281    10.47000   -1.20000
H11D  2    0.322245    0.050107   -0.261422    10.47000   -1.20000
AFIX   0
PART 0
C14   1    0.364823    0.175866    0.183727    11.00000    0.07129    0.08008 =
         0.05685   -0.00075    0.00823    0.04858
PART 1
AFIX  23
H14A  2    0.395897    0.228744    0.142450    10.53000   -1.20000
H14B  2    0.356791    0.174709    0.325563    10.53000   -1.20000
AFIX  23
PART 0
PART 2
H14C  2    0.338741    0.132251    0.271585    10.47000   -1.20000
H14D  2    0.384271    0.221857    0.263370    10.47000   -1.20000
AFIX   0
PART 0
PART 1
C9A   1    0.403835    0.131149    0.131529    10.53000    0.05615    0.05828 =
         0.04377    0.01294   -0.00079    0.03737
AFIX  13
H9A   2    0.372697    0.078225    0.177204    10.53000   -1.20000
AFIX   0
C10A  1    0.416508    0.132094   -0.085102    10.53000    0.04913    0.05195 =
         0.05302    0.01348    0.01375    0.02580
AFIX  13
H10A  2    0.448687    0.184699   -0.131991    10.53000   -1.20000
AFIX   0
C12A  1    0.299001    0.138749   -0.147016    10.53000    0.07088    0.06295 =
         0.09784    0.00275   -0.02620    0.03742
AFIX  23
H12A  2    0.249859    0.113299   -0.213661    10.53000   -1.20000
H12B  2    0.328047    0.190850   -0.195614    10.53000   -1.20000
AFIX   0
C13A  1    0.288281    0.138066    0.075040    10.53000    0.09439    0.10724 =
         0.09645    0.00038   -0.01637    0.09175
AFIX  23
H13A  2    0.257511    0.085630    0.120012    10.53000   -1.20000
H13B  2    0.261001    0.164922    0.106555    10.53000   -1.20000
AFIX   0
PART 0
PART 2
C9B   1    0.431444    0.173809    0.086872    10.47000    0.05394    0.04009 =
         0.03778    0.01195    0.01554    0.01851
AFIX  13
H9B   2    0.459309    0.215883   -0.006769    10.47000   -1.20000
AFIX   0
C10B  1    0.392939    0.096999   -0.011171    10.47000    0.03149    0.03303 =
         0.04363    0.01049    0.01362    0.00269
AFIX  13
H10B  2    0.363893    0.055697    0.083627    10.47000   -1.20000
AFIX   0
C12B  1    0.279475    0.099497   -0.066629    10.47000    0.04891    0.05563 =
         0.07339    0.00620   -0.00584    0.01482
AFIX  23
H12C  2    0.238506    0.091528   -0.155971    10.47000   -1.20000
H12D  2    0.258638    0.058550    0.030284    10.47000   -1.20000
AFIX   0
C13B  1    0.308596    0.174456    0.036939    10.47000    0.09703    0.05437 =
         0.08660    0.00674   -0.00532    0.05737
AFIX  23
H13C  2    0.267348    0.177155    0.103040    10.47000   -1.20000
H13D  2    0.333312    0.216723   -0.055488    10.47000   -1.20000
AFIX   0
HKLF 4




REM  rls133s_a.res in P3(2)21
REM R1 =  0.0566 for    3358 Fo > 4sig(Fo)  and  0.0617 for all    3597 data
REM    236 parameters refined using    169 restraints

END

WGHT      0.0577      7.3863

REM Instructions for potential hydrogen bonds
HTAB N1 O2_$1
HTAB N2 O5_$2
HTAB N2 O3_$1
HTAB N2 O4_$1
HTAB N2 O3_$1
HTAB N2 O5_$2
HTAB N2 O4_$1
HTAB N2 O5_$1
HTAB C11 O5_$1
EQIV $9 -x+y+1, -x+1, z-5/3
HTAB C10A O1_$9
HTAB C9B O1_$9

REM Highest difference peak  0.804,  deepest hole -0.996,  1-sigma level  0.122
Q1    1   0.6132  0.2662  0.4992  11.00000  0.05    0.80
Q2    1   0.6616  0.3118  0.6575  11.00000  0.05    0.71
Q3    1   0.6818  0.2187  0.9612  11.00000  0.05    0.66
Q4    1   0.6282  0.2879  0.7355  11.00000  0.05    0.66
Q5    1   0.6247  0.3168  0.5785  11.00000  0.05    0.65
Q6    1   0.5697  0.2357  0.6208  11.00000  0.05    0.63
Q7    1   0.5885  0.2890  0.6601  11.00000  0.05    0.60
Q8    1   0.0000 -0.0381 -0.1667  10.50000  0.05    0.60
Q9    1   0.5941  0.2261  0.8331  11.00000  0.05    0.56
Q10   1   0.0127  0.0231 -0.2393  11.00000  0.05    0.56
Q11   1   0.1022 -0.0028 -0.1381  11.00000  0.05    0.53
Q12   1   0.5629  0.1420  0.2849  11.00000  0.05    0.52
Q13   1   0.1290  0.1290  0.0000  10.50000  0.05    0.51
Q14   1   0.6082  0.2163  0.6664  11.00000  0.05    0.51
Q15   1   0.0600  0.0003 -0.1448  11.00000  0.05    0.51
Q16   1   0.0875  0.0000 -0.3333  10.50000  0.05    0.50
Q17   1   0.4390  0.0800  0.0924  11.00000  0.05    0.48
Q18   1   0.4674  0.1206  0.5793  11.00000  0.05    0.45
Q19   1   0.6500  0.2432  0.5906  11.00000  0.05    0.45
Q20   1   0.0412  0.0479 -0.0785  11.00000  0.05    0.45
;
_shelx_res_checksum              99718
_shelx_hkl_file
;
   1   1   0 9468.95  549.35
   1   1   0 9999.00  548.25
  -2   1   0 9158.28  549.74
   1  -2   0 9835.82  547.95
  -2   1   0 9723.43  548.95
   2  -1   0 9203.38  550.24
   2  -1   0 9520.35  547.35
  -1   2   0 9882.81  549.15
  -1  -1   0 9872.01  548.45
  -1   2   0 8801.82  549.15
  -2   2   0 1849.11  122.29
  -2   0   0 2336.67  122.49
   0  -2   0 2216.58  122.89
   0   2   0 2154.88  122.79
   2  -2   0 2250.77  122.59
   2  -2   0 2059.29  122.49
  -2   0   0 1983.20  122.39
   0  -2   0 1919.31  122.39
   2  -2   0 2127.49  122.29
   0   2   0 1805.62  122.39
   2   0   0 1898.31  122.39
   2   1   0  313.47   21.20
  -3   1   0  332.07   21.40
   2  -3   0  328.97   21.30
  -3   1   0  387.56   21.70
  -3   2   0  373.86   21.80
   1  -3   0  376.26   22.90
   1   2   0  372.16   23.20
   2   1   0  407.26   23.10
   1  -3   0  313.77   21.30
  -3   1   0  323.97   21.20
   2  -3   0  342.37   21.90
   3  -2   0  364.16   21.70
  -2  -1   0  410.36   23.00
   3  -1   0  416.06   21.70
  -1   3   0  327.27   21.50
  -2  -1   0  361.96   21.50
  -2   3   0  334.37   21.40
   3  -2   0  366.86   22.00
  -1  -2   0  369.66   21.50
  -1   3   0  413.76   22.70
  -1  -2   0  383.46   23.20
  -2  -1   0  359.66   21.20
   3  -2   0  377.36   21.20
   3  -1   0  371.76   21.90
  -2   3   0  387.26   22.30
  -3   0   0 1978.70  116.89
  -3   3   0 2173.68  117.29
   3   0   0 1907.01  116.89
   0   3   0 2144.59  117.69
   0  -3   0 2095.69  117.79
   0  -3   0 1905.91  116.89
   3  -3   0 2063.39  116.79
  -3   3   0 1740.83  116.79
   3  -3   0 2150.98  117.29
   0   3   0 1900.11  116.99
  -3   0   0 1831.82  116.79
   3   0   0 2280.17  117.09
   3  -3   0 2051.29  117.19
   2   2   0 1041.50   57.49
   2  -4   0  822.42   56.39
  -4   2   0  826.22   55.89
  -4   2   0 1011.40   56.49
   2  -4   0  880.41   56.09
   2  -4   0 1125.69   57.59
  -2  -2   0 1070.39   57.69
   4  -2   0  973.60   56.59
  -2   4   0  883.91   56.19
   4  -2   0 1006.70   56.49
  -2   4   0 1096.29   57.29
  -2  -2   0  929.91   56.19
  -2  -2   0  927.51   55.99
   3  -4   0  806.02   44.60
   3  -4   0  879.61   45.10
   1   3   0  673.53   44.20
  -4   1   0  722.93   43.90
   3   1   0  671.83   43.90
  -4   1   0  861.11   44.30
  -4   1   0  691.33   43.70
  -4   3   0  814.22   44.40
   1  -4   0  868.71   45.70
  -4   3   0  656.43   43.70
   1  -4   0  681.03   43.90
   1   3   0  858.31   45.70
   3  -4   0  716.63   43.80
   4  -3   0  746.93   44.60
  -1   4   0  812.92   45.30
   4  -3   0  751.32   44.30
  -1   4   0  689.23   44.10
   4  -1   0  824.12   44.30
  -3  -1   0  736.03   44.00
  -1  -3   0  836.42   45.90
   4  -3   0  777.12   43.70
  -1  -3   0  671.13   43.90
  -3   4   0  756.02   44.80
  -3  -1   0  705.33   43.70
   4  -1   0  697.83   44.30
   4   0   0 6099.09  386.16
   0   4   0 5991.90  386.16
   0  -4   0 6208.38  386.16
  -4   0   0 6058.29  385.96
   0   4   0 7279.37  386.96
   0  -4   0 6990.30  387.06
  -4   0   0 6659.73  386.16
   4  -4   0 6750.82  386.06
   4  -4   0 6424.26  386.26
  -5   3   0 1060.89   69.79
   3  -5   0 1399.46   71.39
  -5   2   0 1063.79   69.79
  -5   2   0 1319.87   70.39
  -5   2   0 1117.59   69.99
   3  -5   0 1162.28   70.39
   2   3   0 1292.87   71.69
   3  -5   0 1067.39   69.89
  -5   3   0 1289.07   70.39
   2  -5   0 1374.56   71.79
   2  -5   0 1098.29   69.99
   5  -3   0 1280.67   70.49
  -3   5   0 1306.87   71.09
   5  -2   0 1191.98   70.49
   5  -3   0 1200.68   70.49
  -2  -3   0 1200.08   70.19
  -2  -3   0 1386.66   71.89
   5  -2   0 1318.77   70.39
  -2   5   0 1105.99   70.09
  -3  -2   0 1136.59   69.89
  -3  -2   0 1170.78   70.19
  -3   5   0 1104.69   70.09
  -2   5   0 1293.77   71.29
  -3  -2   0 1338.77   71.49
   1   4   0 1853.31  101.99
   4  -5   0 1751.52  100.99
  -5   1   0 1921.01  100.89
  -5   1   0 1651.03  100.49
   4   1   0 2004.80  101.89
   4  -5   0 2033.10  101.59
   1  -5   0 1835.52  101.99
  -5   4   0 1529.55  100.29
   4  -5   0 1697.83  100.39
   1   4   0 1601.94  100.69
   4   1   0 1592.24  100.49
  -5   4   0 1820.62  100.99
   1  -5   0 1579.14  100.49
  -5   1   0 1610.84  100.29
   5  -4   0 1760.32  100.99
  -4   5   0 1598.04  100.49
   5  -4   0 1859.11  100.99
  -4  -1   0 1745.43  100.59
   5  -1   0 1945.61  100.89
   5  -1   0 1657.43  100.69
  -1   5   0 1566.54  100.59
  -4   5   0 1924.81  101.29
  -1   5   0 1897.21  101.79
  -1  -4   0 1708.93  100.59
   5  -4   0 1847.52  100.39
  -1  -4   0 1905.91  102.19
  -4  -1   0 1681.03  100.29
   5   0   0  122.79    9.70
   5  -5   0  126.49   12.50
   5  -5   0  119.29    8.90
  -5   0   0  104.09    8.40
  -5   5   0  107.89   11.10
   0   5   0  110.19   10.40
   5   0   0  134.09   10.50
  -5   0   0  117.19    9.80
   0  -5   0  121.49   10.00
   3  -6   0 2639.94  161.78
   3  -6   0 3126.09  163.18
  -6   3   0 3059.89  162.28
  -6   3   0 2571.94  161.68
   3   3   0 3140.59  163.28
  -6   3   0 2757.12  161.78
   3  -6   0 2521.15  161.98
  -3  -3   0 2503.45  161.68
  -3  -3   0 3136.29  163.28
  -3   6   0 3018.70  162.88
   6  -3   0 2976.50  162.28
   6  -3   0 2742.33  162.18
  -3   6   0 2541.45  161.88
   2  -6   0   41.60    6.80
  -6   2   0   38.80    7.30
  -6   4   0   53.39    8.40
  -6   2   0   53.29    8.20
   6  -4   0   27.20    5.90
  -2  -4   0   60.79   13.70
  -4   6   0   35.00   10.40
   6  -2   0   49.70    8.40
   6  -4   0   44.90    8.60
   1   5   0 1162.88   65.19
  -6   5   0 1135.99   63.99
  -6   1   0 1093.59   63.29
   5   1   0 1002.40   63.19
   1  -6   0 1032.90   63.29
   1   5   0 1001.30   63.49
   5   1   0 1214.58   63.69
  -6   5   0  976.80   62.99
   1  -6   0 1146.29   65.39
  -6   1   0 1007.60   62.89
   5   1   0 1230.68   65.09
   5  -6   0 1075.89   63.89
  -6   1   0 1235.88   63.79
   5  -6   0 1069.59   63.09
   6  -1   0 1050.59   63.39
   6  -5   0 1143.99   62.99
  -1  -5   0 1166.28   65.59
   6  -5   0 1200.88   64.09
  -1   6   0 1010.70   63.39
  -1  -5   0 1074.49   63.29
   6  -1   0 1220.08   63.69
  -5   6   0 1017.30   63.09
  -5  -1   0 1073.59   62.99
  -5  -1   0 1129.99   63.39
   6  -5   0 1101.49   63.89
  -1   6   0 1211.68   64.99
  -5   6   0 1152.98   64.09
  -6   6   0  158.28   12.40
   0  -6   0  171.88   13.60
  -6   0   0  190.48   13.40
   6   0   0  206.78   14.00
   0   6   0  169.68   13.80
  -6   6   0  201.38   14.80
   6  -6   0  191.98   15.30
   6  -6   0  211.78   15.80
  -6   0   0  172.08   12.20
   0   6   0  231.18   18.20
   6  -6   0  185.98   12.50
   6   0   0  172.48   13.40
   3   4   0  360.66   24.20
   3  -7   0  265.27   20.40
   3  -7   0  329.07   19.80
  -7   4   0  351.36   20.70
   4  -7   0  304.77   21.20
   4  -7   0  296.07   19.70
  -7   3   0  286.97   19.10
  -7   3   0  305.87   19.80
   4   3   0  264.27   19.20
  -7   3   0  349.77   20.60
   3  -7   0  379.66   24.40
   3   4   0  270.57   19.00
   4   3   0  350.26   23.70
  -7   4   0  295.97   19.20
  -3   7   0  302.87   20.10
   7  -4   0  316.77   20.50
  -4   7   0  323.17   22.10
  -4  -3   0  326.27   23.60
  -4  -3   0  305.37   20.10
  -4  -3   0  306.57   19.40
   7  -4   0  303.37   21.20
   7  -3   0  303.87   20.90
   7  -3   0  345.67   20.50
  -4   7   0  294.97   19.80
  -3   7   0  349.47   22.50
  -3  -4   0  302.57   20.10
  -3  -4   0  332.07   24.30
  -7   2   0  283.47   18.30
  -7   5   0  266.37   17.60
   5  -7   0  292.17   18.10
   5  -7   0  283.27   19.90
   2   5   0  287.37   19.30
   2   5   0  326.57   22.70
  -7   2   0  329.47   18.90
  -7   5   0  318.97   19.20
  -7   2   0  271.57   17.50
   2  -7   0  276.57   18.10
   5   2   0  250.97   17.80
   5   2   0  328.27   22.70
   2  -7   0  332.27   23.00
  -5  -2   0  260.27   17.60
  -2  -5   0  282.57   22.50
  -2   7   0  325.97   21.40
  -5   7   0  250.07   18.10
  -2  -5   0  272.17   18.50
   7  -5   0  273.97   19.70
   7  -5   0  286.37   19.30
   7  -2   0  268.57   19.10
  -5   7   0  278.27   20.10
  -2   7   0  244.68   18.50
   7  -5   0  254.07   17.50
  -5  -2   0  280.57   18.60
   7  -2   0  292.77   18.90
   6  -7   0 1635.04   86.29
  -7   6   0 1580.14   85.59
  -7   1   0 1558.24   85.29
  -7   6   0 1366.36   84.69
   1   6   0 1582.24   86.79
  -7   1   0 1475.55   84.99
   1  -7   0 1507.65   87.09
  -7   1   0 1355.46   84.59
   6   1   0 1655.13   86.79
   1   6   0 1410.06   85.19
   6   1   0 1366.26   84.89
   6   1   0 1638.74   85.49
   6  -7   0 1381.86   85.39
   6  -7   0 1478.65   84.79
   1  -7   0 1423.76   84.99
  -1  -6   0 1541.95   87.29
  -6   7   0 1394.16   84.79
   7  -6   0 1506.15   85.49
  -1   7   0 1414.56   85.19
  -6  -1   0 1453.75   84.69
   7  -1   0 1641.14   85.49
   7  -6   0 1586.24   85.79
   7  -1   0 1436.76   85.09
  -6   7   0 1576.44   85.79
  -1   7   0 1555.24   86.59
   7  -6   0 1545.25   84.69
  -6  -1   0 1514.55   85.09
  -7   7   0 1210.88   64.29
   0   7   0 1142.39   65.29
   7  -7   0 1228.18   64.69
   0   7   0  935.41   64.09
   0  -7   0 1147.69   66.09
  -7   0   0 1039.40   62.99
   7   0   0 1061.59   63.49
   7  -7   0 1101.79   63.09
  -7   0   0 1112.19   63.39
   7  -7   0 1099.09   64.09
  -7   7   0 1004.20   63.49
   0  -7   0 1046.50   63.39
   7   0   0 1205.18   65.29
   4   4   0  406.36   26.30
   4  -8   0  406.46   27.90
   4   4   0  507.95   30.80
   4  -8   0  417.76   26.80
   4  -8   0  519.85   30.80
  -8   4   0  430.76   26.30
  -8   4   0  409.86   26.70
  -4  -4   0  466.65   30.40
   8  -4   0  426.56   27.80
  -4   8   0  456.15   29.00
   8  -4   0  461.45   27.50
  -4  -4   0  456.85   27.30
  -4   8   0  415.56   27.10
   3  -8   0  187.78   18.40
   5   3   0  173.48   17.40
  -8   3   0  173.38   12.90
   5  -8   0  151.38   14.40
   5  -8   0  185.08   16.70
  -8   5   0  158.88   11.00
   5  -8   0  150.58   11.50
   5   3   0  140.19   11.30
   3  -8   0  152.48   11.90
  -8   3   0  141.99   10.80
   3   5   0  124.89   10.30
  -8   3   0  157.68   12.00
   8  -3   0  128.09   13.40
   8  -3   0  154.98   12.70
  -5   8   0  145.69   14.80
  -5  -3   0  147.19   16.60
  -5  -3   0  150.08   11.30
  -5   8   0  121.39   12.10
  -3  -5   0  145.09   12.30
  -3   8   0  164.58   16.20
   8  -5   0  164.28   13.10
   8  -5   0  154.98   14.30
  -3  -5   0  170.68   18.80
  -3   8   0  154.98   12.70
   6  -8   0   81.69   12.50
  -8   6   0   69.19    8.00
   6   2   0   84.29   10.80
  -8   2   0   85.69    9.40
  -8   2   0   70.69    7.90
   2   6   0   69.69   14.40
   6   2   0   75.39   15.50
   2   6   0   92.79   15.90
  -8   2   0   89.29   10.10
   2  -8   0   80.09   16.90
   6  -8   0   76.29    8.70
   6  -8   0  100.19   14.30
   2  -8   0   68.39    9.30
   6   2   0   70.69    8.80
  -8   6   0   77.49   10.60
  -6   8   0   66.79    8.80
   8  -2   0   91.59   10.40
  -6   8   0   86.69   11.60
   8  -6   0   78.79    7.90
   8  -6   0   89.39   11.00
  -6  -2   0   69.09    7.90
   8  -2   0   82.29   10.40
   8  -6   0   89.59   11.90
  -2   8   0   85.99   10.10
  -2  -6   0   97.79    9.80
  -2  -6   0   79.39   16.00
  -8   7   0   48.70    8.40
   1  -8   0   80.49   16.80
  -8   1   0   48.20    7.40
   1   7   0   80.09   15.00
   7   1   0   64.29   15.40
  -8   7   0   64.09   10.40
   7  -8   0   59.29   12.40
   1  -8   0   51.89    9.20
   1   7   0   69.99   10.40
   7   1   0   61.59   10.30
  -8   1   0   53.89    9.30
   7  -8   0   63.09    8.30
   8  -1   0   63.49   10.00
  -1   8   0   67.59   10.20
  -7  -1   0   51.69    7.60
   8  -1   0   61.49    9.60
  -1   8   0   80.89   14.60
  -1  -7   0   61.39    9.70
  -1  -7   0   68.79   16.80
   8  -7   0   78.89   11.80
  -7   8   0   39.50    7.80
   8  -7   0   67.69   12.20
   8  -7   0   56.49    7.80
  -7   8   0   65.69   11.30
   8  -8   0 1193.58   69.19
   0   8   0 1182.98   69.99
  -8   8   0 1129.49   69.19
   8  -8   0 1171.08   70.19
   0  -8   0 1163.88   69.59
   0  -8   0 1223.98   72.59
  -8   0   0 1147.39   69.09
   8   0   0 1174.78   69.69
   8  -8   0 1332.97   70.99
   8   0   0 1320.87   70.19
   8   0   0 1316.07   71.79
   0   8   0 1275.67   71.79
  -8   8   0 1289.97   70.49
   4  -9   0  131.19   11.70
  -9   5   0  129.49   11.80
  -9   4   0  123.09   11.80
   5  -9   0  134.59   12.60
  -9   5   0  120.19   10.80
  -9   4   0  127.69   10.60
   5  -9   0  129.09   14.60
  -9   4   0  139.69   12.70
   5  -9   0  168.18   17.80
   4   5   0  162.58   18.70
   4  -9   0  179.18   19.60
   5   4   0  130.49   10.80
   4   5   0  120.79   10.30
  -9   5   0  147.59   12.90
   4  -9   0   94.89   14.00
   5   4   0  158.78   18.20
  -5  -4   0  133.09   10.60
   9  -5   0  145.59   12.90
   9  -4   0  140.59   13.70
  -4  -5   0  142.49   12.70
  -5   9   0  107.99   11.90
  -5   9   0  140.19   15.00
  -4   9   0  136.79   12.60
  -5  -4   0  128.29   17.90
   9  -4   0  147.49   12.80
  -5  -4   0  157.48   12.40
  -4   9   0  162.08   15.70
  -4  -5   0  154.98   18.30
   9  -5   0  135.79   14.00
  -9   3   0  969.90   50.99
  -9   3   0  842.32   50.29
   3  -9   0  838.92   50.29
  -9   6   0  966.60   51.19
   3   6   0  766.82   49.60
   3   6   0  937.41   53.49
   6   3   0  972.30   53.29
   3   6   0  850.61   50.99
   6  -9   0  973.40   52.89
   6   3   0  790.92   49.99
  -9   3   0  828.52   49.80
   6  -9   0  826.82   51.09
   6  -9   0  861.11   50.19
   3  -9   0  902.01   53.49
  -6  -3   0  845.72   50.49
  -6   9   0  802.22   50.29
  -3   9   0  831.02   50.59
  -3   9   0  873.81   52.39
  -3  -6   0  859.01   50.49
  -6   9   0  855.21   51.59
   9  -6   0  841.82   51.19
   9  -6   0  896.91   51.19
  -3  -6   0  900.81   54.09
   9  -3   0  816.02   50.69
   9  -3   0  935.31   50.99
  -6  -3   0  847.02   49.99
  -9   2   0  390.26   26.50
   7   2   0  459.45   31.50
   7  -9   0  483.75   30.20
   2   7   0  473.95   31.30
   7  -9   0  423.96   27.00
  -9   2   0  427.16   27.40
  -9   7   0  469.55   28.40
   2   7   0  435.76   28.20
   7   2   0  370.16   27.60
  -9   7   0  403.96   26.70
   2  -9   0  412.36   27.30
   7   2   0  481.05   28.40
   7  -9   0  426.86   28.70
   2  -9   0  444.66   32.10
  -9   2   0  463.45   28.00
   9  -7   0  473.45   28.70
  -2  -7   0  451.15   27.80
   9  -2   0  476.05   28.10
   9  -7   0  460.35   28.80
  -2  -7   0  459.95   31.80
  -7   9   0  451.35   28.80
  -7  -2   0  401.26   26.60
  -7  -2   0  448.86   27.60
  -2   9   0  485.55   30.30
   9  -2   0  431.56   27.70
  -7   9   0  411.36   27.00
   9  -7   0  430.16   26.60
  -2   9   0  419.26   27.80
   8  -9   0  225.68   15.60
   8  -9   0  268.67   20.60
   1   8   0  256.37   21.90
  -9   8   0  212.48   15.50
   8   1   0  197.38   16.30
   1  -9   0  216.38   16.70
  -9   1   0  201.58   17.40
   8  -9   0  232.78   19.00
  -9   8   0  232.38   17.70
   8   1   0  239.28   17.50
   1  -9   0  255.77   23.40
   8   1   0  238.98   21.70
  -9   1   0  206.58   15.20
   1   8   0  208.38   17.40
  -8   9   0  230.78   18.20
  -8  -1   0  227.78   16.70
   9  -1   0  216.28   16.90
  -8   9   0  199.28   15.60
  -1   9   0  244.48   20.90
   9  -8   0  230.38   18.50
   9  -8   0  255.87   19.00
   9  -8   0  235.48   15.60
   9  -1   0  241.48   17.40
  -1  -8   0  206.18   16.90
  -1  -8   0  244.38   23.10
  -8  -1   0  202.88   15.40
  -1   9   0  233.68   17.30
   0   9   0  838.42   50.49
  -9   9   0  855.31   49.00
   9   0   0  757.32   47.90
   9   0   0  864.51   51.29
   9  -9   0  783.82   48.70
   9  -9   0  913.31   49.90
  -9   0   0  845.42   48.00
   0  -9   0  771.82   51.39
   0   9   0  840.72   48.40
   9  -9   0  800.62   47.40
   0  -9   0  810.82   47.90
  -9   9   0  757.52   47.30
   9   0   0  894.61   48.80
   5   5   0 1167.78   66.69
 -10   5   0  971.50   62.99
   5 -10   0 1005.00   64.09
   5   5   0  994.00   62.89
   5 -10   0 1045.70   63.39
 -10   5   0 1184.88   64.29
 -10   5   0 1060.39   63.39
   5 -10   0 1179.68   66.69
  10  -5   0 1108.89   63.99
  10  -5   0 1143.89   64.09
  -5  -5   0 1135.39   63.69
  -5  10   0 1111.59   64.99
  -5  10   0 1062.29   63.49
  -5  -5   0 1099.29   66.29
   6 -10   0 1151.58   64.29
   6 -10   0 1070.49   61.19
   4   6   0  891.01   60.59
   6 -10   0 1029.60   62.09
 -10   6   0 1153.88   62.19
   4 -10   0 1110.69   64.39
   6   4   0  991.30   60.99
   4 -10   0 1046.90   61.39
 -10   4   0 1195.98   62.29
   4   6   0 1141.69   64.49
 -10   6   0 1019.40   60.89
   6   4   0 1145.99   64.59
   4   6   0 1058.29   62.09
 -10   4   0 1094.59   61.39
 -10   6   0  974.00   61.19
  -4  -6   0 1062.29   61.59
  -4  -6   0 1056.59   64.49
  10  -4   0 1110.29   61.99
  -6  10   0 1040.30   61.49
  -6  -4   0 1000.30   60.89
  10  -6   0 1106.09   62.09
  10  -6   0 1043.30   62.09
  -6  -4   0 1055.19   61.49
  -6  10   0 1046.70   62.69
  -6  -4   0 1053.99   63.79
  -4  10   0 1108.49   63.29
  10  -4   0 1037.90   61.79
  -4  10   0 1056.59   61.59
   3   7   0  164.28   20.20
 -10   7   0  159.68   12.50
   3 -10   0  180.18   13.60
   7 -10   0  145.89   13.00
   7   3   0  161.88   13.20
 -10   3   0  164.68   14.50
   3 -10   0  177.78   21.50
   7   3   0  181.68   19.20
 -10   3   0  171.98   13.60
   3   7   0  148.69   15.70
 -10   3   0  150.18   16.90
   7 -10   0  181.38   18.60
 -10   7   0  177.18   14.90
   7 -10   0  175.18   16.10
  -7  -3   0  149.69   12.40
  -7  10   0  144.09   15.70
  10  -3   0  160.28   14.60
  10  -7   0  161.28   15.20
  -3  10   0  174.88   17.90
  10  -7   0  141.29   16.20
  -7  -3   0  155.28   14.10
  -3  -7   0  155.08   21.80
  -3  -7   0  188.38   14.50
  10  -3   0  159.38   14.50
  -3  10   0  182.48   14.70
  -7  10   0  132.29   13.40
 -10   2   0  767.82   43.80
   8 -10   0  651.53   43.40
   2   8   0  771.42   46.30
   2   8   0  741.23   43.80
   8   2   0  681.03   42.90
 -10   8   0  723.33   42.60
   2 -10   0  716.43   43.20
   8 -10   0  709.73   44.20
 -10   2   0  625.04   43.80
   2 -10   0  659.63   52.49
   8   2   0  759.02   46.80
 -10   8   0  776.22   44.20
   8   2   0  801.22   44.30
   8 -10   0  787.92   45.80
 -10   2   0  740.03   43.20
  -2  -8   0  717.53   43.40
  10  -2   0  725.23   43.30
  -8  10   0  750.12   44.50
  10  -8   0  697.33   42.50
  -2  -8   0  731.93   47.00
  -8  -2   0  673.23   42.50
  -2  10   0  738.33   43.50
  -8  10   0  688.23   42.80
  -8  -2   0  760.12   43.40
  10  -2   0  769.52   43.90
  10  -8   0  748.83   44.40
  10  -8   0  749.42   44.20
   1 -10   0 1569.34   86.99
 -10   9   0 1485.75   86.39
 -10   9   0 1628.44   87.89
   1   9   0 1540.85   87.19
   9   1   0 1687.33   89.59
   9 -10   0 1424.76   87.89
   1   9   0 1470.15   90.19
   1 -10   0 1490.45   90.69
   9   1   0 1456.45   86.69
 -10   1   0 1390.56   86.29
   9   1   0 1682.13   87.69
 -10   1   0 1592.84   86.79
   9 -10   0 1502.75   90.69
   9 -10   0 1483.75   87.29
  10  -9   0 1585.24   86.49
  -1  10   0 1581.54   89.09
  10  -9   0 1526.75   87.39
  -9  -1   0 1583.04   86.89
  10  -9   0 1637.24   88.19
  -9  -1   0 1428.86   86.29
  -9  10   0 1488.55   86.49
  -1  10   0 1485.85   86.99
  -9  10   0 1408.86   89.09
  10  -1   0 1533.55   86.99
  -1  -9   0 1486.25   90.59
  -1  -9   0 1484.65   86.89
  10  -1   0 1639.04   87.59
 -10   0   0  890.81   50.39
   0 -10   0  888.51   50.49
 -10  10   0  855.11   52.29
   0 -10   0  820.02   54.39
  10 -10   0  854.71   50.99
 -10   0   0  813.62   49.60
  10   0   0  904.11   51.09
  10 -10   0  869.11   53.49
  10   0   0  896.91   53.99
  10 -10   0  807.52   51.59
 -10  10   0  825.62   49.80
   0  10   0  855.41   50.69
  10   0   0  810.82   50.19
   0  10   0  868.31   52.89
   5 -11   0  446.36   32.70
 -11   5   0  466.55   28.70
 -11   5   0  399.26   26.80
 -11   6   0  405.56   27.40
 -11   6   0  449.95   28.70
   6 -11   0  407.86   29.00
   5 -11   0  418.76   27.40
 -11   6   0  409.46   26.90
   6 -11   0  457.65   32.10
 -11   5   0  418.36   27.60
   5   6   0  486.15   33.20
   6 -11   0  423.46   27.20
   5   6   0  385.56   26.50
   6   5   0  457.05   32.50
   6   5   0  396.56   26.80
  -6  11   0  413.46   27.80
  11  -5   0  464.95   28.60
  11  -6   0  459.35   28.50
  -5  11   0  446.46   29.70
  -5  -6   0  467.85   28.10
  -6  -5   0  429.86   27.90
  -6  11   0  445.86   29.80
  -5  11   0  461.15   27.90
  11  -6   0  464.05   28.70
  -6  -5   0  434.16   32.20
  -5  -6   0  410.76   32.60
  11  -5   0  481.25   28.70
 -11   7   0 1457.05   84.79
 -11   4   0 1594.84   85.99
   7   4   0 1401.76   84.89
 -11   7   0 1333.27   84.89
   7 -11   0 1562.04   87.89
 -11   7   0 1576.04   86.09
   4 -11   0 1518.95   88.29
   4   7   0 1569.24   88.19
   4   7   0 1512.75   85.89
   7 -11   0 1504.75   85.09
   7   4   0 1588.74   88.19
 -11   4   0 1404.66   84.69
   4   7   0 1300.47   84.49
   7 -11   0 1360.76   85.69
   4 -11   0 1482.35   85.19
  11  -4   0 1562.24   85.89
  11  -4   0 1484.95   85.49
  -4  11   0 1497.95   86.99
  -4  -7   0 1455.65   88.29
  11  -7   0 1517.75   85.79
  -4  11   0 1462.85   85.39
  -7  -4   0 1427.96   84.79
  -7  -4   0 1493.55   85.29
  -7  11   0 1440.46   85.09
  -4  -7   0 1531.35   85.39
  11  -7   0 1555.64   86.09
  -7  11   0 1490.05   86.49
   8 -11   0  584.14   38.10
 -11   8   0  582.44   36.30
 -11   3   0  647.94   37.80
   3 -11   0  586.34   41.70
   8 -11   0  600.44   36.50
 -11   8   0  605.04   37.80
   8   3   0  609.14   37.80
   3   8   0  609.24   40.60
   8 -11   0  634.24   40.30
 -11   3   0  595.94   36.90
 -11   3   0  572.24   36.10
   8   3   0  618.64   40.60
   3   8   0  592.04   37.80
   8   3   0  573.14   36.60
   3 -11   0  609.64   36.90
  -3  -8   0  615.64   37.30
  11  -8   0  603.04   38.00
  -8  11   0  602.14   38.20
  -8  -3   0  578.74   36.20
  -8  11   0  597.64   36.70
  -8  -3   0  636.24   37.10
  -3  -8   0  619.54   42.20
  -3  11   0  623.24   37.40
  11  -8   0  626.04   38.20
  11  -3   0  608.64   37.10
  -3  11   0  623.54   39.60
  11  -3   0  643.44   37.70
 -11   9   0  217.58   17.90
   2   9   0  227.78   17.70
   2 -11   0  218.78   16.80
   9   2   0  192.28   22.70
   9 -11   0  183.68   18.30
 -11   9   0  207.38   15.40
   2   9   0  237.58   22.50
   9   2   0  211.78   17.90
   2 -11   0  206.88   23.60
   9 -11   0  229.68   21.00
   9 -11   0  222.08   15.70
   9   2   0  216.58   16.10
 -11   2   0  206.78   15.10
 -11   2   0  205.28   16.50
  -2  11   0  227.98   17.40
  -9  -2   0  216.48   16.80
  -9  -2   0  175.68   15.00
  -2  11   0  198.48   19.90
  -2  -9   0  211.18   17.30
  -9  11   0  203.68   18.10
  11  -2   0  209.28   17.30
  11  -9   0  211.08   19.30
  -9  11   0  194.78   15.50
  11  -2   0  220.88   17.20
  -2  -9   0  208.98   22.80
  11  -9   0  209.38   18.70
  10   1   0  397.06   30.00
  10 -11   0  368.86   23.90
  10 -11   0  363.66   26.00
   1 -11   0  386.36   25.20
 -11   1   0  381.16   24.80
   1  10   0  376.76   28.80
 -11  10   0  359.86   24.00
  10   1   0  356.96   24.50
 -11  10   0  388.36   26.20
  10 -11   0  370.76   28.00
  10   1   0  388.36   26.30
   1 -11   0  360.56   31.00
   1  10   0  388.56   26.10
 -11   1   0  339.67   23.70
  11  -1   0  383.86   25.00
  -1 -10   0  369.46   30.50
 -10  11   0  381.86   24.10
 -10  11   0  391.56   26.10
  11  -1   0  399.76   29.50
  -1 -10   0  393.36   25.00
 -10  -1   0  392.66   24.90
 -10  -1   0  346.67   23.80
  11  -1   0  385.06   26.10
  -1  11   0  396.76   25.60
  11 -10   0  363.66   23.90
  11 -10   0  417.06   27.30
  11 -10   0  373.76   26.30
  -1  11   0  366.06   27.80
 -11   0   0 1675.83   94.69
  11   0   0 1744.93   97.79
 -11   0   0 1595.84   94.19
 -11  11   0 1662.13   94.29
   0  11   0 1631.84   94.89
   0 -11   0 1659.03   94.79
 -11  11   0 1688.23   95.69
  11 -11   0 1649.23   94.29
   0 -11   0 1622.44   98.19
   0  11   0 1685.53   97.09
  11 -11   0 1717.53   96.69
  11   0   0 1607.64   94.59
  11 -11   0 1657.33   95.19
  11   0   0 1753.02   95.69
 -12   6   0  780.32   47.40
   6   6   0  835.12   50.99
   6 -12   0  753.82   46.50
 -12   6   0  744.33   48.30
   6 -12   0  675.73   47.30
   6 -12   0  793.82   50.79
 -12   6   0  761.22   46.10
  -6  -6   0  837.32   47.00
  12  -6   0  827.92   47.20
  -6  12   0  797.52   48.50
  12  -6   0  834.82   47.50
  -6  12   0  775.02   46.70
  -6  -6   0  790.02   50.59
 -12   5   0  117.59   14.00
 -12   5   0  107.79   13.40
   7   5   0  135.99   11.90
 -12   7   0  130.59   14.70
 -12   7   0  108.29   11.70
   7   5   0  116.09   20.30
   5   7   0  102.79   16.00
   5 -12   0  133.49   20.60
   7 -12   0  126.89   19.20
   5   7   0  120.79   10.60
 -12   7   0   85.59   17.10
   7 -12   0  115.39   17.90
   5 -12   0  129.59   12.90
 -12   5   0  103.99   11.40
   5   7   0  109.89   21.20
   7 -12   0  126.79   12.60
  -5  12   0  152.48   13.80
  -7  12   0  118.99   13.30
  -7  12   0  119.89   15.60
  -7  -5   0  133.79   13.70
  -7  -5   0  126.09   19.50
  -5  -7   0  149.88   14.20
  12  -5   0  123.29   14.10
  12  -7   0  124.49   14.60
  -5  12   0  133.89   16.10
  12  -5   0  151.68   14.40
  12  -7   0  152.48   15.30
  -5  -7   0  113.09   21.10
   4   8   0  498.05   35.00
 -12   8   0  478.45   29.60
 -12   8   0  498.25   31.40
   8 -12   0  469.75   31.70
 -12   4   0  499.65   30.20
   8 -12   0  474.05   29.80
   4 -12   0  494.55   30.30
   4 -12   0  477.55   35.90
 -12   4   0  467.05   29.50
 -12   4   0  506.75   31.20
   8   4   0  464.35   29.80
   4   8   0  476.35   31.40
   8 -12   0  495.55   34.50
   8   4   0  509.95   35.20
  -8  12   0  455.25   31.60
  -8  -4   0  486.95   30.50
  12  -4   0  490.85   30.60
  -4  -8   0  499.75   30.80
  -8  12   0  460.35   30.00
  12  -8   0  477.55   31.30
  -8  -4   0  459.05   29.30
  12  -8   0  494.45   31.60
  -4  -8   0  458.55   35.70
  12  -4   0  479.45   31.00
  -4  12   0  484.85   30.60
  -4  12   0  469.95   32.90
   9 -12   0  482.95   33.00
 -12   3   0  516.35   32.00
   9 -12   0  505.95   35.60
 -12   3   0  490.15   31.10
   3 -12   0  521.35   32.00
   9 -12   0  510.15   31.50
   9   3   0  542.95   33.30
 -12   9   0  503.15   31.30
   9   3   0  535.75   36.60
   9   3   0  499.65   31.60
 -12   9   0  510.45   33.10
   3   9   0  519.65   32.90
   3 -12   0  467.35   36.70
 -12   3   0  487.35   32.40
   3   9   0  532.45   36.20
  -3  12   0  490.75   35.00
  -9  12   0  526.05   33.50
  -9  12   0  501.35   31.50
  -3  -9   0  529.15   32.40
  12  -9   0  515.75   33.10
  -9  -3   0  518.65   32.10
  12  -9   0  516.85   33.50
  12  -3   0  520.85   32.80
  12  -3   0  517.45   32.30
  -9  -3   0  484.35   31.10
  -3  -9   0  487.85   38.00
  -3  12   0  531.45   32.60
  10   2   0  448.26   35.60
 -12   2   0  434.16   28.60
  10   2   0  448.56   29.40
 -12  10   0  458.05   29.00
 -12   2   0  461.05   29.70
  10   2   0  478.95   31.20
   2  10   0  485.85   30.70
   2 -12   0  479.15   30.00
 -12  10   0  486.65   31.00
   2  10   0  483.35   33.80
   2 -12   0  431.36   35.40
  10 -12   0  456.55   30.80
  10 -12   0  472.65   29.10
  10 -12   0  472.45   33.20
  12 -10   0  465.15   31.00
  -2  12   0  445.16   32.60
  12  -2   0  495.25   30.20
  -2  12   0  470.05   30.30
  -2 -10   0  452.55   34.80
 -10  -2   0  488.95   29.80
  -2 -10   0  469.45   30.00
  12  -2   0  476.95   30.60
  12 -10   0  497.95   31.80
 -10  12   0  482.75   31.10
  12 -10   0  415.16   28.70
 -10  12   0  477.05   29.00
 -10  -2   0  431.76   28.70
  11   1   0  524.65   34.30
   1 -12   0  576.44   34.90
  11 -12   0  555.64   37.80
  11   1   0  600.64   39.90
   1  11   0  565.24   35.30
 -12  11   0  566.94   35.90
  11   1   0  579.04   36.10
 -12   1   0  506.75   33.60
 -12  11   0  560.54   34.00
   1 -12   0  516.15   39.80
   1  11   0  532.15   37.90
 -12   1   0  566.34   34.70
  11 -12   0  551.74   35.70
  11 -12   0  560.54   34.10
  12  -1   0  535.65   34.60
  -1 -11   0  573.14   35.00
 -11  -1   0  543.55   33.80
  12 -11   0  556.24   35.80
 -11  12   0  565.74   34.00
  -1  12   0  558.24   35.10
  12  -1   0  599.74   39.90
  12 -11   0  594.64   34.00
 -11  -1   0  581.84   34.80
  -1 -11   0  512.55   39.60
  -1  12   0  509.45   37.30
 -11  12   0  575.54   36.00
  12  -1   0  591.74   35.90
  12 -11   0  567.14   37.40
  12 -12   0    9.70    6.90
  12   0   0   -2.80    7.00
 -12   0   0    9.00    7.90
 -12  12   0    5.60    6.10
  12   0   0    3.80    8.20
 -12   0   0   -5.20    6.70
  12 -12   0    7.30    8.70
   0 -12   0   -9.00   10.60
 -12  12   0    6.80    6.60
  12   0   0    1.50   10.40
   0 -12   0   -4.30    8.80
   0  12   0    8.90    9.40
   0  12   0   -6.50    8.10
  12 -12   0    3.60   10.50
   6   7   0   97.19   13.80
   6   7   0   96.49   16.30
 -13   7   0  108.09   13.20
   6   7   0   81.59   20.90
 -13   7   0   93.79   16.80
   6 -13   0  103.39   12.90
   7 -13   0   97.39   20.70
   7   6   0   87.49   23.90
 -13   6   0   98.79   11.20
 -13   7   0  103.89   11.30
   7 -13   0  105.59   12.80
   7   6   0  124.89   11.60
   7 -13   0  107.89   18.20
   6 -13   0  100.59   20.40
 -13   6   0   96.39   14.60
 -13   6   0   99.59   13.70
  -6  -7   0   87.09   20.80
  13  -7   0  147.19   14.70
  13  -7   0  107.99   18.40
  -7  13   0  115.49   15.30
  -6  -7   0  113.09   14.00
  13  -6   0   99.09   14.00
  13  -6   0  139.69   14.40
  -6  13   0   99.99   13.20
  -6  13   0  117.69   15.90
  -7  13   0  117.69   13.40
  -7  -6   0  124.19   13.90
  -7  -6   0  117.89   25.40
   8 -13   0  504.85   34.00
   8 -13   0  515.05   32.60
 -13   5   0  517.45   31.90
   8   5   0  555.94   47.50
 -13   5   0  506.35   32.80
 -13   8   0  515.25   32.50
   5   8   0  465.65   31.40
   8   5   0  512.15   32.10
   8 -13   0  515.55   36.90
   5   8   0  546.85   34.20
   5   8   0  523.75   38.00
   5 -13   0  539.25   32.70
 -13   5   0  569.74   33.70
   5 -13   0  493.55   38.20
 -13   8   0  527.65   34.00
 -13   8   0  515.65   31.90
  13  -8   0  524.75   34.00
  -5  13   0  547.15   33.00
  -5  13   0  489.35   34.50
  13  -5   0  547.55   33.00
  -8  13   0  525.05   32.50
  -5  -8   0  556.54   33.30
  -8  13   0  502.45   34.20
  -8  -5   0  526.85   33.00
  -5  -8   0  495.65   37.90
  13  -8   0  577.84   33.80
  13  -5   0  530.95   33.50
   9 -13   0  667.93   45.10
   4 -13   0  702.53   41.40
   4   9   0  713.03   42.40
   9   4   0  654.63   44.30
 -13   4   0  680.23   41.30
   9 -13   0  619.74   42.10
   9   4   0  677.23   41.00
   4   9   0  693.33   45.20
   9 -13   0  668.83   40.90
   9   4   0  676.13   46.80
 -13   4   0  701.63   42.20
   4 -13   0  649.04   46.00
 -13   9   0  709.63   42.40
 -13   4   0  662.03   40.50
 -13   9   0  662.13   40.70
  13  -9   0  692.73   42.00
  -4  -9   0  645.04   46.20
  -9  -4   0  703.93   41.50
  13  -4   0  687.33   41.50
  -4  13   0  661.23   43.70
  -9  -4   0  663.73   40.40
  13  -4   0  690.73   42.10
  -4  13   0  668.13   41.50
  13  -9   0  676.23   42.50
  -9  13   0  670.13   42.60
  -9  13   0  701.93   41.00
  -4  -9   0  697.13   41.70
  10 -13   0  299.57   20.90
  10   3   0  293.37   24.80
  10   3   0  292.57   21.00
   3 -13   0  255.07   28.30
  10 -13   0  298.07   27.00
 -13  10   0  310.27   20.60
 -13   3   0  285.97   20.20
   3  10   0  305.47   22.80
  10   3   0  312.37   27.90
 -13  10   0  303.47   22.80
 -13   3   0  287.07   21.40
  10 -13   0  286.17   23.00
   3  10   0  280.17   27.20
   3 -13   0  319.97   22.00
  -3 -10   0  270.07   29.60
  13  -3   0  300.77   22.30
  -3  13   0  337.17   22.40
 -10  13   0  286.77   20.60
 -10  13   0  300.57   22.80
  13 -10   0  320.87   23.00
  -3 -10   0  301.77   22.10
  13  -3   0  334.97   22.90
 -10  -3   0  313.57   21.80
 -10  -3   0  283.67   20.40
  13 -10   0  312.17   23.90
  -3  13   0  286.67   24.90
  11   2   0   15.10   12.70
  11 -13   0   23.30   11.10
   2  11   0   36.50   11.30
  11   2   0   26.00    8.90
   2 -13   0   16.30   11.60
  11 -13   0   21.20    9.50
   2 -13   0   26.50    9.10
   2  11   0   15.40    9.80
 -13  11   0   24.50    7.10
  11   2   0   15.70   20.70
 -13  11   0   23.20    7.30
 -13   2   0   22.20    8.20
 -13   2   0   19.00    7.00
  11 -13   0   35.40    7.20
 -11  -2   0   22.40    7.00
  -2 -11   0   26.10    8.80
  13 -11   0   18.90    7.50
  13 -11   0   24.20    7.00
  13 -11   0   25.70   10.30
 -11  13   0   21.60    7.10
 -11  13   0   25.30    7.60
  13  -2   0   34.00    9.80
  -2  13   0   15.70    8.30
  -2 -11   0   16.50   11.40
  13  -2   0   30.80   10.40
 -11  -2   0   24.70    8.20
  -2  13   0   34.60    9.30
  13  -2   0   17.50    7.40
  12   1   0  419.06   30.30
  12 -13   0  389.26   24.80
 -13  12   0  396.26   27.00
 -13   1   0  350.06   24.30
 -13  12   0  386.26   24.70
  12 -13   0  387.26   27.10
  12 -13   0  340.67   29.50
   1 -13   0  398.56   26.00
   1  12   0  382.16   29.90
 -13   1   0  359.46   25.60
   1  12   0  381.06   26.50
  12   1   0  368.16   36.10
  12   1   0  379.66   25.30
   1 -13   0  355.96   32.40
  13 -12   0  352.56   29.00
  -1 -12   0  374.66   25.90
  -1  13   0  315.87   28.70
  13 -12   0  389.46   24.40
  -1 -12   0  360.36   31.70
 -12  -1   0  361.36   24.40
 -12  13   0  377.26   24.60
 -12  -1   0  375.06   25.70
  13  -1   0  379.46   33.60
  13 -12   0  373.86   26.90
  13  -1   0  362.76   25.50
  -1  13   0  398.36   26.40
 -12  13   0  377.16   27.20
   0 -13   0  350.56   32.90
  13 -13   0  368.56   25.40
  13 -13   0  391.46   27.50
  13 -13   0  362.76   30.00
   0  13   0  425.36   27.20
  13   0   0  384.76   25.90
  13   0   0  412.96   28.20
  13   0   0  351.86   32.90
 -13  13   0  379.76   25.10
   0  13   0  329.17   29.30
 -13   0   0  410.26   26.40
 -13  13   0  381.16   27.60
   0 -13   0  405.06   26.70
 -13   0   0  361.36   24.80
 -14   7   0   65.89   12.90
   7 -14   0   49.00    8.50
 -14   7   0   48.00   10.40
   7   7   0   49.80   11.80
 -14   7   0   33.20    7.60
   7 -14   0   34.80   18.40
   7   7   0   28.40   11.70
   7 -14   0   31.90   10.70
   7   7   0   55.39   10.00
  -7  14   0   64.79   14.10
  -7  -7   0   45.70   11.90
  14  -7   0   73.89   13.30
  -7  14   0   62.39    9.80
  -7  -7   0   44.70    9.40
   6   8   0   28.10   11.20
   8   6   0   58.89   11.10
 -14   6   0   51.09    8.10
   8   6   0   31.00   11.90
 -14   8   0   41.50    7.60
 -14   8   0   79.99   12.60
 -14   8   0   52.09   13.40
   6   8   0   48.80    9.10
 -14   6   0   46.90   13.00
   6 -14   0   28.80   10.90
   8 -14   0   40.20   11.40
   6 -14   0   36.50    8.50
   6   8   0   36.80   11.30
 -14   6   0   39.10    8.90
   8 -14   0   28.00   11.10
   8 -14   0   35.60    8.40
  14  -6   0   43.80   12.80
  -6  -8   0   42.60    9.00
  -6  -8   0   28.70   11.30
  -6  14   0   39.80    8.50
  14  -8   0   70.79   14.20
  -8  14   0   28.80    7.80
  14  -8   0   58.79   13.70
  -8  14   0   51.29    8.30
  -8  -6   0   52.79    9.90
  -6  14   0   58.39   14.90
 -14   5   0  495.25   31.80
   5   9   0  466.95   36.80
 -14   5   0  487.05   30.70
 -14   5   0  496.15   34.20
   5 -14   0  503.55   37.50
   9 -14   0  484.65   36.20
 -14   9   0  521.95   33.10
 -14   9   0  493.05   31.50
 -14   9   0  482.95   30.90
   5 -14   0  492.75   31.80
   5   9   0  532.95   33.30
   9   5   0  470.65   31.10
   9 -14   0  480.75   31.30
   9   5   0  522.45   33.20
   9 -14   0  468.35   32.70
   9   5   0  526.25   37.80
  -5  14   0  449.46   33.40
  -9  14   0  507.35   31.20
  -9  14   0  452.25   32.70
  -9  -5   0  521.55   32.10
  14  -5   0  475.45   32.80
  14  -9   0  527.25   32.60
  -5  -9   0  525.25   32.30
  -5  -9   0  463.45   37.30
  14  -5   0  500.35   32.00
  14  -9   0  502.35   33.20
  -5  14   0  538.05   31.90
 -14   4   0  170.28   16.40
 -14   4   0  166.98   14.30
 -14   4   0  172.78   18.60
   4 -14   0  141.29   23.80
 -14  10   0  156.38   15.10
  10   4   0  177.28   15.70
  10 -14   0  168.68   17.90
  10   4   0  189.88   18.20
 -14  10   0  186.78   17.60
   4  10   0  165.48   18.30
  10 -14   0  150.48   15.60
   4 -14   0  179.78   16.80
  10   4   0  143.89   24.50
  10 -14   0  147.49   22.30
   4  10   0  170.88   23.10
  14  -4   0  166.58   17.60
  14 -10   0  198.98   22.70
 -10  -4   0  162.88   16.80
  -4  14   0  146.59   19.20
  -4  14   0  170.58   16.80
  -4 -10   0  148.39   24.20
  -4 -10   0  155.88   16.90
  14 -10   0  193.48   17.90
 -10  -4   0  135.59   13.90
 -10  14   0  161.48   17.20
  14  -4   0  168.28   17.10
 -10  14   0  157.78   14.70
 -14  11   0  265.17   19.10
   3 -14   0  304.57   21.30
  11   3   0  265.97   27.00
  11 -14   0  263.47   19.30
   3  11   0  237.18   25.30
  11 -14   0  257.07   26.30
  11   3   0  237.58   19.50
  11   3   0  260.37   22.20
 -14   3   0  232.68   20.20
 -14   3   0  238.38   18.60
   3 -14   0  235.48   28.00
   3  11   0  280.67   22.30
  11 -14   0  254.17   21.80
 -14  11   0  245.88   21.60
  -3 -11   0  267.97   20.60
  14 -11   0  273.07   21.70
 -11  14   0  252.57   21.50
  14 -11   0  261.97   22.60
  -3  14   0  209.98   23.20
 -11  -3   0  262.37   20.10
  -3 -11   0  242.78   29.20
 -11  -3   0  238.78   18.70
  14  -3   0  255.37   20.50
 -11  14   0  282.27   19.10
  14  -3   0  279.17   21.60
  -3  14   0  282.07   21.00
   2  12   0  573.14   36.60
 -14  12   0  592.74   37.20
 -14   2   0  560.24   34.60
   2 -14   0  524.15   41.30
  12 -14   0  539.65   39.20
   2  12   0  514.05   39.30
  12 -14   0  580.94   35.00
 -14  12   0  583.54   34.90
  12   2   0  533.15   41.90
  12   2   0  592.24   37.50
  12   2   0  609.34   35.70
 -14   2   0  574.94   35.80
   2 -14   0  591.04   36.00
  12 -14   0  562.14   36.90
  14 -12   0  543.25   38.70
  -2  14   0  614.24   36.40
 -12  14   0  548.15   34.90
 -12  -2   0  590.84   35.90
 -12  14   0  542.35   36.70
 -12  -2   0  529.15   34.60
  -2  14   0  522.15   38.40
  -2 -12   0  488.55   41.70
  14  -2   0  589.44   41.40
  14 -12   0  597.84   36.60
  14  -2   0  582.04   37.10
  -2 -12   0  605.14   36.10
  14 -12   0  520.15   34.60
  14  -2   0  559.04   35.70
   1  13   0   91.19   16.10
   1 -14   0   77.59   12.30
  13   1   0   84.19   16.00
  13 -14   0   81.39   13.10
 -14  13   0   61.09   15.20
  13 -14   0   84.49   12.40
   1  13   0   41.60   10.60
 -14  13   0   61.49   12.90
 -14   1   0   62.39   11.10
  13   1   0   48.40   13.80
 -14   1   0   67.79    9.50
  13   1   0   72.99   14.30
   1 -14   0   49.00   14.80
  13 -14   0   42.10   11.60
  14 -13   0   72.59   12.40
 -13  14   0   68.79   14.60
  14  -1   0   88.69   13.80
  -1 -13   0   72.19   12.20
 -13  -1   0   63.29    9.60
 -13  -1   0   72.89   14.50
  -1 -13   0   82.89   23.00
  14  -1   0   71.69   15.90
  -1  14   0   96.69   15.70
 -13  14   0   78.99   13.00
  14 -13   0   76.79   16.10
  14  -1   0   51.49   13.70
  14 -13   0   43.30   10.80
 -14  14   0   11.20    8.50
 -14  14   0   18.70    7.40
 -14   0   0   25.90    9.70
  14   0   0   17.70   12.70
   0 -14   0   21.70   12.30
  14 -14   0   12.20    8.60
   0  14   0   22.90   11.50
  14 -14   0   29.90   12.00
 -14   0   0   10.80    8.60
  14   0   0   14.70   10.00
  14   0   0   16.90    8.80
   0 -14   0   11.90   10.00
   7   8   0   48.70   13.00
   7   8   0   72.29   11.10
 -15   8   0   66.09   11.90
 -15   8   0   62.89   15.10
 -15   7   0   78.79   13.80
   8 -15   0   75.09   21.10
   8 -15   0   67.99   10.70
   8   7   0   91.39   17.50
 -15   7   0   80.99   11.90
   7 -15   0   59.19    9.60
 -15   8   0  116.09   14.30
   8   7   0   68.99   11.60
 -15   7   0   59.89   14.30
   7   8   0   96.49   17.40
   8 -15   0   63.59   11.60
   7 -15   0   41.10   13.40
   8   7   0   43.00   13.10
  -8  15   0   71.39   13.10
  -8  15   0   70.39   15.20
  -7  -8   0  101.59   21.00
  -7  -8   0   82.89   14.50
  15  -7   0   78.49   14.50
  15  -8   0   81.09   14.50
  -8  -7   0   76.49   14.40
  -7  15   0   91.99   15.30
  15  -7   0   87.89   14.40
  15  -8   0   91.29   14.60
  -7  15   0   67.49   13.70
 -15   6   0   18.40    7.20
 -15   9   0   29.10    7.50
   9 -15   0   11.90   11.30
   9 -15   0   22.80    8.40
 -15   9   0   22.10    7.80
   6   9   0    7.00   11.30
   9 -15   0   38.90   11.20
 -15   6   0   22.60    7.80
 -15   6   0   16.70    9.10
   9   6   0   29.00    8.80
   9   6   0   16.90   12.50
   6 -15   0   10.50   11.10
 -15   9   0   44.60    9.70
   6 -15   0   16.30    8.80
   6   9   0   16.30    7.30
   6   9   0   26.70   11.50
  15  -6   0   47.80   11.00
  -9  15   0   31.10    8.20
  -6  -9   0   19.70    9.80
  -6  15   0   24.00    7.90
  15  -9   0   13.90    8.10
  -6  -9   0   23.20   12.00
  -6  15   0   20.10    8.60
  15  -6   0   19.00    7.10
  -9  -6   0   21.90    9.30
  -9  15   0   15.30    7.00
  15  -9   0   46.40   10.40
 -15  10   0  300.67   21.30
  10 -15   0  234.78   22.60
  10   5   0  280.37   23.20
  10   5   0  276.57   20.80
 -15   5   0  282.07   22.20
   5  10   0  286.57   23.40
 -15   5   0  289.77   20.10
  10 -15   0  254.47   27.20
 -15  10   0  271.47   20.20
   5 -15   0  265.97   21.40
 -15   5   0  283.27   21.50
 -15  10   0  273.37   22.70
   5  10   0  242.18   19.10
   5  10   0  265.87   27.80
  10 -15   0  257.27   20.60
  10   5   0  266.87   28.80
   5 -15   0  238.98   27.90
  -5  15   0  303.77   21.50
  15 -10   0  301.17   23.10
  -5 -10   0  232.78   29.00
  -5  15   0  250.17   23.00
  15  -5   0  304.17   22.00
 -10  15   0  275.37   22.60
 -10  -5   0  284.37   21.90
  -5 -10   0  273.27   21.50
 -10  15   0  286.07   20.40
  15 -10   0  300.07   22.40
  15  -5   0  292.77   22.20
   4 -15   0  480.45   30.40
 -15   4   0  450.05   29.80
  11 -15   0  440.46   31.10
  11   4   0  452.75   29.60
 -15   4   0  457.05   28.70
   4 -15   0  416.16   36.30
   4  11   0  443.66   31.20
   4  11   0  432.96   35.30
 -15  11   0  436.56   29.50
  11   4   0  455.15   37.20
 -15  11   0  464.75   29.10
  11 -15   0  457.55   29.40
 -15  11   0  458.65   31.20
  11 -15   0  415.46   34.90
  11   4   0  500.65   31.80
   4  11   0  430.26   27.90
 -11  15   0  452.15   28.90
  -4 -11   0  469.85   30.10
  15 -11   0  454.75   30.60
  -4  15   0  406.96   32.00
  15  -4   0  453.15   30.00
  15 -11   0  478.65   32.20
 -11  -4   0  452.45   30.10
  15  -4   0  461.55   31.10
 -11  15   0  431.16   31.00
 -11  -4   0  403.36   28.20
  -4  15   0  458.05   30.00
  -4 -11   0  409.96   36.40
  12   3   0  119.89   23.60
  12   3   0  153.48   17.90
  12 -15   0  150.48   18.20
   3 -15   0  107.39   24.10
   3  12   0  141.49   18.70
 -15  12   0  124.59   14.20
  12 -15   0  128.89   14.60
  12   3   0  123.99   15.50
 -15   3   0   96.09   16.20
   3 -15   0  134.09   17.10
 -15   3   0  131.19   13.50
   3  12   0   86.89   21.60
  12 -15   0   95.59   22.50
 -15  12   0  102.59   17.10
  15 -12   0  102.49   18.90
  -3 -12   0  108.19   25.50
  15  -3   0  150.88   22.80
  15  -3   0  109.99   15.80
  15  -3   0  116.59   17.00
 -12  -3   0  131.19   16.30
 -12  15   0  121.89   14.20
  15 -12   0  146.09   17.80
 -12  -3   0  112.39   13.50
  -3 -12   0  123.49   16.10
 -12  15   0  113.59   16.30
  -3  15   0  131.99   16.90
  13 -15   0  102.89   14.30
 -15   2   0   82.79   13.30
   2 -15   0  101.29   24.60
   2 -15   0  114.89   16.50
 -15   2   0   81.59   16.20
  13   2   0  119.99   18.30
  13   2   0   65.99   14.90
  13   2   0  102.09   15.30
  13 -15   0  100.79   17.70
   2  13   0  110.99   17.20
 -15  13   0  102.19   16.60
  13 -15   0   91.99   22.30
 -15  13   0   93.09   13.90
  -2  15   0   66.89   12.90
 -13  -2   0   99.79   15.80
  15  -2   0  119.19   24.90
  15 -13   0  115.89   17.60
  15 -13   0   93.29   13.10
  -2  15   0  142.49   17.10
  15  -2   0  112.89   16.90
 -13  15   0  103.89   17.20
 -13  15   0  101.39   13.80
  -2 -13   0  109.79   16.00
  15  -2   0  120.79   15.20
 -13  -2   0   83.79   13.20
   1 -15   0   58.49   14.10
  14 -15   0   56.59   12.10
 -15  14   0   98.09   16.60
 -15   1   0  125.79   16.30
  14 -15   0  110.39   14.30
  14   1   0   77.49   18.10
 -15   1   0   84.59   13.60
  14   1   0   99.69   15.90
 -15  14   0   85.79   14.20
   1 -15   0  106.29   16.30
  14   1   0   51.39   15.80
  14 -15   0  100.79   17.80
 -14  15   0   97.99   16.50
  15 -14   0  103.59   17.80
  -1  15   0   76.59   19.60
  15 -14   0   79.49   20.60
  15 -14   0   70.59   13.50
 -14  -1   0   87.09   13.10
  -1 -14   0  130.59   16.40
  15  -1   0   56.29   15.50
 -14  -1   0   98.39   16.10
  -1 -14   0   60.89   14.40
 -14  15   0   90.19   14.00
  15  -1   0  100.19   15.20
   0 -15   0   24.20   12.40
 -15   0   0    7.20    9.50
 -15  15   0   15.70    7.60
  15 -15   0   38.70    9.80
  15   0   0    8.00    9.50
  15 -15   0   34.30   13.30
   0 -15   0   12.90   11.00
   0  15   0    2.80    9.20
 -15  15   0   18.30    9.20
 -15   0   0   33.20   10.80
  15   0   0   27.40   14.10
   0  15   0   41.70   11.60
  15   0   0   21.50   11.30
   8 -16   0  151.78   25.30
   8 -16   0  159.38   18.10
 -16   8   0  187.18   18.20
 -16   8   0  200.18   16.40
   8   8   0  162.08   15.80
   8   8   0  172.68   26.50
   8   8   0  200.98   21.50
 -16   8   0  193.38   18.80
  -8  -8   0  185.28   24.40
  -8  16   0  177.78   17.40
  16  -8   0  205.08   19.00
  -8  16   0  176.38   19.30
  16  -8   0  204.18   18.60
  -8  -8   0  195.28   18.50
   7 -16   0   14.90    9.40
   7   9   0   14.90    8.20
   9   7   0   -7.00   12.60
   9 -16   0    8.20   11.40
 -16   7   0   13.30    7.50
   7   9   0   -4.30   12.70
   9   7   0    7.20   12.90
 -16   9   0    7.40    7.60
   9 -16   0    8.40    9.90
   7   9   0   19.10   13.00
   9   7   0   18.40    9.20
 -16   9   0   16.50    8.20
 -16   7   0   12.30    8.00
 -16   7   0   26.40   10.20
   7 -16   0   14.90   11.40
   9 -16   0   -1.00   11.40
  -7  -9   0   26.00   12.70
  16  -9   0   12.80    8.20
  -7  16   0   16.80    7.60
  -9  16   0   16.00    8.60
  -9  16   0   16.60    6.90
  -7  16   0   20.30    9.40
  -9  -7   0   20.20   10.10
  -7  -9   0   20.60   10.60
  16  -7   0   25.70   10.50
  16  -9   0   34.10   10.50
  16  -7   0   24.40    8.00
   6  10   0  202.98   21.20
  10 -16   0  159.18   26.10
 -16   6   0  195.18   19.20
  10 -16   0  161.38   17.60
   6 -16   0  161.78   25.50
   6  10   0  177.28   15.50
 -16   6   0  188.58   18.60
 -16   6   0  175.38   16.70
   6 -16   0  197.58   18.70
 -16  10   0  189.78   16.50
 -16  10   0  185.38   19.40
   6  10   0  162.48   25.60
 -16  10   0  227.68   18.60
  10   6   0  196.98   19.40
  10   6   0  197.48   17.50
  10 -16   0  165.88   19.80
  10   6   0  169.88   28.50
  -6  16   0  180.38   20.00
  16  -6   0  191.18   19.10
 -10  16   0  196.88   17.20
  -6  16   0  188.18   17.80
  16  -6   0  191.48   18.90
  -6 -10   0  192.48   18.50
 -10  -6   0  172.98   18.50
  16 -10   0  192.18   19.80
  16 -10   0  219.68   19.20
 -10  16   0  175.58   18.90
  -6 -10   0  164.98   25.70
   5 -16   0   23.70   13.80
   5  11   0   48.10    9.50
  11   5   0   66.19   11.70
  11 -16   0   39.30   12.40
 -16   5   0   33.60    8.50
 -16  11   0   39.00    9.00
  11 -16   0   43.40   12.70
 -16   5   0   43.00   10.80
   5  11   0   23.10   12.50
  11 -16   0   27.20   10.10
   5  11   0    7.90   13.20
 -16  11   0   41.60    9.40
  11   5   0   37.70    9.70
  11   5   0   39.10   13.60
   5 -16   0   41.90   10.90
 -16   5   0   49.40    9.20
  16  -5   0   27.80    8.80
  -5  16   0   28.80    8.60
  -5 -11   0   19.90   13.50
  16 -11   0   58.19   12.00
  16 -11   0   59.29   17.20
 -11  16   0   59.39   14.40
  -5  16   0   72.89   14.50
 -11  16   0   33.70    8.50
 -11  -5   0   33.10   11.50
  -5 -11   0   47.60   10.70
  16  -5   0   51.89   12.10
 -16   4   0  170.08   16.40
   4 -16   0  194.38   19.60
  12   4   0  184.78   18.60
  12   4   0  178.38   21.00
 -16  12   0  189.28   17.80
   4  12   0  162.68   24.70
 -16  12   0  198.58   19.10
  12 -16   0  182.08   20.50
 -16  12   0  176.98   19.80
  12 -16   0  195.38   25.20
   4  12   0  179.58   21.70
   4 -16   0  162.88   27.20
 -16   4   0  185.98   18.60
  12 -16   0  169.68   17.30
  12   4   0  152.78   28.20
  16  -4   0  176.78   19.90
 -12  16   0  162.48   18.80
 -12  -4   0  189.08   18.90
  -4  16   0  168.68   20.50
  -4 -12   0  198.08   27.10
  16  -4   0  195.58   18.50
  16 -12   0  184.08   20.90
  -4  16   0  217.68   18.70
  16 -12   0  213.88   20.30
 -12  -4   0  159.18   15.90
  -4 -12   0  211.78   18.50
 -12  16   0  213.08   17.20
 -16  13   0  171.38   16.80
 -16   3   0  164.98   16.50
  13 -16   0  186.28   16.90
   3 -16   0  169.78   26.90
  13   3   0  166.18   26.80
 -16  13   0  162.98   19.40
  13 -16   0  180.08   20.60
  13   3   0  173.48   20.90
   3 -16   0  196.68   19.40
 -16   3   0  164.08   18.70
   3  13   0  179.38   20.20
  13   3   0  175.38   18.90
 -13  16   0  167.38   16.90
 -13  -3   0  151.08   16.30
  16  -3   0  166.68   18.10
 -13  16   0  180.58   19.20
 -13  -3   0  168.28   19.10
  -3  16   0  189.18   19.30
  16 -13   0  192.38   20.10
  -3 -13   0  199.18   18.80
  -3 -13   0  174.58   28.00
  16  -3   0  174.88   19.70
  16  -3   0  214.58   27.20
  14   2   0   73.19   15.70
  14 -16   0   88.79   14.60
 -16  14   0   61.79   16.40
 -16  14   0   70.69   11.20
   2 -16   0   43.20   21.80
   2  14   0  107.59   17.90
  14   2   0   50.09   15.40
   2 -16   0  108.99   17.70
 -16   2   0   63.79   11.10
  14 -16   0   74.19   14.30
 -16   2   0   78.89   13.30
  16  -2   0   65.29   15.40
  -2  16   0  122.39   17.40
 -14  16   0   85.89   14.40
  16 -14   0   76.09   13.00
 -14  -2   0   78.79   11.30
  -2 -14   0   68.49   11.90
 -14  -2   0   75.49   13.30
  16 -14   0  106.09   17.90
 -14  16   0   55.89   15.50
  16  -2   0   78.09   17.40
  -2 -14   0   55.19   16.00
  16  -2   0   99.89   15.20
  15 -16   0  108.89   19.20
  15   1   0   94.59   16.60
   1 -16   0  104.09   17.50
  15 -16   0   82.99   15.10
 -16   1   0   96.69   16.90
  15   1   0   99.49   19.20
 -16  15   0   76.69   17.50
 -16  15   0   84.29   14.80
   1  15   0  123.29   18.70
 -16   1   0   63.59   11.50
  16  -1   0   60.59   16.50
 -15  -1   0   95.69   17.10
 -15  -1   0   73.29   11.40
 -15  16   0   83.89   14.90
  16 -15   0   81.79   11.70
  16  -1   0  102.99   16.40
  16  -1   0   78.59   19.50
 -15  16   0   63.09   17.00
  16 -15   0  117.29   18.60
  16 -16   0    5.00   10.40
  16 -16   0   20.80   13.40
 -16   0   0   12.10   11.40
 -16  16   0    6.50   10.60
  16   0   0   19.30    9.90
  16   0   0   23.30   12.90
  16   0   0   -5.90   15.70
   0 -16   0    0.80   11.10
 -16   0   0  -20.90   10.10
 -17   9   0   69.09   16.30
   8   9   0   70.49   15.30
   9   8   0   52.39   14.70
   8 -17   0   39.40   14.20
   8 -17   0   64.19   12.20
   8   9   0   76.19   12.90
 -17   8   0   78.79   16.00
   9 -17   0   62.29   13.10
 -17   9   0   66.79   10.40
   9 -17   0   70.59   12.00
 -17   8   0   74.09   14.00
 -17   9   0   98.29   16.30
   9   8   0   65.89   13.20
   9   8   0   80.79   15.90
  17  -9   0   89.39   17.30
  17  -9   0   96.69   16.20
  17  -8   0   78.59   13.20
  -8  -9   0   94.59   16.20
  -8  -9   0   53.69   13.60
  17  -8   0   77.29   16.30
  -9  -8   0   84.79   16.10
  -8  17   0   90.09   17.10
  -9  17   0   69.29   14.40
  -8  17   0   70.99   14.70
  -9  17   0   73.29   15.60
  10   7   0  166.08   20.10
   7  10   0  162.68   16.50
  10 -17   0  170.48   18.40
  10   7   0  143.59   28.50
   7  10   0  132.69   26.80
  10 -17   0  144.69   20.50
 -17  10   0  192.78   17.50
   7  10   0  200.98   23.00
 -17   7   0  160.38   19.90
   7 -17   0  158.48   30.70
  10   7   0  177.28   17.60
 -17   7   0  184.88   19.60
 -17   7   0  201.58   17.10
 -17  10   0  188.48   20.30
  10   7   0  194.68   23.30
   7 -17   0  187.48   19.20
  17  -7   0  208.48   20.40
  17  -7   0  207.68   19.90
 -10  -7   0  220.18   19.60
  17 -10   0  228.38   19.60
  -7 -10   0  214.28   19.30
 -10  17   0  181.58   19.40
  17 -10   0  207.08   20.60
  -7 -10   0  196.28   27.70
  -7  17   0  213.98   18.80
 -10  17   0  222.18   18.00
  -7  17   0  186.08   27.90
  11 -17   0  317.47   38.10
 -17  11   0  404.26   27.10
 -17   6   0  376.06   28.60
  11 -17   0  346.67   29.50
 -17   6   0  361.26   28.30
   6  11   0  408.46   30.30
  11   6   0  391.56   27.50
  11   6   0  362.96   37.40
 -17  11   0  394.56   29.40
  11   6   0  432.06   30.40
   6  11   0  321.27   35.10
 -17  11   0  431.76   28.80
  11 -17   0  396.06   27.90
 -17   6   0  419.06   27.40
   6 -17   0  426.66   28.90
  17 -11   0  448.26   28.60
  17  -6   0  424.56   29.50
  17 -11   0  399.26   30.50
 -11  17   0  408.76   30.40
  -6 -11   0  349.57   35.50
 -11  -6   0  398.06   28.60
  -6  17   0  414.46   27.90
  17  -6   0  417.66   28.30
  -6 -11   0  444.36   28.30
 -11  17   0  392.66   26.80
 -17  12   0  486.55   31.60
 -17  12   0  421.16   32.10
 -17  12   0  457.25   29.70
  12 -17   0  436.46   30.30
   5  12   0  475.55   33.20
 -17   5   0  441.46   31.00
  12   5   0  479.25   39.10
  12 -17   0  432.86   32.20
   5 -17   0  451.15   31.00
  12   5   0  471.95   33.40
   5  12   0  404.26   36.00
 -17   5   0  461.05   29.70
  12   5   0  441.16   32.80
  17 -12   0  423.46   32.70
  -5 -12   0  464.55   30.60
  -5 -12   0  352.36   38.00
  17 -12   0  475.05   31.20
 -12  -5   0  451.45   30.80
  17  -5   0  421.26   32.40
  -5  17   0  469.15   30.40
 -12  17   0  456.65   29.50
  17  -5   0  430.66   30.40
 -17  13   0   65.29   17.50
  13   4   0   53.79   15.90
 -17   4   0   46.00   12.80
 -17   4   0   79.79   14.10
  13 -17   0   66.09   11.40
  13 -17   0   84.59   18.20
   4 -17   0   80.99   13.40
 -17  13   0   66.59   11.70
   4  13   0   89.09   18.70
  13   4   0  100.79   16.40
  13   4   0   89.89   18.00
  -4  17   0  122.59   18.70
 -13  -4   0   89.29   16.90
  17  -4   0   70.29   17.70
 -13  -4   0   48.30   10.40
 -13  17   0   71.19   14.10
  17 -13   0  110.59   17.80
  -4 -13   0   55.19   15.50
  17  -4   0   99.79   15.40
   3  14   0  465.05   30.90
   3  14   0  351.56   36.80
  14 -17   0  402.26   31.00
 -17   3   0  432.26   30.10
  14   3   0  380.36   37.90
  14 -17   0  430.16   29.00
  14   3   0  432.86   29.80
   3 -17   0  453.45   30.30
 -17  14   0  427.66   28.80
 -17  14   0  389.06   30.40
 -17   3   0  371.46   28.10
  14   3   0  437.86   32.60
  17 -14   0  411.86   30.30
  -3 -14   0  433.96   29.70
  -3  17   0  448.86   37.60
 -14  -3   0  356.86   27.70
  17 -14   0  344.67   34.00
  17  -3   0  430.06   31.30
  -3 -14   0  414.56   39.60
  17  -3   0  421.26   29.40
  17  -3   0  426.06   38.60
 -14  17   0  454.25   28.40
 -14  -3   0  403.26   29.50
   2 -17   0   81.09   14.90
 -17  15   0   76.69   15.80
 -17   2   0   73.09   13.10
  15   2   0   74.69   13.70
   2  15   0   77.29   16.60
  15 -17   0   64.49   12.20
  15 -17   0   76.29   15.60
 -15  -2   0   57.59   12.30
  17 -15   0   99.89   18.70
 -15  -2   0   55.79   11.70
  -2 -15   0   71.79   13.00
  -2  17   0  106.19   17.70
   1 -17   0   24.70   12.30
  16 -17   0   25.00   11.80
  16 -17   0   35.40   14.40
 -17   1   0    8.60   11.60
 -17  16   0   16.20   13.60
 -17   1   0   39.80   12.30
  16   1   0   42.70   13.40
   1  16   0   42.70   14.60
  16   1   0   20.40   15.50
  17 -16   0   47.60   14.40
 -16  17   0   36.30   11.40
 -16  -1   0   24.90   13.00
  17 -16   0   39.80   11.40
 -16  -1   0    4.10   11.40
  -1  17   0   46.90   14.60
  17  -1   0   45.80   13.70
  17  -1   0   39.00   10.80
  -1 -16   0   30.40   13.10
  17  -1   0   47.40   16.50
 -17   0   0   -3.60   11.20
  17 -17   0   27.70   16.70
  17   0   0   24.20   12.40
   0 -17   0   16.50   13.00
   0  17   0    7.70   13.40
 -17   0   0   -6.60   12.20
  17   0   0   -5.90   11.00
  17 -17   0   -1.40   11.60
 -17  17   0   14.80   10.80
 -18   9   0  402.66   28.80
 -18   9   0  444.86   30.20
   9   9   0  472.05   33.30
   9 -18   0  456.85   30.10
   9   9   0  391.26   28.20
 -18   9   0  361.16   30.80
   9   9   0  354.76   37.90
  18  -9   0  422.86   34.30
  -9  -9   0  452.95   31.90
  -9  18   0  452.85   32.40
  18  -9   0  439.36   31.50
 -18   8   0  174.68   18.00
  10   8   0  166.48   17.20
  10   8   0  130.39   28.90
  10 -18   0  185.98   18.80
 -18   8   0  133.59   19.80
  10 -18   0  194.88   23.40
  10   8   0  149.49   20.50
 -18  10   0  138.39   20.20
   8  10   0  156.48   17.70
   8 -18   0  186.78   19.60
   8  10   0  179.98   23.90
 -18  10   0  177.08   17.50
 -18   8   0  171.78   20.00
 -18  10   0  142.69   20.80
  10   8   0  162.48   24.10
  18  -8   0  175.58   20.20
 -10  -8   0  190.48   19.70
  18 -10   0  195.68   20.70
  -8  18   0  178.18   19.30
  -8 -10   0  187.08   26.10
  18 -10   0  174.08   24.40
 -10  18   0  195.58   22.00
  18  -8   0  193.88   19.80
   7  11   0   31.80   14.40
  11   7   0   -1.10   14.20
  11   7   0   11.90    9.90
   7 -18   0   26.60   10.90
 -18   7   0   29.80   10.40
  11   7   0   17.00   11.40
 -18   7   0    2.30   11.80
 -18   7   0    3.00    8.60
  11 -18   0   14.80   12.90
  11   7   0   22.70   16.30
 -18  11   0   22.10    8.80
  11 -18   0   21.90   10.70
 -18  11   0   10.60    9.90
 -11  -7   0   30.60   11.00
  -7 -11   0   24.30   14.70
  -7  18   0   30.80   11.00
  18 -11   0   44.00   15.10
  18 -11   0   18.50    9.60
 -11  18   0   17.60   11.10
  -7 -11   0   21.60   10.50
  18  -7   0   31.70   11.90
 -18  12   0  142.19   19.50
  12   6   0  179.18   18.30
   6  12   0   97.79   26.70
  12   6   0  169.78   21.00
 -18  12   0  147.69   17.60
 -18   6   0  168.68   19.40
   6  12   0  140.19   22.10
  12 -18   0  163.28   18.30
 -18   6   0  151.48   17.30
   6 -18   0  154.28   19.40
  12 -18   0  154.68   20.30
  18 -12   0  122.49   21.20
  18  -6   0  136.19   19.80
  18 -12   0  190.48   22.00
  -6  18   0  159.88   18.00
  -6 -12   0  106.49   27.70
  -6 -12   0  161.08   18.20
 -12  18   0  166.78   17.00
 -12  -6   0  159.58   19.10
  18  -6   0  161.88   17.80
  13   5   0  874.91   60.29
   5  13   0  909.71   54.09
   5 -18   0  931.81   53.29
   5  13   0  795.02   61.89
  13 -18   0  799.32   53.29
 -18   5   0  822.92   51.69
  13 -18   0  883.41   52.19
 -18   5   0  875.71   52.99
 -18  13   0  812.52   54.09
 -18  13   0  920.81   52.09
  13   5   0  919.81   52.89
  13   5   0  819.12   54.79
  -5  18   0  858.91   51.99
  -5 -13   0  887.11   52.39
  18 -13   0  858.71   52.99
 -13  18   0  869.71   51.49
 -13  -5   0  863.31   52.49
  18  -5   0  830.62   54.09
  -5 -13   0  734.93   60.69
  18  -5   0  793.52   51.79
   4  14   0  216.08   22.90
   4 -18   0  171.88   21.00
 -18  14   0  162.78   21.60
 -18   4   0  189.28   18.80
 -18  14   0  223.88   19.70
 -18   4   0  201.18   21.50
  14   4   0  211.78   31.40
  14   4   0  160.48   23.50
  14   4   0  238.28   21.20
  14 -18   0  200.68   22.90
  14 -18   0  228.48   20.00
  18 -14   0  181.58   20.90
 -14  -4   0  198.18   20.90
  -4  18   0  219.58   20.50
  -4 -14   0  200.68   20.30
  18  -4   0  192.48   19.00
 -14  18   0  199.18   18.60
  18  -4   0  152.68   22.30
  18  -4   0  212.58   30.30
 -18   3   0   87.39   17.70
  15 -18   0  124.69   17.70
   3  15   0  138.39   20.90
  15   3   0  143.19   19.70
  15   3   0  172.28   21.70
 -18   3   0  126.39   20.10
   3 -18   0  133.39   19.80
 -18  15   0  116.89   18.10
  15 -18   0  144.89   21.30
  18  -3   0  137.69   17.70
 -15  -3   0  113.89   19.50
 -15  18   0  129.29   16.80
  18 -15   0  136.59   19.00
  -3 -15   0  138.19   19.00
  -3  18   0  141.79   18.90
  18  -3   0  148.39   29.60
  16   2   0  247.68   27.30
  16 -18   0  254.37   23.00
  16 -18   0  262.07   25.40
  16   2   0  221.88   35.30
 -18   2   0  245.68   23.90
   2 -18   0  302.07   24.20
   2  16   0  293.27   25.10
 -18  16   0  269.47   22.10
 -16  -2   0  238.68   27.80
  18 -16   0  278.07   24.00
  18  -2   0  259.47   22.80
  -2 -16   0  271.37   23.30
 -16  -2   0  225.68   22.30
  18  -2   0  220.98   33.30
  -2  18   0  279.67   23.80
 -16  18   0  260.97   21.60
   1 -18   0   51.89   14.40
   1  17   0   56.49   14.50
  17   1   0   65.69   14.60
 -18   1   0   32.90   13.90
  17 -18   0   68.69   24.00
 -18  17   0   50.99   12.00
  17 -18   0   53.39   13.20
 -17  -1   0   25.10   12.70
  -1  18   0   49.90   13.30
  -1 -17   0   40.30   13.10
  18  -1   0   66.79   14.30
 -17  18   0   61.19   12.70
  18 -17   0   56.79   15.00
  18 -17   0   56.69   15.20
  18   0   0   26.20   13.80
   0  18   0   34.40   14.20
   0 -18   0   28.00   13.50
  18 -18   0   47.50   15.30
 -18   0   0   16.70   15.20
 -18  18   0   38.50   11.50
 -19  10   0  120.99   18.90
  10   9   0   57.69   18.10
  10   9   0   31.30   16.30
 -19  10   0   49.60   12.70
   9 -19   0   66.09   13.00
 -19   9   0   86.59   16.30
 -19   9   0  101.49   18.80
   9  10   0   77.89   18.40
  10 -19   0   74.79   12.90
  19  -9   0  106.29   17.50
 -10  -9   0   64.09   12.60
  19  -9   0   96.29   19.20
  19 -10   0   89.79   17.60
  -9  19   0   58.69   11.20
  -9 -10   0   49.99   11.90
 -10  19   0   84.79   15.10
  11   8   0  257.87   22.40
 -19   8   0  234.98   24.40
 -19  11   0  253.57   25.10
  11   8   0  189.38   33.30
 -19   8   0  255.27   24.30
   8 -19   0  278.37   24.00
  11 -19   0  285.17   23.30
  11   8   0  226.78   25.70
   8  11   0  295.17   26.60
  11   8   0  301.37   28.90
 -19  11   0  273.57   22.20
 -19   8   0  298.67   22.50
 -19  11   0  299.37   30.60
  19 -11   0  259.47   25.90
  -8 -11   0  274.27   31.70
  19 -11   0  272.57   23.50
 -11  -8   0  281.77   23.70
  19  -8   0  278.37   22.80
  19  -8   0  268.77   25.20
  -8  19   0  309.47   22.30
 -11  19   0  268.47   21.30
  -8 -11   0  256.87   23.00
  12   7   0  487.65   34.00
  12 -19   0  378.56   30.60
 -19   7   0  348.77   30.10
 -19  12   0  397.86   31.20
 -19   7   0  379.76   29.90
  12   7   0  298.97   38.80
  12   7   0  412.46   28.80
   7 -19   0  397.16   37.30
  12 -19   0  433.36   29.20
 -19   7   0  390.26   28.20
  12   7   0  369.76   31.70
 -19  12   0  440.76   28.20
   7  12   0  448.06   32.20
 -12  19   0  397.56   27.30
  19 -12   0  321.97   31.40
  -7  19   0  417.46   28.50
  19  -7   0  371.86   28.30
 -12  -7   0  402.96   28.90
  19  -7   0  408.66   30.60
  -7 -12   0  381.36   28.50
  19 -12   0  410.16   29.20
   6 -19   0   59.99   13.90
 -19  13   0   79.49   16.00
   6  13   0   42.00   19.40
 -19  13   0  102.29   17.90
  13 -19   0   88.19   17.00
 -19   6   0   45.90   14.40
  13 -19   0   69.49   16.00
  13   6   0   71.39   14.40
 -19   6   0   70.19   12.90
  -6 -13   0   54.99   13.10
  -6  19   0   55.29   12.30
  19  -6   0   78.49   16.10
 -13  19   0   54.29   11.20
 -13  -6   0   59.29   12.70
  19 -13   0   97.99   17.70
  14 -19   0  489.65   36.30
  14   5   0  562.64   35.60
   5 -19   0  574.44   35.90
  14   5   0  466.45   38.20
   5  14   0  558.44   36.50
  14 -19   0  504.35   34.40
 -19  14   0  558.64   34.70
  14   5   0  472.05   46.50
 -19   5   0  479.95   35.90
 -19   5   0  498.95   34.00
 -14  -5   0  499.15   35.00
  -5  19   0  492.65   34.00
  19  -5   0  497.25   36.60
  19  -5   0  515.15   45.50
  19  -5   0  465.55   33.50
  19 -14   0  485.95   34.80
 -14  19   0  525.45   33.20
  -5 -14   0  503.65   34.40
  15   4   0  723.03   57.99
  15   4   0  720.53   50.79
 -19   4   0  751.82   47.90
  15 -19   0  745.13   46.90
  15 -19   0  688.43   48.30
  15   4   0  796.92   47.90
 -19  15   0  799.32   48.40
 -19   4   0  709.53   46.60
   4  15   0  828.12   48.50
   4 -19   0  816.82   47.80
  -4 -15   0  721.23   47.00
 -15  19   0  789.92   46.10
  19  -4   0  664.73   46.00
  19 -15   0  722.93   46.90
  -4  19   0  711.83   46.70
 -15  -4   0  702.63   46.90
  16 -19   0  157.88   22.40
  16   3   0  133.79   20.90
   3 -19   0  156.68   20.50
 -19   3   0  134.79   21.00
 -19  16   0  179.78   19.50
   3  16   0  147.69   22.30
  16 -19   0  153.98   19.60
 -16  -3   0  124.29   19.90
  -3 -16   0  137.39   19.40
  -3  19   0  154.18   19.70
  19 -16   0  142.89   20.40
 -16  19   0  134.69   17.50
  19  -3   0  139.59   18.50
 -19   2   0   72.59   16.00
 -19  17   0  125.89   18.30
 -19   2   0   68.69   14.90
  17 -19   0  104.19   16.10
   2  17   0  113.69   21.20
  17 -19   0   97.59   22.30
  17   2   0  137.79   20.60
   2 -19   0  113.99   20.00
  19 -17   0   98.69   19.70
 -17  19   0  123.59   17.10
  -2  19   0  121.09   19.40
 -17  -2   0   81.79   16.00
  19  -2   0  119.09   18.20
  -2 -17   0   75.49   15.40
 -19  18   0  126.49   18.30
  18 -19   0  103.79   20.50
   1 -19   0  108.49   20.00
  18   1   0  114.89   19.40
   1  18   0  106.49   20.90
 -19   1   0   85.49   16.80
  19 -18   0  112.59   20.20
 -18  -1   0   94.39   16.40
  -1 -18   0   94.39   19.30
  19  -1   0  111.19   18.20
  -1  19   0  104.09   20.00
 -18  19   0  110.09   17.30
 -19   0   0   46.40   14.90
   0  19   0   73.19   16.10
   0 -19   0   77.79   16.60
 -19  19   0  110.39   17.80
  19 -19   0   88.69   17.50
 -19   0   0   70.39   15.20
  19   0   0   99.89   19.70
 -20  10   0  193.18   19.90
  10 -20   0  142.99   23.30
  10  10   0  167.88   26.70
 -20  10   0  120.49   21.90
 -10  20   0  168.18   18.40
 -10 -10   0  154.38   19.50
  20 -10   0  215.28   23.10
  20 -10   0  181.18   19.70
 -20   9   0  173.08   19.00
   9 -20   0  135.99   21.30
  11   9   0  150.58   25.70
  11   9   0  110.59   22.30
  11 -20   0  159.78   19.60
 -20   9   0  117.99   21.20
   9  11   0  127.19   24.00
 -20  11   0  109.99   18.70
 -11  20   0  119.09   16.50
  20 -11   0  145.19   19.10
  20  -9   0  163.78   22.50
  20 -11   0  145.69   22.60
 -11  -9   0  113.19   19.00
  20  -9   0  118.29   18.40
  -9  20   0  124.59   17.20
  -9 -11   0  120.09   18.50
  12   8   0    6.20   11.10
  12   8   0   10.00   16.40
 -20   8   0   30.00   15.70
 -20   8   0   18.80   12.50
  12   8   0   28.30   19.00
  12   8   0   28.90   14.10
 -20   8   0   70.79   19.00
 -20  12   0   36.00   10.10
  12 -20   0   37.60   13.70
   8 -20   0   12.10   13.40
 -20  12   0   24.30   11.90
 -12  -8   0   25.50   12.20
  -8  20   0   29.60   10.90
 -12  20   0   17.00   10.80
  20 -12   0   33.80   13.20
  -8 -12   0   34.90   12.60
  20  -8   0   28.40   12.00
  20  -8   0   75.39   19.90
  13   7   0  262.37   27.90
 -20   7   0  268.57   23.70
  13   7   0  281.47   24.20
  13 -20   0  287.87   23.90
 -20  13   0  288.07   23.60
   7  13   0  242.68   27.70
   7 -20   0  327.47   24.80
  13   7   0  307.47   30.70
  13   7   0  217.18   36.40
 -20   7   0  262.67   26.30
  -7 -13   0  263.57   23.30
  -7  20   0  259.07   23.30
 -13  20   0  264.27   22.10
 -13  -7   0  243.68   24.30
  20 -13   0  282.57   24.50
  20  -7   0  253.87   22.70
 -20   6   0  451.15   37.10
  14   6   0  611.94   40.40
 -20  14   0  542.95   36.90
  14   6   0  572.84   49.70
  14 -20   0  492.45   37.40
   6  14   0  542.95   37.60
  14   6   0  516.75   36.20
  14 -20   0  507.65   35.50
 -20   6   0  512.75   35.20
   6 -20   0  572.54   36.50
  20 -14   0  522.95   35.70
  20  -6   0  461.15   34.10
  -6 -14   0  463.25   34.90
 -14  -6   0  503.15   35.40
 -14  20   0  527.55   34.00
  -6  20   0  525.45   35.10
  15   5   0   58.39   16.00
   5  15   0   56.59   17.60
   5 -20   0   35.40   14.00
 -20   5   0   67.09   15.60
  15 -20   0   44.30   16.70
 -20   5   0   25.30   13.60
 -20  15   0   45.60   13.30
  15 -20   0   45.70   13.70
  -5 -15   0   27.10   12.50
 -15  -5   0   41.40   13.00
 -15  20   0   47.70   11.60
  20 -15   0   64.39   14.70
  -5  20   0   26.40   12.40
  20  -5   0   82.29   16.30
  16 -20   0  169.68   21.60
   4  16   0  210.58   24.30
  16   4   0  248.78   24.10
 -20  16   0  226.88   21.30
   4 -20   0  233.48   22.80
  16 -20   0  159.68   23.70
 -20   4   0  194.48   23.70
 -20   4   0  190.38   21.70
  -4  20   0  180.38   20.80
  20 -16   0  199.68   22.40
  -4 -16   0  175.08   21.80
 -16  -4   0  179.18   22.10
  20  -4   0  186.38   20.50
 -16  20   0  195.28   19.50
  17 -20   0  203.78   23.00
   3 -20   0  205.08   22.90
 -20   3   0  152.38   31.10
   3  17   0  221.38   24.50
 -20  17   0  212.78   21.70
 -20   3   0  176.38   21.30
  17   3   0  212.48   23.80
  17 -20   0  179.68   23.80
  -3  20   0  197.28   21.50
 -17  20   0  186.68   20.10
  20 -17   0  203.28   22.70
 -17  -3   0  166.98   22.20
  -3 -17   0  179.58   22.00
  20  -3   0  199.38   21.20
  18 -20   0   48.40   17.30
 -20   2   0   15.40   14.50
   2 -20   0   53.89   15.50
  18   2   0   64.29   16.40
   2  18   0   32.10   16.30
 -20   2   0   19.60   15.60
 -20  18   0   54.59   14.60
  20  -2   0   41.40   14.40
  20 -18   0   41.10   16.50
 -18  -2   0   25.30   14.30
  -2 -18   0   36.30   13.70
  -2  20   0   45.10   14.20
 -18  20   0   46.20   12.40
 -20  19   0   78.79   14.90
  19   1   0   46.40   17.30
   1 -20   0   66.99   16.10
  19 -20   0   85.79   17.70
 -20   1   0   39.00   15.40
   1  19   0   64.59   15.80
  -1 -19   0   36.90   15.60
  20 -19   0   78.19   17.10
 -19  -1   0   23.30   15.80
  20  -1   0   59.09   15.60
  -1  20   0   59.09   15.20
 -19  20   0   65.19   13.90
  20 -20   0   72.39   17.80
  20   0   0   44.30   16.40
   0  20   0   23.20   15.20
 -20  20   0   34.30   14.10
 -20   0   0   -8.60   15.90
   0 -20   0   30.80   15.20
  11 -21   0  -13.10   12.50
  10 -21   0    8.60   14.00
  10  11   0    3.30   16.80
 -21  10   0   30.90   13.30
  11  10   0  -43.30   23.20
 -21  11   0    7.90   12.90
 -10  21   0    3.80   11.00
 -11  21   0    2.20    9.90
 -10 -11   0    6.20   11.70
  21 -10   0    7.30   12.70
 -11 -10   0   -0.90   11.80
  21 -11   0    3.60   12.90
  12 -21   0   38.60   13.80
 -21   9   0   24.00   13.60
 -21  12   0  -15.90   23.70
  12   9   0   69.19   35.40
   9  12   0   39.40   18.10
   9 -21   0   41.20   14.20
  21 -12   0   63.79   14.20
 -12  -9   0   31.30   13.90
 -12  21   0   24.70   11.40
  -9 -12   0   41.90   12.70
  21  -9   0   42.20   12.50
  -9  21   0   50.19   12.90
 -21  13   0  200.58   21.90
 -21   8   0  234.78   21.90
  13   8   0  212.08   23.30
   8 -21   0  213.38   23.80
  13   8   0  282.77   32.20
   8  13   0  201.48   26.50
 -13  -8   0  176.78   21.60
  -8  21   0  195.98   20.30
  21 -13   0  185.58   21.90
  -8 -13   0  168.38   20.80
  21  -8   0  182.38   20.20
 -13  21   0  199.18   19.40
  14   7   0   48.70   15.80
 -21   7   0   16.50   13.20
   7  14   0   31.00   16.70
  14   7   0   56.49   22.40
 -21   7   0  -10.40   17.40
   7 -21   0   37.10   15.30
  14 -21   0   14.90   16.30
 -21  14   0   26.10   13.10
  21 -14   0   55.69   15.50
  -7  21   0   24.60   12.60
 -14  -7   0   17.60   13.50
 -14  21   0   23.40   11.30
  -7 -14   0   23.40   12.70
  21  -7   0   36.60   12.40
 -21   6   0  184.38   22.00
  15 -21   0  211.18   25.20
 -21  15   0  261.07   23.10
  15 -21   0  255.47   23.50
 -21   6   0  217.88   26.00
   6 -21   0  255.67   23.90
   6  15   0  229.38   25.80
  21  -6   0  202.98   20.70
 -15  21   0  187.48   20.10
  -6  21   0  214.78   21.70
 -15  -6   0  204.18   23.20
  21 -15   0  213.68   23.30
  -6 -15   0  178.68   22.10
   5  16   0  326.87   28.60
 -21   5   0  253.27   25.60
  16 -21   0  245.38   28.10
 -21   5   0  273.27   28.50
  16 -21   0  338.17   26.60
  16   5   0  299.07   26.80
 -21  16   0  323.87   25.70
   5 -21   0  320.97   26.90
  -5 -16   0  299.57   25.40
  21  -5   0  268.27   24.30
 -16  -5   0  262.67   25.50
  -5  21   0  298.07   25.20
 -16  21   0  297.67   23.90
  21 -16   0  273.87   26.00
 -21   4   0   24.00   16.70
   4  17   0   -5.20   17.00
  17 -21   0   55.69   21.20
 -21  17   0   36.50   13.80
  17   4   0   21.60   16.50
   4 -21   0   33.50   14.90
  17 -21   0   23.80   18.00
  21 -17   0   32.10   15.60
 -17  21   0   20.50   12.80
  -4 -17   0   23.70   13.70
 -17  -4   0   23.80   15.20
  21  -4   0   26.10   13.70
  -4  21   0    1.80   12.00
  18   3   0   66.89   19.00
  18 -21   0   64.79   18.20
 -21  18   0   52.69   14.90
   3 -21   0   63.59   16.40
   3  18   0   51.99   16.70
  -3  21   0   42.20   13.50
  21  -3   0   57.79   14.70
 -18  -3   0   38.00   15.20
  -3 -18   0   31.90   14.90
 -18  21   0   55.29   14.30
  21 -18   0   56.09   16.60
   2 -21   0   27.10   14.90
 -21   2   0   37.40   16.00
  19 -21   0   78.79   18.00
   2  19   0   19.50   16.60
 -21  19   0   33.10   14.40
  19   2   0   31.30   17.80
  -2  21   0    6.70   13.60
  21 -19   0   34.70   17.00
  -2 -19   0   18.30   14.40
 -19  -2   0   15.10   14.50
 -19  21   0   27.70   12.50
  21  -2   0   49.60   15.10
 -21  20   0    4.20   14.10
  20   1   0   34.10   16.90
   1 -21   0   -6.40   14.40
 -21   1   0  -24.50   16.20
  20 -21   0   27.30   18.40
   1  20   0   -3.70   15.30
  -1 -20   0    4.80   15.40
  -1  21   0    3.30   14.00
 -20  21   0   -4.70   13.60
 -20  -1   0  -14.30   15.10
  21  -1   0   19.30   15.50
  21 -20   0   -9.60   17.70
  21   0   0   10.20   16.70
 -21  21   0   12.70   14.50
   0  21   0   -6.60   15.30
  21 -21   0    6.50   18.50
 -21   0   0   16.20   16.60
   0 -21   0  -16.50   14.50
 -22  11   0   29.00   13.70
  11 -22   0    8.70   13.90
  11  11   0   16.20   18.60
 -11  22   0   20.00   10.80
 -11 -11   0    3.90   13.60
  22 -11   0   17.50   13.60
  10  12   0   13.90   18.50
  12 -22   0   38.30   15.40
  10 -22   0   33.80   15.70
 -22  10   0   20.50   21.90
  12  10   0  -17.40   21.00
 -22  12   0   30.00   14.00
  22 -12   0   38.70   14.10
  22 -10   0   35.50   13.40
 -10  22   0   43.60   11.50
 -10 -12   0   18.80   12.20
 -12 -10   0   23.50   13.00
 -12  22   0   23.50   11.80
 -22  13   0   30.30   15.90
  13 -22   0   99.29   16.50
   9  13   0   51.09   19.60
  13   9   0   95.09   22.50
   9 -22   0  102.59   18.10
  -9  22   0   55.99   12.20
  -9 -13   0   66.49   13.80
 -13  22   0   77.99   16.00
  22 -13   0   81.39   17.70
  22  -9   0   82.19   16.50
 -13  -9   0   63.39   14.90
  14 -22   0   53.69   15.50
  14   8   0  138.09   28.80
 -22   8   0   48.20   20.80
 -22  14   0   80.09   15.00
   8  14   0   64.49   18.40
   8 -22   0   64.49   17.30
  22  -8   0   79.49   16.60
 -14  -8   0   63.39   14.30
 -14  22   0   63.29   13.40
  -8  22   0   88.09   16.70
  22 -14   0   67.09   14.60
  -8 -14   0   58.19   13.60
  15   7   0  196.48   30.90
  15 -22   0  218.68   22.40
   7  15   0  184.28   25.50
  15   7   0  186.18   22.50
   7 -22   0  182.38   23.80
 -22  15   0  206.28   22.70
 -15  22   0  168.98   18.90
  -7  22   0  192.98   20.50
 -15  -7   0  152.88   22.30
  -7 -15   0  153.38   21.50
  22 -15   0  177.38   21.30
  22  -7   0  174.28   19.70
 -22  16   0   43.00   15.30
  16 -22   0   15.30   15.40
  16   6   0   45.50   17.60
   6 -22   0   42.30   15.00
   6  16   0   39.80   17.90
  16   6   0   83.69   23.70
  -6 -16   0   34.40   13.90
 -16  22   0   43.20   13.00
  22  -6   0   35.80   13.70
 -16  -6   0   36.40   14.60
  22 -16   0   48.20   16.60
  -6  22   0   37.90   12.50
 -22  17   0   71.89   16.10
  17   5   0   53.79   18.30
   5  17   0   40.00   18.10
  17 -22   0  125.69   26.20
   5 -22   0   37.00   16.50
  -5  22   0   53.69   15.40
  22  -5   0   84.99   18.10
 -17  -5   0   29.90   15.00
 -17  22   0   40.90   12.70
  -5 -17   0   50.49   14.00
  22 -17   0   74.09   17.00
  18   4   0  141.89   22.60
   4  18   0  114.19   20.10
 -22  18   0  146.39   21.10
   4 -22   0  113.29   23.20
  18 -22   0  147.69   25.00
  -4  22   0  111.69   19.70
  -4 -18   0   98.49   19.90
 -18  -4   0   90.99   17.40
  22  -4   0  110.79   19.20
  22 -18   0  130.39   20.90
 -18  22   0  129.99   18.10
   3 -22   0   20.90   15.40
 -22  19   0   28.90   14.40
  19 -22   0   23.40   19.50
  19   3   0   15.60   17.80
 -22   3   0   45.80   25.90
   3  19   0    4.30   17.60
  -3 -19   0   13.40   15.40
  22 -19   0   11.90   16.90
 -19  22   0   30.10   13.10
  22  -3   0   27.00   14.80
  -3  22   0   -4.40   13.70
  20 -22   0    5.00   19.20
   2  20   0   24.20   16.40
 -22  20   0   37.90   15.10
  20   2   0   29.50   19.60
   2 -22   0   12.20   16.10
  -2 -20   0   17.30   15.50
  -2  22   0   15.60   14.60
 -20  -2   0  -23.20   16.10
 -20  22   0   37.60   13.50
  22 -20   0   39.50   17.30
  22  -2   0   60.59   16.60
 -22  21   0   54.39   15.90
  21 -22   0   80.89   19.10
   1 -22   0   64.69   17.20
 -22   1   0   54.39   18.20
   1  21   0   41.30   18.50
  21   1   0   67.19   20.00
 -21  22   0   61.79   15.20
  22  -1   0   69.89   18.30
  22 -21   0   67.49   18.30
  -1 -21   0   36.40   16.20
  -1  22   0   76.79   16.90
  22 -22   0   43.30   18.00
  22   0   0   52.89   18.90
   0  22   0   37.60   15.60
 -22  22   0   22.50   16.20
   0 -22   0   26.60   16.10
 -23  12   0   62.39   15.30
 -23  11   0   86.19   23.10
  11  12   0   42.90   20.70
  11 -23   0   45.70   15.40
  12 -23   0   43.10   16.80
  12  11   0   59.09   20.10
 -11  23   0   34.80   12.10
 -11 -12   0   13.80   13.40
  23 -11   0   54.09   13.90
  23 -12   0   46.80   14.40
 -12  23   0   44.70   12.10
 -12 -11   0   31.10   13.50
  13  10   0  -28.00   20.20
 -23  13   0   25.30   15.00
  10  13   0   -2.20   19.30
  10 -23   0   17.40   14.90
  13 -23   0   21.80   14.90
  23 -13   0   20.20   13.90
 -10 -13   0   21.30   13.70
  23 -10   0   17.80   13.40
 -13  23   0   16.00   11.10
 -10  23   0   26.00   12.90
 -13 -10   0    8.20   13.60
   9  14   0  144.89   25.40
  14 -23   0  150.48   22.10
  14   9   0   90.29   25.50
   9 -23   0  161.08   22.90
 -23  14   0  101.09   21.80
  -9 -14   0  119.89   19.70
  23 -14   0  119.19   19.30
 -14  23   0  109.59   18.10
 -14  -9   0  131.29   20.70
  -9  23   0  145.29   18.50
  23  -9   0  130.99   18.10
   8  15   0   61.49   20.50
  15   8   0  158.78   31.00
   8 -23   0   64.09   19.50
  15 -23   0  130.29   20.80
 -23  15   0  126.29   20.90
  23 -15   0   76.69   16.20
 -15  23   0   58.69   13.10
  23  -8   0   78.49   17.20
  -8 -15   0   52.49   14.40
 -15  -8   0   69.89   14.90
  -8  23   0   85.39   17.00
   7  16   0   30.50   18.60
  16   7   0   44.50   32.60
   7 -23   0   21.20   16.50
  16 -23   0    5.00   17.50
 -23  16   0   37.80   16.60
  -7 -16   0   19.70   14.00
  -7  23   0   37.60   13.70
 -16  23   0   53.19   14.30
  23  -7   0   42.90   14.00
  23 -16   0   34.90   14.70
 -16  -7   0   34.30   14.50
 -23  17   0   89.79   16.60
   6  17   0   41.60   18.90
   6 -23   0   86.29   17.50
 -17  23   0   77.89   14.00
  -6 -17   0   52.49   14.70
  23  -6   0   88.19   15.70
  -6  23   0   89.49   17.90
 -17  -6   0   58.09   16.20
  23 -17   0   69.79   15.80
  18   5   0   -2.80   19.10
   5  18   0   13.00   18.10
 -23  18   0   13.50   15.40
   5 -23   0    3.90   16.90
 -18  23   0   17.80   12.20
  23 -18   0   21.00   15.20
  -5 -18   0    9.60   13.80
  -5  23   0   11.50   13.40
 -18  -5   0    2.30   16.30
  23  -5   0   17.30   13.90
  19   4   0    3.40   18.90
   4  19   0  -12.90   19.80
   4 -23   0   19.50   16.80
 -23  19   0   52.99   16.70
  23  -4   0   35.10   14.90
  23 -19   0   63.79   16.40
  -4 -19   0   26.50   14.90
 -19  -4   0   19.20   15.60
  -4  23   0   41.10   15.40
 -19  23   0   56.49   13.70
  20   3   0   39.60   18.30
  20 -23   0   35.70   20.80
   3  20   0    2.40   17.20
   3 -23   0   30.40   17.10
 -23  20   0   49.40   16.70
  -3 -20   0    8.40   16.50
 -20  23   0   23.20   13.40
 -20  -3   0    0.40   17.30
  23  -3   0   36.90   15.80
  -3  23   0   11.00   15.20
  23 -20   0   38.10   17.00
   2  21   0    2.10   17.20
  21 -23   0   51.79   19.10
  21   2   0   33.20   18.50
   2 -23   0   18.10   16.40
 -23  21   0    4.20   15.70
 -21  23   0   -1.30   14.70
  -2 -21   0    3.70   15.80
  -2  23   0   27.30   14.80
  23 -21   0   20.60   17.00
  23  -2   0   14.80   18.10
 -21  -2   0  -16.90   16.80
   1  22   0  107.09   19.40
 -23  22   0   95.99   17.40
   1 -23   0   81.09   18.40
  22   1   0  109.19   23.60
  22 -23   0  135.79   22.90
  23 -22   0  144.79   21.50
  -1 -22   0   95.69   17.60
  23  -1   0  124.69   23.10
  -1  23   0  110.29   21.40
 -22  23   0  109.89   19.30
  12  12   0   96.79   25.70
  12 -24   0  151.38   24.00
  24 -12   0  146.99   18.50
 -12  24   0  151.78   17.80
 -12 -12   0  132.19   20.90
  13 -24   0   18.00   16.00
  11 -24   0   22.70   16.80
  13  11   0   59.39   22.30
  11  13   0  -22.00   20.40
 -11  24   0   16.80   11.10
 -13  24   0   14.40   12.30
 -13 -11   0    1.20   13.30
 -11 -13   0   21.30   13.60
  24 -13   0   10.00   14.20
  24 -11   0   18.00   13.50
  14  10   0  102.89   23.60
  14 -24   0   82.19   17.80
 -24  14   0  127.19   22.60
  10  14   0  102.49   21.50
  10 -24   0   85.19   19.10
 -10 -14   0   69.49   16.70
 -10  24   0   93.89   17.70
  24 -10   0   97.49   17.10
 -14 -10   0   65.29   16.30
  24 -14   0   80.19   15.10
 -14  24   0   78.29   16.50
   9 -24   0   -3.40   16.60
 -24  15   0  -37.80   16.40
  15 -24   0   33.60   16.30
 -15  -9   0   -8.80   15.00
  24 -15   0   12.50   14.20
  24  -9   0   11.60   13.20
  -9 -15   0   10.20   14.20
 -15  24   0    1.60   12.10
  -9  24   0   23.70   13.60
 -24  16   0  104.89   17.50
   8 -24   0   66.89   18.90
   8  16   0   41.80   19.70
 -16  -8   0   43.10   16.60
 -16  24   0   52.09   14.20
  -8 -16   0   51.29   15.00
  24 -16   0   51.59   15.00
  24  -8   0   66.99   14.50
  -8  24   0   85.89   17.10
 -24  17   0    4.30   16.10
   7 -24   0    5.90   18.40
   7  17   0  -10.70   19.90
  -7 -17   0   20.50   14.10
  24 -17   0   25.60   15.00
 -17  -7   0   26.10   16.20
 -17  24   0   12.70   12.70
  24  -7   0   23.50   14.50
  -7  24   0   39.10   14.50
 -24  18   0   78.59   17.10
   6 -24   0   51.59   18.40
   6  18   0   76.89   20.50
 -18  24   0   68.29   15.10
  24  -6   0   81.59   15.80
  -6  24   0   92.19   18.20
  -6 -18   0   56.19   15.30
  24 -18   0   88.59   17.10
 -18  -6   0   58.49   16.10
   5  19   0  -47.70   20.80
  19   5   0   64.79   20.10
   5 -24   0   17.60   17.00
 -24  19   0   18.80   16.30
 -19  24   0   25.40   14.60
  24 -19   0   31.50   16.00
  24  -5   0   13.00   14.50
  -5 -19   0   -0.10   14.40
 -19  -5   0   -3.40   15.60
  -5  24   0   13.70   13.80
 -24  20   0  -22.40   16.30
  20   4   0    9.60   20.50
   4 -24   0   -8.80   17.60
   4  20   0    9.10   18.10
  24 -20   0   32.20   16.60
  24  -4   0   41.40   15.80
  -4  24   0   12.40   14.20
  -4 -20   0  -18.50   16.00
 -20  24   0   12.40   13.60
 -20  -4   0   20.10   16.80
  12  13   0   61.89   22.50
  12 -25   0   79.39   18.10
  13 -25   0   54.89   17.50
  25 -12   0   66.99   14.50
 -13 -12   0   60.49   15.60
 -12 -13   0   57.89   16.00
 -13  25   0   70.79   15.00
  25 -13   0   74.29   15.50
 -12  25   0   64.69   14.20
  14  11   0   45.20   26.30
  11 -25   0   89.99   18.10
  11  14   0   37.30   21.90
  14 -25   0   89.19   19.20
 -11  25   0   67.69   13.20
 -14 -11   0   39.40   14.80
  25 -11   0   76.19   14.50
  25 -14   0   58.29   15.20
 -14  25   0   59.59   13.90
 -11 -14   0   59.79   15.20
  10 -25   0   17.80   17.90
  15 -25   0   40.40   17.80
 -25  15   0   29.00   20.50
 -10 -15   0   14.60   15.30
  25 -10   0   40.10   14.70
 -15  25   0   28.50   12.90
 -15 -10   0   11.40   14.50
 -10  25   0   25.60   11.80
  25 -15   0   31.00   13.90
   9 -25   0   68.79   19.20
   9  16   0   49.70   20.80
 -25  16   0   43.30   18.40
  -9 -16   0   45.70   15.60
  25  -9   0   71.99   15.40
  25 -16   0   39.50   15.60
 -16  25   0   43.40   13.70
 -16  -9   0   41.10   16.00
  -9  25   0   71.59   15.20
   8 -25   0   35.40   19.10
 -25  17   0  -14.10   17.90
 -17  -8   0   24.90   15.30
  -8  25   0   19.10   12.70
  -8 -17   0   14.00   14.70
  25  -8   0   43.20   14.50
  25 -17   0   20.50   15.40
 -17  25   0   20.50   13.70
 -25  18   0   36.70   16.50
   7 -25   0    6.50   20.00
   7  18   0   11.40   20.70
 -18  25   0   25.90   13.10
 -18  -7   0   13.30   15.10
  -7 -18   0    6.00   14.40
  -7  25   0   23.50   14.00
  25  -7   0    2.90   14.50
  25 -18   0   27.70   15.60
  13  13   0  203.58   34.30
  13 -26   0  161.28   25.20
 -13 -13   0  115.59   22.10
 -13  26   0  133.49   18.90
  26 -13   0  149.09   19.20
  12 -26   0   43.80   18.50
  14 -26   0   17.90   18.60
  26 -14   0   30.20   15.20
 -12  26   0   21.70   12.30
  26 -12   0   38.30   14.20
 -14 -12   0   15.50   14.70
 -12 -14   0   19.90   15.20
 -14  26   0   11.80   12.30
   0   0   1   -1.50    2.50
   0   0   1   -0.90    2.20
   0   0   1    3.00    2.20
   0   0  -1   -1.50    2.00
   0   0   1   -0.20    1.70
   0  -1   1   69.69    5.30
  -1   0  -1   67.29    5.20
   1   0   1   77.09    5.50
  -1   1   1   51.59    4.90
   0  -1   1   63.69    4.90
   0  -1   1   66.19    5.00
  -1   1   1   58.89    5.30
   1   0   1   62.89    5.20
   1  -1  -1   63.99    6.60
   0   1  -1   54.19    9.20
  -1   1   1   58.19    4.60
   1   0   1   56.09    5.30
  -1   1   1   48.10    6.40
  -1   0   1   24.10    3.70
   1   0  -1   27.20    5.70
   1  -1   1   20.90    4.10
  -1   0   1   24.20    5.40
   0   1   1   21.20    4.40
   1  -1   1   22.30    3.10
   0  -1  -1   17.00    2.70
   0   1   1   21.70    3.00
   0  -1  -1   17.30    3.10
   0   1   1   21.20    4.70
  -1   0   1   23.20    2.80
  -1   1  -1   27.30    7.50
   1  -1   1   33.70    4.10
  -1   0   1   29.90    3.80
   2   0   1  292.27   18.40
   0  -2   1  310.37   18.10
  -2   2   1  318.87   18.40
   0  -2   1  302.87   18.60
   2  -2  -1  342.97   19.40
   0  -2   1  293.27   18.30
   0  -2   1  358.66   21.70
  -2   0  -1  281.27   18.80
  -2   2   1  273.17   18.30
  -2   2   1  320.17   19.30
   1  -2   1 1216.38   72.89
  -2   1   1 1280.17   72.99
   1  -2  -1 1334.67   73.29
   1  -2   1 1462.35   74.19
   1   1   1 1316.67   72.99
  -2   1   1 1414.96   73.49
   1  -2  -1 1119.39   72.89
   1   1   1 1289.67   72.89
   1  -2   1 1240.98   72.89
   1  -2   1 1267.07   73.09
   1   1  -1 1430.96   74.39
  -2   1   1 1127.99   72.89
  -1  -1  -1 1123.09   73.09
   2  -1   1 1154.78   72.89
  -1  -1   1 1127.19   72.89
  -1   2   1 1292.37   73.29
  -1  -1   1 1228.38   72.89
  -1  -1  -1 1178.18   72.89
  -1   2  -1 1357.36   73.89
   2  -1   1 1285.17   72.99
   2  -1  -1 1424.86   73.49
  -1   2   1 1313.27   72.99
  -1  -1   1 1171.48   72.89
   0   2   1  355.26   19.90
  -2   0   1  296.07   19.70
   2  -2   1  350.76   20.00
  -2   0   1  293.87   19.50
   0  -2  -1  311.37   19.90
   0   2   1  335.47   20.10
  -2   2  -1  296.47   19.80
   2  -2   1  289.57   19.60
   0  -2  -1  316.97   20.20
  -2   0   1  372.96   20.70
   2  -2   1  378.26   21.40
  -2   2  -1  351.86   21.00
   2   0  -1  378.26   20.70
   0  -3   1   59.09    7.00
   3  -3  -1   58.29    8.50
   0  -3   1   50.39   13.90
  -3   0  -1   55.59    7.40
   0  -3   1   64.99    6.30
   3   0   1   40.30    6.10
   0   3  -1   66.59   13.30
  -3   3   1   41.50    5.90
  -3   3   1   57.49    8.50
  -3   2   1 1148.19   59.89
   2  -3  -1 1058.79   59.79
  -3   2   1  962.00   59.19
   2   1   1  976.10   59.29
   1  -3   1 1177.68   60.99
   1  -3   1 1003.70   59.39
   1   2  -1 1160.08   61.39
   2  -3  -1 1016.00   59.09
  -1  -2   1  989.80   59.19
  -2  -1  -1  939.01   59.49
  -1   3  -1 1117.69   60.89
  -2   3   1 1042.60   59.79
  -1  -2   1  876.11   59.19
  -2   3   1 1018.10   59.29
   3  -2  -1 1143.09   59.99
   3  -1   1  884.01   59.19
  -1  -2   1 1101.79   61.29
   2  -3   1 2721.03  146.89
   1   2   1 2566.84  145.99
  -3   2  -1 2142.19  145.69
   1  -3  -1 2525.35  146.29
  -3   1   1 2692.53  146.39
   2   1  -1 2709.73  147.19
   2  -3   1 2519.15  145.99
  -3   2  -1 2601.94  145.99
   1  -3  -1 2425.96  145.89
   2   1  -1 2836.92  146.49
   1   2   1 2477.05  145.99
  -3   1   1 2326.87  145.89
  -1  -2  -1 2292.87  145.99
  -2   3  -1 2667.23  146.69
   3  -1  -1 2453.65  146.59
  -1   3   1 2610.14  145.99
  -2  -1   1 2242.48  145.89
  -2   3  -1 2238.88  145.99
   3  -1  -1 2687.03  146.49
  -1  -2  -1 2716.13  146.19
  -2  -1   1 2278.47  145.79
   3  -2   1 2648.33  145.99
  -1   3   1 2582.44  146.29
   3  -2   1 2631.84  146.19
   3  -2   1 2188.68  145.79
   0   3   1  319.77   20.70
  -3   0   1  315.27   19.80
  -3   3  -1  336.87   19.80
   3  -3   1  344.97   20.20
  -3   0   1  282.77   19.40
   3  -3   1  281.27   19.70
   0  -3  -1  333.77   20.20
   0   3   1  345.67   20.00
  -3   0   1  346.27   20.80
   3   0  -1  391.26   21.10
   0   4  -1 1179.58   64.89
  -4   0  -1 1094.59   62.99
  -4   4   1 1171.08   63.39
   0  -4   1  995.30   62.69
  -4   4   1  989.50   62.49
   4   0   1 1024.10   62.59
   0  -4   1 1042.30   62.49
   1  -4   1 1402.86   76.49
   1   3  -1 1466.55   76.69
   1  -4   1 1177.88   74.59
  -4   3   1 1168.58   74.49
   3  -4  -1 1129.09   74.19
  -4   3   1 1359.76   75.29
   3  -4  -1 1331.47   75.29
  -4   1  -1 1207.88   74.79
   3   1   1 1142.29   74.49
  -1  -3   1 1294.87   74.59
   4  -1   1 1207.88   74.59
  -3   4   1 1402.06   75.29
   4  -3  -1 1282.67   75.79
  -3   4   1 1132.39   74.49
  -1  -3   1 1297.87   74.69
   4  -3  -1 1410.16   75.29
  -3  -1  -1 1266.07   74.89
  -1   4  -1 1495.65   76.39
  -3   4   1 1306.07   74.49
   2  -4   1 1208.78   71.59
   2   2   1 1435.86   71.79
  -4   2   1 1117.99   71.39
   2   2   1 1183.28   71.49
   2   2   1 1091.39   71.19
   2  -4  -1 1241.48   72.19
  -4   2   1 1284.67   72.09
   2  -4   1 1325.07   73.19
   2  -4  -1 1223.58   71.29
   2   2  -1 1399.46   73.59
   4  -2  -1 1163.78   72.49
   4  -2   1 1255.87   71.49
  -2  -2   1 1150.58   71.39
  -2  -2   1 1299.77   73.29
  -2  -2  -1 1350.86   71.99
   4  -2   1 1097.89   71.39
   4  -2  -1 1359.76   72.19
  -2  -2  -1 1179.78   71.69
  -2   4  -1 1148.19   71.69
  -2   4   1 1056.59   71.29
  -2  -2   1 1146.09   71.39
  -2   4   1 1268.17   72.09
  -2   4  -1 1382.46   72.99
  -2   4   1 1282.17   71.49
   3  -4   1 2261.27  125.99
   1  -4  -1 2173.78  124.89
   3   1  -1 2270.87  125.49
   1  -4  -1 2261.47  125.59
   1   3   1 1867.81  124.79
  -4   1   1 2298.47  125.59
   1   3   1 2213.68  124.89
   3   1  -1 2402.36  126.59
  -4   3  -1 1918.21  124.69
   1   3   1 2253.67  125.29
  -4   1   1 1946.81  124.89
   3   1  -1 2012.10  125.19
   3  -4   1 2034.80  124.99
  -4   3  -1 2334.27  125.09
  -3   4  -1 2027.20  124.89
   4  -1  -1 2098.19  125.49
   4  -3   1 2271.87  124.99
  -3   4  -1 2468.65  125.79
  -3  -1   1 1936.61  124.79
   4  -1  -1 2297.67  125.49
  -1  -3  -1 2108.39  124.99
  -1   4   1 2224.18  125.39
  -3  -1   1 1938.91  124.79
  -1   4   1 1886.91  124.79
  -1  -3  -1 2354.66  125.59
  -1   4   1 2301.57  124.89
   4  -3   1 2497.25  125.59
  -4   0   1 1398.26   91.29
  -4   4  -1 1510.65   91.39
   4  -4   1 1376.36   91.39
   4   0  -1 1545.55   92.19
   0   4   1 1682.93   91.59
   0  -4  -1 1654.53   91.69
  -4   0   1 1414.46   91.49
   0   4   1 1627.64   92.19
   0   4   1 1385.56   91.39
   4  -4   1 1652.13   91.69
  -4   0   1 1696.53   92.19
   4  -4   1 1808.42   92.59
  -4   4  -1 1801.02   92.29
   0  -4  -1 1764.72   92.49
   4   0  -1 1760.92   92.29
  -5   5   1  249.58   17.30
  -5   0  -1  266.97   18.40
   5  -5  -1  239.48   21.00
   5   0   1  250.37   17.70
   0  -5   1  276.87   17.80
  -5   5   1  285.37   19.00
   5  -5  -1  286.67   19.10
   0  -5   1  309.47   23.10
   0   5  -1  328.57   23.00
   1  -5   1  745.33   42.70
  -5   1  -1  641.74   39.80
  -5   4   1  754.02   40.60
   1   4  -1  765.82   42.60
  -5   4   1  611.64   39.30
   1  -5   1  640.04   39.70
   4  -5  -1  579.34   38.90
   4   1   1  624.34   39.40
   4  -5  -1  710.43   40.60
  -4   5   1  719.73   40.40
   5  -1   1  625.04   39.50
  -4  -1  -1  664.93   39.90
  -1  -4   1  639.54   39.50
  -1   5  -1  662.73   40.20
  -4   5   1  629.34   39.30
   5  -4  -1  735.13   40.40
   5  -4  -1  665.73   41.20
  -1  -4   1  730.23   42.80
  -1   5  -1  747.23   42.20
  -1  -4   1  691.73   39.40
   2   3  -1   66.79   16.10
   3  -5  -1   68.29    6.60
   3  -5  -1   50.69   10.70
   3   2   1   73.59    7.20
   3   2   1   71.69    6.90
   2  -5   1   89.69   15.00
  -3   5   1   73.09    9.80
   5  -2   1   70.89    7.40
  -2  -3   1   58.89   15.70
  -3   5   1   62.69    7.10
   5  -3  -1   92.39   12.70
   5  -3  -1   78.39   10.10
  -2  -3   1   89.49    7.50
  -2  -3   1   62.89    7.40
  -3  -2  -1   94.59   10.10
  -2   5  -1   68.29    9.00
  -3  -2  -1   70.49    8.80
   2   3   1 2661.73  173.08
   3  -5   1 3188.28  174.58
   2  -5  -1 2877.71  173.18
  -5   2   1 2644.84  173.08
   3   2  -1 3429.36  175.08
  -5   2   1 3303.77  173.98
   3  -5   1 2879.31  173.28
   2   3   1 2871.81  173.18
  -5   3  -1 3055.79  173.28
   2   3   1 3091.69  173.58
   3   2  -1 2946.71  173.38
   2  -5  -1 3106.99  173.98
  -3   5  -1 3160.18  174.18
  -2   5   1 2706.23  173.18
   5  -3   1 3083.59  173.28
   5  -3   1 3257.77  173.48
  -2  -3  -1 3145.49  173.88
  -3  -2   1 2852.71  173.18
  -2   5   1 3119.29  173.18
  -3   5  -1 2752.62  173.28
  -2   5   1 3043.80  173.78
   5  -3   1 2725.73  173.18
  -2  -3  -1 2953.40  173.38
   5  -2  -1 2974.80  173.88
  -3  -2   1 2885.91  173.18
   5  -2  -1 3260.57  173.88
   4   1  -1 1095.19   59.79
   1  -5  -1 1040.60   57.19
   4   1  -1 1007.20   57.89
   4  -5   1  857.51   56.89
   4  -5   1 1003.60   57.29
   4  -5   1 1133.49   58.99
   1   4   1  928.01   57.09
  -5   1   1  922.11   56.79
   1   4   1 1127.49   58.19
   1   4   1 1038.20   57.09
  -5   4  -1  959.70   56.89
   1  -5  -1 1130.29   58.59
  -5   4  -1 1087.79   57.59
  -5   1   1  947.71   57.09
  -5   1   1 1114.39   58.09
   5  -1  -1 1066.19   58.09
  -1   5   1  953.80   57.99
   5  -4   1  858.11   57.09
  -4   5  -1 1076.89   58.29
  -1   5   1  875.91   57.19
  -1  -4  -1  962.30   57.39
  -1  -4  -1 1060.59   58.49
   5  -1  -1  964.40   58.19
  -1   5   1  995.50   57.09
  -4  -1   1  881.61   57.09
  -4   5  -1  905.31   57.19
   5  -4   1 1102.59   58.19
  -4  -1   1  880.51   57.09
   5  -4   1 1022.60   57.39
  -5   5  -1  579.44   35.10
   0  -5  -1  596.54   35.50
  -5   5  -1  670.03   36.30
  -5   0   1  538.95   35.10
   5  -5   1  700.83   37.20
   0   5   1  629.04   36.60
   0   5   1  615.84   35.20
   0   5   1  526.45   35.20
   5   0  -1  666.73   36.40
   5  -5   1  503.75   35.10
   0  -5  -1  684.83   37.50
   5   0  -1  625.14   36.50
   5  -5   1  600.54   35.50
  -5   0   1  535.65   34.90
   6   0   1 1561.64   83.29
  -6   0  -1 1428.56   82.99
   0   6  -1 1546.25   85.09
   6  -6  -1 1358.56   83.79
   0  -6   1 1498.15   85.09
  -6   6   1 1508.85   83.59
   6  -6  -1 1544.65   83.79
   6   0   1 1343.07   82.69
   6   0   1 1451.25   82.49
   5   1   1  972.40   50.89
   5   1   1  833.62   49.99
   1   5  -1  945.61   53.19
   1  -6   1  924.61   53.09
   5  -6  -1  757.62   49.50
  -6   1  -1  882.41   50.49
   1  -6   1  807.82   50.19
   5  -6  -1  934.31   51.29
  -6   5   1  927.41   50.99
   5  -6  -1  842.72   51.69
  -6   5   1  829.72   49.90
   6  -1   1  780.02   49.99
  -1  -5   1  928.91   53.29
   6  -5  -1  896.71   50.89
  -5   6   1  901.71   50.89
  -1  -5   1  823.72   50.19
   6  -5  -1  851.41   51.39
  -1   6  -1  832.22   50.69
  -5   6   1  802.12   49.90
  -5  -1  -1  845.12   50.39
  -1   6  -1  912.61   52.69
  -6   4   1  527.45   31.30
   4   2   1  539.95   31.40
  -6   4   1  462.15   30.10
   2  -6   1  490.95   30.40
   4   2   1  456.95   30.10
  -6   2  -1  462.55   30.80
   4  -6  -1  497.65   31.80
   2   4  -1  529.75   33.80
   2  -6   1  486.75   33.70
  -2  -4   1  558.14   34.20
  -4  -2  -1  523.85   30.90
  -4  -2  -1  542.75   31.60
   6  -4  -1  545.15   32.40
   6  -2   1  513.25   30.40
  -4   6   1  552.04   31.50
  -2  -4   1  524.05   30.30
   6  -4  -1  559.44   31.50
  -2   6  -1  495.95   30.80
  -2   6  -1  569.54   33.20
  -4   6   1  450.25   30.00
  -2  -4   1  506.95   30.40
   3  -6   1 1066.39   57.89
   3   3   1 1050.29   56.29
  -6   3   1 1003.90   56.19
   3  -6  -1  888.51   55.09
   3   3   1  913.01   55.19
   3  -6  -1 1002.50   56.59
   3  -6   1  950.80   55.49
   3   3   1  868.71   55.09
   3   3  -1 1022.60   58.19
   3   3  -1  925.61   55.29
  -6   3  -1 1013.80   55.29
  -6   3   1  905.71   55.19
  -3  -3  -1  980.70   56.49
  -3   6   1  927.41   55.19
   6  -3  -1  979.40   56.79
   6  -3  -1 1026.00   56.19
  -3  -3   1  976.40   57.79
  -3   6   1  826.02   55.09
  -3   6  -1  897.11   55.59
   6  -3   1  883.11   55.29
   6  -3   1 1033.50   55.49
  -3  -3   1  897.21   55.19
  -3  -3   1  876.91   55.29
  -3  -3  -1  929.31   55.59
  -3   6  -1 1007.40   57.09
  -3   6   1  988.70   56.29
   2  -6  -1 1036.70   58.59
   2  -6  -1  943.41   56.89
  -6   2   1  832.82   56.49
   2   4   1  878.11   56.89
   4   2  -1 1068.29   59.89
   4   2  -1  940.21   57.29
   4  -6   1 1047.70   59.29
   2   4   1  990.00   57.79
   2   4   1  947.21   56.89
  -6   4  -1 1032.40   57.19
  -6   2   1 1035.50   57.89
   4  -6   1  937.01   57.09
  -6   2   1  928.61   56.89
   6  -2  -1 1117.99   58.09
   6  -4   1  927.01   56.99
  -2   6   1 1028.90   56.89
  -4  -2   1  960.40   56.89
  -2   6   1 1058.69   58.09
  -4   6  -1 1081.09   58.29
   6  -4   1 1025.70   57.09
   6  -2  -1 1027.70   58.29
  -2  -4  -1 1040.10   58.39
  -4  -2   1  951.20   56.99
  -4   6  -1  961.70   57.09
  -2  -4  -1 1049.20   57.39
  -2   6   1  909.11   56.89
  -6   5  -1 2230.28  134.89
   1  -6  -1 2386.96  135.19
  -6   1   1 2223.48  134.89
   1   5   1 2437.86  135.09
   1   5   1 2569.04  136.09
  -6   5  -1 2546.85  135.59
   5   1  -1 2638.94  136.09
  -6   1   1 2243.18  135.09
   1  -6  -1 2685.33  136.69
   5  -6   1 2064.89  134.99
   5  -6   1 2354.76  135.19
   5   1  -1 2650.53  137.29
  -6   1   1 2598.84  135.99
   1   5   1 2202.28  135.09
   5   1  -1 2156.18  135.39
  -1   6   1 2447.35  135.09
  -1  -5  -1 2431.56  136.39
  -1   6   1 2454.95  136.09
   6  -1  -1 2592.24  135.99
  -1   6   1 2075.19  135.09
   6  -5   1 2713.73  136.09
  -5   6  -1 2180.78  135.09
   6  -1  -1 2339.27  135.69
  -5  -1   1 2164.88  135.09
   6  -5   1 2140.09  135.09
  -5   6  -1 2514.15  135.99
  -1  -5  -1 2438.36  135.39
   6  -5   1 2483.35  135.29
  -5  -1   1 2210.88  135.09
   0   6   1  250.27   17.50
  -6   6  -1  301.97   18.80
  -6   0   1  244.38   17.00
   6   0  -1  252.57   19.00
   6  -6   1  263.77   17.60
  -6   6  -1  253.67   17.10
   6  -6   1  240.68   17.30
  -6   0   1  247.18   17.00
   0   6   1  266.27   17.10
   6  -6   1  319.97   20.60
   0  -6  -1  280.67   17.80
   6   0  -1  286.07   19.00
   0  -6  -1  324.27   21.80
   0  -7   1  366.26   23.30
   0   7  -1  379.56   27.80
   7  -7  -1  381.56   24.50
   7   0   1  373.06   22.70
  -7   0  -1  369.06   23.70
  -7   7   1  333.07   22.60
   7  -7  -1  368.06   25.90
   7   0   1  376.96   24.90
   0  -7   1  379.76   28.20
  -7   7   1  379.96   24.40
   7   0   1  340.97   23.00
   0   7  -1  361.56   24.40
   1  -7   1   77.09   17.00
   6  -7  -1   41.80    6.30
   1  -7   1   46.90    8.70
   6  -7  -1   41.20    9.80
  -7   6   1   51.29   10.30
   1   6  -1   77.49   16.00
   6   1   1   41.20   11.30
   6  -7  -1   46.00   11.10
  -7   6   1   45.00    7.50
   6   1   1   53.09    7.60
   7  -6  -1   66.49   10.90
  -1   7  -1   40.30    7.40
  -6   7   1   58.79   10.10
  -1  -6   1   31.40    9.40
  -6   7   1   54.59    7.50
  -6  -1  -1   50.99    9.50
   7  -6  -1   67.39   14.10
  -1  -6   1   49.10    8.80
   7  -1   1   59.49    8.30
   7  -1   1   53.39    7.00
  -1   7  -1   75.99   14.90
   5   2   1  759.32   40.80
   2  -7   1  682.43   42.80
   5  -7  -1  592.34   38.80
   5   2   1  638.84   39.20
   5  -7  -1  717.93   41.00
  -7   2  -1  660.43   39.80
   2  -7   1  673.13   40.20
   2   5  -1  757.42   43.30
   5  -7  -1  655.43   41.40
  -7   2  -1  730.63   39.20
  -7   5   1  718.13   40.50
   7  -5  -1  684.13   42.20
   7  -5  -1  700.43   40.40
   7  -2   1  656.13   39.10
  -2   7  -1  714.03   42.20
  -2  -5   1  714.13   43.00
  -2  -5   1  623.34   39.60
  -5   7   1  708.73   40.60
  -5  -2  -1  610.64   40.50
  -5  -2  -1  675.43   40.60
   7  -2   1  641.44   39.60
  -5   7   1  592.64   39.10
   4   3   1  199.58   15.20
  -7   3  -1  181.58   12.20
   3   4  -1  182.08   18.90
   4   3   1  144.49   12.20
  -7   3  -1  141.89   10.90
   4  -7  -1  201.18   15.90
  -7   3  -1  164.08   13.20
   4  -7  -1  152.78   11.70
   3  -7   1  155.38   14.00
  -7   4   1  193.08   14.30
  -7   4   1  170.68   12.10
   3  -7   1  195.28   19.00
   4   3   1  161.28   12.00
  -3   7  -1  176.38   13.70
  -3  -4   1  162.78   19.00
  -4  -3  -1  174.68   16.10
  -3   7  -1  173.18   16.60
  -3  -4   1  161.88   12.60
   7  -4  -1  169.18   14.30
  -3  -4   1  137.99   13.30
   7  -3   1  165.48   12.30
  -4   7   1  168.88   14.50
   3  -7  -1 1171.08   65.59
  -7   4  -1 1155.88   63.89
   3   4   1  992.10   63.69
   3   4   1 1172.98   64.99
   4  -7   1 1146.69   66.29
   4   3  -1 1013.60   63.69
   4  -7   1 1070.69   63.89
  -7   3   1 1032.60   63.59
  -7   3   1 1156.98   64.59
   4   3  -1 1215.58   66.99
   3   4   1 1049.99   63.59
   3  -7  -1 1024.60   63.59
  -3  -4  -1 1153.68   65.29
  -4  -3   1 1170.88   66.09
  -3   7   1 1142.59   63.59
  -3   7   1 1052.29   63.69
  -3   7   1 1160.38   64.89
  -4   7  -1 1035.30   63.89
  -4   7  -1 1150.98   65.29
   7  -4   1 1094.69   63.59
   7  -4   1 1252.27   64.19
   7  -3  -1  932.21   68.89
   7  -3  -1 1224.58   64.79
   7  -4   1 1103.49   63.89
  -4  -3   1 1110.09   63.69
  -4  -3   1 1089.29   63.79
  -7   5  -1  906.61   47.70
   5   2  -1  909.21   50.89
  -7   2   1  890.61   48.30
   5   2  -1  938.11   48.50
   2  -7  -1  807.22   47.20
   2  -7  -1  888.61   49.20
   2   5   1  863.41   48.50
   5   2  -1  754.82   47.50
   5  -7   1  708.73   47.00
  -7   2   1  787.92   47.10
   2   5   1  824.52   47.10
  -7   2   1  778.62   46.80
   5  -7   1  920.11   49.90
   2   5   1  766.62   47.20
  -7   5  -1  743.23   46.70
   5  -7   1  837.72   47.50
  -5   7  -1  848.32   48.90
  -2   7   1  732.43   47.30
   7  -5   1  735.73   47.30
   7  -5   1  921.41   48.50
  -2   7   1  805.72   48.50
  -5  -2   1  780.52   47.20
   7  -5   1  827.42   47.30
  -5   7  -1  750.92   47.30
  -2   7   1  817.62   47.10
   7  -2  -1  857.51   48.40
  -2  -5  -1  838.32   49.30
   7  -2  -1  750.52   49.50
  -5  -2   1  749.03   47.20
   6  -7   1  189.28   15.10
   6  -7   1  267.47   20.10
   6   1  -1  227.48   21.40
   1  -7  -1  249.28   19.80
   6   1  -1  228.08   16.70
   6  -7   1  210.88   15.50
   1   6   1  205.68   15.60
  -7   1   1  204.58   14.90
  -7   6  -1  205.78   14.50
  -7   1   1  225.98   16.50
   1   6   1  233.68   18.00
  -7   6  -1  249.68   16.50
   1  -7  -1  225.08   15.70
   6   1  -1  241.08   17.30
   1   6   1  213.28   14.90
   7  -6   1  270.37   18.00
   7  -1  -1  204.68   18.30
  -6   7  -1  223.58   15.40
   7  -6   1  219.08   15.50
  -6   7  -1  247.98   17.40
  -6  -1   1  233.98   15.30
   7  -1  -1  223.58   16.90
  -1   7   1  241.18   17.90
  -1  -6  -1  235.48   16.10
  -1   7   1  211.68   15.50
   7  -6   1  202.68   15.50
  -1  -6  -1  230.68   19.90
  -1   7   1  220.68   14.90
   0   7   1  997.10   55.19
   0  -7  -1 1003.20   56.19
  -7   0   1  906.91   53.59
   7  -7   1  870.31   53.69
   0   7   1  959.50   53.49
  -7   0   1  891.81   53.49
  -7   7  -1 1019.40   54.69
  -7   7  -1  902.61   53.49
   0   7   1  857.91   53.79
   7   0  -1  869.21   54.49
   0  -7  -1  962.00   53.99
   7   0  -1 1001.20   54.79
   0   8  -1  176.28   16.90
   8  -8  -1  198.18   17.40
   0   8  -1  211.98   21.30
  -8   8   1  191.78   14.30
   8  -8  -1  189.38   12.90
   0  -8   1  205.98   22.10
  -8   8   1  198.18   16.60
   0  -8   1  188.38   15.20
   8   0   1  184.08   18.10
   8   0   1  192.68   14.50
   8  -8  -1  239.98   20.20
   8   0   1  207.78   14.90
  -8   0  -1  192.48   15.80
   1  -8   1 1292.07   75.99
   1   7  -1 1360.66   75.89
   1  -8   1 1247.18   72.99
  -8   7   1 1193.78   72.59
  -8   1  -1 1318.87   73.29
  -8   7   1 1333.37   73.89
   7   1   1 1358.96   72.89
   7   1   1 1255.77   72.89
   7  -8  -1 1226.38   74.09
   7   1   1 1377.46   74.09
   7  -8  -1 1176.58   72.29
   1   7  -1 1241.68   73.59
   7  -8  -1 1281.37   74.09
  -1   8  -1 1289.07   75.19
  -1  -7   1 1361.26   76.69
   8  -1   1 1180.68   72.89
  -1  -7   1 1206.18   72.99
   8  -1   1 1274.77   72.69
  -7   8   1 1294.07   73.89
  -7  -1  -1 1249.57   73.19
   8  -1   1 1281.57   73.79
  -1   8  -1 1203.58   73.39
   8  -7  -1 1265.07   74.39
   8  -7  -1 1296.37   73.99
  -7  -1  -1 1100.49   72.19
   2  -8   1  526.85   32.50
  -8   6   1  513.25   32.00
   6  -8  -1  478.95   31.60
  -8   2  -1  541.75   32.90
  -8   6   1  582.04   33.60
   2  -8   1  539.55   36.70
   6   2   1  517.55   32.10
   2   6  -1  564.94   36.60
   6   2   1  614.44   34.50
   6  -8  -1  593.94   34.60
  -8   2  -1  605.14   32.20
  -6  -2  -1  516.25   32.80
  -2   8  -1  483.05   32.80
  -2  -6   1  538.45   36.80
  -6   8   1  552.54   33.60
  -2  -6   1  509.45   32.60
  -6   8   1  485.05   32.00
   8  -6  -1  557.04   35.00
   8  -2   1  505.35   32.50
   8  -2   1  523.55   31.90
  -2   8  -1  562.54   35.80
   5   3   1  481.15   31.00
   5  -8  -1  467.15   30.70
   3  -8   1  509.45   31.40
  -8   5   1  488.55   31.00
   5   3   1  457.05   31.20
  -8   3  -1  437.96   30.30
   3  -8   1  557.74   35.60
  -8   5   1  571.24   32.70
   5  -8  -1  573.94   33.70
   3   5  -1  559.14   35.50
   5  -8  -1  494.05   33.80
   5   3   1  576.04   33.40
  -8   3  -1  562.94   31.40
  -3  -5   1  506.15   31.00
  -3   8  -1  512.45   32.00
   8  -3   1  507.75   31.40
  -3  -5   1  509.85   31.50
   8  -3   1  521.55   31.20
   8  -5  -1  558.54   33.90
  -5   8   1  450.95   30.90
  -3   8  -1  536.65   34.20
  -5  -3  -1  556.84   31.90
  -5  -3  -1  540.45   33.40
  -5   8   1  543.15   32.70
  -3  -5   1  505.85   35.50
   8  -5  -1  566.44   32.50
   4   4   1 1043.60   61.59
   4   4   1  942.51   61.69
   4  -8  -1 1182.58   63.89
  -8   4  -1  960.20   61.19
  -8   4   1 1036.40   61.69
   4  -8   1 1089.89   61.99
  -8   4   1 1130.19   62.79
   4   4   1 1198.28   63.39
   4   4  -1 1177.58   64.99
   4  -8   1 1127.09   64.79
   4   4  -1  946.81   61.39
   4  -8  -1 1024.70   61.59
  -8   4  -1 1147.19   61.99
   8  -4   1 1029.60   61.89
  -4  -4   1  976.70   62.29
   8  -4  -1 1114.49   63.19
  -4   8  -1  985.80   61.99
   8  -4  -1 1139.49   62.89
  -4   8   1  994.60   61.69
   8  -4   1 1098.59   62.09
  -4  -4   1 1035.70   61.69
  -4   8  -1 1086.59   63.59
  -4  -4  -1 1118.09   62.19
  -4  -4  -1 1118.09   63.69
  -4   8   1 1105.09   62.99
  -4  -4   1 1065.19   64.49
   5  -8   1  288.57   18.50
   5  -8   1  250.87   17.50
  -8   3   1  280.17   18.00
   5   3  -1  275.37   18.40
  -8   5  -1  314.57   18.60
   3   5   1  316.27   21.10
   5  -8   1  292.27   23.60
   3   5   1  268.27   17.80
  -8   5  -1  264.67   17.20
   3   5   1  275.17   18.50
   3  -8  -1  271.87   18.10
  -8   3   1  291.57   19.80
  -8   3   1  272.37   17.30
   5   3  -1  287.57   24.40
  -3   8   1  256.07   18.20
   8  -5   1  239.18   18.50
  -3   8   1  260.77   17.70
  -3  -5  -1  284.67   22.10
   8  -3  -1  312.77   21.20
  -5   8  -1  269.87   18.70
  -3  -5  -1  285.27   19.20
   8  -3  -1  286.67   19.80
  -5  -3   1  268.57   18.70
  -5   8  -1  281.27   21.20
   8  -5   1  268.57   18.60
  -5  -3   1  262.97   17.90
  -3   8   1  288.77   20.60
   6  -8   1 1010.40   58.19
   6   2  -1 1083.79   61.49
  -8   2   1  924.11   57.69
   6  -8   1 1131.69   60.79
   2   6   1  942.81   58.09
  -8   2   1 1073.79   59.09
   2   6   1  962.10   57.79
  -8   6  -1 1070.99   58.59
   2  -8  -1  997.00   58.79
   6   2  -1  945.31   58.29
   2   6   1 1020.00   59.39
   2  -8  -1 1068.59   60.39
  -8   2   1  939.01   57.89
   6   2  -1 1111.79   59.39
  -8   6  -1  913.31   57.59
   6  -8   1  886.81   57.89
   8  -6   1 1161.38   59.49
  -2  -6  -1 1049.40   60.39
  -6   8  -1  976.20   58.19
  -2   8   1  891.31   57.99
  -6  -2   1  974.00   57.89
  -6   8  -1 1076.19   59.59
   8  -6   1  943.51   58.19
  -2   8   1 1053.99   59.59
  -2  -6  -1 1041.70   58.39
  -6  -2   1  982.60   58.09
  -2   8   1 1013.00   57.79
   8  -2  -1  981.60   59.09
   8  -2  -1 1096.29   59.29
   7  -8   1  864.61   52.39
  -8   1   1  846.92   51.99
   7  -8   1 1020.70   54.99
   7   1  -1 1004.70   56.29
   1   7   1  917.81   52.09
   7  -8   1  908.41   52.39
  -8   1   1  854.81   52.09
   1  -8  -1  999.90   55.29
   7   1  -1  797.92   53.09
   7   1  -1 1009.60   53.69
   1  -8  -1  932.21   52.49
   1   7   1  951.00   54.09
  -8   1   1  969.60   53.29
  -8   7  -1  996.00   53.19
  -8   7  -1  826.92   51.89
  -1   8   1  896.51   51.99
   8  -7   1  849.12   52.49
  -1  -7  -1  901.11   52.59
  -1  -7  -1  896.31   54.89
  -1   8   1  926.71   53.89
   8  -7   1  930.21   52.39
  -7  -1   1  807.62   51.99
  -7   8  -1  930.81   53.59
  -7  -1   1  844.22   52.29
   8  -1  -1  833.62   53.09
   8  -7   1 1015.50   54.09
  -1   8   1  829.82   52.39
  -7   8  -1  825.22   52.29
   8  -1  -1  923.61   53.49
   8  -8   1  365.56   24.70
   0   8   1  381.16   24.60
   0  -8  -1  383.46   24.60
  -8   8  -1  341.77   23.70
   8   0  -1  363.56   25.30
   8  -8   1  402.46   24.30
   0   8   1  438.86   27.00
  -8   0   1  354.06   23.70
  -8   0   1  365.16   24.10
  -8   8  -1  402.16   25.50
   0   8   1  383.06   23.70
   8   0  -1  436.96   26.10
   0  -8  -1  416.46   29.00
   0  -9   1 1350.36   80.79
   9   0   1 1401.36   77.59
  -9   0  -1 1240.98   76.69
   9  -9  -1 1405.66   79.09
   9   0   1 1307.77   77.39
   0  -9   1 1396.36   77.69
   9  -9  -1 1289.47   76.79
   9  -9  -1 1246.68   79.99
   9   0   1 1414.76   79.29
  -9   0  -1 1389.56   77.79
  -9   9   1 1309.77   79.69
   0   9  -1 1390.46   80.29
   0   9  -1 1335.27   78.09
  -9   9   1 1327.27   77.19
  -9   8   1  608.74   37.30
   1   8  -1  584.84   37.20
   8  -9  -1  559.04   35.10
   1  -9   1  600.04   36.10
   8   1   1  621.74   38.00
   1  -9   1  571.94   40.70
  -9   1  -1  519.95   34.90
   8   1   1  571.04   36.00
   1   8  -1  626.64   40.40
   8  -9  -1  599.64   38.70
   8   1   1  636.94   36.10
  -9   1  -1  576.84   36.40
   8  -9  -1  601.44   37.90
  -9   8   1  561.34   35.60
  -8   9   1  629.64   37.40
   9  -1   1  637.64   38.10
  -8  -1  -1  621.74   36.60
  -8  -1  -1  534.55   35.00
  -8   9   1  598.04   35.70
  -1   9  -1  621.74   39.90
  -1  -8   1  642.74   41.60
   9  -1   1  594.74   36.10
  -1  -8   1  597.94   36.30
   9  -1   1  616.44   35.80
   9  -8  -1  625.14   38.70
  -1   9  -1  614.84   36.80
   9  -8  -1  611.84   37.40
  -9   2  -1  411.36   26.30
  -9   2  -1  360.26   24.20
  -9   7   1  391.16   25.00
   7  -9  -1  423.26   28.40
   2   7  -1  436.86   30.90
   7   2   1  406.76   25.40
   7   2   1  436.76   25.50
   7  -9  -1  416.46   27.90
   2  -9   1  361.56   31.10
   7   2   1  444.46   28.50
  -9   7   1  436.06   27.00
   2  -9   1  380.86   25.80
   7  -9  -1  389.46   24.60
   9  -7  -1  426.76   27.10
  -2  -7   1  408.06   31.20
  -7  -2  -1  426.56   26.20
  -2  -7   1  370.86   25.90
  -7   9   1  374.76   25.10
   9  -2   1  408.16   25.10
  -7   9   1  405.76   27.20
   9  -7  -1  429.66   29.20
  -2   9  -1  374.26   26.40
   9  -2   1  390.06   25.70
  -2   9  -1  399.36   29.80
   6  -9  -1  364.86   27.80
   3   6  -1  416.86   30.00
   6  -9  -1  442.56   27.70
  -9   6   1  392.56   24.30
  -9   6   1  422.26   26.00
   3  -9   1  388.36   30.40
   3  -9   1  394.96   24.80
   6   3   1  431.16   27.40
  -9   3  -1  423.86   24.50
   6  -9  -1  361.56   23.70
   6   3   1  376.76   24.20
  -9   3  -1  332.97   23.30
  -9   3  -1  388.56   25.40
   9  -6  -1  420.86   27.90
  -6   9   1  346.17   24.20
  -6  -3  -1  401.16   27.10
  -6  -3  -1  389.76   25.10
  -3  -6   1  351.76   24.90
  -3   9  -1  396.76   28.20
  -6   9   1  405.56   26.40
   9  -6  -1  397.36   25.90
   9  -3   1  385.86   24.30
  -3   9  -1  385.86   25.60
   9  -3   1  388.26   24.80
  -3  -6   1  395.86   30.00
  -3  -6   1  399.76   24.10
   5   4   1  478.65   29.10
   5  -9  -1  389.76   25.70
  -9   5   1  405.76   25.90
  -9   4  -1  404.56   27.00
  -9   5   1  457.05   27.70
   5  -9  -1  478.35   29.80
  -9   4  -1  453.85   26.30
   4  -9   1  441.16   26.50
   5   4   1  354.86   28.40
   4  -9   1  429.66   31.50
  -9   4  -1  371.96   25.10
   4   5  -1  453.25   31.30
   5   4   1  407.46   26.40
   5  -9  -1  376.96   29.50
  -5   9   1  426.36   27.90
  -5   9   1  394.16   26.00
  -4  -5   1  435.36   31.30
   9  -5  -1  446.86   27.60
  -4   9  -1  419.16   29.00
  -4  -5   1  433.76   26.10
  -5  -4  -1  430.26   26.90
  -4   9  -1  409.46   26.80
   9  -5  -1  456.75   29.20
  -4  -5   1  410.76   26.50
   9  -4   1  425.16   26.40
   9  -4   1  404.96   26.50
  -5  -4  -1  428.26   29.20
   4  -9  -1  186.88   17.90
   5  -9   1  149.99   13.50
   4   5   1  146.49   12.30
   5  -9   1  137.09   19.60
   5   4  -1  161.78   20.40
  -9   4   1  146.49   12.40
   4  -9  -1  148.39   12.70
  -9   4   1  166.18   14.80
  -9   5  -1  180.18   13.60
   4   5   1  191.18   17.70
  -9   4   1  136.79   11.70
  -9   5  -1  135.19   11.30
   4   5   1  128.59   13.30
   5   4  -1  136.69   12.20
  -4  -5  -1  194.48   18.00
  -5  -4   1  185.78   12.60
   9  -4  -1  212.78   16.90
   9  -5   1  157.48   13.80
  -4  -5  -1  179.58   14.40
  -5   9  -1  179.18   17.10
  -5   9  -1  172.38   13.90
  -5  -4   1  181.28   19.30
  -4   9   1  174.98   15.50
   9  -4  -1  177.68   15.20
  -4   9   1  139.89   13.00
   9  -5   1  184.38   14.30
  -5  -4   1  163.08   13.60
   6  -9   1  820.12   56.19
   6   3  -1 1063.49   59.79
  -9   6  -1 1048.50   56.29
   3  -9  -1  939.91   55.79
   6   3  -1  868.51   55.69
   3   6   1  921.81   55.89
  -9   3   1  938.01   55.59
  -9   3   1  939.41   55.39
  -9   3   1 1027.60   56.79
   3  -9  -1 1071.29   58.69
   3   6   1  922.61   55.49
   6  -9   1  984.30   55.89
   3   6   1 1050.89   57.79
   6  -9   1 1044.50   58.89
  -9   6  -1  904.31   55.29
   9  -6   1 1112.39   57.09
  -3   9   1  956.50   57.19
  -6  -3   1  929.01   55.59
  -6   9  -1 1012.60   57.59
   9  -3  -1  992.90   56.89
  -6   9  -1  920.41   55.99
  -3  -6  -1  975.80   58.39
   9  -6   1  962.50   55.69
   9  -3  -1  957.80   57.09
  -3  -6  -1  974.90   56.19
  -3   9   1  933.41   55.39
  -6  -3   1  956.00   55.99
  -3   9   1  898.61   55.89
   9  -6   1  913.31   56.09
   2  -9  -1  190.18   20.30
   7   2  -1  171.08   15.50
   7  -9   1  133.49   13.70
   7  -9   1  187.08   20.00
   7   2  -1  160.28   21.00
   2   7   1  141.99   12.60
   2  -9  -1  159.68   13.80
   2   7   1  179.68   17.00
  -9   2   1  171.88   15.00
  -9   2   1  166.58   12.60
  -9   7  -1  161.28   12.00
   7  -9   1  162.58   13.50
   2   7   1  159.88   14.20
  -9   7  -1  186.58   14.50
  -9   2   1  142.49   12.70
  -7  -2   1  174.58   13.70
  -2   9   1  164.08   12.30
   9  -7   1  161.58   14.30
   9  -2  -1  178.48   16.50
  -2  -7  -1  167.88   19.30
  -7  -2   1  169.48   12.90
  -2   9   1  179.58   16.60
  -7   9  -1  131.99   13.30
  -7   9  -1  163.28   16.40
   9  -7   1  177.68   13.30
  -2   9   1  135.09   13.50
  -2  -7  -1  202.18   14.50
   9  -2  -1  178.08   15.70
   1   8   1  265.07   17.20
  -9   8  -1  258.57   17.30
   1   8   1  289.47   21.50
   1  -9  -1  288.37   23.70
   1  -9  -1  301.27   18.80
  -9   1   1  250.87   17.50
   8   1  -1  304.57   20.10
  -9   8  -1  293.27   19.40
   8  -9   1  269.87   18.00
   8  -9   1  234.68   18.90
   8   1  -1  243.68   19.00
   1   8   1  274.47   18.70
   8   1  -1  307.37   25.50
  -9   1   1  267.97   17.70
   9  -8   1  258.87   18.00
   9  -1  -1  252.17   19.70
   9  -1  -1  241.58   19.80
  -8  -1   1  227.18   17.40
  -8  -1   1  241.98   18.90
  -8   9  -1  250.57   19.90
   9  -8   1  228.48   19.00
  -1   9   1  245.28   18.40
  -8   9  -1  230.18   17.80
  -1   9   1  258.07   21.20
   9  -8   1  309.27   21.40
  -1  -8  -1  267.17   23.60
  -1  -8  -1  259.77   18.80
  -1   9   1  237.88   17.10
   9  -9   1    0.60    6.10
   9   0  -1    9.80    6.00
   0  -9  -1    5.30    8.60
   9  -9   1  -12.00    7.30
   9  -9   1   12.50    8.00
  -9   0   1    2.50    5.10
  -9   9  -1    3.90    5.50
   0   9   1   13.80    7.20
   9   0  -1    0.40    7.80
   0  -9  -1    7.20    6.10
   9   0  -1   -1.30    8.80
  -9   9  -1    0.00    5.20
   0   9   1    9.10    7.30
   0   9   1    9.60    5.70
   0 -10   1   32.50   10.50
 -10   0  -1   34.30    8.60
  10   0   1   62.99   10.80
 -10  10   1   54.39    9.70
  10   0   1   13.30    8.80
 -10   0  -1   28.90    5.60
   0  10  -1   61.19   17.10
  10   0   1   26.10    6.00
  10 -10  -1   55.19   14.10
 -10  10   1   46.70   12.40
   0 -10   1   35.60    7.60
  10 -10  -1   42.50    7.70
   9   1   1  735.43   42.80
   9   1   1  717.13   44.80
   9 -10  -1  733.63   44.70
   1 -10   1  663.63   46.80
 -10   1  -1  762.12   43.00
 -10   9   1  695.03   42.10
   1   9  -1  719.93   43.60
   9   1   1  722.63   42.50
   1   9  -1  744.23   46.60
   9 -10  -1  701.73   41.70
   9 -10  -1  759.82   45.10
   1 -10   1  765.52   42.80
 -10   1  -1  629.54   41.40
 -10   9   1  728.63   43.80
  -1  10  -1  682.03   43.10
  10  -9  -1  715.43   44.10
  -1  -9   1  732.23   42.90
  -9  10   1  677.93   42.10
  -1  -9   1  704.63   47.70
  10  -9  -1  766.22   45.00
  -9  10   1  723.73   43.90
  -9  -1  -1  729.23   43.00
  10  -1   1  711.13   44.80
  -1  10  -1  725.23   46.30
  10  -1   1  691.63   42.60
  -9  -1  -1  619.74   41.50
  10  -1   1  708.63   42.50
   2   8  -1  525.25   36.00
   2 -10   1  587.74   34.80
 -10   2  -1  577.14   35.20
   8 -10  -1  533.65   33.60
   8   2   1  602.34   35.00
   8   2   1  556.64   37.70
   8 -10  -1  572.14   37.40
   2 -10   1  558.74   39.70
 -10   2  -1  511.05   33.30
 -10   8   1  543.65   34.10
   8 -10  -1  571.04   36.60
   2   8  -1  590.24   39.30
   8   2   1  573.04   34.50
  -8  10   1  524.45   34.10
  -2  -8   1  568.34   34.80
  10  -8  -1  612.64   37.10
  10  -2   1  570.34   34.30
  -8  -2  -1  589.94   35.10
  -2  10  -1  553.74   37.80
  10  -2   1  563.74   34.70
  -8  10   1  586.74   36.20
  -2  10  -1  582.74   35.60
  -2  -8   1  572.54   40.20
   7 -10  -1  118.99   10.30
 -10   3  -1  125.89   11.70
 -10   3  -1  115.99   13.20
 -10   7   1  119.99   11.30
   7 -10  -1  120.49   17.10
   3   7  -1  145.69   22.90
   3 -10   1  110.39   24.80
 -10   7   1  119.69   13.80
   7   3   1  119.19   17.70
   7   3   1  111.99   11.70
   3 -10   1  115.99   12.70
 -10   3  -1  111.99    9.40
   7 -10  -1  138.69   17.90
  -3  10  -1  130.59   13.70
  -7  10   1  112.49   13.90
  -7  10   1  103.49   11.50
  -3  10  -1  117.69   22.40
  -3  -7   1  114.59   21.20
  -3  -7   1  113.49   12.80
  -7  -3  -1  114.99   13.10
  10  -3   1  100.79   11.10
  10  -7  -1  107.89   13.50
  10  -3   1   98.89   12.40
 -10   4  -1  674.83   39.20
   6   4   1  704.93   41.90
   6   4   1  607.24   39.30
 -10   6   1  702.43   40.40
   4 -10   1  638.44   39.20
   6 -10  -1  605.64   41.50
   4 -10   1  683.93   44.40
   6   4   1  609.04   38.70
 -10   4  -1  578.74   38.10
 -10   4  -1  649.74   39.60
   6 -10  -1  622.74   38.60
 -10   6   1  647.04   38.90
   4   6  -1  708.03   44.00
  10  -4   1  650.63   39.30
  -4  -6   1  651.93   43.40
  -6  -4  -1  663.13   41.80
  -4  10  -1  676.23   39.70
  10  -6  -1  681.23   41.10
  -6  -4  -1  682.43   39.60
  -4  -6   1  673.73   38.70
  -4  -6   1  651.53   39.40
  10  -6  -1  685.93   40.30
  -6  10   1  578.14   38.80
  10  -4   1  673.83   39.20
  -4  10  -1  655.83   42.00
 -10   5   1  430.66   27.70
   5 -10  -1  344.67   39.70
   5 -10   1  450.65   28.30
 -10   5  -1  402.26   26.90
   5 -10  -1  484.95   31.70
   5   5   1  404.16   28.20
 -10   5  -1  408.56   28.50
 -10   5   1  463.85   29.60
   5   5   1  400.66   27.60
 -10   5  -1  479.15   28.40
   5   5   1  500.55   31.20
   5 -10  -1  398.96   30.70
   5 -10   1  433.66   33.00
   5   5  -1  465.45   33.00
  10  -5  -1  479.45   30.50
  -5  -5   1  479.95   27.80
  -5  10  -1  445.06   28.50
  -5  -5   1  412.76   32.40
  10  -5  -1  479.95   29.40
  -5  -5  -1  462.45   31.60
  10  -5   1  451.15   28.50
  -5  10   1  433.16   27.90
  -5  -5   1  470.25   28.40
  10  -5   1  477.05   28.60
  -5  -5  -1  475.15   28.80
  -5  10  -1  456.75   30.90
  -5  10   1  472.95   30.10
 -10   4   1  361.46   22.80
   6 -10   1  322.77   23.10
   4 -10  -1  368.46   23.60
 -10   6  -1  347.47   22.60
   4   6   1  408.66   27.30
   6   4  -1  349.17   23.30
   4   6   1  345.67   25.60
 -10   4   1  374.16   23.30
   6 -10   1  381.56   23.80
   4 -10  -1  415.66   28.40
   6   4  -1  419.76   30.00
 -10   4   1  399.26   25.20
   6 -10   1  380.36   29.00
 -10   6  -1  409.36   24.20
  -6  10  -1  370.26   26.30
  10  -6   1  403.16   25.00
  10  -4  -1  356.16   25.20
  -6  10  -1  371.56   24.20
  10  -4  -1  370.46   26.30
  -6  -4   1  363.46   23.20
  10  -6   1  342.97   24.30
  -4  -6  -1  379.66   27.80
  -4  10   1  321.57   23.70
  -4  10   1  354.26   25.80
  -4  -6  -1  364.26   24.30
  -6  -4   1  360.46   24.00
   7   3  -1  399.66   29.70
 -10   7  -1  315.97   23.00
 -10   3   1  380.56   25.00
   7 -10   1  312.27   23.50
 -10   3   1  354.26   22.90
   7 -10   1  369.56   23.70
   3 -10  -1  374.06   28.00
   7   3  -1  384.26   25.10
   3 -10  -1  352.86   23.50
   3   7   1  337.57   22.90
   3   7   1  358.76   23.90
 -10   3   1  344.87   23.10
   7 -10   1  391.16   28.30
   3   7   1  398.46   27.10
 -10   7  -1  386.16   24.30
  -3  10   1  327.07   23.80
  -3  -7  -1  362.96   28.10
  10  -7   1  384.16   23.20
  -7  10  -1  377.66   25.90
  -7  10  -1  376.06   23.80
  -7  -3   1  382.56   24.00
  10  -7   1  431.56   25.60
  10  -7   1  344.07   24.20
  10  -3  -1  373.66   25.10
  -3  -7  -1  381.06   24.20
  -3  10   1  358.16   25.80
  -3  10   1  345.77   22.70
  10  -3  -1  368.66   25.60
  -7  -3   1  366.66   23.10
   8   2  -1   55.89   12.60
   8 -10   1   37.80    9.40
 -10   2   1   44.10    9.10
   2   8   1   43.00    8.30
 -10   8  -1   46.10    8.00
   2   8   1   62.19   14.40
   2 -10  -1   76.49   17.60
   8 -10   1   72.39   18.00
 -10   2   1   44.00   10.90
   8   2  -1   46.30    8.00
 -10   8  -1   54.69   11.20
   2 -10  -1   41.40    7.40
   8   2  -1   42.10   10.40
 -10   2   1   42.40    6.50
   8 -10   1   58.49    9.70
   2   8   1   53.09   11.20
  -2  10   1   41.90    8.60
  -8  10  -1   48.00    7.70
  -2  -8  -1   37.50   10.10
  -2  10   1   47.30    7.90
  -8  -2   1   48.40    7.60
  -2  10   1   39.20    8.00
  10  -8   1   41.20    6.90
  -2  -8  -1   50.49    8.70
  10  -2  -1   57.09    9.60
  -8  -2   1   51.59    9.20
  10  -2  -1   45.70   12.40
  10  -8   1   47.70    9.20
  10  -8   1   62.79   14.20
  -8  10  -1   40.90    7.20
   9   1  -1  758.62   46.90
   1   9   1  702.13   44.10
 -10   1   1  676.73   41.40
 -10   1   1  629.24   42.60
   9   1  -1  730.73   43.40
   9   1  -1  661.43   42.10
   1 -10  -1  595.84   52.89
 -10   9  -1  690.53   41.30
   9 -10   1  704.23   41.70
   1 -10  -1  733.53   42.20
   1   9   1  711.73   42.20
   9 -10   1  793.62   45.40
 -10   9  -1  749.03   42.80
   1   9   1  730.63   41.30
   9 -10   1  643.44   42.10
  -1  10   1  719.33   41.30
  -1  -9  -1  723.33   42.20
  10  -1  -1  737.73   43.30
  -1  10   1  683.63   42.00
  -1  10   1  601.44   49.60
  -1  -9  -1  726.43   46.10
  10  -9   1  773.02   44.30
  -9  10  -1  704.93   43.00
  10  -9   1  702.13   42.40
  10  -9   1  739.83   41.80
  10  -1  -1  665.33   42.50
  -9  -1   1  678.13   41.80
  -9  -1   1  703.93   41.50
  -9  10  -1  676.73   41.50
 -10  10  -1  305.27   20.40
  10   0  -1  302.07   40.00
 -10   0   1  314.47   20.60
  10 -10   1  316.17   20.90
   0 -10  -1  329.47   22.00
 -10  10  -1  346.67   22.70
  10   0  -1  295.77   22.00
  10 -10   1  327.47   22.10
   0 -10  -1  255.27   32.00
   0  10   1  276.37   26.10
  10 -10   1  359.56   26.20
 -10   0   1  308.87   21.30
   0  10   1  314.17   20.30
   0  10   1  322.57   21.90
  10   0  -1  288.87   31.50
   0 -11   1 1525.75   95.99
  11   0   1 1652.23   92.69
  11 -11  -1 1635.94   94.29
  11 -11  -1 1699.43   94.09
 -11   0  -1 1712.73   92.99
   0  11  -1 1616.24   95.49
 -11  11   1 1642.34   93.89
  11 -11  -1 1535.95   91.89
  11   0   1 1715.23   95.29
   0 -11   1 1772.32   93.09
   0  11  -1 1581.14   93.09
  11   0   1 1668.03   93.09
 -11   0  -1 1479.45   91.89
   1 -11   1  646.44   45.70
 -11  10   1  699.23   42.30
   1  10  -1  677.63   45.00
  10   1   1  690.23   41.60
  10   1   1  712.23   41.10
  10 -11  -1  687.23   43.20
  10 -11  -1  726.13   43.70
 -11   1  -1  698.23   41.50
  10 -11  -1  635.64   40.00
   1 -11   1  757.62   41.40
 -11  10   1  669.03   40.50
  10   1   1  641.94   43.70
 -11   1  -1  603.24   39.90
   1  10  -1  701.83   42.10
  -1  11  -1  678.73   44.50
  -1 -10   1  659.43   46.80
  11  -1   1  658.63   41.10
  -1 -10   1  733.93   41.50
 -10  -1  -1  704.73   41.40
  11  -1   1  671.43   43.90
 -10  11   1  685.73   42.60
  11  -1   1  715.93   41.00
 -10  11   1  676.03   40.60
  11 -10  -1  674.43   42.50
 -10  -1  -1  588.34   40.00
  11 -10  -1  751.22   43.40
  -1  11  -1  676.33   41.80
   9 -11  -1  450.15   28.10
   2   9  -1  470.75   34.30
 -11   2  -1  475.25   29.60
 -11   9   1  455.45   28.50
   9 -11  -1  463.15   31.70
   9 -11  -1  496.05   32.30
   2   9  -1  457.25   30.70
 -11   9   1  477.35   30.60
 -11   2  -1  426.06   27.60
   9   2   1  468.35   29.00
   9   2   1  483.05   29.50
   2 -11   1  453.65   34.90
   9   2   1  460.85   32.90
   2 -11   1  453.95   29.30
  -2  11  -1  488.25   30.30
  11  -9  -1  495.05   31.90
  -9  11   1  448.16   28.40
  -9  -2  -1  455.55   29.50
  -2  11  -1  444.36   32.70
  11  -9  -1  436.96   30.30
  -2  -9   1  442.26   35.00
  -2  -9   1  469.55   29.40
  11  -2   1  446.56   29.30
  11  -2   1  421.56   31.40
  -9  11   1  451.85   30.50
  11  -2   1  443.66   28.80
 -11   3  -1 1077.49   61.59
 -11   3  -1  951.00   60.29
   3 -11   1 1060.79   61.39
 -11   8   1 1062.09   62.29
   8   3   1 1154.18   63.99
   3 -11   1 1022.80   65.09
 -11   3  -1 1050.99   61.19
   3   8  -1 1080.49   65.09
   8   3   1 1017.40   60.99
   3   8  -1 1016.80   62.09
   8 -11  -1 1047.10   63.29
   8   3   1 1095.59   61.49
 -11   8   1 1039.10   60.89
   8 -11  -1 1051.49   62.99
   8 -11  -1 1012.60   60.69
  11  -3   1 1059.99   61.19
  -3  11  -1 1035.10   61.59
  -3  -8   1 1069.49   61.49
  -8  11   1 1020.10   62.29
  -3  -8   1 1015.90   65.09
  11  -3   1 1036.60   61.19
  -8  -3  -1 1102.49   61.59
  -8  11   1 1012.70   60.89
  11  -8  -1 1076.99   62.59
  11  -8  -1 1010.40   62.09
  -3  11  -1 1021.40   63.59
   7   4   1  504.15   32.50
 -11   7   1  522.85   33.50
   7 -11  -1  521.65   35.30
   7   4   1  481.05   31.70
 -11   4  -1  496.95   32.60
   4 -11   1  528.15   32.20
   7   4   1  524.45   35.60
 -11   4  -1  462.65   30.90
 -11   4  -1  545.85   32.20
   7 -11  -1  485.05   34.60
   4 -11   1  519.85   37.70
   4   7  -1  518.55   37.50
 -11   7   1  476.05   31.60
  11  -7  -1  574.04   34.40
  11  -4   1  535.15   32.10
  -4  11  -1  544.15   32.70
  -7  11   1  531.15   33.70
  -4  -7   1  493.55   37.40
  11  -4   1  536.65   32.30
  -4  -7   1  562.24   32.60
  -7  11   1  491.35   31.70
  -7  -4  -1  541.65   32.60
  -4  11  -1  517.35   34.80
  11  -7  -1  537.55   33.50
  -7  -4  -1  556.34   34.90
   5 -11   1  196.48   15.20
   6   5   1  150.68   16.70
   6 -11  -1  197.48   20.00
 -11   6   1  178.58   14.20
   5   6  -1  192.38   22.40
 -11   5  -1  188.08   12.90
 -11   5  -1  187.88   14.90
   6   5   1  194.88   20.10
 -11   5  -1  167.88   15.80
   6   5   1  174.18   13.90
   6 -11  -1  159.18   19.80
   6 -11  -1  177.58   14.20
 -11   6   1  150.08   24.30
   5 -11   1  172.58   22.20
  -6  -5  -1  177.38   16.10
  -5  11  -1  192.68   15.80
  -6  11   1  180.38   17.20
  11  -6  -1  196.28   18.80
  -5  11  -1  181.68   18.90
  -5  -6   1  146.89   21.70
  -5  -6   1  193.88   15.50
  -6  -5  -1  172.38   20.00
  11  -5   1  200.88   15.30
  -5  -6   1  202.88   13.80
  -6  11   1  168.58   14.50
  11  -5   1  178.98   15.50
 -11   5   1  239.38   19.40
 -11   6  -1  222.58   15.50
   5 -11  -1  202.58   22.40
   6   5  -1  203.08   15.90
   5 -11  -1  230.48   16.60
   5   6   1  256.37   22.50
   5   6   1  215.28   17.60
 -11   5   1  222.88   16.20
   5 -11  -1  254.67   23.10
 -11   6  -1  201.98   17.60
   6 -11   1  239.68   24.10
 -11   6  -1  247.18   17.40
   6 -11   1  244.78   17.30
   5   6   1  218.28   16.10
 -11   5   1  232.18   15.70
  -6  11  -1  251.97   17.80
  11  -6   1  222.88   17.90
  -5  -6  -1  242.18   22.80
  -5  -6  -1  234.38   17.80
  -5  11   1  230.18   19.30
  11  -5  -1  235.18   19.30
  11  -6   1  259.57   18.40
  -5  11   1  199.28   16.90
  -6  11  -1  236.48   20.40
  -6  -5   1  241.98   17.60
  -6  -5   1  229.58   16.40
  11  -5  -1  249.38   20.40
   4   7   1  352.66   23.90
 -11   4   1  364.16   24.80
 -11   7  -1  369.56   23.90
   4 -11  -1  355.66   23.40
   7 -11   1  315.97   23.10
   4   7   1  368.06   27.10
   7 -11   1  384.06   29.00
   4   7   1  320.17   22.40
   7   4  -1  287.17   27.00
 -11   4   1  349.67   22.70
   7 -11   1  361.96   23.30
   4 -11  -1  370.96   28.20
 -11   7  -1  316.97   22.70
 -11   4   1  343.37   22.50
  11  -7   1  340.07   24.00
  -4  -7  -1  383.96   23.80
  -4  11   1  351.66   25.40
  -7  11  -1  374.66   25.40
  11  -7   1  411.76   25.10
  -4  11   1  336.87   23.50
  -7  11  -1  378.36   23.60
  11  -4  -1  369.36   25.30
  -4  -7  -1  355.26   28.10
  -7  -4   1  385.56   23.80
  -7  -4   1  351.86   22.80
  11  -4  -1  376.76   25.10
   3 -11  -1   19.50    7.20
   8   3  -1   25.50    7.20
 -11   3   1   12.40    6.10
   3   8   1   21.60    7.60
 -11   8  -1   19.90    5.40
   3   8   1   10.40    7.90
   3 -11  -1    7.60    8.80
   8 -11   1    9.00    7.00
 -11   3   1   23.20    6.10
 -11   8  -1   18.10    5.70
 -11   3   1    6.50    7.20
   8 -11   1   24.70    9.30
  -8  11  -1    7.50    6.60
  -3  -8  -1   10.30    8.90
  11  -8   1   20.30    7.70
  -8  11  -1   14.20    6.30
  11  -8   1   -0.50    6.50
  -8  -3   1   15.20    6.80
  -3  -8  -1   14.80    7.80
  11  -3  -1   11.60    6.80
  11  -8   1   24.70    8.30
  -8  -3   1   13.70    5.90
  -3  11   1    7.80    7.00
  -3  11   1    8.20    7.40
  11  -3  -1   33.40    9.80
 -11   9  -1  290.37   19.80
   2   9   1  288.57   19.90
   2   9   1  314.87   24.30
   2 -11  -1  303.27   21.10
   2   9   1  301.07   21.40
   9 -11   1  282.87   21.20
 -11   2   1  276.27   22.00
 -11   9  -1  321.77   21.80
   9   2  -1  313.27   27.90
   9   2  -1  281.17   20.60
   9 -11   1  302.97   20.50
   2 -11  -1  301.77   27.00
 -11   2   1  299.87   20.10
   9   2  -1  305.27   23.20
   9 -11   1  348.27   27.00
  11  -9   1  325.87   24.00
  -2  11   1  286.77   19.70
  -9  -2   1  317.67   21.20
  -9  -2   1  295.87   20.00
  -9  11  -1  310.97   22.60
  -9  11  -1  302.87   20.40
  -2  11   1  301.37   23.50
  11  -2  -1  298.97   29.40
  -2  11   1  292.07   21.00
  -2  -9  -1  300.97   26.90
  -2  -9  -1  307.57   21.40
  11  -9   1  301.97   20.30
  11  -9   1  305.77   21.90
  11  -2  -1  291.87   22.20
  10 -11   1  848.82   52.09
   1 -11  -1  863.21   56.09
  10   1  -1  923.31   56.59
  10   1  -1  846.82   51.99
   1  10   1  891.01   52.19
 -11   1   1  860.21   51.69
 -11  10  -1  904.71   52.79
 -11   1   1  829.22   51.29
  10   1  -1  941.61   53.59
  10 -11   1  890.31   51.79
  10 -11   1  923.11   55.29
   1 -11  -1  921.21   52.29
   1  10   1  879.31   51.19
 -11  10  -1  847.12   51.29
   1  10   1  871.81   54.09
  -1  11   1  894.01   51.29
  11 -10   1  958.20   54.49
  11  -1  -1  923.71   53.39
  -1  11   1  893.71   53.99
 -10  -1   1  862.01   51.79
 -10  11  -1  914.11   53.09
  -1 -10  -1  919.61   52.19
  -1  11   1  873.71   51.99
  11 -10   1  894.11   51.59
 -10  11  -1  886.01   51.49
 -10  -1   1  850.41   51.39
  11 -10   1  860.91   52.39
  -1 -10  -1  867.51   56.09
  11  -1  -1  849.02   52.19
  11 -11   1 2270.67  124.79
 -11   0   1 2223.68  124.79
 -11  11  -1 2156.58  124.49
   0 -11  -1 2267.97  125.09
  11   0  -1 2069.89  124.89
   0 -11  -1 2241.88  128.09
 -11  11  -1 2319.07  125.99
  11 -11   1 2232.88  125.09
   0  11   1 2185.58  126.49
  11 -11   1 2338.27  127.29
   0  11   1 2214.48  124.99
 -11   0   1 2123.59  124.49
   0  11   1 2124.69  124.29
  11   0  -1 2311.67  126.19
  11   0  -1 2383.06  128.79
  12   0   1  185.38   24.80
   0  12  -1  216.18   24.20
 -12  12   1  251.27   18.40
  12 -12  -1  281.67   23.00
   0 -12   1  227.18   26.90
  12   0   1  265.67   19.40
  12 -12  -1  248.18   21.70
  12 -12  -1  235.48   17.20
 -12   0  -1  246.48   19.60
  12   0   1  218.48   19.30
 -12  12   1  248.28   20.50
   0  12  -1  241.48   20.60
 -12   1  -1  331.57   23.50
  11 -12  -1  336.57   21.20
  11 -12  -1  349.87   26.30
 -12  11   1  329.17   22.00
  11   1   1  322.37   26.80
  11 -12  -1  296.77   25.30
 -12  11   1  322.37   24.00
  11   1   1  350.06   23.00
  11   1   1  308.07   23.20
   1  11  -1  361.26   24.20
   1  11  -1  312.87   27.50
   1 -12   1  351.56   23.20
   1 -12   1  325.27   29.40
  -1 -11   1  306.17   30.90
  -1  12  -1  375.96   24.60
 -11  -1  -1  349.87   23.30
 -11  12   1  324.97   24.40
  12  -1   1  298.77   26.90
  -1 -11   1  342.77   23.30
  -1  12  -1  320.27   26.90
 -11  12   1  316.17   22.10
  12 -11  -1  333.67   24.80
  12 -11  -1  342.77   25.80
  12 -11  -1  262.57   20.50
  12  -1   1  327.07   22.60
  12  -1   1  281.87   22.60
  10   2   1 1350.46   75.39
  10 -12  -1 1273.67   76.79
 -12   2  -1 1160.18   73.69
  10   2   1 1310.17   74.69
   2 -12   1 1302.17   74.89
   2  10  -1 1272.27   78.09
   2 -12   1 1263.17   78.89
 -12  10   1 1268.97   74.29
 -12   2  -1 1324.97   74.99
  10 -12  -1 1302.07   76.39
   2  10  -1 1301.87   75.39
  10   2   1 1298.37   77.59
  10 -12  -1 1254.57   74.09
  12 -10  -1 1265.97   75.99
 -10  -2  -1 1333.87   74.99
  12  -2   1 1280.47   74.79
  -2 -10   1 1341.97   74.99
  -2 -10   1 1245.48   78.79
  12  -2   1 1332.67   74.79
 -10  12   1 1306.17   74.39
  12 -10  -1 1320.47   75.89
  12  -2   1 1300.67   77.19
 -10  12   1 1244.58   75.69
  -2  12  -1 1223.18   76.99
  -2  12  -1 1321.67   75.19
   3 -12   1  206.88   24.80
   9   3   1  198.98   18.00
   9   3   1  191.18   23.70
 -12   9   1  210.78   16.60
 -12   3  -1  191.38   18.10
   9 -12  -1  202.68   21.50
   9 -12  -1  247.68   22.10
 -12   9   1  209.98   18.70
   9   3   1  227.58   16.80
   3   9  -1  205.68   24.10
 -12   3  -1  200.58   14.90
   3 -12   1  215.88   17.60
   3   9  -1  169.78   19.80
   9 -12  -1  180.48   19.60
  12  -3   1  213.78   16.90
  -9  -3  -1  243.48   18.00
  12  -3   1  233.08   17.50
  -3  12  -1  242.98   18.30
  -9  12   1  224.68   19.00
  -3  -9   1  250.77   18.30
  -9  12   1  213.88   16.40
  12  -9  -1  209.28   19.00
  -3  -9   1  219.28   24.70
  -3  12  -1  210.88   21.50
   8 -12  -1  622.44   41.80
 -12   8   1  663.93   40.70
   8 -12  -1  608.34   38.60
   4   8  -1  693.63   44.50
 -12   8   1  624.64   38.70
   4 -12   1  669.93   39.40
   8 -12  -1  632.34   42.30
   8   4   1  618.24   38.80
 -12   4  -1  674.63   39.90
 -12   4  -1  590.94   38.00
 -12   4  -1  664.93   39.50
   4 -12   1  648.24   44.50
   8   4   1  663.73   42.80
  -4  -8   1  682.03   39.60
  12  -8  -1  629.54   40.50
  -4  12  -1  618.94   41.80
  -4  -8   1  604.24   44.20
  -8  12   1  642.54   40.70
  12  -4   1  651.33   39.30
  -8  12   1  638.04   38.90
  12  -4   1  623.64   39.20
  -8  -4  -1  677.23   39.70
  12  -8  -1  663.23   41.30
  -4  12  -1  654.93   39.70
 -12   5  -1  369.06   23.20
 -12   7   1  348.97   24.20
   5 -12   1  332.37   29.50
   7   5   1  334.37   22.10
   7 -12  -1  336.47   26.30
   7 -12  -1  319.57   22.30
 -12   5  -1  320.77   21.30
   5 -12   1  340.47   23.10
   7   5   1  372.26   27.90
   7 -12  -1  342.87   27.20
   5   7  -1  357.16   29.30
 -12   7   1  337.07   22.10
 -12   5  -1  337.27   23.80
   7   5   1  335.97   23.80
  -7  -5  -1  333.77   27.10
  -7  12   1  303.77   22.20
  12  -5   1  343.87   23.00
  12  -7  -1  380.26   25.90
  -7  -5  -1  335.87   23.60
  -5  -7   1  313.07   29.20
  -5  12  -1  317.87   26.10
  12  -5   1  347.57   23.10
  -5  -7   1  357.56   23.10
  -5  12  -1  350.96   23.50
  -7  12   1  329.27   24.40
  12  -7  -1  337.17   24.00
   6 -12  -1  134.19   19.70
   6 -12   1  179.58   22.70
   6   6   1  140.89   15.70
   6   6  -1  168.48   22.90
   6   6  -1  175.38   13.00
   6 -12  -1  165.98   21.30
 -12   6  -1  143.29   15.70
 -12   6   1  167.28   13.80
   6   6   1  178.08   20.80
   6   6   1  168.78   13.60
 -12   6   1  163.08   16.20
   6 -12   1  172.48   15.00
 -12   6   1  140.89   13.10
 -12   6  -1  176.18   15.20
 -12   6  -1  155.08   16.80
   6 -12  -1  158.88   14.10
  -6  12   1  165.38   16.80
  -6  -6  -1  155.28   20.90
  -6  -6   1  176.98   21.50
  -6  -6  -1  166.78   15.70
  12  -6   1  175.28   15.60
  -6  12  -1  193.68   15.70
  -6  12   1  162.48   14.50
  -6  12  -1  164.78   18.40
  -6  -6   1  180.08   13.60
  -6  -6   1  176.98   15.40
  12  -6  -1  162.58   16.40
  12  -6  -1  199.18   18.20
  12  -6   1  173.18   15.60
   5 -12  -1  630.74   43.10
   5   7   1  750.32   44.00
 -12   5   1  647.54   39.90
 -12   7  -1  633.44   40.80
   5 -12  -1  675.73   44.50
 -12   5   1  705.13   41.90
   5 -12  -1  682.53   40.40
   5   7   1  656.03   41.10
   7   5  -1  697.23   45.30
   7 -12   1  686.03   40.60
   5   7   1  632.84   40.00
 -12   5   1  677.63   40.10
 -12   7  -1  699.53   41.20
   7 -12   1  666.33   45.20
 -12   7  -1  623.94   39.70
  -5  12   1  657.93   40.50
  -7  12  -1  653.63   42.40
  -5  12   1  661.23   42.20
  12  -7   1  733.43   41.90
  12  -5  -1  679.03   41.90
  -7  -5   1  677.53   40.90
  12  -5  -1  686.73   41.90
  12  -7   1  680.63   41.00
  -5  -7  -1  654.13   44.70
  -5  -7  -1  671.13   40.80
  -7  -5   1  686.33   40.20
  -7  12  -1  696.43   40.80
 -12   4   1  148.79   15.60
   4   8   1  139.09   15.00
 -12   8  -1  168.08   15.00
   8   4  -1  149.39   13.50
 -12   8  -1  152.88   12.40
   8 -12   1  150.78   21.10
 -12   4   1  149.59   13.10
   4 -12  -1  143.79   22.30
   8 -12   1  145.09   18.50
   8   4  -1  137.69   16.00
   8   4  -1  119.09   22.70
   4 -12  -1  145.99   14.10
   8 -12   1  149.99   14.20
 -12   4   1  155.28   13.10
   4   8   1  152.38   19.30
   4   8   1  143.79   12.90
  -8  12  -1  152.68   16.80
  12  -8   1  140.19   15.10
  12  -4  -1  150.98   16.00
  -4  12   1  150.08   16.60
  12  -4  -1  172.88   16.70
  -4  -8  -1  140.09   15.30
  -8  12  -1  136.29   13.90
  -4  -8  -1  137.29   21.20
  -4  12   1  121.99   14.50
  -8  -4   1  159.78   15.00
  12  -8   1  146.99   17.40
  -8  -4   1  134.99   13.00
   3   9   1   98.39   10.50
   9 -12   1   92.89   12.00
 -12   9  -1  111.79   13.70
   3 -12  -1   79.09   12.70
   9 -12   1   96.49   13.30
   3 -12  -1   92.69   19.70
 -12   3   1   81.19   13.10
   9   3  -1   69.99   15.20
   3   9   1  112.69   13.80
 -12   9  -1   97.99   10.60
 -12   3   1   78.69   14.50
   9 -12   1   80.29   19.70
   9   3  -1  103.89   12.80
 -12   3   1   91.29   11.20
  12  -9   1  111.79   17.20
  -9  -3   1   71.69   11.10
  -9  12  -1  103.79   12.20
  12  -3  -1   91.69   14.30
  -3  12   1   88.89   12.60
  -9  12  -1  104.99   14.50
  12  -9   1  101.49   13.90
  12  -9   1   68.29    9.30
  12  -3  -1  106.09   14.80
  -3  12   1   98.59   15.60
  -3  -9  -1   88.39   13.50
  -9  -3   1   93.79   13.00
   2 -12  -1  861.31   49.80
  10   2  -1  805.92   49.60
  10 -12   1  825.42   49.90
   2  10   1  836.32   51.19
   2  10   1  797.02   51.99
 -12   2   1  791.32   49.30
   2 -12  -1  832.92   54.29
  10 -12   1  831.52   49.50
 -12   2   1  826.52   49.20
   2  10   1  838.92   49.99
  10   2  -1  872.71   54.69
 -12  10  -1  783.92   52.59
 -12  10  -1  836.72   49.10
  10 -12   1  907.61   54.09
  10   2  -1  879.01   51.49
  12 -10   1  855.01   60.89
 -10  -2   1  836.62   49.20
  -2  12   1  851.91   49.70
  12  -2  -1  861.81   51.09
 -10  -2   1  846.72   49.90
 -10  12  -1  859.81   50.89
  12 -10   1  846.22   49.40
  12 -10   1  883.51   50.29
 -10  12  -1  854.01   49.30
  -2 -10  -1  887.31   49.99
  -2  12   1  734.73   48.90
  -2 -10  -1  828.52   54.19
  -2  12   1  837.42   51.59
  12  -2  -1  810.92   50.09
  11 -12   1  106.79   14.40
  11 -12   1   81.29   19.30
   1  11   1   86.29   14.20
   1 -12  -1   79.59   13.40
  11 -12   1   80.79   11.90
 -12   1   1   78.39   11.30
   1  11   1   86.19   17.70
  11   1  -1   84.29   12.90
  11   1  -1   63.29   14.50
 -12   1   1   69.29   12.50
  11   1  -1   49.70   12.80
 -12  11  -1   87.49   14.90
 -12  11  -1   90.39   11.10
  12  -1  -1   89.09   13.70
  12  -1  -1   53.09   12.50
 -11  12  -1   85.69   11.20
 -11  -1   1   72.49   12.90
 -11  -1   1   71.19   11.30
  12  -1  -1   72.89   15.10
  -1 -11  -1   74.69   20.60
  12 -11   1  102.09   14.50
  12 -11   1   78.79   18.70
  12 -11   1   57.29    9.00
  -1  12   1   50.09   10.40
  -1  12   1   83.69   13.00
  -1  12   1   77.09   16.30
  -1 -11  -1  110.29   13.80
 -11  12  -1   90.19   14.10
  12 -12   1 1129.89   66.99
  12   0  -1 1043.80   63.69
  12 -12   1 1120.69   64.19
  12   0  -1 1129.09   65.29
 -12  12  -1 1094.99   64.79
   0 -12  -1 1062.49   68.29
 -12   0   1 1071.59   63.29
   0  12   1 1086.29   65.39
  12 -12   1 1124.09   63.59
   0  12   1 1123.99   63.99
   0 -12  -1 1136.59   64.09
 -12  12  -1 1093.99   63.19
   0  12   1 1057.59   65.89
  12   0  -1 1128.79   68.89
 -12   0   1 1091.09   63.79
  13 -13  -1    1.20    7.50
 -13   0  -1   -7.50    8.70
  13   0   1    8.80    6.80
   0 -13   1   16.10    9.70
   0 -13   1   -6.30   11.30
 -13  13   1   -1.30    7.10
   0  13  -1   17.00   10.50
   0  13  -1    3.70    9.00
  13   0   1    2.40    9.50
  13 -13  -1    7.20   13.10
  13 -13  -1    8.40    8.90
  13   0   1  -14.80   10.40
 -13  13   1    1.30    7.50
  12   1   1  448.76   27.60
 -13  12   1  404.86   28.40
   1 -13   1  438.06   27.70
   1  12  -1  412.56   28.30
  12   1   1  417.86   28.00
 -13   1  -1  428.06   27.70
  12 -13  -1  388.86   30.20
 -13   1  -1  361.56   25.50
   1 -13   1  384.16   33.60
 -13  12   1  421.06   26.50
  12 -13  -1  437.86   30.20
   1  12  -1  377.56   32.30
  12   1   1  414.16   31.50
  -1  13  -1  435.26   28.50
 -12  -1  -1  337.47   25.40
  13 -12  -1  361.46   25.20
 -12  13   1  400.76   28.40
  13 -12  -1  400.46   29.60
  -1 -12   1  419.86   27.60
 -12  13   1  418.56   26.50
  -1  13  -1  354.06   30.90
  -1 -12   1  385.66   35.20
  13 -12  -1  433.46   30.10
  13  -1   1  418.76   27.00
  13  -1   1  423.66   31.80
  13  -1   1  388.86   27.40
 -12  -1  -1  422.36   27.60
 -13  11   1  257.27   18.60
  11 -13  -1  279.47   23.70
 -13   2  -1  189.38   21.70
  11 -13  -1  240.48   18.00
  11   2   1  268.07   19.70
   2 -13   1  234.78   26.80
   2  11  -1  229.18   25.30
   2 -13   1  237.58   20.20
  11 -13  -1  211.88   23.20
 -13   2  -1  245.08   20.40
   2  11  -1  291.97   21.70
  11   2   1  231.58   26.00
  11   2   1  240.58   20.50
 -13  11   1  254.27   21.00
  -2 -11   1  269.87   20.40
  13 -11  -1  277.47   23.40
  13  -2   1  275.47   19.90
  -2  13  -1  272.67   20.70
  13  -2   1  217.68   19.20
 -11  13   1  274.57   18.70
 -11  -2  -1  262.07   20.20
  13  -2   1  212.68   24.70
 -11  13   1  247.08   21.20
  13 -11  -1  262.77   21.40
  -2  13  -1  224.78   23.80
  -2 -11   1  262.17   27.60
 -13  10   1  843.72   52.39
  10   3   1  944.81   52.39
   3  10  -1  872.11   52.39
  10 -13  -1  839.22   54.09
  10   3   1  892.71   55.49
   3  10  -1  840.92   55.39
  10   3   1  871.21   51.19
 -13  10   1  877.11   50.89
   3 -13   1  821.22   56.19
 -13   3  -1  887.71   51.69
   3 -13   1  872.01   51.49
  10 -13  -1  874.41   53.69
  10 -13  -1  845.92   50.59
  13  -3   1  836.82   51.39
  -3  13  -1  899.21   51.69
  13 -10  -1  910.81   52.99
 -10  -3  -1  869.51   51.49
 -10  13   1  853.61   52.79
  -3 -10   1  868.61   51.59
  13  -3   1  853.71   51.39
  -3 -10   1  779.42   55.69
  -3  13  -1  770.52   53.39
 -10  13   1  826.72   50.69
  13 -10  -1  844.62   52.69
 -13   4  -1  871.21   51.69
 -13   4  -1  857.81   51.39
   9   4   1  885.01   51.89
   4   9  -1  802.82   55.39
 -13   9   1  876.71   52.59
   4   9  -1  867.51   52.49
   9 -13  -1  833.72   53.59
   9   4   1  883.51   51.99
   9 -13  -1  794.62   53.79
 -13   9   1  847.52   50.69
   4 -13   1  884.81   51.39
   9   4   1  829.32   50.89
   9 -13  -1  853.51   50.69
   9   4   1  878.91   54.79
  -4  13  -1  795.42   53.59
  -9  -4  -1  886.11   51.49
  -4  -9   1  790.92   55.79
  -4  -9   1  904.91   51.69
  13  -4   1  893.81   51.29
  -9  13   1  851.31   50.79
  13  -4   1  844.32   51.39
  13  -9  -1  921.21   52.79
  -9  13   1  820.92   52.49
  -4  13  -1  899.51   51.69
  13  -9  -1  853.71   52.49
 -13   5  -1  195.78   16.00
 -13   5  -1  204.88   19.00
   8   5   1  222.88   16.90
   8 -13  -1  178.88   22.80
 -13   5  -1  228.28   18.10
   5 -13   1  215.78   17.90
   8 -13  -1  202.38   16.60
 -13   8   1  214.98   19.30
   8   5   1  209.98   24.10
 -13   8   1  226.48   16.70
   5 -13   1  222.58   25.70
   8 -13  -1  197.78   22.40
   8   5   1  170.98   19.40
   5   8  -1  213.18   25.90
  13  -5   1  226.68   17.70
  -5  13  -1  255.77   18.70
  -5  -8   1  265.67   18.50
  -5  13  -1  205.08   21.20
  -8  -5  -1  243.78   18.60
  -8  13   1  219.58   16.90
  -8  13   1  230.18   19.60
  -5  -8   1  204.18   25.10
  13  -5   1  260.07   18.00
  13  -8  -1  227.88   19.50
   7   6   1  904.71   53.79
 -13   6  -1  913.51   53.69
   7 -13  -1  856.91   52.79
   7 -13  -1  895.01   56.79
   7 -13  -1  807.12   54.99
 -13   7   1  832.12   52.29
   7   6   1  934.91   56.39
   7   6   1  880.41   52.69
 -13   7   1  930.91   52.79
   6 -13   1  942.51   53.49
   6   7  -1  911.51   57.59
   6 -13   1  871.11   57.59
 -13   7   1  938.41   54.49
 -13   6  -1  926.51   53.69
 -13   6  -1  822.22   52.19
  -7  -6  -1  883.71   56.79
  13  -7  -1  891.21   54.19
  -6  13  -1  943.11   53.39
  13  -7  -1  925.61   54.29
  -7  -6  -1  923.91   53.39
  13  -6   1  909.71   53.29
  -7  13   1  881.41   52.89
  13  -6   1  909.81   53.79
  -7  13   1  863.81   54.49
  -6  -7   1  816.42   56.89
  -6  13  -1  852.61   55.19
  -6  -7   1  939.41   53.49
   6 -13  -1  398.66   32.40
   6 -13  -1  450.25   29.10
 -13   7  -1  498.45   30.10
 -13   6   1  457.75   28.70
 -13   6   1  441.36   28.30
   7 -13   1  473.25   29.50
   6 -13  -1  422.76   33.90
   7 -13   1  487.95   35.40
   6   7   1  472.55   34.50
   6   7   1  413.76   30.00
 -13   7  -1  435.06   28.10
   6   7   1  426.36   28.30
   7   6  -1  465.95   35.80
 -13   6   1  464.75   30.60
 -13   7  -1  442.66   30.00
  13  -7   1  480.55   30.70
  -6  13   1  434.46   30.80
  -7  -6   1  461.05   28.40
  13  -7   1  488.65   29.80
  13  -6  -1  519.55   31.10
  -7  -6   1  478.25   29.90
  -6  -7  -1  480.15   29.70
  -7  13  -1  424.86   31.30
  -7  13  -1  483.25   29.50
  -6  13   1  452.25   29.10
  13  -6  -1  448.76   30.70
  -6  -7  -1  443.76   34.20
   8 -13   1   80.99   21.00
   8   5  -1   57.89   12.50
 -13   5   1   74.19   13.90
 -13   5   1   75.99   11.50
   8   5  -1   98.69   11.20
   5 -13  -1   80.79   20.90
   8   5  -1   80.89   14.90
   5   8   1   61.39   11.70
   8 -13   1   86.59   13.00
 -13   8  -1   69.89   13.40
   8 -13   1   73.29   12.50
   5 -13  -1   85.69   12.40
 -13   5   1   70.79   11.20
   5   8   1   78.69   10.70
 -13   8  -1   79.39   10.70
 -13   8  -1   86.39   13.50
   5 -13  -1  105.59   14.90
   5   8   1   75.79   14.60
  13  -8   1   94.99   13.90
  -8  13  -1   82.49   15.40
  -5  -8  -1   78.59   13.70
  13  -5  -1   80.39   14.50
  -5  13   1   92.09   15.10
  -8  -5   1   84.79   13.60
  -5  -8  -1   69.09   20.40
  13  -8   1   99.39   15.10
  -8  13  -1   75.89   12.30
  -8  -5   1   88.59   11.30
  -5  13   1   85.39   12.60
  13  -5  -1  116.89   15.80
   4 -13  -1  317.17   21.90
   9   4  -1  305.17   29.00
   4 -13  -1  314.17   27.80
 -13   9  -1  299.87   20.50
   4   9   1  282.57   20.40
 -13   9  -1  301.97   22.70
   9 -13   1  322.67   21.70
   9   4  -1  272.57   21.10
 -13   4   1  312.77   27.10
 -13   4   1  303.47   20.80
   9 -13   1  303.97   21.90
   9   4  -1  321.37   24.00
   4   9   1  297.77   22.40
 -13   4   1  299.47   23.00
   9 -13   1  302.77   27.80
   4   9   1  304.97   26.70
  13  -4  -1  301.47   23.20
  -4  -9  -1  310.67   22.20
  -4  13   1  302.87   23.50
  13  -9   1  321.57   22.50
  -4  -9  -1  286.17   28.30
  -9  13  -1  308.87   21.60
  -9  -4   1  299.67   22.30
  13  -9   1  300.17   25.00
  -4  13   1  306.67   21.90
  -9  -4   1  304.57   20.60
  13  -4  -1  308.27   23.30
  -9  13  -1  305.07   23.40
 -13   3   1  158.18   17.40
  10 -13   1  186.08   17.20
   3 -13  -1  173.98   17.00
  10 -13   1  164.58   23.10
   3 -13  -1  156.98   24.00
 -13   3   1  176.88   14.90
  10   3  -1  174.98   18.60
  10   3  -1  154.68   25.10
 -13   3   1  153.48   15.50
 -13  10  -1  188.68   14.80
   3  10   1  179.18   17.50
   3  10   1  177.18   14.60
  10   3  -1  163.08   16.00
   3  10   1  153.48   20.40
  10 -13   1  168.18   15.70
 -13  10  -1  170.68   17.40
 -10  -3   1  183.58   16.70
  -3  13   1  169.78   16.10
  -3 -10  -1  196.98   23.50
  -3  13   1  184.18   18.90
  13  -3  -1  183.28   18.20
  13 -10   1  177.98   20.80
  13 -10   1  171.88   15.20
  -3 -10  -1  192.88   17.00
  13  -3  -1  200.28   17.70
  13 -10   1  209.28   17.40
 -10  13  -1  184.48   15.60
 -10  -3   1  189.28   14.90
 -10  13  -1  190.18   18.10
  11 -13   1 1120.19   66.29
  11 -13   1 1137.79   69.99
   2 -13  -1 1085.09   70.09
 -13   2   1 1068.09   65.39
   2  11   1 1124.49   65.39
   2  11   1 1092.49   68.39
   2  11   1 1130.19   66.19
   2 -13  -1 1183.08   66.19
  11   2  -1 1095.19   65.99
  11 -13   1 1105.99   65.69
  11   2  -1 1176.68   67.69
  11   2  -1 1116.29   70.89
 -13  11  -1 1116.79   65.29
 -13  11  -1 1168.68   67.09
 -13   2   1 1044.10   65.59
  13 -11   1 1101.99   65.49
 -11  -2   1 1159.08   66.09
 -11  13  -1 1143.79   65.49
  13 -11   1 1143.69   68.39
  13  -2  -1 1075.69   66.09
  13  -2  -1 1184.28   67.69
  -2  13   1 1164.18   65.89
  -2 -11  -1 1171.88   66.29
  13 -11   1 1185.28   66.39
  -2 -11  -1 1104.19   70.39
 -11  13  -1 1143.69   67.29
 -11  -2   1 1121.19   65.49
  -2  13   1 1100.89   67.69
 -13   1   1  781.92   47.20
  12 -13   1  784.12   51.69
   1  12   1  787.42   48.30
 -13  12  -1  798.82   48.90
 -13  12  -1  840.22   47.30
  12 -13   1  818.62   48.40
 -13   1   1  746.03   47.60
  12   1  -1  842.82   50.09
  12   1  -1  784.52   47.90
   1  12   1  785.02   50.79
   1 -13  -1  795.62   47.90
   1  12   1  822.02   48.30
   1 -13  -1  756.52   52.89
  12 -13   1  805.92   47.50
  12   1  -1  769.22   53.59
 -12  -1   1  795.22   47.90
  -1 -12  -1  774.52   48.00
 -12  -1   1  784.82   47.20
  13  -1  -1  788.12   53.29
 -12  13  -1  802.62   49.10
  -1 -12  -1  734.23   52.79
  13 -12   1  801.02   47.60
  13 -12   1  840.72   52.09
  -1  13   1  796.72   47.90
  13  -1  -1  759.12   47.80
  13 -12   1  840.62   48.50
  13  -1  -1  823.32   49.70
  -1  13   1  722.33   49.70
 -12  13  -1  804.92   47.20
  13   0  -1  109.99   17.60
  13   0  -1  106.79   24.70
   0 -13  -1  122.49   24.10
 -13   0   1  130.59   15.80
  13   0  -1  154.78   15.90
 -13  13  -1  134.49   16.80
   0 -13  -1  145.89   16.10
  13 -13   1  112.69   22.10
 -13   0   1  110.19   13.70
  13 -13   1   97.49   14.40
  13 -13   1  143.79   17.40
   0  13   1  124.39   16.10
 -13  13  -1  139.19   13.80
   0  13   1   81.09   19.60
   0 -14   1  119.29   27.60
 -14  14   1  175.78   16.20
   0  14  -1  173.98   19.60
   0  14  -1  130.59   22.50
 -14   0  -1  170.78   18.00
  14   0   1  148.09   17.80
 -14  14   1  173.88   18.60
  14 -14  -1  183.78   21.90
  14   0   1  170.68   18.30
   0 -14   1  210.68   18.60
  14 -14  -1  120.39   21.30
  14   0   1  128.49   23.20
  14 -14  -1  153.58   15.20
  13   1   1  116.59   22.10
   1 -14   1  138.89   17.10
 -14  13   1  146.09   15.00
   1  13  -1  114.39   21.30
   1 -14   1  101.39   24.10
  13 -14  -1  146.89   20.60
   1  13  -1  149.39   18.30
  13   1   1  120.29   17.30
 -14  13   1  115.39   16.70
  13 -14  -1  133.49   13.20
 -14   1  -1  115.39   16.60
  13   1   1  132.89   16.50
  14  -1   1  130.79   15.90
  14  -1   1  115.19   15.90
  -1  14  -1   94.79   20.40
  14 -13  -1  123.69   18.40
  14 -13  -1  146.49   20.10
 -13  -1  -1   84.19   13.10
  -1  14  -1  134.39   17.30
  -1 -13   1  154.28   17.00
  14 -13  -1  119.29   13.00
 -13  14   1  119.09   16.60
  14  -1   1  104.59   22.10
 -13  14   1  135.99   14.50
 -13  -1  -1  126.89   16.50
  -1 -13   1  138.59   25.90
 -14   2  -1  334.27   24.00
  12 -14  -1  340.57   26.70
  12   2   1  351.16   23.80
  12   2   1  319.17   30.00
  12 -14  -1  351.96   21.80
 -14  12   1  312.67   24.50
   2  12  -1  343.87   24.80
   2  12  -1  307.07   28.50
  12   2   1  352.36   24.50
 -14   2  -1  272.47   21.50
   2 -14   1  307.47   30.10
   2 -14   1  324.27   23.90
  12 -14  -1  288.37   27.30
 -14  12   1  321.97   22.50
  14 -12  -1  351.86   26.40
 -12  14   1  312.47   22.30
  -2  14  -1  287.07   27.00
  14  -2   1  299.97   23.30
 -12  14   1  312.47   24.90
  -2 -12   1  330.17   24.00
  14 -12  -1  304.07   25.40
  -2 -12   1  302.37   30.60
  -2  14  -1  333.47   24.10
  14  -2   1  298.47   28.50
 -12  -2  -1  317.97   23.70
  14  -2   1  291.17   23.20
  11 -14  -1  634.64   38.20
   3 -14   1  547.95   45.10
 -14   3  -1  654.23   39.60
   3  11  -1  667.83   40.40
  11   3   1  705.43   40.30
 -14  11   1  661.83   38.60
  11   3   1  635.54   38.90
 -14  11   1  621.04   40.30
   3  11  -1  559.54   43.20
  11 -14  -1  597.84   42.30
 -14   3  -1  603.84   37.70
  11   3   1  681.03   44.60
   3 -14   1  653.63   39.40
  11 -14  -1  632.64   41.70
  14  -3   1  641.24   39.20
  -3 -11   1  634.74   39.40
  14 -11  -1  613.14   40.60
  -3  14  -1  683.23   39.70
  -3  14  -1  533.45   41.50
 -11  14   1  644.84   38.50
 -11  14   1  580.94   40.00
  14  -3   1  667.13   42.70
  14 -11  -1  658.23   40.90
  14  -3   1  632.84   39.30
  -3 -11   1  583.64   44.40
 -11  -3  -1  640.54   39.30
 -14  10   1    4.30    7.10
  10 -14  -1    4.90   14.00
  10 -14  -1    0.90   10.10
   4 -14   1    1.70   10.70
 -14   4  -1    8.20    9.10
   4 -14   1   13.50    8.50
   4  10  -1   15.30   11.80
  10   4   1   14.30    7.70
   4  10  -1    3.40   10.60
 -14   4  -1    7.10    6.60
  10 -14  -1    0.70    7.50
  10   4   1  -10.80   10.80
  10   4   1   18.50    8.80
 -14  10   1   12.30    7.90
  -4  14  -1    2.10    8.30
 -10  14   1   16.30    7.90
  14  -4   1   13.40    6.30
  14 -10  -1   14.50    7.10
  14 -10  -1   21.00   11.90
  -4  14  -1   25.20    9.70
  -4 -10   1   12.40    8.90
 -10  -4  -1   17.60    8.90
  -4 -10   1   10.60   11.50
 -10  14   1   14.50    6.90
  14  -4   1   17.90    9.30
 -14   5  -1  723.53   42.70
   5 -14   1  654.53   47.40
   9   5   1  677.53   41.40
   5   9  -1  696.63   43.40
   9 -14  -1  625.74   44.80
 -14   5  -1  666.33   40.70
   9   5   1  682.63   42.90
   5 -14   1  692.53   41.90
 -14   5  -1  729.43   42.60
   5   9  -1  636.74   46.50
 -14   9   1  670.83   43.10
   9 -14  -1  688.63   41.40
   9   5   1  728.63   46.70
 -14   9   1  694.03   41.20
   9 -14  -1  628.24   44.70
  -5  -9   1  651.23   46.90
  -5  -9   1  713.63   42.10
  -9  -5  -1  698.23   42.00
  14  -5   1  700.13   41.80
  -5  14  -1  719.33   42.20
  -9  14   1  696.93   41.30
  14  -9  -1  687.33   43.10
  -9  14   1  667.93   43.10
  14  -9  -1  754.32   43.30
  14  -5   1  677.83   42.10
  -5  14  -1  629.14   44.30
   8 -14  -1  344.67   29.60
   8 -14  -1  304.57   29.00
   8   6   1  337.17   26.00
 -14   6  -1  370.86   25.70
 -14   6  -1  373.56   25.10
 -14   6  -1  326.67   22.90
   6 -14   1  350.46   31.50
   8   6   1  340.17   30.10
 -14   8   1  371.06   23.70
   8 -14  -1  324.67   23.80
   6 -14   1  385.56   25.00
 -14   8   1  375.86   26.20
   6   8  -1  318.97   31.70
   8   6   1  349.87   23.60
  14  -8  -1  414.66   26.60
  -6  -8   1  331.97   30.50
  -6  14  -1  383.86   25.10
  -6  14  -1  311.47   27.00
  14  -6   1  394.86   24.70
  -8  14   1  335.47   25.60
  -8  14   1  336.37   23.60
  14  -6   1  364.16   25.20
  -8  -6  -1  357.66   29.20
  -8  -6  -1  347.47   25.00
  -6  -8   1  389.66   25.00
 -14   7  -1   32.30    7.60
   7 -14   1   33.90   11.00
   7 -14  -1   28.80   11.00
   7   7   1   50.89   10.70
 -14   7   1   49.60    8.10
 -14   7  -1   46.20   10.10
 -14   7   1   24.50    7.60
 -14   7   1   28.60    7.80
   7 -14  -1   13.60   13.90
   7   7   1   29.10   10.10
 -14   7  -1   39.50    7.50
   7   7   1   34.60   11.80
   7 -14  -1   39.70    8.20
   7   7  -1   30.00   11.70
   7 -14   1   51.39    9.70
  -7  14  -1   31.20    8.40
  14  -7  -1   30.90    7.90
  -7  -7   1   55.99   10.10
  -7  14   1   36.40    8.40
  -7  14   1   57.39    9.10
  14  -7   1   33.20    8.00
  -7  -7  -1   70.09   13.40
  -7  -7  -1   31.90   12.00
 -14   6   1  666.53   42.10
   6   8   1  694.13   42.00
   6   8   1  660.83   45.10
   6 -14  -1  647.74   46.10
   8 -14   1  683.23   41.00
   8 -14   1  672.93   46.40
 -14   6   1  616.24   40.20
 -14   8  -1  675.93   41.70
 -14   8  -1  699.03   41.90
 -14   6   1  710.33   40.50
   6   8   1  628.44   40.10
   6 -14  -1  685.03   41.00
   8   6  -1  684.93   46.80
   6 -14  -1  603.24   43.50
   8   6  -1  578.84   39.90
 -14   8  -1  649.34   40.10
  14  -6  -1  691.43   42.30
  -8  -6   1  705.83   41.40
  14  -6  -1  685.83   42.10
  -8  -6   1  669.23   40.10
  14  -8   1  716.03   42.50
  -6  14   1  688.33   40.80
  14  -8   1  707.13   41.40
  -6  14   1  643.74   42.20
  -8  14  -1  658.43   42.80
  -8  14  -1  659.33   40.80
  -6  -8  -1  636.24   45.70
  -6  -8  -1  669.13   41.40
   5   9   1  468.55   31.40
 -14   5   1  417.76   34.60
 -14   9  -1  469.75   29.70
   9 -14   1  496.45   30.70
   9 -14   1  447.46   36.50
 -14   9  -1  458.05   31.00
   9 -14   1  480.35   30.40
 -14   9  -1  475.55   34.20
   5 -14  -1  457.75   35.90
   9   5  -1  461.45   32.50
   5 -14  -1  496.95   30.70
 -14   5   1  466.15   29.80
   5 -14  -1  429.16   34.10
   9   5  -1  465.35   36.60
 -14   5   1  481.65   32.00
   9   5  -1  470.55   30.00
   5   9   1  476.25   35.20
   5   9   1  451.65   29.70
  -5  14   1  452.15   32.30
  -9  -5   1  483.85   29.80
  -5  -9  -1  491.45   31.20
  14  -5  -1  469.85   31.80
  14  -9   1  511.85   31.20
  -9  14  -1  461.85   32.10
  -9  14  -1  484.75   30.50
  -5  -9  -1  487.95   36.80
  14  -5  -1  501.45   32.20
  -9  -5   1  495.85   31.20
  -5  14   1  506.05   30.50
  10 -14   1   42.00    9.80
 -14  10  -1   26.10    7.40
 -14  10  -1   19.00    7.40
  10 -14   1   19.20    7.90
   4 -14  -1   10.90   11.40
  10 -14   1   13.20   11.20
  10   4  -1    3.20   11.70
 -14   4   1   28.20    8.10
 -14   4   1   20.40    7.80
   4  10   1   38.90    8.10
 -14   4   1   10.60    6.80
   4 -14  -1   26.30    8.80
  10   4  -1    7.40    8.80
   4  10   1   13.80   10.00
  10   4  -1   33.90    8.80
   4  10   1   28.60   10.50
 -10  14  -1   25.30    8.40
  -4  14   1   38.90    9.80
 -10  -4   1   29.80    9.30
  -4 -10  -1   16.30   12.40
 -10  -4   1   24.40    8.30
  14  -4  -1   21.70    7.80
  14 -10   1   52.09   10.40
  14 -10   1   12.80    9.50
  -4 -10  -1   37.20    9.20
 -10  14  -1   37.70    8.50
  -4  14   1   26.30    8.00
   3  11   1  540.95   39.60
  11   3  -1  572.54   35.90
  11   3  -1  562.04   43.40
   3 -14  -1  599.64   36.60
 -14  11  -1  602.94   37.40
 -14  11  -1  598.74   35.30
   3 -14  -1  570.54   41.90
   3  11   1  525.65   34.90
 -14   3   1  525.85   35.70
 -14   3   1  550.64   35.30
  11   3  -1  582.74   38.20
  11 -14   1  585.94   35.60
  11 -14   1  595.84   36.70
  11 -14   1  571.54   41.20
   3  11   1  595.14   36.70
  14 -11   1  555.24   39.50
  14  -3  -1  588.74   38.00
  14  -3  -1  563.54   36.60
  -3 -11  -1  587.24   41.60
 -11  -3   1  558.64   35.20
 -11  14  -1  569.94   37.40
  -3  14   1  558.34   36.00
  14 -11   1  589.34   35.30
  -3 -11  -1  595.94   36.50
 -11  -3   1  585.44   36.40
  -3  14   1  524.25   38.00
 -11  14  -1  596.74   35.60
  14 -11   1  610.54   36.70
   2  12   1  250.17   20.70
  12   2  -1  203.98   21.90
 -14  12  -1  251.67   18.20
  12   2  -1  221.38   28.50
  12 -14   1  194.48   26.80
   2  12   1  186.68   23.40
  12   2  -1  240.68   19.50
  12 -14   1  247.68   20.80
 -14   2   1  220.48   17.90
   2  12   1  226.18   17.70
   2 -14  -1  220.88   20.20
 -14   2   1  204.48   19.20
  12 -14   1  236.48   19.00
 -14  12  -1  241.88   20.70
   2 -14  -1  200.98   27.30
  -2  14   1  218.88   19.30
 -12  -2   1  213.88   17.90
  14  -2  -1  234.88   21.50
  14  -2  -1  245.98   27.20
 -12  14  -1  246.88   18.00
  -2 -12  -1  236.68   27.30
  14 -12   1  216.58   18.20
 -12  14  -1  238.18   20.60
  14  -2  -1  251.27   19.80
 -12  -2   1  246.78   20.10
  14 -12   1  217.28   24.30
  14 -12   1  255.97   20.50
  -2  14   1  211.88   21.90
  -2 -12  -1  241.88   19.90
   1  13   1 1288.37   78.89
  13 -14   1 1396.56   79.39
 -14   1   1 1388.06   79.69
  13   1  -1 1404.46   81.49
   1  13   1 1449.35   79.99
  13 -14   1 1326.87   83.19
   1 -14  -1 1307.97   84.29
 -14  13  -1 1418.86   80.89
 -14  13  -1 1401.76   79.09
  13 -14   1 1420.46   79.99
  13   1  -1 1348.37   79.59
 -14   1   1 1344.17   78.99
   1  13   1 1278.27   81.89
   1 -14  -1 1479.35   79.99
  13   1  -1 1405.06   85.19
 -13  -1   1 1404.76   79.19
 -13  -1   1 1411.06   79.79
  14 -13   1 1399.16   79.89
  14 -13   1 1437.66   79.49
 -13  14  -1 1347.87   80.69
  -1 -13  -1 1255.17   84.19
  -1 -13  -1 1417.96   79.79
  14  -1  -1 1408.46   81.39
  -1  14   1 1285.57   81.19
  14  -1  -1 1435.26   85.39
 -13  14  -1 1396.76   79.09
  14  -1  -1 1329.37   79.59
  -1  14   1 1429.16   79.69
  14 -13   1 1363.06   82.89
  14 -14   1  628.94   38.00
  14   0  -1  573.94   45.50
 -14   0   1  642.24   37.70
   0  14   1  621.74   38.70
  14   0  -1  591.84   40.60
 -14   0   1  608.84   38.50
  14 -14   1  602.74   43.50
  14 -14   1  643.84   39.10
 -14  14  -1  583.84   39.50
   0 -14  -1  556.04   44.60
  14   0  -1  618.84   38.80
   0 -14  -1  637.14   38.60
   0  14   1  544.25   41.30
 -14  14  -1  640.14   37.50
   0 -15   1   27.60   11.00
 -15  15   1   22.60    9.60
 -15   0  -1   16.40   11.30
  15   0   1   20.00   11.90
  15   0   1   16.50    8.80
 -15  15   1   19.80    9.70
  15   0   1   16.80   12.70
  15 -15  -1   29.30   14.20
   0  15  -1   12.90   11.30
  15 -15  -1  -12.40   16.80
 -15   0  -1   12.70    9.00
   1  14  -1   23.20   11.70
  14   1   1   38.30   13.70
   1 -15   1   26.30   12.50
  14   1   1   25.60    9.20
 -15  14   1   19.10    8.20
 -15  14   1   49.60    9.40
   1  14  -1   71.69   14.50
  14 -15  -1   48.10   15.20
  14 -15  -1   50.59    9.50
  14   1   1   48.70   11.80
 -15   1  -1   18.20    8.80
   1 -15   1   41.20   11.50
  14 -15  -1    9.80   11.00
 -15   1  -1   36.60   10.80
  15 -14  -1   52.79   14.10
 -14  15   1   27.10    8.00
  -1 -14   1   55.99   11.80
  15  -1   1   25.30   14.00
  -1  15  -1   12.90   10.90
  -1 -14   1   24.50   13.70
  15  -1   1   38.10   12.00
 -14  15   1   35.00    9.10
  15 -14  -1   32.60   10.20
  15  -1   1   34.90    8.60
 -14  -1  -1   35.20   10.80
   2 -15   1  103.29   24.70
 -15   2  -1  115.49   17.40
  13   2   1  147.99   18.10
  13 -15  -1  141.69   21.40
  13   2   1  139.79   17.40
  13   2   1  129.59   25.60
  13 -15  -1   90.99   20.80
   2  13  -1   95.39   23.00
   2  13  -1  137.29   18.80
 -15  13   1  131.39   15.60
  13 -15  -1  137.79   14.60
   2 -15   1  144.99   17.30
 -15  13   1  133.49   17.00
 -13  15   1  115.29   17.20
  15 -13  -1  131.29   20.30
  -2 -13   1  128.19   17.00
  15  -2   1  126.39   23.40
  15  -2   1  124.59   16.60
  -2 -13   1  138.99   25.20
 -13  15   1  118.19   15.20
  15 -13  -1  140.39   19.20
  15  -2   1  142.89   16.20
 -13  -2  -1  109.69   17.40
  12 -15  -1   34.30    8.80
   3 -15   1   32.50   10.50
  12 -15  -1   24.90   14.60
  12   3   1   39.30   10.70
  12   3   1    8.70   12.90
  12   3   1   14.00    8.80
 -15  12   1   23.60    7.80
 -15   3  -1   23.60   10.50
   3 -15   1   14.60   12.90
 -15   3  -1   12.40    8.40
   3  12  -1   16.60   11.10
   3  12  -1   48.30   13.40
 -15  12   1   29.10    8.70
  12 -15  -1   13.00   10.10
 -12  15   1   18.40    7.20
  15 -12  -1   14.40    8.30
  15 -12  -1   37.00   12.90
  -3  15  -1   22.00   10.80
  -3 -12   1    2.10   12.10
  15  -3   1   20.30    8.00
  15  -3   1   12.90   11.60
  -3 -12   1   20.60    9.90
  15  -3   1   25.90   10.20
 -12  -3  -1   21.70   10.90
 -12  15   1   31.00    8.50
  11   4   1  544.75   33.70
 -15   4  -1  453.95   30.30
 -15  11   1  483.55   33.30
   4  11  -1  456.25   37.40
  11 -15  -1  489.75   35.30
  11   4   1  509.05   31.70
   4 -15   1  531.55   32.30
  11 -15  -1  436.36   35.80
  11 -15  -1  510.45   31.30
   4 -15   1  474.35   38.90
  11   4   1  487.35   38.10
 -15   4  -1  541.25   32.70
   4  11  -1  513.45   33.70
 -15  11   1  514.65   31.20
  -4  15  -1  512.45   32.60
  -4 -11   1  489.45   32.40
  15  -4   1  487.25   32.00
 -11  15   1  449.76   33.40
  15 -11  -1  471.05   33.60
 -11  15   1  476.45   31.10
  -4  15  -1  429.96   35.00
  15  -4   1  472.55   32.00
  15 -11  -1  519.25   33.80
  -4 -11   1  444.06   38.60
 -11  -4  -1  482.25   32.30
  10   5   1  265.57   22.70
 -15  10   1  279.77   20.10
 -15   5  -1  265.77   21.30
 -15   5  -1  262.07   22.00
   5  10  -1  270.07   28.40
 -15  10   1  231.38   22.30
  10 -15  -1  226.08   25.60
   5  10  -1  295.77   24.20
  10   5   1  254.47   20.50
 -15   5  -1  231.38   18.90
   5 -15   1  276.87   21.10
  10   5   1  300.67   23.60
  10 -15  -1  242.98   26.10
   5 -15   1  268.57   28.20
  10   5   1  255.47   28.50
  10 -15  -1  243.98   20.00
  -5  15  -1  250.97   24.40
  -5 -10   1  285.77   22.10
  15  -5   1  284.47   21.30
 -10  15   1  288.17   20.10
  -5  15  -1  307.97   22.00
  15 -10  -1  307.57   23.50
 -10  15   1  271.77   22.10
  15  -5   1  270.97   21.10
  15 -10  -1  267.17   22.40
  -5 -10   1  239.38   28.10
 -10  -5  -1  269.37   21.40
   9   6   1  246.18   19.40
   6 -15   1  261.47   20.70
 -15   9   1  230.78   21.60
   9 -15  -1  226.18   26.30
 -15   6  -1  254.47   18.60
 -15   6  -1  239.18   21.00
 -15   9   1  274.37   19.40
   6   9  -1  219.28   28.40
 -15   6  -1  282.67   22.10
   9   6   1  243.58   22.90
   6   9  -1  247.98   23.50
   6 -15   1  245.28   28.60
   9 -15  -1  186.58   25.70
   9 -15  -1  246.88   19.60
  15  -6   1  274.07   21.30
  -6  -9   1  279.47   21.00
  -6  15  -1  296.67   21.10
  -9  15   1  256.97   19.40
  -6  15  -1  212.18   23.30
  -6  -9   1  237.78   27.10
  15  -6   1  286.07   20.40
  15  -9  -1  316.07   23.00
  -9  15   1  245.88   21.70
  15  -9  -1  255.57   21.60
  -9  -6  -1  265.37   20.90
   8 -15  -1  717.63   43.70
   7 -15   1  674.13   49.50
   8   7   1  710.13   44.80
 -15   7  -1  779.12   44.80
 -15   8   1  664.03   43.00
 -15   8   1  738.23   43.20
   8 -15  -1  696.93   48.30
   8   7   1  708.33   43.20
   8   7   1  687.33   48.70
 -15   7  -1  746.03   44.90
 -15   8   1  730.23   45.40
 -15   7  -1  709.73   43.00
   7   8  -1  712.73   49.99
   8 -15  -1  598.14   46.80
   7 -15   1  773.72   44.20
  -7  -8   1  758.22   44.20
  15  -8  -1  701.53   45.00
  -7  15  -1  782.52   44.10
  -8  15   1  703.83   43.20
  15  -7   1  757.92   44.00
  -8  -7  -1  709.63   48.50
  -7  -8   1  625.24   48.20
  -7  15  -1  662.73   45.50
  15  -7   1  732.23   44.90
  -8  -7  -1  754.02   44.10
  15  -8  -1  762.32   45.30
  -8  15   1  708.93   45.10
   7   8   1  293.87   21.10
 -15   7   1  325.07   21.70
   7 -15  -1  300.77   22.10
   7 -15  -1  238.48   27.10
   8 -15   1  287.17   29.30
   8 -15   1  310.17   22.50
 -15   7   1  271.47   21.50
 -15   8  -1  299.77   24.30
   7   8   1  274.87   24.20
   8   7  -1  295.67   30.00
   8   7  -1  300.97   20.90
 -15   7   1  310.27   24.00
 -15   8  -1  290.07   20.80
   7 -15  -1  261.67   29.90
 -15   8  -1  316.07   24.10
   7   8   1  275.67   29.00
  15  -7  -1  318.67   24.20
  -8  -7   1  331.67   23.10
  15  -7  -1  339.07   24.50
  -7  -8  -1  316.57   23.10
  15  -8   1  292.27   28.50
  15  -8   1  345.37   22.90
  -7  15   1  308.27   23.90
  -7  -8  -1  271.87   29.30
  -7  15   1  343.57   22.10
  -8  15  -1  299.97   24.80
  -8  15  -1  320.27   22.30
   6 -15  -1   96.49   21.80
   9   6  -1  101.59   16.30
   6 -15  -1   67.29   16.50
   9   6  -1   91.69   12.70
   6   9   1   86.19   12.40
 -15   9  -1   88.09   16.60
   6 -15  -1  102.49   14.90
   6   9   1   84.59   16.40
   9 -15   1   91.89   23.00
 -15   6   1  104.59   13.70
 -15   9  -1   97.29   15.20
 -15   6   1   73.89   12.70
 -15   6   1   83.29   15.70
   9 -15   1   98.79   14.40
   9   6  -1   62.29   14.70
 -15   9  -1   93.89   12.60
  15  -6  -1   82.49   16.10
  -6  -9  -1   90.19   22.70
  -9  15  -1  113.19   16.30
  15  -6  -1  129.29   16.50
  -6  15   1   91.49   14.00
  -9  -6   1  103.39   12.20
  -6  -9  -1  110.99   15.50
  -9  -6   1   80.89   15.40
  -9  15  -1  106.79   14.30
  15  -9   1   73.99   17.80
  -6  15   1  101.69   15.70
  15  -9   1  119.29   15.50
   5 -15  -1  106.09   23.40
 -15  10  -1  119.69   14.20
  10   5  -1  156.48   15.40
  10   5  -1  143.79   18.00
 -15   5   1  104.49   16.70
   5 -15  -1  138.89   21.10
  10 -15   1  141.89   15.80
   5  10   1   97.39   21.80
   5  10   1  130.89   13.80
   5  10   1  135.79   17.30
 -15   5   1  111.59   14.30
  10 -15   1  109.49   24.60
   5 -15  -1  143.99   16.50
  10 -15   1  158.58   15.70
 -15  10  -1  134.29   16.90
 -15  10  -1  104.89   16.80
 -15   5   1  143.59   14.90
  10   5  -1  127.09   23.50
  15  -5  -1  142.49   17.30
  -5 -10  -1  138.49   16.60
 -10  15  -1  138.59   14.70
  15  -5  -1  160.98   17.50
 -10  -5   1  121.59   14.00
  -5  15   1  131.89   17.40
  -5  15   1  136.29   15.40
 -10  15  -1  130.79   17.30
 -10  -5   1  131.49   16.60
  -5 -10  -1  141.19   24.80
  15 -10   1  164.78   16.90
  15 -10   1   99.89   20.90
   4 -15  -1  101.89   16.00
  11   4  -1   76.79   17.50
   4 -15  -1  106.19   23.50
 -15  11  -1   97.09   16.80
  11 -15   1  121.09   16.00
 -15   4   1  104.09   13.90
  11   4  -1  127.29   14.50
 -15   4   1   90.89   14.70
 -15  11  -1  113.89   13.50
  11 -15   1   97.29   14.50
   4 -15  -1  158.58   21.30
   4  11   1  109.39   12.70
   4  11   1   96.29   17.10
 -11  15  -1  115.69   13.80
  -4 -11  -1  150.68   15.90
  -4  15   1  103.69   15.20
  -4  15   1  113.29   16.80
 -11  -4   1  118.69   16.60
 -11  -4   1   68.09   13.40
  15 -11   1   79.79   20.20
 -11  15  -1  116.29   16.20
  -4 -11  -1   89.99   25.90
  15 -11   1  138.99   16.40
  15  -4  -1   92.99   16.90
  15  -4  -1  140.99   16.60
  12   3  -1  482.15   31.60
 -15  12  -1  531.55   31.00
   3 -15  -1  515.75   32.50
 -15   3   1  449.86   31.70
   3 -15  -1  425.06   37.80
   3  12   1  440.56   35.80
  12 -15   1  466.25   37.60
   3  12   1  525.85   33.00
 -15   3   1  494.55   31.00
  12   3  -1  495.15   34.30
  12 -15   1  479.45   31.50
 -15  12  -1  519.95   33.50
   3  12   1  498.15   30.90
  12   3  -1  417.56   40.70
  12 -15   1  499.85   32.50
 -12  15  -1  480.75   30.80
  15  -3  -1  481.05   33.80
  -3  15   1  493.45   31.80
  15 -12   1  461.05   30.90
  15  -3  -1  511.65   32.20
 -12  15  -1  497.55   33.10
  15 -12   1  525.85   32.60
  -3 -12  -1  516.65   32.40
 -12  -3   1  454.95   30.80
 -12  -3   1  511.35   32.60
  15 -12   1  446.26   35.80
  -3  15   1  472.05   34.10
  -3 -12  -1  458.45   38.60
   2 -15  -1  601.54   45.30
 -15   2   1  587.14   38.80
  13 -15   1  555.24   44.40
  13 -15   1  633.04   38.40
 -15  13  -1  626.04   40.20
   2 -15  -1  635.34   39.60
  13 -15   1  645.64   39.50
 -15  13  -1  666.03   38.10
   2  13   1  551.74   42.40
 -15   2   1  634.84   38.10
   2  13   1  675.63   39.80
  13   2  -1  582.94   46.10
   2  13   1  586.54   37.70
  13   2  -1  609.34   41.30
  13   2  -1  615.74   38.80
  15 -13   1  630.64   38.20
  15  -2  -1  590.84   38.90
  15  -2  -1  654.03   40.70
 -13  15  -1  627.44   40.20
  -2  15   1  572.94   41.00
 -13  -2   1  611.74   37.90
  -2 -13  -1  625.04   39.10
  -2  15   1  603.84   38.70
 -13  15  -1  647.24   38.00
  15  -2  -1  575.24   45.30
  -2 -13  -1  613.44   45.20
  15 -13   1  637.74   39.40
  15 -13   1  577.84   43.60
 -13  -2   1  631.54   39.30
  14   1  -1  105.09   17.90
   1  14   1   89.89   17.30
   1  14   1   76.99   14.70
 -15  14  -1  100.29   14.40
 -15  14  -1   76.39   16.20
   1 -15  -1   91.19   16.90
  14 -15   1   83.79   14.80
  14   1  -1  115.59   16.30
   1 -15  -1   52.49   13.70
 -15   1   1   65.09   13.90
 -15   1   1   99.09   16.50
  14 -15   1   57.49   14.60
  14   1  -1   96.59   25.10
  14 -15   1  101.79   17.30
  15 -14   1   91.59   17.20
 -14  -1   1   67.69   14.00
  -1  15   1   92.99   18.40
  15 -14   1   69.89   11.20
  15  -1  -1   58.79   11.40
  -1 -14  -1   55.79   15.30
  -1  15   1  101.79   16.20
 -14  -1   1   86.09   16.80
  15  -1  -1  121.39   17.10
 -14  15  -1   98.29   13.90
  -1 -14  -1  108.89   15.90
  15  -1  -1   98.99   25.90
 -14  15  -1   88.99   16.40
  15 -15   1  684.03   49.80
 -15  15  -1  776.92   44.30
   0 -15  -1  784.72   45.20
  15   0  -1  677.23   52.69
   0  15   1  765.92   45.20
 -15   0   1  738.43   44.20
   0 -15  -1  588.34   51.69
  15 -15   1  750.72   45.50
  15   0  -1  722.73   47.50
  15 -15   1  757.42   45.70
   0  15   1  676.83   47.60
  15   0  -1  715.13   44.90
 -15  15  -1  687.03   46.10
 -15   0   1  749.62   45.40
  16 -16  -1  385.56   31.30
 -16  16   1  404.46   28.40
 -16   0  -1  401.66   30.00
   0  16  -1  429.46   30.10
   0 -16   1  400.06   29.90
 -16   1  -1  195.18   20.50
  15   1   1  206.68   20.40
   1 -16   1  198.98   20.30
  15   1   1  129.19   36.00
 -16  15   1  193.58   18.50
  15 -16  -1  199.98   23.10
  15   1   1  207.78   23.50
  -1 -15   1  223.88   20.60
 -15  16   1  130.99   22.70
  16  -1   1  153.08   45.00
  16  -1   1  185.68   19.40
 -15  -1  -1  178.18   20.40
  16 -15  -1  215.68   22.70
  14 -16  -1   42.70    9.60
 -16   2  -1   25.80   11.20
   2 -16   1   21.90   11.90
 -16  14   1    9.70   10.20
   2  14  -1   20.40   14.00
  14 -16  -1   24.00   15.70
  14   2   1   49.30   25.70
  14   2   1   15.60   13.60
 -16  14   1   31.00    8.10
 -16   2  -1   16.70    9.60
  14   2   1   25.50   12.60
  -2  16  -1   36.60   12.80
  16 -14  -1   47.70   14.30
  16 -14  -1   18.30    9.40
  -2 -14   1   30.00   11.60
  16  -2   1   21.00    9.10
 -14  -2  -1   30.40   12.10
  16  -2   1   23.50   11.30
 -14  16   1   29.40    9.30
  16  -2   1   45.20   14.20
  13   3   1   -2.90   27.70
   3  13  -1   36.00   12.10
 -16  13   1   29.00    9.10
  13   3   1   38.30   11.90
  13 -16  -1   67.59   12.80
 -16  13   1   39.20   10.60
 -16   3  -1   24.50   11.00
 -16   3  -1   44.40    9.80
   3 -16   1   38.10   11.70
  13   3   1   43.60   15.70
  13 -16  -1   39.10   15.50
  16  -3   1   26.80   10.90
  16  -3   1   35.30   13.20
  16  -3   1   57.79   15.30
  16 -13  -1   48.20   13.90
  -3 -13   1   34.20   11.70
 -13  -3  -1   16.40   10.60
  -3  16  -1   46.30   12.00
  16 -13  -1   19.10    9.40
 -13  16   1   34.70   10.10
  12   4   1    5.60   16.70
   4 -16   1   25.80   10.30
  12 -16  -1   26.00   15.20
  12   4   1   20.10   10.00
   4  12  -1   32.40   14.30
 -16   4  -1   23.60    8.80
  12   4   1   25.50   10.80
 -16   4  -1   29.60   11.00
   4  12  -1    4.60   11.70
  12 -16  -1   39.20    9.50
   4 -16   1    2.10   12.40
 -16  12   1   23.00    9.00
  12 -16  -1    1.10   10.50
 -16  12   1   15.30    7.80
  -4 -12   1   29.10   13.30
 -12  16   1   12.60    7.40
 -12  -4  -1   29.70   10.50
  16  -4   1   38.10   10.90
  -4  16  -1   14.00    9.60
  -4 -12   1   26.80   10.30
  16  -4   1   17.40    8.50
  16 -12  -1   68.89   15.20
  -4  16  -1   45.20   11.40
  16  -4   1   47.20   12.70
 -12  16   1   41.50    9.30
  16 -12  -1   31.70    8.50
  11   5   1  351.26   34.90
 -16  11   1  362.46   28.50
  11 -16  -1  353.46   31.00
  11   5   1  388.76   26.80
  11   5   1  373.36   29.60
 -16  11   1  395.66   26.30
   5  11  -1  335.97   33.80
   5 -16   1  420.46   27.50
  11   5   1  415.86   29.10
   5 -16   1  334.77   34.10
   5  11  -1  402.16   29.80
  11 -16  -1  393.06   26.40
  11 -16  -1  328.67   32.60
 -16   5  -1  379.56   25.70
 -16   5  -1  428.26   28.20
 -11  16   1  339.27   27.90
  -5  16  -1  430.26   27.80
  16  -5   1  382.76   27.50
  16 -11  -1  436.16   29.20
  -5 -11   1  356.26   34.30
  16  -5   1  388.26   27.00
 -11  -5  -1  393.76   27.40
  -5 -11   1  421.26   28.00
 -11  16   1  386.06   26.10
  16 -11  -1  365.86   28.90
  10 -16  -1  782.62   56.29
  10 -16  -1  827.02   54.89
   6 -16   1  816.22   57.69
  10 -16  -1  893.31   52.29
  10   6   1  881.31   52.09
 -16  10   1  877.51   53.59
   6  10  -1  952.80   54.39
 -16   6  -1  932.21   53.19
  10   6   1  875.31   53.69
 -16   6  -1  899.21   53.39
  10   6   1  871.81   57.89
 -16  10   1  939.41   52.09
  10   6   1  897.21   54.09
 -16   6  -1  874.91   51.69
   6 -16   1  945.61   52.89
   6  10  -1  880.11   58.09
 -10  16   1  882.11   51.99
  -6 -10   1  902.31   52.89
 -10  16   1  790.32   53.59
  16  -6   1  836.02   53.39
 -10  -6  -1  848.22   52.49
  -6  16  -1  779.02   54.79
  16 -10  -1  873.71   53.59
  -6  16  -1  918.11   52.79
  16 -10  -1  833.42   53.89
  16  -6   1  860.31   52.29
  -6 -10   1  771.32   57.19
 -16   9   1  223.38   21.90
   7   9  -1  180.98   29.40
   9   7   1  195.08   23.40
 -16   7  -1  257.57   29.60
   9 -16  -1  244.78   20.40
 -16   7  -1  275.77   22.80
   7 -16   1  222.38   29.40
   9   7   1  188.38   28.80
   7   9  -1  243.68   24.20
   7 -16   1  280.37   21.40
   9 -16  -1  220.18   26.70
 -16   9   1  266.97   19.80
   9   7   1  250.97   19.80
 -16   7  -1  262.17   19.20
  -7  -9   1  302.67   21.70
  -7  16  -1  307.67   21.20
  -9  16   1  231.08   22.00
  -7  -9   1  236.68   27.30
  -9  16   1  256.57   19.60
  -9  -7  -1  268.57   21.60
  16  -9  -1  265.57   22.20
  16  -9  -1  274.27   23.20
  -7  16  -1  232.18   22.50
  16  -7   1  288.37   20.70
 -16   8   1  484.15   29.30
   8 -16  -1  369.06   36.30
   8   8  -1  411.76   28.30
   8 -16  -1  446.06   29.90
 -16   8   1  432.36   31.00
   8   8  -1  431.16   37.70
   8 -16   1  377.46   36.80
   8   8   1  430.06   36.80
   8 -16   1  467.65   29.90
   8   8   1  430.26   31.40
 -16   8  -1  454.25   31.40
 -16   8   1  451.85   30.60
   8   8   1  431.26   28.60
 -16   8  -1  449.66   31.00
 -16   8  -1  441.66   28.50
  -8  16  -1  438.96   31.90
  16  -8  -1  424.76   31.10
  -8  16   1  445.56   31.30
  -8  16   1  447.46   29.20
  16  -8   1  447.26   31.90
  -8  -8  -1  461.25   30.20
  -8  -8   1  470.75   30.30
  16  -8   1  448.26   29.80
  -8  16  -1  473.05   29.60
  16  -8  -1  484.85   31.30
  -8  -8  -1  469.95   35.90
 -16   7   1  187.68   19.20
   9   7  -1  196.28   26.70
 -16   7   1  127.79   18.60
   7 -16  -1  178.58   25.20
 -16   9  -1  176.58   18.90
 -16   9  -1  190.38   20.50
 -16   7   1  188.18   17.00
   7 -16  -1  143.19   21.60
   9   7  -1  200.18   20.30
   7 -16  -1  196.58   18.30
   9 -16   1  197.68   27.00
   9   7  -1  189.58   16.60
 -16   9  -1  189.88   16.40
   7   9   1  151.78   21.10
   7   9   1  187.78   16.20
   9 -16   1  192.98   18.10
   7   9   1  136.49   26.00
  -7  16   1  194.98   17.50
  -7  -9  -1  172.38   26.40
  -9  16  -1  185.78   19.70
  -9  -7   1  185.78   18.70
  -9  16  -1  197.48   18.00
  -7  -9  -1  213.28   18.80
  -7  16   1  191.98   19.20
  16  -9   1  152.58   20.90
  16  -9   1  207.58   18.60
  16  -7  -1  217.28   19.80
  16  -7  -1  174.08   19.80
  10 -16   1  107.39   15.70
  10   6  -1  113.19   14.70
 -16  10  -1   91.59   16.60
 -16  10  -1   99.29   13.80
  10 -16   1   66.99   15.20
 -16   6   1  104.29   15.10
 -16   6   1  106.09   14.50
   6  10   1   79.59   13.10
 -16  10  -1  101.99   18.00
  10   6  -1  102.29   17.70
 -16   6   1   93.79   16.20
  10 -16   1  119.49   15.20
   6  10   1   92.19   17.60
   6 -16  -1   83.99   16.50
  -6 -10  -1  121.59   16.20
 -10  16  -1  108.69   14.90
 -10  -6   1   88.29   13.00
  16  -6  -1  132.09   17.40
  -6  16   1   98.89   16.50
 -10  -6   1  115.29   16.50
  16  -6  -1   93.79   16.90
  -6  16   1   97.49   15.10
  16 -10   1  118.09   16.70
 -10  16  -1  126.89   16.80
 -16  11  -1   86.69   17.60
  11 -16   1  124.19   16.10
   5 -16  -1  122.89   17.80
 -16  11  -1   92.49   17.10
  11   5  -1   68.09   18.00
 -16   5   1   71.99   15.20
   5 -16  -1   79.09   18.00
  11   5  -1  115.89   15.50
 -16   5   1  105.59   14.20
  11   5  -1   82.49   24.20
   5  11   1   95.79   13.20
  11 -16   1   88.69   14.70
 -16   5   1  100.69   15.60
   5 -16  -1  108.69   24.80
 -16  11  -1  103.39   14.30
   5  11   1  101.09   18.10
  11 -16   1   87.79   24.50
 -11  -5   1  123.39   16.90
  -5 -11  -1  138.49   24.80
  16 -11   1  122.79   16.90
  16  -5  -1  131.79   17.20
  16  -5  -1  107.49   17.30
 -11  16  -1  115.69   16.20
  -5  16   1  113.29   15.50
 -11  -5   1  104.39   14.00
  -5  16   1  114.29   17.40
  -5 -11  -1  151.08   16.10
  16 -11   1   83.99   21.00
 -11  16  -1  107.29   14.50
  12 -16   1   79.19   13.80
   4  12   1   54.39   10.90
  12   4  -1   40.30   10.70
   4 -16  -1   56.19   11.40
 -16   4   1   67.19   13.70
   4  12   1   48.10   12.60
 -16  12  -1   60.29   16.50
 -16  12  -1   82.59   13.40
  12   4  -1  101.39   15.10
   4 -16  -1   33.70   13.00
  12   4  -1   35.90   14.10
  12 -16   1   87.99   16.40
 -16   4   1   36.10   10.50
  16  -4  -1  103.89   15.90
  -4 -12  -1   89.49   15.90
 -12  -4   1   62.09   12.60
  -4  16   1   83.49   15.30
  -4  16   1   84.79   16.50
 -12  16  -1   81.59   13.80
  16 -12   1   92.89   16.50
  -4 -12  -1   45.40   15.40
  16  -4  -1   37.60   10.40
 -12  16  -1   83.09   16.00
 -12  -4   1   54.09   10.30
 -16  13  -1  117.39   14.90
  13   3  -1  115.49   16.10
   3  13   1   94.19   18.70
  13   3  -1   67.49   18.70
   3 -16  -1  103.99   17.60
  13 -16   1  103.59   17.50
 -16   3   1   91.89   12.80
  13 -16   1   91.59   15.50
   3  13   1   94.89   14.10
 -16   3   1   90.99   14.20
 -16  13  -1  137.79   17.80
 -13  16  -1   81.29   17.30
  16  -3  -1  111.89   25.10
  16 -13   1  112.39   17.60
  16 -13   1   88.39   13.90
  -3 -13  -1  117.69   16.70
  -3  16   1   99.09   16.20
  16  -3  -1  141.59   16.80
  16  -3  -1   97.99   18.20
 -13  -3   1  111.09   18.00
 -13  16  -1  126.99   14.60
 -13  -3   1   88.59   14.40
  -3  16   1   93.89   18.10
  14   2  -1  542.55   35.30
   2  14   1  604.34   36.60
   2  14   1  443.76   39.30
  14 -16   1  558.74   36.30
 -16   2   1  524.85   36.00
 -16  14  -1  611.14   35.00
  14 -16   1  447.16   41.80
 -16  14  -1  530.35   36.90
  14   2  -1  484.95   44.20
   2 -16  -1  572.74   36.10
  14 -16   1  561.44   35.00
   2 -16  -1  491.05   42.70
  14   2  -1  555.64   37.80
 -16   2   1  549.74   34.50
 -14  16  -1  537.65   36.40
  -2 -14  -1  586.24   35.70
  -2  16   1  573.04   35.40
  16  -2  -1  550.04   37.80
  16 -14   1  540.75   35.00
  16 -14   1  566.94   36.20
 -14  -2   1  537.85   34.50
  16 -14   1  494.45   40.70
  16  -2  -1  536.25   44.60
  -2  16   1  516.65   37.70
  16  -2  -1  553.94   36.00
 -14  16  -1  584.54   34.60
  -2 -14  -1  490.95   42.50
 -14  -2   1  558.84   36.20
   1  15   1  389.06   27.70
  15 -16   1  373.26   26.20
 -16  15  -1  389.86   28.10
 -16   1   1  367.26   27.50
  15   1  -1  284.17   29.70
  15 -16   1  383.76   28.10
   1 -16  -1  384.56   28.00
 -16   1   1  382.46   26.00
 -16  15  -1  423.56   26.10
  15   1  -1  357.46   26.80
  15   1  -1  352.06   36.10
 -15  -1   1  359.16   26.00
  -1 -15  -1  295.47   35.10
  16 -15   1  338.97   25.80
  -1  16   1  387.46   27.10
 -15  16  -1  314.87   28.00
  16  -1  -1  395.66   29.80
  16  -1  -1  354.46   27.00
 -15  -1   1  375.36   28.10
  16 -15   1  281.27   33.70
  16  -1  -1  333.97   36.60
 -15  16  -1  396.06   25.60
  16 -15   1  381.26   27.90
 -16   0   1   47.00   13.10
   0 -16  -1   29.90   12.30
  16 -16   1   47.30   11.60
  16 -16   1   39.20   13.70
  16   0  -1   48.90   12.80
   0  16   1   34.50   12.60
 -16   0   1   29.30   11.00
 -16  16  -1   37.50   10.60
  16   0  -1   41.90   15.50
   0 -17   1  302.27   25.70
 -17   0  -1  282.77   25.40
  17 -17  -1  263.97   26.40
   0  17  -1  334.97   26.00
  17   0   1  318.47   25.40
 -17  17   1  294.17   23.90
  16   1   1   69.69   14.50
   1  16  -1   51.29   13.10
   1 -17   1   49.50   13.30
 -17  16   1   61.39   11.20
 -17   1  -1   38.80   13.00
  16 -17  -1   54.29   16.40
 -16  17   1   44.10   11.00
  -1 -16   1   50.19   13.00
  17  -1   1   52.69   13.60
  -1  17  -1   43.60   12.90
  17 -16  -1   57.29   15.50
  15   2   1  210.68   20.90
 -17  15   1  195.48   21.00
   2  15  -1  203.08   22.30
 -17   2  -1  179.48   20.70
  15 -17  -1  160.48   22.70
   2 -17   1  159.78   20.60
 -15  17   1  177.18   18.40
  -2 -15   1  214.48   21.40
 -15  -2  -1  174.38   22.20
  17  -2   1  172.08   19.80
  -2  17  -1  197.28   21.00
  14   3   1  160.28   20.40
   3 -17   1  121.49   18.40
  14   3   1  108.19   18.30
 -17   3  -1   77.39   16.60
  14 -17  -1  109.49   21.80
 -17  14   1  131.79   16.60
 -17   3  -1  115.09   18.70
  14 -17  -1  124.19   17.00
  -3 -14   1  118.09   18.10
  17  -3   1  124.79   20.50
 -14  -3  -1  121.79   17.80
  17  -3   1  113.99   16.60
  17 -14  -1  100.39   27.00
 -14  17   1   98.29   15.50
  -3  17  -1  144.19   18.60
 -17   4  -1  136.09   18.60
  13   4   1  129.29   19.80
  13   4   1  126.39   17.50
 -17  13   1  121.99   16.40
   4  13  -1  143.39   20.20
  13 -17  -1  126.29   22.50
  13 -17  -1  123.59   16.40
  13   4   1   95.09   17.90
 -17  13   1  133.39   18.60
   4 -17   1  162.28   20.00
 -17   4  -1  103.79   15.60
 -13  17   1  125.59   22.80
  17 -13  -1  121.39   19.90
  17 -13  -1  146.79   21.20
  -4 -13   1  127.39   22.80
  -4  17  -1  167.18   20.10
  17  -4   1  113.79   25.40
 -13  -4  -1  139.69   17.80
 -17  12   1   66.79   14.20
  12 -17  -1   48.80   11.60
  12   5   1   28.00   14.80
 -17   5  -1   56.19   10.40
 -17  12   1   43.40    9.50
  12   5   1   65.39   12.50
   5 -17   1   65.19   11.60
  12 -17  -1   47.10   16.40
   5  12  -1   67.89   14.40
 -17   5  -1   59.49   13.50
  12   5   1   99.39   20.10
  17 -12  -1   81.99   17.10
  -5 -12   1   58.59   12.10
  17  -5   1   88.39   18.80
  -5  17  -1  101.39   20.30
 -12  -5  -1   65.09   11.70
  17 -12  -1   54.19   14.20
  17  -5   1   59.79   14.30
  -5 -12   1   50.09   14.00
 -12  17   1   52.19   10.60
  11 -17  -1   83.69   12.50
  11   6   1   97.19   18.40
 -17  11   1   98.79   15.50
   6 -17   1   93.49   16.90
 -17  11   1   95.69   16.90
   6  11  -1   98.19   20.20
  11 -17  -1   56.19   18.10
 -17   6  -1  120.39   18.20
  11   6   1  104.29   16.70
  11   6   1   88.59   15.70
 -17   6  -1   89.99   14.60
  17 -11  -1  107.79   18.20
  -6 -11   1  120.09   24.40
  -6 -11   1   98.59   17.80
 -11  -6  -1  132.99   17.10
  -6  17  -1  125.49   16.80
  17  -6   1   96.69   16.10
  17  -6   1  124.69   17.30
  17 -11  -1   90.09   19.00
 -11  17   1  105.59   14.80
  10 -17  -1  460.95   29.50
 -17  10   1  458.35   28.80
  10   7   1  415.76   29.00
   7  10  -1  459.45   32.70
  10   7   1  415.56   31.30
  10 -17  -1  352.46   33.30
  10   7   1  345.97   37.30
  10   7   1  380.86   31.90
 -17   7  -1  418.26   31.00
 -17  10   1  387.06   30.40
   7 -17   1  479.35   30.10
 -17   7  -1  448.76   30.90
 -17   7  -1  441.26   28.50
   7  10  -1  425.16   37.00
  17 -10  -1  426.96   31.10
  -7  17  -1  483.35   29.80
  -7 -10   1  448.76   29.90
  17 -10  -1  452.45   31.00
 -10  -7  -1  438.86   30.00
  -7 -10   1  346.97   35.00
 -10  17   1  441.56   28.40
  17  -7   1  400.26   30.60
  17  -7   1  424.56   29.20
   9 -17  -1  672.83   40.90
   8 -17   1  710.93   41.30
 -17   9   1  717.43   40.70
   9   8   1  609.34   40.10
 -17   8  -1  635.44   42.10
   9   8   1  598.24   47.90
 -17   8  -1  638.14   40.10
   8   9  -1  672.93   43.40
   8 -17   1  576.54   54.69
   8   9  -1  557.14   47.60
   9   8   1  636.14   42.70
   8   9  -1  598.34   41.10
 -17   8  -1  709.53   42.50
 -17   9   1  631.34   42.20
  -9  -8  -1  656.93   41.30
  -9  17   1  640.84   40.10
  -8  -9   1  700.53   41.30
  17  -9  -1  651.53   42.40
  17  -8   1  686.83   40.80
  17  -9  -1  659.03   41.80
  17  -8   1  639.84   42.90
  -8  17  -1  655.43   40.70
 -17   9  -1  263.37   23.80
 -17   8   1  286.87   21.10
   9 -17   1  281.47   22.10
   9   8  -1  250.97   24.80
   8 -17  -1  261.57   22.60
 -17   8   1  262.07   23.20
   9   8  -1  228.48   32.00
   8   9   1  237.88   25.60
   8   9   1  254.57   20.80
   9 -17   1  196.38   31.80
 -17   9  -1  282.77   24.60
   9   8  -1  270.47   20.50
 -17   9  -1  244.08   20.40
  -8  -9  -1  260.77   30.30
  -9  -8   1  302.57   22.80
  -8  -9  -1  314.67   22.50
  -8  17   1  282.67   21.10
  17  -9   1  235.28   24.80
  17  -9   1  296.77   22.10
  17  -8  -1  315.17   23.50
  -9  17  -1  308.57   22.30
  17  -8  -1  241.08   23.40
  -9  17  -1  256.77   24.30
   7  10   1  303.27   25.80
   7  10   1  235.68   30.40
  10 -17   1  322.17   23.80
  10   7  -1  286.57   25.70
  10 -17   1  289.17   31.50
   7 -17  -1  315.87   23.90
 -17  10  -1  302.17   26.00
  10   7  -1  309.57   23.00
 -17   7   1  275.27   22.50
 -17   7   1  267.47   24.60
 -17  10  -1  309.67   24.70
   7  10   1  276.77   22.40
 -17  10  -1  325.37   22.60
  10   7  -1  324.37   32.10
 -10  17  -1  289.97   24.50
  -7 -10  -1  322.37   23.90
 -10  -7   1  310.17   24.10
  17 -10   1  316.97   23.80
  17  -7  -1  296.67   25.40
 -10  17  -1  333.17   23.30
  -7  17   1  330.97   23.00
  -7 -10  -1  258.67   31.50
  17  -7  -1  340.47   24.80
  11 -17   1   39.60   10.80
  11 -17   1   24.30   10.00
   6  11   1   24.30   13.30
   6  11   1   36.10   10.50
  11   6  -1    9.90    9.80
 -17  11  -1   24.80    9.60
 -17  11  -1   12.80    8.60
 -17   6   1   14.60    7.20
   6 -17  -1   24.90   11.20
  11   6  -1   39.40   11.50
 -17  11  -1   27.70   13.00
 -17   6   1   22.80    9.70
 -17   6   1   23.60   17.40
  11 -17   1   11.40   12.80
  17 -11   1    8.70   11.40
  -6  17   1   18.30   10.70
  -6 -11  -1   -4.20   13.90
  -6 -11  -1   36.30   10.70
  17 -11   1   33.10   11.40
 -11  17  -1   22.40    7.30
 -11  17  -1   24.60    9.40
  17  -6  -1   20.50    8.50
 -11  -6   1   29.10    9.30
 -11  -6   1   34.00   11.00
 -17   5   1   43.20   10.30
   5  12   1   58.99   13.30
  12   5  -1   25.70   10.10
  12 -17   1   61.49   11.70
   5  12   1   33.80   11.00
 -17  12  -1   48.30   13.20
  12 -17   1   55.99   11.90
 -17   5   1   42.40   13.40
  12   5  -1   67.39   14.40
   5 -17  -1   60.29   12.80
 -17  12  -1   68.79   14.10
  12 -17   1   21.30   15.10
 -17  12  -1   20.00    9.00
  12   5  -1   39.90   14.10
 -12  -5   1   49.99   12.60
  17 -12   1    7.70   11.50
 -12  17  -1   65.79   14.00
 -12  -5   1   30.40   10.00
  17  -5  -1   30.50    9.20
  -5 -12  -1   59.69   15.70
  -5 -12  -1   32.90   15.10
  -5  17   1   73.89   14.90
 -12  17  -1   25.80    9.70
  17 -12   1   56.19   12.80
  13 -17   1  145.19   19.10
 -17   4   1   95.19   18.50
 -17  13  -1  143.39   16.80
  13   4  -1  144.49   18.30
   4  13   1  145.59   20.40
 -17  13  -1  140.59   19.20
  13   4  -1  143.19   19.80
  13 -17   1  147.09   16.90
   4 -17  -1  144.09   19.10
 -17   4   1  118.19   16.30
  -4 -13  -1  133.99   28.90
  17  -4  -1  126.99   19.70
  -4  17   1  143.69   18.30
 -13  -4   1  152.28   19.30
  -4 -13  -1  143.79   22.80
  17  -4  -1  170.98   18.10
 -13  -4   1  115.59   15.80
 -13  17  -1  152.28   20.00
  17 -13   1  147.89   18.90
 -13  17  -1  127.89   15.80
 -17  14  -1  147.79   20.40
   3  14   1  180.88   21.70
  14 -17   1  162.08   18.40
  14 -17   1  155.88   20.70
 -17  14  -1  190.08   18.60
  14   3  -1  149.49   22.30
  14   3  -1  202.18   19.40
 -17   3   1  154.98   17.80
 -17   3   1  141.49   20.30
   3 -17  -1  170.38   20.40
 -14  -3   1  162.28   17.30
  17 -14   1  173.78   20.20
  17  -3  -1  174.48   21.40
 -14  -3   1  167.88   20.80
  17  -3  -1  186.18   29.30
 -14  17  -1  189.98   17.90
  -3 -14  -1  171.58   19.10
  17  -3  -1  175.18   21.70
 -17   2   1   54.69   12.10
   2 -17  -1   63.39   21.50
 -17   2   1   46.90   13.70
  15   2  -1   88.49   16.70
  15 -17   1   97.09   16.00
 -17  15  -1   50.69   10.20
   2  15   1   48.30   13.50
 -17  15  -1   97.99   15.00
  15 -17   1  108.69   18.60
  17  -2  -1   40.50   16.40
  17 -15   1   72.49   12.10
 -15  17  -1   85.19   15.10
  -2 -15  -1   15.60   26.20
  -2 -15  -1   76.69   12.50
  -2  17   1   62.39   13.30
 -15  -2   1   69.09   14.10
  17 -15   1   92.09   18.20
 -15  -2   1   68.19   11.60
  16 -17   1  347.77   26.10
  16   1  -1  309.77   36.60
   1 -17  -1  330.27   26.60
 -17   1   1  312.67   27.60
  16   1  -1  363.86   29.60
 -17  16  -1  321.07   28.40
  16 -17   1  320.87   27.10
  16   1  -1  325.57   26.00
 -17  16  -1  358.06   25.40
 -17   1   1  319.47   24.80
  17  -1  -1  332.97   29.10
  17  -1  -1  321.47   29.00
 -16  -1   1  343.27   25.00
 -16  -1   1  320.97   27.40
  -1 -16  -1  352.26   26.30
  17 -16   1  326.27   25.30
 -16  17  -1  352.06   25.70
  17 -16   1  337.77   27.10
  -1  17   1  342.47   25.70
  17 -16   1  318.27   49.70
  17  -1  -1  280.67   37.30
  17   0  -1  128.59   31.90
  17 -17   1  101.09   14.80
 -17   0   1  104.59   20.40
   0  17   1  110.39   18.70
  17   0  -1  122.49   22.90
 -17   0   1  106.49   17.10
  17 -17   1  127.49   20.30
   0 -17  -1  114.99   19.20
  17   0  -1  118.09   17.50
 -18   0  -1  345.37   29.10
 -18  18   1  376.16   26.90
  18   0   1  396.46   29.30
  18 -18  -1  343.07   29.80
   0 -18   1  338.27   28.70
   0  18  -1  382.56   29.50
 -18   1  -1  540.95   37.10
  17   1   1  576.74   37.60
   1  17  -1  596.04   37.50
   1 -18   1  523.15   37.00
  17 -18  -1  505.95   38.20
 -18  17   1  562.64   35.90
  18 -17  -1  469.15   37.20
  18  -1   1  567.94   36.80
 -17  18   1  531.55   35.50
 -17  -1  -1  518.15   36.80
  -1 -17   1  544.95   37.20
  -1  18  -1  546.85   37.10
 -18  16   1  108.19   17.10
   2  16  -1  107.09   19.40
  16   2   1  109.99   19.00
   2 -18   1   76.89   14.40
 -18   2  -1   76.99   25.60
 -16  -2  -1   77.79   15.30
  18  -2   1   81.19   17.90
  18 -16  -1   76.89   16.20
  -2  18  -1   93.19   19.20
 -16  18   1   73.09   15.90
  -2 -16   1  106.09   18.80
 -18  15   1   16.70   11.00
 -18   3  -1   20.70   12.70
   3 -18   1   29.00   12.40
  15 -18  -1   28.80   15.60
  15   3   1   32.80   17.60
   3  15  -1   42.40   14.50
  -3  18  -1   22.00   12.90
 -15  18   1   23.00   10.00
 -15  -3  -1   22.60   12.50
  -3 -15   1   12.60   12.20
  18  -3   1   21.20   12.10
  18 -15  -1   20.90   14.40
  14 -18  -1   19.90   15.40
 -18   4  -1   -3.90   13.10
   4 -18   1   28.30   12.50
 -18  14   1   11.90   12.80
  14   4   1   13.50   13.50
   4  14  -1   -1.60   13.50
  14 -18  -1   28.20   11.10
  18 -14  -1    2.50   13.90
  -4  18  -1   26.10   12.90
  18  -4   1   12.90   11.30
 -14  18   1   -2.90    9.80
  -4 -14   1   -0.20   11.30
 -14  -4  -1    9.60   11.10
  13 -18  -1  166.98   18.80
  13   5   1  151.28   32.20
  13 -18  -1  133.49   23.80
 -18   5  -1  180.18   20.80
   5 -18   1  165.98   19.20
   5  13  -1  165.98   25.30
  13   5   1  204.38   22.10
 -18  13   1  181.48   18.40
  13   5   1  165.98   19.50
 -13  -5  -1  147.49   18.70
  -5  18  -1  175.48   19.50
  -5 -13   1  141.69   19.50
  18  -5   1  142.69   18.70
  18 -13  -1  141.29   20.90
 -13  18   1  179.08   17.80
  12   6   1   17.50   15.90
  12 -18  -1    2.90   16.50
  12 -18  -1   33.80   11.30
  12   6   1   13.00   12.70
 -18   6  -1   12.50   12.50
 -18   6  -1    4.70   10.90
  12   6   1   39.40   10.50
 -18  12   1   18.60    9.90
   6  12  -1   24.60   16.60
 -18  12   1   17.00   11.10
  -6 -12   1   27.70   12.60
  -6  18  -1   25.10   11.20
 -12  -6  -1   26.70   11.60
  18 -12  -1   22.30   13.90
  18  -6   1   24.80   11.80
 -12  18   1   13.30    9.60
 -18  11   1   75.59   17.60
 -18  11   1  117.19   16.20
  11   7   1  104.19   16.90
 -18   7  -1   96.09   18.10
 -18   7  -1  136.49   19.50
   7  11  -1  109.59   17.90
  11 -18  -1   64.29   18.30
 -18   7  -1   94.29   15.50
  11   7   1  110.09   19.80
   7 -18   1  149.69   18.20
  11   7   1   91.89   17.70
  11 -18  -1   86.09   17.00
  -7 -11   1  139.49   18.90
  -7  18  -1  153.98   17.60
  18 -11  -1  112.49   19.30
 -11  18   1  117.79   15.20
  18 -11  -1  117.79   18.60
  18  -7   1  118.39   16.70
 -11  -7  -1  116.99   17.50
  18  -7   1  148.99   19.10
 -18   8  -1  270.57   24.80
 -18  10   1  288.87   22.30
 -18  10   1  253.17   24.10
  10 -18  -1  274.47   23.40
  10   8   1  255.07   26.20
 -18   8  -1  299.47   25.10
  10   8   1  259.37   22.10
   8  10  -1  257.37   27.30
   8 -18   1  303.07   23.70
   8  10  -1  253.87   33.70
 -18   8  -1  315.97   21.80
  18 -10  -1  253.57   24.60
 -10  -8  -1  281.07   23.30
  18 -10  -1  275.67   24.00
  -8  18  -1  267.27   22.00
  18  -8   1  266.87   25.40
 -10  18   1  279.07   21.30
  18  -8   1  289.77   22.40
   9   9   1  262.27   21.00
   9   9   1  253.37   26.60
 -18   9   1  225.78   23.20
 -18   9  -1  238.98   21.70
   9   9  -1  281.47   26.70
   9 -18  -1  288.47   22.80
   9 -18   1  298.27   22.50
 -18   9  -1  233.68   23.80
   9   9  -1  193.88   32.30
 -18   9   1  286.47   21.80
 -18   9  -1  329.27   25.40
  18  -9  -1  284.87   23.20
  -9  -9   1  290.27   23.10
  18  -9   1  221.18   25.20
  -9  -9  -1  262.87   22.30
  -9  18   1  243.28   20.50
  -9  18  -1  268.37   23.00
  18  -9   1  261.87   21.70
  18  -9  -1  271.97   23.90
   8 -18  -1   58.39   13.10
  10   8  -1   59.09   17.50
  10   8  -1   76.09   14.80
 -18  10  -1   68.39   18.60
 -18  10  -1  105.79   20.10
   8  10   1   62.09   15.10
 -18   8   1   62.29   11.60
  10 -18   1   82.39   16.20
   8  10   1   89.49   14.50
  10   8  -1   33.20   16.80
 -18  10  -1   66.59   14.40
  -8 -10  -1  100.79   26.00
 -10  18  -1   91.09   18.50
  18 -10   1   95.99   15.50
  18  -8  -1  108.19   17.60
  -8 -10  -1   93.99   16.40
 -10  -8   1   68.39   12.40
  -8  18   1   84.99   15.00
 -18  11  -1  236.28   22.00
   7  11   1  196.98   19.10
 -18  11  -1  224.88   19.90
  11   7  -1  230.98   20.90
  11   7  -1  208.38   31.20
   7 -18  -1  201.28   21.90
  11   7  -1  235.48   22.90
 -18  11  -1  228.88   24.00
 -18   7   1  213.28   20.00
  11 -18   1  212.38   20.70
   7  11   1  198.28   23.50
  -7 -11  -1  176.08   30.00
 -11  -7   1  212.08   21.40
 -11  18  -1  204.78   23.70
  18 -11   1  225.18   20.70
  18  -7  -1  217.18   21.10
  18  -7  -1  220.98   22.30
  -7  18   1  203.08   19.70
  -7 -11  -1  233.38   20.40
   6  12   1  132.89   21.00
  12   6  -1  137.19   17.90
  12 -18   1  134.49   18.60
   6 -18  -1  143.09   18.70
 -18  12  -1  143.79   21.10
 -18   6   1  119.19   16.60
  12   6  -1  133.89   19.90
  12 -18   1  118.99   16.90
 -18  12  -1   89.69   19.50
 -18  12  -1  133.19   16.90
 -18   6   1   76.49   18.30
 -12  18  -1  156.18   24.60
 -12  -6   1  112.49   14.60
 -12  -6   1   90.69   18.70
  -6 -12  -1   97.99   17.60
  -6  18   1   99.19   16.50
  18  -6  -1   74.29   18.90
  18 -12   1  118.49   18.90
  18  -6  -1  133.39   17.40
 -18   5   1   65.69   11.90
  13 -18   1   87.99   15.50
  13   5  -1   36.30   11.70
  13 -18   1   66.09   13.30
  13   5  -1   25.80   16.00
   5 -18  -1  100.69   18.80
  13   5  -1  107.39   17.30
   5  13   1   67.19   15.00
 -18  13  -1   90.89   15.90
 -18  13  -1   59.49   16.00
 -13  -5   1   61.29   12.90
 -13  18  -1   53.29   11.50
  18 -13   1   79.69   17.20
  -5  18   1   76.49   15.90
 -13  -5   1   55.69   10.70
  18  -5  -1   91.79   16.70
  -5 -13  -1   55.69   16.60
  -5 -13  -1   60.69   11.60
 -18  14  -1   97.19   16.10
 -18  14  -1   92.39   17.90
   4  14   1   51.39   14.90
 -18   4   1   65.09   13.00
  14   4  -1   49.20   15.90
 -18   4   1   46.80   11.70
  14   4  -1   55.79   13.60
  14 -18   1   37.90   11.80
  14 -18   1   67.19   13.80
 -14  -4   1   42.50   11.90
  -4 -14  -1   58.09   12.40
  18  -4  -1   70.59   13.90
  18 -14   1   57.59   13.70
  -4 -14  -1  104.99   28.70
  -4  18   1   57.69   12.00
 -14  -4   1   45.90   13.00
  18 -14   1   28.80   14.40
 -14  18  -1   55.59   11.30
 -18  15  -1  106.89   21.30
  15 -18   1  159.48   18.10
   3 -18  -1  147.09   20.40
 -18   3   1  122.89   20.70
  15 -18   1  150.08   20.90
  15   3  -1  172.78   22.20
 -18   3   1  136.09   17.50
  15   3  -1  103.79   28.90
  15   3  -1  157.78   20.00
   3  15   1  122.49   22.00
 -18  15  -1  168.48   18.00
  18  -3  -1  113.09   22.80
  -3  18   1  156.08   19.20
  -3 -15  -1  169.18   18.60
  18 -15   1  164.98   19.70
  18  -3  -1  111.59   31.80
  18  -3  -1  152.18   19.00
 -15  18  -1  160.48   17.10
 -15  -3   1  145.39   21.00
 -15  -3   1  160.38   18.00
 -18  16  -1  148.29   17.60
 -18   2   1  128.79   16.80
   2 -18  -1  120.19   19.70
   2  16   1  112.89   20.10
  16 -18   1  113.89   17.70
  16 -18   1  118.79   20.80
 -18   2   1  112.59   17.70
  16   2  -1  144.89   19.40
  18 -16   1   95.39   17.30
  18 -16   1  136.59   19.60
  -2 -16  -1  110.29   18.50
  18  -2  -1  133.69   18.70
  18  -2  -1  170.08   35.70
 -16  -2   1  115.59   21.10
  -2  18   1  132.69   18.50
 -16  -2   1  108.79   17.20
 -16  18  -1  156.48   17.50
   1 -18  -1   28.80   14.50
  17 -18   1   41.80   15.20
 -18   1   1   22.80   12.30
   1  17   1   25.60   13.80
  17   1  -1   52.39   13.80
 -18  17  -1   36.50   12.30
  17 -18   1   84.59   16.80
  18  -1  -1   42.80   13.30
 -17  -1   1   14.80   14.80
  18 -17   1   33.00   14.30
 -17  -1   1   23.90   12.40
  -1  18   1   45.70   13.60
  18 -17   1   40.90   12.60
  -1 -17  -1   35.20   13.50
 -17  18  -1   49.10   12.20
  18 -18   1   84.69   15.80
  18 -18   1   70.59   13.80
  18   0  -1   95.59   18.10
 -18  18  -1   75.09   13.80
 -18   0   1   66.49   17.10
   0 -18  -1   61.99   14.60
 -18   0   1   38.40   16.30
   0  18   1   66.79   14.30
  19 -19  -1  637.04   46.80
  19   0   1  764.12   47.10
 -19   0  -1  684.13   46.50
   0  19  -1  736.13   47.20
 -19  19   1  759.12   45.70
   0 -19   1  723.93   46.60
   1 -19   1   69.99   14.70
  18   1   1  112.79   19.60
  18 -19  -1   98.49   19.90
 -19  18   1   62.59   13.30
 -19   1  -1  103.19   20.40
   1  18  -1   95.79   19.80
  19 -18  -1   72.69   16.50
  -1 -18   1   48.60   14.50
  -1  19  -1   70.49   15.30
 -18  -1  -1   65.09   15.10
 -18  19   1   52.69   12.80
 -19   2  -1  228.78   23.80
   2 -19   1  207.08   22.90
  17 -19  -1  213.28   24.10
  17   2   1  215.98   23.10
   2  17  -1  220.68   23.80
 -19  17   1  236.48   21.30
  -2  19  -1  202.18   22.90
 -17  19   1  208.28   20.40
 -17  -2  -1  198.58   22.50
  19 -17  -1  200.28   23.20
  -2 -17   1  196.78   22.60
  19  -2   1  218.38   22.30
 -19   3  -1  238.08   25.80
 -19  16   1  308.97   24.00
   3  16  -1  306.37   26.30
  16 -19  -1  241.78   32.50
   3 -19   1  299.57   25.30
  16   3   1  296.17   25.00
 -16  -3  -1  262.67   24.60
  19  -3   1  271.27   24.20
  -3 -16   1  309.37   25.70
  19 -16  -1  267.17   25.50
  -3  19  -1  287.87   25.30
 -16  19   1  274.07   23.30
   4  15  -1  148.99   22.80
 -19   4  -1  130.69   20.60
  15   4   1  127.99   20.00
 -19  15   1  134.59   18.30
   4 -19   1   99.69   19.50
  15 -19  -1  110.59   18.90
 -15  19   1   96.49   16.70
  19 -15  -1  106.29   19.70
  -4 -15   1  113.19   18.70
 -15  -4  -1  105.29   18.50
  -4  19  -1  106.89   19.30
  19  -4   1  109.29   17.50
 -19  14   1   49.80   12.80
   5 -19   1   42.40   12.90
  14 -19  -1   54.59   13.30
 -19   5  -1   56.49   14.50
  14 -19  -1   50.39   16.20
   5  14  -1   50.99   15.90
  14   5   1   56.89   15.20
  -5  19  -1   38.20   13.10
  -5 -14   1   42.00   13.00
 -14  -5  -1   53.29   12.80
  19  -5   1   62.89   13.30
  19 -14  -1   87.39   18.30
 -14  19   1   71.49   15.10
  13 -19  -1   94.49   17.60
  13 -19  -1   34.30   17.30
   6 -19   1   56.79   13.80
 -19  13   1   64.19   12.50
 -19   6  -1   70.09   14.80
  13   6   1   53.69   14.80
   6  13  -1   73.39   16.60
  13   6   1   61.99   18.90
  -6  19  -1   95.49   16.90
 -13  -6  -1   55.09   13.30
 -13  19   1   64.69   11.20
  19 -13  -1   69.29   14.00
  19  -6   1   66.69   12.80
  -6 -13   1   59.79   12.60
 -19   7  -1   31.50   14.00
   7  12  -1   24.50   16.30
  12   7   1   32.40   13.60
  12   7   1  -13.90   16.50
   7 -19   1   26.20   12.60
  12 -19  -1   44.90   12.50
  12 -19  -1  -23.50   17.20
 -12  19   1    9.90    9.70
  -7  19  -1   26.50   11.70
  19  -7   1   21.00   11.60
 -12  -7  -1    8.80   11.70
  19 -12  -1   34.50   13.50
  -7 -12   1   30.20   12.30
  11   8   1  232.48   25.50
 -19  11   1  234.48   20.80
   8 -19   1  232.68   21.90
  11   8   1  224.78   20.80
 -19   8  -1  237.58   21.00
  11 -19  -1  227.58   21.70
   8  11  -1  229.38   27.60
  11 -19  -1  146.09   26.20
 -19   8  -1  263.67   23.80
  11   8   1  200.08   23.80
 -11  -8  -1  230.48   21.60
  19 -11  -1  225.68   22.20
  -8 -11   1  224.28   22.10
 -11  19   1  230.38   19.70
  19  -8   1  205.88   20.60
  -8  19  -1  205.08   20.40
   9 -19   1  145.89   25.00
  10 -19  -1   97.19   20.20
 -19   9  -1  197.48   18.40
  10   9   1  151.58   17.90
 -19  10   1  139.59   18.40
  10 -19  -1  117.29   19.70
  10   9   1  130.59   20.10
 -19   9  -1  167.28   22.10
  19  -9   1  153.28   17.90
  19 -10  -1  151.88   19.40
 -10  -9  -1  149.39   18.70
  19  -9   1  148.49   36.20
  -9 -10   1  151.98   19.20
  -9  19  -1  146.59   18.00
 -10  19   1  139.49   16.90
 -19   9   1   89.49   22.20
  10   9  -1  111.89   24.40
   9  10   1  114.19   17.60
   9  10   1  125.79   16.80
 -19   9   1  138.29   17.40
 -19  10  -1  157.08   22.30
  10 -19   1  119.89   22.60
 -19  10  -1   76.59   14.40
   9 -19  -1  137.49   19.10
  19  -9  -1  107.59   18.50
 -10  19  -1  123.69   16.60
  19  -9  -1  165.28   25.00
  -9 -10  -1  103.69   17.70
  -9  19   1   77.89   15.50
  19 -10   1  113.39   17.10
  -9 -10  -1  134.69   27.80
 -10  -9   1  118.89   18.30
   8  11   1  112.19   22.20
  11 -19   1  141.89   18.60
 -19  11  -1  127.99   21.30
 -19   8   1  132.79   17.70
   8 -19  -1  125.09   19.60
 -19   8   1  118.19   18.80
   8  11   1  105.79   18.70
 -19  11  -1  179.98   23.00
 -19  11  -1  136.89   17.20
  19 -11   1  140.49   17.70
  19  -8  -1  144.59   18.10
 -11  -8   1  112.49   18.60
  -8  19   1  119.29   16.80
  -8 -11  -1  177.78   29.20
  19  -8  -1  118.39   21.50
 -11  19  -1  107.59   17.20
  -8 -11  -1  128.99   18.10
 -19  12  -1  116.79   22.00
 -19   7   1   38.20    8.90
  12 -19   1   81.99   16.50
   7  12   1   39.80   15.90
  12   7  -1   83.19   17.30
 -19   7   1   58.19   12.20
   7 -19  -1   64.79   14.20
 -19  12  -1   85.19   16.20
  19  -7  -1   93.29   17.00
  -7 -12  -1   57.19   13.20
 -12  19  -1   75.09   15.60
 -12  -7   1   55.79   13.80
  19 -12   1   78.59   16.30
  -7  19   1   51.79   11.10
  -7 -12  -1   35.20   16.90
  19 -12   1   30.10   13.80
   6 -19  -1   84.09   25.60
  13   6  -1  100.39   17.90
 -19  13  -1   50.99   12.50
  13 -19   1   72.49   12.90
 -19   6   1   69.49   12.80
   6  13   1   58.39   16.00
  19 -13   1   54.69   13.50
  -6 -13  -1   39.30   11.90
 -13  -6   1   38.40   13.60
  -6  19   1   45.10   11.50
  -6 -13  -1   35.00   16.80
 -13  19  -1   49.60   11.10
  19  -6  -1   81.69   16.90
 -19   5   1   48.00   12.00
 -19  14  -1   58.59   12.60
  14 -19   1   48.10   12.40
 -19  14  -1   80.09   17.60
   5  14   1   33.80   15.60
  14   5  -1   70.89   15.60
   5 -19  -1   59.89   14.90
 -19  14  -1   37.00   10.00
 -14  19  -1   44.90   10.80
 -14  -5   1   42.30   11.60
  -5 -14  -1   23.60   13.00
  19  -5  -1   53.59   14.00
  -5  19   1   54.19   12.20
 -14  -5   1   48.80   19.50
  19 -14   1   40.30   13.10
 -19  15  -1  196.08   24.10
   4  15   1  156.08   23.20
  15 -19   1  152.48   22.40
 -19   4   1  184.28   19.50
 -19  15  -1  205.58   23.30
  15 -19   1  196.88   20.10
 -19  15  -1  204.98   21.20
  15   4  -1  200.18   21.50
   4 -19  -1  183.88   22.80
  -4  19   1  206.08   20.60
  -4 -15  -1  175.58   19.90
 -15  -4   1  192.38   32.30
  19 -15   1  180.88   20.90
 -15  -4   1  177.78   23.40
  19  -4  -1  180.08   20.60
 -15  19  -1  192.28   18.90
 -19   3   1   34.90   15.10
  16 -19   1   42.10   14.80
   3  16   1   21.10   14.30
 -19   3   1   21.30   13.40
  16   3  -1   41.30   19.90
  16 -19   1   34.90   12.80
   3 -19  -1   34.00   14.70
 -16  19  -1   38.70   11.20
  -3  19   1   35.70   12.80
  19  -3  -1   30.50   13.10
  -3 -16  -1   27.60   12.50
  19 -16   1   22.40   13.70
 -16  -3   1   13.90   20.20
  17 -19   1   96.29   18.90
  17   2  -1   90.69   19.70
   2  17   1   74.19   15.50
 -19   2   1   59.69   16.30
   2 -19  -1   84.29   16.30
 -19  17  -1   99.69   18.20
 -19   2   1   45.70   17.20
  17 -19   1   84.59   17.20
 -17  19  -1   97.49   16.60
  19 -17   1   88.39   19.20
 -17  -2   1   69.09   14.30
  -2 -17  -1   77.59   15.80
  19  -2  -1   86.29   17.40
 -17  -2   1   94.99   20.30
  -2  19   1  108.49   19.20
   1 -19  -1   50.69   15.20
 -19   1   1    2.00   17.20
 -19  18  -1   63.99   13.90
 -19   1   1   46.80   13.60
   1  18   1   53.29   15.00
  18   1  -1   78.39   16.10
  18 -19   1   46.70   15.70
  18 -19   1   61.69   15.70
 -18  19  -1   60.69   13.60
  19  -1  -1   69.49   14.60
 -18  -1   1   27.10   17.70
  19 -18   1   42.20   13.80
  19 -18   1   51.09   15.10
  -1 -18  -1   56.79   14.60
  -1  19   1   59.79   14.00
 -18  -1   1   22.70   13.40
 -19  19  -1   37.00   13.50
 -19   0   1   17.60   13.20
   0  19   1   36.00   13.70
   0 -19  -1   36.30   14.60
  19   0  -1   55.89   15.50
  19 -19   1   18.20   15.40
 -19   0   1   13.40   16.90
 -20   0  -1  306.17   28.50
   0  20  -1  339.77   28.60
  20   0   1  364.06   28.50
 -20  20   1  314.77   26.80
  20 -20  -1  309.57   28.20
   0 -20   1  331.47   27.90
 -20   1  -1  220.78   24.30
   1 -20   1  224.78   24.10
   1  19  -1  201.98   24.40
 -20  19   1  245.68   22.60
  19 -20  -1  229.58   25.20
  19   1   1  248.28   24.50
  -1  20  -1  201.18   24.70
 -19  -1  -1  205.48   23.90
 -19  20   1  225.18   21.40
  20  -1   1  249.28   24.90
  20 -19  -1  223.28   24.80
  -1 -19   1  220.68   23.70
   2 -20   1  589.04   39.20
 -20  18   1  630.44   38.40
  18   2   1  582.34   39.30
  18 -20  -1  512.45   39.60
   2  18  -1  572.64   39.70
 -20   2  -1  564.44   39.70
  -2 -18   1  591.34   39.50
  20 -18  -1  532.15   39.20
 -18  20   1  588.24   37.70
  20  -2   1  569.14   38.80
 -18  -2  -1  505.85   38.50
  -2  20  -1  619.94   39.60
   3 -20   1  202.98   22.70
 -20  17   1  188.88   20.50
  17 -20  -1  234.78   24.30
   3  17  -1  198.18   23.90
 -20   3  -1  173.98   23.30
  17   3   1  188.78   22.40
  -3  20  -1  173.98   21.80
  20  -3   1  185.88   21.30
  20 -17  -1  171.08   22.50
 -17  -3  -1  154.98   21.70
  -3 -17   1  186.98   22.40
 -17  20   1  166.68   19.50
   4  16  -1   22.70   14.80
 -20   4  -1   -8.90   15.20
  16   4   1   19.10   15.70
  16 -20  -1   18.60   16.30
 -20  16   1    6.00   12.80
   4 -20   1   12.60   13.10
 -16  -4  -1   10.80   13.60
  20  -4   1   17.00   13.00
 -16  20   1   28.40   12.20
  20 -16  -1   26.90   15.00
  -4 -16   1    3.50   13.00
  -4  20  -1   12.60   12.20
   5 -20   1   36.00   13.90
 -20   5  -1   34.10   18.20
  15   5   1   51.79   15.60
 -20  15   1   35.30   12.80
  15 -20  -1   11.40   17.90
   5  15  -1   40.70   16.50
  20 -15  -1   62.69   15.70
 -15  -5  -1   31.90   13.40
  -5  20  -1   43.80   13.10
  -5 -15   1   33.60   12.90
  20  -5   1   44.10   12.50
 -15  20   1   33.20   12.10
   6  14  -1   36.50   15.50
   6 -20   1   40.60   13.60
 -20   6  -1   20.40   15.20
 -20  14   1   56.39   12.60
  14 -20  -1   56.19   18.60
  14 -20  -1   29.80   16.80
  20 -14  -1   66.99   15.10
  20  -6   1   57.89   12.70
  -6 -14   1   37.00   13.10
  -6  20  -1   65.29   13.40
 -14  20   1   43.70   11.30
 -14  -6  -1   37.40   12.70
  13 -20  -1  121.19   23.70
  13   7   1  158.98   20.90
   7 -20   1  168.78   21.50
  13   7   1  127.19   27.00
  13 -20  -1  181.98   21.60
 -20   7  -1  201.68   23.10
 -20  13   1  171.18   19.50
   7  13  -1  171.58   24.20
  20  -7   1  160.88   19.10
  -7 -13   1  158.38   20.20
 -13  20   1  160.38   17.50
  20 -13  -1  193.08   20.60
 -13  -7  -1  147.59   20.10
  -7  20  -1  159.38   18.90
  12 -20  -1  145.69   20.10
   8  12  -1  138.99   24.50
  12 -20  -1  104.39   20.10
 -20   8  -1  165.58   22.30
  12   8   1  127.49   20.30
  12   8   1  141.19   19.20
 -20  12   1  157.78   19.00
   8 -20   1  169.18   20.20
  20 -12  -1  151.38   20.00
 -12  20   1  116.99   16.90
  -8  20  -1  122.89   18.10
  20  -8   1  147.29   18.40
 -12  -8  -1  139.79   19.00
  -8 -12   1  142.09   20.00
 -20  11   1   58.29   13.40
   9  11  -1   57.69   19.40
  11   9   1   90.59   17.00
  11 -20  -1   70.69   14.70
   9 -20   1   58.49   13.40
 -20   9  -1   97.29   16.30
  11   9   1   12.20   19.30
  -9  20  -1   61.89   13.20
  -9 -11   1   53.99   13.70
  20  -9   1   87.09   16.80
  20 -11  -1   70.49   13.70
 -11  -9  -1   54.99   12.70
 -11  20   1   73.69   15.30
 -20  10   1  437.76   31.50
  10 -20  -1  452.85   32.10
  10  10   1  425.06   30.60
 -20  10  -1  452.05   32.20
  10  10  -1  440.86   35.40
 -20  10  -1  435.46   33.10
  10  10   1  339.37   34.20
  10 -20   1  456.55   30.80
 -10  20  -1  437.16   29.60
 -10  20   1  416.66   29.10
  20 -10  -1  390.16   30.40
 -10 -10   1  436.76   30.90
  20 -10   1  376.06   29.70
 -10 -10  -1  418.06   30.40
   9  11   1  116.79   19.30
  11   9  -1  124.09   25.30
 -20   9   1  140.19   25.00
 -20  11  -1  190.98   24.70
  11 -20   1  149.99   19.70
 -20  11  -1   87.89   16.50
   9 -20  -1  159.48   20.90
  -9 -11  -1  176.98   29.80
  -9  20   1  108.59   16.70
  20 -11   1  133.69   18.10
 -11  -9   1  123.29   19.50
 -11  20  -1  126.19   17.20
  -9 -11  -1  149.99   19.20
  20  -9  -1  150.48   18.50
   8  12   1    6.20   16.80
 -20  12  -1   73.09   17.60
 -20  12  -1   30.90   12.60
  12 -20   1   55.79   14.00
  20  -8  -1   64.59   13.70
 -12  20  -1   52.29   12.50
 -12  -8   1   58.69   13.90
  20 -12   1   58.79   13.80
  -8  20   1   40.40   11.90
  -8 -12  -1   39.80   12.30
 -20  13  -1   77.49   18.00
   7  13   1   36.20   16.60
  13   7  -1   49.60   15.60
 -20  13  -1   44.70   12.70
   7 -20  -1   49.50   14.90
  13 -20   1   42.90   13.90
 -13  -7   1   38.30   13.30
  20  -7  -1   51.89   13.50
 -13  20  -1   17.10   11.30
  -7 -13  -1   19.00   11.50
  20 -13   1   49.00   12.80
  -7  20   1   30.00   12.30
 -20  14  -1    6.50   12.60
   6  14   1    2.60   17.90
   6 -20  -1   21.20   13.70
  14 -20   1   30.70   12.50
  14   6  -1   39.60   15.90
  -6  20   1   14.70   12.10
 -14  -6   1   19.00   12.90
  20 -14   1   26.00   13.50
 -14  20  -1   19.30   11.50
  -6 -14  -1    3.70   12.40
  20  -6  -1   24.00   13.30
 -20   5   1   64.89   15.10
   5  15   1   25.70   16.80
  15 -20   1   52.49   13.50
 -20  15  -1   66.09   14.30
 -20  15  -1  139.49   24.90
   5 -20  -1   76.09   16.10
  15 -20   1   18.60   24.80
  15   5  -1   73.59   18.80
  20 -15   1   76.59   14.20
  -5  20   1   66.69   12.30
  20  -5  -1   57.19   13.90
 -15  -5   1   52.79   13.90
 -15  20  -1   73.89   12.60
 -15  -5   1   46.30   12.00
  -5 -15  -1   49.50   12.60
  16   4  -1   53.99   23.20
   4 -20  -1   23.10   15.70
  16 -20   1   -9.20   15.10
   4  16   1    1.80   14.80
 -20   4   1   -7.50   12.90
 -20  16  -1   10.10   13.60
  16 -20   1    4.20   13.20
  -4 -16  -1   16.70   13.20
  20  -4  -1   11.80   13.10
  -4  20   1   24.60   13.70
 -16  -4   1   -5.60   11.40
 -16  -4   1    9.60   13.50
 -16  20  -1   22.20   11.30
  20 -16   1   18.90   13.50
   3 -20  -1   36.00   15.60
 -20  17  -1   38.00   13.90
 -20   3   1   13.00   19.40
  17 -20   1   10.10   13.40
  17 -20   1   16.00   18.00
 -20   3   1   36.80   13.50
  17   3  -1   31.80   16.40
   3  17   1    2.20   15.20
  20 -17   1   44.40   14.80
 -17  -3   1   27.00   13.40
  -3 -17  -1   24.80   12.90
 -17  -3   1   29.20   15.00
 -17  20  -1   33.10   13.40
  -3  20   1   37.50   13.40
  20  -3  -1   47.10   14.30
  18 -20   1  -14.30   15.80
  18 -20   1   18.40   13.50
 -20  18  -1    1.00   13.40
   2  18   1  -11.20   14.00
  18   2  -1   -2.70   15.60
   2 -20  -1  -15.60   16.20
 -20   2   1   -5.20   13.30
 -18  -2   1    7.50   13.40
  20  -2  -1    8.60   13.80
 -18  -2   1  -13.30   14.50
  20 -18   1   -8.00   14.60
 -18  20  -1    7.00   12.30
  -2 -18  -1   -6.70   14.00
  -2  20   1   11.50   13.00
  19   1  -1   33.80   16.00
 -20   1   1    5.70   14.20
 -20   1   1  -28.00   18.20
   1 -20  -1   15.60   14.90
  19 -20   1    3.10   13.90
   1  19   1    8.10   13.60
 -20  19  -1   16.60   14.40
  19 -20   1   -1.00   15.90
  -1 -19  -1   17.60   15.00
  20  -1  -1   49.20   15.40
 -19  -1   1    0.20   16.10
  -1  20   1   17.10   14.00
 -19  20  -1   35.50   13.40
 -19  -1   1   13.80   14.40
  20 -19   1   -1.00   15.70
 -20   0   1   -3.30   17.60
  20   0  -1   35.10   15.90
   0  20   1   25.10   15.10
   0 -20  -1   10.20   14.70
  20 -20   1    9.50   16.00
 -20  20  -1   11.90   13.90
 -21  21   1   51.39   14.60
   0  21  -1   48.80   17.30
  21   0   1   62.69   17.20
   0 -21   1   62.19   16.30
 -21  20   1  677.13   41.60
 -21   1  -1  598.04   43.00
   1 -21   1  684.93   43.00
   1  20  -1  632.64   43.20
  20   1   1  659.43   43.10
  20 -21  -1  602.44   42.80
  21 -20  -1  590.94   42.60
  -1 -20   1  660.53   42.40
 -20  21   1  655.13   41.10
 -20  -1  -1  542.55   42.80
  -1  21  -1  612.04   42.80
  21  -1   1  641.04   42.70
 -21  19   1  152.08   20.60
  19   2   1  188.98   22.70
   2 -21   1  177.88   22.80
   2  19  -1  164.38   24.00
  19 -21  -1  159.78   23.80
 -21   2  -1  142.79   23.10
  -2  21  -1  165.08   22.00
  -2 -19   1  172.28   22.00
  21  -2   1  219.38   22.70
 -19  21   1  178.38   19.90
  21 -19  -1  197.28   22.80
 -19  -2  -1  116.39   22.60
   3 -21   1   43.20   15.60
  18   3   1   58.69   18.10
  18 -21  -1   72.19   18.20
 -21  18   1   87.79   18.30
   3  18  -1   53.99   15.90
 -21   3  -1   43.40   16.80
 -18  -3  -1   26.80   14.60
  21 -18  -1   61.79   16.50
  -3  21  -1   52.29   14.90
  -3 -18   1   42.70   14.70
  21  -3   1   49.20   14.90
 -18  21   1   42.80   12.40
 -21  17   1  133.49   19.60
  17   4   1  130.99   21.50
 -21   4  -1  115.69   22.90
  17 -21  -1  155.78   23.50
   4  17  -1  128.09   22.60
   4 -21   1  124.89   20.50
  21  -4   1  144.79   19.40
  21 -17  -1  143.39   20.60
 -17  -4  -1   93.59   16.10
 -17  21   1  127.49   18.20
  -4  21  -1  142.89   19.70
  -4 -17   1  129.99   21.20
   5  16  -1  140.19   23.50
 -21  16   1  153.88   20.10
  16   5   1  138.89   21.30
 -21   5  -1  119.59   19.10
  16 -21  -1  148.99   22.50
   5 -21   1  113.49   21.10
  21  -5   1  118.09   18.70
  -5  21  -1  137.69   19.20
 -16  -5  -1  102.09   20.10
  21 -16  -1  139.79   20.70
  -5 -16   1  118.39   20.60
 -16  21   1  102.39   17.40
   6 -21   1  133.39   21.70
   6  15  -1  127.69   24.50
  15   6   1   98.49   21.20
  15 -21  -1  122.69   31.50
 -21  15   1  119.29   19.00
 -21   6  -1  106.69   21.70
  21 -15  -1  132.09   19.70
  -6 -15   1   97.29   19.70
  21  -6   1  127.29   17.90
 -15  21   1  115.99   16.80
 -15  -6  -1  104.39   20.10
  -6  21  -1  121.99   18.50
   7  14  -1   41.60   16.40
   7 -21   1   63.39   15.30
  14 -21  -1   14.30   18.50
  14 -21  -1   50.79   17.50
 -21   7  -1   25.90   20.60
  14   7   1   69.79   18.30
 -21  14   1   63.09   13.70
 -14  21   1   89.89   15.90
  -7 -14   1   41.00   14.70
  21 -14  -1   92.29   18.50
  -7  21  -1   57.19   12.80
  21  -7   1   84.49   16.80
 -14  -7  -1   67.19   14.30
  13   8   1   -2.20   22.50
  13 -21  -1  -26.00   18.30
 -21   8  -1   24.60   16.00
   8  13  -1   13.50   17.30
   8 -21   1    1.40   13.70
  13   8   1   19.20   15.00
  13 -21  -1  -11.30   15.10
 -21  13   1    2.90   12.40
  21 -13  -1   18.10   14.80
 -13  -8  -1   14.70   12.20
  21  -8   1   14.60   12.10
  -8 -13   1   -4.10   12.20
  -8  21  -1    2.30   11.60
 -13  21   1    5.20   11.30
   9  12  -1  241.18   28.00
  12   9   1  176.98   26.10
   9 -21   1  239.38   23.20
  12 -21  -1  221.38   24.00
 -21   9  -1  244.48   26.90
  12   9   1  261.47   22.60
 -21  12   1  239.88   22.90
  21  -9   1  212.88   21.70
  -9  21  -1  231.18   21.60
  -9 -12   1  224.48   23.40
 -12  -9  -1  234.48   22.50
  21 -12  -1  217.98   22.40
 -12  21   1  222.08   20.60
 -21  10  -1  208.28   24.00
 -21  11   1  153.18   20.30
  11  10   1  131.69   24.00
  11  10   1  103.59   20.40
  10 -21   1  171.88   20.30
  10  11  -1  146.69   26.10
  11 -21  -1  155.38   21.80
  21 -10   1  138.49   18.80
  21 -11  -1  144.99   19.30
 -11  21   1  149.49   18.00
 -11 -10  -1  150.18   19.10
 -10  21  -1  157.18   18.80
 -10 -11   1  145.79   21.40
 -21  11  -1  126.29   24.30
 -21  10   1   95.19   18.80
  10 -21  -1   87.99   20.50
 -21  11  -1   77.59   18.30
  10  11   1   51.59   19.40
  11 -21   1   96.09   15.20
  11  10  -1   83.99   20.90
 -10 -11  -1   99.49   18.30
 -11 -10   1   81.79   14.20
 -10  21   1   80.49   16.40
  21 -11   1   93.79   17.40
  21 -10  -1  115.09   17.60
 -11  21  -1   83.79   16.30
   9  12   1  137.39   22.50
   9 -21  -1  240.38   23.30
  12   9  -1  197.38   27.30
  12 -21   1  181.18   21.00
 -21   9   1  197.18   20.90
  21  -9  -1  165.58   20.00
 -12  21  -1  170.78   19.40
  -9  21   1  162.08   18.50
  21 -12   1  174.68   20.00
  -9 -12  -1  168.48   20.40
 -12  -9   1  186.08   21.90
 -21   8   1   42.00   13.50
   8  13   1   23.50   18.60
  13   8  -1   38.70   19.00
 -21  13  -1   20.50   13.40
   8 -21  -1   23.00   16.20
  13 -21   1   20.70   14.20
 -13  -8   1   24.20   13.50
  -8  21   1   39.30   11.90
  21  -8  -1   41.50   13.50
  -8 -13  -1   15.80   13.00
 -13  21  -1   29.10   11.30
  21 -13   1   31.50   12.80
 -21  14  -1  137.89   20.40
   7 -21  -1  119.19   21.50
 -21   7   1  101.89   18.60
   7  14   1  118.99   19.90
  14 -21   1  122.39   18.80
 -14  -7   1  102.39   20.10
  21 -14   1  119.79   18.60
 -14  21  -1  121.09   16.90
  -7 -14  -1   91.79   18.00
  -7  21   1  116.39   17.90
  21  -7  -1  135.09   19.30
   6 -21  -1   55.89   16.40
  15 -21   1   52.49   14.50
   6  15   1   26.70   18.00
  15   6  -1   51.79   18.40
 -21  15  -1   43.40   16.60
 -21   6   1   71.69   14.10
 -15  21  -1   64.49   12.80
  -6 -15  -1   41.40   12.80
 -15  -6   1   43.90   14.40
  21  -6  -1   62.49   14.90
  -6  21   1   46.60   13.20
  21 -15   1   66.69   15.40
 -21  16  -1    3.60   14.10
 -21   5   1   -8.50   12.90
  16   5  -1   25.10   17.60
 -21  16  -1   29.90   20.60
   5  16   1  -20.40   16.00
   5 -21  -1   -4.70   14.50
  16 -21   1   11.10   12.50
  -5  21   1    1.60   12.20
  -5 -16  -1   -9.00   12.50
 -16  -5   1    3.00   14.00
 -16  21  -1    4.80   12.20
  21 -16   1    7.00   14.50
  21  -5  -1   19.60   14.00
   4  17   1   34.40   15.40
 -21  17  -1   34.70   15.20
  17 -21   1   39.50   14.40
 -21   4   1   25.80   14.20
   4 -21  -1   55.49   16.20
  17 -21   1   27.00   23.40
  17   4  -1   38.50   18.70
  -4 -17  -1    0.90   13.60
 -17  -4   1    0.00   12.80
 -17  21  -1   47.60   14.60
  21 -17   1   38.20   15.90
  -4  21   1   38.50   14.10
  21  -4  -1   51.59   14.60
 -17  -4   1   33.70   15.60
 -21  18  -1   57.99   16.30
 -21   3   1   57.99   15.50
  18   3  -1  113.79   21.20
   3  18   1   52.09   16.80
  18 -21   1   60.09   15.80
   3 -21  -1   86.39   18.30
  18 -21   1   82.99   17.40
  21 -18   1   68.19   16.30
  -3  21   1   80.69   15.50
 -18  -3   1   24.60   13.90
  -3 -18  -1   54.69   16.80
 -18  21  -1   65.89   13.50
  21  -3  -1   96.19   18.00
 -18  -3   1   76.69   16.20
 -21  19  -1   90.59   16.50
 -21   2   1   43.90   15.60
   2 -21  -1   73.99   17.70
   2  19   1   74.99   16.30
  19 -21   1   76.49   17.70
  19   2  -1  123.49   21.70
 -19  21  -1   89.99   18.50
  21  -2  -1  102.09   19.10
 -19  -2   1   48.40   15.70
  -2  21   1  106.39   20.30
 -19  -2   1   79.19   18.10
  21 -19   1   77.59   17.00
  -2 -19  -1   75.59   15.60
   1 -21  -1  -13.20   16.10
   1  20   1   28.00   15.70
 -21  20  -1   14.50   15.20
  20 -21   1   59.59   16.70
 -21   1   1  -15.60   14.70
  20   1  -1   12.80   16.70
  21 -20   1    8.60   16.00
  -1  21   1   33.90   16.20
  21  -1  -1   30.20   16.40
 -20  -1   1    2.60   14.60
 -20  -1   1   50.59   17.40
 -20  21  -1   23.50   13.50
  -1 -20  -1    0.10   15.30
  21 -21   1   35.30   16.60
 -21   0   1    1.30   15.90
   0  21   1   35.30   16.40
 -21  21  -1   -1.40   14.90
  21   0  -1    9.90   16.80
   0 -21  -1    7.90   15.90
 -22   0  -1  111.79   22.60
   0 -22   1  117.49   21.60
  22 -22  -1  112.39   21.60
   0  22  -1  117.79   22.50
 -22  22   1  138.39   19.80
  22   0   1  131.69   22.20
 -22  21   1  210.98   22.40
   1  21  -1  186.58   25.00
  21 -22  -1  218.18   24.80
 -22   1  -1  118.19   25.20
  21   1   1  198.38   24.20
   1 -22   1  201.98   24.00
  22  -1   1  227.58   24.30
  22 -21  -1  199.98   23.10
  -1  22  -1  180.38   23.40
 -21  -1  -1  166.28   23.60
  -1 -21   1  202.48   24.30
 -21  22   1  197.98   21.50
  20 -22  -1  149.49   22.30
   2  20  -1   60.89   18.80
 -22  20   1  107.29   19.60
  20   2   1  106.29   23.00
 -22   2  -1   73.99   16.90
   2 -22   1   80.19   17.50
  -2 -20   1   80.89   16.70
  22  -2   1  108.69   22.40
 -20  22   1   99.99   17.70
 -20  -2  -1   69.19   16.50
  22 -20  -1  124.29   20.70
  -2  22  -1   97.59   20.00
   3 -22   1  133.69   21.90
  19   3   1  153.08   24.00
 -22   3  -1  108.99   19.60
   3  19  -1  142.29   23.00
  19 -22  -1  165.58   23.70
 -22  19   1  168.88   21.30
 -19  22   1  136.29   19.50
  -3  22  -1  154.28   20.80
 -19  -3  -1  106.59   18.20
  22  -3   1  167.68   22.00
  22 -19  -1  165.88   21.50
  -3 -19   1  140.99   21.50
   4 -22   1    8.30   15.30
   4  18  -1   -2.00   17.70
  18 -22  -1   23.10   18.90
  18   4   1   19.50   17.40
 -22   4  -1   59.49   17.40
 -22  18   1    3.00   14.10
  -4  22  -1   13.00   13.20
  22 -18  -1   35.90   15.50
 -18  22   1    6.90   11.90
  -4 -18   1   16.90   14.20
 -18  -4  -1    8.80   14.00
  22  -4   1   28.20   14.80
   5  17  -1    2.60   15.80
 -22   5  -1  -18.10   16.70
   5 -22   1   -1.80   14.70
 -22  17   1   17.10   13.80
  17 -22  -1   17.90   18.50
  17   5   1   -8.50   17.70
  22  -5   1    9.90   13.40
  -5 -17   1   20.60   14.90
  -5  22  -1    5.00   13.10
  22 -17  -1   29.40   14.90
 -17  -5  -1    4.70   13.80
 -17  22   1   11.20   12.90
 -22  16   1   24.00   13.90
  16 -22  -1   48.10   19.20
  16   6   1   47.80   17.70
   6 -22   1   13.60   15.90
   6  16  -1   23.20   17.70
  -6 -16   1    2.90   13.80
 -16  -6  -1   17.10   13.60
  22  -6   1   26.20   16.00
  -6  22  -1   16.10   11.90
  22 -16  -1   36.10   14.80
 -16  22   1    3.30   15.30
 -22   7  -1   52.79   16.60
 -22  15   1   40.70   14.50
  15   7   1   29.10   19.00
   7 -22   1   17.00   15.40
   7  15  -1   27.80   18.50
  15 -22  -1   56.79   21.70
  22 -15  -1   48.20   15.50
  22  -7   1   50.19   13.70
  -7 -15   1   22.30   14.10
 -15  -7  -1   40.50   13.20
  -7  22  -1   29.50   13.00
 -15  22   1   34.40   11.80
 -22  14   1   91.79   15.70
  14 -22  -1   82.29   23.00
   8 -22   1   82.09   16.80
 -22   8  -1   69.59   18.30
  14   8   1   69.09   18.50
  14 -22  -1   80.19   27.10
   8  14  -1   68.79   18.30
 -14  -8  -1   63.79   15.00
  22 -14  -1   67.89   14.60
  -8 -14   1   67.69   15.70
  22  -8   1   78.29   16.70
 -14  22   1   98.29   17.00
  -8  22  -1   57.39   12.90
 -22   9  -1  163.28   25.20
   9  13  -1  153.58   25.70
   9 -22   1  153.08   21.90
 -22  13   1  150.18   20.80
 -13  -9  -1  144.59   20.50
  -9  22  -1  142.49   18.70
  22  -9   1  158.28   19.20
 -13  22   1  145.79   18.00
  -9 -13   1  132.69   20.70
  22 -13  -1  153.88   19.60
  12  10   1   71.39   21.60
 -22  12   1  132.19   20.00
  10  12  -1  113.99   21.70
  10 -22   1  138.09   20.30
  12 -22  -1  112.99   21.80
 -12 -10  -1  105.89   19.30
 -10 -12   1   87.99   16.90
 -10  22  -1  122.99   17.30
  22 -10   1  119.29   18.60
  22 -12  -1  131.69   18.30
 -12  22   1  116.39   16.90
  11 -22   1  122.89   20.90
  11  11   1   32.40   35.20
 -22  11   1  140.39   20.10
  11  11  -1  135.39   26.30
  11 -22  -1  163.78   22.20
 -22  11  -1  174.98   26.90
 -11  22  -1  117.39   18.10
 -11  22   1  139.99   18.10
  22 -11   1  119.19   19.00
 -11 -11  -1  129.79   19.80
  22 -11  -1  140.39   18.80
 -11 -11   1  101.59   21.20
 -22  12  -1   38.70   18.50
  12 -22   1   11.50   13.80
  10  12   1  -12.60   18.40
  10 -22  -1   18.20   15.90
  12  10  -1  -31.00   20.00
 -22  10   1   11.30   13.40
 -12 -10   1  -11.00   14.50
  22 -10  -1   23.80   13.60
 -10  22   1    9.90   10.40
 -10 -12  -1   13.40   12.60
  22 -12   1   29.90   13.20
 -12  22  -1    8.60   11.80
  13 -22   1  150.18   20.20
 -22  13  -1   71.09   20.40
   9 -22  -1  139.69   22.70
  13   9  -1  165.28   27.60
   9  13   1   80.79   20.50
 -22   9   1  131.09   19.90
 -13  -9   1  111.69   20.40
  22  -9  -1  132.19   19.60
  -9  22   1  127.89   17.00
  -9 -13  -1  108.29   18.80
 -13  22  -1  117.89   17.00
  22 -13   1  101.59   18.30
  14 -22   1  131.39   19.60
   8 -22  -1  147.49   21.90
 -22   8   1  107.59   19.60
   8  14   1   98.49   20.90
  -8  22   1  117.69   17.60
  22  -8  -1  113.39   18.20
  22 -14   1  108.99   18.90
 -14  -8   1   95.69   16.40
  -8 -14  -1  100.89   18.50
 -14  22  -1  104.89   16.70
 -22   7   1   46.30   14.40
  15 -22   1   16.90   15.50
   7 -22  -1    2.70   16.50
 -22  15  -1   43.60   15.80
   7  15   1   25.10   19.00
  22 -15   1   48.40   14.00
 -15  -7   1   31.30   14.40
  -7 -15  -1   28.60   12.60
 -15  22  -1   49.50   12.90
  -7  22   1   43.50   14.20
  22  -7  -1   53.19   13.60
  16 -22   1  100.39   19.10
 -22   6   1   68.99   14.80
   6  16   1   53.09   18.40
   6 -22  -1   77.19   18.60
 -22  16  -1   80.49   16.10
 -16  22  -1   64.69   13.50
  22 -16   1   84.89   15.60
  -6 -16  -1   56.99   14.20
  22  -6  -1   92.99   17.70
 -16  -6   1   39.20   14.80
  -6  22   1   66.49   13.50
   5  17   1  116.49   23.40
 -22   5   1  100.69   20.80
   5 -22  -1  151.38   22.70
 -22  17  -1  126.39   21.90
  17 -22   1  112.89   19.90
  22 -17   1  133.19   20.40
 -17  -5   1  122.39   22.20
 -17  22  -1  143.49   18.10
  22  -5  -1  130.59   18.70
  -5 -17  -1  103.59   19.60
  -5  22   1  134.19   19.60
   4 -22  -1   56.39   17.10
 -22  18  -1   75.49   16.20
  18 -22   1   58.59   16.50
  18   4  -1  102.19   20.70
   4  18   1   43.50   17.50
  22 -18   1   42.60   15.70
 -18  22  -1   59.59   14.20
  22  -4  -1   92.59   19.90
 -18  -4   1   45.10   16.70
  -4  22   1   72.89   15.70
  -4 -18  -1   24.60   14.70
   3 -22  -1   32.10   17.10
  19 -22   1   63.99   16.40
 -22  19  -1   16.80   15.90
   3  19   1   19.00   15.20
 -22   3   1   54.49   16.70
  19   3  -1   39.90   19.70
 -19  22  -1   38.20   14.60
 -19  -3   1   -5.40   17.00
  22 -19   1   35.10   15.70
  -3  22   1   37.50   15.40
  22  -3  -1   43.30   15.10
  -3 -19  -1   12.70   14.90
   2  20   1  106.89   21.40
 -22   2   1   66.39   17.20
  20 -22   1  119.69   22.70
 -22  20  -1   79.89   18.30
  20   2  -1  122.49   22.80
   2 -22  -1   71.29   17.60
  22 -20   1  109.09   21.00
  -2 -20  -1   80.29   16.00
  -2  22   1  125.39   20.70
  22  -2  -1  126.29   20.70
 -20  -2   1   69.69   18.90
 -20  22  -1   96.99   18.80
  21   1  -1  120.99   22.40
   1 -22  -1   99.99   18.10
  21 -22   1  146.29   22.90
 -22  21  -1  127.29   21.10
   1  21   1  111.39   22.70
  22  -1  -1  108.89   21.10
 -21  -1   1   59.09   22.40
  -1  22   1  120.59   22.20
 -21  22  -1  102.19   19.70
  -1 -21  -1   93.99   18.70
  22 -21   1  120.69   22.20
  22 -22   1   52.29   18.40
 -22  22  -1   24.00   15.50
  22   0  -1   41.00   18.30
   0  22   1   26.80   17.30
   0 -22  -1   19.40   16.70
   2 -23   1  173.48   22.50
  21   2   1  197.58   24.00
  21 -23  -1  113.09   23.60
 -23  21   1  182.88   21.60
   2  21  -1  139.69   24.40
  23  -2   1  143.99   22.60
 -21  23   1  120.09   19.80
 -21  -2  -1   91.99   18.90
  -2  23  -1  148.39   22.60
  -2 -21   1  179.48   22.20
  23 -21  -1  134.99   22.00
   3 -23   1   21.60   16.40
   3  20  -1   11.10   18.50
  20   3   1   38.50   19.00
  20 -23  -1   76.39   19.80
 -23   3  -1   29.20   16.70
 -23  20   1   19.70   14.60
 -20  -3  -1    4.70   16.70
 -20  23   1   28.10   13.90
  -3  23  -1   25.10   15.20
  -3 -20   1   40.50   15.20
  23  -3   1   44.80   17.80
  23 -20  -1   44.80   18.10
 -23   4  -1   38.70   18.60
 -23  19   1   67.09   15.20
   4 -23   1   36.90   16.60
  19   4   1   47.40   20.10
   4  19  -1   54.89   17.90
  23  -4   1   84.29   17.00
  -4 -19   1   61.09   15.70
 -19  -4  -1   43.10   15.40
  -4  23  -1   51.99   14.70
 -19  23   1   61.49   13.20
  23 -19  -1   45.90   17.50
   5  18  -1   18.30   18.70
   5 -23   1    4.60   16.50
  18   5   1   44.10   19.10
 -23  18   1   26.20   14.70
 -23   5  -1   38.30   17.50
  18 -23  -1   46.80   20.40
  23 -18  -1   14.50   15.90
 -18  -5  -1   10.50   14.60
  -5  23  -1    2.20   12.60
 -18  23   1    9.60   13.20
  -5 -18   1   14.80   14.40
  23  -5   1   32.60   15.60
  17   6   1   52.59   19.30
 -23   6  -1  -29.80   17.50
 -23  17   1   30.20   15.10
   6  17  -1    1.40   17.00
   6 -23   1    6.30   15.60
  -6  23  -1    9.00   12.10
  23 -17  -1    4.60   15.10
 -17  -6  -1   31.20   15.10
 -17  23   1   23.40   13.40
  -6 -17   1    3.70   15.00
  23  -6   1   18.70   13.60
  16   7   1    2.10   18.10
   7 -23   1   -2.70   15.40
 -23   7  -1  -37.80   17.90
 -23  16   1   30.90   14.20
   7  16  -1   -5.40   18.70
 -16  23   1    2.90   11.90
  23  -7   1   17.20   14.40
  -7 -16   1    4.90   14.10
  23 -16  -1   17.60   15.10
  -7  23  -1   21.90   14.20
 -16  -7  -1   16.40   14.80
 -23   8  -1  156.78   27.80
 -23  15   1  128.89   21.10
   8 -23   1  129.39   22.80
   8  15  -1  104.19   21.70
 -15  23   1  112.99   17.50
  -8 -15   1  108.19   20.60
  23 -15  -1  140.99   19.00
  -8  23  -1  119.09   18.40
 -15  -8  -1  103.79   20.60
  23  -8   1  107.29   18.30
 -23  14   1   36.00   14.60
   9 -23   1   41.50   17.90
   9  14  -1   49.50   20.40
 -14  23   1   46.00   13.50
  -9 -14   1   24.30   14.70
  23  -9   1   45.70   13.40
  -9  23  -1   48.70   12.00
 -14  -9  -1   30.80   14.00
  23 -14  -1   64.59   14.80
  10  13  -1   38.40   19.00
  13 -23  -1   44.80   17.30
  10 -23   1   69.49   15.40
 -23  13   1   78.19   16.50
 -13 -10  -1   49.50   15.20
 -10 -13   1   42.30   14.60
 -13  23   1   52.39   12.70
 -10  23  -1   47.60   12.10
  23 -13  -1   57.29   14.20
  23 -10   1   49.10   13.90
  12 -23  -1  119.39   19.30
  11 -23   1  151.88   21.70
  11  12  -1  144.09   24.00
 -23  12   1  133.29   20.30
 -11 -12   1   93.29   17.60
 -12 -11  -1  134.69   19.50
  23 -12  -1  131.89   19.20
  23 -11   1  110.49   18.60
 -12  23   1  109.09   17.10
 -11  23  -1  118.69   19.10
  11 -23  -1  163.38   23.90
  12  11  -1  145.99   28.10
  12 -23   1  148.99   21.80
 -23  11   1  143.69   21.90
  11  12   1  150.88   23.30
  23 -12   1  118.49   19.40
 -12  23  -1  142.09   19.30
  23 -11  -1  125.99   19.60
 -11  23   1  146.69   18.10
 -11 -12  -1  130.39   19.70
 -12 -11   1  106.79   22.00
  10  13   1   24.30   20.60
 -23  10   1   79.39   16.30
  13 -23   1   86.79   16.70
  13  10  -1   76.69   22.60
  10 -23  -1  114.99   22.80
 -10 -13  -1   69.29   15.30
 -13 -10   1   64.29   15.40
 -10  23   1   78.99   16.40
  23 -13   1   92.39   18.60
  23 -10  -1   96.89   18.50
 -13  23  -1   74.39   16.20
  14   9  -1    5.20   22.20
 -23   9   1   -8.90   14.40
  14 -23   1   32.00   14.00
   9 -23  -1   -4.50   17.30
  -9 -14  -1    5.00   13.30
 -14  -9   1  -19.10   13.70
  23  -9  -1   17.00   13.50
  23 -14   1   17.90   14.50
 -14  23  -1    5.40   11.10
  -9  23   1    8.80   12.10
   8  15   1  124.19   22.60
 -23   8   1  148.89   21.20
   8 -23  -1  190.08   24.10
  15 -23   1  152.98   21.70
 -15  -8   1  136.59   22.60
 -15  23  -1  151.08   18.80
  23 -15   1  143.39   20.20
  -8 -15  -1  132.19   19.80
  23  -8  -1  147.69   19.50
  -8  23   1  133.59   18.80
 -23   7   1  104.39   20.80
   7 -23  -1   89.19   19.30
   7  16   1   68.09   20.10
  16 -23   1  106.69   21.00
  -7 -16  -1   80.89   15.70
 -16  -7   1   73.49   16.90
 -16  23  -1  106.59   16.90
  23 -16   1  118.29   19.30
  -7  23   1  103.99   18.50
  23  -7  -1   98.89   17.70
  17 -23   1   64.09   17.10
 -23   6   1   29.60   16.80
   6  17   1   56.89   18.80
 -23  17  -1  118.09   24.40
   6 -23  -1   83.49   17.90
  -6  23   1   76.59   14.40
  23  -6  -1   93.19   17.90
 -17  23  -1   93.39   16.70
 -17  -6   1   68.09   17.80
  23 -17   1   84.69   15.90
  -6 -17  -1   66.89   16.30
 -23   5   1   26.30   16.10
   5  18   1    2.10   18.40
  18 -23   1   17.20   16.00
   5 -23  -1   63.29   17.30
 -23  18  -1   31.40   17.30
 -18  -5   1   19.80   16.40
  -5 -18  -1   38.70   14.90
  -5  23   1   45.60   14.90
  23  -5  -1   58.49   14.90
 -18  23  -1   64.29   14.70
  23 -18   1   58.19   15.70
  19   4  -1  185.88   29.10
   4  19   1  178.18   23.90
  19 -23   1  187.98   32.50
 -23   4   1  154.58   23.90
   4 -23  -1  177.68   24.50
 -23  19  -1  192.68   24.40
 -19  23  -1  202.78   20.70
  -4 -19  -1  137.79   22.00
  23 -19   1  155.98   22.60
  23  -4  -1  184.18   21.30
  -4  23   1  193.68   22.20
   3  20   1  122.39   22.60
  20   3  -1  176.58   25.10
   3 -23  -1   97.19   18.80
 -23  20  -1  155.88   22.60
  23 -20   1  123.39   21.90
  -3 -20  -1  115.99   21.30
 -20  23  -1  113.89   19.80
  23  -3  -1  131.89   20.80
  -3  23   1  137.29   21.40
   2 -23  -1   20.40   16.10
 -23  21  -1  -18.00   17.10
  21   2  -1   62.39   19.80
   2  21   1   24.50   17.60
  23  -2  -1   24.30   16.90
 -21  23  -1   14.90   14.60
  -2 -21  -1    9.90   15.30
  -2  23   1   28.30   15.30
  23 -21   1   64.19   17.90
   4  20  -1   92.89   20.60
 -24  20   1  122.19   21.20
  20   4   1  107.69   22.70
   4 -24   1   85.19   18.20
 -24   4  -1   96.89   23.80
  -4 -20   1  117.39   21.00
  24 -20  -1   98.99   21.40
  24  -4   1  130.39   21.70
  -4  24  -1  102.69   19.20
 -20  24   1   99.99   19.30
 -20  -4  -1   78.79   16.80
  19   5   1   57.29   20.10
   5  19  -1    7.60   18.00
 -24   5  -1  -44.00   30.90
   5 -24   1    8.90   18.20
 -24  19   1   17.40   16.20
 -19  -5  -1    0.70   16.40
 -19  24   1    7.90   13.60
  24 -19  -1   30.30   16.70
  -5  24  -1    5.20   13.80
  -5 -19   1   32.10   16.50
  24  -5   1   42.50   16.40
 -24  18   1   17.90   16.10
  18   6   1    0.80   20.30
   6  18  -1    4.30   19.60
 -24   6  -1   55.89   19.20
   6 -24   1    2.70   15.80
  -6 -18   1   30.70   15.20
  24  -6   1   29.20   15.90
  24 -18  -1   36.00   16.20
 -18  24   1   27.80   13.50
  -6  24  -1   24.00   15.30
 -18  -6  -1    6.70   15.00
   7 -24   1   40.60   17.60
 -24  17   1   47.90   15.20
 -24   7  -1   11.70   24.00
   7  17  -1   21.80   18.70
  17   7   1   46.90   19.90
  24 -17  -1   34.40   15.50
 -17  24   1   25.60   13.60
  -7  24  -1   33.00   13.90
  -7 -17   1   13.40   15.80
  24  -7   1   40.50   14.40
 -17  -7  -1   12.20   14.60
   8 -24   1   82.99   17.30
 -24  16   1   35.10   16.60
   8  16  -1   51.79   20.50
  24  -8   1   54.19   14.70
  24 -16  -1   68.19   15.80
 -16  -8  -1   44.30   15.30
 -16  24   1   50.89   13.30
  -8  24  -1   52.49   13.50
  -8 -16   1   52.59   15.50
   9  15  -1   31.10   22.40
 -24  15   1   73.19   16.70
   9 -24   1   18.50   16.50
  -9 -15   1   41.60   16.10
  24 -15  -1   65.39   15.70
  -9  24  -1   50.49   13.10
 -15  24   1   45.70   13.40
 -15  -9  -1   42.90   15.70
  24  -9   1   68.29   14.80
  10 -24   1  192.98   23.20
  10  14  -1  145.39   28.30
 -24  14   1  188.98   22.70
 -14  24   1  154.58   19.20
 -10 -14   1  138.59   21.80
 -10  24  -1  151.18   19.40
 -14 -10  -1  111.39   21.40
  24 -10   1  160.48   19.30
  24 -14  -1  161.68   20.50
  11 -24   1   76.89   16.80
  13 -24  -1  125.89   22.60
 -24  13   1   97.19   20.90
  11  13  -1   87.29   21.30
  24 -11   1   80.49   17.50
 -13 -11  -1   73.59   15.20
 -11  24  -1   87.59   17.30
 -13  24   1   63.69   13.80
  24 -13  -1   90.39   19.00
 -11 -13   1   59.59   17.10
  12 -24  -1   50.09   18.20
 -24  12   1   66.09   16.20
  12  12  -1    4.80   23.30
  12 -24   1   59.39   15.60
  24 -12  -1   54.09   15.10
 -12 -12  -1   26.00   15.10
 -12  24  -1   48.70   14.10
 -12  24   1   34.90   12.90
 -12 -12   1   21.40   15.20
  24 -12   1   42.20   14.60
  13  11  -1  115.69   25.40
 -24  11   1  130.89   22.70
  13 -24   1  143.89   21.40
  11 -24  -1  132.09   24.00
 -11  24   1  119.19   17.90
 -13  24  -1  120.29   17.90
  24 -13   1  103.99   18.90
 -13 -11   1   78.79   17.20
 -11 -13  -1   89.59   15.60
  24 -11  -1  129.99   18.80
  14 -24   1  203.88   24.00
  10  14   1  142.39   25.60
 -24  10   1  187.08   23.70
  10 -24  -1  242.68   27.20
  14  10  -1  261.17   32.00
  24 -14   1  185.78   22.00
 -14  24  -1  193.28   20.30
 -10  24   1  199.38   20.50
  24 -10  -1  195.78   21.00
 -14 -10   1  179.68   24.50
 -10 -14  -1  189.98   21.60
  15   9  -1  183.18   32.40
 -24   9   1  163.18   22.70
   9 -24  -1  144.69   27.00
  15 -24   1  199.28   22.70
  24  -9  -1  176.68   19.60
  24 -15   1  157.98   21.10
 -15  -9   1  140.99   23.70
  -9 -15  -1  124.89   20.10
  -9  24   1  175.08   19.30
 -15  24  -1  168.68   19.70
  16   8  -1   62.89   24.80
  16 -24   1  -16.30   16.40
   8 -24  -1   25.60   19.60
 -24   8   1   13.00   16.00
  -8 -16  -1   18.30   14.10
  24 -16   1   35.70   15.10
  -8  24   1   20.10   13.40
 -16  -8   1   21.20   15.20
  24  -8  -1   38.50   13.90
 -16  24  -1   28.00   13.50
   7 -24  -1   68.79   18.20
  17 -24   1   31.50   15.90
   7  17   1   -1.50   18.70
 -17  -7   1   30.10   16.40
 -17  24  -1   47.60   12.90
  -7 -17  -1   16.50   14.60
  24  -7  -1   56.79   15.00
  24 -17   1   52.49   15.60
  -7  24   1   28.00   13.20
  18 -24   1  183.88   24.90
   6 -24  -1  124.59   26.40
  24  -6  -1  189.68   20.60
  -6  24   1  178.78   22.10
 -18  24  -1  209.18   21.00
 -18  -6   1  128.39   25.00
  24 -18   1  200.18   22.20
  -6 -18  -1  184.38   22.70
   5  19   1  106.69   22.70
 -24  19  -1  106.09   28.00
   5 -24  -1   69.39   20.20
  -5  24   1   95.09   16.60
 -19  -5   1   40.70   18.60
 -19  24  -1  105.89   18.30
  24 -19   1  123.19   20.60
  24  -5  -1  109.79   19.10
  -5 -19  -1   69.59   15.90
 -24  20  -1    7.90   18.30
   4 -24  -1   55.69   18.20
   4  20   1   70.99   17.80
  -4 -20  -1   45.50   16.30
  24 -20   1   80.59   17.80
  -4  24   1   43.30   15.90
 -20  24  -1   53.99   16.20
  24  -4  -1   82.69   17.80
   7 -25   1   49.60   18.30
   7  18  -1   30.10   20.90
 -25  18   1   76.49   16.90
  25 -18  -1   74.69   17.60
  -7  25  -1   43.30   13.50
 -18  -7  -1   31.90   16.00
  -7 -18   1   43.20   15.90
 -18  25   1   61.69   14.50
  25  -7   1   45.10   16.00
 -25  17   1  -24.80   17.90
   8  17  -1   25.30   20.20
   8 -25   1   35.30   18.50
 -17  25   1   17.10   13.30
  -8  25  -1   31.20   14.60
 -17  -8  -1   30.00   15.90
  25 -17  -1   40.10   16.40
  25  -8   1   28.00   15.70
  -8 -17   1   24.30   16.30
 -25  16   1  178.18   21.90
   9 -25   1  123.19   23.40
   9  16  -1  115.99   23.10
 -16  -9  -1  119.39   21.60
  25 -16  -1  143.79   20.90
  -9  25  -1  137.09   18.50
  25  -9   1  128.29   20.20
  -9 -16   1  119.89   22.30
 -16  25   1  121.79   18.20
  10  15  -1   28.30   23.10
 -25  15   1   91.49   17.70
  10 -25   1   55.49   16.80
  25 -10   1   65.89   14.60
 -15  25   1   80.29   16.60
  25 -15  -1   62.19   16.90
 -10  25  -1   60.59   15.10
 -10 -15   1   60.49   15.80
 -15 -10  -1   59.89   15.40
  11 -25   1    6.10   17.80
  11  14  -1  -14.10   21.20
 -25  14   1   36.30   16.60
 -11  25  -1   24.50   13.30
  25 -14  -1   26.50   16.30
  25 -11   1   20.70   14.00
 -14 -11  -1   10.20   14.00
 -11 -14   1   13.90   16.30
 -14  25   1    7.40   13.70
 -25  13   1  118.69   21.90
  12  13  -1  141.59   27.40
  12 -25   1  132.39   23.10
 -12 -13   1   92.19   17.30
  25 -12   1   96.89   18.70
 -13  25   1   98.39   17.70
 -12  25  -1  112.39   18.40
 -13 -12  -1  127.99   20.60
  25 -13  -1  139.39   19.10
  13  12  -1   43.50   23.90
  12 -25  -1  126.79   24.60
 -25  12   1  101.09   18.00
  13 -25   1   92.79   17.70
  25 -13   1  109.39   18.70
 -12  25   1  101.99   17.50
 -13 -12   1   94.49   16.80
 -12 -13  -1   96.59   19.20
  25 -12  -1  101.09   18.40
 -13  25  -1  113.59   17.30
  14 -25   1   33.90   17.30
  11 -25  -1   35.00   19.80
 -25  11   1   42.00   17.30
  14  11  -1   17.50   24.00
  25 -14   1   74.79   16.20
 -11  25   1   48.40   12.90
 -11 -14  -1   29.80   14.70
  25 -11  -1   59.19   14.90
 -14  25  -1   38.60   14.00
 -14 -11   1   40.10   16.70
  10 -25  -1   18.30   18.80
 -25  10   1   -8.80   16.50
  15 -25   1   15.00   15.90
  15  10  -1   48.50   25.00
 -10  25   1   -3.30   13.40
 -15 -10   1  -22.60   16.20
 -10 -15  -1   22.90   14.90
  25 -15   1   27.50   14.80
 -15  25  -1   17.10   13.70
  25 -10  -1   34.40   15.10
   9 -25  -1  146.39   26.10
  16   9  -1  182.98   34.30
   9  16   1   91.59   23.30
  -9  25   1  119.29   19.40
  25 -16   1  151.48   20.50
 -16  25  -1  140.69   18.40
  25  -9  -1  128.59   18.50
 -16  -9   1  103.69   18.40
  -9 -16  -1  127.49   20.20
  17 -25   1  108.09   17.40
   8  17   1   38.10   20.70
   8 -25  -1   65.39   20.00
  17   8  -1   93.99   28.00
  -8  25   1   96.59   18.50
 -17  -8   1   95.49   18.30
  25 -17   1   99.49   19.80
  -8 -17  -1   60.89   15.70
 -17  25  -1  109.19   18.30
  25  -8  -1  101.19   17.80
   7 -25  -1  106.89   20.60
  18 -25   1  142.39   22.60
  -7 -18  -1   62.79   16.40
 -18  25  -1   64.69   15.90
  -7  25   1   89.89   18.70
 -18  -7   1   76.69   19.00
  25 -18   1   80.99   18.50
  25  -7  -1   99.39   18.90
   0   0   2   -2.70    3.60
   0   0   2   10.70    4.30
   0   0   2    1.50    3.40
   0   0   2    6.30    3.10
   0   0  -2    0.30    3.50
  -1   1   2  256.47   16.30
   1  -1  -2  261.37   17.80
   0  -1   2  232.28   16.20
   1   0   2  255.37   16.60
   1   0   2  268.07   16.80
   0  -1   2  251.37   16.70
  -1   0  -2  306.37   16.90
   0  -1   2  269.47   16.60
  -1   1   2  285.57   17.50
  -1   1   2  272.87   16.70
   0   1  -2  260.47   19.90
   0   1  -2  286.37   17.60
  -1   1   2  246.48   16.20
   1   0   2  231.48   15.90
   0   1   2   32.60    5.20
   1  -1   2   18.70    3.40
   0   1   2   29.10    7.10
  -1   0   2   22.40    3.90
   0   1   2   33.20    4.90
  -1   0   2   22.30    4.70
  -1   0   2   28.50    7.90
  -1   0   2   19.40    4.10
   1  -1   2   26.30    4.70
  -1   1  -2   13.40    6.20
   1  -1   2   25.70    4.60
   0  -2   2  522.05   31.60
   2  -2  -2  573.84   32.80
  -2   0  -2  563.04   31.60
   2   0   2  537.15   31.90
   0   2  -2  599.84   34.50
  -2   2   2  564.94   32.70
  -2   2   2  535.75   31.80
  -2   2   2  467.15   31.50
   0  -2   2  511.35   31.60
   0  -2   2  535.25   31.90
  -2   1   2  109.09    9.10
   1   1   2  117.49    9.80
   1  -2   2  112.09    9.80
   1  -2   2  119.29    9.30
   1  -2   2  120.09    8.80
  -2   1  -2  120.39    9.60
   1   1  -2  108.39   11.10
  -2   1   2   97.09    8.60
  -2   1   2  119.19    9.40
  -2   1   2  120.19   11.10
   1  -2  -2  102.59   10.70
   1   1   2  105.29    8.20
   1   1   2  126.89    9.50
   1   1  -2  103.89   15.20
  -2   1  -2  116.89   12.40
  -1   2   2  134.99    9.60
  -1   2   2  109.49    8.70
  -1  -1   2  105.89    8.80
  -1  -1  -2   88.39   10.10
   2  -1   2  122.79    9.50
  -1   2  -2  121.19   14.10
  -1  -1   2  126.59    9.40
   2  -1   2   91.89    8.10
   2  -1   2  125.89    9.60
  -1  -1  -2  122.79    9.40
  -1  -1   2  116.49    9.10
   2  -1  -2  130.59   11.40
  -1   2   2  115.79   10.50
   0  -2  -2   31.20    5.40
   2  -2   2   37.30    5.40
   2  -2   2   32.00    6.70
   0   2   2   50.19    7.60
  -2   0   2   52.89    8.70
   0   2   2   41.10    7.10
   0  -2  -2   24.20    4.50
  -2   0   2   32.20    5.90
  -2   0   2   35.80    6.10
   2  -2   2   33.00    5.30
   0   2   2   40.50    5.50
   2   0  -2   31.30    5.50
  -2   0   2   39.70    6.50
  -3   0  -2   13.40    5.30
   0  -3   2    8.20    4.50
  -3   3   2    6.40    4.20
   0  -3   2    8.70    6.60
   3  -3  -2   10.30    4.50
   0   3  -2    4.50    7.30
   0  -3   2    6.20    3.80
  -3   3   2   11.60    3.80
  -3   3   2   13.30    4.40
   3   0   2    5.40    4.70
   1  -3   2 1267.77   74.49
  -3   2   2 1260.37   74.39
   2  -3  -2 1369.76   75.09
   1   2  -2 1420.16   76.79
   1  -3   2 1281.17   74.29
  -3   2   2 1397.76   75.29
  -3   2   2 1168.48   74.29
   1  -3   2 1233.38   74.19
   2   1   2 1322.67   74.29
  -3   2   2 1146.19   73.99
   2   1   2 1303.47   74.49
   1  -3   2 1343.17   76.29
   3  -1   2 1275.07   74.39
  -2   3   2 1296.57   74.39
  -2  -1  -2 1249.18   74.69
  -1  -2   2 1271.77   74.19
  -1  -2   2 1267.27   74.29
   3  -2  -2 1475.55   75.39
  -2   3   2 1196.48   74.19
   3  -1   2 1291.87   74.39
  -1  -2   2 1271.67   74.39
  -2  -1  -2 1288.97   74.19
  -2   3   2 1433.66   75.19
  -1   3  -2 1472.45   76.39
   2  -3   2  867.21   49.40
  -3   1   2  746.03   47.10
  -3   1   2  831.62   47.10
   2   1  -2  917.01   48.30
   2  -3   2  822.72   47.40
   2  -3   2  786.52   46.90
  -3   1   2  878.41   48.10
   1  -3  -2  881.41   47.80
   1   2   2  847.12   47.30
   1  -3  -2  707.03   47.10
   1   2   2  827.92   47.30
  -3   2  -2  834.92   48.00
   2   1  -2  848.32   49.90
   2  -3   2  786.02   47.00
  -3   1   2  720.73   46.80
  -1   3   2  844.62   47.20
   3  -2   2  830.12   47.40
  -2  -1   2  797.12   46.90
  -1  -2  -2  805.22   47.20
  -2  -1   2  746.53   47.00
  -1   3   2  731.53   46.90
  -1   3   2  879.81   47.80
  -2  -1   2  815.32   47.10
  -2   3  -2  879.71   48.90
  -1  -2  -2  771.92   47.40
   3  -2   2  802.12   47.10
   3  -1  -2  893.41   48.20
  -3   0   2    6.50    4.50
  -3   0   2    9.90    3.60
   0   3   2    7.30    3.10
  -3   3  -2    4.40    5.50
   0  -3  -2    2.60    3.70
   3  -3   2   13.30    4.20
   0   3   2    8.40    5.00
   3   0  -2    2.90    4.30
   3  -3   2    5.20    5.80
   0  -3  -2    9.90    5.00
  -3   0   2    6.90    4.10
   3  -3   2    3.30    4.50
   0   3   2   10.20    3.80
  -3   0   2    8.50    4.10
   0  -4   2 2559.14  146.99
   4  -4  -2 2744.23  147.69
   0  -4   2 2454.85  146.59
   0  -4   2 2798.22  149.09
  -4   4   2 2348.67  146.79
   0   4  -2 2825.62  148.89
   0  -4   2 2564.74  146.79
  -4   0  -2 2319.77  147.89
  -4   4   2 2736.93  147.69
   1  -4   2 1723.03  100.19
   1   3  -2 1908.71  102.59
  -4   3   2 1735.23  100.79
   3  -4  -2 1516.15   99.79
   3   1   2 1712.53  100.09
   1  -4   2 1878.11  102.19
   3  -4  -2 1819.92  100.79
   1  -4   2 1758.22   99.99
   1  -4   2 1734.33   99.79
  -4   3   2 1747.33  100.09
  -4   3   2 1596.84   99.99
   4  -1   2 1750.02  100.09
  -1  -3   2 1764.92   99.99
  -1   4  -2 1930.61  101.99
  -3   4   2 1813.12  100.09
  -3   4   2 1640.14   99.99
  -3  -1  -2 1636.64  100.29
  -1  -3   2 1681.73   99.79
   4  -3  -2 1924.71  100.99
  -1  -3   2 1781.22  100.19
  -3   4   2 1871.81  100.89
  -4   2   2  267.77   17.10
   2  -4   2  268.27   17.00
  -4   2   2  282.47   18.90
   2   2   2  280.87   17.00
  -4   2   2  264.87   17.30
   2   2  -2  269.97   23.30
   2  -4  -2  278.47   18.50
   2  -4  -2  242.28   17.10
   2  -4   2  310.97   22.20
   2   2  -2  302.47   19.10
   2  -4   2  252.87   16.80
   2   2   2  257.27   17.70
   2  -4   2  265.67   17.70
  -2  -2   2  247.68   16.80
  -2  -2  -2  293.87   17.50
   4  -2   2  269.07   17.30
   4  -2   2  271.67   17.70
  -2  -2  -2  258.07   18.20
   4  -2  -2  292.97   19.10
  -2   4   2  269.47   17.30
  -2  -2   2  265.07   17.20
  -2   4   2  296.17   18.70
  -2  -2   2  265.27   17.50
  -2   4   2  239.48   16.90
  -2   4  -2  295.47   20.90
   3  -4   2  126.79   15.30
  -4   1   2  116.49   11.80
   3  -4   2  110.79   10.30
   3   1  -2  101.89   16.70
  -4   3  -2  120.19   11.20
  -4   1   2  105.49    8.40
  -4   3  -2  120.59    9.00
   3  -4   2  110.09    8.90
   1  -4  -2  110.89    9.80
   3   1  -2  126.69   12.20
   1   3   2  119.19   10.00
   1   3   2   98.79    8.10
   1   3   2  115.29    9.80
   1  -4  -2  120.59   11.30
  -1   4   2  127.99    9.80
  -3  -1   2   93.39    9.20
  -3   4  -2  104.29   13.30
  -1  -3  -2  114.99   10.70
  -1   4   2  128.39   10.90
  -3  -1   2  112.69    9.30
   4  -3   2  129.09   13.10
  -1  -3  -2  102.69   11.00
   4  -3   2  100.59   10.40
  -1   4   2   96.99    8.60
   4  -3   2  115.59    9.40
   4  -1  -2   92.79   12.10
   4   0  -2    1.00    4.40
  -4   0   2    7.20    3.70
   4  -4   2    9.10    6.70
  -4   4  -2   -1.80    4.30
  -4   0   2    1.50    5.30
   0   4   2   14.10    4.90
   0  -4  -2    4.40    4.80
   4  -4   2   10.90    4.20
   0  -4  -2    6.60    4.60
   0   4   2    6.60    3.30
  -4   0   2    9.10    4.80
   0   4   2    8.00    4.00
  -5   0  -2 2764.82  164.18
   5   0   2 2820.32  163.88
   0  -5   2 2953.30  163.98
  -5   5   2 2681.83  163.78
   5  -5  -2 2983.50  164.68
   0  -5   2 2913.31  163.78
  -5   5   2 3056.49  164.78
   0   5  -2 3022.30  165.88
   0  -5   2 3019.10  166.08
   4  -5  -2  260.57   18.30
   1   4  -2  286.97   23.20
  -5   1  -2  238.78   18.10
   1  -5   2  273.27   22.80
   1  -5   2  258.97   16.40
  -5   4   2  252.37   16.80
   4   1   2  247.48   17.00
  -5   4   2  270.37   18.60
   1  -5   2  243.98   17.90
  -4   5   2  273.47   18.60
  -1  -4   2  238.48   22.20
  -1  -4   2  242.68   17.10
   5  -1   2  242.58   16.70
  -4  -1  -2  246.68   17.90
   5  -4  -2  268.27   18.60
  -1  -4   2  227.28   17.10
  -4   5   2  265.57   16.90
  -1   5  -2  281.17   22.40
   2  -5   2 1649.13   98.79
   2  -5   2 1848.52  101.49
   2  -5   2 1649.13  100.49
  -5   3   2 1491.75   99.29
  -5   3   2 1817.52   99.99
   2   3  -2 1922.11  101.89
   3  -5  -2 1731.33   98.89
   3  -5  -2 1799.42   99.89
   5  -3  -2 1887.11  100.09
  -3   5   2 1558.24   98.89
  -2   5  -2 1966.40  101.19
  -3   5   2 1853.61   99.89
  -2  -3   2 1709.93   99.09
   3  -5   2  785.62   48.70
   3  -5   2  894.61   49.60
   2  -5  -2  872.11   49.99
   3   2  -2  932.51   50.39
   2  -5  -2  846.02   49.00
   3  -5   2  974.80   52.29
   2   3   2  882.61   49.10
   3   2  -2  920.31   53.09
   5  -3   2  913.61   49.30
  -2  -3  -2  889.91   49.50
  -3   5  -2  916.01   50.99
  -2   5   2  756.82   48.80
  -3  -2   2  762.92   48.90
  -2   5   2  774.22   49.50
  -2   5   2  889.21   49.90
   5  -2  -2  927.81   50.49
  -3  -2   2  791.32   49.30
  -2  -3  -2  820.12   49.50
   5  -3   2  789.82   49.00
  -3   5  -2  781.52   49.40
   4   1  -2  413.16   29.30
   4   1  -2  431.56   26.20
  -5   4  -2  388.56   25.30
  -5   1   2  412.06   26.10
   4   1  -2  381.96   27.00
   1  -5  -2  418.16   24.70
  -5   1   2  370.56   23.90
   4  -5   2  369.76   24.10
  -5   1   2  352.16   24.40
   1   4   2  335.47   23.70
   1   4   2  443.76   25.10
   4  -5   2  445.06   27.80
   4  -5   2  392.06   24.90
   1  -5  -2  419.06   25.90
  -4   5  -2  371.06   24.60
   5  -4   2  387.36   24.30
  -1  -4  -2  408.16   25.10
  -1   5   2  374.96   25.60
   5  -1  -2  424.06   26.20
   5  -4   2  421.56   24.90
   5  -4   2  470.15   26.60
  -4  -1   2  366.36   24.30
  -4   5  -2  435.16   26.30
  -1   5   2  448.76   25.50
  -1   5   2  374.46   24.00
  -4  -1   2  367.56   24.10
   5  -1  -2  391.66   27.80
   0  -5  -2  622.84   33.90
   0  -5  -2  561.44   32.60
   5   0  -2  590.54   33.80
  -5   5  -2  580.44   33.50
  -5   5  -2  507.55   32.10
  -5   0   2  505.35   32.20
   5   0  -2  509.25   34.60
   5  -5   2  548.45   32.50
   5  -5   2  499.55   32.00
   0   5   2  483.15   31.80
  -5   0   2  482.55   31.80
   5  -5   2  611.54   34.90
   0   5   2  587.74   33.00
   0   6  -2  657.73   40.90
   0  -6   2  621.84   36.30
  -6   0  -2  621.44   37.50
   0  -6   2  620.34   36.80
   6   0   2  609.24   36.50
   0  -6   2  658.83   41.00
  -6   6   2  588.44   36.40
  -6   6   2  650.73   37.90
  -6   1  -2 1566.84   92.99
   5   1   2 1602.84   92.59
  -6   5   2 1753.62   93.69
   1  -6   2 1738.03   95.49
  -6   5   2 1503.85   92.39
   5  -6  -2 1663.53   93.49
   1   5  -2 1756.32   95.29
   1  -6   2 1641.84   92.79
   6  -5  -2 1719.13   93.59
  -5   6   2 1691.43   93.49
  -1  -5   2 1652.93   95.29
  -1   6  -2 1719.83   95.19
  -5  -1  -2 1602.24   92.99
   6  -1   2 1581.54   92.49
  -5   6   2 1557.34   92.39
  -5   6   2 1486.85   92.39
  -1  -5   2 1542.35   92.49
  -1  -5   2 1629.24   92.49
   2  -6   2 2317.27  135.79
   2   4  -2 2722.93  138.79
   2  -6   2 2600.24  138.29
  -6   4   2 2234.58  135.69
  -6   4   2 2454.95  136.59
   4   2   2 2241.78  135.69
   4  -6  -2 2508.55  136.69
   4  -6  -2 2233.08  135.29
  -2  -4   2 2377.66  137.79
  -4   6   2 2467.75  135.79
   6  -2   2 2312.57  135.69
  -2   6  -2 2544.65  137.79
  -2  -4   2 2282.57  135.59
  -4   6   2 2130.99  135.59
  -4  -2  -2 2374.96  136.09
  -4   6   2 2507.15  136.59
   6  -4  -2 2611.54  136.79
   6  -4  -2 2413.46  137.09
   3   3   2  670.73   40.90
  -6   3   2  709.33   42.00
   3  -6   2  693.43   41.10
   3  -6   2  731.43   44.30
   3   3  -2  771.12   45.10
  -6   3   2  649.34   40.70
   3  -6   2  637.84   40.20
   3  -6  -2  706.93   40.60
   3   3   2  725.93   40.60
   3  -6  -2  704.93   42.00
  -3  -3  -2  716.73   41.30
  -3   6   2  718.33   41.80
  -3  -3   2  682.83   40.70
   6  -3   2  653.73   40.70
  -3   6   2  716.73   40.80
  -3  -3  -2  687.73   41.30
   6  -3  -2  708.83   42.10
   6  -3   2  678.63   40.70
  -3  -3   2  669.13   40.80
  -3   6  -2  671.93   41.30
  -3   6  -2  764.82   43.50
   6  -3  -2  693.63   43.40
   4   2  -2  289.27   25.80
  -6   2   2  280.47   21.00
  -6   4  -2  348.17   19.40
   4  -6   2  298.07   23.80
   4  -6   2  255.17   18.70
   2   4   2  281.57   19.60
   4   2  -2  306.97   21.70
   2   4   2  305.77   19.70
   4   2  -2  311.97   21.60
   4  -6   2  293.47   19.80
   2  -6  -2  312.67   21.50
  -6   2   2  263.27   19.50
   2  -6  -2  308.77   19.50
  -2  -4  -2  306.87   20.30
  -4  -2   2  289.77   19.30
   6  -2  -2  307.87   23.50
   6  -2  -2  312.47   21.60
  -2   6   2  310.27   19.40
   6  -4   2  356.06   21.60
  -2  -4  -2  342.47   21.10
  -4   6  -2  313.37   19.90
   6  -4   2  302.17   19.70
  -2   6   2  283.07   18.90
   6  -4   2  302.17   19.30
  -4  -2   2  293.87   19.40
  -2   6   2  326.37   20.60
   5  -6   2   12.60    5.50
  -6   1   2   16.10    5.10
   1   5   2   14.50    4.60
   5  -6   2   18.80    4.50
   5   1  -2   19.80    9.10
   5   1  -2    5.50    8.40
  -6   1   2   10.20    4.90
   5   1  -2   10.80    6.00
  -6   1   2   16.20    3.80
   1   5   2   16.90    4.00
   5  -6   2   25.40    7.90
   1   5   2   17.00    5.60
   1  -6  -2   41.20   11.60
   1  -6  -2   26.70    5.80
  -1   6   2   13.10    4.30
  -1   6   2   19.30    4.90
   6  -1  -2   24.70    9.70
   6  -5   2   16.10    5.50
  -1   6   2   26.10    5.70
   6  -5   2   12.10    9.60
  -5  -1   2   14.50    4.90
   6  -1  -2   11.60    5.50
  -5  -1   2   23.40    4.70
   6  -5   2   19.30    6.70
  -1  -5  -2   24.30    6.30
  -6   6  -2  254.07   15.70
   6  -6   2  256.97   20.70
   6   0  -2  224.28   18.60
   0  -6  -2  278.77   19.30
   6  -6   2  216.28   15.70
   0   6   2  202.68   15.30
   0   6   2  228.08   16.20
  -6   0   2  206.58   15.90
   0   6   2  259.07   17.50
   6   0  -2  231.78   21.90
  -6   0   2  228.48   15.40
   0  -6  -2  243.38   17.10
  -7   7   2 3572.74  194.98
  -7   7   2 3337.67  193.88
   0  -7   2 3692.33  196.68
   0   7  -2 3689.73  196.58
   7  -7  -2 3540.05  194.98
   0  -7   2 3447.56  194.08
   7   0   2 3467.65  193.98
  -7   0  -2 3646.54  194.48
   7  -7  -2 3640.64  195.48
   1  -7   2 2692.83  148.69
  -7   6   2 2763.62  149.59
   6   1   2 2560.74  148.49
   1  -7   2 2778.02  151.48
  -7   1  -2 2641.64  148.99
   1   6  -2 2786.12  151.18
  -7   6   2 2539.55  148.39
   6  -7  -2 2657.73  149.49
   7  -1   2 2601.24  148.49
   7  -6  -2 2764.42  149.59
  -1  -6   2 2619.44  148.59
   7  -6  -2 2685.33  149.99
  -6   7   2 2520.75  148.39
  -6   7   2 2607.14  149.39
  -1  -6   2 2533.15  148.29
  -1   7  -2 2828.72  150.98
  -6  -1  -2 2659.83  148.99
  -1  -6   2 2672.43  151.18
   5  -7  -2  481.45   30.90
   5   2   2  461.15   29.20
   2   5  -2  482.75   33.90
  -7   5   2  491.55   30.90
  -7   5   2  455.15   29.10
   5  -7  -2  419.86   28.30
  -7   2  -2  459.75   30.40
   2  -7   2  510.05   34.90
   2  -7   2  481.55   29.80
  -5   7   2  513.05   30.70
  -5  -2  -2  499.65   30.20
  -2   7  -2  483.05   30.60
  -2  -5   2  473.35   34.30
  -2   7  -2  518.05   33.50
   7  -2   2  483.35   29.30
  -2  -5   2  490.75   29.20
   7  -5  -2  498.95   30.90
  -2  -5   2  477.75   29.60
  -5   7   2  467.85   29.00
  -5   7   2  479.35   28.90
   7  -5  -2  487.15   33.00
   3  -7   2 2159.68  124.59
   3   4  -2 2363.16  127.59
  -7   4   2 2296.97  125.49
   4  -7  -2 2256.97  125.59
   3  -7   2 2315.17  126.89
   4   3   2 2237.88  124.29
  -7   4   2 2108.29  124.39
   4  -7  -2 2163.08  124.19
   4   3   2 2135.59  124.49
   3   4  -2 1833.02  124.59
  -3   7  -2 2120.89  124.79
  -4   7   2 2273.37  124.49
   7  -3   2 2171.78  124.49
  -3  -4   2 2107.29  124.39
  -4   7   2 1988.60  124.29
   7  -4  -2 2289.37  125.49
  -3   7  -2 2296.17  126.49
   7  -4  -2 2163.58  125.79
  -4  -3  -2 2140.09  124.79
  -4   7   2 2295.57  125.49
  -3  -4   2 2069.29  124.49
   4   3  -2 1397.16   72.69
   4   3  -2 1133.09   71.59
   3   4   2 1229.08   71.19
   3  -7  -2 1307.07   72.49
   4  -7   2 1302.27   73.89
  -7   3   2 1304.07   72.29
   4  -7   2 1249.07   71.39
   3   4   2 1104.99   70.49
   3  -7  -2 1259.47   70.99
   3   4   2 1283.47   71.29
   4   3  -2 1350.86   74.79
  -7   3   2 1219.58   70.99
   4  -7   2 1116.19   70.59
  -4   7  -2 1310.37   73.09
  -4  -3   2 1194.78   70.99
  -4   7  -2 1075.39   71.39
   7  -4   2 1218.78   71.09
  -3   7   2 1270.77   71.19
  -4  -3   2 1139.39   71.09
   7  -4   2 1209.78   71.19
  -3  -4  -2 1281.57   72.09
   7  -3  -2 1235.18   72.79
  -3   7   2 1149.69   70.89
  -3   7   2 1281.67   72.09
  -3  -4  -2 1241.78   71.59
   7  -3  -2 1280.07   72.39
   2  -7  -2 2150.58  115.59
   2   5   2 2094.29  114.59
  -7   5  -2 2085.59  114.39
   2  -7  -2 2090.29  114.19
   5   2  -2 2148.58  115.49
   5  -7   2 1771.42  113.79
  -7   2   2 1855.11  114.09
   5  -7   2 2000.80  114.29
  -7   2   2 2095.89  115.29
   2   5   2 1843.32  113.79
   5  -7   2 2169.08  116.59
   5   2  -2 2203.68  117.59
  -7   5  -2 1852.91  113.69
   5   2  -2 1878.71  114.79
   2   5   2 2007.30  114.19
   7  -5   2 2105.09  114.39
  -2   7   2 1986.20  114.09
  -5  -2   2 1849.42  113.99
  -2  -5  -2 2206.18  115.49
   7  -2  -2 1990.50  115.29
  -2   7   2 2072.89  114.99
   7  -2  -2 2188.68  115.49
  -2   7   2 1845.82  113.99
  -5   7  -2 2091.49  115.49
  -5   7  -2 1875.21  114.39
  -2  -5  -2 2000.10  114.39
   7  -5   2 2262.77  115.39
  -5  -2   2 1916.61  114.09
   7  -5   2 1976.30  114.19
   1  -7  -2 1028.50   57.29
   6  -7   2 1007.10   58.29
   6   1  -2 1014.20   59.59
   1   6   2  987.00   56.19
  -7   6  -2  909.31   55.09
   6  -7   2  964.90   55.79
  -7   6  -2 1041.70   56.09
   1  -7  -2  978.10   55.89
   6   1  -2  865.11   60.59
   6  -7   2  875.11   55.19
   1   6   2  962.60   55.49
  -7   1   2  836.02   54.89
  -7   1   2  881.31   55.29
   1   6   2  883.41   55.09
  -7   1   2  939.91   56.59
  -6  -1   2  928.21   55.29
   7  -6   2 1074.99   57.69
   7  -1  -2  927.31   57.19
  -1   7   2 1003.70   55.59
  -6   7  -2 1040.20   56.89
   7  -6   2  971.80   55.69
  -6  -1   2  898.21   55.39
  -1  -6  -2 1007.70   55.89
   7  -6   2  940.01   55.39
  -1   7   2  999.80   56.49
  -1  -6  -2 1022.90   57.39
  -6   7  -2  937.61   55.39
   7  -1  -2  971.90   56.89
   7  -7   2    5.30    5.40
   7   0  -2   -3.90    5.80
   0   7   2    5.20    5.20
  -7   0   2   10.40    4.80
   0   7   2    1.30    6.10
   7  -7   2   -9.90    5.60
  -7   0   2   -3.80    5.00
   7   0  -2   21.20   10.20
   0  -7  -2   13.60    7.20
   0  -7  -2    3.00    6.40
   7  -7   2    7.80    7.60
   8  -8  -2 1566.54   91.49
   0  -8   2 1610.84   90.39
  -8   8   2 1517.65   90.09
  -8   8   2 1636.74   91.49
   8   0   2 1596.64   90.29
   0   8  -2 1658.03   93.49
   0  -8   2 1599.04   93.69
   8  -8  -2 1599.64   92.29
  -8   0  -2 1655.53   90.89
   7  -8  -2  329.67   29.00
   7   1   2  363.76   23.60
   1  -8   2  421.56   31.10
   7  -8  -2  325.67   31.80
  -8   7   2  376.26   23.40
   1  -8   2  371.36   24.00
  -8   1  -2  385.76   25.10
  -1  -7   2  368.26   24.00
  -1   8  -2  407.26   29.50
   8  -1   2  348.27   23.60
  -1   8  -2  340.37   25.60
   8  -7  -2  391.46   28.30
  -7  -1  -2  375.06   25.00
  -7   8   2  345.27   23.20
  -8   2  -2 2236.48  132.99
  -8   6   2 2311.57  132.59
   2  -8   2 2377.46  132.89
   2   6  -2 2350.56  135.39
   6   2   2 2286.77  132.69
   2  -8   2 2460.85  135.89
   6  -8  -2 2289.17  133.79
  -8   6   2 2419.56  133.79
  -2   8  -2 2337.77  133.19
   8  -2   2 2346.67  132.79
   8  -6  -2 2407.56  133.69
  -6   8   2 2332.47  133.69
  -2   8  -2 2357.86  135.09
   8  -6  -2 2333.77  134.09
  -6   8   2 2244.28  132.59
  -2  -6   2 2295.17  132.79
  -2  -6   2 2365.06  132.59
  -2  -6   2 2347.67  135.59
  -6  -2  -2 2287.37  132.99
   3   5  -2 2142.49  119.19
   5   3   2 2046.00  116.09
   3  -8   2 2172.38  118.89
  -8   5   2 2036.30  116.09
   3  -8   2 2130.99  116.29
  -8   3  -2 2046.10  116.49
  -8   5   2 2119.09  117.19
   5  -8  -2 1929.71  115.69
   5  -8  -2 2016.10  117.19
  -3   8  -2 1971.80  116.49
  -3  -5   2 2042.30  115.99
  -5  -3  -2 2065.89  116.49
   8  -5  -2 2038.40  117.49
  -3   8  -2 2062.19  118.19
  -3  -5   2 2023.00  118.69
  -5   8   2 1923.21  115.99
   8  -5  -2 2150.18  117.29
  -5   8   2 2033.60  115.99
  -3  -5   2 2033.80  116.19
  -5   8   2 2113.69  117.19
   4  -8  -2 1227.28   70.29
   4  -8   2 1243.18   70.79
   4  -8  -2 1277.87   72.09
   4   4   2 1258.17   70.69
   4  -8   2 1263.17   73.59
   4   4  -2 1124.49   70.89
  -8   4   2 1160.28   70.39
   4   4  -2 1277.27   74.69
   4   4   2 1197.98   70.49
  -8   4   2 1274.27   71.79
   4   4   2 1126.89   69.89
  -4   8   2 1305.47   70.49
  -4   8  -2 1125.29   70.79
  -4  -4   2 1197.08   70.49
  -4  -4   2 1206.18   70.39
  -4   8   2 1183.18   70.29
  -4   8   2 1288.47   71.59
  -4  -4  -2 1200.08   71.49
  -4  -4  -2 1214.08   70.99
   8  -4   2 1283.97   70.69
   8  -4  -2 1257.37   72.19
  -4   8  -2 1290.87   72.89
   8  -4  -2 1291.07   71.89
   3   5   2 1644.94  100.89
  -8   3   2 1820.52  102.39
   3  -8  -2 1922.61  102.99
   3  -8  -2 1839.82  101.19
   3   5   2 1881.31  101.79
   5  -8   2 1807.42  101.49
   3   5   2 1782.32  101.29
  -8   5  -2 1883.71  101.29
   5  -8   2 1581.94  100.79
   5   3  -2 1972.80  104.89
   5  -8   2 1872.41  104.09
   5   3  -2 1857.11  102.49
   5   3  -2 1679.73  101.79
   8  -5   2 1950.40  102.39
   8  -3  -2 1822.92  102.49
  -3  -5  -2 1814.02  101.59
   8  -5   2 1775.42  101.29
   8  -5   2 1823.32  101.29
  -3   8   2 1837.02  102.29
  -5  -3   2 1815.22  101.39
  -5   8  -2 1736.83  101.49
  -5  -3   2 1717.63  101.19
  -3   8   2 1652.43  101.09
  -3  -5  -2 1797.92  102.49
  -5   8  -2 1824.02  102.99
   8  -3  -2 1753.52  102.59
  -3   8   2 1863.61  101.29
   2  -8  -2  230.18   16.20
   2   6   2  207.78   15.70
   2  -8  -2  249.88   20.10
  -8   6  -2  248.08   16.80
  -8   2   2  186.78   15.80
  -8   2   2  208.68   18.20
   6   2  -2  185.78   24.20
   6  -8   2  202.48   15.00
   6  -8   2  225.68   22.10
  -8   6  -2  206.28   14.50
   6   2  -2  223.08   18.60
   2   6   2  226.58   17.20
   6  -8   2  225.78   16.30
   2   6   2  203.38   15.20
   6   2  -2  250.17   19.60
  -2   8   2  225.58   17.90
  -2   8   2  213.28   15.70
   8  -2  -2  280.17   21.30
   8  -2  -2  202.38   18.60
   8  -6   2  243.18   16.10
  -6   8  -2  234.48   16.30
  -6  -2   2  214.88   15.60
  -2   8   2  190.68   15.30
  -2  -6  -2  237.88   19.60
   8  -6   2  254.47   20.00
   8  -6   2  203.28   16.20
  -6   8  -2  260.97   19.00
  -2  -6  -2  234.08   17.10
  -6  -2   2  213.38   15.70
  -8   1   2  733.43   46.00
   1   7   2  811.02   47.20
   7   1  -2  804.72   49.80
   7   1  -2  767.92   47.70
  -8   7  -2  825.02   46.90
   1   7   2  789.02   46.10
  -8   1   2  734.53   49.00
   1  -8  -2  860.71   48.80
  -8   1   2  689.73   45.50
   7   1  -2  678.63   57.09
  -8   7  -2  748.33   45.70
   7  -8   2  788.72   46.40
   7  -8   2  875.61   49.80
   1  -8  -2  812.92   46.30
   7  -8   2  678.13   46.50
   1   7   2  690.93   47.90
   8  -1  -2  837.12   48.30
   8  -7   2  782.62   46.10
  -1  -7  -2  877.81   48.90
   8  -7   2  852.91   48.90
  -1  -7  -2  830.42   46.60
  -7   8  -2  878.31   47.90
  -7  -1   2  752.42   45.90
  -1   8   2  808.12   46.10
  -7  -1   2  746.53   46.00
  -1   8   2  737.13   45.80
   8  -7   2  794.12   46.30
  -7   8  -2  781.92   46.10
  -1   8   2  828.22   47.50
   8  -1  -2  783.92   49.60
   0  -8  -2  868.01   48.80
  -8   0   2  753.22   48.00
   0   8   2  861.51   48.40
   0  -8  -2  882.51   51.29
   8   0  -2  842.22   50.19
   8  -8   2  864.21   51.49
   0   8   2  777.92   48.30
   8   0  -2  873.01   50.19
   0   8   2  844.22   49.70
   8  -8   2  804.32   48.40
  -8   0   2  777.02   48.20
  -8   8  -2  767.92   48.70
   8  -8   2  833.02   48.70
  -8   8  -2  891.51   49.80
   9   0   2   73.19   11.20
   0  -9   2   80.59   20.00
   0  -9   2   77.39   12.00
  -9   9   2   74.79   10.60
  -9   0  -2   55.99    9.70
  -9   9   2   75.89   14.00
   0   9  -2   77.29   12.00
   0   9  -2   51.79   11.20
   9  -9  -2   75.89   13.80
   9  -9  -2   69.39   14.20
  -9   1  -2 1223.98   69.59
   1  -9   2 1170.08   72.89
   1  -9   2 1198.48   68.99
   1   8  -2 1277.47   72.89
   8   1   2 1191.88   68.89
   8  -9  -2 1171.28   70.19
  -9   8   2 1185.68   68.79
  -9   8   2 1199.58   70.19
   8  -9  -2 1187.98   71.29
  -8   9   2 1207.78   70.09
   9  -8  -2 1210.78   70.99
  -1  -8   2 1217.78   69.19
  -1   9  -2 1222.68   72.39
   9  -1   2 1253.47   69.09
   9  -8  -2 1177.98   70.09
  -8  -1  -2 1207.88   69.39
  -8   9   2 1161.38   68.69
  -1  -8   2 1195.98   72.69
  -1   9  -2 1210.38   69.79
   7  -9  -2 1000.10   60.79
  -9   7   2 1046.90   60.89
   7  -9  -2  968.00   62.19
   2   7  -2 1048.60   63.39
   2  -9   2 1051.99   59.69
   2  -9   2 1043.40   63.79
  -9   7   2  972.90   59.19
  -9   2  -2 1013.20   60.09
   7   2   2  979.90   59.29
  -2  -7   2 1036.40   58.99
  -7   9   2 1024.20   59.19
   9  -7  -2 1063.59   61.59
   9  -2   2 1082.09   59.59
  -2   9  -2 1048.00   62.69
  -7  -2  -2 1041.40   59.89
  -2   9  -2 1032.00   60.09
  -2  -7   2  985.50   63.29
  -7   9   2 1052.49   60.59
  -2  -7   2 1046.20   59.59
   9  -7  -2 1016.20   60.59
   6  -9  -2  784.12   51.59
  -9   6   2  899.81   53.69
  -9   3  -2  876.41   53.09
   6   3   2  844.52   52.29
  -9   6   2  860.51   52.19
   6  -9  -2  839.52   55.19
   3  -9   2  937.51   52.69
   3   6  -2  926.81   56.29
   3  -9   2  850.71   60.09
   9  -6  -2  950.70   53.89
  -3  -6   2  851.31   56.19
  -6  -3  -2  947.31   53.09
  -3  -6   2  955.50   52.29
   9  -3   2  975.80   52.69
  -3   9  -2  873.31   56.69
  -6   9   2  930.81   54.29
   9  -6  -2  961.60   54.79
  -6   9   2  878.51   52.19
  -3  -6   2  936.41   52.59
  -3   9  -2  964.30   53.19
   5  -9  -2  469.05   29.50
  -9   5   2  489.95   31.70
   5   4   2  470.55   29.90
   5  -9  -2  521.95   32.60
   4   5  -2  493.05   35.50
  -9   4  -2  461.75   30.80
   4  -9   2  522.85   30.40
   4  -9   2  497.65   35.10
  -9   5   2  487.35   29.90
   5   4   2  509.35   30.50
  -5   9   2  465.35   29.80
  -4   9  -2  463.75   30.80
  -4  -5   2  492.35   29.80
  -5  -4  -2  478.15   31.90
  -5   9   2  498.25   32.90
   9  -4   2  501.75   30.30
  -4  -5   2  501.05   30.30
  -4   9  -2  516.25   34.10
   9  -5  -2  458.15   31.90
   9  -5  -2  527.95   33.70
  -5  -4  -2  474.15   30.80
  -5   9   2  475.65   29.60
  -9   4   2  178.98   13.80
  -9   5  -2  177.98   13.10
   4  -9  -2  189.98   18.50
   5  -9   2  168.88   14.60
   4  -9  -2  182.68   13.70
   5   4  -2  176.58   17.40
   5  -9   2  183.18   21.80
   5   4  -2  197.58   15.50
   4   5   2  152.68   12.80
   4   5   2  168.08   15.00
   4   5   2  154.68   13.70
  -9   4   2  137.79   16.20
   5   4  -2  158.08   22.20
   9  -4  -2  131.29   17.00
  -4   9   2  169.98   16.20
  -5   9  -2  193.88   18.60
   9  -4  -2  223.48   20.60
  -5  -4   2  166.48   13.30
  -5  -4   2  175.38   14.40
  -4   9   2  162.78   13.60
  -5   9  -2  178.28   15.30
  -4  -5  -2  172.38   17.50
  -4  -5  -2  161.38   15.50
   9  -5   2  197.08   16.50
  -4   9   2  147.79   13.30
   9  -5   2  163.18   14.50
   6  -9   2  495.25   34.70
   6   3  -2  509.15   32.20
   3   6   2  473.35   29.90
   3   6   2  473.25   29.70
  -9   6  -2  497.45   30.10
  -9   3   2  462.05   30.00
   3  -9  -2  491.85   30.00
   6  -9   2  420.86   29.10
  -9   3   2  489.05   31.70
   6  -9   2  477.25   30.20
   6   3  -2  457.15   31.10
   3   6   2  496.35   31.10
   3  -9  -2  504.45   33.20
   6   3  -2  505.95   36.00
  -9   6  -2  423.26   28.80
   9  -3  -2  499.15   31.90
  -6  -3   2  485.55   29.80
  -3   9   2  468.05   29.70
  -3  -6  -2  500.55   30.80
  -3  -6  -2  502.95   32.90
   9  -6   2  555.04   32.60
   9  -6   2  464.45   30.10
   9  -6   2  492.45   30.30
   9  -3  -2  551.64   33.60
  -3   9   2  500.65   29.90
  -6  -3   2  492.55   30.10
  -3   9   2  521.95   31.80
  -6   9  -2  523.75   32.50
  -6   9  -2  485.55   30.30
  -9   7  -2  552.54   32.60
  -9   2   2  532.65   33.50
  -9   2   2  451.95   31.00
   7   2  -2  546.15   34.00
   7  -9   2  563.74   36.90
   7  -9   2  452.85   32.00
   2  -9  -2  540.55   32.30
   7   2  -2  549.85   38.40
   7  -9   2  506.55   32.10
  -9   7  -2  471.75   31.10
  -9   2   2  500.15   31.80
   7   2  -2  485.95   33.40
   2   7   2  525.45   33.20
   2   7   2  512.55   31.70
   2  -9  -2  552.84   35.10
  -2  -7  -2  539.85   32.60
  -2   9   2  543.75   31.90
   9  -7   2  542.65   32.10
  -2   9   2  554.04   33.60
  -7  -2   2  518.95   32.00
   9  -2  -2  553.94   35.10
  -7   9  -2  525.35   32.20
   9  -7   2  572.64   35.30
  -2  -7  -2  541.25   35.50
   9  -7   2  520.15   32.10
   9  -2  -2  558.64   34.10
  -2   9   2  483.95   31.60
  -7  -2   2  509.35   31.80
  -7   9  -2  569.64   34.40
   1  -9  -2   14.90    8.60
   8  -9   2   19.80    7.10
  -9   8  -2   15.40    5.80
   8   1  -2    8.80   10.10
   8  -9   2   19.90    9.40
   1  -9  -2    5.90    7.00
   8  -9   2   14.50    6.40
  -9   1   2   10.70    5.50
   1   8   2   13.10    6.20
   8   1  -2    7.50    6.10
   1   8   2   18.20    6.70
   1   8   2   13.10    6.30
   8   1  -2   14.90   10.10
  -9   1   2   10.40    6.00
   9  -8   2   16.20    8.50
   9  -1  -2   11.70    6.10
  -1   9   2   15.80    6.70
  -8   9  -2   22.50    6.70
   9  -8   2   17.90    6.40
  -1  -8  -2   26.80    7.90
  -8   9  -2   23.40    6.60
  -1  -8  -2   13.30    8.30
  -8  -1   2   19.70    6.30
   9  -8   2    8.20    6.60
  -1   9   2   11.10    6.40
  -1   9   2    6.80    6.30
  -8  -1   2   24.50   12.40
   9  -1  -2   36.30   10.80
   9  -9   2  141.59   13.00
  -9   9  -2  140.29   12.60
   9   0  -2  152.28   21.80
   0   9   2  132.59   12.50
  -9   0   2  134.29   12.60
   0   9   2  125.39   12.80
  -9   0   2  130.39   12.80
   9  -9   2  137.09   20.30
   9   0  -2  171.88   16.80
   0  -9  -2  145.99   14.00
  -9   9  -2  140.19   14.60
   9  -9   2  124.59   13.50
   9   0  -2  139.09   16.30
   0   9   2  141.49   15.50
   0  -9  -2  141.99   19.60
  10 -10  -2  125.99   19.60
   0 -10   2   91.19   13.60
 -10  10   2   96.59   12.00
 -10  10   2   87.59   15.00
  10   0   2   87.79   12.90
   0 -10   2  107.79   21.30
   0  10  -2   99.79   15.60
 -10   0  -2   78.39   14.50
  10 -10  -2  101.19   15.00
   0  10  -2   83.89   20.50
   1   9  -2  241.98   21.10
   1   9  -2  272.97   26.20
   1 -10   2  291.57   19.60
 -10   1  -2  252.07   20.90
   9 -10  -2  271.87   21.70
 -10   9   2  256.07   20.90
   9   1   2  263.37   19.10
   9 -10  -2  255.57   24.50
   1 -10   2  266.67   27.40
 -10   9   2  255.37   18.80
  10  -9  -2  261.57   21.00
  10  -1   2  271.77   19.50
  -1  10  -2  274.97   21.00
  -1  -9   2  257.27   19.70
  -9  10   2  266.37   20.90
  -9  10   2  247.68   18.50
  10  -9  -2  297.57   24.50
  -9  -1  -2  243.98   20.20
  -1  -9   2  257.17   26.70
  -1  10  -2  266.37   25.30
 -10   8   2   82.89   11.60
 -10   2  -2   83.99   14.20
   8 -10  -2   88.29   15.40
   2 -10   2   89.09   13.00
   2 -10   2   80.79   21.50
   8 -10  -2  104.19   15.00
   8   2   2   82.19   11.90
 -10   8   2  100.69   14.90
   2   8  -2  102.39   20.60
  10  -8  -2  100.29   13.80
  -2  10  -2  100.49   14.50
  -8  10   2  111.69   14.20
  -2  -8   2   95.49   20.60
  -8  10   2  106.79   11.50
  10  -8  -2  124.89   19.30
  -2  10  -2  100.39   18.30
  -8  -2  -2   76.59   14.10
  10  -2   2  105.79   13.00
  -2  -8   2   91.79   12.80
   7   3   2  410.96   26.90
   3 -10   2  429.16   27.50
   7 -10  -2  418.66   29.60
   3   7  -2  451.25   33.20
   3 -10   2  412.16   32.50
 -10   7   2  432.16   28.90
   7 -10  -2  352.26   31.80
 -10   7   2  413.46   26.60
 -10   3  -2  416.76   28.40
  -7  -3  -2  420.16   28.10
  10  -3   2  440.66   27.40
  10  -7  -2  443.96   28.90
  -3  10  -2  432.96   28.00
  -3  -7   2  425.76   27.40
  -7  10   2  430.56   28.80
  -3  -7   2  451.65   26.40
  -7  10   2  408.46   26.70
  10  -7  -2  458.15   31.50
  -3  10  -2  430.86   31.10
  -3  -7   2  413.66   32.90
 -10   6   2  246.48   19.90
 -10   4  -2  222.88   19.70
   4 -10   2  243.18   24.60
   6 -10  -2  236.68   20.70
   4   6  -2  246.98   24.40
   4 -10   2  249.18   18.10
   6 -10  -2  208.08   16.50
   6   4   2  223.88   17.30
 -10   6   2  232.98   17.30
   6   4   2  263.77   18.60
  -6  10   2  248.38   17.40
  -4  -6   2  271.57   18.60
  10  -6  -2  241.88   19.80
  -4  -6   2  226.78   23.70
  -4  -6   2  242.08   17.10
  -6  -4  -2  243.48   18.90
  10  -6  -2  288.17   23.80
  -6  -4  -2  232.58   20.30
  -4  10  -2  248.48   19.20
  -6  10   2  249.97   19.70
  -4  10  -2  245.98   22.40
  10  -4   2  265.87   18.40
 -10   5   2   59.79   10.50
   5   5  -2   83.69   11.20
   5   5   2   76.39   12.50
   5   5   2   57.29    9.70
   5 -10   2   75.69   20.40
   5   5   2   70.79   10.70
   5 -10  -2   59.99   10.20
 -10   5   2   71.39   13.00
   5 -10  -2   96.99   16.00
 -10   5  -2   84.19    9.50
   5   5  -2   85.89   20.30
   5 -10   2   77.99   11.50
  -5  10   2   86.29    9.80
  -5  -5  -2   76.49   12.70
  10  -5  -2  120.69   18.50
  10  -5  -2   73.49   14.00
  10  -5   2   77.79   11.90
  -5  10  -2   89.29   12.70
  -5  -5   2   82.49    9.90
  -5  -5  -2   94.89   15.20
  -5  10  -2   93.59   16.70
  -5  10   2   68.89   10.30
  -5  -5   2   99.89   11.70
  -5  10   2   80.09   13.50
   4 -10  -2  233.58   16.80
   4   6   2  193.28   16.00
 -10   6  -2  228.78   16.60
   6   4  -2  226.28   25.00
   6 -10   2  231.18   17.50
   6   4  -2  227.78   19.20
   4   6   2  207.78   16.60
   4 -10  -2  229.08   21.20
 -10   4   2  214.28   16.60
   6 -10   2  194.68   15.00
   6 -10   2  176.78   28.10
 -10   4   2  215.78   18.70
   4   6   2  222.68   18.60
   6   4  -2  212.28   17.90
  -4  10   2  250.27   16.60
  -6  -4   2  249.88   16.30
  10  -4  -2  242.48   19.50
  -4  10   2  248.18   19.20
  10  -6   2  251.17   20.20
  -6  -4   2  235.38   17.50
  10  -6   2  244.48   17.40
  10  -6   2  227.88   16.30
  -4  -6  -2  224.78   21.10
  -4  10   2  218.08   16.60
  10  -4  -2  267.27   22.30
  -6  10  -2  225.58   21.90
  -4  -6  -2  242.98   18.30
  -6  10  -2  267.97   17.80
   3   7   2  184.28   14.80
   3 -10  -2  198.18   15.30
   7   3  -2  185.38   23.70
 -10   7  -2  170.28   13.30
   3   7   2  194.38   17.40
 -10   7  -2  196.98   15.60
 -10   3   2  183.88   16.90
   3 -10  -2  192.98   20.00
   7 -10   2  203.78   15.70
 -10   3   2  172.48   14.80
   7   3  -2  190.98   17.90
   7 -10   2  182.28   23.00
   7 -10   2  176.58   14.00
   7   3  -2  191.28   17.10
   3   7   2  187.48   18.90
  -3  10   2  201.48   17.60
  10  -3  -2  245.48   20.60
  -3  10   2  167.58   14.70
  -3  10   2  191.38   14.70
  -7  10  -2  200.88   15.80
  -7  -3   2  180.48   15.50
  10  -3  -2  196.98   17.80
  -7  10  -2  207.08   18.70
  -7  -3   2  202.28   14.70
  10  -7   2  199.28   15.80
  10  -7   2  177.38   15.10
  -3  -7  -2  210.68   20.70
  10  -7   2  197.68   19.60
  -3  -7  -2  202.58   16.40
   8 -10   2  370.96   29.80
   8 -10   2  350.66   24.00
   8   2  -2  377.36   31.20
   8   2  -2  350.16   25.70
   2   8   2  364.46   23.90
   2 -10  -2  345.07   31.60
   2 -10  -2  376.76   24.20
   2   8   2  380.16   25.80
   2   8   2  369.06   23.70
   8 -10   2  347.07   23.40
 -10   8  -2  376.06   24.70
 -10   2   2  350.16   23.40
 -10   2   2  315.97   22.90
 -10   2   2  350.66   25.30
   8   2  -2  357.06   26.00
  -8  -2   2  350.76   24.00
  10  -8   2  386.76   24.00
  -8  -2   2  369.36   23.70
  10  -8   2  394.66   28.10
  -2  -8  -2  387.46   24.60
  -8  10  -2  379.26   24.00
  10  -8   2  370.46   24.10
  -2  10   2  368.36   23.70
  -2  -8  -2  352.26   28.40
  -2  10   2  370.46   27.30
  10  -2  -2  413.46   27.40
  10  -2  -2  375.06   26.30
  -8  10  -2  397.86   26.40
  -2  10   2  394.56   23.80
 -10   9  -2  276.27   18.80
   1 -10  -2  244.08   35.00
   9   1  -2  294.37   22.10
 -10   1   2  260.87   19.30
   1 -10  -2  269.77   20.20
   9   1  -2  261.57   21.90
   9 -10   2  295.37   26.10
 -10   9  -2  306.87   20.90
   9 -10   2  269.27   19.40
 -10   1   2  258.27   19.10
   9 -10   2  268.07   20.00
   1   9   2  277.17   19.80
   1   9   2  273.77   19.30
   9   1  -2  309.17   28.60
   1   9   2  292.57   21.90
  -1  -9  -2  294.27   25.80
  -1  10   2  281.07   19.60
  10  -9   2  268.27   19.90
  10  -9   2  297.67   25.60
  -1  10   2  280.97   19.40
  -9  -1   2  277.47   19.10
  -1  -9  -2  296.47   20.30
  10  -9   2  266.47   19.70
  10  -1  -2  315.67   22.80
  -9  10  -2  314.07   21.80
  -9  10  -2  297.27   19.40
  10  -1  -2  268.87   22.20
  -9  -1   2  281.17   20.00
  -1  10   2  253.37   23.30
 -10   0   2  542.35   35.20
  10   0  -2  594.94   41.40
 -10   0   2  595.54   35.20
   0 -10  -2  507.55   43.20
 -10  10  -2  572.44   35.00
  10 -10   2  531.05   35.30
   0 -10  -2  599.54   36.00
  10   0  -2  578.54   37.10
 -10  10  -2  602.34   36.90
   0  10   2  603.24   35.30
  10   0  -2  615.44   37.80
   0  10   2  569.44   38.00
   0  10   2  576.94   35.30
  10 -10   2  587.64   35.70
  10 -10   2  617.14   40.40
  11   0   2    8.80    8.60
   0  11  -2   -1.80    9.70
   0  11  -2    1.70    9.60
 -11   0  -2   -4.30    9.00
 -11  11   2    2.20    6.90
  11 -11  -2   11.40    7.30
 -11  11   2   18.10    7.10
  11 -11  -2    9.70   14.60
   0 -11   2   23.70   11.00
   0 -11   2   12.80    8.80
   1 -11   2  297.97   20.70
 -11  10   2  269.87   19.70
   1  10  -2  268.67   22.30
   1  10  -2  263.47   26.70
  10 -11  -2  299.07   25.30
  10 -11  -2  263.17   22.10
   1 -11   2  264.87   28.40
 -11  10   2  268.27   21.70
 -11   1  -2  270.57   21.50
  10   1   2  299.67   20.30
 -10  11   2  257.57   21.60
 -10  11   2  264.07   19.40
  -1  11  -2  241.38   25.50
  -1  11  -2  284.57   22.00
 -10  -1  -2  274.97   21.50
  -1 -10   2  256.37   20.80
  11 -10  -2  266.77   21.80
  11  -1   2  283.77   20.60
  -1 -10   2  266.37   27.50
  11 -10  -2  302.87   26.10
 -11   9   2   53.89    8.20
   2 -11   2   28.80   11.80
   9 -11  -2   39.40   14.00
 -11   2  -2   49.60   10.10
 -11   9   2   35.00    7.80
   9   2   2   65.19    9.30
   2   9  -2   42.80   11.10
   2 -11   2   48.00    8.60
   9 -11  -2   59.09   15.20
  11  -9  -2   55.89   13.90
  -2  -9   2   39.40   11.40
  -2  11  -2   70.59   13.70
  -9  11   2   39.20    7.60
  11  -2   2   52.49    9.20
  -9  -2  -2   49.20   10.00
  -9  11   2   58.39   11.00
  -2  11  -2   45.30   10.60
  -2  -9   2   49.40    9.50
  11  -9  -2   95.79   19.60
 -11   8   2   70.19   14.40
   8 -11  -2   93.49   15.80
   3 -11   2   53.79   11.90
   3   8  -2   89.39   20.50
 -11   3  -2   72.39   14.20
   8   3   2   56.79   11.60
   8 -11  -2   51.69    9.20
   8 -11  -2   63.39   15.60
 -11   8   2   63.29   11.30
   3 -11   2   71.39   13.10
  -8  11   2   80.89   13.70
  11  -3   2   79.99   12.60
  11  -8  -2   96.59   19.30
  -3  -8   2   71.49   20.60
  -3  -8   2   82.19   12.80
  -3  11  -2   79.49   13.60
  11  -8  -2   80.19   13.40
  -8  11   2   62.79   11.00
  -3  11  -2   80.29   18.50
  -8  -3  -2   72.59    9.80
 -11   7   2  295.07   22.60
 -11   4  -2  289.67   22.50
 -11   7   2  302.77   20.80
   7   4   2  317.27   22.00
   7 -11  -2  261.87   20.00
   7 -11  -2  296.47   24.00
   4 -11   2  299.37   21.70
   7   4   2  277.27   20.70
   4 -11   2  296.47   27.60
   4   7  -2  317.67   28.30
   7 -11  -2  276.77   27.40
  11  -4   2  347.57   21.90
  -4  -7   2  312.17   20.20
  -4  -7   2  339.37   22.10
  11  -7  -2  293.67   22.70
  -4  -7   2  264.67   26.80
  -7  -4  -2  332.87   22.30
  -7  -4  -2  293.37   23.30
  -4  11  -2  297.77   25.20
  -7  11   2  318.57   20.70
  -7  11   2  324.07   23.10
  -4  11  -2  330.17   22.80
  11  -7  -2  329.27   26.20
   6 -11  -2   65.59   16.30
   5 -11   2   55.79   12.30
   6   5   2   56.49    8.20
   5   6  -2   70.39   19.90
   6   5   2   65.79   13.10
   6 -11  -2   65.69   13.70
 -11   5  -2   71.89   10.10
   6   5   2   56.89   10.30
   5 -11   2   77.89   12.00
 -11   6   2   72.19   10.70
 -11   6   2   51.59   13.60
  -5  -6   2   73.49   12.30
  -6  11   2   68.89   10.60
  11  -5   2   79.79   12.50
  -5  11  -2   68.19   12.80
  11  -6  -2   63.69   13.70
  -6  -5  -2   71.09    9.80
  -6  -5  -2   82.79   15.80
  -5  11  -2   75.39   16.40
  -6  11   2   87.79   14.50
  11  -6  -2  108.69   18.70
  -5  -6   2   62.39   10.60
 -11   5   2  341.77   25.30
   6   5  -2  375.76   26.50
   6   5  -2  356.16   30.80
   6 -11   2  364.26   24.10
   5   6   2  388.86   25.70
   5   6   2  356.66   23.50
   6   5  -2  329.97   23.60
   5 -11  -2  365.86   27.80
   6 -11   2  352.36   30.40
 -11   6  -2  365.46   23.30
   5 -11  -2  331.67   23.20
   5   6   2  318.07   23.20
 -11   5   2  386.26   23.30
  -5  11   2  353.36   23.40
  -6  -5   2  349.67   23.10
  -6  11  -2  356.46   24.30
  11  -6   2  389.96   26.40
  11  -5  -2  398.66   28.00
  11  -5  -2  343.87   25.70
  -5  11   2  367.96   25.70
  -6  -5   2  360.56   24.30
  -5  -6  -2  339.57   27.10
  -5  -6  -2  368.76   24.60
  -6  11  -2  339.57   26.80
  11  -6   2  368.76   24.30
   7   4  -2  490.65   31.70
   4 -11  -2  493.05   34.80
 -11   7  -2  450.45   30.10
   4   7   2  491.35   31.10
   7 -11   2  440.86   30.30
   4 -11  -2  527.95   31.60
 -11   4   2  511.15   31.40
   7   4  -2  520.85   33.70
 -11   4   2  492.05   33.00
   7 -11   2  487.25   37.40
   7 -11   2  527.65   31.80
   7   4  -2  498.45   38.00
 -11   7  -2  525.05   31.70
   4   7   2  464.65   31.40
   4   7   2  535.05   33.10
  11  -4  -2  551.44   34.40
  -7  11  -2  480.05   33.90
  -7  11  -2  501.85   31.80
  -4  -7  -2  534.35   32.20
  -7  -4   2  506.35   31.80
  11  -4  -2  524.25   33.50
  -4  11   2  536.95   33.30
  11  -7   2  502.65   31.10
  11  -7   2  541.55   31.80
  -7  -4   2  509.75   31.00
  11  -7   2  541.95   34.80
  -4  11   2  493.65   31.20
  -4  -7  -2  490.75   35.20
  -4  11   2  522.95   31.30
   3 -11  -2  467.65   34.50
   3   8   2  511.25   32.30
 -11   3   2  488.75   31.80
   8 -11   2  486.85   36.10
   8   3  -2  469.95   36.60
   8   3  -2  477.85   32.40
 -11   3   2  481.05   29.90
   8   3  -2  465.95   30.80
   8 -11   2  453.55   29.40
   8 -11   2  502.95   30.30
   3 -11  -2  488.95   30.50
   3   8   2  473.75   29.90
 -11   8  -2  482.85   30.70
   3   8   2  468.85   29.80
  -8  11  -2  472.75   30.30
  11  -3  -2  487.85   32.20
  -3  -8  -2  465.75   30.70
  11  -8   2  496.95   34.00
  -8  11  -2  474.65   32.70
  11  -8   2  482.95   30.40
  11  -8   2  486.15   30.10
  -8  -3   2  468.55   30.30
  -3  11   2  483.05   32.00
  11  -3  -2  489.05   32.80
  -3  -8  -2  515.75   34.80
  -3  11   2  440.86   29.80
  -3  11   2  460.05   29.80
  -8  -3   2  473.05   29.80
   9   2  -2  235.88   20.20
   9   2  -2  240.28   21.50
 -11   9  -2  250.47   17.70
   9 -11   2  242.78   18.50
   9 -11   2  241.38   25.90
   2   9   2  272.17   21.50
   9   2  -2  257.67   27.40
 -11   9  -2  267.37   19.90
   2 -11  -2  229.78   25.40
   9 -11   2  257.77   19.20
   2   9   2  268.17   18.90
 -11   2   2  252.07   18.50
   2 -11  -2  253.87   19.20
   2   9   2  247.78   18.30
  11  -9   2  261.87   19.10
  -9  11  -2  290.07   21.60
  -9  -2   2  268.27   18.70
  -2  11   2  268.17   18.70
  -9  11  -2  271.37   18.70
  -2  -9  -2  259.47   25.20
  11  -9   2  264.57   24.60
  11  -9   2  238.68   19.00
  -2  11   2  252.57   21.20
  -9  -2   2  263.57   19.50
  11  -2  -2  259.07   21.50
  -2  -9  -2  280.47   19.60
  -2  11   2  249.18   19.00
  11  -2  -2  278.47   22.40
   1  10   2   85.19   12.60
  10 -11   2   57.79    9.30
  10 -11   2   69.79   20.70
  10   1  -2  104.79   14.80
   1  10   2   95.79   15.20
   1 -11  -2   85.99   13.30
 -11  10  -2   90.69   10.60
 -11  10  -2  100.79   14.00
  10 -11   2   96.29   12.10
   1  10   2   61.89   11.70
 -11   1   2   78.19   11.20
  -1  11   2   79.09   12.40
  -1  11   2   52.99   11.50
  -1  11   2   90.89   14.80
  11 -10   2   83.89   12.10
 -10  11  -2   82.39   11.90
  11  -1  -2  107.19   16.40
  11 -10   2   51.09   10.20
 -10  -1   2   60.69    9.50
 -10  11  -2   92.59   14.40
  -1 -10  -2   90.09   20.90
 -10  -1   2   86.49   11.60
  -1 -10  -2   77.29   13.50
 -11  11  -2  525.75   32.20
  11   0  -2  540.25   39.80
 -11   0   2  510.55   32.30
   0 -11  -2  530.75   33.30
  11   0  -2  546.25   34.20
   0 -11  -2  539.85   38.50
   0  11   2  535.95   32.40
  11 -11   2  518.25   33.00
  11   0  -2  504.35   34.80
   0  11   2  537.75   32.80
   0  11   2  540.15   35.00
 -11  11  -2  530.25   34.40
  11 -11   2  505.15   32.60
 -11   0   2  496.75   32.80
  11 -11   2  501.95   39.00
 -12  12   2  485.35   30.30
   0 -12   2  483.65   31.60
  12   0   2  505.15   31.20
 -12  12   2  437.16   32.30
  12 -12  -2  488.15   35.50
   0  12  -2  445.96   35.50
   0  12  -2  479.45   32.30
   0 -12   2  468.65   37.30
  12 -12  -2  460.15   32.60
 -12   0  -2  503.85   32.00
   1  11  -2  541.45   41.20
  11 -12  -2  602.54   40.80
   1  11  -2  592.34   37.60
  11   1   2  627.64   36.50
 -12   1  -2  614.04   37.20
 -12  11   2  599.64   36.00
   1 -12   2  631.74   36.70
   1 -12   2  572.84   42.60
 -12  11   2  563.84   37.60
  11 -12  -2  572.64   38.20
  12  -1   2  628.24   36.70
 -11  12   2  550.74   37.60
  -1 -11   2  528.65   42.00
  -1  12  -2  618.74   37.50
  -1  12  -2  537.25   40.20
 -11  12   2  590.74   35.90
 -11  -1  -2  608.94   37.10
  12 -11  -2  590.74   40.30
  12 -11  -2  559.94   37.90
  -1 -11   2  595.04   36.80
 -12  10   2   16.80    7.40
  10 -12  -2   28.10    7.90
  10   2   2   25.80    8.90
  10 -12  -2   45.00   15.20
   2 -12   2    1.10   11.90
   2  10  -2    8.80   10.60
 -12   2  -2   15.50   10.40
 -12  10   2   23.60    7.30
   2 -12   2   21.10    8.40
   2  10  -2   23.80   11.00
 -10  -2  -2    6.20    9.70
  12 -10  -2   18.10    7.40
  12  -2   2   25.00    9.50
  12 -10  -2   33.70   14.20
  -2  12  -2   10.40    9.80
  -2 -10   2   14.80   11.10
 -10  12   2   17.60    8.10
  -2 -10   2   15.60    9.20
  -2  12  -2   20.90    9.70
 -10  12   2   14.50    7.60
   3 -12   2  288.47   28.70
 -12   9   2  284.97   23.50
   3   9  -2  297.47   28.60
   3 -12   2  299.47   21.90
   9 -12  -2  271.67   19.70
 -12   9   2  305.47   21.20
   9   3   2  311.77   21.20
   9 -12  -2  289.17   24.00
 -12   3  -2  320.37   23.20
   9 -12  -2  309.67   26.50
  12  -9  -2  352.66   27.10
  12  -3   2  316.17   22.10
  -3  -9   2  306.97   22.10
  -3  12  -2  311.17   23.00
  -3  -9   2  289.97   28.30
  -9  12   2  299.07   20.90
  -9  12   2  300.67   23.10
  -3  12  -2  275.77   25.90
  12  -9  -2  299.57   23.10
  -9  -3  -2  312.37   22.60
   8 -12  -2   17.70   15.00
   8   4   2   29.60    8.30
   8 -12  -2   33.30    6.20
   4 -12   2   18.10    8.40
   4   8  -2   32.30   11.00
   8 -12  -2   22.60    9.10
 -12   8   2   33.90    7.20
   4 -12   2   22.20   10.60
   8   4   2   15.60    7.30
 -12   8   2   27.30    7.20
 -12   4  -2   22.80   10.00
  -4  12  -2   25.00    8.90
  -8  12   2   28.50    7.30
  -8  -4  -2   24.80    9.20
  -4  -8   2   23.40   10.60
  -4  12  -2   38.60    9.70
  -8  12   2   39.80    7.50
  -4  -8   2   41.80    8.90
  12  -8  -2   30.70    7.60
  12  -4   2   51.89   10.00
  12  -8  -2   56.49   14.00
   7   5   2  294.17   22.40
   7   5   2  237.68   20.30
 -12   7   2  304.77   20.30
 -12   5  -2  289.57   22.20
   7 -12  -2  294.67   27.50
   5 -12   2  283.97   28.40
   7   5   2  290.17   20.20
   7 -12  -2  287.67   24.90
 -12   7   2  301.07   22.50
   7 -12  -2  271.27   19.80
   5 -12   2  282.27   21.30
   5   7  -2  300.07   28.20
  -5  12  -2  283.47   21.40
  12  -5   2  308.87   21.40
  -7  -5  -2  280.97   24.50
  -7  12   2  292.27   20.10
  -5  -7   2  295.07   21.50
  -7  12   2  291.97   22.70
  12  -7  -2  287.57   22.50
  -7  -5  -2  315.87   21.80
  -5  12  -2  287.97   25.10
  -5  -7   2  286.17   19.70
  12  -7  -2  335.47   25.70
  -5  -7   2  259.37   26.40
   6 -12   2  444.66   35.10
   6   6   2  375.46   27.90
 -12   6  -2  445.66   27.90
 -12   6   2  433.56   29.70
   6 -12  -2  414.76   31.90
   6   6   2  433.26   27.80
 -12   6   2  446.96   27.90
   6   6   2  427.06   30.00
   6 -12   2  439.86   28.50
   6   6  -2  442.86   34.40
 -12   6  -2  431.06   29.40
   6 -12  -2  403.96   27.60
  12  -6  -2  476.15   31.70
  -6  -6   2  452.45   28.80
  -6  12   2  452.45   28.00
  -6  -6  -2  466.05   28.90
  -6  12  -2  434.86   28.80
  -6  12   2  449.56   29.80
  -6  -6   2  454.15   27.80
  12  -6  -2  441.46   29.90
  -6  12  -2  408.46   31.30
  12  -6   2  473.85   28.80
  -6  -6  -2  437.16   31.90
  12  -6   2  433.66   30.30
 -12   5   2  229.18   17.20
 -12   7  -2  205.18   15.80
   5   7   2  223.88   17.50
   7   5  -2  224.98   20.10
   5   7   2  241.08   21.10
   7 -12   2  213.48   25.90
   7   5  -2  194.78   26.30
   5   7   2  196.48   17.70
   5 -12  -2  206.88   22.50
 -12   7  -2  234.48   17.80
   5 -12  -2  216.48   17.90
 -12   5   2  215.78   19.60
   7 -12   2  231.08   18.50
   7   5  -2  236.48   18.30
  -7  -5   2  234.18   18.60
  -5  12   2  251.57   20.50
  -7  12  -2  235.38   21.50
  -5  -7  -2  231.98   19.20
  -7  12  -2  245.58   18.70
  12  -7   2  240.88   22.10
  12  -7   2  267.77   18.70
  -5  12   2  243.58   17.70
  12  -5  -2  294.67   22.90
  12  -5  -2  258.67   20.60
  -7  -5   2  238.78   17.20
  -5  -7  -2  205.98   23.30
   4 -12  -2  816.72   53.49
   8 -12   2  736.73   50.99
   4   8   2  862.41   49.90
   8 -12   2  856.61   50.19
 -12   8  -2  786.82   51.29
   4   8   2  805.12   49.90
   8   4  -2  872.71   55.89
 -12   4   2  819.52   49.80
   4   8   2  885.61   51.89
 -12   4   2  817.92   51.29
   8   4  -2  851.31   51.89
 -12   8  -2  875.61   50.49
   8 -12   2  841.02   55.29
   4 -12  -2  865.61   50.19
   8   4  -2  769.82   50.19
  12  -4  -2  848.02   51.89
  -4  -8  -2  813.02   53.59
  -8  12  -2  832.12   52.19
  12  -8   2  848.22   50.19
  -8  -4   2  859.91   49.70
  12  -8   2  935.51   53.49
  -8  12  -2  857.71   50.19
  -8  -4   2  875.01   50.39
  -4  -8  -2  858.41   50.49
  12  -4  -2  865.41   51.89
  -4  12   2  885.91   49.90
  -4  12   2  826.82   49.80
  12  -8   2  819.22   49.70
  -4  12   2  864.41   51.69
   3   9   2  798.52   48.00
 -12   9  -2  713.63   44.90
 -12   9  -2  786.42   46.60
   9   3  -2  719.03   46.10
   9 -12   2  766.32   45.80
   9   3  -2  741.93   51.59
 -12   3   2  786.22   45.50
   3   9   2  731.53   45.60
   3 -12  -2  739.23   49.70
   3   9   2  750.92   45.50
   9   3  -2  765.62   47.90
   3 -12  -2  809.02   46.20
   9 -12   2  720.83   45.30
   9 -12   2  786.02   51.19
 -12   3   2  698.13   46.90
  -3  -9  -2  779.32   46.20
  12  -9   2  770.72   45.90
  -3  12   2  784.32   45.70
  12  -3  -2  751.42   47.70
  -3  12   2  782.12   47.60
  -3  -9  -2  750.72   49.90
  -9  -3   2  801.02   45.60
  -3  12   2  769.22   45.60
  -9  12  -2  777.02   45.70
  12  -9   2  791.12   45.70
  -9  -3   2  790.22   46.30
  -9  12  -2  767.22   47.50
  12  -3  -2  755.32   47.60
  12  -9   2  804.02   49.70
 -12   2   2  320.67   22.00
   2 -12  -2  308.07   29.00
  10 -12   2  314.27   29.40
   2 -12  -2  346.37   23.20
 -12  10  -2  351.06   23.60
   2  10   2  334.77   22.50
  10 -12   2  332.67   22.70
  10   2  -2  328.77   23.70
   2  10   2  322.97   22.00
  10   2  -2  302.47   25.00
  10   2  -2  298.27   30.80
   2  10   2  332.97   25.30
  10 -12   2  325.97   22.20
 -12  10  -2  322.07   21.20
 -10  12  -2  333.87   22.30
  12 -10   2  319.37   22.30
  12 -10   2  309.57   22.60
 -10  12  -2  322.57   24.20
 -10  -2   2  320.17   22.00
  12 -10   2  293.17   28.20
  -2  12   2  308.77   22.40
 -10  -2   2  312.87   23.00
  -2  12   2  287.57   21.90
  -2 -10  -2  310.27   29.30
  -2 -10  -2  328.87   23.20
  12  -2  -2  349.67   25.30
  -2  12   2  296.77   24.40
  12  -2  -2  298.97   25.00
 -12   1   2  480.05   30.70
 -12   1   2  441.16   31.00
  11   1  -2  485.05   33.60
   1  11   2  529.65   31.70
   1 -12  -2  456.15   37.50
 -12  11  -2  483.35   30.50
   1  11   2  506.95   33.70
 -12  11  -2  507.85   33.00
  11 -12   2  542.35   38.10
   1 -12  -2  522.95   31.90
  11 -12   2  458.95   31.00
  11   1  -2  492.85   38.90
  11   1  -2  491.55   32.50
   1  11   2  500.45   30.90
  11 -12   2  503.15   31.20
  12  -1  -2  486.65   32.80
  12  -1  -2  509.55   37.80
 -11  -1   2  482.75   31.60
 -11  12  -2  506.05   30.90
  -1 -11  -2  503.65   31.80
  -1  12   2  498.85   30.90
  -1 -11  -2  452.35   37.20
 -11  -1   2  510.45   30.80
  12  -1  -2  479.35   33.80
  12 -11   2  476.75   37.10
  -1  12   2  479.45   31.30
  12 -11   2  495.75   31.40
  12 -11   2  484.35   31.30
 -11  12  -2  512.35   33.00
  -1  12   2  498.95   33.60
 -12   0   2   13.90    8.10
   0  12   2   24.00    8.20
  12   0  -2    7.50    7.30
  12 -12   2   10.60   10.80
   0  12   2   10.10    8.90
  12   0  -2    5.70   12.50
  12 -12   2   27.40    8.90
  12 -12   2    3.70    7.90
 -12  12  -2   24.10    7.30
   0  12   2   27.00    9.10
 -12   0   2    9.20    8.80
   0 -12  -2   16.90   11.40
   0 -12  -2   19.90    8.70
 -13  13   2  532.15   36.80
  13   0   2  605.44   35.90
   0  13  -2  597.54   36.70
 -13  13   2  569.44   34.80
   0 -13   2  483.45   41.60
 -13   0  -2  575.64   36.50
  13 -13  -2  580.94   40.20
  13 -13  -2  536.55   37.50
   0 -13   2  587.44   36.20
   0  13  -2  548.15   39.80
  12 -13  -2   38.10    9.10
   1  12  -2   39.00   11.60
 -13  12   2   34.90    8.30
   1 -13   2   35.00   12.80
 -13  12   2   49.99    9.30
   1  12  -2   33.10   11.40
  12 -13  -2   60.09   16.60
   1 -13   2   53.69   10.20
 -13   1  -2   44.20   10.60
  12   1   2   64.69   11.20
  -1  13  -2   37.90   11.00
 -12  13   2   37.30    8.50
 -12  13   2   59.49   12.70
  -1 -12   2   40.30   13.70
 -12  -1  -2   36.50   10.40
  -1  13  -2   28.70   11.30
  -1 -12   2   51.99   10.50
  13 -12  -2   69.99   15.70
  13 -12  -2   57.09   16.70
  13  -1   2   56.19   10.60
   2  11  -2  293.87   29.20
   2 -13   2  284.87   31.60
  11 -13  -2  306.17   25.20
   2 -13   2  312.97   22.80
 -13  11   2  319.37   21.90
  11 -13  -2  311.67   28.90
  11   2   2  325.27   22.40
 -13  11   2  286.87   23.80
 -13   2  -2  324.57   23.60
   2  11  -2  298.47   24.70
  -2 -11   2  290.77   23.00
  13 -11  -2  334.87   27.80
  -2 -11   2  270.57   29.80
 -11  13   2  286.17   23.80
  -2  13  -2  280.17   27.30
  13  -2   2  325.87   23.30
  13 -11  -2  292.57   23.90
  -2  13  -2  298.27   23.70
 -11  -2  -2  328.07   23.40
 -11  13   2  291.17   21.70
  10 -13  -2  155.98   14.40
 -13  10   2  192.68   16.30
  10 -13  -2  202.38   23.20
   3 -13   2  192.88   17.70
   3  10  -2  160.08   20.00
 -13   3  -2  186.28   19.40
 -13  10   2  175.98   18.70
  10   3   2  191.58   16.60
   3 -13   2  166.98   25.80
   3  10  -2  147.89   24.70
  10 -13  -2  191.28   19.90
  13  -3   2  198.38   17.70
 -10  13   2  184.88   18.30
  13 -10  -2  209.18   23.10
  13 -10  -2  178.18   18.60
  -3 -10   2  198.68   17.90
  -3 -10   2  187.78   24.80
  -3  13  -2  210.38   19.40
 -10  13   2  188.38   16.20
  -3  13  -2  147.19   21.50
 -10  -3  -2  178.28   18.00
 -13   4  -2   84.59   16.10
   4 -13   2   89.79   14.40
   4 -13   2   79.29   22.70
   9   4   2   93.39   13.30
   9 -13  -2   71.59   18.00
   4   9  -2   68.39   14.10
 -13   9   2  110.49   15.10
   9   4   2   94.09   13.10
 -13   9   2  106.89   12.80
   9 -13  -2   82.09   14.70
   9 -13  -2  114.19   21.30
  -4  13  -2  100.59   15.30
  -4  -9   2  129.59   15.50
  13  -9  -2  105.59   15.60
  -4  13  -2   84.09   18.50
  -9  13   2   84.89   12.90
  -9  13   2   80.99   15.60
  -9  -4  -2  101.29   14.90
  13  -9  -2  126.89   20.20
  13  -4   2  104.59   14.90
  -4  -9   2   94.79   21.50
   5 -13   2   29.90   11.20
 -13   8   2   54.59   11.50
   5 -13   2   52.79    9.90
   8   5   2   36.90    8.40
   5   8  -2   36.00   11.70
   8 -13  -2   62.09   10.50
 -13   5  -2   54.89   11.00
   8   5   2   48.40    9.20
   8   5   2   23.80    8.90
   8 -13  -2   62.59   17.00
 -13   8   2   53.59   14.00
   8 -13  -2   35.40    9.50
  -5  -8   2   46.00    7.90
  -5  13  -2   29.70    9.80
  -8  13   2   65.89   12.00
  -8  13   2   55.09   13.80
  13  -5   2   60.69   10.10
  -8  -5  -2   55.69    9.60
  -5  -8   2   43.70   11.30
  -5  13  -2   71.69   13.80
  -5  -8   2   62.59    9.70
  13  -8  -2   63.09   14.20
   7 -13  -2   76.39   19.00
 -13   7   2   88.29   12.30
   7 -13  -2   97.49   19.00
   7 -13  -2   75.29   12.40
   6 -13   2   69.39   13.70
 -13   6  -2   87.59   15.50
   6 -13   2   77.49   22.90
 -13   6  -2   89.69   12.50
   7   6   2   73.39   12.10
   6   7  -2   78.79   22.00
   7   6   2   66.49   16.50
 -13   7   2   89.39   14.50
  -6  -7   2   79.79   14.30
  -7  13   2   86.09   12.40
  13  -6   2   66.69   10.90
  13  -7  -2  142.39   19.50
  -7  13   2   79.69   15.20
  -6  13  -2  107.69   14.60
  13  -6   2  101.39   14.40
  13  -7  -2  100.49   15.10
  -6  -7   2  105.29   11.70
  -7  -6  -2   96.69   19.10
  -7  -6  -2   98.39   14.80
   6   7   2  655.83   43.50
   6   7   2  735.43   43.40
   7 -13   2  759.62   44.00
 -13   7  -2  724.43   43.80
   7 -13   2  686.33   49.10
 -13   7  -2  640.84   42.40
   7   6  -2  714.73   48.90
 -13   7  -2  747.53   44.70
   6 -13  -2  657.53   46.70
   6   7   2  718.13   45.70
   6 -13  -2  718.73   43.50
 -13   6   2  702.93   44.90
   7   6  -2  754.82   45.90
 -13   6   2  776.32   43.50
  13  -6  -2  758.12   45.90
  -6  -7  -2  704.33   47.40
  -6  -7  -2  740.63   44.30
  -6  13   2  704.33   45.20
  13  -6  -2  713.83   45.20
  13  -7   2  749.73   44.00
  13  -7   2  744.33   46.20
  -7  -6   2  743.83   43.30
  -7  13  -2  737.83   44.10
  -7  -6   2  750.42   44.20
  -6  13   2  713.93   43.40
  -7  13  -2  676.73   46.10
   8 -13   2  551.74   33.30
   8 -13   2  474.25   32.00
   5   8   2  541.05   36.10
   5   8   2  495.45   33.20
   8   5  -2  501.05   39.80
   5   8   2  504.55   32.60
   5 -13  -2  538.35   33.30
 -13   5   2  519.15   34.50
   8   5  -2  565.14   35.40
 -13   8  -2  538.95   33.40
   8   5  -2  515.65   32.80
 -13   5   2  548.35   32.80
   5 -13  -2  497.15   37.50
   8 -13   2  510.25   39.70
 -13   8  -2  457.35   31.90
  -8  13  -2  539.15   33.40
  -5  13   2  524.95   32.80
  -8  13  -2  474.65   35.60
  -8  -5   2  545.15   33.50
  -5  13   2  501.75   34.70
  13  -5  -2  528.25   35.10
  13  -5  -2  549.25   35.70
  -8  -5   2  558.94   32.60
  13  -8   2  563.64   33.40
  -5  -8  -2  493.75   37.90
  -5  -8  -2  528.75   33.70
  13  -8   2  545.95   37.10
   4 -13  -2   81.59   13.40
   9 -13   2  100.79   13.30
   9   4  -2   61.69   14.30
   9   4  -2   87.09   13.80
 -13   9  -2   93.69   11.00
   4   9   2   77.59   11.90
   4   9   2   88.09   17.00
   9 -13   2   69.89   13.40
   4 -13  -2   71.59   20.10
   9 -13   2   84.99   11.80
 -13   9  -2   95.59   14.00
 -13   4   2   72.39   12.20
   4   9   2   64.09   10.70
 -13   4   2   86.09   14.70
   9   4  -2   78.99   16.20
  -9  -4   2   79.29   12.10
  -4  -9  -2   81.59   14.20
  13  -9   2   69.29   13.20
  -4  13   2   83.79   15.30
  13  -9   2  113.99   14.00
  13  -4  -2   82.09   15.90
  -4  13   2   73.49   12.50
  13  -9   2   65.89   11.90
  -9  13  -2   91.89   15.50
  -9  13  -2  114.69   13.30
  -4  13   2   66.09   10.10
  -4  -9  -2   69.39   20.20
  -9  -4   2   85.89   14.70
  13  -4  -2  129.99   18.60
 -13  10  -2  330.97   22.50
  10 -13   2  334.87   23.60
   3  10   2  352.26   27.10
   3 -13  -2  315.47   30.50
  10   3  -2  334.97   26.20
  10 -13   2  329.87   23.20
   3 -13  -2  355.66   24.20
 -13   3   2  322.37   23.10
  10   3  -2  341.47   31.80
  10   3  -2  340.37   24.50
 -13  10  -2  363.66   25.00
   3  10   2  340.67   23.00
   3  10   2  326.37   23.50
 -13   3   2  317.77   25.40
  10 -13   2  319.07   31.60
  -3  13   2  320.47   25.60
  13 -10   2  326.07   24.00
  13  -3  -2  348.37   26.40
  13  -3  -2  351.06   25.90
  13 -10   2  349.57   30.20
 -10  -3   2  350.36   23.20
 -10  13  -2  342.77   25.90
  13 -10   2  352.06   23.40
 -10  13  -2  343.07   23.50
  -3 -10  -2  352.76   24.70
  -3  13   2  338.67   23.30
  -3 -10  -2  345.77   30.70
  -3  13   2  347.47   23.70
 -10  -3   2  359.66   24.70
   2 -13  -2  274.77   30.00
 -13   2   2  320.87   22.70
  11   2  -2  331.07   24.40
  11   2  -2  327.37   25.90
  11   2  -2  322.17   31.70
   2 -13  -2  341.27   24.20
   2  11   2  346.57   23.50
   2  11   2  337.07   26.60
 -13  11  -2  329.67   22.20
 -13  11  -2  363.06   25.20
   2  11   2  308.67   22.60
  11 -13   2  338.67   23.30
  11 -13   2  299.27   30.80
  11 -13   2  291.47   23.00
  -2 -11  -2  347.67   24.30
  -2  13   2  331.77   23.40
 -11  -2   2  323.77   22.60
  13  -2  -2  349.77   25.50
  13 -11   2  315.97   30.10
 -11  -2   2  327.57   23.90
 -11  13  -2  352.46   25.40
  -2 -11  -2  334.87   30.70
  13 -11   2  336.27   23.60
  13 -11   2  328.57   22.90
  -2  13   2  326.87   25.30
 -11  13  -2  348.47   22.70
  -2  13   2  301.97   22.60
  13  -2  -2  296.77   25.70
   1 -13  -2  263.27   20.90
 -13  12  -2  262.87   18.60
   1  12   2  265.97   20.40
   1  12   2  233.08   18.80
  12 -13   2  242.78   19.70
 -13   1   2  238.48   19.00
 -13   1   2  205.98   19.60
   1  12   2  242.58   22.60
  12 -13   2  217.68   19.50
  12   1  -2  257.27   28.60
  12 -13   2  247.38   28.30
   1 -13  -2  250.27   28.30
  12   1  -2  249.97   21.30
  12   1  -2  257.47   23.30
 -13  12  -2  265.87   21.20
  13 -12   2  226.68   19.70
  -1 -12  -2  236.08   28.70
 -12  -1   2  252.87   19.00
  13  -1  -2  230.58   22.50
 -12  13  -2  273.07   21.60
  -1  13   2  230.98   19.20
  13  -1  -2  256.77   28.30
  13 -12   2  227.28   20.00
  -1  13   2  243.08   22.40
  -1  13   2  241.28   19.90
 -12  13  -2  259.07   19.10
 -12  -1   2  222.08   20.40
  -1 -12  -2  255.77   20.70
  13 -12   2  210.78   28.00
  13  -1  -2  252.87   22.10
   0  13   2   92.19   15.00
  13   0  -2   96.29   16.60
   0 -13  -2   70.89   11.90
 -13   0   2   68.99   11.60
  13 -13   2   58.49   13.80
 -13  13  -2  108.89   12.90
 -13  13  -2   98.19   16.20
   0  13   2   85.39   13.20
   0 -13  -2   52.59   14.60
  13   0  -2   82.69   16.80
  13 -13   2   79.99   14.20
   0  13   2   95.39   17.40
  13 -13   2   68.29   14.80
 -13   0   2   84.79   13.40
  13   0  -2  109.59   25.70
  14 -14  -2   17.50   15.50
  14 -14  -2   37.10   16.90
 -14   0  -2    7.00   11.10
 -14  14   2   12.30   12.40
  14   0   2   21.30   11.70
   0 -14   2   29.50   11.60
 -14  14   2   18.20    9.60
   0  14  -2   21.40   12.80
 -14  13   2  362.86   24.90
   1 -14   2  318.47   33.50
 -14   1  -2  347.17   26.80
   1  13  -2  393.16   27.40
   1 -14   2  420.26   26.00
  13   1   2  379.36   25.80
  13 -14  -2  386.56   31.50
  13 -14  -2  305.27   27.90
 -14  13   2  334.97   26.60
   1  13  -2  287.77   30.30
 -13  14   2  371.86   24.80
  -1 -13   2  372.06   26.10
 -13  -1  -2  374.96   26.50
  14 -13  -2  308.07   27.10
  14 -13  -2  390.36   30.60
  -1  14  -2  363.26   26.90
 -13  14   2  314.47   26.60
  14  -1   2  378.46   25.90
  -1  14  -2  292.97   30.00
 -14   2  -2  382.46   27.30
   2 -14   2  407.96   26.50
 -14  12   2  389.86   25.60
 -14  12   2  350.86   27.80
   2  12  -2  347.77   32.20
   2  12  -2  365.86   28.10
   2 -14   2  331.37   35.20
  12   2   2  386.46   26.20
  12 -14  -2  334.27   28.60
  12 -14  -2  382.36   31.80
  -2  14  -2  425.06   28.00
  14 -12  -2  373.06   28.00
  -2 -12   2  290.37   33.30
 -12  -2  -2  376.26   27.00
  -2  14  -2  332.07   30.30
 -12  14   2  365.06   25.40
  -2 -12   2  381.66   27.00
  14  -2   2  413.36   27.00
  14 -12  -2  415.06   30.70
 -12  14   2  337.57   27.50
  11 -14  -2   81.49   11.20
 -14  11   2   36.90    8.50
   3  11  -2   45.60   12.40
  11   3   2   59.89   10.70
 -14   3  -2   57.29   12.20
 -14  11   2   51.49    9.80
  11 -14  -2   64.19   17.90
   3 -14   2   21.60   12.80
   3  11  -2   42.00   12.50
   3 -14   2   61.79   10.60
  -3 -11   2   43.70   13.20
  -3  14  -2   91.79   16.40
  14 -11  -2   62.09   15.60
 -11  -3  -2   46.40   10.70
  14 -11  -2   68.19   15.40
  -3  14  -2   24.70   10.50
 -11  14   2   37.30    8.10
 -11  14   2   67.49   13.10
  14  -3   2   61.39   12.10
  -3 -11   2   57.09   11.00
   4  10  -2   81.79   13.40
  10 -14  -2  104.29   22.50
 -14  10   2   88.09   15.80
 -14   4  -2   98.59   17.30
   4 -14   2   98.59   23.50
  10 -14  -2   62.89   12.00
  10   4   2   97.99   14.40
 -14  10   2  102.39   13.40
  10   4   2   87.69   14.20
   4  10  -2   58.09   14.50
  10 -14  -2  100.89   12.90
   4 -14   2  102.39   15.90
  14  -4   2   93.59   15.30
  -4 -10   2  110.99   16.10
  -4  14  -2   93.59   15.70
 -10  14   2   77.79   15.90
 -10  14   2   81.89   13.70
  14 -10  -2  138.29   21.20
 -10  -4  -2   69.59   11.40
  14 -10  -2   93.19   15.50
  -4 -10   2  109.89   22.60
   9 -14  -2  171.68   23.20
   9   5   2  140.49   15.10
   9   5   2  111.19   14.00
 -14   5  -2  164.08   18.40
   5 -14   2  143.59   16.70
   5   9  -2  158.38   24.80
 -14   9   2  142.89   14.90
   9 -14  -2  109.49   13.90
 -14   9   2  141.99   17.50
   5 -14   2  166.28   24.80
   9 -14  -2  130.69   21.10
  14  -9  -2  202.88   21.90
  -9  -5  -2  159.28   16.80
  -9  14   2  150.98   15.10
  14  -5   2  145.99   16.90
  -5  -9   2  182.98   17.60
  -5  14  -2  181.18   17.30
  -9  14   2  135.99   17.40
  -5  -9   2  158.08   22.60
  -5  14  -2  120.29   19.40
  14  -9  -2  145.79   17.00
   6 -14   2  183.58   27.30
   8 -14  -2  170.68   23.30
   8 -14  -2  211.98   26.30
   6   8  -2  206.98   26.30
 -14   6  -2  210.88   17.40
   8   6   2  198.28   17.10
   6 -14   2  208.18   18.30
 -14   8   2  226.68   17.20
   8 -14  -2  231.98   17.10
 -14   6  -2  230.58   20.70
 -14   8   2  199.68   19.60
  -6  -8   2  217.98   19.20
  -8  -6  -2  221.48   19.10
  -6  14  -2  153.58   21.70
  -6  -8   2  219.88   16.70
  -6  14  -2  217.68   19.20
  14  -8  -2  259.57   22.90
  -8  14   2  208.88   20.60
  -8  -6  -2  222.68   23.30
  -8  14   2  196.48   17.30
  14  -6   2  214.38   19.00
  14  -8  -2  206.88   19.60
   7 -14  -2  392.16   32.00
   7 -14   2  432.56   28.20
   7   7   2  412.26   31.30
   7   7  -2  393.26   34.70
   7 -14  -2  402.76   28.00
   7 -14  -2  429.26   34.50
   7 -14   2  382.56   35.30
   7   7   2  423.76   27.40
 -14   7  -2  420.76   29.40
   7   7   2  374.66   28.30
 -14   7   2  400.46   29.20
 -14   7  -2  434.86   27.90
 -14   7   2  455.45   27.60
  -7  14  -2  384.86   30.90
  14  -7  -2  416.96   29.40
  14  -7   2  415.46   31.60
  14  -7  -2  439.26   31.10
  -7  -7   2  437.26   26.90
  -7  -7  -2  422.96   28.60
  14  -7   2  440.76   28.40
  -7  -7   2  466.45   28.90
  -7  -7  -2  390.66   32.80
  -7  14   2  418.86   29.30
  -7  14   2  427.96   27.50
  -7  14  -2  430.36   28.40
 -14   8  -2   26.00    6.70
 -14   8  -2   21.00    6.60
   8 -14   2    9.20   11.10
   8   6  -2   37.10    9.20
   8   6  -2    9.20    7.80
 -14   6   2   32.20    8.20
   6   8   2    8.20    9.10
   8   6  -2   10.20   11.50
 -14   6   2    9.70    6.80
   6 -14  -2   20.10    8.90
 -14   8  -2   20.50   10.20
   6   8   2    4.10    9.70
   8 -14   2   31.70   10.00
  -6  14   2   24.10    8.60
  -8  14  -2   30.20    9.00
  14  -6  -2   21.90    7.90
  -6  14   2   11.40    7.70
  14  -8   2   33.60   10.40
  -6  -8  -2   14.60   11.20
  -8  -6   2   32.90    9.40
  -8  -6   2   20.30    7.90
  -6  -8  -2   28.60   10.30
  14  -8   2   13.10   10.10
  -8  14  -2    4.90    8.70
  14  -6  -2   48.50   14.50
   5   9   2  752.92   47.50
   9   5  -2  769.42   47.40
   5 -14  -2  846.02   48.00
   9   5  -2  804.92   49.40
   5 -14  -2  747.63   51.59
 -14   5   2  751.12   48.80
 -14   9  -2  770.02   46.50
   9 -14   2  823.32   53.79
 -14   5   2  799.12   47.20
   5   9   2  778.12   47.10
   9   5  -2  763.42   53.29
   9 -14   2  836.02   47.60
   5   9   2  748.43   54.99
 -14   9  -2  794.32   48.10
   9 -14   2  743.93   46.70
  14  -9   2  822.42   51.49
  -5  14   2  734.23   48.90
  -5  -9  -2  814.12   47.90
  14  -9   2  800.52   47.70
  -9  -5   2  805.32   47.00
  -9  14  -2  752.22   49.10
  -9  -5   2  843.32   48.10
  14  -5  -2  843.72   49.30
  14  -5  -2  788.52   49.30
  -5  14   2  754.42   47.10
  -9  14  -2  832.62   47.50
  -5  -9  -2  708.53   60.09
 -14   4   2  374.06   24.30
  10 -14   2  359.96   24.70
   4 -14  -2  326.57   32.10
   4 -14  -2  377.56   25.60
  10   4  -2  354.96   27.30
 -14  10  -2  370.36   26.30
   4  10   2  343.27   25.30
   4  10   2  334.97   24.20
 -14   4   2  338.67   26.00
  10   4  -2  347.17   24.90
  10   4  -2  362.36   34.20
  10 -14   2  331.47   24.20
  10 -14   2  339.07   33.50
   4  10   2  357.16   28.30
 -14  10  -2  353.06   23.50
 -10  -4   2  367.66   24.10
  14  -4  -2  355.56   26.90
  -4  14   2  364.66   24.80
  -4 -10  -2  369.76   25.90
  14 -10   2  353.16   31.90
 -10  14  -2  370.36   27.20
  -4  14   2  343.77   27.00
  14 -10   2  363.46   25.40
 -10  -4   2  377.46   26.20
  14  -4  -2  387.86   27.60
  -4 -10  -2  321.87   31.40
 -10  14  -2  366.46   24.50
  11 -14   2   78.89   13.70
  11   3  -2   37.20    9.20
  11   3  -2   87.99   15.10
 -14   3   2   67.09   12.70
   3  11   2   41.10   10.60
  11   3  -2   35.30   13.50
 -14  11  -2   89.29   15.20
   3  11   2   63.19   13.60
 -14   3   2   54.89   11.40
   3  11   2   56.89   12.00
 -14  11  -2   76.39   12.50
  11 -14   2   63.19   13.60
   3 -14  -2   51.29   10.30
 -11  -3   2   64.69   12.40
 -11  14  -2   61.79   12.90
  14  -3  -2   97.39   17.30
  -3 -11  -2   27.80   13.40
  -3  14   2   44.20   10.80
  14 -11   2   61.99   11.20
  -3  14   2   58.49   10.40
  14 -11   2   31.50   12.30
 -11  -3   2   56.09   11.20
  -3  14   2   34.80    9.40
  14  -3  -2   67.19   15.90
  -3 -11  -2   71.99   11.80
 -11  14  -2   86.19   15.50
  14 -11   2   62.39   10.20
 -14  12  -2  244.08   18.10
  12 -14   2  235.98   28.40
   2 -14  -2  216.48   19.90
   2 -14  -2  204.68   28.00
  12   2  -2  217.88   28.90
   2  12   2  223.38   19.40
  12 -14   2  180.58   18.80
   2  12   2  229.88   22.90
 -14   2   2  208.78   18.10
 -14   2   2  181.08   18.80
   2  12   2  202.78   17.90
  12 -14   2  222.78   18.70
 -14  12  -2  234.38   20.80
  12   2  -2  248.88   20.60
  12   2  -2  181.78   21.40
  14 -12   2  227.48   18.60
 -12  14  -2  249.28   20.80
 -12  -2   2  234.58   18.30
  -2  14   2  216.48   21.00
  14  -2  -2  205.58   21.60
 -12  14  -2  246.08   18.40
  -2 -12  -2  217.78   27.70
  14  -2  -2  230.38   21.30
  -2  14   2  197.28   19.40
  14 -12   2  223.98   27.50
  -2  14   2  206.58   18.00
  14  -2  -2  236.08   27.20
  14 -12   2  216.08   20.00
 -12  -2   2  233.28   20.30
  -2 -12  -2  217.08   19.90
 -14   1   2   70.09   13.60
  13 -14   2   68.09   11.80
  13 -14   2   57.59   10.70
   1 -14  -2   78.79   16.10
  13 -14   2  110.39   25.50
   1  13   2   74.29   13.60
   1  13   2   93.19   18.20
  13   1  -2   89.49   17.40
  13   1  -2  104.19   16.70
  13   1  -2   49.99   15.50
   1  13   2  103.19   16.20
 -14  13  -2  113.59   16.80
 -14  13  -2   97.49   13.40
 -14   1   2   69.09   11.60
  14  -1  -2   74.79   17.70
  14 -13   2   86.99   15.70
  -1  14   2   87.29   15.20
  -1 -13  -2   90.49   16.40
  -1  14   2   65.39   11.70
  14  -1  -2  118.39   17.20
 -13  -1   2   70.99   14.10
 -13  -1   2   83.39   16.60
  -1 -13  -2   51.89   14.30
 -13  14  -2  112.99   16.10
  14 -13   2   74.99   14.80
  14  -1  -2   52.09   14.90
  -1  14   2   92.09   17.60
 -13  14  -2   95.69   13.30
   0 -14  -2   47.10   12.50
 -14   0   2   40.70   11.90
   0  14   2   47.70   11.80
 -14  14  -2   55.39   10.00
  14   0  -2   45.90   14.50
  14 -14   2   58.39   12.10
 -14   0   2   49.10   10.50
   0  14   2   67.99   17.40
  14 -14   2   61.49   10.90
   0  14   2   56.89   11.70
 -14  14  -2   65.19   15.60
  14 -14   2   35.90   13.90
  14   0  -2   63.69   13.00
 -15   0  -2  265.67   22.80
  15 -15  -2  267.27   27.40
   0  15  -2  230.48   23.20
 -15  15   2  229.38   20.40
   0 -15   2  228.58   22.50
 -15  14   2  109.59   16.90
  14 -15  -2  157.98   23.20
  14   1   2  132.99   17.40
 -15   1  -2  113.99   18.60
 -14  -1  -2  105.69   17.90
  15  -1   2  116.79   17.50
  15 -14  -2  137.39   23.70
 -14  15   2  103.09   19.60
  13 -15  -2   12.10   18.00
 -15   2  -2    7.60   12.40
 -15  13   2    6.00    9.70
   2  13  -2   10.50   13.70
 -15  13   2   -4.20   10.90
  13   2   2   14.90   10.90
   2 -15   2   17.30   10.10
  15 -13  -2   23.90   14.10
  15 -13  -2   47.10   16.50
 -13  -2  -2   10.50   10.40
  15  -2   2   10.90   11.60
  -2  15  -2   36.10   12.60
  -2 -13   2    9.30   11.30
 -13  15   2   12.90    9.00
 -15   3  -2  238.78   21.90
 -15  12   2  200.58   21.60
   3 -15   2  255.67   20.70
 -15  12   2  250.87   19.30
  12 -15  -2  239.38   27.70
  12   3   2  247.78   20.20
   3  12  -2  245.28   22.60
   3  12  -2  203.18   26.70
  15 -12  -2  271.77   24.90
  -3 -12   2  200.68   27.90
 -12  -3  -2  215.28   20.70
 -12  15   2  205.58   20.90
  -3 -12   2  210.28   21.00
  15  -3   2  233.48   20.70
  -3  15  -2  163.08   23.90
  15 -12  -2  204.48   21.70
  -3  15  -2  243.58   21.50
 -12  15   2  230.08   19.10
  11 -15  -2  230.98   27.70
 -15   4  -2  215.48   21.60
  11   4   2  221.08   19.50
  11 -15  -2  219.08   18.10
  11 -15  -2  178.18   24.30
   4 -15   2  252.67   20.70
 -15  11   2  230.98   18.70
   4 -15   2  207.48   28.40
   4  11  -2  207.58   22.80
   4  11  -2  204.68   27.90
  11   4   2  236.08   19.80
 -15  11   2  223.58   20.90
  15 -11  -2  212.48   21.30
 -11  15   2  207.08   18.50
 -11  -4  -2  211.48   20.50
  -4 -11   2  213.88   27.60
  15 -11  -2  274.37   24.80
 -11  15   2  207.48   20.60
  -4  15  -2  248.58   20.70
  -4 -11   2  262.27   20.90
  15  -4   2  238.28   20.40
  -4  15  -2  165.08   23.90
  10   5   2  120.99   15.40
  10 -15  -2  123.39   14.50
  10 -15  -2   73.59   20.80
 -15   5  -2  134.19   18.60
   5 -15   2  111.99   24.70
  10   5   2  116.29   16.80
   5 -15   2  121.19   16.70
 -15  10   2  130.39   15.10
 -15  10   2  136.49   17.00
  10 -15  -2  110.79   24.10
  15 -10  -2  134.79   17.70
  15 -10  -2  182.78   21.80
 -10  15   2  100.19   17.70
 -10  15   2  130.89   15.00
  15  -5   2  111.49   16.80
 -10  -5  -2  136.89   17.00
  -5  15  -2  140.99   17.40
  -5 -10   2  161.48   18.60
  -5 -10   2   97.69   22.80
   6 -15   2   23.80    9.50
 -15   9   2   10.00    7.40
   9 -15  -2   52.99   17.90
   6   9  -2   23.50   12.90
   6 -15   2   23.10   12.70
   9   6   2   29.50   10.00
 -15   9   2   30.90    8.50
   9   6   2   -7.90   10.50
   9 -15  -2    6.30    9.00
 -15   6  -2   21.00   11.50
  -9  15   2   28.60    9.20
  15  -9  -2   20.50    7.30
  -9  -6  -2   31.30   10.20
  -9  15   2   12.20    7.50
  -6  -9   2   23.90   11.30
  15  -6   2   10.70   10.50
  -6  15  -2   40.30   10.20
  15  -9  -2   31.20   14.10
   7 -15   2   12.40    9.70
 -15   7  -2    5.00    6.50
   8 -15  -2   27.40    8.90
   8 -15  -2    3.10    9.70
   8   7   2    2.50    9.60
 -15   7  -2    8.30   11.90
   8 -15  -2    4.20   18.50
 -15   8   2    8.10    7.20
   8   7   2   -1.80    9.50
   7 -15   2   -2.70   12.70
 -15   8   2   17.90    8.20
   7   8  -2    6.30   11.70
  -7  15  -2    2.30    8.80
  -7  15  -2    4.60    9.50
  -8  15   2    9.20    7.40
  15  -7   2    3.80    9.90
  15  -8  -2   29.40   15.30
  -7  -8   2   10.70    7.90
  15  -8  -2    8.40    7.60
  -7  -8   2   10.70   10.80
  15  -7   2  -12.00    9.50
  -8  15   2    1.10    8.90
  -8  -7  -2   11.20   11.40
  -8  -7  -2   10.30   10.50
   7   8   2  359.96   31.90
   7   8   2  423.56   27.60
   8 -15   2  426.16   35.80
 -15   8  -2  439.56   28.90
   8   7  -2  413.26   35.90
 -15   7   2  442.86   27.60
   7 -15  -2  419.16   28.50
   7 -15  -2  367.56   33.40
 -15   7   2  418.16   29.30
   7 -15  -2  393.46   35.30
   8 -15   2  439.36   28.50
   7   8   2  365.56   28.70
 -15   8  -2  435.76   30.10
 -15   8  -2  390.06   26.40
   8   7  -2  424.16   30.20
  15  -7  -2  407.06   29.50
  15  -8   2  395.66   32.50
  -7  -8  -2  380.46   34.40
  15  -8   2  437.26   28.50
  -7  15   2  394.16   29.60
  -7  -8  -2  442.26   28.70
  -7  15   2  410.76   27.60
  -8  -7   2  429.36   27.00
  -8  -7   2  434.66   29.20
  -8  15  -2  447.46   28.50
  15  -7  -2  466.75   31.60
  -8  15  -2  341.67   31.10
   6   9   2  506.15   35.80
   9   6  -2  540.85   41.60
 -15   6   2  540.35   36.70
 -15   9  -2  551.64   34.10
 -15   6   2  553.64   34.80
 -15   9  -2  563.24   36.90
   9 -15   2  531.45   42.60
   6 -15  -2  586.44   41.80
 -15   9  -2  571.44   36.40
   9 -15   2  576.94   35.50
   6 -15  -2  554.54   35.80
   9   6  -2  589.04   37.90
   6   9   2  555.74   34.90
   9   6  -2  546.55   35.00
   6   9   2  519.25   39.30
   6 -15  -2  528.65   40.30
  15  -9   2  580.04   35.70
  15  -9   2  551.34   40.70
  -9  15  -2  570.44   35.40
  15  -6  -2  593.74   37.70
  -9  -6   2  566.54   34.70
  -6  -9  -2  575.74   35.80
  -9  15  -2  531.35   37.20
  -6  15   2  545.95   35.00
  -6  -9  -2  541.85   41.30
  -6  15   2  536.55   37.00
  15  -6  -2  544.05   36.90
  -9  -6   2  579.34   36.20
 -15   5   2   39.40    9.70
  10 -15   2   41.10    9.60
  10   5  -2   18.90   12.60
  10   5  -2   34.50    9.10
   5  10   2   32.00   10.50
  10 -15   2   34.10   13.20
  10 -15   2   55.79    9.10
   5 -15  -2    5.60   12.20
 -15   5   2   30.00    8.20
  10   5  -2   72.19   14.40
   5  10   2   40.50   10.30
 -15  10  -2   36.10    8.10
   5  10   2   15.20   10.70
 -15  10  -2   59.69   12.20
   5 -15  -2   31.90   11.20
  -5  15   2   26.70    8.40
 -10  15  -2   51.89    9.90
  -5 -10  -2   23.40   10.20
  15  -5  -2   56.19   13.30
 -10  -5   2   41.90   11.80
 -10  15  -2   65.09   16.00
 -10  -5   2   43.30    8.90
  -5  15   2   30.20    9.20
  -5 -10  -2    4.80   14.00
  15  -5  -2   15.30    8.90
  15 -10   2   21.10   12.30
  15 -10   2   46.80   11.30
  11   4  -2  366.66   36.10
  11 -15   2  313.27   35.00
 -15   4   2  381.16   25.60
  11 -15   2  373.46   25.70
 -15  11  -2  373.06   25.00
   4  11   2  375.56   29.90
  11   4  -2  367.76   26.60
   4  11   2  362.86   26.30
   4 -15  -2  396.56   27.10
 -15  11  -2  387.16   27.80
  11   4  -2  362.46   28.50
   4  11   2  358.26   25.20
  11 -15   2  351.16   25.60
   4 -15  -2  287.87   32.60
  15  -4  -2  387.76   27.90
 -11  15  -2  374.36   25.80
 -11  -4   2  414.26   27.70
  15 -11   2  358.76   26.80
  15 -11   2  391.66   34.20
  -4 -11  -2  388.66   27.00
 -11  -4   2  365.36   25.20
  -4  15   2  354.76   28.00
  -4  15   2  361.76   25.90
  15  -4  -2  395.76   28.50
  -4 -11  -2  347.97   33.20
 -11  15  -2  374.06   27.50
   3 -15  -2  271.67   22.10
  12   3  -2  259.97   23.30
 -15   3   2  221.48   20.70
 -15  12  -2  278.27   22.90
 -15  12  -2  263.47   19.80
   3  12   2  231.28   25.10
   3  12   2  241.78   19.90
   3 -15  -2  223.08   29.70
  12 -15   2  218.38   21.20
 -15   3   2  255.37   20.20
  12   3  -2  258.27   21.60
  12 -15   2  199.78   30.00
   3  12   2  238.58   21.00
  12   3  -2  227.58   30.20
  12 -15   2  273.07   21.00
 -12  15  -2  281.57   20.40
 -12  -3   2  289.87   22.70
  -3  15   2  262.27   22.90
 -12  15  -2  283.17   22.60
  -3  15   2  206.58   19.60
  15 -12   2  256.27   22.00
  -3 -12  -2  261.67   21.50
  15 -12   2  220.08   29.70
  -3  15   2  278.77   21.30
  15 -12   2  273.67   20.00
  -3 -12  -2  252.97   29.70
  15  -3  -2  287.07   23.40
  15  -3  -2  231.28   23.50
 -12  -3   2  261.77   19.80
   2  13   2   31.40   10.20
  13   2  -2   58.29   12.50
  13 -15   2   70.59   14.10
  13 -15   2   41.90   11.10
   2  13   2   49.90   11.00
  13   2  -2   42.40   14.20
   2  13   2   47.20   11.60
 -15   2   2   34.10   10.70
  13 -15   2   37.80   13.00
 -15   2   2   51.89   10.50
   2 -15  -2   26.30   13.40
  13   2  -2   27.60   10.10
 -15  13  -2   67.79   13.10
 -15  13  -2   24.70    9.30
   2 -15  -2   36.40   11.10
  -2 -13  -2   18.40   14.30
 -13  15  -2   47.40    9.80
  15  -2  -2   54.29   13.10
  15 -13   2   44.50    9.80
  -2 -13  -2   56.39   10.90
  -2  15   2   39.60   11.00
 -13  -2   2   45.70   10.50
  15 -13   2   35.50   11.90
 -13  -2   2   39.30   11.60
 -13  15  -2   33.60    8.40
  15 -13   2    4.50   13.50
  -2  15   2   27.00   11.30
  15  -2  -2   32.70    9.10
  -2  15   2   37.20    9.10
  15  -2  -2   39.60   14.20
 -15   1   2    1.70   11.00
   1 -15  -2    9.50   11.80
 -15  14  -2   12.50    8.40
  14   1  -2   40.80   12.50
  14   1  -2   -7.90   14.30
   1  14   2   27.70   11.60
 -15   1   2   14.10    9.20
   1 -15  -2   -9.90   14.00
  14 -15   2    0.40   11.30
  14 -15   2   23.70   13.40
 -15  14  -2   29.70   10.40
  14 -15   2   14.20    9.40
   1  14   2   26.00    9.00
   1  14   2    5.10   10.80
 -14  -1   2   -7.00   11.90
  -1  15   2   19.60   11.20
  15 -14   2    0.40   12.90
  15  -1  -2   19.60   14.70
  15 -14   2    7.60   11.60
  -1 -14  -2   12.60   12.20
  15 -14   2   30.10   11.10
  15  -1  -2    4.90    9.40
  -1  15   2   10.30   10.20
 -14  -1   2   21.10    9.20
  -1 -14  -2   10.00   14.40
  -1  15   2   -0.30   11.10
  15  -1  -2   27.60   12.50
 -14  15  -2    4.10    8.80
   0 -15  -2   95.89   17.80
  15   0  -2  117.89   18.00
 -15  15  -2  138.69   18.10
  15   0  -2  114.39   19.70
  15 -15   2   99.99   17.90
   0  15   2  101.59   17.40
   0  15   2   70.99   15.40
   0 -15  -2  111.09   27.80
  15   0  -2  114.39   28.50
  15 -15   2   76.09   16.70
 -15  15  -2  111.29   15.50
 -15   0   2   87.49   14.70
  15 -15   2  116.79   15.70
 -15   0   2  113.59   15.90
 -16   0  -2  499.25   35.00
  16 -16  -2  475.95   38.10
   0  16  -2  567.44   36.40
 -16  16   2  513.85   34.00
  16   0   2  510.95   34.80
   0 -16   2  510.75   35.10
  15 -16  -2   39.30   22.90
 -16  15   2   22.60   11.00
  15   1   2   22.40   13.20
   1  15  -2   13.80   14.40
   1 -16   2   38.90   12.10
 -15  -1  -2   19.50   11.70
  16 -15  -2   47.00   17.80
  -1  16  -2   13.00   12.20
  -1 -15   2   17.30   12.40
 -15  16   2   32.50   10.20
  16  -1   2   20.90   12.90
  14 -16  -2  160.78   25.20
  14   2   2  144.09   18.60
 -16  14   2  127.79   17.90
   2  14  -2  168.78   20.60
   2 -16   2  155.88   18.80
 -16   2  -2  141.39   20.40
  -2  16  -2  172.08   19.70
  -2 -14   2  138.69   19.30
  16  -2   2  145.59   18.60
 -14  -2  -2  136.59   26.10
  16 -14  -2  169.38   36.30
 -14  16   2  150.48   16.90
   3 -16   2  228.88   23.50
 -16   3  -2  204.38   22.50
 -16  13   2  201.98   23.80
  13   3   2  223.78   20.70
  13 -16  -2  246.58   28.20
  16  -3   2  181.88   28.90
  16 -13  -2  238.88   33.40
 -13  16   2  222.68   21.60
 -13  -3  -2  206.98   22.90
  -3  16  -2  235.98   23.20
 -16  12   2  102.89   14.90
   4 -16   2   87.59   17.40
  12   4   2   95.19   16.40
   4  12  -2   73.29   14.80
  12   4   2   73.29   17.80
  12 -16  -2   84.19   20.40
 -16   4  -2   96.79   18.30
  -4  16  -2  138.89   18.90
  -4 -12   2  115.39   17.70
 -12  -4  -2   81.69   16.80
  16 -12  -2  108.29   21.30
  16  -4   2   88.89   19.10
 -12  16   2   84.89   14.00
  11   5   2   87.79   15.60
 -16  11   2   69.89   15.30
  11 -16  -2   76.59   20.90
  11 -16  -2   68.49   14.00
  11   5   2   80.39   16.60
   5 -16   2   68.79   12.20
 -16  11   2   74.09   14.60
 -16   5  -2   65.99   13.60
   5  11  -2   51.19   15.30
  16 -11  -2   77.29   16.40
  16  -5   2   72.59   13.00
  -5 -11   2   51.69   21.20
  -5  16  -2   93.59   17.20
 -11  16   2   43.60   11.00
  16 -11  -2   60.69   16.50
 -11  -5  -2   63.19   12.20
  -5 -11   2  107.19   17.90
  10   6   2  128.09   17.80
  10   6   2  144.09   16.00
   6  10  -2   98.19   24.70
  10 -16  -2  116.99   21.70
  10 -16  -2  133.69   15.60
 -16  10   2   95.89   16.90
  10   6   2   96.49   14.50
   6 -16   2  135.19   26.30
   6 -16   2  139.99   17.10
 -16  10   2  139.99   15.60
 -16   6  -2  129.39   19.90
 -10  16   2  119.99   15.60
  -6 -10   2  136.99   18.20
  -6 -10   2  119.89   23.30
  16  -6   2   99.29   17.20
  16 -10  -2  132.29   18.50
  -6  16  -2  165.48   18.00
 -10  -6  -2  116.49   17.40
  -6  16  -2   85.29   19.70
 -16   9   2  213.28   21.00
   7 -16   2  259.87   20.40
 -16   7  -2  250.37   20.30
   7   9  -2  221.78   28.70
 -16   7  -2  257.27   23.00
   9 -16  -2  198.08   26.40
 -16   9   2  259.57   19.40
   9 -16  -2  197.88   19.90
   7 -16   2  173.38   29.90
   9 -16  -2  227.58   27.80
   9   7   2  213.68   19.10
  -9  16   2  225.68   19.00
  -7  16  -2  164.18   23.50
  16  -7   2  218.88   20.80
  16  -9  -2  206.48   21.10
  -9  16   2  209.68   23.30
  16  -9  -2  287.57   24.50
  -7  16  -2  257.47   20.80
  -9  -7  -2  214.68   20.30
  -7  -9   2  239.78   21.30
 -16   8  -2  255.67   20.30
   8 -16   2  251.47   31.70
   8   8   2  215.38   23.90
 -16   8  -2  286.17   22.50
   8 -16   2  320.87   22.70
 -16   8   2  247.78   23.00
   8   8  -2  296.27   30.70
   8   8  -2  277.07   24.50
   8 -16  -2  246.58   29.80
 -16   8  -2  289.97   25.10
   8   8   2  239.88   41.10
   8 -16  -2  302.97   22.40
 -16   8   2  283.27   21.60
   8   8   2  269.37   21.50
  16  -8   2  302.87   22.80
  16  -8  -2  321.07   25.70
  16  -8   2  226.58   28.60
  -8  -8   2  308.87   23.80
  -8  -8  -2  292.57   22.80
  -8  16   2  271.37   22.90
  -8  -8   2  288.17   20.50
  -8  16   2  290.07   21.50
  -8  16  -2  313.37   22.70
  16  -8  -2  265.77   24.00
   9   7  -2   23.90   14.60
 -16   7   2   55.19   10.80
   7 -16  -2   58.49   21.80
   9   7  -2   28.00   10.20
   7   9   2   36.40   11.30
   9 -16   2   37.90   13.10
 -16   9  -2   59.99   13.80
   7 -16  -2   41.20   11.90
   7   9   2   28.50   12.30
 -16   9  -2   65.79   15.10
 -16   7   2   31.20    9.60
   7 -16  -2   31.40   12.70
 -16   9  -2   52.99    8.90
   9 -16   2   54.89   11.60
  -7  16   2   57.79   10.20
  -9  -7   2   68.59   12.20
  16  -9   2   74.39   12.70
  -9  -7   2   60.59   11.70
  16  -7  -2   91.29   18.90
  -9  16  -2   61.79   16.50
  16  -9   2   21.60   12.70
  -7  16   2   45.70    8.60
  -7  -9  -2   34.60   13.90
  -9  16  -2   75.89   15.10
  16  -7  -2   55.79   15.60
   6  10   2  362.86   33.80
  10 -16   2  447.56   28.50
   6  10   2  369.96   29.50
 -16   6   2  393.66   29.80
  10   6  -2  419.46   36.20
 -16   6   2  443.36   28.00
  10 -16   2  428.16   37.80
   6 -16  -2  439.36   29.20
   6 -16  -2  436.36   37.00
   6  10   2  378.26   27.60
 -16  10  -2  394.76   39.50
 -16  10  -2  436.26   27.30
  10   6  -2  406.26   28.20
   6 -16  -2  343.17   35.80
  10   6  -2  424.06   31.20
 -16  10  -2  446.06   30.80
  -6 -10  -2  393.66   36.00
 -10  -6   2  429.76   29.90
 -10  16  -2  418.96   28.10
 -10  16  -2  416.46   30.70
  -6  16   2  369.76   29.90
  16 -10   2  395.46   28.90
  16  -6  -2  405.26   30.20
  16  -6  -2  487.45   31.20
  -6 -10  -2  445.56   29.10
  16 -10   2  364.86   50.09
 -10  -6   2  447.46   27.60
  -6  16   2  418.06   28.00
 -16   5   2  357.36   23.70
   5  11   2  307.47   29.00
  11   5  -2  340.27   24.90
  11 -16   2  299.37   23.90
  11   5  -2  307.87   32.60
 -16  11  -2  339.27   26.10
  11   5  -2  336.77   27.30
 -16  11  -2  345.27   23.60
   5 -16  -2  343.47   25.50
   5  11   2  268.27   25.10
 -16   5   2  300.77   25.30
  11 -16   2  330.07   23.90
  11 -16   2  313.67   34.30
   5  11   2  312.07   23.50
  16 -11   2  290.47   33.20
  16  -5  -2  353.16   27.00
 -11  -5   2  355.86   26.40
  -5  16   2  329.47   23.90
  16 -11   2  325.97   24.90
  -5  16   2  304.67   25.50
 -11  16  -2  328.57   24.40
  -5 -11  -2  282.37   34.90
  16  -5  -2  313.17   26.50
 -11  16  -2  319.07   25.90
  -5 -11  -2  368.96   25.40
 -11  -5   2  373.16   23.60
   4  12   2  116.79   15.30
  12 -16   2  142.19   17.00
  12   4  -2  118.79   19.20
   4  12   2  118.69   17.10
  12   4  -2  137.39   17.80
  12 -16   2  142.59   17.00
   4 -16  -2  117.49   18.80
 -16   4   2  140.59   16.10
 -16  12  -2  147.69   16.10
   4  12   2  116.69   22.00
 -16  12  -2  131.39   18.60
  16  -4  -2  141.09   19.60
 -12  16  -2  139.69   16.40
  -4  16   2  117.09   16.90
 -12  -4   2  148.09   15.30
  -4  16   2   96.09   18.30
  -4 -12  -2  118.89   17.50
  16 -12   2  133.29   18.10
  16  -4  -2  153.18   18.90
 -12  16  -2  126.99   18.20
 -12  -4   2  147.59   19.70
 -16   3   2   55.39   10.80
   3 -16  -2   75.09   13.20
 -16  13  -2   62.69   17.40
  13   3  -2   36.00   15.10
   3 -16  -2   52.79   15.20
   3  13   2   48.30   12.30
  13   3  -2   94.69   17.30
  13 -16   2   69.29   11.00
   3  13   2   68.99   12.40
 -16  13  -2   84.49   14.40
   3  13   2   73.59   20.30
  13 -16   2   74.49   12.50
  16 -13   2   41.00   14.50
  -3  16   2   58.19   16.70
 -13  16  -2   77.59   12.30
  -3 -13  -2   78.59   14.50
  16 -13   2   76.79   13.10
  16 -13   2   81.69   13.60
  16  -3  -2   70.09   14.20
  16  -3  -2   97.59   24.50
 -13  16  -2   78.69   16.80
 -13  -3   2   69.09   13.50
  -3  16   2   75.19   12.60
  -3 -13  -2   49.00   15.10
 -13  -3   2   76.99   14.00
  14 -16   2   59.69   13.40
   2 -16  -2   74.39   13.80
  14   2  -2   97.39   18.10
 -16  14  -2   93.69   15.60
   2  14   2   79.59   13.70
 -16   2   2   74.49   14.90
  14 -16   2   79.19   12.00
   2  14   2   84.49   20.20
  14 -16   2   61.79   15.40
 -16  14  -2  105.49   17.80
   2  14   2   48.20   12.90
  -2  16   2   82.69   13.70
  -2 -14  -2   61.29   16.80
 -14  16  -2   81.99   17.70
  16 -14   2  104.39   15.50
  16 -14   2   83.49   17.40
 -14  -2   2   69.79   13.80
 -14  16  -2   86.29   14.70
  16  -2  -2  112.79   24.30
  -2  16   2  100.69   21.10
  16  -2  -2   90.09   18.30
  16  -2  -2  131.59   34.60
 -14  -2   2   76.59   14.90
  15   1  -2   67.49   14.20
 -16  15  -2   72.19   18.00
 -16  15  -2   68.19   14.80
 -16   1   2   54.99   14.10
 -16   1   2   58.99   11.40
  15 -16   2   68.79   11.90
   1  15   2   74.59   13.70
  15 -16   2   66.49   13.80
   1  15   2   69.19   14.60
  15 -16   2  130.39   29.60
   1 -16  -2   50.39   15.30
 -15  -1   2   47.80   14.30
 -15  -1   2   60.39   11.70
 -15  16  -2  103.19   16.60
  -1  16   2   65.19   12.60
 -15  16  -2   62.79   12.00
  -1  16   2   60.39   15.40
  16 -15   2   71.09   14.10
  -1 -15  -2   43.80   12.50
  16 -15   2   73.29   11.50
  16  -1  -2   74.29   14.30
 -16  16  -2    6.30   11.20
   0  16   2   -6.90   12.70
  16 -16   2    3.80   11.10
 -16   0   2  -28.20   13.50
  16 -16   2  -11.80   12.80
  16   0  -2    5.60   13.40
   0 -16  -2   -4.60   12.20
 -16   0   2  -10.70   13.90
  16 -16   2   26.20   15.10
 -16  16  -2   -8.00    8.70
   0 -17   2    9.10   12.10
 -17   0  -2    7.00   12.50
   0  17  -2    4.60   12.70
  17 -17  -2   -7.50   17.60
  17   0   2    8.70   13.70
 -17  17   2   22.90   11.60
 -17   1  -2  362.66   27.50
 -17  16   2  338.57   25.70
   1 -17   2  388.96   27.40
  16   1   2  333.17   27.20
   1  16  -2  365.06   29.00
  16 -17  -2  309.37   30.80
  -1  17  -2  317.17   27.40
 -16  17   2  326.97   25.20
  17 -16  -2  320.77   30.50
  -1 -16   2  331.07   27.50
  17  -1   2  339.17   27.00
 -16  -1  -2  334.07   27.20
 -17  15   2  226.78   21.20
 -17   2  -2  223.48   23.30
  15   2   2  239.38   22.50
  15 -17  -2  195.48   40.90
   2 -17   2  254.87   22.10
   2  15  -2  239.88   23.80
 -15  -2  -2  228.68   22.40
  -2  17  -2  249.48   23.20
 -15  17   2  230.58   20.60
  -2 -15   2  242.68   22.80
  17  -2   2  232.68   22.30
  17 -15  -2  221.58   26.60
  14 -17  -2    7.90   18.80
   3  14  -2   11.00   14.60
 -17  14   2    6.60    9.90
   3 -17   2   -3.90   11.30
 -14  -3  -2   15.90   12.30
  17  -3   2   11.40   12.60
  -3 -14   2   16.70   12.00
  17 -14  -2   26.90   16.70
  -3  17  -2   27.60   12.00
 -14  17   2    6.60   10.20
   4 -17   2  140.89   19.40
  13   4   2  147.79   19.10
  13 -17  -2  160.68   25.80
   4  13  -2  149.39   21.30
 -17   4  -2  135.89   20.70
 -17  13   2  150.68   17.30
  -4  17  -2  154.68   19.70
  -4 -13   2  152.58   19.80
  17  -4   2  143.59   18.80
  17 -13  -2  155.88   22.90
 -13  -4  -2  141.99   18.80
 -13  17   2  164.08   17.40
   5  12  -2  336.47   27.80
  12   5   2  329.17   25.40
  12 -17  -2  299.17   32.20
 -17   5  -2  313.37   26.50
   5 -17   2  319.67   25.40
  -5  17  -2  329.37   25.80
 -12  17   2  298.67   23.80
 -12  -5  -2  294.67   25.30
  17 -12  -2  335.17   28.70
  -5 -12   2  361.16   26.30
  17  -5   2  326.97   25.50
  11 -17  -2   58.79   11.30
 -17   6  -2   60.39   14.90
   6 -17   2   50.59   13.00
 -17  11   2   50.59   11.20
  11   6   2   60.49   12.90
  11 -17  -2   61.09   21.10
  17  -6   2   72.39   13.70
 -11  -6  -2   51.19   12.20
  -6  17  -2   55.29   13.10
 -11  17   2   57.09   10.50
  -6 -11   2   54.79   16.30
  17 -11  -2   67.99   15.60
   7 -17   2  111.99   21.80
 -17  10   2   95.89   15.70
  10   7   2   70.59   20.80
  10   7   2   98.39   22.00
 -17   7  -2  125.69   20.40
  10 -17  -2   83.09   21.80
  10 -17  -2   92.59   16.30
  10   7   2   90.49   16.10
  17 -10  -2  146.19   21.50
  -7 -10   2  105.59   18.10
 -10  17   2  102.39   17.20
 -10  -7  -2  101.49   16.80
  17  -7   2   81.89   15.10
 -17   9   2   86.69   15.00
 -17   8  -2   83.79   15.30
   9 -17  -2   60.89   12.40
   8 -17   2   62.59   11.80
   9   8   2   38.00   14.10
   9   8   2   74.29   14.80
   9 -17  -2   56.19   21.60
  -8  -9   2   66.59   12.50
  -8  17  -2   95.79   16.40
  -9  -8  -2   67.19   13.20
  17  -9  -2  110.99   23.10
 -17   8   2  121.19   16.50
 -17   9  -2   97.49   18.00
 -17   9  -2  107.79   16.20
 -17   8   2   98.89   19.30
   8 -17  -2  148.39   17.10
   9 -17   2  105.19   17.50
   8   9   2  112.39   15.90
   8 -17  -2  136.19   23.70
 -17   9  -2  134.39   21.20
  -8  -9  -2  123.99   27.70
  -8  -9  -2  149.09   18.20
  -9  17  -2  140.99   17.20
  -9  -8   2  102.19   18.40
  -9  -8   2  131.59   14.60
  17  -8  -2  155.08   24.80
  17  -8  -2  121.69   27.50
 -17  10  -2  420.96   30.60
 -17   7   2  378.36   29.60
 -17   7   2  397.26   27.40
   7  10   2  340.77   29.20
  10 -17   2  407.16   27.90
 -17  10  -2  371.46   26.90
   7  10   2  358.06   27.10
   7 -17  -2  363.66   35.70
   7 -17  -2  381.06   28.80
  10   7  -2  402.76   28.10
 -17  10  -2  374.06   34.10
  -7 -10  -2  377.86   28.20
  17  -7  -2  402.76   39.50
 -10  -7   2  407.76   29.20
 -10  17  -2  386.86   27.40
  -7  17   2  381.36   32.60
  -7 -10  -2  388.66   36.30
  17  -7  -2  462.45   33.10
  17 -10   2  370.96   30.30
 -10  -7   2  402.06   26.30
   6  11   2   31.70   11.80
   6  11   2   32.20   12.80
 -17   6   2   70.99   15.10
 -17  11  -2   55.99   14.50
 -17  11  -2   37.90    9.70
   6 -17  -2   54.89   12.80
  11   6  -2   70.39   12.90
 -17   6   2   65.29   15.20
 -17  11  -2   62.69   10.50
  11 -17   2   79.29   15.50
   6 -17  -2  104.99   24.10
 -11  -6   2   62.99   14.60
  -6 -11  -2   41.70   15.50
  17 -11   2   53.89   13.90
  17  -6  -2   62.09   22.70
 -11  17  -2   50.59   11.40
  -6 -11  -2   66.19   12.80
  -6  17   2   51.09   16.20
 -11  -6   2   66.69   14.20
  12   5  -2  236.18   22.10
 -17  12  -2  290.27   24.30
   5 -17  -2  300.17   23.90
  12 -17   2  264.57   21.50
 -17  12  -2  268.67   21.60
  12 -17   2  283.17   23.30
   5  12   2  260.27   27.30
   5  12   2  196.18   20.30
 -17   5   2  267.87   21.20
   5  12   2  243.78   22.90
  17 -12   2  250.37   22.60
  -5 -12  -2  273.77   22.10
  -5 -12  -2  237.38   32.60
 -12  17  -2  248.98   21.20
  17 -12   2  204.78   32.70
  17  -5  -2  241.88   33.30
 -12  -5   2  264.87   21.10
  -5  17   2  194.08   29.40
 -12  -5   2  268.37   24.60
 -12  17  -2  258.07   29.40
 -17  13  -2  100.39   16.30
   4  13   2   99.09   15.80
  13 -17   2  122.19   18.10
   4  13   2   90.89   22.90
   4  13   2  106.49   17.50
  13 -17   2  115.69   17.00
   4 -17  -2  110.89   18.80
 -17  13  -2   86.39   19.70
 -17   4   2   90.39   16.00
  13   4  -2  124.99   18.60
 -13  17  -2  140.89   23.40
  17 -13   2  107.49   18.10
  -4 -13  -2  130.49   17.20
 -13  17  -2  132.19   16.80
 -13  -4   2  114.49   20.60
 -13  -4   2  114.29   15.90
  17  -4  -2  119.89   22.10
   3 -17  -2   -2.10   13.40
   3  14   2   14.00   11.00
 -17   3   2    6.90   12.30
  14 -17   2   20.10   10.30
 -17  14  -2   19.00    9.40
   3  14   2   20.70   12.00
 -17  14  -2   34.20   10.70
   3  14   2   25.30   12.30
  14   3  -2   24.10   13.10
  14 -17   2   29.80   13.00
  -3 -14  -2   13.60   11.90
  17 -14   2   15.20    9.50
 -14  17  -2   23.70   10.80
 -14  -3   2    5.10   13.70
  17 -14   2   32.20   13.00
  -3  17   2   11.40   16.10
  -3 -14  -2    1.10   15.10
  17  -3  -2   21.50   13.30
   2 -17  -2   71.49   15.30
 -17  15  -2   74.19   18.80
  15 -17   2   59.09   12.40
  15   2  -2   66.99   15.30
   2  15   2   70.59   14.40
 -17  15  -2   51.09   12.50
   2  15   2   80.19   20.40
 -17   2   2   60.89   14.50
  15 -17   2   62.39   14.40
  -2 -15  -2   48.30   16.80
  -2  17   2   53.49   12.70
  17  -2  -2   76.59   14.40
  17 -15   2   71.19   14.50
 -15  -2   2   54.19   11.80
 -15  -2   2   44.90   14.30
  -2 -15  -2   48.10   13.70
  17 -15   2   59.39   11.80
 -15  17  -2   69.89   12.80
  16   1  -2   47.50   16.00
 -17  16  -2   37.60   10.30
   1  16   2   58.59   21.20
   1 -17  -2   35.50   12.90
 -17  16  -2   51.29   12.40
  16 -17   2   40.40   14.50
 -17   1   2    6.00   21.70
 -17   1   2   38.50   12.30
  17 -16   2   48.00   13.30
 -16  -1   2   41.50   12.00
  17 -16   2   15.20   16.30
 -16  -1   2   26.00   14.60
  -1  17   2   53.29   14.10
 -16  17  -2   62.09   12.40
  17 -16   2   48.60   14.70
  17  -1  -2   62.59   14.50
  -1 -16  -2   52.99   13.40
   0 -17  -2   34.20   13.10
  17 -17   2    2.20   14.90
   0  17   2    3.20   13.40
 -17  17  -2   19.10   12.50
 -17   0   2  -18.70   15.00
  17 -17   2   12.60   11.80
 -17   0   2   11.20   11.90
  17   0  -2   35.60   14.90
   0 -18   2  109.29   19.90
 -18  18   2  106.99   17.40
  18 -18  -2  102.09   22.30
 -18   0  -2   88.79   16.60
  18   0   2   93.09   19.50
   0  18  -2   60.19   14.80
 -18  17   2  153.98   18.80
  17   1   2  170.68   20.50
   1  17  -2  147.29   21.70
   1 -18   2  147.09   20.20
  17 -18  -2  125.29   25.00
 -18   1  -2  133.69   20.80
  18  -1   2  149.09   20.10
 -17  -1  -2  126.19   20.60
 -17  18   2  156.88   18.60
  18 -17  -2  144.99   22.90
  -1  18  -2  159.58   20.90
  -1 -17   2  125.49   20.30
  16   2   2  -10.40   14.20
   2  16  -2    8.10   14.00
 -18  16   2   -1.80   11.40
 -18   2  -2    5.20   12.70
  16 -18  -2    4.70   18.60
   2 -18   2    4.50   12.70
 -16  18   2    7.40   11.50
 -16  -2  -2    4.50   13.60
  -2 -16   2    8.30   12.70
  -2  18  -2   35.60   13.90
  18 -16  -2   30.10   17.40
  18  -2   2    8.00   12.80
 -18   3  -2   67.19   15.00
   3  15  -2   49.50   14.30
 -18  15   2   79.29   16.70
  15 -18  -2   63.79   20.30
  15   3   2   96.39   15.80
   3 -18   2   56.09   13.50
 -15  18   2   65.69   11.90
  18  -3   2   68.39   14.30
 -15  -3  -2   81.99   14.50
  18 -15  -2   99.99   21.10
  -3  18  -2   87.89   18.60
  -3 -15   2   71.69   13.80
   4 -18   2   21.00   12.80
  14   4   2   24.70   13.60
 -18   4  -2   28.30   13.40
  14 -18  -2   13.80   21.50
 -18  14   2   23.30   11.00
   4  14  -2   30.80   14.40
  -4 -14   2   20.40   12.40
  -4  18  -2   30.20   13.20
 -14  -4  -2   17.30   12.00
  18  -4   2   16.40   13.80
 -14  18   2   21.20    9.90
  18 -14  -2   20.10   15.50
   5 -18   2   -2.70   11.80
  13 -18  -2   -3.80   19.80
 -18  13   2    2.90   10.10
   5  13  -2   11.40   15.00
  13   5   2   13.70   14.80
  -5  18  -2   24.40   12.30
 -13  18   2   25.50   10.70
  18  -5   2   17.50   12.10
 -13  -5  -2   19.20   12.60
  18 -13  -2   14.10   15.10
  -5 -13   2   22.00   12.30
 -18   6  -2  135.59   21.00
 -18  12   2  149.09   17.40
  12 -18  -2  112.29   23.80
   6 -18   2  108.99   18.30
  12   6   2  139.19   18.80
   6  12  -2  141.19   23.30
 -12  -6  -2  124.29   18.20
  18  -6   2  135.69   18.80
  -6  18  -2  148.69   19.50
  -6 -12   2  162.18   20.40
  18 -12  -2  143.39   21.50
 -12  18   2  110.69   16.60
   7  11  -2  131.49   22.50
   7 -18   2  137.29   18.60
 -18   7  -2  136.69   21.90
  11 -18  -2  160.08   18.60
  11 -18  -2   97.19   23.30
  11   7   2  129.49   17.50
 -18  11   2  134.39   17.10
 -11  18   2  132.69   16.80
  -7 -11   2  157.58   20.10
  18 -11  -2  174.88   21.50
 -11  -7  -2  117.09   18.30
  18  -7   2  125.59   18.50
  -7  18  -2  157.38   19.10
 -18  10   2   81.39   16.10
  10   8   2   51.59   13.40
   8 -18   2   41.90   11.90
 -18   8  -2   67.19   15.60
  10 -18  -2   19.40   23.90
  10 -18  -2   90.09   16.90
 -10  18   2   43.30   10.70
 -10  -8  -2   40.60   11.40
  -8  18  -2   47.90   11.40
  18  -8   2   44.00   12.30
  -8 -10   2   42.80   12.80
 -18   9  -2  651.43   40.70
   9 -18   2  603.94   38.50
 -18   9   2  587.74   45.30
   9   9   2  569.64   37.90
   9 -18  -2  513.25   44.20
   9 -18  -2  566.14   39.00
  -9  -9  -2  559.74   56.79
  -9  -9   2  601.74   48.70
  18  -9   2  561.64   38.40
  18  -9  -2  612.24   39.80
  -9  -9  -2  596.84   38.50
  -9  18   2  584.04   37.50
  -9  18  -2  620.64   38.10
  10 -18   2  274.07   23.60
   8 -18  -2  316.87   24.40
   8  10   2  246.78   22.70
 -18  10  -2  311.87   27.30
  -8 -10  -2  273.27   34.40
  18 -10   2  287.17   23.60
  -8  18   2  291.27   22.60
 -10  -8   2  304.17   25.30
  18  -8  -2  275.67   25.00
 -10  18  -2  267.37   22.70
  -8 -10  -2  281.07   23.60
  11 -18   2  264.07   22.30
   7 -18  -2  268.97   23.90
   7  11   2  179.48   23.90
   7 -18  -2  228.08   32.30
 -18  11  -2  263.47   25.40
   7  11   2  220.68   21.10
 -11  18  -2  257.37   21.50
 -11  -7   2  243.68   19.70
  18  -7  -2  233.88   23.60
 -11  -7   2  220.18   24.20
  -7 -11  -2  275.07   33.90
  18 -11   2  247.18   22.10
  -7  18   2  268.77   21.40
  -7 -11  -2  260.67   22.00
   6  12   2  335.87   28.80
   6  12   2  334.57   32.90
   6 -18  -2  341.87   37.20
 -18  12  -2  429.36   31.40
   6 -18  -2  411.26   30.00
 -18   6   2  349.96   34.30
   6  12   2  331.77   26.60
 -18  12  -2  372.26   27.20
  12   6  -2  392.06   28.60
  12 -18   2  385.46   28.40
 -12  18  -2  390.26   26.80
  18 -12   2  356.16   27.60
 -12  -6   2  362.36   29.30
  18  -6  -2  349.67   28.70
  -6  18   2  366.46   26.80
  -6 -12  -2  360.16   27.40
 -12  -6   2  402.16   26.20
   5  13   2   32.20   12.80
 -18  13  -2   30.00   16.00
 -18  13  -2   33.80   12.50
   5 -18  -2   30.30   13.90
 -18   5   2   38.80   11.40
  13   5  -2   51.29   14.10
   5  13   2   32.30   12.90
  13 -18   2   32.40   11.30
   5  13   2   16.60   12.80
 -13  18  -2   39.10   11.50
  18  -5  -2   38.70   13.80
 -13  -5   2   38.50   10.60
  -5  18   2   16.10   10.70
 -13  -5   2   20.10   14.90
  18 -13   2   40.40   13.20
  -5 -13  -2   39.70   11.90
  -5 -13  -2   50.09   16.90
   4  14   2   84.99   23.40
  14 -18   2   40.80   11.20
 -18   4   2   49.70   11.50
  14   4  -2   45.70   14.50
 -18  14  -2   57.99   12.70
 -18  14  -2   26.40   15.50
   4  14   2   54.89   13.30
  -4 -14  -2   12.90   18.90
 -14  -4   2   59.69   12.10
  -4 -14  -2   52.49   12.40
 -14  18  -2   48.00   11.90
  18 -14   2   69.69   14.30
  18  -4  -2   50.19   13.90
  18 -14   2   32.10   25.20
 -14  -4   2   55.99   15.10
  -4  18   2   58.89   13.00
  15 -18   2   56.09   14.80
  15 -18   2   61.49   12.20
 -18  15  -2   91.79   25.50
 -18  15  -2   70.49   13.40
   3 -18  -2   58.79   15.00
 -18   3   2   49.70   12.00
   3  15   2   70.59   15.10
  15   3  -2   64.99   15.20
  18  -3  -2   62.89   15.00
  -3  18   2   59.99   13.40
 -15  18  -2   56.39   12.90
 -15  -3   2   48.20   15.20
 -15  -3   2   47.00   11.50
  18 -15   2   38.60   14.30
  -3 -15  -2   41.10   12.40
 -18   2   2   44.90   12.70
 -18  16  -2   55.79   12.80
  16 -18   2   51.59   13.20
   2 -18  -2   23.70   14.60
   2  16   2   69.39   15.50
  16 -18   2   72.59   15.50
  16   2  -2   37.30   18.80
 -16  -2   2   18.00   16.00
  -2  18   2   49.60   14.50
  18 -16   2   32.70   14.50
  -2 -16  -2   46.30   12.90
  18  -2  -2   59.39   14.60
  18 -16   2   48.60   13.10
 -16  -2   2   45.80   11.90
 -16  18  -2   58.49   12.60
  17 -18   2  256.07   23.70
 -18   1   2  258.17   22.90
   1  17   2  287.67   25.10
  17   1  -2  260.37   24.80
  17 -18   2  252.27   27.10
   1 -18  -2  277.67   25.30
 -18  17  -2  244.38   34.90
  18 -17   2  281.87   25.30
  -1 -17  -2  288.87   24.10
 -17  -1   2  261.87   22.90
  -1  18   2  293.97   25.10
 -17  18  -2  286.57   23.40
  18 -17   2  244.68   23.10
  18  -1  -2  260.37   24.90
 -17  -1   2  198.78   28.30
 -18   0   2   91.89   18.90
  18 -18   2   98.69   17.20
   0 -18  -2   71.29   15.90
 -18  18  -2  119.19   18.60
  18   0  -2   92.79   19.60
 -18   0   2   84.39   17.40
  18 -18   2   69.99   14.00
   0  18   2   87.99   15.60
 -19  19   2   62.29   14.30
   0  19  -2   71.99   16.00
  19   0   2   80.79   16.70
 -19   0  -2   64.19   15.20
  19 -19  -2   67.39   18.90
   0 -19   2   81.79   15.70
  18   1   2   -7.90   14.90
 -19  18   2   -3.40   12.40
 -19   1  -2    2.10   13.90
   1  18  -2    0.20   14.70
  18 -19  -2   -2.10   17.50
   1 -19   2   -7.80   12.80
  -1  19  -2    8.60   13.40
  -1 -18   2    3.60   13.40
 -18  19   2    1.40   12.00
 -18  -1  -2   -3.90   14.00
  19 -18  -2   -1.60   16.80
  19  -1   2    7.90   14.00
  17 -19  -2   69.29   20.70
   2  17  -2   96.69   18.00
 -19   2  -2   72.49   15.40
 -19  17   2   89.79   17.70
  17   2   2  102.99   20.20
   2 -19   2   74.79   15.00
 -17  19   2   99.29   16.50
  19  -2   2   79.79   15.10
  19 -17  -2  113.99   21.60
 -17  -2  -2   87.89   16.60
  -2  19  -2   97.99   19.30
  -2 -17   2   84.39   15.50
   3  16  -2   28.60   16.60
   3 -19   2   28.20   13.50
 -19  16   2   22.80   12.30
  16   3   2   47.90   15.80
  16 -19  -2   47.80   20.10
 -19   3  -2   28.60   15.10
  -3  19  -2   34.10   14.60
 -16  19   2   39.60   11.40
  19 -16  -2   56.89   16.60
 -16  -3  -2   27.90   14.20
  19  -3   2   34.30   13.60
  -3 -16   2   35.80   13.60
 -19   4  -2   76.49   15.70
  15 -19  -2   58.79   20.40
   4 -19   2   68.69   15.20
   4  15  -2   92.49   17.20
 -19  15   2   84.19   13.30
  15   4   2   80.29   16.50
  -4 -15   2   77.99   14.50
  19 -15  -2  103.29   20.90
  19  -4   2   84.39   15.80
  -4  19  -2  108.09   18.70
 -15  19   2   72.79   12.80
 -15  -4  -2   73.79   14.10
   5  14  -2   29.40   16.80
 -19  14   2   11.40   11.90
 -19   5  -2   15.10   13.90
  14 -19  -2    0.70   26.00
  14   5   2   15.60   14.80
   5 -19   2   16.30   13.00
  19 -14  -2   37.90   16.00
  19  -5   2   22.60   13.20
  -5  19  -2   15.50   13.00
  -5 -14   2    5.60   13.00
 -14  19   2   21.50   10.70
 -14  -5  -2   20.10   12.20
   6  13  -2   64.49   17.60
 -19  13   2   85.39   16.70
  13   6   2   73.29   15.30
  13 -19  -2   33.30   21.90
   6 -19   2   70.89   14.20
 -19   6  -2   79.59   16.40
 -13  19   2   50.49   11.60
  -6  19  -2  108.89   18.70
  -6 -13   2   83.59   15.20
  19 -13  -2  113.79   20.60
  19  -6   2   79.79   14.40
 -13  -6  -2   66.09   13.70
   7 -19   2   22.40   12.40
  12 -19  -2  -13.40   21.30
 -19   7  -2   18.00   17.00
 -19  12   2   19.20   11.70
   7  12  -2   18.50   17.50
  12   7   2   10.50   13.70
 -12  -7  -2   26.70   12.00
  -7  19  -2   19.20   12.90
  -7 -12   2   29.30   13.80
 -12  19   2   11.60   10.50
  19  -7   2   21.90   12.70
  19 -12  -2   60.29   16.30
 -19   8  -2  175.58   29.40
  11   8   2  119.59   19.20
  11 -19  -2   70.89   25.40
 -19  11   2  168.58   18.60
  11 -19  -2  153.78   20.50
   8  11  -2  123.79   23.80
   8 -19   2  121.69   19.20
  19  -8   2  118.19   18.90
  -8  19  -2  154.78   18.80
 -11  19   2  137.79   17.60
  19 -11  -2  179.98   20.80
 -11  -8  -2  161.98   19.10
  -8 -11   2  166.68   20.60
 -19  10   2  428.06   30.20
  10   9   2  425.56   30.90
 -19   9  -2  483.05   34.30
   9 -19   2  445.56   31.30
  10 -19  -2  339.67   38.60
  10 -19  -2  430.86   32.00
   9  10  -2  456.75   34.40
  -9  19  -2  436.06   30.30
  -9 -10   2  434.56   31.90
 -10  -9  -2  430.16   30.90
 -10  19   2  430.66   29.50
  19  -9   2  431.26   30.90
  19 -10  -2  423.36   32.00
 -19  10  -2   38.40   17.10
 -19   9   2   30.60   10.90
   9 -19  -2   13.30   14.10
  10 -19   2   11.10   11.60
   9  10   2    1.40   13.40
 -10  19  -2   16.40   10.80
  19  -9  -2   37.50   14.20
  -9 -10  -2   13.00   12.20
 -10  -9   2   25.80   13.50
  -9  19   2   18.60   10.50
  19 -10   2   36.50   12.20
 -19  11  -2  366.36   30.60
 -19   8   2  353.06   25.80
  11 -19   2  336.87   25.90
   8 -19  -2  238.38   35.70
   8  11   2  297.67   25.40
   8  11   2  250.97   28.80
   8 -19  -2  377.76   27.70
 -11  19  -2  369.86   25.60
 -11  -8   2  362.76   28.10
  19  -8  -2  334.47   27.00
  -8  19   2  325.37   25.10
  19 -11   2  324.37   26.10
  -8 -11  -2  329.77   25.80
 -19   7   2  189.08   19.20
 -19  12  -2  204.58   25.20
   7 -19  -2  198.38   22.80
  12 -19   2  173.08   19.60
   7  12   2  129.09   19.00
   7  12   2  194.58   19.40
  -7  19   2  184.98   19.20
 -12  -7   2  174.38   17.80
  -7 -12  -2  160.48   19.80
 -12  19  -2  192.08   18.90
 -12  -7   2  187.78   22.50
  19  -7  -2  186.38   21.40
  19 -12   2  166.78   20.00
  13 -19   2   24.30   12.50
  13   6  -2   31.80   15.90
   6  13   2   -6.20   13.50
   6 -19  -2   22.30   15.70
   6  13   2   28.00   13.70
 -19   6   2   14.60   12.00
 -19  13  -2   38.70   17.30
 -13  19  -2   25.90   12.40
 -13  -6   2   18.80   10.10
  19  -6  -2   34.00   14.00
  -6  19   2   18.10   10.70
  -6 -13  -2   43.40   12.90
  -6 -13  -2   -9.60   28.20
  19 -13   2   25.90   13.50
 -13  -6   2    2.60   21.30
   5 -19  -2    0.70   14.80
   5  14   2    0.10   12.80
  14 -19   2    2.80   11.90
 -19  14  -2   19.50   12.90
   5  14   2   27.50   13.40
 -19   5   2   14.40   11.40
 -19  14  -2    3.50   19.20
  14   5  -2   38.30   15.20
  19  -5  -2   19.70   13.40
  -5 -14  -2    3.30   11.90
 -14  -5   2   20.50   12.10
  19 -14   2    4.30   13.10
 -14  19  -2   13.40   10.80
  -5  19   2    4.50   11.40
  15   4  -2   46.50   15.30
  15 -19   2   33.40   12.90
 -19   4   2   34.00   12.10
   4  15   2   51.79   20.50
   4 -19  -2   31.30   14.50
 -19  15  -2   65.39   13.90
  -4  19   2   27.10   12.50
  19 -15   2   39.90   14.40
 -15  -4   2   10.80   11.70
 -15  -4   2   -3.20   19.00
  -4 -15  -2   28.90   12.60
 -15  19  -2   32.60   12.40
  19  -4  -2   43.90   14.00
   3 -19  -2  221.58   23.50
  16 -19   2  204.38   20.90
  16 -19   2  228.28   24.40
 -19   3   2  200.28   20.70
   3  16   2  225.38   23.50
 -19  16  -2  160.68   22.20
  -3  19   2  220.98   22.40
 -16  -3   2  188.48   20.20
 -16  19  -2  204.88   20.50
  -3 -16  -2  174.68   21.00
  19 -16   2  185.58   22.10
  19  -3  -2  197.68   21.80
 -16  -3   2  160.78   26.70
 -19   2   2  139.89   19.30
   2 -19  -2  139.09   21.70
  17 -19   2  132.79   19.70
  17   2  -2  146.19   20.90
   2  17   2  165.18   22.00
  17 -19   2  131.69   24.80
 -19  17  -2  144.19   24.60
  19 -17   2  143.49   21.10
  -2  19   2  140.19   21.20
 -17  -2   2  154.48   18.60
  19  -2  -2  137.19   20.40
  -2 -17  -2  120.19   19.40
 -17  19  -2  117.19   18.60
  19 -17   2  145.19   18.00
 -17  -2   2  117.39   20.60
  18 -19   2  153.38   23.90
   1 -19  -2  156.68   21.80
 -19   1   2  120.19   19.70
   1  18   2  171.28   22.10
  18   1  -2  161.58   21.20
 -19  18  -2  152.08   20.10
  18 -19   2  130.69   19.60
  -1 -18  -2  134.99   20.10
 -18  -1   2  113.79   21.40
 -18  -1   2  129.99   19.00
  19  -1  -2  155.78   21.20
 -18  19  -2  144.49   19.20
  19 -18   2  151.48   22.90
  19 -18   2  117.49   18.50
  -1  19   2  162.88   22.30
  19 -19   2  594.64   40.40
  19   0  -2  550.14   38.80
   0  19   2  628.84   39.70
  19 -19   2  526.65   38.10
 -19   0   2  507.75   38.00
 -19  19  -2  583.44   38.50
   0 -19  -2  559.04   39.50
   0  20  -2   -5.30   15.70
 -20  20   2   -0.40   12.60
  20 -20  -2   20.20   17.80
 -20   0  -2   -0.50   16.40
  20   0   2    4.80   16.30
   0 -20   2    0.00   14.10
   1  19  -2   34.60   16.90
 -20   1  -2   53.09   17.50
   1 -20   2   21.50   14.30
  19 -20  -2   14.10   18.90
  19   1   2   33.70   16.40
 -20  19   2   29.30   13.50
 -19  20   2   26.60   12.50
  20 -19  -2   43.40   18.60
  20  -1   2   36.80   16.10
 -19  -1  -2   42.00   14.50
  -1 -19   2   32.70   15.30
  -1  20  -2   18.20   14.10
   2 -20   2   38.70   16.50
  18 -20  -2   63.39   18.80
   2  18  -2   42.80   15.40
 -20   2  -2   66.49   17.20
  18   2   2   44.10   16.50
 -20  18   2   42.00   13.30
 -18  20   2   46.50   13.80
  -2 -18   2   40.00   14.50
 -18  -2  -2   43.70   14.90
  20 -18  -2   51.69   17.60
  20  -2   2   37.10   14.40
  -2  20  -2   43.30   14.60
 -20   3  -2    4.60   15.60
  17   3   2    6.90   16.30
   3  17  -2  -12.80   15.10
   3 -20   2   -0.50   14.30
 -20  17   2   -5.40   12.10
  17 -20  -2    6.10   19.60
  20 -17  -2    5.40   16.60
  -3  20  -2   11.30   14.00
 -17  -3  -2   -6.10   13.90
 -17  20   2   16.60   12.50
  -3 -17   2    3.40   13.80
  20  -3   2    4.90   13.70
   4  16  -2   67.69   16.40
  16 -20  -2   74.79   21.40
 -20   4  -2   71.99   16.70
  16   4   2  121.19   20.90
   4 -20   2   84.39   15.70
 -20  16   2   99.79   18.00
  -4 -16   2   79.79   15.20
  20  -4   2   92.79   18.90
 -16  20   2   95.99   16.80
  -4  20  -2   87.19   18.90
 -16  -4  -2   86.89   15.80
  20 -16  -2  102.89   21.30
  15 -20  -2    8.20   19.70
  15   5   2   13.10   16.00
   5  15  -2   28.00   15.10
   5 -20   2   -6.80   13.50
 -20  15   2    1.30   11.40
 -20   5  -2   -7.90   13.80
  -5 -15   2    1.40   14.00
  20  -5   2   -4.90   13.40
 -15  20   2    4.20   11.40
  20 -15  -2   37.80   17.00
  -5  20  -2   15.50   13.30
 -15  -5  -2    1.30   12.50
   6 -20   2    6.50   12.90
   6  14  -2   11.20   16.50
  14 -20  -2  -29.70   20.80
  14   6   2   33.30   15.40
 -20  14   2   15.10   13.00
 -20   6  -2   13.30   14.90
 -14  20   2   31.20   11.60
  20 -14  -2   27.90   15.30
 -14  -6  -2   19.20   12.30
  20  -6   2   21.60   13.80
  -6  20  -2   20.30   12.50
  -6 -14   2   18.40   14.00
   7 -20   2   43.30   13.60
 -20   7  -2   67.09   16.70
  13 -20  -2   -2.10   34.30
  13   7   2   52.89   15.10
 -20  13   2   38.70   13.20
   7  13  -2   43.20   17.60
 -13  -7  -2   42.00   12.90
 -13  20   2   31.60   11.90
  -7  20  -2   41.80   12.80
  -7 -13   2   32.20   14.30
  20 -13  -2   47.60   16.70
  20  -7   2   45.00   13.40
 -20  12   2  128.49   18.60
  12   8   2  116.39   21.30
  12 -20  -2   85.19   25.50
   8 -20   2  127.79   19.20
   8  12  -2  157.18   25.20
 -20   8  -2  149.99   22.90
  20 -12  -2  136.89   20.80
  -8  20  -2  149.19   19.20
  20  -8   2  126.39   19.50
 -12  -8  -2  162.08   20.00
  -8 -12   2  157.48   22.50
 -12  20   2  132.29   17.30
   9  11  -2   -0.50   17.50
  11 -20  -2   32.60   14.90
 -20   9  -2   45.60   16.60
 -20  11   2   31.40   11.60
  11   9   2   53.49   14.80
   9 -20   2   -2.10   13.10
  20  -9   2   33.20   13.00
  -9  20  -2   28.20   11.40
  20 -11  -2   34.80   14.80
  -9 -11   2   25.10   13.60
 -11  20   2   35.60   11.90
 -11  -9  -2   10.50   12.30
  10 -20   2  201.48   22.00
  10 -20  -2  235.58   23.90
 -20  10  -2  236.48   25.20
  10 -20  -2  117.09   28.90
  10  10  -2  200.28   26.00
 -20  10   2  221.68   20.40
  10  10   2  162.88   20.80
 -10  20   2  189.98   19.70
  20 -10  -2  195.58   22.00
 -10  20  -2  204.18   20.30
 -10 -10  -2  188.68   21.30
  20 -10   2  198.28   21.60
 -10 -10   2  212.08   23.50
 -20  11  -2  172.18   25.90
 -20   9   2  229.28   20.30
   9  11   2  165.28   20.30
  11 -20   2  202.38   20.50
   9 -20  -2  137.99   23.40
   9  11   2  127.09   27.90
   9 -20  -2  116.59   31.80
 -11  -9   2  176.48   22.90
  20 -11   2  184.48   21.00
 -11  20  -2  204.28   19.80
  20  -9  -2  187.98   21.30
  -9 -11  -2  199.98   20.50
  -9  20   2  180.88   19.50
 -20  12  -2   30.00   17.80
   8 -20  -2   25.70   15.90
   8  12   2   19.20   14.20
  12 -20   2    9.00   12.50
 -20   8   2   29.00   12.20
  20  -8  -2   38.10   14.10
  -8  20   2   23.70   11.70
  -8 -12  -2   10.30   12.60
  20 -12   2   18.40   13.60
 -12  20  -2   14.80   11.30
 -12  -8   2   22.10   14.20
   7  13   2   64.49   16.50
 -20  13  -2  153.98   24.10
  13 -20   2  104.79   17.70
 -20   7   2  104.89   17.80
   7 -20  -2  128.29   21.60
 -13  -7   2   91.79   15.60
  20 -13   2  123.09   18.90
  -7  20   2  117.49   17.90
  20  -7  -2  118.19   18.90
  -7 -13  -2   99.19   18.00
 -13  -7   2   78.69   16.30
 -13  20  -2  119.39   17.10
 -20  14  -2   72.69   18.30
   6 -20  -2   69.69   17.90
  14 -20   2   44.40   13.00
 -20  14  -2   45.70   17.40
 -20   6   2   55.39   13.80
   6  14   2   92.69   19.80
 -14  20  -2   78.09   13.90
 -14  -6   2   38.90   12.20
  -6  20   2   55.79   12.80
  -6 -14  -2   47.10   13.40
  20 -14   2   65.89   14.70
  20  -6  -2   67.49   15.50
 -14  -6   2   37.00   16.00
   5  15   2   36.40   14.90
  15   5  -2   31.80   17.80
  15 -20   2   18.50   11.80
 -20   5   2    7.20   12.70
 -20  15  -2   47.40   14.10
   5 -20  -2    7.70   16.40
 -20  15  -2   63.79   18.10
  -5  20   2   14.20   12.50
  20  -5  -2   31.90   14.60
 -15  -5   2  -11.10   16.70
  -5 -15  -2    7.60   12.60
 -15  -5   2    6.80   11.80
 -15  20  -2   26.80   11.70
  20 -15   2   17.10   14.30
 -20   4   2   50.79   13.70
   4  16   2   46.90   15.80
   4 -20  -2   66.19   16.00
  16 -20   2   40.40   13.20
 -20  16  -2   64.89   16.30
  16   4  -2   65.49   20.20
 -20  16  -2   39.60   17.90
 -16  -4   2   37.40   12.80
  -4 -16  -2   37.60   14.10
  20 -16   2   49.00   15.20
 -16  20  -2   51.19   13.80
  20  -4  -2   50.39   15.00
 -16  -4   2   11.10   17.10
  -4  20   2   48.10   13.70
   3 -20  -2   52.69   16.40
 -20  17  -2   40.90   15.00
 -20   3   2   38.70   13.90
  17   3  -2   71.59   16.50
   3  17   2   48.00   16.00
  17 -20   2   49.40   19.20
  17 -20   2   29.40   13.20
  -3 -17  -2   35.70   13.00
  -3  20   2   46.30   14.60
 -17  20  -2   31.30   13.40
  20 -17   2   30.90   15.70
 -17  -3   2   -4.80   18.10
 -17  -3   2   21.00   13.80
  20  -3  -2   52.39   15.70
   2 -20  -2  381.36   30.40
  18 -20   2  384.56   31.00
  18   2  -2  357.66   30.00
  18 -20   2  367.56   29.00
 -20   2   2  342.77   28.50
 -20  18  -2  370.46   29.50
   2  18   2  391.36   30.20
  20  -2  -2  359.66   28.90
 -18  20  -2  363.86   27.90
  20 -18   2  334.27   30.30
 -18  -2   2  319.57   28.10
  -2 -18  -2  353.56   28.70
 -18  -2   2  367.86   34.30
  -2  20   2  370.86   30.30
 -20   1   2  183.98   22.40
  19 -20   2  159.08   22.40
   1  19   2  262.07   25.20
  19 -20   2  221.58   26.20
 -20  19  -2  242.08   23.20
  19   1  -2  195.68   23.60
   1 -20  -2  200.28   24.30
 -19  20  -2  220.48   22.40
  20 -19   2  200.98   21.10
  20  -1  -2  258.87   23.60
  -1  20   2  224.08   25.20
  -1 -19  -2  195.68   23.80
 -19  -1   2  159.28   22.60
  20 -19   2  211.88   25.90
 -20   0   2   48.70   14.30
   0 -20  -2   20.00   15.00
   0  20   2  102.79   21.90
  20 -20   2   62.39   15.30
 -20  20  -2   90.89   19.30
  20   0  -2   60.89   17.40
   0  21  -2   32.50   18.50
 -21  21   2   50.69   14.10
  21 -21  -2   50.99   19.60
   0 -21   2   11.30   15.30
 -21   0  -2   25.30   15.50
  21   0   2   43.90   17.40
   1  20  -2   24.00   15.40
   1 -21   2    6.00   14.80
  20 -21  -2   37.40   18.60
 -21   1  -2   15.30   15.30
 -21  20   2   30.40   14.50
  20   1   2   30.30   16.90
  -1 -20   2   17.20   15.20
  -1  21  -2   22.60   15.30
 -20  -1  -2   15.40   16.20
 -20  21   2   16.10   14.10
  21  -1   2   29.80   16.90
  21 -20  -2   30.40   18.20
 -21   2  -2   -5.20   15.50
 -21  19   2   -1.20   13.50
  19   2   2   -6.40   17.40
   2 -21   2  -12.80   14.60
  19 -21  -2  -14.00   19.70
   2  19  -2   10.90   15.20
 -19  -2  -2    5.00   14.30
  21 -19  -2    1.40   17.40
 -19  21   2    1.70   12.90
  21  -2   2   10.50   15.40
  -2 -19   2    2.00   13.90
  -2  21  -2    6.90   13.40
   3  18  -2   80.89   17.80
  18 -21  -2   67.79   20.80
  18   3   2  109.49   19.00
   3 -21   2   84.49   17.10
 -21   3  -2  105.09   17.90
 -21  18   2   96.19   18.80
 -18  21   2   99.69   17.10
  21  -3   2  118.99   19.70
  -3 -18   2   85.99   16.50
  21 -18  -2  116.59   20.70
 -18  -3  -2  101.29   16.60
  -3  21  -2  108.49   20.00
   4  17  -2   51.09   19.50
   4 -21   2   20.30   17.40
  17   4   2   58.29   17.60
 -21  17   2   37.10   14.00
 -21   4  -2   40.60   15.60
  17 -21  -2   28.30   19.30
  21  -4   2   41.10   16.60
 -17  21   2   22.30   12.70
 -17  -4  -2   23.80   14.70
  21 -17  -2   34.60   17.30
  -4 -17   2   34.10   15.20
  -4  21  -2   45.00   14.90
 -21  16   2   73.39   15.30
  16   5   2   84.49   18.80
 -21   5  -2   48.20   16.40
   5 -21   2   62.19   15.60
   5  16  -2   60.59   16.90
  16 -21  -2   32.40   21.50
  -5  21  -2   67.79   14.90
  21 -16  -2   90.39   18.40
  21  -5   2   65.69   15.10
 -16  21   2   84.29   16.50
 -16  -5  -2   73.79   15.10
  -5 -16   2   66.99   15.50
  15 -21  -2  116.59   25.30
  15   6   2  104.09   20.70
 -21  15   2  106.59   18.50
   6  15  -2   91.59   17.10
 -21   6  -2   89.99   17.00
   6 -21   2  107.79   19.70
 -15  21   2   85.59   17.20
  21  -6   2  104.89   19.30
  -6  21  -2  102.89   18.60
 -15  -6  -2   75.09   14.80
  21 -15  -2   99.79   20.20
  -6 -15   2  104.99   20.70
 -21   7  -2  137.59   23.70
   7  14  -2  142.19   24.30
 -21  14   2  119.69   19.20
  14   7   2  144.79   20.70
  14 -21  -2  112.39   23.80
   7 -21   2  107.69   20.20
 -14  -7  -2  130.59   20.10
  -7 -14   2  149.59   22.10
  -7  21  -2  144.79   19.00
  21 -14  -2  102.29   20.80
 -14  21   2  146.69   17.50
  21  -7   2  123.09   19.60
   8  13  -2   70.39   19.90
  13 -21  -2   -5.00   26.20
   8 -21   2   83.89   15.40
 -21  13   2   77.89   15.10
  13   8   2   52.29   17.50
 -21   8  -2   85.19   17.80
 -13  -8  -2   63.69   14.10
  21  -8   2   92.19   18.70
 -13  21   2   76.99   16.50
  -8  21  -2   64.39   12.90
  -8 -13   2   84.49   16.50
  21 -13  -2   68.39   15.60
   9 -21   2  136.49   20.00
 -21   9  -2  109.89   22.50
   9  12  -2  141.49   24.90
  12   9   2  120.29   19.90
 -21  12   2  125.59   18.50
  12 -21  -2   38.90   26.90
 -12  -9  -2   84.29   15.40
  21  -9   2  130.09   19.40
  21 -12  -2  125.89   19.90
  -9  21  -2   85.69   17.40
 -12  21   2  107.19   17.30
  -9 -12   2  111.59   22.60
  10  11  -2  187.28   26.60
  11 -21  -2  113.99   28.40
  11  10   2  144.79   26.50
 -21  10  -2  238.28   26.20
 -21  11   2  175.38   20.50
  10 -21   2  198.38   21.90
  11 -21  -2  209.88   24.40
  21 -11  -2  180.68   21.60
 -11 -10  -2  172.38   21.00
 -10  21  -2  210.68   20.30
 -11  21   2  193.18   19.70
  21 -10   2  162.88   20.90
 -10 -11   2  166.48   22.90
  11  10  -2   -1.80   19.60
  10 -21  -2   38.20   16.40
 -21  11  -2   51.19   17.70
 -21  10   2   22.70   13.30
  11 -21   2    8.30   12.60
  10  11   2    1.80   15.40
 -10  21   2    8.80   12.00
 -11  21  -2   14.40   11.80
  21 -11   2   24.60   13.20
  21 -10  -2   32.50   14.10
 -11 -10   2   12.00   14.70
 -10 -11  -2    8.20   12.10
  12 -21   2  200.38   21.40
   9 -21  -2  134.09   23.60
 -21   9   2  197.28   20.50
 -21  12  -2  277.37   27.50
  -9 -12  -2  178.98   20.80
 -12  -9   2  190.78   24.30
 -12  21  -2  187.98   20.10
  21  -9  -2  208.48   21.50
  21 -12   2  187.48   21.70
  -9  21   2  187.38   20.40
   8 -21  -2  158.48   23.20
   8  13   2   77.29   18.80
 -21   8   2  122.89   19.20
 -21  13  -2  190.78   25.90
  13 -21   2  145.59   19.30
  21 -13   2  131.89   20.20
  21  -8  -2  131.79   19.70
 -13  21  -2  144.09   18.50
  -8  21   2  133.79   18.40
 -13  -8   2  126.09   22.90
  -8 -13  -2  118.69   19.20
   7  14   2   21.90   26.20
 -21  14  -2   72.39   19.60
 -21   7   2   20.00   13.30
   7 -21  -2   13.60   16.60
  14 -21   2   -8.00   12.70
 -14  -7   2  -16.70   15.70
  -7  21   2   26.20   12.50
  21 -14   2   17.20   14.20
  21  -7  -2   31.30   14.90
  -7 -14  -2   23.00   13.60
 -14  21  -2   23.60   12.80
  15 -21   2  106.19   19.20
   6  15   2  178.58   22.20
 -21  15  -2  156.98   25.40
   6 -21  -2  145.09   24.00
 -21   6   2  106.39   18.80
  -6  21   2  112.69   19.10
  21 -15   2  117.79   20.40
  21  -6  -2  115.79   19.10
 -15  -6   2   91.29   14.60
 -15  21  -2  131.19   17.70
 -15  -6   2  124.69   23.50
  -6 -15  -2   90.89   19.00
   5 -21  -2   17.80   16.40
  16 -21   2    3.10   13.70
 -21  16  -2   58.69   20.90
   5  16   2   28.70   16.20
 -21   5   2   -3.40   12.70
 -16  21  -2   14.20   13.50
 -16  -5   2    0.80   17.00
  21  -5  -2   34.20   14.80
  -5  21   2   28.40   13.10
  21 -16   2   24.00   15.40
  -5 -16  -2   18.00   13.60
  17 -21   2   97.59   19.20
  17   4  -2  175.78   31.80
   4  17   2  118.79   23.30
   4 -21  -2  146.39   24.70
 -21   4   2   90.79   15.60
  21 -17   2  141.09   21.50
 -17  21  -2  126.89   18.40
 -17  -4   2   58.69   19.30
  -4 -17  -2  113.79   19.10
  -4  21   2  143.19   20.40
  21  -4  -2  149.39   20.40
 -17  -4   2   87.59   16.40
  18   3  -2  199.78   25.60
   3  18   2  209.38   24.30
 -21   3   2  146.79   21.60
  18 -21   2  169.18   21.00
   3 -21  -2  184.68   24.30
  -3  21   2  178.08   22.30
 -18  21  -2  163.88   20.90
 -18  -3   2  150.88   20.60
  21  -3  -2  178.48   21.80
  21 -18   2  162.58   23.80
  -3 -18  -2  142.69   21.10
 -18  -3   2  142.79   28.70
   2  19   2   63.39   16.70
 -21   2   2   38.80   14.90
   2 -21  -2   31.30   15.80
 -21  19  -2   35.60   16.80
  19 -21   2   11.30   14.90
  -2 -19  -2   35.80   16.30
  21 -19   2   72.49   17.90
  -2  21   2   60.29   16.30
 -19  21  -2   91.89   18.60
 -19  -2   2   10.40   14.50
  21  -2  -2   50.49   16.40
   1 -21  -2  279.07   26.20
   1  20   2  333.37   28.40
  20 -21   2  232.18   25.20
  20 -21   2  286.67   29.20
 -21   1   2  203.28   26.00
 -21  20  -2  252.87   26.60
  20   1  -2  329.87   27.20
 -20  -1   2  210.78   26.40
  21 -20   2  308.57   28.00
  21  -1  -2  248.48   25.40
 -20  21  -2  288.77   26.20
  -1  21   2  279.17   27.60
  -1 -20  -2  240.68   26.00
  21 -21   2  111.19   20.60
 -21  21  -2  198.48   22.40
  21   0  -2  192.28   22.80
   0 -21  -2  141.89   22.60
  21 -21   2  188.48   25.70
   0  21   2  146.09   25.00
 -22  21   2   20.20   14.00
  21 -22  -2   30.00   20.10
  21   1   2   19.30   18.50
 -22   1  -2   17.00   16.40
   1  21  -2   -2.50   15.10
   1 -22   2    1.50   15.70
 -21  22   2    2.70   13.30
  -1  22  -2   -2.90   15.50
  22 -21  -2   35.00   19.00
 -21  -1  -2   10.60   15.50
  -1 -21   2    8.00   15.10
  22  -1   2    2.90   16.40
 -22  20   2   31.30   15.10
   2 -22   2   30.00   17.30
   2  20  -2   43.60   17.10
 -22   2  -2   24.20   16.20
  20 -22  -2   64.69   19.40
  20   2   2   44.90   18.30
 -20  22   2   29.70   13.80
  22  -2   2   22.40   17.20
  -2 -20   2   19.10   16.20
 -20  -2  -2   28.80   14.70
  22 -20  -2   44.20   18.10
  -2  22  -2   22.60   14.80
   3  19  -2   55.39   17.50
   3 -22   2   63.09   16.90
  19 -22  -2   60.79   20.90
 -22  19   2   74.29   15.20
  19   3   2   83.39   19.50
 -22   3  -2   70.29   17.40
  22 -19  -2   93.59   20.10
  -3 -19   2   68.59   16.30
  22  -3   2   71.69   15.90
  -3  22  -2   68.49   15.30
 -19  -3  -2   58.89   15.40
 -19  22   2   60.59   14.70
  18 -22  -2  -16.60   20.30
   4 -22   2   27.50   15.40
 -22   4  -2   -6.90   16.10
  18   4   2   29.00   18.70
   4  18  -2   33.90   16.00
 -22  18   2   22.90   13.90
  -4  22  -2   26.10   13.30
  22 -18  -2   34.20   17.10
 -18  22   2   37.20   12.40
  -4 -18   2   33.80   15.10
 -18  -4  -2   33.50   15.30
  22  -4   2   39.10   14.80
   5  17  -2  140.69   25.70
 -22   5  -2  113.69   23.30
   5 -22   2  125.99   21.80
  17 -22  -2  140.49   24.90
  17   5   2  178.78   23.40
 -22  17   2  142.39   20.20
  -5  22  -2  158.18   20.30
  22  -5   2  134.49   20.90
 -17  22   2  146.39   19.10
 -17  -5  -2  136.99   21.30
  -5 -17   2  148.49   21.30
  22 -17  -2  128.89   20.90
   6 -22   2   67.39   16.20
  16 -22  -2   52.19   21.70
  16   6   2   91.09   19.10
 -22   6  -2   48.80   17.70
   6  16  -2   41.70   17.90
 -22  16   2   86.49   18.20
 -16  -6  -2   61.89   16.00
  -6 -16   2   71.79   15.80
  22 -16  -2   61.89   16.10
 -16  22   2   66.39   12.70
  22  -6   2   70.79   15.70
  -6  22  -2   78.79   14.90
   7  15  -2   18.70   16.40
  15 -22  -2  -17.40   22.50
 -22   7  -2   24.40   16.30
   7 -22   2   36.90   15.90
 -22  15   2   39.00   14.10
  15   7   2   58.09   17.90
  -7  22  -2   43.00   13.50
 -15  22   2   33.90   12.40
 -15  -7  -2   25.50   13.80
  22 -15  -2   32.80   15.40
  22  -7   2   23.60   14.70
  -7 -15   2   26.40   15.50
  14 -22  -2   59.29   22.40
 -22  14   2   45.80   14.70
  14   8   2   15.80   20.30
   8  14  -2   67.39   20.60
   8 -22   2   42.90   14.70
 -22   8  -2   77.89   17.10
 -14  22   2   58.69   12.80
  -8 -14   2   69.69   15.70
 -14  -8  -2   51.59   14.10
  -8  22  -2   36.20   13.00
  22 -14  -2   52.49   15.20
  22  -8   2   54.29   14.10
  13   9   2  159.58   22.10
   9  13  -2  161.98   25.70
   9 -22   2  137.09   21.20
 -22  13   2  142.29   20.40
 -22   9  -2  185.28   25.30
  22  -9   2  162.78   20.70
  -9 -13   2  138.39   23.50
 -13  -9  -2  129.69   20.50
  -9  22  -2  132.89   20.60
  22 -13  -2  140.99   20.60
 -13  22   2  144.29   18.20
  12  10   2  151.88   24.50
 -22  10  -2  226.98   26.40
  10 -22   2  163.28   23.10
  10  12  -2  205.88   27.60
 -22  12   2  194.68   21.20
  22 -12  -2  174.68   21.80
 -12  22   2  185.78   19.60
 -12 -10  -2  133.69   21.00
 -10 -12   2  177.08   25.10
 -10  22  -2  182.98   20.30
  22 -10   2  189.88   21.70
  11 -22   2  271.37   25.30
 -22  11   2  319.27   25.10
  11  11  -2  324.67   31.30
 -22  11  -2  356.46   30.20
 -11  22  -2  269.87   23.80
 -11  22   2  288.97   24.00
  22 -11   2  249.18   24.90
  22 -11  -2  268.57   24.50
 -11 -11  -2  235.98   24.50
 -11 -11   2  256.77   26.80
 -22  12  -2  190.18   26.90
 -22  10   2  134.49   20.30
  12 -22   2  132.09   20.40
  12  10  -2  126.09   26.60
  10 -22  -2  138.79   24.20
 -10  22   2  109.39   18.20
 -10 -12  -2  111.19   19.30
  22 -12   2  113.89   20.10
 -12 -10   2  115.49   22.50
 -12  22  -2  127.09   18.30
  22 -10  -2  143.29   21.60
  13 -22   2   86.89   15.90
 -22   9   2   90.99   19.10
 -22  13  -2  161.18   26.20
 -13  -9   2  119.49   22.60
  22 -13   2  107.19   20.10
  -9  22   2   94.69   17.90
  22  -9  -2   93.39   20.20
  -9 -13  -2   96.99   18.90
 -13  22  -2  111.89   18.10
   8 -22  -2  164.58   25.40
 -22  14  -2  206.68   27.30
  14 -22   2  148.49   21.10
 -22   8   2  150.18   20.80
  -8  22   2  165.38   19.80
 -14  22  -2  184.28   19.60
  22 -14   2  133.09   21.60
 -14  -8   2  149.39   24.70
  -8 -14  -2  157.68   20.60
  22  -8  -2  166.78   20.00
   7 -22  -2  143.29   24.70
  15 -22   2  121.99   20.50
   7  15   2  183.08   23.00
 -22   7   2  130.39   19.70
  22  -7  -2  134.69   20.00
  22 -15   2  117.99   21.40
 -15  -7   2  145.59   24.30
 -15  22  -2  138.39   18.20
  -7  22   2  150.28   20.40
  -7 -15  -2  103.69   19.40
 -22   6   2    8.30   13.80
 -22  16  -2   60.79   21.50
   6 -22  -2   47.70   18.40
  16 -22   2    0.50   13.20
  22 -16   2   30.00   15.80
 -16  22  -2   26.40   14.70
  22  -6  -2   32.40   14.70
  -6 -16  -2   27.30   14.50
  -6  22   2   28.00   12.90
 -16  -6   2   11.30   17.00
 -16  -6   2    5.50   12.10
 -22  17  -2   88.69   22.50
   5 -22  -2   69.09   20.20
   5  17   2   62.79   18.30
  17 -22   2   50.69   14.30
 -22   5   2   27.70   15.50
  22  -5  -2   66.59   16.60
  -5  22   2   53.59   14.40
 -17  22  -2   60.09   14.30
  -5 -17  -2   33.10   13.60
 -17  -5   2   21.90   13.30
  22 -17   2   68.49   17.60
 -17  -5   2   46.80   18.80
   4 -22  -2    5.30   17.30
 -22   4   2   10.10   14.90
  18 -22   2   30.80   15.20
   4  18   2   10.20   17.20
  22 -18   2   28.10   16.70
 -18  -4   2   22.30   19.00
  22  -4  -2   42.10   15.80
  -4  22   2   21.10   14.40
 -18  -4   2   -9.20   13.30
  -4 -18  -2   20.80   15.10
 -18  22  -2   32.50   15.30
 -22  19  -2  280.77   30.20
  19 -22   2  197.78   24.40
   3  19   2  292.67   27.30
   3 -22  -2  203.98   27.70
 -22   3   2  221.38   24.80
  19   3  -2  180.28   25.90
  -3  22   2  231.98   24.50
  22  -3  -2  239.38   23.70
 -19  -3   2  177.58   26.10
  -3 -19  -2  192.38   23.70
  22 -19   2  237.78   26.10
 -19  22  -2  229.08   23.50
   2  20   2  173.88   25.40
  20   2  -2  131.49   23.50
 -22   2   2   80.09   17.30
 -22  20  -2  173.88   25.30
  20 -22   2   80.09   17.20
   2 -22  -2  151.08   23.70
  22  -2  -2  121.99   20.80
 -20  22  -2  121.99   21.20
  -2 -20  -2  104.39   18.80
  22 -20   2  136.59   23.70
 -20  -2   2  111.59   21.10
  -2  22   2  177.18   23.40
 -22  21  -2    9.40   18.00
 -22   1   2   10.60   15.10
  21   1  -2   43.10   19.60
  21 -22   2    9.60   14.70
   1  21   2   27.90   18.20
   1 -22  -2   20.80   16.60
 -21  -1   2   12.00   15.80
  22  -1  -2   50.09   17.40
  -1 -21  -2   17.10   17.20
  22 -21   2   16.60   20.60
 -21  22  -2   40.40   15.40
  -1  22   2   17.00   18.10
  20 -23  -2   41.60   20.30
   3 -23   2    9.10   16.00
   3  20  -2   31.00   16.00
  20   3   2   34.00   19.90
 -23  20   2   -3.00   15.50
 -23   3  -2   10.20   16.60
  23  -3   2   23.60   16.40
 -20  23   2   17.00   13.40
 -20  -3  -2  -12.40   15.90
  -3  23  -2   25.20   15.30
  23 -20  -2   11.60   18.10
  -3 -20   2    8.50   16.10
  19   4   2  203.78   25.10
   4 -23   2  182.08   24.10
 -23  19   2  199.68   21.80
   4  19  -2  150.28   24.50
  19 -23  -2  145.39   24.60
 -23   4  -2  120.79   25.20
 -19  23   2  159.08   19.50
  -4  23  -2  164.08   21.70
  23 -19  -2  142.69   21.80
  -4 -19   2  182.58   22.90
  23  -4   2  151.38   21.90
 -19  -4  -2  127.99   23.00
 -23   5  -2  117.49   20.40
  18   5   2  167.38   24.30
  18 -23  -2   46.80   22.80
   5  18  -2  143.69   22.90
   5 -23   2  134.19   22.30
 -23  18   2  126.29   20.30
  23  -5   2  108.19   20.60
 -18  23   2  112.39   18.00
  -5  23  -2  112.09   21.00
  -5 -18   2  127.19   22.20
  23 -18  -2  115.69   20.50
 -18  -5  -2   89.99   17.10
 -23  17   2   40.00   15.10
  17   6   2   17.50   19.80
 -23   6  -2   10.60   17.80
  17 -23  -2  -20.80   21.80
   6  17  -2    3.60   20.40
   6 -23   2   26.70   15.30
  23  -6   2   24.30   14.60
  -6 -17   2   -2.20   15.00
  23 -17  -2   26.00   16.00
 -17  23   2   23.80   12.50
  -6  23  -2   12.10   13.00
 -17  -6  -2    3.90   14.50
 -23   7  -2   26.80   18.00
 -23  16   2   41.40   14.50
   7 -23   2   29.40   15.50
   7  16  -2   47.40   18.10
  16 -23  -2   47.20   21.30
  16   7   2   68.89   18.60
 -16  23   2   27.70   13.10
  23 -16  -2   46.80   16.50
  -7  23  -2   36.10   14.00
  23  -7   2   29.90   15.80
  -7 -16   2   28.30   15.30
 -16  -7  -2   23.70   15.10
  15   8   2  106.29   21.70
   8 -23   2  147.89   21.40
   8  15  -2  162.78   24.40
 -23  15   2  127.09   21.10
 -23   8  -2  159.18   25.10
  -8  23  -2  146.59   19.20
  -8 -15   2  160.98   23.40
  23  -8   2  129.89   20.80
  23 -15  -2  148.99   20.80
 -15  -8  -2  104.99   20.70
 -15  23   2  159.48   19.20
   9  14  -2  100.69   21.00
   9 -23   2  122.49   21.50
  14   9   2  152.58   22.20
 -23   9  -2  105.19   20.10
 -23  14   2  116.39   19.70
 -14  -9  -2   77.89   15.70
  23  -9   2   95.89   19.70
 -14  23   2  103.49   17.10
  -9  23  -2   99.59   17.80
  -9 -14   2   97.99   17.60
  23 -14  -2  113.39   19.50
 -23  10  -2  128.79   25.40
  10 -23   2   98.29   18.20
 -23  13   2  125.69   19.80
  10  13  -2  108.69   22.60
  23 -10   2  118.99   19.80
 -10 -13   2   85.09   18.40
 -10  23  -2  118.29   18.00
 -13  23   2  108.49   17.10
  23 -13  -2  107.89   19.20
 -13 -10  -2   83.19   15.90
 -23  11  -2  187.58   25.80
  11  12  -2  136.59   27.00
 -23  12   2  132.59   20.30
  11 -23   2  124.39   22.30
 -11 -12   2  102.79   20.20
  23 -11   2  112.49   20.00
  23 -12  -2  120.29   19.30
 -11  23  -2  110.49   17.90
 -12  23   2  110.09   18.00
 -12 -11  -2   95.39   19.40
 -23  12  -2   66.89   20.80
  12 -23   2   61.99   15.30
  12  11  -2   95.89   23.60
 -23  11   2   83.89   16.40
 -11  23   2   78.99   14.80
 -11 -12  -2   72.19   15.10
 -12 -11   2   74.19   18.60
 -12  23  -2  107.89   17.50
  23 -11  -2  122.29   18.60
  23 -12   2   95.49   19.50
 -23  10   2  266.47   24.60
 -23  13  -2  307.47   30.60
  13  10  -2  318.87   31.40
  10 -23  -2  228.68   29.30
  13 -23   2  240.28   24.10
 -13 -10   2  259.27   26.60
  23 -10  -2  233.58   23.30
 -10  23   2  214.18   22.40
 -10 -13  -2  223.08   23.50
 -13  23  -2  254.27   22.80
  23 -13   2  224.98   24.10
  14 -23   2   20.90   14.40
 -23   9   2   20.30   14.80
   9 -23  -2   41.60   18.30
  14   9  -2   42.50   21.60
  23  -9  -2   29.30   16.00
 -14  -9   2   34.00   17.30
  23 -14   2   34.70   15.60
  -9 -14  -2   25.10   14.50
 -14  23  -2   35.80   14.10
  -9  23   2   19.30   12.90
 -23  15  -2  129.09   23.00
  15 -23   2   39.50   16.90
 -23   8   2   37.50   14.40
  23 -15   2   68.09   16.40
 -15  23  -2   61.99   13.90
 -15  -8   2   77.89   17.40
  -8  23   2   56.19   14.70
  -8 -15  -2   49.50   14.80
  23  -8  -2   64.79   15.20
  16 -23   2  178.88   21.70
   7 -23  -2  231.08   26.50
 -23   7   2  171.68   22.00
  23  -7  -2  157.78   21.20
  -7 -16  -2  136.99   20.90
 -16  23  -2  176.68   20.40
  23 -16   2  166.78   23.00
  -7  23   2  165.88   21.20
 -16  -7   2  191.58   26.60
  17 -23   2   59.19   17.70
 -23   6   2   32.60   18.50
   6 -23  -2   62.29   20.80
   6  17   2  113.29   20.10
  -6  23   2   62.09   15.60
 -17  -6   2   59.79   18.50
 -17  23  -2   43.60   14.60
  -6 -17  -2   26.70   13.80
  23 -17   2   72.69   17.30
  23  -6  -2   70.59   17.40
  18 -23   2   18.20   16.20
 -23   5   2   31.60   16.00
 -23  18  -2   99.49   27.30
   5  18   2   36.40   18.50
   5 -23  -2   54.49   19.10
 -18  23  -2   32.40   15.20
  -5  23   2   33.50   15.80
  -5 -18  -2   34.00   15.40
 -18  -5   2    5.50   13.90
  23  -5  -2   64.79   16.80
 -18  -5   2   74.79   20.00
  23 -18   2   53.29   17.90
  19 -23   2  122.19   20.50
   4 -23  -2   72.19   19.80
  23 -19   2  109.89   22.30
 -19  -4   2   91.39   25.30
  -4  23   2  100.69   20.50
 -19  23  -2  102.49   19.10
  -4 -19  -2   56.69   16.00
  23  -4  -2   75.79   17.40
  20 -23   2    6.50   15.70
   3 -23  -2   12.30   18.80
 -23   3   2   23.30   16.00
  -3 -20  -2   -4.10   16.50
  -3  23   2   39.90   16.20
  23  -3  -2    5.90   16.70
 -20  23  -2   21.30   15.90
  23 -20   2   40.70   18.70
   5  19  -2   -2.30   19.00
  19 -24  -2   29.20   21.90
   5 -24   2   15.90   16.90
 -24   5  -2   -6.90   19.10
  19   5   2   33.70   20.30
 -24  19   2  -12.60   15.10
  24 -19  -2   36.60   16.60
 -19  -5  -2   29.00   16.00
  -5 -19   2   25.70   15.90
 -19  24   2   21.30   12.90
  24  -5   2   22.00   15.20
  -5  24  -2   13.30   15.60
 -24   6  -2   63.99   20.40
   6  18  -2  123.69   23.50
   6 -24   2  120.09   22.70
 -24  18   2  166.28   20.40
  18   6   2  131.29   23.90
  24 -18  -2  128.59   20.90
 -18  24   2  128.29   19.00
  -6  24  -2  120.39   19.00
  24  -6   2  111.09   21.10
 -18  -6  -2  100.79   17.10
  -6 -18   2  119.39   22.00
 -24  17   2  118.29   22.00
 -24   7  -2  146.29   25.60
   7  17  -2  128.39   25.00
   7 -24   2  118.59   22.90
  17   7   2  137.19   24.30
 -17  24   2  136.79   18.70
 -17  -7  -2  115.69   20.90
  -7  24  -2  172.98   19.00
  24 -17  -2  130.39   20.70
  24  -7   2  134.89   21.10
  -7 -17   2  130.99   22.50
 -24   8  -2   27.70   17.90
  16   8   2   34.40   21.70
   8 -24   2   37.80   17.20
   8  16  -2   25.00   19.10
 -24  16   2   28.80   14.90
  24  -8   2   57.59   16.60
  -8 -16   2   31.80   15.90
  24 -16  -2   65.99   17.40
 -16  24   2   47.00   12.80
  -8  24  -2   52.79   14.90
 -16  -8  -2   33.00   14.80
 -24  15   2   18.00   15.00
   9  15  -2    0.70   18.80
 -24   9  -2   42.70   18.90
   9 -24   2    5.80   16.40
 -15  -9  -2  -12.10   14.20
  -9 -15   2   11.20   16.60
  24  -9   2   11.20   16.10
  -9  24  -2   -1.50   12.10
  24 -15  -2   19.70   14.80
 -15  24   2    2.50   12.90
  10 -24   2   47.00   16.80
 -24  14   2   91.49   18.90
  10  14  -2   34.80   22.50
 -10  24  -2   57.79   12.70
  24 -14  -2   88.89   18.90
 -14  24   2   50.29   13.10
  24 -10   2   59.29   16.50
 -10 -14   2   44.00   17.20
 -14 -10  -2   50.79   15.30
 -24  11  -2  165.38   27.30
 -24  13   2  162.58   21.30
  11  13  -2  107.89   24.30
  11 -24   2  132.49   21.90
  24 -13  -2  149.99   20.10
 -13  24   2  146.19   18.40
  24 -11   2  135.19   20.90
 -11  24  -2  141.59   19.50
 -11 -13   2  132.19   24.00
 -13 -11  -2  137.39   20.50
 -24  12  -2  259.97   27.90
 -24  12   2  171.68   22.90
  12 -24   2  190.88   22.60
  12  12  -2  165.48   28.70
 -12 -12  -2  167.78   22.60
 -12 -12   2  153.08   26.00
 -12  24   2  167.88   19.70
  24 -12  -2  183.48   21.00
  24 -12   2  156.98   22.00
 -12  24  -2  180.28   20.00
 -24  11   2   94.99   19.90
  13 -24   2   56.49   15.40
  13  11  -2   33.60   25.00
 -13  24  -2   74.39   14.90
 -13 -11   2   64.89   17.70
 -11  24   2   59.29   15.10
  24 -13   2   56.89   16.40
 -11 -13  -2   61.09   15.50
  24 -11  -2   90.29   17.90
  14  10  -2  114.19   24.40
  14 -24   2   83.49   15.70
  10 -24  -2   52.69   23.40
 -24  10   2   58.59   16.30
 -10  24   2   89.79   18.30
  24 -10  -2  103.39   18.70
 -14 -10   2   85.79   18.00
 -14  24  -2   99.09   17.80
 -10 -14  -2   63.99   15.50
  24 -14   2   95.79   20.10
  15 -24   2   80.79   16.50
  15   9  -2  169.78   28.60
   9 -24  -2  164.98   25.70
 -24   9   2   72.99   16.90
  -9  24   2   96.49   18.90
  24 -15   2  101.19   20.50
  -9 -15  -2   71.29   15.60
 -15  24  -2   98.19   17.30
  24  -9  -2  105.69   19.30
 -15  -9   2   87.29   19.30
 -24   8   2   17.80   15.50
  16 -24   2   39.50   15.10
  -8 -16  -2   10.30   14.40
  -8  24   2   28.60   14.30
  24 -16   2   35.80   16.20
 -16  -8   2   34.20   17.60
  24  -8  -2   46.60   16.90
 -16  24  -2   10.80   14.40
  17 -24   2   17.10   15.20
   7 -24  -2   40.70   19.30
 -24   7   2   17.90   15.40
 -17  -7   2   83.09   18.90
  -7 -17  -2   34.60   14.60
 -17  24  -2   41.40   15.60
  24 -17   2   58.59   17.10
  -7  24   2   51.99   15.50
  24  -7  -2   53.69   16.30
 -24   6   2   41.60   15.70
   6 -24  -2   79.19   19.60
  24 -18   2   81.79   18.40
  -6  24   2   60.09   18.30
 -18  -6   2   93.99   19.60
 -18  24  -2   61.19   16.50
  24  -6  -2   73.39   16.70
  -6 -18  -2   52.39   16.40
  19 -24   2   36.00   16.00
   5 -24  -2   50.19   19.20
  -5 -19  -2   17.60   15.00
  24 -19   2   36.90   18.40
  24  -5  -2   51.99   16.20
  -5  24   2   46.30   17.20
 -19  24  -2   54.59   15.60
   9  16  -2   42.00   22.40
   9 -25   2   66.49   17.00
 -25   9  -2   64.19   25.10
 -25  16   2   61.99   17.50
 -16  25   2   59.19   14.30
  25  -9   2   63.99   16.60
  25 -16  -2   68.09   16.70
  -9 -16   2   70.89   17.10
 -16  -9  -2   52.69   15.40
  -9  25  -2   56.09   14.50
 -25  15   2   42.10   14.80
  10 -25   2   31.90   17.90
  10  15  -2   31.70   20.50
 -15  25   2   31.90   14.20
 -10 -15   2   19.50   16.60
 -10  25  -2   24.10   12.20
  25 -15  -2   49.40   16.10
  25 -10   2   14.50   15.70
 -15 -10  -2   20.10   14.60
  11  14  -2   15.20   22.80
  11 -25   2    5.90   16.70
 -25  14   2   18.60   15.60
 -14  25   2   24.10   13.10
  25 -11   2   17.50   15.10
 -11  25  -2   17.80   12.50
  25 -14  -2   26.90   15.20
 -14 -11  -2   23.80   15.50
 -11 -14   2   34.80   17.70
  12 -25   2   37.20   15.50
  12  13  -2   49.80   22.70
 -25  13   2   10.40   15.90
 -13 -12  -2   22.40   14.60
 -12 -13   2   -0.10   18.20
  25 -12   2   53.89   15.30
 -12  25  -2   35.40   13.50
  25 -13  -2   51.99   15.90
 -13  25   2   27.30   12.70
 -25  12   2  263.07   24.90
  13  12  -2  235.28   31.20
  13 -25   2  194.88   24.80
 -13  25  -2  267.47   22.50
  25 -13   2  193.28   23.80
 -12 -13  -2  221.78   23.80
 -13 -12   2  215.38   28.70
 -12  25   2  220.08   22.20
  25 -12  -2  226.28   22.90
  14  11  -2  254.97   32.50
 -25  11   2  232.38   25.10
  14 -25   2  235.78   24.00
 -11  25   2  240.98   23.60
 -11 -14  -2  177.18   23.20
 -14 -11   2  235.68   29.30
 -14  25  -2  251.47   22.50
  25 -11  -2  220.18   23.10
  25 -14   2  216.48   24.30
  15 -25   2   37.30   17.60
  15  10  -2   22.60   25.80
 -25  10   2   49.00   16.00
  25 -10  -2   66.09   16.60
 -15  25  -2   40.00   14.40
 -10  25   2   50.09   14.50
  25 -15   2   76.89   19.00
 -10 -15  -2   39.90   14.70
 -15 -10   2   44.60   18.20
 -25   9   2   87.29   17.20
  16   9  -2  152.78   30.10
   9 -25  -2  100.19   23.10
  16 -25   2   76.99   17.00
  -9 -16  -2   75.89   16.10
  25 -16   2  117.59   21.60
  25  -9  -2   96.59   19.00
 -16  -9   2   86.19   19.70
  -9  25   2  114.09   19.40
 -16  25  -2  100.09   19.20
   0   0   3  221.78   15.20
   0   0  -3  242.08   16.30
   0   0   3  202.98   14.90
   0   0   3  206.88   14.50
   1   0   3  184.98   14.40
  -1   1   3  241.18   16.50
   1   0   3  236.88   15.70
  -1   1   3  206.38   14.80
  -1   1   3  230.68   15.60
   0   1  -3  234.98   16.90
   1  -1  -3  209.88   16.70
   0  -1   3  233.28   15.50
   0  -1   3  199.28   15.40
  -1   0  -3  261.07   16.30
   0   1  -3  231.88   20.80
   0  -1   3  206.18   14.70
  -1   1   3  182.98   14.70
   0   1   3   14.40    4.40
  -1   1  -3   11.60    4.80
   0   1   3    7.50    4.50
   0  -1  -3   -0.70    4.40
  -1   1  -3   -3.10    7.50
   1  -1   3    9.50    4.30
   1  -1   3   12.70    5.50
  -1   0   3    7.70    5.40
  -1   0   3    2.80    4.60
   0   1   3   -0.50    5.90
   0  -2   3   13.40    5.10
   0   2  -3   10.90    8.20
   2   0   3   20.70    4.20
   0   2  -3    3.40    5.60
   0  -2   3   11.80    6.20
  -2   1  -3 1372.06   76.49
   1  -2   3 1309.57   74.69
   1   1   3 1340.07   75.09
   1  -2  -3 1352.46   75.39
   1   1   3 1316.67   74.89
  -2   1   3 1200.08   74.49
  -2   1   3 1271.47   74.69
  -2   1   3 1357.46   75.69
  -2   1  -3 1426.56   75.29
   1  -2   3 1314.47   74.99
   1  -2   3 1211.78   74.49
   1   1   3 1165.78   74.29
  -2   1   3 1107.49   74.89
   1   1  -3 1405.06   77.49
   1   1  -3 1386.76   75.79
  -1   2  -3 1462.05   77.29
  -1   2   3 1332.87   74.89
  -1  -1  -3 1387.56   75.09
  -1  -1   3 1301.47   74.69
   2  -1  -3 1462.35   75.89
  -1   2   3 1357.36   75.39
  -1  -1   3 1285.27   74.69
   2  -1   3 1329.07   74.79
  -1   2  -3 1502.45   75.69
  -1   2   3 1245.48   74.49
   2  -1   3 1295.17   74.79
   2  -1   3 1191.58   74.29
   0   2   3 1103.89   60.79
   2  -2   3  987.30   59.89
   2  -2   3 1075.49   60.29
   2   0  -3 1201.88   61.79
   0   2   3 1057.59   60.39
  -2   0   3  977.80   60.09
   0  -2  -3 1099.99   60.79
  -2   2  -3 1189.98   61.09
   0  -2  -3  965.60   60.49
   0   2   3  958.80   59.89
  -2   0   3 1010.70   60.29
  -2   2  -3 1107.99   62.79
   2  -2   3 1048.30   60.49
  -2   0   3 1049.59   60.19
   0  -3   3  802.92   48.20
   0  -3   3  831.22   48.40
   0  -3   3  799.12   48.10
   3   0   3  832.42   48.40
   3  -3  -3  723.43   48.10
   0   3  -3  889.81   52.09
  -3   3   3  844.32   48.40
  -3   3   3  811.02   48.20
   3  -3  -3  910.71   49.60
  -3   3   3  851.41   49.40
  -3   0  -3  874.31   48.20
   0   3  -3  859.71   49.50
  -3   0  -3  768.42   49.70
  -3   2   3 1089.69   59.79
   1  -3   3  983.50   60.89
   1   2  -3 1146.59   61.19
   2   1   3  930.31   59.09
   2   1   3 1049.09   59.69
   2  -3  -3 1170.48   60.79
  -3   1  -3 1062.39   61.29
  -3   1  -3 1111.49   59.89
  -3   2   3 1026.20   59.69
  -3   2   3 1114.29   60.89
   1  -3   3 1012.90   59.49
   1   2  -3 1129.19   63.39
   2   1   3 1057.69   59.89
   1  -3   3 1017.60   59.99
  -1   3  -3 1097.99   62.79
  -2  -1  -3  950.70   60.19
   3  -1   3  955.40   59.69
  -1   3  -3 1124.39   60.69
   3  -1   3  887.31   59.09
  -2  -1  -3 1064.89   59.79
  -2   3   3 1077.49   60.69
  -2   3   3 1005.90   59.79
   3  -1   3 1012.40   59.79
  -1  -2   3  981.90   59.59
   3  -2  -3 1117.29   60.99
  -3   2  -3  124.69   12.10
   1   2   3  113.79   11.80
   2   1  -3  118.09   19.10
   2  -3   3  134.29   10.50
   1  -3  -3  160.78   13.00
  -3   1   3  119.09   11.30
   2   1  -3  108.99   14.00
   2  -3   3  142.69   11.20
   1   2   3  159.08   11.80
   1   2   3  138.29   10.00
  -3   1   3  136.59   13.50
   3  -2   3  159.08   11.70
  -1  -2  -3  119.39   12.50
  -2   3  -3  125.99   17.50
   3  -1  -3  145.59   14.30
  -2  -1   3  107.79   11.20
   3  -2   3  103.79   11.90
  -1   3   3  123.49   11.80
  -1   3   3  146.79   10.60
  -2  -1   3  113.69   11.60
  -1  -2  -3  106.39   11.50
  -2  -1   3  101.19   11.20
  -1   3   3  156.88   12.50
  -3   0   3  811.22   47.90
  -3   0   3  818.02   48.00
   3  -3   3  832.82   48.50
  -3   3  -3  920.21   48.80
   3  -3   3  781.92   47.80
  -3   0   3  778.82   48.00
   3   0  -3  935.91   49.80
   3  -3   3  831.92   48.10
   0  -3  -3  867.31   48.70
   0   3   3  748.93   47.60
   0   3   3  880.31   48.80
  -3   3  -3  893.41   50.29
   0   3   3  827.32   48.30
  -4   4   3   93.69    9.70
  -4   4   3   82.29    9.60
   4  -4  -3   71.89    8.70
   0  -4   3   67.89    8.90
  -4   4   3   92.19   12.50
   0  -4   3   93.29   10.60
   4   0   3   66.59   10.40
   0  -4   3   88.19    9.50
   0   4  -3  112.89   19.30
   4  -4  -3   87.59   12.80
  -4   0  -3   73.79   12.40
   3  -4  -3  479.25   27.90
   1  -4   3  418.36   26.60
   1   3  -3  457.05   28.30
   1  -4   3  423.66   26.00
   1   3  -3  454.35   31.90
   1  -4   3  433.96   26.00
  -4   3   3  446.56   26.20
   3   1   3  417.56   26.60
  -4   3   3  446.86   27.90
  -4   3   3  420.16   26.20
   4  -1   3  416.96   26.50
  -1  -3   3  415.86   26.20
  -1  -3   3  387.96   25.80
   4  -3  -3  464.55   28.30
  -3   4   3  429.86   27.60
  -3   4   3  403.06   26.50
  -1  -3   3  423.06   26.50
  -3   4   3  391.76   26.00
  -3  -1  -3  392.96   27.40
  -1   4  -3  462.25   30.50
   2  -4   3  613.14   35.90
  -4   2  -3  660.83   36.30
  -4   2   3  672.13   36.30
   2   2  -3  672.63   41.40
  -4   2   3  648.54   37.60
   2  -4   3  625.74   36.70
  -4   2   3  605.54   36.20
   2  -4   3  557.44   36.50
   2   2   3  632.94   36.30
  -4   2  -3  572.44   37.60
   2   2   3  622.84   36.40
   2   2  -3  685.33   38.20
   2   2   3  523.65   35.40
   2  -4  -3  527.05   36.20
   2  -4  -3  673.33   37.40
  -4   2   3  557.94   35.60
  -2   4   3  631.64   37.20
  -2   4   3  623.04   36.30
  -2  -2   3  574.04   37.10
  -2   4   3  569.14   36.50
  -2  -2   3  606.24   36.10
   4  -2   3  624.64   36.40
   4  -2  -3  681.83   37.90
  -2  -2  -3  592.54   36.90
   4  -2   3  639.04   36.40
  -2   4  -3  644.54   39.40
  -2  -2  -3  594.54   36.30
  -4   1   3  395.96   23.10
  -4   3  -3  380.76   25.40
   3  -4   3  353.16   22.20
   1  -4  -3  343.17   23.50
  -4   1   3  354.96   23.10
   3   1  -3  377.76   29.10
   1   3   3  369.26   23.30
   3  -4   3  351.96   23.50
  -4   1   3  321.87   22.50
   3   1  -3  387.46   25.20
   1  -4  -3  388.66   24.20
   1   3   3  354.86   23.40
  -4   1   3  364.26   24.50
   3  -4   3  386.86   23.10
   1   3   3  355.26   22.40
  -4   3  -3  413.26   23.50
   4  -1  -3  367.46   25.00
   4  -3   3  371.06   23.10
  -3   4  -3  395.36   26.70
  -1   4   3  359.16   23.30
  -3  -1   3  336.27   23.00
  -3  -1   3  373.96   23.00
  -1   4   3  332.07   22.60
  -1  -3  -3  335.37   23.80
  -1  -3  -3  373.26   23.60
  -1   4   3  382.46   24.00
  -3  -1   3  371.56   22.90
   4  -3   3  374.26   23.60
   4  -4   3  125.79   12.30
   4  -4   3  131.89   11.60
  -4   0   3  146.89   11.20
   0   4   3  118.29   10.50
   0   4   3  142.79   12.60
   4   0  -3  123.99   14.50
   0  -4  -3  127.89   13.00
  -4   0   3  110.49   11.50
   0   4   3  118.19   12.00
   0  -4  -3  127.39   13.00
  -4   0   3  139.79   11.10
  -4   4  -3  150.18   15.90
  -5   5   3    6.40    6.20
   0  -5   3    5.90    5.50
   0  -5   3    0.30    4.60
   5  -5  -3    3.30    6.20
   0  -5   3    4.50    6.00
  -5   0  -3   -3.60    7.30
  -5   5   3   -0.40    5.10
   0   5  -3   10.00    8.50
   5   0   3    4.10    6.40
  -5   5   3   -4.80    5.20
  -5   4   3   12.90    5.50
  -5   4   3   23.00    6.00
   4  -5  -3    2.90    4.90
  -5   4   3   10.20    5.20
   1  -5   3   10.20    5.20
   1  -5   3    8.90    8.10
   1  -5   3   10.60    6.10
   1  -5   3   20.40    5.90
   4  -5  -3   14.20    5.60
   1   4  -3   -0.90    9.30
  -5   1  -3    8.40    7.10
   4   1   3    4.70    6.50
   5  -4  -3    7.60    6.00
  -1  -4   3   20.00    6.50
  -1  -4   3    9.10    5.20
  -4   5   3   15.60    5.80
  -4   5   3    7.80    5.50
  -1  -4   3   16.00    5.40
   5  -1   3    8.70    6.10
  -4   5   3   19.10    5.60
  -4  -1  -3   11.20    7.70
   2   3  -3  669.83   37.50
  -5   3   3  612.14   35.40
   3  -5  -3  614.94   36.60
   3  -5  -3  540.95   35.20
   2  -5   3  598.24   35.10
  -5   3   3  638.14   36.90
   2  -5   3  631.24   39.10
   2   3  -3  689.53   40.80
   2  -5   3  582.44   34.90
  -5   3   3  622.34   35.30
   2  -5   3  602.34   35.60
   3   2   3  609.44   35.70
   5  -2   3  571.04   35.50
  -2  -3   3  576.54   35.30
   5  -3  -3  636.74   37.20
  -2   5  -3  643.54   39.20
  -2  -3   3  590.64   35.60
  -3   5   3  599.84   35.60
  -3  -2  -3  578.44   36.30
  -3   5   3  626.34   36.70
  -2  -3   3  530.85   34.80
  -3   5   3  576.84   35.30
   2  -5  -3  211.08   15.80
  -5   2   3  166.58   13.90
  -5   2   3  177.48   16.30
  -5   3  -3  212.68   13.90
   3  -5   3  186.58   14.80
   2  -5  -3  174.18   14.10
   3  -5   3  205.88   20.10
  -5   2   3  147.29   12.50
  -5   3  -3  203.48   15.50
   3  -5   3  181.18   17.70
   3   2  -3  178.38   23.10
   2   3   3  181.58   13.80
   2   3   3  184.58   14.40
  -5   2   3  206.78   13.50
   3   2  -3  177.28   16.90
   2   3   3  164.38   12.40
  -3   5  -3  172.78   19.00
  -2   5   3  179.38   13.60
  -2   5   3  199.98   15.60
   5  -3   3  179.78   14.00
  -2  -3  -3  185.58   14.60
  -3  -2   3  181.78   14.00
  -2   5   3  166.68   14.10
   5  -3   3  166.28   14.60
  -2  -3  -3  166.68   15.70
   5  -2  -3  189.18   16.90
  -3  -2   3  178.08   13.40
   4  -5   3  542.85   33.40
   1   4   3  549.05   33.20
   4  -5   3  603.14   36.90
   1   4   3  480.25   32.30
  -5   4  -3  514.85   32.90
  -5   1   3  518.95   32.90
  -5   4  -3  568.34   34.60
   4   1  -3  593.44   38.60
   4   1  -3  582.74   35.00
   1   4   3  556.94   33.40
  -5   1   3  548.05   34.40
   4  -5   3  555.14   33.00
   1  -5  -3  579.24   34.20
  -5   1   3  558.94   32.60
  -1   5   3  560.14   33.20
   5  -4   3  561.64   33.50
  -4   5  -3  536.95   35.70
   5  -4   3  542.25   33.00
   5  -1  -3  570.04   35.00
  -4  -1   3  534.15   33.00
  -1   5   3  568.64   34.10
  -1  -4  -3  526.95   33.70
  -4  -1   3  563.54   33.00
  -1  -4  -3  549.54   33.80
   0   5   3    3.70    4.90
   5  -5   3    5.10    5.80
   5  -5   3    6.60    6.00
   5   0  -3    6.90    7.90
   5  -5   3   12.90    7.90
  -5   0   3    6.00    5.80
   0  -5  -3    6.40    5.40
   0   5   3    0.70    4.70
  -5   5  -3    0.00    6.50
  -5   5  -3    1.70    6.00
  -5   0   3   13.60    5.30
   0  -5  -3    1.00    6.40
   0   5   3    7.90    6.60
  -6   6   3  368.46   22.80
  -6   0  -3  366.26   24.90
   0  -6   3  373.96   23.70
  -6   6   3  376.46   25.00
  -6   6   3  357.36   23.00
   0  -6   3  278.47   38.00
   6   0   3  359.26   23.30
   0  -6   3  388.96   22.90
   6  -6  -3  385.26   25.20
   0  -6   3  323.67   22.10
   5   1   3   43.80    7.50
  -6   5   3   44.30   10.30
   1   5  -3   38.30   11.20
   1  -6   3   36.40   10.30
   5  -6  -3   34.70    6.70
  -6   1  -3   41.60    9.20
  -6   5   3   46.00    7.20
   1  -6   3   57.69    8.10
   1  -6   3   37.80    7.70
  -1  -5   3   38.70    5.80
  -1  -5   3   44.00    7.30
  -5   6   3   44.50    7.20
  -1  -5   3   67.49    9.10
  -1   6  -3   77.99   18.10
  -5   6   3   44.90   11.80
   6  -1   3   50.99    7.90
  -5   6   3   48.80    9.70
  -5  -1  -3   40.80    8.80
   2  -6   3  238.48   23.90
   4   2   3  218.48   17.30
   2  -6   3  246.88   17.50
   2   4  -3  272.97   20.30
  -6   4   3  237.88   16.90
   2  -6   3  231.68   15.90
   4  -6  -3  229.48   16.30
   4  -6  -3  252.37   19.00
   2   4  -3  260.87   27.80
  -2  -4   3  240.18   17.40
  -2  -4   3  235.78   16.50
  -4   6   3  254.47   19.00
   6  -2   3  235.58   17.10
  -4   6   3  247.38   16.80
  -2  -4   3  219.28   15.90
  -4  -2  -3  239.08   18.90
  -4   6   3  239.98   16.80
   3   3   3  170.38   15.70
   3  -6  -3  200.58   17.60
   3  -6  -3  205.08   15.30
   3  -6   3  202.18   14.80
   3   3  -3  193.68   28.80
   3   3  -3  209.98   21.40
   3  -6   3  201.88   15.90
   3  -6   3  229.08   22.60
  -6   3   3  204.78   15.50
  -3  -3  -3  232.38   16.30
  -3  -3   3  211.58   15.40
  -3  -3   3  230.08   15.80
   6  -3   3  203.98   15.40
  -3  -3  -3  194.18   17.40
  -3   6  -3  253.07   20.90
   6  -3   3  206.18   15.70
  -3   6   3  199.98   15.20
  -3   6   3  217.88   17.40
  -3   6   3  208.08   15.70
  -6   2   3  270.57   19.20
   2  -6  -3  273.07   19.50
   2  -6  -3  293.07   21.10
   2   4   3  290.57   19.20
   4  -6   3  278.67   19.00
   4  -6   3  333.47   25.00
   2   4   3  284.27   19.30
   4   2  -3  240.18   37.30
   4  -6   3  296.97   19.80
  -6   4  -3  269.97   19.80
   2   4   3  242.78   17.80
  -6   2   3  286.87   22.60
  -2   6   3  306.27   20.80
  -2  -4  -3  308.67   20.30
   6  -4   3  313.27   19.70
  -2   6   3  268.47   18.70
  -4  -2   3  294.37   23.50
  -4   6  -3  240.38   20.20
   6  -4   3  299.37   19.30
  -2  -4  -3  272.77   20.20
  -4   6  -3  287.47   23.10
  -2   6   3  290.77   19.20
   6  -2  -3  263.87   25.40
  -4  -2   3  287.77   19.00
   1  -6  -3  114.99   13.60
   5   1  -3  100.39   14.20
   5  -6   3  102.69   10.70
  -6   5  -3   76.29   13.20
  -6   1   3  119.79    9.90
   1   5   3  106.79   11.40
   1  -6  -3  114.59   12.10
   5  -6   3  102.19   18.50
   5  -6   3  108.99   11.80
   1   5   3  114.99   12.30
  -6   1   3  109.19   13.70
   1   5   3  102.79    9.50
  -6   1   3  107.29   11.00
   5   1  -3  119.09   20.20
  -1   6   3  105.99   10.30
  -1   6   3  112.59   13.20
   6  -5   3  111.29   11.30
  -1  -5  -3   92.49   12.60
  -5  -1   3  104.99   11.20
   6  -5   3  111.39   16.30
  -5   6  -3   84.39   11.90
  -1  -5  -3  129.59   14.00
  -5  -1   3  126.69   11.10
  -1   6   3  115.29   11.60
  -5   6  -3   89.49   14.90
   6  -1  -3  102.59   14.30
   6  -5   3  107.89   11.90
  -6   0   3    5.50    6.10
   0  -6  -3    9.90    6.30
  -6   6  -3   -3.80    6.00
   6   0  -3    1.90    6.20
   6   0  -3    6.00   12.90
  -6   6  -3   -0.40    6.10
   0   6   3   11.40    9.20
   6  -6   3    6.30    8.20
   6  -6   3   10.70    6.00
   0  -6  -3    6.00    6.40
   0   6   3    2.70    6.80
  -6   0   3   13.80    5.50
   6  -6   3    1.80    6.40
   0   6   3    6.10    5.20
   0  -7   3   11.50    9.20
  -7   7   3   12.70    6.60
  -7   0  -3   17.80    8.50
   0   7  -3   13.70    9.40
  -7   7   3   20.30    6.70
   0  -7   3   16.00    6.90
   7   0   3   13.90    7.20
   1   6  -3  596.94   39.30
   6   1   3  549.15   34.30
  -7   6   3  585.54   35.90
   1  -7   3  588.94   34.70
  -7   6   3  570.44   34.30
   1  -7   3  581.74   39.70
  -7   1  -3  544.55   35.30
   6  -7  -3  573.04   35.80
   7  -6  -3  584.14   36.00
  -6   7   3  581.94   35.90
  -6   7   3  581.64   34.00
  -6   7   3  563.24   34.10
  -1  -6   3  579.04   34.10
  -1   7  -3  590.54   39.00
  -1  -6   3  582.24   34.60
  -6  -1  -3  576.74   35.60
  -1  -6   3  568.14   38.70
   7  -1   3  576.94   34.40
   2  -7   3  622.04   35.80
  -7   5   3  583.04   35.20
   5  -7  -3  589.24   34.70
  -7   2  -3  575.24   36.40
   2  -7   3  560.04   34.60
   2   5  -3  651.03   41.10
   5   2   3  585.64   35.50
   2  -7   3  617.14   40.60
  -5  -2  -3  587.64   36.50
  -2  -5   3  588.44   35.10
  -2   7  -3  643.94   40.00
   7  -5  -3  598.74   37.30
  -5   7   3  569.24   35.20
   7  -2   3  583.04   35.40
  -5   7   3  527.75   39.40
  -5   7   3  609.64   35.40
  -2  -5   3  610.04   35.70
   4  -7  -3  410.66   26.20
   3  -7   3  452.05   32.40
   3   4  -3  415.96   28.50
   3   4  -3  420.06   33.20
   3  -7   3  434.36   26.90
   3  -7   3  397.66   25.70
   4  -7  -3  413.66   28.30
  -7   4   3  418.46   26.30
  -7   4   3  416.56   28.20
   4   3   3  399.36   26.70
  -4   7   3  411.26   26.30
  -3  -4   3  408.56   26.20
  -3   7  -3  490.15   31.30
  -4   7   3  424.76   26.40
   7  -4  -3  442.96   28.50
   7  -3   3  444.56   26.70
  -4   7   3  433.56   28.10
  -3  -4   3  440.96   26.80
  -4  -3  -3  411.96   27.80
  -3   7  -3  400.36   27.80
   3   4   3  236.08   18.10
   4   3  -3  257.77   20.60
   3   4   3  252.87   17.60
  -7   3   3  238.28   18.10
   3  -7  -3  272.47   18.10
   4  -7   3  247.88   18.30
   4  -7   3  237.88   17.30
   4  -7   3  264.47   24.60
  -7   3   3  255.57   20.20
   3  -7  -3  264.57   20.50
   4   3  -3  284.57   26.30
  -3   7   3  287.77   20.50
  -4   7  -3  232.18   19.60
  -4  -3   3  269.97   17.90
   7  -3  -3  226.98   24.30
  -3  -4  -3  249.48   19.20
  -3  -4  -3  273.67   19.40
   7  -4   3  266.67   18.20
  -4  -3   3  267.17   18.30
  -3   7   3  239.08   18.10
  -4   7  -3  312.87   23.00
   7  -3  -3  253.77   20.60
  -3   7   3  239.28   17.50
   7  -4   3  250.97   17.80
   5   2  -3  174.18   23.70
   5   2  -3  154.58   16.70
  -7   5  -3  166.38   14.70
   2   5   3  160.48   12.20
   5  -7   3  179.08   14.80
   5  -7   3  168.48   20.80
   5  -7   3  168.38   13.30
   2   5   3  176.28   14.30
   2  -7  -3  172.98   14.50
   2   5   3  160.08   14.20
  -7   2   3  147.99   13.60
   2  -7  -3  168.88   16.50
   5   2  -3  176.58   20.20
  -7   2   3  150.48   16.30
  -5  -2   3  179.08   13.90
  -2   7   3  173.78   14.10
  -2   7   3  183.98   16.10
   7  -5   3  163.38   14.40
   7  -5   3  183.38   14.20
   7  -2  -3  166.18   21.50
   7  -2  -3  169.28   17.20
  -2  -5  -3  193.08   16.40
  -5  -2   3  193.28   14.20
  -2  -5  -3  159.28   15.60
  -5   7  -3  184.98   17.90
  -5   7  -3  182.58   15.00
   7  -5   3  182.48   17.80
  -2   7   3  164.08   13.40
  -7   6  -3  213.98   17.10
   6   1  -3  249.28   20.20
   6   1  -3  249.68   23.10
   1  -7  -3  268.37   20.50
   1  -7  -3  245.38   18.30
   6  -7   3  239.68   18.30
   6   1  -3  272.97   26.60
   1   6   3  256.37   18.60
  -7   6  -3  258.17   19.30
   6  -7   3  262.37   23.80
   1   6   3  239.38   16.90
  -7   1   3  264.97   16.90
  -7   1   3  227.48   17.70
   6  -7   3  254.57   17.40
   1   6   3  252.97   17.80
  -1   7   3  256.27   17.40
   7  -1  -3  252.57   23.80
  -1   7   3  255.17   17.90
  -1  -6  -3  262.47   18.80
   7  -6   3  221.08   18.20
  -6  -1   3  249.38   17.80
  -6   7  -3  264.67   18.20
   7  -6   3  265.47   22.30
  -6   7  -3  265.17   20.80
  -1  -6  -3  266.47   20.60
  -1   7   3  258.37   19.30
  -6  -1   3  256.37   17.70
   7  -1  -3  259.47   20.70
   7  -6   3  255.57   17.80
   0  -7  -3  264.87   21.20
  -7   7  -3  225.08   17.40
  -7   0   3  232.38   17.20
   0   7   3  229.98   16.90
   0   7   3  265.77   19.30
  -7   7  -3  267.77   19.70
   7  -7   3  230.88   18.50
   7   0  -3  241.38   21.00
   7  -7   3  243.48   17.50
   7   0  -3  247.78   22.90
  -7   0   3  265.07   17.30
   0   7   3  250.47   18.00
   7  -7   3  264.67   24.10
   0  -7  -3  247.08   18.40
  -8   8   3  181.98   17.90
   8   0   3  185.48   15.30
   0  -8   3  147.89   15.90
   0  -8   3  177.98   23.50
   8  -8  -3  180.68   17.20
  -8   8   3  172.08   14.90
  -8   0  -3  168.78   17.60
   0   8  -3  184.78   22.80
   1  -8   3  675.23   40.30
   1  -8   3  689.83   45.10
   7  -8  -3  658.53   41.70
  -8   1  -3  666.13   41.30
  -8   7   3  673.13   41.80
   1   7  -3  698.13   45.30
  -8   7   3  654.53   39.80
   7   1   3  656.73   40.00
  -1  -7   3  665.53   39.50
  -1  -7   3  674.23   40.50
   8  -1   3  708.43   40.30
   8  -7  -3  702.23   41.90
  -7   8   3  668.13   39.90
   8  -7  -3  645.54   44.30
  -7   8   3  700.23   41.70
  -1  -7   3  652.23   44.40
  -7  -1  -3  662.83   41.20
  -1   8  -3  716.53   45.00
  -8   6   3  742.63   45.30
   2   6  -3  785.32   48.40
  -8   6   3  713.73   43.50
   6  -8  -3  716.33   45.20
  -8   2  -3  726.03   44.80
   6   2   3  734.23   43.70
   2  -8   3  724.43   44.00
   2  -8   3  751.12   48.60
  -2  -6   3  731.53   43.40
  -6   8   3  756.82   45.30
  -6  -2  -3  735.93   44.80
   8  -6  -3  737.93   47.60
  -6   8   3  729.33   43.50
   8  -2   3  767.62   43.90
  -6   8   3  733.83   43.40
  -2   8  -3  773.52   48.10
  -2   8  -3  737.93   44.80
   8  -6  -3  778.42   45.50
  -2  -6   3  745.23   44.00
   3   5  -3  262.07   27.70
   3   5  -3  290.07   22.50
   3   5  -3  252.37   22.70
   3  -8   3  256.07   17.70
  -8   5   3  281.87   20.90
   3  -8   3  272.27   19.60
   5  -8  -3  253.47   18.10
  -8   3  -3  278.67   20.80
  -8   5   3  273.27   18.80
   5  -8  -3  280.67   21.40
   5   3   3  267.67   19.30
   3  -8   3  277.57   36.60
  -5  -3  -3  292.27   20.60
  -5   8   3  259.47   19.10
  -3  -5   3  283.07   19.50
   8  -5  -3  283.67   26.10
   8  -3   3  300.07   19.30
   8  -5  -3  287.57   21.50
  -5   8   3  265.27   18.70
  -3   8  -3  264.57   21.20
  -3   8  -3  263.27   35.40
  -3  -5   3  253.17   18.70
  -5   8   3  288.77   21.30
   4   4  -3  579.74   41.90
   4  -8  -3  589.24   35.00
   4  -8   3  552.74   34.60
  -8   4   3  581.94   35.20
   4   4  -3  459.75   43.60
   4   4  -3  599.74   37.50
   4  -8   3  615.94   40.80
   4   4   3  580.24   35.30
  -8   4   3  553.04   36.70
   4  -8   3  601.74   35.60
   8  -4  -3  614.04   37.50
  -4   8   3  587.74   35.20
  -4   8  -3  589.54   36.30
  -4   8  -3  650.23   39.40
  -4  -4   3  571.84   35.20
  -4   8   3  549.54   38.60
  -4  -4  -3  567.34   36.10
   8  -4  -3  627.94   39.70
   8  -4   3  592.14   35.40
  -4  -4   3  597.34   35.50
  -4   8   3  567.64   35.10
   5   3  -3  576.94   39.40
   5  -8   3  561.34   37.70
   3  -8  -3  656.23   37.10
   5  -8   3  591.64   37.20
  -8   3   3  577.34   36.90
   3   5   3  602.94   37.00
   5  -8   3  614.64   42.00
  -8   3   3  616.84   38.70
   5   3  -3  629.14   43.40
   3  -8  -3  603.84   38.90
   5   3  -3  644.24   39.30
   3   5   3  604.54   37.00
   3   5   3  552.44   35.90
  -5  -3   3  604.54   36.90
  -3   8   3  611.84   38.50
   8  -5   3  599.64   37.00
  -3  -5  -3  603.94   37.70
  -3   8   3  619.24   37.20
  -3   8   3  576.44   36.70
  -5  -3   3  602.14   37.10
  -3  -5  -3  617.04   38.90
  -5   8  -3  601.04   37.50
   8  -3  -3  624.84   40.90
   8  -3  -3  630.34   39.10
  -5   8  -3  650.23   40.00
   6  -8   3  438.76   32.10
  -8   6  -3  432.06   26.20
   6  -8   3  368.86   25.20
   2  -8  -3  409.86   28.50
   6  -8   3  411.06   26.40
   6   2  -3  406.56   28.20
   6   2  -3  414.06   29.60
  -8   2   3  369.26   27.20
  -8   2   3  393.46   25.80
   2   6   3  405.36   26.40
   2  -8  -3  411.56   26.30
   2   6   3  379.86   25.00
   6   2  -3  420.46   34.00
  -8   6  -3  381.96   24.80
   2   6   3  412.46   26.00
   8  -6   3  414.46   29.30
   8  -2  -3  393.06   30.40
  -6  -2   3  381.66   25.90
  -6   8  -3  416.26   26.60
  -2   8   3  399.56   25.60
  -6  -2   3  399.86   25.80
   8  -2  -3  413.96   28.40
   8  -6   3  407.56   26.10
  -6   8  -3  422.76   28.80
  -2   8   3  414.06   25.80
  -2  -6  -3  411.56   26.70
   8  -6   3  393.46   25.70
  -2   8   3  417.86   27.50
  -2  -6  -3  407.46   28.40
  -8   7  -3   56.89    9.10
   1   7   3   40.00   11.60
   1   7   3   48.40   10.30
   7  -8   3   28.20   10.70
  -8   1   3   29.70    7.20
   1  -8  -3   30.90    8.40
   7   1  -3   58.39   12.90
   7   1  -3   26.60   11.10
   1   7   3   44.80    8.90
   1  -8  -3   34.00    7.70
   7  -8   3   36.90    7.80
   7  -8   3   44.40    9.40
   7   1  -3   26.10    7.50
  -1   8   3   28.60    6.60
  -1  -7  -3   29.30    8.40
   8  -7   3   46.30    9.80
  -1   8   3   37.30    7.80
   8  -7   3   41.20   10.00
  -7  -1   3   28.50    7.00
  -1  -7  -3   28.50    7.60
  -1   8   3   26.60    6.70
   8  -1  -3   20.70    7.10
   8  -1  -3   52.59   13.10
   8  -7   3   24.10    7.70
  -8   0   3  866.61   51.49
  -8   0   3  860.61   51.69
   0   8   3  904.41   51.79
   0   8   3  935.21   53.19
  -8   8  -3  846.52   51.59
   8  -8   3  841.72   51.59
   0  -8  -3  869.41   54.09
  -8   8  -3  932.41   53.49
   8   0  -3  871.91   54.49
   8   0  -3  937.51   57.19
   8  -8   3  970.10   56.19
   0  -8  -3  921.51   52.19
   8  -8   3  858.61   52.19
   8   0  -3  949.90   54.19
   0   8   3  851.41   51.49
   9   0   3  335.87   22.90
  -9   9   3  318.47   22.10
   9  -9  -3  330.37   28.70
   9  -9  -3  318.47   24.50
  -9   0  -3  314.07   24.60
   0  -9   3  316.37   29.50
  -9   9   3  322.47   24.50
   0   9  -3  338.97   29.30
   0  -9   3  321.17   23.30
   1  -9   3   89.79   14.40
   8  -9  -3  125.09   16.50
   1   8  -3  122.89   21.50
  -9   1  -3  121.69   16.60
  -9   8   3  125.89   12.90
   8   1   3  122.89   13.60
  -9   8   3  116.99   15.80
   1  -9   3  126.09   21.80
   9  -8  -3  114.79   21.50
  -8   9   3  126.29   13.30
  -8  -1  -3  121.39   16.70
   9  -1   3  137.29   13.90
  -1   9  -3  103.49   21.60
  -1  -8   3  121.29   14.30
  -8   9   3  127.09   16.00
  -1  -8   3  145.89   21.50
   9  -8  -3  143.59   15.30
  -1   9  -3  110.49   16.50
   7  -9  -3  505.85   32.80
   2  -9   3  483.55   31.20
  -9   7   3  503.05   30.70
   7   2   3  484.55   30.90
   2   7  -3  507.95   36.60
  -9   2  -3  513.45   32.60
  -9   7   3  495.65   32.40
   2  -9   3  488.45   37.30
   9  -7  -3  504.95   35.50
  -7   9   3  485.65   30.80
   9  -7  -3  492.05   32.40
  -2   9  -3  496.95   35.90
  -2  -7   3  487.95   30.20
  -7   9   3  505.65   32.70
  -2  -7   3  448.16   35.50
  -7  -2  -3  517.55   32.20
  -2   9  -3  499.55   32.60
  -2  -7   3  518.95   31.40
   3  -9   3 1165.58   66.59
   3  -9   3 1170.78   70.69
  -9   3  -3 1181.28   67.39
   6   3   3 1136.09   66.29
   3   6  -3 1123.29   70.29
  -9   6   3 1140.99   65.99
   6  -9  -3 1116.69   67.79
  -9   6   3 1129.39   67.59
   6  -9  -3 1022.80   65.49
   9  -3   3 1179.78   66.29
  -3   9  -3 1161.68   67.19
   9  -6  -3 1162.58   68.99
  -6  -3  -3 1133.29   66.89
   9  -6  -3 1139.89   67.59
  -6   9   3 1115.59   65.99
  -6   9   3 1189.78   67.89
  -6   9   3 1161.98   66.09
  -3  -6   3 1105.49   65.99
  -3   9  -3 1134.69   69.69
  -3  -6   3 1162.68   66.49
  -9   5   3 1236.58   73.79
   4  -9   3 1262.87   72.69
   5  -9  -3 1195.68   73.79
   4  -9   3 1279.97   76.59
   4   5  -3 1312.47   74.29
   5   4   3 1252.77   72.59
   5  -9  -3 1208.48   72.09
  -9   5   3 1279.87   72.39
   4   5  -3 1295.87   77.49
  -5   9   3 1253.97   73.79
  -5   9   3 1314.97   72.49
  -5   9   3 1220.58   72.29
   9  -5  -3 1278.47   73.99
  -4   9  -3 1232.88   75.19
   9  -4   3 1270.57   72.49
  -5  -4  -3 1233.58   72.99
  -4   9  -3 1238.48   73.09
  -4  -5   3 1261.97   72.59
  -4  -5   3 1172.28   72.09
   9  -5  -3 1272.37   74.99
   5  -9   3   75.49   11.80
  -9   4   3   50.09   13.50
   4  -9  -3   34.70    8.20
   5  -9   3   59.09    9.10
   5  -9   3   31.70   14.80
   5   4  -3   57.89   11.60
  -9   4   3   79.29   11.50
   4  -9  -3   80.09   15.10
   4   5   3   62.09   10.20
   4   5   3   34.70    8.90
   9  -5   3   83.79   11.40
  -5  -4   3   46.30    8.10
  -4  -5  -3   37.60    9.10
  -5  -4   3   65.39   11.40
  -5   9  -3   69.99   12.30
  -5   9  -3  104.99   28.60
  -4   9   3   47.30   13.60
  -4   9   3   36.10    8.30
  -4   9   3   57.59   10.60
  -4  -5  -3   54.09   13.60
   9  -4  -3   52.49   14.50
   6  -9   3  314.57   21.40
   6   3  -3  314.57   30.60
   3  -9  -3  339.07   22.50
  -9   3   3  313.17   24.20
   6   3  -3  382.46   26.10
   6   3  -3  301.07   25.00
   6  -9   3  382.36   30.50
  -9   6  -3  358.66   21.90
   3   6   3  341.37   22.30
   3   6   3  302.67   20.90
  -9   3   3  315.37   22.10
   3  -9  -3  326.97   25.40
   6  -9   3  312.47   22.60
   3   6   3  344.77   22.80
  -3  -6  -3  306.17   25.00
   9  -6   3  296.27   22.40
   9  -6   3  354.06   22.40
  -6  -3   3  326.47   22.20
  -6  -3   3  336.87   22.50
   9  -3  -3  402.26   27.40
  -3   9   3  324.47   22.50
   9  -3  -3  316.97   24.70
  -3   9   3  324.27   22.00
  -6   9  -3  346.87   23.30
  -6   9  -3  354.76   25.90
  -3  -6  -3  350.06   23.30
  -3   9   3  336.07   24.30
  -9   2   3 1043.00   59.69
   2   7   3 1067.89   60.59
  -9   7  -3  991.00   59.09
   2   7   3 1021.10   59.89
   7  -9   3  963.20   59.39
  -9   7  -3 1046.30   60.19
   7   2  -3  976.30   61.99
   2  -9  -3  921.11   69.19
   7  -9   3 1028.00   60.09
   7  -9   3 1101.39   64.59
   2  -9  -3 1080.89   59.99
   7   2  -3 1109.49   65.89
  -9   2   3  994.80   61.19
   2   7   3  946.71   59.39
   7   2  -3 1060.09   61.79
  -2  -7  -3 1035.00   60.29
  -7   9  -3  977.10   59.69
   9  -7   3 1126.99   63.09
  -2   9   3  946.51   62.99
  -7  -2   3  987.20   59.69
   9  -7   3 1017.90   59.89
   9  -7   3 1016.30   59.79
  -7  -2   3 1015.70   59.69
  -7   9  -3 1053.99   61.79
   9  -2  -3 1065.89   62.29
  -2   9   3 1031.80   59.79
  -2  -7  -3 1086.49   62.39
   9  -2  -3 1061.09   61.69
  -2   9   3 1020.10   59.59
   8  -9   3 1121.89   66.49
   8   1  -3 1192.58   72.29
   1   8   3 1213.68   67.89
   8   1  -3 1118.89   68.89
  -9   1   3 1097.79   66.19
   8  -9   3 1140.39   66.99
  -9   8  -3 1212.88   67.69
   8  -9   3 1229.88   70.69
   1   8   3 1175.28   66.79
   1   8   3 1067.59   66.29
   1  -9  -3 1214.68   67.09
   1  -9  -3 1140.99   69.39
  -9   1   3 1131.49   66.69
   8   1  -3 1181.98   68.79
  -8   9  -3 1109.49   66.69
   9  -8   3 1128.69   66.99
   9  -1  -3 1159.18   69.29
  -1  -8  -3 1218.88   69.49
  -1  -8  -3 1166.58   67.09
  -1   9   3 1185.18   69.49
  -8   9  -3 1163.38   68.29
  -1   9   3 1138.99   66.59
  -8  -1   3 1081.09   66.49
   9  -8   3 1239.48   69.99
   9  -1  -3 1101.79   68.49
   9  -8   3 1136.59   66.69
  -1   9   3 1184.28   66.79
  -8  -1   3 1131.59   66.59
   0   9   3   24.10    8.50
  -9   9  -3   50.09   13.10
   0  10  -3   47.90   12.70
 -10  10   3   87.19   12.70
   0 -10   3   76.29   21.90
  10   0   3   65.09   13.30
 -10   0  -3   62.19   11.80
  10 -10  -3   79.49   17.80
  10 -10  -3   77.89   15.50
   0  10  -3   69.39   12.10
   0 -10   3   79.39   14.00
 -10  10   3   74.69   15.60
 -10   9   3  256.37   18.60
   1 -10   3  214.48   19.60
   9   1   3  248.68   18.90
   1 -10   3  257.67   27.00
   1   9  -3  267.77   26.90
 -10   9   3  226.38   20.90
   9 -10  -3  230.18   26.40
 -10   1  -3  254.57   21.40
   9 -10  -3  233.68   20.90
  -1  -9   3  248.38   19.90
  -9  10   3  227.28   20.60
  -9  -1  -3  235.28   20.80
  10  -9  -3  274.97   25.70
  -1  -9   3  248.98   26.50
  10  -9  -3  244.58   21.10
  -1  10  -3  217.08   21.50
  -1  10  -3  218.08   25.40
  -9  10   3  255.47   18.70
  10  -1   3  261.17   19.20
   8   2   3  812.32   46.90
 -10   2  -3  835.92   48.20
   2 -10   3  783.92   47.20
 -10   8   3  807.82   46.70
 -10   8   3  778.52   48.30
   8 -10  -3  792.62   48.70
   2   8  -3  775.52   51.99
   2 -10   3  818.52   52.49
  10  -2   3  812.52   47.00
  10  -8  -3  767.02   48.20
  -8  10   3  792.22   46.80
  -8  10   3  768.92   48.30
  -2  -8   3  771.82   46.30
  -2  -8   3  819.82   47.30
  -2  10  -3  788.72   51.39
  -8  -2  -3  822.82   47.90
  -2  10  -3  810.42   48.30
  -2  -8   3  720.13   50.89
  10  -8  -3  795.72   50.19
   3 -10   3  604.34   43.20
   3   7  -3  593.54   42.60
   7 -10  -3  590.14   39.50
   7   3   3  619.04   37.60
 -10   3  -3  608.24   38.80
 -10   7   3  611.44   37.30
 -10   7   3  573.54   38.90
   3 -10   3  603.54   37.90
  10  -7  -3  610.84   39.20
  -3  10  -3  632.94   38.80
  -3  -7   3  618.44   37.20
  -7  10   3  604.84   37.30
  -3  10  -3  612.54   41.90
  -7  -3  -3  637.64   38.60
  10  -3   3  676.73   37.90
  10  -7  -3  620.34   41.30
  -7  10   3  616.64   39.40
  -3  -7   3  647.34   38.00
 -10   6   3   63.69   13.80
 -10   6   3   85.89   11.60
   6 -10  -3   69.59   10.40
   6 -10  -3   74.19   15.20
   4 -10   3   72.19   13.10
 -10   4  -3   75.69   15.00
  -6  10   3   68.39   11.60
  -4  10  -3   67.79   17.90
  10  -4   3   93.39   12.50
  10  -6  -3   75.69   14.90
  -4  -6   3   56.99   11.10
  -6  10   3   71.49   11.70
  -6  10   3   60.09   14.20
  -4  -6   3   80.99   12.50
  10  -6  -3  116.29   20.30
  -6  -4  -3   54.99   10.40
  -4  10  -3   83.89   14.50
   5   5  -3  912.71   63.69
 -10   5   3 1022.30   58.09
   5   5  -3  987.90   59.99
   5 -10   3 1041.40   63.39
   5   5  -3 1029.90   64.19
   5   5   3 1018.70   58.29
 -10   5   3  956.70   59.49
   5 -10  -3  928.01   58.29
   5 -10   3 1012.10   58.39
   5 -10  -3  978.10   60.19
  -5  -5   3  952.80   57.89
  10  -5  -3 1071.99   60.99
  10  -5   3 1037.90   58.39
  -5  -5   3  986.10   58.29
  -5  10   3  987.20   58.19
  10  -5  -3 1001.80   59.89
  -5  -5  -3  987.20   58.89
  -5  10   3 1035.30   58.29
  -5  10  -3  999.60   61.39
  -5  10  -3  966.00   58.69
  -5  -5  -3  893.21   59.39
  -5  10   3  992.90   59.79
   4 -10  -3  961.50   59.69
   4   6   3  965.20   57.59
   4   6   3  846.42   56.39
   6 -10   3  886.61   58.89
 -10   4   3  970.60   57.19
   6   4  -3  975.00   59.39
   4   6   3 1008.70   57.39
   6   4  -3  917.21   58.99
 -10   4   3  964.50   58.89
   6 -10   3 1019.20   57.59
   4 -10  -3  995.60   57.49
   6 -10   3 1044.90   63.19
   6   4  -3  950.40   62.99
  10  -4  -3 1008.80   59.29
  -4  10   3  987.30   57.29
  10  -6   3 1041.60   57.59
  -4  -6  -3  903.21   59.19
  -6  10  -3  996.20   57.99
  -6  10  -3  964.50   59.99
  -6  -4   3  949.21   57.19
  -4  -6  -3  988.90   57.99
  -6  -4   3  942.91   57.39
  10  -4  -3 1047.80   60.09
  -4  10   3  990.40   58.99
  -4  10   3  965.10   57.29
   7 -10   3  547.65   35.00
   7   3  -3  554.94   42.30
   3 -10  -3  582.74   39.10
   7   3  -3  571.34   37.90
   3   7   3  569.24   35.50
   7   3  -3  512.25   38.20
 -10   7  -3  616.94   35.70
 -10   3   3  507.65   36.90
   7 -10   3  582.84   41.80
   7 -10   3  574.74   36.00
   3   7   3  610.64   36.70
   3 -10  -3  588.24   35.90
 -10   3   3  553.74   35.40
  -7  10  -3  591.54   38.30
  -7  10  -3  557.64   35.70
  -3  -7  -3  592.44   36.30
  -3  10   3  630.54   37.60
  -7  -3   3  534.75   35.50
  -3  -7  -3  574.54   38.80
  10  -3  -3  633.84   39.70
  -7  -3   3  580.24   35.30
  10  -7   3  608.04   35.60
  10  -3  -3  572.24   37.70
  -3  10   3  603.44   35.70
  10  -7   3  603.44   35.80
  10  -7   3  601.24   38.80
  -3  10   3  589.54   35.40
   8 -10   3  115.59   14.10
   2 -10  -3  121.49   14.40
   8   2  -3  116.39   20.00
   2   8   3  133.99   13.20
   8 -10   3   87.69   21.80
 -10   2   3  139.19   13.70
   8   2  -3  115.79   16.20
   8   2  -3  116.59   24.10
   2   8   3  149.59   15.80
   2 -10  -3  108.69   19.30
   2   8   3  125.99   13.10
 -10   8  -3  144.39   12.20
   8 -10   3  131.09   13.10
  -2  -8  -3  139.09   15.10
  10  -8   3  150.88   14.30
  -8  -2   3   94.09   13.80
  -8  10  -3  129.69   14.10
  -8  -2   3  149.59   13.40
  -2  -8  -3  130.69   19.70
  10  -8   3  135.09   13.80
  -2  10   3  137.79   13.80
  -2  10   3  138.59   16.60
  10  -2  -3  169.18   22.10
  -2  10   3  130.89   13.50
  10  -8   3  131.99   20.20
  10  -2  -3  132.99   16.90
   1   9   3  676.63   39.30
   1   9   3  649.14   39.00
   1 -10  -3  670.13   39.60
   9 -10   3  671.43   44.70
   1 -10  -3  641.64   43.10
   9   1  -3  602.44   42.40
   9   1  -3  629.44   46.50
 -10   1   3  594.54   38.60
   1   9   3  684.63   40.80
 -10   9  -3  660.43   38.70
 -10   1   3  665.63   39.10
 -10   9  -3  689.33   40.30
   9   1  -3  647.54   41.50
   9 -10   3  621.04   39.00
   9 -10   3  650.33   39.60
  -1  10   3  648.64   39.10
  -9  -1   3  615.84   39.00
  10  -9   3  616.54   39.40
  10  -9   3  649.64   39.30
  -9  10  -3  636.94   39.10
  -9  10  -3  654.93   41.40
  -1  -9  -3  637.44   43.40
  -1  -9  -3  648.84   39.80
  10  -1  -3  631.44   41.50
  -9  -1   3  639.74   38.90
  -1  10   3  622.44   38.90
  -1  10   3  692.33   41.40
  10  -1  -3  642.24   43.00
  10  -9   3  656.53   44.00
   0  10   3  428.66   27.00
 -10   0   3  343.57   26.50
   0 -10  -3  431.86   27.70
 -10  10  -3  449.16   28.80
   0 -10  -3  413.56   33.10
  10 -10   3  409.56   27.40
  10   0  -3  397.96   34.90
  10   0  -3  398.56   31.10
 -10   0   3  403.26   26.90
  10 -10   3  402.66   33.40
   0  10   3  418.36   26.90
   0  10   3  429.76   29.10
  10 -10   3  429.86   27.00
 -10  10  -3  423.86   26.40
  10   0  -3  402.76   29.70
   0 -11   3   27.10   11.70
 -11  11   3   27.80    8.70
  11   0   3   25.20    9.80
   0 -11   3   19.40   10.10
  11 -11  -3   27.00    7.80
 -11  11   3   13.50    7.50
 -11   0  -3   36.30   11.10
   0  11  -3   15.80   11.30
   0  11  -3   18.00   11.40
  11 -11  -3   32.50   16.70
 -11  10   3  240.98   22.30
 -11   1  -3  254.07   22.60
  10 -11  -3  246.98   27.40
   1 -11   3  272.47   21.20
 -11  10   3  269.17   20.10
   1  10  -3  249.48   28.20
  10   1   3  273.67   20.50
  10 -11  -3  274.57   22.30
   1 -11   3  260.97   28.50
 -10  -1  -3  249.18   21.80
 -10  11   3  274.97   20.00
  -1 -10   3  264.77   20.90
  11  -1   3  272.37   20.50
  11 -10  -3  229.28   26.10
  -1 -10   3  247.18   28.40
  11 -10  -3  273.17   22.00
  -1  11  -3  255.47   27.10
 -10  11   3  245.28   22.00
  -1  11  -3  272.17   22.70
   2 -11   3  173.28   18.10
   9 -11  -3  213.78   20.00
 -11   9   3  206.58   18.80
   2   9  -3  187.18   25.10
 -11   9   3  213.18   16.70
 -11   2  -3  217.08   20.00
   2 -11   3  199.78   26.70
   9 -11  -3  167.58   25.90
   9   2   3  190.18   17.50
  11  -9  -3  197.28   18.80
  -9  -2  -3  185.98   19.20
  -9  11   3  196.98   19.20
  11  -9  -3  223.78   24.20
  -9  11   3  191.58   17.00
  -2  11  -3  199.78   24.30
  11  -2   3  201.48   17.70
  -2  -9   3  201.18   18.20
  -2  -9   3  192.78   24.30
  -2  11  -3  193.68   19.80
 -11   3  -3  627.54   40.50
   3   8  -3  629.04   44.80
 -11   8   3  644.14   38.70
   3 -11   3  633.04   39.20
   8 -11  -3  617.54   40.90
   8   3   3  648.64   38.90
 -11   8   3  625.74   40.50
   3 -11   3  624.84   45.00
  -8  11   3  606.64   40.60
  -3  -8   3  628.34   38.20
  -3  -8   3  652.63   39.20
  11  -8  -3  627.64   40.70
  -8  11   3  634.24   38.70
  11  -3   3  647.44   39.20
  -3  11  -3  587.74   42.80
  -8  -3  -3  639.64   40.00
  11  -8  -3  667.93   42.80
  -3  11  -3  648.54   40.10
   4 -11   3  274.57   21.30
 -11   7   3  287.37   20.10
 -11   4  -3  277.77   22.70
   7 -11  -3  267.37   23.90
 -11   7   3  257.97   22.10
   7 -11  -3  240.08   19.20
   4   7  -3  226.48   27.00
   4 -11   3  251.17   28.60
   7   4   3  295.67   20.60
  -4  11  -3  285.77   25.60
  11  -4   3  324.87   21.20
  11  -7  -3  293.57   22.80
  -4  -7   3  294.77   20.00
  -4  -7   3  317.57   21.10
  -7  11   3  277.77   22.60
  -7  11   3  272.97   20.30
  -7  -4  -3  284.37   22.40
  -4  11  -3  301.87   22.20
   5 -11   3  616.74   36.70
   6 -11  -3  517.05   36.60
   6   5   3  596.64   36.40
   5   6  -3  497.25   37.60
   5   6  -3  540.65   41.80
 -11   6   3  562.44   37.80
   5   6  -3  592.74   38.60
 -11   5  -3  601.84   37.70
   6 -11  -3  562.24   38.60
 -11   6   3  634.44   36.10
   5 -11   3  610.84   43.40
  -6  11   3  584.14   38.10
  -5  -6   3  613.64   36.60
  -6  11   3  588.74   36.30
  -5  -6   3  600.04   35.90
  -6  11   3  594.94   35.90
  11  -5   3  640.14   36.80
  -5  11  -3  573.94   40.20
  11  -6  -3  619.24   40.40
  -5  11  -3  601.74   37.30
  -6  -5  -3  584.74   37.30
  11  -6  -3  619.84   38.40
 -11   5   3   17.70    7.00
   6 -11   3   33.40   12.80
   5   6   3   51.39   11.20
   5 -11  -3   10.20    9.10
   6 -11   3   29.80    8.10
   6   5  -3    9.10    8.00
 -11   5   3   60.09   12.00
   5 -11  -3   26.00    8.00
   5   6   3   21.10    8.70
   6   5  -3   33.90   12.10
  -6  11  -3   22.70    9.20
  -5  11   3   21.10    8.90
  -6  -5   3   25.40    7.50
  -5  11   3   30.90    7.70
  -5  -6  -3   30.40    8.90
  -5  -6  -3   23.40    9.00
  -6  11  -3   33.50    9.50
  11  -5  -3   16.10    7.50
  11  -6   3   45.20    9.20
  -6  -5   3   31.50    8.10
  -5  11   3   24.50    7.50
   4 -11  -3  317.77   26.90
   4   7   3  354.16   23.10
   7 -11   3  323.47   22.50
   4   7   3  309.67   25.50
   7 -11   3  309.17   21.00
   7   4  -3  298.47   25.10
 -11   4   3  335.17   22.10
   7   4  -3  332.87   31.70
   4 -11  -3  332.17   22.70
   4   7   3  338.17   22.20
 -11   4   3  303.97   24.30
   7 -11   3  313.67   31.00
   7   4  -3  325.07   25.70
  11  -7   3  283.97   21.80
  11  -7   3  351.56   22.90
  -7  11  -3  317.47   25.60
  -4  11   3  311.97   22.20
  -7  -4   3  306.17   22.10
  -4  -7  -3  290.57   26.50
  11  -4  -3  288.87   24.60
  -7  -4   3  335.27   22.80
  -7  11  -3  322.67   22.90
  -4  11   3  323.37   24.90
  -4  -7  -3  332.67   23.50
  11  -4  -3  400.86   28.80
  -4  11   3  314.27   21.90
 -11   8  -3  874.71   51.79
 -11   3   3  870.91   51.29
   3   8   3  861.71   51.49
   8 -11   3  931.61   56.79
   8   3  -3  893.71   57.89
   8 -11   3  814.42   50.99
   3 -11  -3  808.42   54.59
 -11   3   3  800.62   52.69
   8 -11   3  924.01   51.89
   3 -11  -3  904.91   51.79
   8   3  -3  853.51   53.49
 -11   8  -3  790.02   50.49
   3   8   3  848.72   51.09
   8   3  -3  829.82   53.49
   3   8   3  931.91   52.89
  -8  -3   3  873.51   51.79
  -8  11  -3  838.02   51.69
  -3  -8  -3  884.81   52.09
  -3  11   3  866.91   53.29
  -8  -3   3  874.21   51.39
  -3  11   3  870.21   51.49
  11  -8   3  875.91   51.49
  -8  11  -3  852.41   53.79
  11  -8   3  878.51   51.69
  -3  11   3  904.01   51.59
  11  -3  -3  846.32   53.39
  11  -3  -3  920.01   54.89
  -3  -8  -3  819.92   54.69
  11  -8   3  872.11   54.59
 -11   2   3  531.15   33.80
 -11   9  -3  513.65   32.90
   9   2  -3  499.65   36.90
   2 -11  -3  539.65   38.70
   9 -11   3  559.84   40.40
   2   9   3  526.15   33.60
   9 -11   3  533.05   34.20
   2   9   3  585.44   35.90
 -11   9  -3  568.14   35.00
   2   9   3  529.45   33.70
   9   2  -3  541.75   41.30
   2 -11  -3  537.25   34.40
   9 -11   3  505.75   33.30
   9   2  -3  536.65   36.10
  11  -9   3  562.74   34.20
  -2  -9  -3  542.45   34.70
  11  -2  -3  539.65   38.30
  -2  -9  -3  564.24   38.90
  -9  11  -3  531.85   36.40
  -2  11   3  577.84   36.40
  -9  -2   3  540.85   33.90
  -2  11   3  542.55   33.80
  11  -9   3  578.24   39.60
  11  -9   3  573.64   33.90
  -9  11  -3  548.65   34.00
  -9  -2   3  543.05   34.20
  -2  11   3  558.44   33.90
  11  -2  -3  533.45   36.20
   1 -11  -3   14.30   10.80
  10 -11   3   13.60    9.10
   1  10   3   18.50    8.40
  10   1  -3    1.20   12.60
  10   1  -3   13.30    8.10
  10 -11   3   25.20    8.40
   1  10   3   27.00    9.00
   1 -11  -3   20.70    9.30
 -11   1   3   32.00    8.80
  10   1  -3   24.40   13.90
   1  10   3   28.30    8.00
  11 -10   3   30.60    9.00
 -10  -1   3   32.20    8.30
  -1  11   3   30.80    8.60
  11 -10   3   27.90    9.00
  11 -10   3   16.30   12.00
  -1  11   3   20.80    9.10
 -10  -1   3   29.40    8.50
  11  -1  -3   34.80   11.70
 -10  11  -3   58.69   11.50
  11  -1  -3   36.40   14.30
 -10  11  -3   52.59   14.90
  -1 -10  -3   11.80   11.20
  -1 -10  -3   24.80    9.40
  -1  11   3   28.90    7.80
 -11   0   3  167.28   17.70
   0  11   3  215.18   17.10
  11   0  -3  200.88   22.70
   0 -11  -3  192.88   19.00
   0  11   3  201.98   18.00
 -11  11  -3  236.98   20.00
  11 -11   3  169.58   29.00
  11 -11   3  200.48   17.90
   0 -11  -3  163.28   24.90
 -11  11  -3  229.38   17.00
  11 -11   3  217.88   18.10
  11   0  -3  214.58   20.60
  11   0  -3  220.78   27.70
 -11   0   3  199.38   17.40
   0  11   3  228.88   21.00
 -12   0  -3   17.40   11.60
   0  12  -3   24.20   12.50
   0 -12   3   38.00   10.90
  12 -12  -3   48.60   17.50
   0  12  -3   19.20   13.20
   0 -12   3   30.70   12.70
 -12  12   3   12.40    8.10
  12 -12  -3   15.50    8.20
 -12  12   3   22.20    9.60
  12   0   3   26.10   10.40
  11   1   3   20.90  125.79
 -12   1  -3  109.69  129.09
   1  11  -3 -102.59   91.19
 -12   1  -3  380.06  211.78
 -12  11   3  -63.39  155.88
   1 -12   3  107.29   92.49
  12  -1   3   50.29  136.69
 -11  -1  -3   86.79  222.68
 -11  12   3   27.00  130.59
  12 -11  -3  224.38  176.38
  -1  12  -3  125.29   70.09
  -1 -11   3   81.89   92.99
  12  -1   3  278.97  210.98
 -12  10   3  387.96   26.10
  10 -12  -3  404.26   33.60
  10 -12  -3  390.96   28.70
   2 -12   3  369.36   34.50
   2 -12   3  391.76   27.20
   2  10  -3  368.86   33.80
 -12   2  -3  400.36   28.70
 -12  10   3  382.36   31.70
  10   2   3  404.86   26.80
  12 -10  -3  395.36   28.50
  12  -2   3  426.56   27.10
 -10  12   3  385.16   28.30
  -2  12  -3  397.66   28.50
 -10  -2  -3  393.06   28.20
  -2 -10   3  387.96   27.40
  -2 -10   3  407.96   33.10
 -10  12   3  393.76   26.40
  -2  12  -3  341.27   31.80
  12 -10  -3  396.46   32.20
   9 -12  -3  230.38   28.60
   3 -12   3  250.67   20.50
 -12   9   3  256.27   21.60
   9 -12  -3  249.68   22.90
   3 -12   3  234.68   28.30
 -12   9   3  263.47   19.50
   9   3   3  260.27   19.90
   3   9  -3  247.58   27.50
 -12   3  -3  261.17   22.30
  -9  12   3  265.57   19.80
  12  -9  -3  247.18   21.10
  12  -9  -3  268.37   26.50
  -9  -3  -3  224.18   21.70
  -3  -9   3  279.47   20.80
  12  -3   3  267.87   20.60
  -3  12  -3  222.58   25.00
  -9  12   3  246.58   22.10
  -3  -9   3  239.38   26.20
  -3  12  -3  274.17   21.90
   4 -12   3  372.56   35.10
   8 -12  -3  401.86   30.10
 -12   4  -3  393.56   29.20
 -12   8   3  445.16   26.70
   8   4   3  411.06   27.00
 -12   8   3  363.16   28.20
   4 -12   3  377.96   27.30
   4   8  -3  381.96   34.00
  -8  12   3  397.36   26.70
  -4  12  -3  425.76   28.20
  -8  -4  -3  426.86   28.40
  12  -8  -3  390.76   28.90
  -8  12   3  390.86   28.80
  12  -8  -3  430.56   32.80
  -4  -8   3  418.86   25.90
  -4  12  -3  369.86   32.00
  12  -4   3  439.56   27.60
  -4  -8   3  449.36   27.70
 -12   5  -3   76.69   13.20
   5   7  -3   74.89   17.10
   5   7  -3   58.39   14.00
   7   5   3   85.39   13.60
   5 -12   3   63.69   14.30
   7 -12  -3  104.99   17.40
 -12   7   3   84.09   15.00
   7 -12  -3   85.29   13.30
   5 -12   3   90.59   14.60
  -7  12   3  110.49   16.20
  -5  -7   3  109.39   14.60
  -5  12  -3   99.79   16.20
  -7  -5  -3   88.49   15.50
  -5  12  -3   88.39   18.90
  12  -5   3  123.39   14.80
  -5  -7   3   86.19   12.50
  12  -7  -3   97.89   16.30
  -7  12   3   97.19   13.60
 -12   6   3  563.44   38.60
   6 -12  -3  524.15   40.20
   6   6   3  610.54   37.20
   6 -12   3  598.64   37.50
   6   6   3  626.44   37.30
   6 -12  -3  567.14   36.80
 -12   6  -3  623.84   38.80
   6   6  -3  587.44   43.30
   6   6  -3  551.44   39.00
   6 -12   3  610.64   45.10
  -6  -6  -3  615.54   38.00
  -6  -6   3  618.94   37.80
  -6  12  -3  564.94   40.80
  -6  -6   3  617.84   36.80
  12  -6  -3  606.64   39.30
  -6  12   3  622.24   37.20
  12  -6  -3  669.43   42.00
  12  -6   3  652.93   37.70
  -6  12   3  603.84   36.80
  -6  -6  -3  564.14   40.30
  -6  12   3  594.64   39.20
  -6  12  -3  617.94   38.10
   7 -12   3  699.33   50.29
   7   5  -3  715.93   51.29
   7   5  -3  746.63   46.10
   7   5  -3  675.13   45.20
   7 -12   3  759.32   44.20
   5 -12  -3  723.23   44.10
   5 -12  -3  686.83   47.40
   5   7   3  750.12   44.60
   5   7   3  707.73   43.90
 -12   5   3  695.13   45.50
   5   7   3  704.03   44.30
 -12   5   3  701.83   43.70
  -5  12   3  740.03   43.90
  -7  12  -3  674.53   46.50
  -5  -7  -3  770.02   44.80
  -5  12   3  720.93   45.90
  12  -5  -3  776.72   47.90
  -5  -7  -3  668.93   46.90
  12  -7   3  770.12   44.40
  -7  -5   3  716.93   43.50
  -7  12  -3  746.13   44.50
  -5  12   3  780.32   44.00
  12  -5  -3  729.43   45.80
  -7  -5   3  761.12   44.50
   4 -12  -3  172.18   23.70
   8 -12   3  222.98   18.40
   8   4  -3  227.68   21.20
 -12   4   3  226.78   18.30
   8   4  -3  227.98   28.50
   8 -12   3  226.98   27.50
 -12   8  -3  237.88   18.40
   4 -12  -3  213.18   19.10
   4   8   3  236.18   20.10
   4   8   3  212.18   17.50
 -12   4   3  188.98   19.70
   8   4  -3  192.48   21.70
   4   8   3  218.48   17.80
   8 -12   3  201.38   17.00
  12  -8   3  250.87   17.60
  -8  -4   3  233.18   18.10
  12  -4  -3  213.38   21.50
  -8  12  -3  233.78   22.10
  12  -8   3  249.38   23.50
  -4  12   3  236.98   18.00
  -8  12  -3  239.88   19.20
  -4  -8  -3  250.77   19.80
  -4  12   3  233.08   21.20
  -8  -4   3  228.28   19.00
  -4  12   3  247.68   18.60
  -4  -8  -3  240.98   24.40
  12  -8   3  240.48   19.50
  12  -4  -3  280.67   25.50
   3   9   3   12.10    8.00
   9 -12   3   22.50    8.10
   3   9   3   16.20    9.00
   9   3  -3    0.10   12.80
 -12   9  -3   22.60    6.50
   9 -12   3   16.40    9.30
   9 -12   3   -7.30   11.00
   9   3  -3   24.20   12.20
   9   3  -3   13.90    7.70
   3   9   3    6.60    7.70
 -12   9  -3   20.10    6.30
 -12   3   3   10.20    8.30
   3 -12  -3   10.20    9.50
 -12   3   3   11.80    7.30
   3 -12  -3   -2.60   10.20
  -3  -9  -3  -11.30   10.90
  -3  -9  -3   -1.00    9.90
  12  -3  -3   13.70    7.70
  12  -3  -3   22.30   14.70
  -9  12  -3   16.80    8.70
  -3  12   3    8.70    8.10
  12  -9   3   14.90    9.70
  -9  -3   3   25.40    7.90
  -3  12   3    2.40    7.70
  -9  -3   3   14.40    8.90
  12  -9   3    7.80    8.60
  12  -9   3   -0.80   10.60
  -3  12   3    5.40    8.80
  -9  12  -3   -6.30    8.30
 -12   2   3  126.19   14.30
   2 -12  -3  119.29   15.60
   2 -12  -3   90.59   22.50
  10 -12   3   83.99   24.60
   2  10   3  107.99   14.80
  10   2  -3  102.79   19.40
  10   2  -3  124.99   25.50
  10   2  -3  145.89   18.20
  10 -12   3  120.89   14.30
   2  10   3  132.39   17.80
 -12  10  -3  144.39   13.10
  10 -12   3  139.09   14.80
   2  10   3  132.09   14.20
 -12  10  -3  144.89   16.10
  12  -2  -3   99.89   17.00
  -2  12   3  126.69   14.60
  12  -2  -3  138.19   21.80
 -10  -2   3  131.39   15.60
 -10  12  -3  141.69   14.80
  12 -10   3  125.49   16.00
  -2 -10  -3  129.99   15.80
 -10  -2   3  132.89   14.40
  -2  12   3  121.09   15.20
  12 -10   3  125.79   14.60
  -2  12   3  123.39   18.50
 -10  12  -3  134.19   17.20
  -2 -10  -3  100.69   22.90
  12 -10   3   89.49   24.80
   1 -12  -3  229.58   29.00
  11   1  -3  263.47   25.60
 -12   1   3  278.07   21.90
   1  11   3  301.27   24.60
  11   1  -3  313.67   31.90
   1  11   3  268.67   21.90
  11 -12   3  289.07   31.90
  11 -12   3  267.77   21.90
   1  11   3  277.47   21.00
  11   1  -3  307.37   25.00
 -12  11  -3  293.57   20.60
 -12   1   3  287.47   21.30
  11 -12   3  282.37   22.10
   1 -12  -3  298.27   22.80
  -1  12   3  285.47   21.10
  12 -11   3  279.67   22.30
  12  -1  -3  268.77   24.30
  -1  12   3  305.77   22.20
 -11  12  -3  297.97   21.30
  12  -1  -3  291.57   26.10
  -1 -11  -3  287.37   29.40
  -1  12   3  296.27   24.60
 -11  12  -3  313.87   23.50
  12  -1  -3  309.07   30.20
  -1 -11  -3  291.67   22.60
  12 -11   3  280.27   21.70
 -11  -1   3  301.07   21.30
 -11  -1   3  300.17   21.90
  12 -12   3   17.40   10.00
 -12   0   3   19.20    8.80
   0  12   3    2.60   10.10
 -12  12  -3   32.50    8.40
  12 -12   3    4.80    8.90
   0 -12  -3    9.10   12.60
 -12   0   3   16.00    8.60
  12 -12   3   14.50   13.10
 -12  12  -3   21.90    7.90
  12   0  -3   16.40   14.00
  12   0  -3   13.70    8.00
  12   0  -3   21.70   13.40
   0  12   3    9.20    8.80
   0 -12  -3    7.90   10.20
   0  12   3   14.40    9.70
 -13  13   3  157.78   17.60
 -13   0  -3  160.78   20.10
  13 -13  -3  169.48   27.10
   0 -13   3  180.48   19.80
  13   0   3  163.58   18.40
   0  13  -3  160.88   20.50
   1  12  -3  119.99   19.50
  12   1   3   99.79   16.80
   1 -13   3  112.39   16.90
 -13  12   3   98.99   15.40
  12 -13  -3  113.09   17.70
 -13  12   3   87.69   19.00
 -13   1  -3  101.29   18.00
  12 -13  -3  114.89   24.60
   1 -13   3  116.89   26.30
   1  12  -3  107.59   23.70
 -12  13   3  117.19   18.70
  -1 -12   3   88.89   17.00
  13  -1   3  107.49   16.50
  -1 -12   3  123.69   25.60
 -12  -1  -3  111.49   18.20
  -1  13  -3  115.69   18.50
 -12  13   3  114.19   15.60
  13 -12  -3  141.99   18.00
  13 -12  -3  133.19   25.30
  11   2   3   53.09   11.80
   2  11  -3   22.70   12.50
  11 -13  -3   28.50    9.40
 -13  11   3   29.60    8.20
   2  11  -3   31.30   13.40
 -13  11   3   44.50    9.70
 -13   2  -3   41.70   12.40
   2 -13   3   40.40   10.70
   2 -13   3   30.10   13.80
  11 -13  -3   69.09   19.80
 -11  -2  -3   40.50   11.40
  -2  13  -3   67.09   13.90
 -11  13   3   35.20    8.20
  -2  13  -3   29.50   12.00
 -11  13   3   45.80    9.90
  -2 -11   3   34.10   10.50
  -2 -11   3   38.90   12.20
  13 -11  -3   35.90    9.00
  13 -11  -3   74.09   18.20
  13  -2   3   45.80   11.00
 -13  10   3  233.28   21.40
 -13  10   3  253.17   19.90
   3 -13   3  221.78   28.90
  10   3   3  249.58   20.30
   3 -13   3  242.98   20.60
  10 -13  -3  241.28   28.90
 -13   3  -3  260.57   23.20
   3  10  -3  230.58   29.20
  10 -13  -3  264.37   23.50
  13 -10  -3  221.48   22.10
  -3 -10   3  257.47   21.30
 -10  13   3  225.38   22.10
  13  -3   3  258.07   21.00
  -3  13  -3  251.47   21.70
  -3 -10   3  196.98   26.40
  -3  13  -3  246.28   26.40
 -10  -3  -3  238.48   22.00
 -10  13   3  271.77   19.90
  13 -10  -3  295.67   27.60
   4 -13   3  151.78   17.30
   9 -13  -3  173.58   27.30
   9 -13  -3  172.88   19.90
 -13   9   3  149.19   17.60
   9   4   3  159.98   16.70
   4   9  -3  206.78   25.60
   4 -13   3  156.88   27.30
 -13   4  -3  163.98   20.10
 -13   9   3  177.58   16.50
  -4  -9   3  165.28   15.10
  -9  -4  -3  168.58   18.90
  -4  13  -3  155.98   19.10
  -9  13   3  158.28   16.70
  -4  -9   3  160.78   18.20
  13  -9  -3  166.58   17.80
  -4  13  -3  131.29   22.20
  13  -9  -3  207.48   24.70
  -9  13   3  177.48   18.80
  13  -4   3  189.08   18.00
   5   8  -3  113.59   24.70
 -13   8   3  141.69   16.70
   8 -13  -3  129.29   26.00
   5 -13   3  104.69   16.40
 -13   5  -3  139.49   19.20
   5 -13   3  148.89   27.30
   8 -13  -3  101.79   14.50
 -13   8   3  139.09   15.10
   8   5   3  139.89   15.30
   8 -13  -3   97.29   19.70
  13  -5   3  162.58   16.70
  -5  -8   3  177.78   14.00
  -8  13   3  129.89   18.00
  -5  -8   3  133.39   16.90
  13  -8  -3  159.58   23.50
  -5  13  -3  164.18   18.50
  -5  13  -3  110.29   20.70
  -8  13   3  141.39   15.60
  13  -8  -3  126.19   17.30
  -8  -5  -3  152.78   17.80
   6   7  -3  364.36   32.70
   6 -13   3  383.16   26.30
   6 -13   3  359.96   35.60
   7 -13  -3  339.17   25.40
   6   7  -3  400.36   28.20
 -13   7   3  423.06   25.60
 -13   7   3  333.77   27.10
   7 -13  -3  334.07   29.80
   7   6   3  375.96   25.80
 -13   6  -3  366.86   28.40
  -7  13   3  398.86   25.70
  -7  13   3  372.76   27.80
  13  -7  -3  436.06   32.10
  -6  -7   3  396.16   25.20
  -7  -6  -3  396.86   26.80
  13  -7  -3  371.36   28.00
  13  -6   3  396.66   26.50
  -6  13  -3  393.16   27.00
  -6  13  -3  347.57   30.20
  -6  -7   3  371.56   26.80
  -7  -6  -3  352.26   29.00
   7   6  -3   17.50   10.80
   6   7   3   19.00    9.50
 -13   6   3   16.80    8.80
   7 -13   3   -3.50   12.30
   6 -13  -3    1.90    8.80
   6   7   3   26.90    8.50
 -13   7  -3   23.70   11.20
   7   6  -3    2.80    8.50
   7   6  -3    3.50   11.70
 -13   6   3    3.60    7.10
   6   7   3   12.80    6.90
   6 -13  -3    2.90    9.40
   7 -13   3   13.10    9.30
  -7  -6   3   21.30    8.50
  13  -6  -3   50.89   17.60
  13  -6  -3    6.00    7.30
  -6  -7  -3   10.80   11.00
  -6  13   3   14.30    7.50
  -6  13   3   16.40    8.60
  -7  13  -3   30.60   10.40
  -7  -6   3    7.20    9.40
  -6  -7  -3   12.90   10.00
  -7  13  -3    1.90    9.20
  13  -7   3   15.10   10.30
   5 -13  -3  215.88   18.40
   8   5  -3  201.28   19.70
   8 -13   3  207.48   17.60
   5   8   3  221.58   17.00
   5   8   3  200.68   17.30
 -13   5   3  180.68   18.90
   8   5  -3  175.48   28.70
   8 -13   3  191.18   27.60
 -13   5   3  206.68   17.50
   5   8   3  230.18   19.40
   5 -13  -3  151.28   22.90
   8   5  -3  191.38   20.70
  -8  -5   3  184.88   18.90
  13  -8   3  199.68   19.20
  -8  13  -3  196.38   21.90
  -5  13   3  202.78   17.20
  13  -5  -3  209.88   20.20
  -5  13   3  182.68   17.90
  13  -5  -3  257.07   24.70
  -8  13  -3  208.18   18.50
  -5  13   3  180.08   20.40
  -5  -8  -3  209.08   19.10
  -5  -8  -3  190.98   23.70
  -8  -5   3  193.78   16.80
   9 -13   3  159.88   14.90
   9 -13   3  138.29   26.30
   9 -13   3  152.98   16.30
 -13   9  -3  172.78   16.80
   4   9   3  164.78   18.80
   9   4  -3  152.78   26.40
 -13   4   3  151.88   17.00
   4 -13  -3  116.19   23.20
   9   4  -3  143.89   19.00
 -13   4   3  163.78   15.80
   4   9   3  149.29   15.60
   4   9   3  148.59   16.00
   4 -13  -3  154.88   17.50
   9   4  -3  149.29   18.90
  13  -4  -3  191.28   22.70
  -9  -4   3  185.48   15.60
  -9  -4   3  152.48   17.40
  -4  13   3  154.88   18.80
  -4  13   3  171.68   16.80
  -9  13  -3  175.78   16.80
  13  -4  -3  142.59   18.90
  -4  -9  -3  130.49   17.50
  -4  13   3  176.58   16.40
  13  -9   3  151.48   24.20
  13  -9   3  150.78   15.10
  13  -9   3  151.28   18.10
  -4  -9  -3  147.79   24.50
  10 -13   3   53.49    9.40
 -13  10  -3   70.79   14.20
   3 -13  -3   49.99   11.10
  10 -13   3   50.79    9.70
 -13  10  -3   60.59   11.50
 -13   3   3   50.79   10.30
   3  10   3   59.19   10.30
  10   3  -3   38.20    9.20
  10   3  -3   36.90   13.70
   3  10   3   42.70    9.50
   3  10   3   53.99   10.50
  10   3  -3   54.99   13.00
   3 -13  -3   30.80   12.00
  10 -13   3   39.10   13.80
 -10  13  -3   61.19   15.90
  -3  13   3   62.69   17.30
 -10  13  -3   54.49   10.60
  -3  13   3   52.69   10.30
 -10  -3   3   49.90    9.00
  13 -10   3   62.99   12.70
  -3 -10  -3   54.99   11.20
  13  -3  -3   80.19   16.20
  -3  13   3   58.49   10.50
  13  -3  -3   89.09   16.00
  13 -10   3   59.79   13.50
  -3 -10  -3   45.50   13.60
  13 -10   3   60.49   11.80
 -10  -3   3   60.29   11.10
  11   2  -3   89.49   14.60
 -13  11  -3  111.29   12.90
   2 -13  -3   81.29   15.70
  11 -13   3   83.59   14.70
   2  11   3   74.69   15.20
   2  11   3   96.19   18.50
   2  11   3  100.99   13.30
 -13   2   3   96.69   13.70
  11   2  -3   70.19   17.10
 -13  11  -3  130.29   18.10
  11   2  -3   60.79   15.50
  11 -13   3   68.69   16.10
  11 -13   3  102.59   14.50
 -11  -2   3  132.89   16.00
  13 -11   3   78.99   16.60
  -2  13   3   71.89   15.20
  13  -2  -3   64.19   16.90
  -2  13   3   81.99   13.80
  -2 -11  -3   96.89   15.80
  13  -2  -3  116.69   20.70
 -11  13  -3  104.29   16.80
  -2  13   3  111.19   17.30
 -11  -2   3  100.79   13.80
 -11  13  -3  110.39   14.30
  13 -11   3   64.09   18.60
  13 -11   3   97.69   14.30
 -13   1   3   15.10    9.30
  12 -13   3   -0.90    8.30
 -13   1   3    3.40    8.70
   1 -13  -3    1.70   10.10
  12   1  -3    6.00   13.20
  12 -13   3    3.50   10.10
   1  12   3   -4.90    9.90
 -13  12  -3   30.40    8.50
  12   1  -3   10.50   13.20
 -13  12  -3   21.20    8.00
  12   1  -3   12.80    8.40
   1  12   3   13.80    9.40
  12 -13   3  -12.90   13.10
   1  12   3   22.80   10.10
  13 -12   3    7.90   11.00
  13 -12   3   14.30   13.40
  13  -1  -3   11.10   13.30
  -1 -12  -3   -3.10   10.10
  13 -12   3    7.40    9.20
  13  -1  -3   19.80   15.10
 -12  -1   3   15.00    9.80
 -12  13  -3   22.70    9.10
 -12  -1   3    5.80    8.30
 -12  13  -3    9.20    8.40
  -1  13   3   15.30    8.80
  -1 -12  -3    2.70   13.40
  13  -1  -3   12.40    8.70
  -1  13   3   -2.20   10.10
  -1  13   3   10.30   10.20
  13 -13   3   13.20   13.70
   0  13   3   -7.60    9.40
 -13   0   3    4.60    9.60
 -13   0   3   30.60   10.90
   0  13   3  -16.20   10.70
   0 -13  -3    4.90   10.10
   0  13   3   -1.20   10.50
 -13  13  -3   20.70    8.90
  13   0  -3  -19.30   14.30
  13   0  -3   16.00   13.70
 -13  13  -3    7.60    8.10
  13 -13   3    6.80   11.10
  13 -13   3   -1.00    8.90
   0 -13  -3   20.30   13.50
 -14   0  -3   67.59   14.70
   0 -14   3   73.09   13.30
  14   0   3   83.19   16.60
   0  14  -3  108.59   19.30
  14 -14  -3   87.49   27.50
 -14  14   3   66.69   11.30
 -14  13   3   72.49   13.70
  13 -14  -3   44.00   20.80
   1  13  -3   48.40   14.60
   1 -14   3   37.60   14.50
 -14   1  -3   48.00   15.90
  13   1   3   55.19   14.50
 -13  14   3   57.39   11.80
  14 -13  -3   64.29   24.40
   2  12  -3   58.59   14.10
  12 -14  -3   72.19   20.00
 -14  12   3   67.49   14.40
   2 -14   3   53.19   12.50
  12   2   3   78.29   12.90
 -14   2  -3   60.79   13.20
  14 -12  -3   77.29   19.60
 -12  14   3   74.89   11.70
  -2  14  -3   80.59   17.10
  -2 -12   3   51.89   11.80
  14  -2   3   66.49   12.40
 -12  -2  -3   70.09   13.40
   3 -14   3  139.19   27.70
  11   3   3  199.28   18.90
  11 -14  -3  189.18   27.30
  11 -14  -3  169.78   28.90
   3  11  -3  171.68   21.70
 -14  11   3  185.18   18.40
   3 -14   3  202.48   19.30
 -14   3  -3  201.58   21.60
  -3  14  -3  207.58   21.10
 -11  14   3  202.68   18.10
  -3 -11   3  213.58   20.00
  14  -3   3  217.18   19.60
 -11  -3  -3  198.38   20.30
  14 -11  -3  210.38   26.30
  -3  14  -3  150.78   24.40
 -14  10   3   10.50    7.50
 -14  10   3    6.60    9.10
  10 -14  -3    4.10   21.10
  10   4   3   12.00   10.30
 -14   4  -3   13.90   12.10
   4  10  -3    4.30   12.80
   4 -14   3    7.20   10.20
   4 -14   3    5.80   12.60
  10 -14  -3    0.80    8.00
  14 -10  -3   23.70   16.90
 -10  14   3    9.00    7.30
  -4  14  -3   27.40   12.30
  -4 -10   3    9.70   11.00
  14 -10  -3   -4.40    8.70
  14  -4   3   21.30   10.90
 -10  14   3    3.50    9.40
 -10  -4  -3   15.80   10.90
  -4  14  -3   -8.30   10.00
   9 -14  -3   72.89   21.90
   5 -14   3   70.29   11.50
 -14   9   3   62.39   10.20
 -14   9   3   77.69   15.10
   5   9  -3   44.10   13.30
   9   5   3   92.29   14.70
   5 -14   3   45.60   14.70
 -14   5  -3   58.69   13.60
  -9  -5  -3   64.09   12.00
  14  -5   3   67.39   11.60
  14  -9  -3  111.39   23.60
  -5  -9   3   89.09   12.20
  14  -9  -3   79.89   15.30
  -5  14  -3   69.39   13.00
  -9  14   3   57.39   16.60
  -5  -9   3   57.49   11.60
  -9  14   3   61.79   10.40
   8   6   3    1.20   10.30
   8 -14  -3  -10.50   20.80
   8 -14  -3    1.20    8.60
 -14   6  -3   -0.40   12.20
 -14   8   3    1.70    7.80
   6 -14   3   13.80   10.20
 -14   8   3   32.70   10.20
   6 -14   3   -6.40   13.20
   6   8  -3   -8.40   12.40
   8 -14  -3    1.10   10.60
   6   8  -3    3.70    8.00
  -8  14   3    9.90    7.50
  -8  -6  -3   -3.50   10.20
  -6  -8   3   -3.00   10.60
  14  -8  -3   26.20   17.00
  -6  14  -3   -3.70    9.80
  14  -8  -3   -6.30    7.50
  -6  14  -3   11.60   10.30
  -8  14   3    5.20    9.50
  14  -6   3    3.50   10.30
   7   7   3  246.68   19.90
 -14   7  -3  224.58   23.10
   7 -14  -3  185.48   24.40
   7 -14  -3  209.28   19.30
 -14   7   3  237.88   19.30
   7 -14   3  248.38   19.60
   7   7  -3  252.77   28.10
   7   7   3  230.98   19.00
   7   7  -3  223.18   21.70
   7 -14   3  167.88   30.20
 -14   7   3  221.78   20.60
  -7  14  -3  256.07   20.70
  14  -7  -3  281.27   25.80
  -7  -7   3  241.08   21.00
  -7  14   3  221.48   21.30
  -7  -7   3  241.38   18.50
  14  -7  -3  211.38   21.40
  -7  -7  -3  234.78   25.50
  -7  14  -3  179.28   23.80
  -7  -7  -3  255.17   20.60
  -7  14   3  222.98   19.70
  14  -7   3  257.47   21.00
   8   6  -3   86.09   16.80
   6   8   3  105.49   15.70
   8 -14   3   92.39   14.50
   6   8   3   78.99   13.90
 -14   6   3   71.69   13.80
   6 -14  -3   70.49   11.50
   8   6  -3   95.49   16.20
 -14   6   3   67.59   15.10
 -14   8  -3   70.19   13.60
   6   8   3   92.09   13.80
  -8  -6   3  102.29   13.10
  14  -6  -3  132.69   21.70
  -6  14   3   68.59   14.50
  -8  14  -3   83.79   15.90
  -8  -6   3   80.69   12.90
  14  -6  -3   76.09   16.90
  -6  -8  -3   84.89   16.00
  -8  14  -3   78.09   18.80
  14  -8   3   83.09   12.90
  -6  -8  -3   89.29   23.00
   5   9   3   65.89   13.30
 -14   5   3   55.19   14.70
   9 -14   3   83.39   13.80
 -14   5   3   69.39   13.40
   9   5  -3   96.19   16.90
   9 -14   3   52.19   14.20
   9   5  -3   34.20   14.90
 -14   9  -3   91.59   14.00
   9   5  -3   79.29   16.60
   5 -14  -3   84.49   15.30
   5 -14  -3   50.59   13.20
  14  -5  -3   58.59   16.40
  -5  14   3   58.19   11.20
  14  -5  -3  114.49   21.90
  -5  14   3   45.60    9.50
  14  -9   3   60.79   12.90
  -5  -9  -3  102.79   22.70
  -9  14  -3   82.99   15.10
  14  -9   3   78.99   12.70
  -5  -9  -3   59.19   11.60
  -5  14   3   69.39   11.30
  -9  -5   3   89.59   16.00
  -9  -5   3   68.49   12.80
   4 -14  -3  226.48   20.00
 -14   4   3  204.58   18.10
 -14   4   3  183.58   20.30
  10 -14   3  178.58   17.70
   4  10   3  226.48   21.60
  10   4  -3  236.38   28.90
   4  10   3  214.08   18.90
  10   4  -3  208.08   21.60
   4  10   3  190.08   17.60
  10 -14   3  223.88   18.60
 -14  10  -3  216.48   16.80
   4 -14  -3  159.88   25.90
  10 -14   3  219.78   29.40
 -14  10  -3  232.98   19.60
  10   4  -3  219.58   21.20
 -10  14  -3  192.28   20.40
  -4 -10  -3  198.68   19.30
  14  -4  -3  232.38   24.00
 -10  -4   3  228.48   20.20
 -10  -4   3  242.08   17.70
  -4 -10  -3  162.38   28.00
  14 -10   3  187.78   20.60
 -10  14  -3  213.98   18.80
  -4  14   3  205.18   18.20
  14  -4  -3  164.28   21.00
  -4  14   3  173.68   21.80
  14 -10   3  196.28   28.40
  -4  14   3  175.68   18.80
   3 -14  -3   11.80   11.60
   3  11   3   20.90    9.00
  11   3  -3   23.80   12.90
  11   3  -3   18.00    9.00
  11 -14   3    9.30    9.80
   3  11   3   10.50   10.10
 -14  11  -3   22.70    8.60
   3  11   3   13.70   10.30
 -14   3   3   15.30    9.30
  11 -14   3   15.40    9.10
  11   3  -3    4.80   14.10
  11 -14   3   14.90   13.40
 -14  11  -3   19.00    8.50
  -3  14   3   19.60    8.20
 -11  -3   3   22.30   11.00
  -3  14   3   15.00   10.20
  14  -3  -3   18.40    8.30
  14 -11   3   17.70   11.90
 -11  14  -3   16.40    9.60
  14 -11   3   21.40   13.70
  -3 -11  -3   21.60   10.30
  -3  14   3    8.60   10.40
 -11  14  -3   15.50    8.40
  14  -3  -3   20.20   14.90
  14 -11   3   32.40    9.80
 -11  -3   3    8.60    8.80
  -3 -11  -3   16.00   13.00
  12 -14   3  120.69   16.90
   2 -14  -3  102.49   17.80
 -14   2   3  107.49   15.10
  12   2  -3  102.09   21.20
 -14  12  -3  137.89   14.80
 -14  12  -3  132.89   18.30
   2  12   3  101.39   14.60
   2  12   3  116.79   20.30
  12 -14   3  103.29   15.70
   2  12   3   96.39   17.20
  -2  14   3   90.99   17.20
  -2  14   3  127.69   18.90
  14 -12   3  110.19   18.50
  14  -2  -3  147.19   21.70
 -12  -2   3  123.29   18.20
  14 -12   3  122.69   15.40
  -2  14   3   94.99   14.80
 -12  14  -3  118.69   17.90
 -12  -2   3  120.39   15.20
 -12  14  -3  110.79   17.70
  14 -12   3  143.19   28.50
  -2 -12  -3   95.49   17.00
 -14   1   3   37.20    9.70
 -14  13  -3   49.20   10.30
 -14  13  -3   25.50    8.70
  13 -14   3   21.50   14.50
  13 -14   3   33.20   10.30
   1 -14  -3   32.60   12.00
   1 -14  -3   22.80   14.50
   1  13   3   28.90   11.40
  13   1  -3   45.80   14.50
   1  13   3   32.90   11.70
  13 -14   3   33.50   11.90
   1  13   3   34.10   10.10
 -13  14  -3   42.90   10.50
 -13  -1   3   51.39   11.80
  14 -13   3   26.10   12.80
 -13  -1   3   35.60   11.50
  14 -13   3   39.30   10.30
  -1  14   3   19.60   12.60
  -1 -13  -3   30.30   11.40
 -13  14  -3   32.30    9.30
  -1  14   3   17.60   11.90
  -1  14   3   11.90    9.70
  14 -13   3   38.10   14.80
  14  -1  -3   30.80   14.50
 -14  14  -3   23.40   10.10
 -14   0   3    7.50   10.40
   0  14   3    7.70   11.80
  14   0  -3    4.50   14.10
 -14  14  -3   10.10    8.60
   0  14   3    2.20   11.40
  14 -14   3   15.00   14.80
  14 -14   3   -2.60   12.30
   0 -14  -3   10.50   11.20
  14 -14   3   -2.80   10.40
   0  14   3   -6.60    9.50
 -15  15   3   28.90   11.10
   0 -15   3   27.70   12.80
  15 -15  -3   45.00   21.40
  15   0   3   34.20   13.40
   0  15  -3   38.70   12.90
 -15   0  -3   20.00   12.80
 -15  14   3  119.79   16.50
  14   1   3  103.39   18.10
 -15   1  -3   96.49   19.20
   1  14  -3  102.39   19.90
   1 -15   3   88.29   14.50
  14 -15  -3   99.09   22.90
  -1  15  -3   95.89   19.10
  15 -14  -3  147.79   26.40
  15  -1   3  108.19   17.60
 -14  -1  -3   90.49   14.50
  -1 -14   3  123.99   18.50
 -14  15   3  109.89   16.30
   2  13  -3  151.88   21.50
   2 -15   3  174.88   19.90
  13 -15  -3  185.18   33.50
  13   2   3  175.78   20.90
 -15   2  -3  157.08   21.10
 -15  13   3  204.38   18.00
  -2  15  -3  187.68   21.20
  -2 -13   3  170.28   19.90
 -13  -2  -3  173.08   20.20
 -13  15   3  162.98   18.40
  15  -2   3  167.98   19.70
  15 -13  -3  198.08   27.20
 -15  12   3  172.48   18.10
   3 -15   3  166.38   19.10
  12 -15  -3  178.18   28.20
  12   3   3  171.48   18.90
   3  12  -3  161.48   21.80
 -15   3  -3  154.88   27.20
 -12  15   3  171.18   17.70
  -3  15  -3  187.38   27.50
  -3 -12   3  145.09   28.30
  15  -3   3  162.88   19.10
 -12  -3  -3  193.48   20.00
  15 -12  -3  192.38   27.20
 -15   4  -3   14.60   13.10
  11 -15  -3   14.40   19.80
   4 -15   3   33.00   17.90
   4  11  -3  -12.60   23.50
  11   4   3   18.80   11.40
  15 -11  -3   39.40   31.20
 -11  -4  -3   23.00   19.80
  -4 -11   3   40.70   12.10
  -4  15  -3   30.80   14.20
 -15   5  -3   58.69   13.90
  10   5   3   46.90   11.70
   5 -15   3   32.00   12.20
 -15  10   3   45.20    9.80
  10 -15  -3   43.40   21.60
  15  -5   3   33.10   17.90
 -10  15   3   38.00   10.70
  -5  15  -3   36.60   11.90
 -10  -5  -3   38.30   18.20
  -5 -10   3   34.20   11.50
  15 -10  -3   75.99   23.80
   9 -15  -3   58.99   22.90
   6 -15   3   58.79   11.70
   6 -15   3   60.19   16.90
   9   6   3   78.19   15.20
 -15   6  -3   80.39   14.90
 -15   9   3  114.69   14.90
  -9  15   3   69.99   15.30
  -6  15  -3  105.99   17.20
  -6  -9   3   89.49   12.70
  -9  -6  -3   82.79   16.50
  -6  -9   3   75.79   13.40
  -6  15  -3   44.90   12.20
  15  -6   3   80.09   13.30
   8   7   3  225.28   19.60
   7 -15   3  202.68   19.70
 -15   7  -3  216.98   22.70
   8 -15  -3  171.28   20.10
   8 -15  -3  225.58   31.10
   8   7   3  226.58   19.30
 -15   8   3  193.58   19.00
  -8  -7  -3  243.88   25.20
  -7  -8   3  198.38   21.10
  -8  15   3  196.88   20.70
  -7  15  -3  215.28   20.60
  15  -7   3  192.88   20.80
  -7  -8   3  239.08   17.50
  15  -8  -3  238.88   25.90
  -8  -7  -3  207.28   20.30
  -8  15   3  198.78   19.20
   8 -15   3   -0.70   13.90
   8 -15   3   23.60   10.70
   7   8   3   38.70   11.40
 -15   8  -3   31.50   13.80
   7 -15  -3   37.20   11.00
   7   8   3   54.99   15.50
 -15   7   3   19.80    9.20
  -8  -7   3   23.30   11.70
  -8  -7   3   24.50   10.10
  -7  15   3    4.90    8.50
  -7  15   3   26.00   10.30
  -7  -8  -3   28.30   11.00
  -8  15  -3   11.70    9.80
  -7  -8  -3   16.40   12.60
  15  -7  -3   47.70   17.00
  15  -8   3   20.80   11.70
  -8  15  -3   30.80   11.70
   6   9   3  176.98   17.00
   6   9   3  179.38   20.00
 -15   9  -3  160.78   20.90
   6 -15  -3  179.58   19.30
   9 -15   3  161.78   29.40
   9 -15   3  187.88   17.60
   9   6  -3  171.98   19.80
   6   9   3  196.28   18.00
 -15   6   3  165.68   17.10
  -6  15   3  148.19   20.30
  -6  -9  -3  165.28   18.90
  -9  15  -3  196.58   19.10
  15  -9   3  156.98   19.90
  -6  -9  -3  175.28   27.20
  -6  15   3  163.08   18.30
  15  -6  -3  201.68   24.30
  -9  -6   3  185.68   17.10
  -9  -6   3  183.18   20.20
 -15   5   3   34.20    9.60
  10   5  -3   33.90   13.30
 -15  10  -3   16.40    7.70
   5 -15  -3   13.20   11.60
   5  10   3   27.10   11.10
  10 -15   3   11.60   10.40
   5  10   3   19.50   10.70
   5  10   3   20.10    9.10
  10 -15   3   25.20   10.90
  10 -15   3   22.90   14.80
   5 -15  -3   -0.10   11.90
  -5  15   3   22.50   10.40
  15  -5  -3   46.70   15.60
  15 -10   3   39.70   13.50
  -5  15   3   11.30   10.20
  -5  15   3    4.20    9.20
  -5 -10  -3   13.90   13.80
 -10  15  -3   30.70   10.80
  -5 -10  -3   11.70   10.60
  15 -10   3   35.90   12.20
 -10  -5   3   23.00    8.90
 -10  15  -3   10.60    8.80
 -10  -5   3   33.90   12.40
 -15  11  -3  235.08   18.00
 -15  11  -3  213.38   21.50
  11 -15   3  199.58   31.50
 -15   4   3  214.78   18.60
  11 -15   3  217.48   19.50
   4 -15  -3  210.68   20.80
   4  11   3  248.28   23.40
   4  11   3  207.68   20.70
   4  11   3  183.68   18.70
  11   4  -3  211.68   22.20
  11 -15   3  201.48   18.70
  -4  15   3  181.48   18.80
 -11  -4   3  219.28   19.60
  -4  15   3  188.98   23.30
  -4  15   3  195.98   20.30
  15 -11   3  233.28   31.80
  -4 -11  -3  192.38   29.00
 -11  15  -3  215.28   19.20
 -11  -4   3  230.58   22.20
  -4 -11  -3  232.88   20.40
  15  -4  -3  226.78   25.30
 -11  15  -3  207.18   22.10
  15 -11   3  233.58   21.80
  12 -15   3  194.98   19.50
   3 -15  -3  188.58   20.70
 -15  12  -3  200.98   21.20
   3  12   3  210.38   22.90
  12   3  -3  192.08   21.90
 -15  12  -3  214.88   18.60
   3  12   3  173.38   17.70
   3  12   3  182.88   20.40
  12 -15   3  168.58   19.50
  -3  15   3  161.58   18.40
 -12  15  -3  189.98   19.10
  15 -12   3  174.48   21.30
  -3  15   3  202.38   22.00
  15 -12   3  215.08   17.60
  -3 -12  -3  156.18   30.40
 -12  15  -3  221.98   20.60
  15  -3  -3  227.08   23.80
 -12  -3   3  180.88   22.10
  -3 -12  -3  154.88   19.70
  -3  15   3  187.58   19.90
  15 -12   3  216.58   32.20
   2  13   3   47.70   11.80
  13 -15   3   47.80   12.70
 -15   2   3   39.60   10.40
  13   2  -3   66.09   14.90
   2 -15  -3   44.40   13.30
 -15  13  -3   27.90    9.60
   2 -15  -3   16.20   15.50
 -15  13  -3   40.70   11.50
   2  13   3   77.19   19.60
  13 -15   3   24.60   15.50
   2  13   3   52.99   12.60
  -2  15   3   44.70   10.70
  -2  15   3   32.70   11.80
  15 -13   3   47.50   13.70
  -2  15   3   43.10   12.50
  15  -2  -3   61.09   15.20
 -13  -2   3   42.30   13.60
  -2 -13  -3   33.90   12.30
  -2 -13  -3   32.90   14.80
 -13  -2   3   49.20   11.30
 -13  15  -3   42.20   11.10
  15 -13   3   54.99   10.70
   1 -15  -3   51.19   16.20
   1  14   3   94.69   19.00
  14 -15   3   68.29   13.00
 -15  14  -3  118.19   18.90
   1  14   3   75.39   13.60
 -15   1   3   90.39   15.20
 -15  14  -3  122.59   16.00
   1  14   3  107.19   21.10
  14 -15   3   53.79   17.30
   1 -15  -3   91.69   18.40
  14 -15   3   91.19   18.60
  14   1  -3   92.89   20.10
  -1  15   3   91.69   18.50
 -14  -1   3   94.69   15.40
 -14  -1   3   96.49   15.20
 -14  15  -3  108.99   15.30
  15 -14   3   80.19   15.20
  15  -1  -3  114.69   20.50
  -1  15   3   70.69   13.60
  -1  15   3   86.19   20.60
  15 -14   3   87.29   15.30
  15 -14   3  160.48   31.80
  15 -15   3   83.69   15.50
  15   0  -3   78.09   16.40
 -15  15  -3  105.39   18.10
   0 -15  -3   64.79   15.00
  15 -15   3   31.00   17.30
 -15  15  -3   87.99   15.90
   0  15   3   71.79   14.10
 -15   0   3   67.19   11.50
   0  15   3   39.90   12.20
   0  15   3   50.89   14.10
  15 -15   3   65.69   12.20
 -16  16   3   49.80   11.70
 -16   0  -3   73.29   15.40
  16 -16  -3  124.09   25.20
   0  16  -3   59.09   15.20
   0 -16   3   74.49   14.80
  16   0   3   57.69   14.40
 -16   1  -3   18.20   13.40
  15 -16  -3   34.00   23.00
   1  15  -3   25.40   13.70
  15   1   3   13.20   13.60
 -16  15   3   28.00   10.70
   1 -16   3   24.80   12.70
  16 -15  -3   27.60   19.20
  -1  16  -3    7.40   15.00
  16  -1   3   25.80   12.50
  -1 -15   3   23.00   12.20
 -15  16   3   29.20   11.40
 -15  -1  -3   42.90   14.40
   2 -16   3  163.08   21.50
  14   2   3  203.28   21.70
 -16   2  -3  181.58   22.40
 -16  14   3  202.08   19.30
  14 -16  -3  187.28   29.50
   2  14  -3  183.28   23.10
  -2 -14   3  213.38   21.70
 -14  16   3  197.18   19.80
 -14  -2  -3  227.38   22.00
  16 -14  -3  223.08   27.20
  16  -2   3  205.58   21.20
  -2  16  -3  236.08   23.60
  13   3   3  191.48   20.80
  13 -16  -3  191.78   31.00
 -16  13   3  183.88   19.30
   3 -16   3  173.98   20.70
 -16   3  -3  184.28   22.40
   3  13  -3  169.68   23.00
  -3 -13   3  239.98   21.50
  -3  16  -3  229.88   22.70
 -13  16   3  173.18   18.80
  16 -13  -3  216.88   26.80
 -13  -3  -3  176.88   20.70
  16  -3   3  198.58   20.60
  12   4   3  379.26   32.10
   4  12  -3  368.06   31.40
 -16  12   3  391.96   27.80
   4 -16   3  416.06   28.80
  12 -16  -3  376.36   35.40
 -16   4  -3  391.56   30.60
 -12  16   3  398.36   27.90
  16  -4   3  406.86   29.20
  -4 -12   3  434.36   29.90
 -12  -4  -3  377.06   29.20
  -4  16  -3  402.56   29.80
  16 -12  -3  420.16   33.60
 -16  11   3   95.49   15.40
   5  11  -3   99.69   17.00
   5 -16   3  106.99   17.00
  11   5   3  114.49   16.80
  11 -16  -3  104.19   23.60
  -5  16  -3  127.59   18.30
 -11  16   3   93.59   15.90
  16 -11  -3  145.79   23.60
 -11  -5  -3  112.49   17.80
  16  -5   3   89.89   17.30
 -16  10   3   61.89   10.50
 -16   6  -3   67.89   16.20
  10   6   3   60.49   12.80
  10 -16  -3   44.70   22.50
   6 -16   3   32.70   11.80
  16 -10  -3  115.49   23.20
 -10  16   3   52.29   10.80
 -10  -6  -3   66.79   13.30
  16  -6   3   42.70   12.70
  -6 -10   3   58.89   13.20
   9 -16  -3  249.18   27.70
 -16   7  -3  200.18   23.40
   7 -16   3  196.88   19.90
   9   7   3  180.38   19.40
   9 -16  -3  179.38   30.90
 -16   9   3  196.48   18.60
  -7  -9   3  182.48   17.30
  -9  16   3  210.08   22.60
  16  -9  -3  243.68   25.60
  -9  -7  -3  194.28   20.40
  -7  -9   3  189.88   21.40
  16  -7   3  188.38   20.70
  -7  16  -3  216.08   20.80
   8 -16  -3   74.09   14.30
   8 -16  -3   87.59   27.00
   8 -16   3   81.19   15.80
 -16   8  -3  105.09   16.80
 -16   8   3  107.99   17.40
   8   8   3   79.89   15.30
  -8  -8   3  120.69   13.60
  -8  16   3  106.59   20.70
  -8  -8   3  108.89   18.70
  -8  16  -3  100.79   17.60
  16  -8   3   91.69   19.40
  -8  -8  -3   88.79   13.30
  16  -8  -3  129.09   22.30
   7 -16  -3   89.39   17.00
   9 -16   3   29.20   15.80
   9 -16   3   56.99   11.80
 -16   7   3   53.09   12.10
 -16   9  -3   38.30   14.70
   7 -16  -3   67.59   25.00
   7   9   3   50.59   12.30
  -7  -9  -3   60.99   12.30
  -9  16  -3   63.09   12.50
  -9  -7   3   73.29   14.00
  16  -7  -3   58.09   17.00
  -7  16   3   54.19   12.10
  -9  -7   3   63.29   13.60
  10 -16   3  156.68   31.30
   6  10   3  205.48   20.50
   6  10   3  175.48   18.10
  10 -16   3  167.88   18.60
 -16   6   3  203.18   18.20
 -16  10  -3  188.58   22.40
   6 -16  -3  200.68   21.10
  10   6  -3  162.48   20.10
   6  10   3  220.48   23.00
  -6 -10  -3  175.58   19.20
  16  -6  -3  209.48   24.30
  -6 -10  -3  177.08   30.10
 -10  16  -3  205.78   19.30
  -6  16   3  181.58   19.90
 -10  16  -3  135.59   20.90
 -10  -6   3  202.78   21.90
 -10  -6   3  186.48   17.80
   5  11   3  196.38   23.00
   5 -16  -3  207.78   21.20
   5  11   3  161.38   18.70
  11 -16   3  158.58   31.90
 -16   5   3  191.78   18.70
  11   5  -3  185.88   22.00
   5  11   3  191.68   21.20
  11 -16   3  199.88   19.40
  16  -5  -3  260.07   24.50
  16 -11   3  209.68   22.80
 -11  16  -3  209.08   18.90
 -11  16  -3  203.58   22.40
  -5  16   3  206.98   20.10
  -5 -11  -3  222.48   20.50
 -11  -5   3  229.48   22.80
 -11  -5   3  209.58   18.50
  12   4  -3  109.39   20.30
  12 -16   3   77.39   15.10
   4 -16  -3   73.09   14.50
   4  12   3   73.19   14.60
  12 -16   3   99.19   16.70
   4  12   3   99.39   20.50
   4  12   3  103.69   18.90
 -16   4   3  100.09   15.30
 -12  16  -3   90.29   16.40
  -4  16   3   57.99   13.00
  -4  16   3   82.39   13.70
  -4 -12  -3   67.69   13.40
  -4 -12  -3   46.50   16.60
  16 -12   3   94.19   19.00
 -12  -4   3   85.09   15.10
 -12  -4   3   83.19   14.70
  16  -4  -3  111.39   21.10
   3  13   3  186.68   24.00
 -16  13  -3  187.08   19.80
   3  13   3  172.28   18.80
 -16   3   3  209.88   18.90
  13 -16   3  204.08   21.30
   3 -16  -3  168.58   21.50
  13 -16   3  208.38   19.60
   3  13   3  204.18   22.50
  13   3  -3  232.78   22.90
  -3 -13  -3  189.68   20.10
  16  -3  -3  228.78   24.30
 -13  16  -3  224.68   22.10
  -3  16   3  169.68   19.30
 -13  -3   3  186.68   18.40
  -3  16   3  187.18   21.50
  16 -13   3  207.48   18.40
  16 -13   3  212.18   23.00
 -13  -3   3  193.18   23.70
 -13  16  -3  220.68   20.00
   2  14   3  101.49   19.70
   2  14   3   55.69   13.20
   2 -16  -3   55.49   14.80
  14 -16   3   53.49   12.30
 -16  14  -3   86.29   16.20
  14 -16   3   22.30   17.40
   2  14   3  104.19   21.10
  14   2  -3   68.59   16.00
 -16   2   3   74.29   15.00
  14 -16   3   57.79   14.30
  -2  16   3   60.29   14.00
  -2  16   3   35.70   13.80
 -14  16  -3   85.19   16.30
  -2 -14  -3   54.79   18.00
  16 -14   3   60.99   15.80
 -14  -2   3   46.80   11.10
  -2 -14  -3   51.49   12.40
 -14  16  -3   83.69   18.40
  16  -2  -3   65.49   16.10
 -14  -2   3   71.29   15.50
  16 -14   3   86.69   15.00
  15   1  -3  108.39   21.10
 -16  15  -3   82.89   14.80
 -16   1   3  103.59   16.50
   1  15   3  136.89   20.40
   1  15   3   88.79   16.70
  15 -16   3   96.59   16.80
   1 -16  -3  116.49   19.20
  15 -16   3  112.29   20.80
 -15  16  -3  100.99   17.30
  16 -15   3   93.09   16.60
  16  -1  -3  115.59   20.60
  -1  16   3  104.49   20.20
 -15  16  -3  101.99   19.90
  -1  16   3   63.09   15.20
  16 -15   3  119.19   17.60
 -15  -1   3  117.29   16.50
  -1 -15  -3  153.18   31.40
  -1 -15  -3  103.79   18.80
   0  16   3  -15.20   13.50
 -16   0   3   18.30   11.10
   0 -16  -3   19.00   12.60
  16   0  -3   25.00   16.10
  16 -16   3   35.50   16.10
  16 -16   3   17.30   11.30
 -16  16  -3   32.10   12.60
   0  16   3   24.80   21.10
 -17   0  -3   30.90   13.70
   0  17  -3   20.20   15.80
 -17  17   3   30.90   11.70
   0 -17   3   40.90   14.30
  17 -17  -3   45.30   21.40
  17   0   3   30.70   14.80
  16   1   3  100.49   20.10
  16 -17  -3  138.89   26.70
   1 -17   3   82.89   15.20
 -17   1  -3   94.59   16.70
 -17  16   3  108.09   18.00
   1  16  -3   98.29   20.20
 -16  17   3  112.19   17.40
  17 -16  -3  103.79   21.90
 -16  -1  -3  100.59   19.50
  -1 -16   3  113.99   19.70
  17  -1   3  108.39   18.90
  -1  17  -3  125.29   21.30
   2  15  -3  142.99   21.60
  15 -17  -3  100.69   24.20
 -17  15   3  124.29   17.30
  15   2   3  115.99   19.70
 -17   2  -3  110.99   20.80
   2 -17   3  109.49   19.60
  17  -2   3  109.89   19.20
  -2 -15   3   95.99   19.90
 -15  -2  -3  110.39   19.20
 -15  17   3  122.89   17.80
  -2  17  -3  107.39   20.60
  17 -15  -3  152.78   25.50
   3 -17   3  330.67   27.10
 -17   3  -3  364.76   28.50
 -17  14   3  347.17   26.10
  14   3   3  322.87   27.50
   3  14  -3  318.87   28.60
  14 -17  -3  298.57   34.50
  17 -14  -3  334.87   31.30
  17  -3   3  343.67   27.20
 -14  17   3  344.47   25.70
 -14  -3  -3  338.17   27.20
  -3 -14   3  388.96   27.60
  -3  17  -3  344.77   27.70
 -17  13   3  462.55   31.80
   4  13  -3  466.35   35.40
  13   4   3  470.25   32.90
  13 -17  -3  474.25   41.00
 -17   4  -3  470.35   34.30
   4 -17   3  488.65   32.90
  17  -4   3  476.25   33.00
 -13  17   3  450.55   31.70
 -13  -4  -3  437.26   33.00
  17 -13  -3  489.95   37.20
  -4 -13   3  506.95   33.80
  -4  17  -3  457.55   33.10
 -17  12   3   89.29   15.90
  12   5   3  100.09   17.50
   5 -17   3  102.89   17.60
 -17   5  -3   84.59   16.10
   5  12  -3   57.49   17.40
  17  -5   3   89.49   17.80
  -5 -12   3  107.79   19.30
  -5  17  -3  132.49   18.90
  17 -12  -3  134.59   23.60
 -12  17   3  103.99   16.50
 -12  -5  -3  110.49   18.40
   6  11  -3  262.87   25.80
 -17   6  -3  258.97   25.80
 -17  11   3  233.08   21.60
   6 -17   3  232.18   22.60
  11 -17  -3  260.47   31.90
  17  -6   3  241.78   22.80
  -6  17  -3  259.97   23.30
  -6 -11   3  264.27   24.40
 -11  17   3  237.28   21.60
 -11  -6  -3  271.57   23.00
  17 -11  -3  284.97   27.30
   7 -17   3  177.98   19.90
  10 -17  -3  209.38   31.00
  10   7   3  166.88   19.50
 -17  10   3  202.38   19.00
 -17   7  -3  194.78   23.50
  -7  17  -3  201.38   21.10
 -10  17   3  180.78   19.30
  17  -7   3  155.58   20.60
  17 -10  -3  198.28   24.60
  -7 -10   3  172.58   21.80
 -10  -7  -3  160.28   20.20
   9 -17  -3  246.58   35.10
 -17   9   3  292.87   23.00
   9 -17  -3  324.17   23.80
 -17   8  -3  302.57   26.70
   8 -17   3  294.87   23.20
   9   8   3  270.27   22.90
  -9  -8  -3  248.68   23.80
  -8  -9   3  253.67   21.00
  -8  -9   3  269.07   27.00
  -8  17  -3  289.27   24.20
  17  -9  -3  287.17   27.50
  17  -8   3  269.67   24.50
  -9  17   3  271.67   22.80
 -17   9  -3  124.79   18.10
   9 -17   3   91.59   16.50
   8 -17  -3  106.79   27.70
   8   9   3   77.89   16.00
   8 -17  -3   56.99   15.00
 -17   8   3   86.19   15.80
  -9  -8   3   99.59   14.00
  -8  -9  -3   83.19   17.00
  -9  -8   3  101.99   16.00
  17  -9   3   96.59   14.70
  -9  17  -3  110.19   18.10
  -8  17   3   80.79   16.40
  17  -8  -3  118.99   22.00
   7 -17  -3   97.99   29.40
   7  10   3   46.90   12.90
 -17  10  -3   39.50   16.00
 -17   7   3   49.90   10.90
   7 -17  -3   59.49   13.60
  10 -17   3   37.50   11.10
  -7 -10  -3   47.70   11.90
  17 -10   3   54.99   14.40
  17  -7  -3   68.09   16.50
 -10  -7   3   55.19   11.80
  -7  17   3   52.09   12.10
 -10  -7   3   49.00   14.50
  11 -17   3  378.96   27.90
   6  11   3  357.06   27.40
 -17   6   3  413.26   27.50
   6  11   3  430.56   32.70
   6 -17  -3  408.06   30.00
 -17  11  -3  385.36   30.70
 -11  17  -3  341.17   30.00
  -6  17   3  401.96   28.50
 -11  -6   3  400.16   30.80
  17 -11   3  374.26   29.90
  -6 -11  -3  379.46   28.60
 -11  -6   3  371.36   27.10
  17  -6  -3  407.76   30.90
   5  12   3  370.16   28.80
   5  12   3  412.16   31.20
  12 -17   3  428.76   28.70
   5 -17  -3  408.36   31.40
  12   5  -3  387.46   31.00
 -17   5   3  406.46   28.40
  -5 -12  -3  367.16   29.20
 -12  -5   3  429.06   32.50
  17  -5  -3  424.36   31.40
 -12  17  -3  404.76   29.60
 -12  -5   3  394.86   28.00
  -5  17   3  411.56   29.20
  17 -12   3  405.26   30.90
   4 -17  -3  133.09   20.00
   4  13   3   83.89   16.80
   4  13   3  155.38   21.80
  13 -17   3  129.69   17.40
 -17   4   3  140.49   17.00
  13   4  -3  138.89   20.80
  17  -4  -3  145.99   21.70
 -13  -4   3  121.19   16.40
 -13  -4   3  114.59   17.80
  17 -13   3  128.49   21.00
  -4  17   3  147.69   19.40
  -4 -13  -3  127.59   18.00
 -13  17  -3  144.99   17.80
   3  14   3  105.39   20.30
   3  14   3  135.49   21.60
  14   3  -3   97.59   17.00
   3  14   3   83.39   16.00
  14 -17   3  111.99   20.40
 -17   3   3   94.79   16.40
  14 -17   3   86.29   17.10
  17  -3  -3  116.19   20.80
 -14  -3   3  104.89   16.30
 -14  -3   3   93.79   17.60
  -3  17   3  103.19   19.50
  17 -14   3  103.19   21.00
  -3 -14  -3   88.09   14.80
 -14  17  -3   97.39   17.30
  17 -14   3  116.09   15.20
  -3  17   3   61.09   14.60
  15 -17   3  122.39   18.20
  15 -17   3  123.89   21.80
   2 -17  -3  139.29   20.40
   2  15   3  158.58   22.30
  15   2  -3  142.99   22.10
 -17  15  -3  165.38   20.60
   2  15   3   84.09   17.90
   2  15   3  181.58   26.60
 -17   2   3  145.69   17.80
  17 -15   3  128.49   22.40
  -2 -15  -3  138.89   19.80
  17  -2  -3  149.99   20.90
 -15  17  -3  145.19   18.20
  -2  17   3  108.69   18.40
  17 -15   3  142.79   17.20
 -15  -2   3  114.69   17.10
 -15  -2   3  121.09   19.90
  -2  17   3  142.19   21.10
 -17   1   3   11.70   11.30
 -17  16  -3    2.70   12.70
   1 -17  -3    7.40   13.90
  16 -17   3   11.80   10.90
   1  16   3   24.40   15.10
  16   1  -3   15.70   15.80
  16 -17   3   30.10   16.10
  -1  17   3   20.10   14.50
  17 -16   3   13.80   11.10
 -16  -1   3   16.30   12.20
  -1 -16  -3    7.70   13.20
  17  -1  -3   31.20   16.20
  17 -16   3   24.20   16.30
  -1  17   3    8.30   14.10
 -16  17  -3   22.00   13.00
 -17   0   3   84.19   16.90
 -17  17  -3   71.69   16.10
  17   0  -3   72.19   17.20
   0  17   3   83.39   16.50
  17 -17   3  109.49   22.80
  17 -17   3   79.49   13.20
   0 -17  -3   73.19   15.10
   0  18  -3  114.59   21.60
 -18  18   3   96.79   18.70
   0 -18   3  110.89   21.70
  18 -18  -3  109.99   22.50
  18   0   3  113.59   21.20
 -18   0  -3   98.49   17.30
   1  17  -3   47.10   15.60
 -18  17   3   59.79   13.00
   1 -18   3   59.39   14.60
  17   1   3   68.49   16.90
 -18   1  -3   41.10   15.10
  17 -18  -3   68.19   23.20
  -1  18  -3   60.69   14.80
 -17  18   3   53.99   12.30
 -17  -1  -3   54.79   14.30
  18 -17  -3   79.09   21.30
  18  -1   3   69.99   15.40
  -1 -17   3   54.29   14.80
 -18  16   3  114.09   17.70
   2  16  -3  104.59   20.50
  16   2   3  118.89   21.10
 -18   2  -3   87.69   16.10
   2 -18   3   87.39   15.90
  16 -18  -3  140.19   26.70
  18 -16  -3  119.49   24.60
 -16  -2  -3  121.79   20.30
  18  -2   3  118.09   20.00
 -16  18   3  123.69   18.00
  -2 -16   3  122.19   20.70
  -2  18  -3  113.69   19.80
  15 -18  -3  241.28   34.00
   3 -18   3  300.97   26.20
 -18  15   3  320.57   25.10
  15   3   3  300.67   27.00
   3  15  -3  325.87   28.50
 -18   3  -3  288.17   27.70
  18  -3   3  327.27   25.80
 -15  -3  -3  312.27   26.30
  -3 -15   3  315.57   26.70
  -3  18  -3  316.17   26.70
  18 -15  -3  290.17   29.80
 -15  18   3  303.77   24.40
   4  14  -3  129.29   22.40
 -18   4  -3  172.68   22.40
  14   4   3  147.29   20.30
  14 -18  -3  152.18   28.50
   4 -18   3  153.08   20.20
 -18  14   3  147.79   18.90
  18 -14  -3  171.48   24.50
  -4 -14   3  159.78   21.50
  18  -4   3  164.08   20.60
 -14  -4  -3  140.39   19.90
 -14  18   3  153.58   18.30
  -4  18  -3  173.28   21.30
  13 -18  -3  369.36   38.70
   5 -18   3  410.16   29.40
  13   5   3  384.56   29.70
 -18   5  -3  416.46   31.00
   5  13  -3  397.36   32.40
 -18  13   3  388.16   28.00
  -5  18  -3  392.56   30.00
 -13  -5  -3  362.76   29.40
 -13  18   3  377.56   28.20
  -5 -13   3  405.76   30.50
  18  -5   3  373.06   29.10
  18 -13  -3  392.56   32.70
 -18  12   3  354.76   26.10
 -18   6  -3  358.26   29.90
   6 -18   3  349.57   27.00
  12 -18  -3  320.27   35.90
  12   6   3  354.76   27.20
   6  12  -3  337.37   30.20
 -12  18   3  323.37   25.70
  -6 -12   3  362.56   28.60
  18  -6   3  328.27   26.70
  18 -12  -3  326.77   30.30
 -12  -6  -3  306.57   26.60
  -6  18  -3  338.47   27.70
 -18   7  -3  152.08   22.70
   7 -18   3  102.79   18.60
 -18  11   3  148.59   17.50
   7  11  -3   92.09   17.30
  11   7   3   95.79   18.60
  18 -11  -3  112.99   23.30
 -11  18   3  109.69   17.50
  18  -7   3   94.09   19.00
 -11  -7  -3  100.09   18.40
  -7  18  -3  142.89   19.50
  -7 -11   3  102.59   20.70
 -18  10   3  184.88   20.10
 -18   8  -3  190.38   25.00
  10   8   3  196.48   21.80
   8 -18   3  181.98   20.70
  10 -18  -3  208.98   33.90
  -8  18  -3  214.88   21.50
 -10  -8  -3  207.48   20.70
 -10  18   3  201.48   20.20
  18 -10  -3  210.58   25.20
  -8 -10   3  211.08   23.00
  18  -8   3  189.68   21.90
 -18   9  -3   16.80   16.20
 -18   9   3   20.10   10.90
   9 -18  -3   11.00   26.10
   9 -18   3    5.90   11.20
  18  -9  -3   66.39   17.10
  -9  18  -3   30.60   12.00
  18  -9   3   43.70   14.30
  -9  18   3   37.10   12.10
  -9  -9   3   23.80    9.40
  -9  -9  -3   34.00   12.60
  -9  -9   3   41.50   13.90
   8 -18  -3  207.38   23.50
   8  10   3  160.18   19.30
 -18   8   3  211.58   19.70
   8 -18  -3  183.48   34.30
 -18  10  -3  190.58   25.10
  10 -18   3  183.18   20.00
 -10  18  -3  206.98   20.40
  -8 -10  -3  191.08   20.10
 -10  -8   3  195.48   17.90
  -8  18   3  190.68   19.80
  18  -8  -3  200.18   23.20
 -10  -8   3  159.88   25.90
  18 -10   3  203.18   22.50
   7 -18  -3  365.96   42.20
   7  11   3  343.27   26.70
  11 -18   3  354.46   26.70
   7 -18  -3  369.56   30.00
 -18   7   3  392.56   26.30
 -18  11  -3  340.07   31.00
  18 -11   3  332.27   28.90
  18  -7  -3  351.06   29.60
  -7  18   3  367.56   27.20
  -7 -11  -3  359.86   27.50
 -11  -7   3  372.76   35.40
 -11  -7   3  353.36   25.70
 -11  18  -3  355.36   26.40
 -18  12  -3   43.90   16.80
   6  12   3   34.30   13.60
 -18   6   3   52.49   12.40
   6 -18  -3   54.09   15.20
  12 -18   3   55.79   12.90
 -12  18  -3   70.69   13.40
  -6  18   3   70.49   12.90
 -12  -6   3   50.59   12.00
  -6 -12  -3   66.49   13.00
  18 -12   3   54.89   15.40
 -12  -6   3   58.49   16.90
  13 -18   3  166.48   19.00
   5 -18  -3  165.68   23.10
  13   5  -3  177.68   22.80
   5  13   3  140.19   18.90
   5  13   3  194.28   24.40
 -18   5   3  187.38   18.90
 -18  13  -3  189.18   23.90
  18 -13   3  182.08   22.70
  -5  18   3  181.18   20.80
  -5 -13  -3  200.08   20.70
 -13  18  -3  196.78   19.80
 -13  -5   3  165.18   25.90
 -13  -5   3  191.68   19.20
  18  -5  -3  197.08   22.70
  14 -18   3  363.96   26.90
   4 -18  -3  376.26   30.00
   4  14   3  385.96   31.00
  14   4  -3  339.37   30.20
 -18   4   3  385.26   26.70
   4  14   3  317.47   26.30
 -14  -4   3  327.77   31.70
  18  -4  -3  327.97   29.30
  -4 -14  -3  343.77   27.40
  18 -14   3  361.26   30.00
 -14  -4   3  344.87   26.10
 -14  18  -3  364.36   27.30
  -4  18   3  385.46   28.50
  15   3  -3   39.50   16.90
  15 -18   3    3.70   17.90
 -18   3   3   21.20   12.10
   3  15   3   10.80   14.20
  15 -18   3   -3.50   11.30
   3 -18  -3    2.20   13.90
  -3 -15  -3   13.90   13.80
  -3  18   3   19.30   14.30
 -15  -3   3    8.30   17.00
 -15  -3   3   20.30   11.70
  18  -3  -3   34.70   15.70
  18 -15   3   15.10   16.70
 -15  18  -3   23.80   12.20
 -18   2   3  141.89   18.30
  16   2  -3  129.49   22.80
   2  16   3  203.58   24.20
  16 -18   3  126.09   23.80
  16 -18   3  143.49   18.90
 -18  16  -3  108.59   21.00
   2 -18  -3  118.09   21.80
 -16  18  -3  144.89   19.50
  18 -16   3  148.59   23.60
  18  -2  -3  131.79   21.50
  18 -16   3  137.79   17.20
  -2  18   3  151.08   21.40
 -16  -2   3  133.19   23.70
  -2 -16  -3  118.69   20.20
 -16  -2   3  128.49   17.90
 -18   1   3   71.39   13.80
  17   1  -3   97.19   18.40
  17 -18   3  103.59   18.40
  17 -18   3   87.89   15.10
 -18  17  -3   97.59   16.90
   1  17   3  130.49   22.70
   1 -18  -3   89.69   16.80
  -1 -17  -3   84.59   15.30
  18 -17   3   95.59   18.90
  18 -17   3   98.39   14.80
  18  -1  -3  114.39   20.50
 -17  18  -3  128.69   18.80
  -1  18   3  121.79   22.40
 -17  -1   3   82.49   14.80
 -18   0   3    8.20   12.80
  18   0  -3    6.20   16.70
  18 -18   3   10.60   13.00
  18 -18   3   10.70   17.30
 -18  18  -3   29.20   14.30
   0  18   3    4.90   16.10
   0 -18  -3   -0.40   14.40
  19 -19  -3   17.00   21.40
 -19   0  -3    3.90   14.50
   0 -19   3  -16.50   14.50
 -19  19   3   -7.80   13.20
   0  19  -3   10.10   13.80
  19   0   3   18.20   16.50
 -19  18   3   21.80   12.20
   1  18  -3   30.60   15.10
  18 -19  -3   30.90   21.20
   1 -19   3   10.90   14.50
  18   1   3   18.60   16.20
 -19   1  -3   24.30   14.40
  -1 -18   3   46.20   15.60
  19 -18  -3   29.80   20.30
  19  -1   3   42.10   16.10
 -18  -1  -3   17.10   16.10
  -1  19  -3   25.70   13.30
 -18  19   3   24.40   11.80
   2  17  -3  148.19   22.50
  17   2   3  170.68   22.30
 -19  17   3  177.68   20.20
   2 -19   3  154.48   22.00
  17 -19  -3  144.79   27.20
 -19   2  -3  140.49   22.70
 -17  -2  -3  144.39   21.80
  -2 -17   3  163.58   22.40
  19 -17  -3  150.48   25.10
 -17  19   3  174.78   19.50
  19  -2   3  148.49   21.30
  -2  19  -3  167.28   21.40
  16 -19  -3   59.39   22.90
 -19  16   3   23.70   11.60
  16   3   3   29.20   15.90
 -19   3  -3   23.40   16.20
   3 -19   3   37.50   13.80
   3  16  -3   29.20   14.20
  19  -3   3   31.70   13.80
 -16  19   3   31.40   11.70
  -3  19  -3   29.70   13.60
  -3 -16   3   15.70   13.50
 -16  -3  -3   13.70   14.40
  19 -16  -3   24.40   19.10
   4 -19   3  200.78   22.40
  15 -19  -3  157.18   30.20
 -19   4  -3  206.28   24.60
  15   4   3  193.18   22.70
 -19  15   3  209.78   21.00
   4  15  -3  206.48   24.90
  19 -15  -3  206.48   26.90
  -4 -15   3  222.18   23.80
 -15  -4  -3  211.58   22.30
 -15  19   3  199.18   20.10
  -4  19  -3  191.38   22.50
  19  -4   3  201.58   22.10
  14 -19  -3  267.77   35.30
   5  14  -3  329.57   29.60
 -19   5  -3  364.86   29.40
 -19  14   3  347.07   26.10
   5 -19   3  323.37   27.30
  14   5   3  361.96   28.40
 -14  19   3  350.36   26.00
  -5 -14   3  348.77   29.10
 -14  -5  -3  334.77   27.60
  19 -14  -3  319.57   31.20
  -5  19  -3  336.47   28.00
  19  -5   3  359.36   27.60
 -19  13   3   94.09   17.20
  13   6   3   73.59   16.70
   6  13  -3   67.09   16.90
  13 -19  -3   50.49   25.60
 -19   6  -3   64.39   16.30
   6 -19   3   49.40   13.20
  19  -6   3   56.69   13.50
  19 -13  -3   71.49   18.70
  -6  19  -3   53.89   13.70
 -13  -6  -3   56.89   14.00
  -6 -13   3   46.30   15.00
 -13  19   3   53.59   11.90
 -19   7  -3  438.56   33.20
  12   7   3  374.56   30.50
   7 -19   3  398.26   30.00
  12 -19  -3  337.57   39.10
   7  12  -3  410.46   33.40
  -7  19  -3  426.36   30.10
  -7 -12   3  415.96   31.80
 -12  19   3  390.56   28.80
  19  -7   3  387.06   29.90
 -12  -7  -3  391.36   29.70
  19 -12  -3  406.16   32.90
 -19  11   3  181.68   20.40
   8  11  -3  190.88   25.40
   8 -19   3  203.38   21.90
 -19   8  -3  216.28   25.50
  11 -19  -3  193.48   33.90
  11   8   3  197.78   22.00
  19 -11  -3  213.68   24.90
 -11  19   3  209.68   20.60
 -11  -8  -3  189.58   21.60
  -8 -11   3  171.18   23.80
  -8  19  -3  219.18   21.80
  19  -8   3  189.88   22.20
  10 -19  -3   29.00   34.40
 -19  10   3   14.10   11.70
 -19   9  -3    6.80   16.10
   9 -19   3   18.50   12.60
  10   9   3   25.40   14.30
 -10  19   3   19.50   11.60
  -9 -10   3   31.90   15.10
  19 -10  -3   21.10   15.50
  19  -9   3   13.20   13.50
  -9  19  -3   39.60   12.20
 -10  -9  -3   15.50   12.40
   9 -19  -3   79.69   34.20
   9  10   3   30.10   13.80
 -19  10  -3   14.80   16.70
 -19   9   3   24.60   12.40
  10 -19   3   23.70   12.30
  -9  19   3   23.10   12.00
  19  -9  -3   32.60   15.70
  19 -10   3   28.70   14.00
 -10  -9   3   17.50   15.10
  -9 -10  -3   31.10   12.40
 -10  19  -3   17.30   13.30
   8 -19  -3   25.10   29.80
 -19   8   3   24.40   11.10
 -19  11  -3   28.30   17.90
  11 -19   3    5.80   11.40
   8 -19  -3   38.60   16.30
 -11  -8   3   26.80   14.90
  -8  19   3   27.20   11.80
  -8 -11  -3   15.00   12.30
 -11  19  -3   20.30   12.70
  19 -11   3   26.30   14.90
  19  -8  -3   40.20   16.40
 -11  -8   3   13.10   10.20
   7 -19  -3  208.68   27.40
  12 -19   3  206.38   22.50
 -19  12  -3  208.18   27.40
   7 -19  -3  329.57   40.10
 -19   7   3  257.47   21.90
  -7 -12  -3  205.18   22.50
  19 -12   3  225.78   24.90
 -12  19  -3  264.57   22.50
 -12  -7   3  244.08   20.70
  -7  19   3  267.57   23.10
 -12  -7   3  254.77   26.90
  19  -7  -3  243.08   25.00
  13 -19   3  449.06   32.80
 -19  13  -3  489.45   36.90
   6  13   3  396.76   32.10
 -19   6   3  485.55   32.40
   6 -19  -3  558.44   47.80
 -13  19  -3  501.55   32.60
  -6  19   3  476.85   32.90
  19 -13   3  472.75   34.80
  19  -6  -3  442.86   34.40
  -6 -13  -3  444.16   32.80
 -13  -6   3  496.05   36.70
 -13  -6   3  479.05   31.90
   5 -19  -3   82.89   17.30
   5  14   3   66.59   19.10
 -19  14  -3   67.19   18.40
   5  14   3   36.60   16.80
 -19   5   3   93.79   16.70
  14 -19   3   74.19   13.10
 -14  19  -3  104.79   17.90
  19  -5  -3   94.69   20.40
  -5  19   3   93.39   19.00
 -14  -5   3   74.19   26.80
  -5 -14  -3   68.39   14.30
  19 -14   3  102.79   21.70
 -14  -5   3   77.99   16.50
  15 -19   3  178.98   20.30
 -19   4   3  161.48   19.80
   4  15   3  125.49   24.30
  15   4  -3  197.18   23.90
   4  15   3  206.88   26.90
   4 -19  -3  157.88   23.80
 -15  -4   3  157.78   25.30
  -4  19   3  184.98   22.00
 -15  -4   3  163.38   19.70
 -15  19  -3  201.18   19.70
  19 -15   3  174.68   24.50
  19  -4  -3  168.18   22.10
  -4 -15  -3  164.18   20.70
  16 -19   3  201.58   21.40
 -19   3   3  196.58   21.30
  16   3  -3  192.98   24.10
   3  16   3  266.87   26.90
   3 -19  -3  177.68   24.70
 -16  -3   3  147.89   29.70
  -3  19   3  234.48   24.20
 -16  -3   3  172.38   20.20
  19  -3  -3  207.68   23.20
  -3 -16  -3  199.68   21.80
 -16  19  -3  201.88   21.40
  19 -16   3  208.18   25.80
   2 -19  -3   15.00   15.20
  17   2  -3   37.80   17.90
  17 -19   3   13.20   12.50
  17 -19   3   18.30   19.20
 -19   2   3    7.40   13.60
 -17  -2   3   15.60   11.90
  19 -17   3   18.80   17.80
  -2  19   3    9.70   16.40
  19  -2  -3   65.49   16.60
  -2 -17  -3   19.10   15.10
 -17  19  -3   47.10   14.30
  19 -17   3   -0.60   12.30
   1 -19  -3   35.40   15.40
  18 -19   3   26.90   13.50
  18   1  -3   41.50   18.40
  18 -19   3   44.70   19.10
   1  18   3   64.39   17.40
 -19   1   3   22.30   13.00
  19 -18   3   24.40   12.50
  -1  19   3    9.70   17.90
 -18  19  -3    7.40   14.90
  -1 -18  -3   15.20   14.80
 -18  -1   3   17.20   13.50
  19  -1  -3   35.30   17.20
  19 -18   3   54.69   18.70
 -19   0   3    4.50   13.10
  19 -19   3   26.30   18.30
  19 -19   3   -5.20   12.70
   0 -19  -3    1.10   14.20
   0  19   3   -7.50   17.40
  19   0  -3   43.40   18.00
   0 -20   3  -28.40   14.50
  20 -20  -3    2.60   20.30
   0  20  -3   -2.80   15.50
 -20   0  -3   -0.90   16.20
  20   0   3    2.00   17.80
 -20  20   3   -7.10   13.40
   1 -20   3  -11.10   14.60
  19 -20  -3   -8.10   22.10
  19   1   3   11.90   17.40
   1  19  -3    1.30   15.50
 -20   1  -3   -2.70   16.10
 -20  19   3    4.40   12.60
 -19  20   3  -10.30   12.10
  20 -19  -3  -12.80   20.30
  -1 -19   3    9.50   15.90
  20  -1   3    3.10   16.80
 -19  -1  -3    0.80   14.40
  -1  20  -3   15.20   14.10
  18 -20  -3   43.90   22.40
   2  18  -3   28.40   18.70
   2 -20   3   19.60   15.00
 -20   2  -3   36.60   16.10
  18   2   3    5.60   17.10
 -20  18   3   10.50   13.20
  -2 -18   3   27.70   14.80
 -18  -2  -3   10.60   15.90
  20  -2   3   24.10   15.70
 -18  20   3   17.80   13.30
  -2  20  -3   15.40   13.10
  20 -18  -3   15.00   20.20
  17 -20  -3   84.59   25.30
 -20   3  -3  111.89   22.00
 -20  17   3  101.39   18.40
  17   3   3   88.19   18.80
   3 -20   3  113.19   20.30
   3  17  -3  110.59   21.80
  -3 -17   3   88.29   16.60
 -17  20   3  109.99   17.90
  -3  20  -3  108.09   19.70
  20 -17  -3   91.59   22.10
 -17  -3  -3   95.29   17.30
  20  -3   3  106.69   20.20
   4 -20   3  281.77   25.50
 -20   4  -3  257.67   27.30
   4  16  -3  280.17   27.30
 -20  16   3  288.57   24.20
  16   4   3  284.37   26.10
  16 -20  -3  207.78   31.90
 -16  20   3  274.07   23.70
  20  -4   3  278.87   25.60
  -4  20  -3  272.77   25.40
 -16  -4  -3  236.08   25.30
  20 -16  -3  273.87   28.20
  -4 -16   3  283.27   26.10
   5  15  -3   40.50   16.30
   5 -20   3   52.59   14.40
  15 -20  -3   28.70   24.20
 -20  15   3   83.99   17.20
 -20   5  -3   37.80   15.90
  15   5   3   68.59   16.80
  -5 -15   3   39.50   16.10
 -15  -5  -3   36.70   14.60
  -5  20  -3   51.79   14.60
  20 -15  -3   52.69   18.40
 -15  20   3   56.79   13.00
  20  -5   3   57.99   14.90
 -20   6  -3  636.34   41.00
 -20  14   3  600.94   38.60
  14   6   3  582.54   39.90
   6  14  -3  605.54   41.10
  14 -20  -3  480.05   45.60
   6 -20   3  611.24   39.40
  -6  20  -3  551.74   39.30
  -6 -14   3  596.14   40.50
 -14  20   3  593.04   38.10
  20 -14  -3  549.25   41.20
  20  -6   3  558.04   38.90
 -14  -6  -3  565.34   39.00
 -20   7  -3  534.85   37.30
   7 -20   3  541.45   35.30
  13   7   3  471.55   35.90
   7  13  -3  545.95   38.40
  13 -20  -3  409.96   42.50
 -13  20   3  513.95   33.70
  -7 -13   3  495.65   36.80
  -7  20  -3  521.15   35.40
  20 -13  -3  467.35   36.70
 -13  -7  -3  494.65   34.80
  20  -7   3  480.55   34.80
 -20   8  -3   48.20   17.80
   8  12  -3   21.40   18.40
 -20  12   3   27.70   11.80
  12   8   3   23.60   16.10
   8 -20   3   28.20   13.80
  12 -20  -3   11.00   27.70
  -8  20  -3   39.70   14.80
 -12  20   3   30.10   11.40
 -12  -8  -3   15.10   12.70
  -8 -12   3   18.70   16.30
  20 -12  -3   34.50   16.30
  20  -8   3   30.90   14.10
   9 -20   3   85.09   14.40
   9  11  -3   96.59   19.60
  11 -20  -3   80.89   27.90
  11   9   3  106.49   17.10
 -20   9  -3  100.69   19.90
 -20  11   3   88.89   18.00
  -9 -11   3  111.89   18.00
 -11  -9  -3   65.69   13.80
  20  -9   3  110.69   17.20
  -9  20  -3  113.79   18.60
  20 -11  -3  112.79   21.00
 -11  20   3  107.79   17.90
  10  10   3  101.39   18.20
 -20  10   3   89.29   14.00
  10 -20  -3   58.99   28.90
  10 -20   3   90.29   18.30
 -20  10  -3  108.29   20.50
 -10  20  -3  112.49   17.80
 -10  20   3  101.19   17.90
 -10 -10  -3  105.89   19.10
  20 -10   3  111.19   20.30
  20 -10  -3  140.99   20.90
 -10 -10   3  109.49   22.30
   9  11   3   71.89   15.80
   9 -20  -3   64.49   32.70
  11 -20   3   60.89   13.70
 -20   9   3   80.99   17.40
 -20  11  -3   82.29   19.50
  -9  20   3   79.39   14.00
  -9 -11  -3   50.79   13.70
 -11  20  -3   57.69   13.20
 -11  -9   3   81.99   17.90
  20  -9  -3  110.59   20.50
  20 -11   3   76.29   15.70
  12 -20   3  198.38   21.70
   8  12   3  202.48   22.40
 -20   8   3  195.88   21.40
 -20  12  -3  235.48   27.70
   8 -20  -3  260.37   26.50
 -12  -8   3  183.08   19.30
  20  -8  -3  222.88   23.50
 -12  20  -3  245.08   21.60
  20 -12   3  202.98   24.30
 -12  -8   3  238.38   26.60
  -8 -12  -3  210.08   22.60
  -8  20   3  221.08   22.10
   7 -20  -3   44.10   35.80
 -20   7   3   40.80   12.60
   7  13   3   36.00   14.40
  13 -20   3   48.40   14.50
 -20  13  -3   23.30   19.60
   7 -20  -3    8.90   17.80
  -7  20   3   52.29   14.00
 -13  -7   3   36.20   16.40
 -13  20  -3   49.80   12.90
  -7 -13  -3   27.80   13.50
 -13  -7   3   33.50   11.80
  20  -7  -3   56.29   15.70
  20 -13   3   44.50   17.20
   6 -20  -3  196.98   27.20
  14 -20   3  208.38   22.00
 -20  14  -3  242.18   28.50
 -20   6   3  202.78   21.50
   6 -20  -3  321.37   43.60
  20 -14   3  223.98   25.70
  -6  20   3  230.58   23.00
 -14  20  -3  263.87   22.70
  20  -6  -3  262.37   24.10
  -6 -14  -3  198.28   22.30
 -14  -6   3  211.48   21.60
 -14  -6   3  238.88   28.20
  15 -20   3  367.86   28.50
 -20   5   3  366.36   28.70
   5 -20  -3  395.86   31.90
 -20  15  -3  379.46   33.00
 -15  -5   3  386.46   34.50
  20  -5  -3  342.97   30.00
 -15  -5   3  363.46   27.80
  -5 -15  -3  352.96   28.90
  -5  20   3  388.56   30.00
 -15  20  -3  397.76   28.50
  20 -15   3  393.06   31.90
 -20   4   3   52.59   13.90
 -20  16  -3   46.40   18.70
  16 -20   3   40.90   14.70
   4 -20  -3   58.89   18.00
 -16  -4   3   40.90   25.80
  20  -4  -3   61.09   16.30
 -16  20  -3   65.99   14.50
  20 -16   3   34.30   18.30
 -16  -4   3   42.60   13.70
  -4  20   3   37.80   15.10
  -4 -16  -3   25.60   15.00
  17   3  -3  124.89   26.40
  17 -20   3   51.29   13.90
 -20   3   3   39.60   13.40
   3 -20  -3   69.19   18.20
  20  -3  -3   97.89   20.40
  -3 -17  -3   55.69   15.60
  -3  20   3  113.79   21.90
 -17  -3   3   72.09   14.60
  20 -17   3   76.29   19.30
  18 -20   3  114.59   18.90
 -20   2   3   92.29   15.50
   2 -20  -3   96.19   19.70
  18   2  -3  144.29   23.10
  20 -18   3  133.49   24.90
 -18  20  -3   99.89   17.80
  -2  20   3  145.89   23.30
 -18  -2   3   79.09   15.30
  20  -2  -3  126.09   21.30
  -2 -18  -3   81.19   16.50
   1 -20  -3    4.60   16.90
   1  19   3   16.50   18.30
 -20   1   3   -8.80   13.60
  19 -20   3   -2.60   13.90
  19   1  -3   19.70   17.80
 -19  -1   3   -4.90   13.10
  20 -19   3   -0.60   11.80
  -1 -19  -3   -5.10   15.60
  20 -19   3    6.20   18.60
  20  -1  -3   34.60   18.10
  -1  20   3  -10.10   17.60
 -20   0   3   -2.70   14.30
  20 -20   3   42.00   20.30
  20 -20   3   13.50   12.80
   0  20   3  -19.70   19.30
  20   0  -3   40.80   18.00
   0 -20  -3   27.70   17.50
  21   0   3   21.20   18.70
  21 -21  -3   26.40   21.20
 -21  21   3   -9.30   14.30
   0  21  -3   15.00   16.40
 -21   0  -3   -0.60   16.00
   0 -21   3   -3.60   16.30
  20   1   3    1.50   19.50
 -21   1  -3    7.20   15.90
  20 -21  -3   34.30   21.40
   1 -21   3   -0.80   16.30
   1  20  -3    6.90   15.80
 -21  20   3   -9.00   12.70
 -20  21   3    7.20   13.40
  -1 -20   3   -2.40   15.60
  21  -1   3   17.00   17.70
 -20  -1  -3   -6.80   15.60
  21 -20  -3   21.90   20.60
  -1  21  -3    7.70   13.90
   2 -21   3   18.40   15.10
  19 -21  -3   -0.30   22.80
 -21  19   3   17.10   14.60
 -21   2  -3   27.20   15.80
  19   2   3   13.10   17.80
   2  19  -3   35.40   14.90
  -2 -19   3   19.40   16.40
  -2  21  -3   13.60   13.60
 -19  -2  -3   16.20   15.10
 -19  21   3   23.70   13.30
  21 -19  -3   33.70   19.10
  21  -2   3   39.20   17.70
  18   3   3  210.38   24.80
   3  18  -3  216.58   25.70
 -21   3  -3  211.78   24.10
   3 -21   3  215.58   23.20
 -21  18   3  202.88   21.90
  18 -21  -3  199.98   28.60
  -3  21  -3  205.68   22.80
  21  -3   3  170.48   23.10
  -3 -18   3  189.18   24.40
 -18  21   3  191.48   21.10
 -18  -3  -3  149.69   23.10
  21 -18  -3  194.58   25.50
 -21   4  -3   29.60   16.70
  17   4   3   81.09   17.70
  17 -21  -3   41.10   24.10
   4  17  -3   53.99   17.20
 -21  17   3   58.19   14.70
   4 -21   3   61.99   16.60
  21 -17  -3   54.89   18.60
 -17  21   3   54.09   12.90
  -4  21  -3   36.90   14.00
 -17  -4  -3   59.29   16.40
  -4 -17   3   38.00   15.40
  21  -4   3   56.19   15.20
   5  16  -3  273.97   28.40
  16   5   3  342.77   27.80
 -21  16   3  310.07   25.10
   5 -21   3  311.07   26.40
 -21   5  -3  337.07   29.20
  16 -21  -3  234.68   34.20
 -16  -5  -3  267.87   25.80
  21  -5   3  297.97   26.20
  -5 -16   3  300.37   27.90
  21 -16  -3  269.67   27.40
 -16  21   3  284.37   24.40
  -5  21  -3  271.57   26.20
   6 -21   3  394.36   29.30
 -21   6  -3  393.86   31.90
   6  15  -3  388.66   32.20
  15 -21  -3  288.37   37.00
 -21  15   3  381.76   28.50
  15   6   3  365.76   30.50
 -15  -6  -3  335.67   29.10
  -6 -15   3  383.56   31.00
  21 -15  -3  332.77   30.40
  21  -6   3  360.16   29.20
 -21  14   3   50.29   14.20
   7  14  -3   23.20   16.40
   7 -21   3   38.10   14.70
  14 -21  -3  -19.90   25.10
  14   7   3   29.50   17.20
  21 -14  -3   60.89   16.40
 -14  21   3   24.90   12.90
 -14  -7  -3   11.10   13.30
  -7  21  -3   23.30   13.70
  -7 -14   3   43.30   16.30
  21  -7   3   34.50   13.80
   8 -21   3  294.77   25.90
 -21  13   3  275.67   24.50
 -21   8  -3  316.47   28.90
  13   8   3  278.27   26.50
   8  13  -3  275.07   29.40
  21  -8   3  258.77   25.50
  -8 -13   3  319.17   28.40
  -8  21  -3  281.87   24.80
 -13  21   3  280.87   23.90
  21 -13  -3  312.77   26.90
 -13  -8  -3  241.18   24.80
 -21   9  -3  180.48   25.50
 -21  12   3  147.79   19.60
   9  12  -3  143.69   25.50
  12   9   3  142.09   21.60
   9 -21   3  171.78   20.60
  12 -21  -3   69.39   28.90
  -9  21  -3  153.78   20.40
 -12  -9  -3  153.98   20.50
  21 -12  -3  193.28   22.60
  21  -9   3  137.99   21.50
 -12  21   3  154.88   19.70
  -9 -12   3  172.58   24.30
  10  11  -3    8.20   17.50
  11  10   3   12.30   16.30
 -21  11   3   12.30   12.90
  10 -21   3   16.50   12.60
 -21  10  -3    0.90   17.70
  21 -11  -3   39.00   17.20
 -10 -11   3   21.50   16.00
 -11 -10  -3    8.50   12.90
 -10  21  -3    8.40   12.00
  21 -10   3   10.10   15.00
 -11  21   3   20.10   13.70
 -21  10   3   27.30   12.60
  10 -21  -3  -24.90   29.90
  10  11   3  -15.40   17.80
 -21  11  -3   25.00   18.00
  11 -21   3   11.10   12.50
 -11 -10   3   16.20   16.40
 -10 -11  -3   19.40   13.40
 -11  21  -3   38.70   13.20
  21 -10  -3   30.90   15.90
 -10  21   3   38.40   13.10
  21 -11   3   20.50   15.20
 -21  12  -3   18.10   18.40
   9  12   3   32.80   17.00
  12 -21   3  -10.20   12.80
 -21   9   3   12.00   12.30
   9 -21  -3  -37.80   31.40
  -9  21   3   12.60   12.20
  -9 -12  -3    7.80   15.20
 -12  -9   3   14.40   17.40
  21 -12   3    9.00   15.00
  21  -9  -3   21.00   17.00
 -12  21  -3    9.10   13.30
 -21  13  -3  190.98   26.50
 -21   8   3  155.28   19.50
  13 -21   3  114.19   19.70
   8 -21  -3  215.68   25.20
 -13  -8   3  102.49   16.80
  21  -8  -3  160.88   21.10
 -13  -8   3  163.68   25.50
 -13  21  -3  165.48   19.70
  21 -13   3  126.99   22.70
  -8 -13  -3  108.89   20.20
  -8  21   3  144.79   20.30
  14 -21   3  290.37   24.40
 -21   7   3  282.47   23.90
 -21  14  -3  292.97   30.00
   7 -21  -3  327.57   30.20
  21  -7  -3  267.87   25.70
  21 -14   3  261.07   27.50
 -14  21  -3  325.37   25.10
  -7  21   3  291.17   26.40
  -7 -14  -3  245.48   25.40
 -14  -7   3  314.97   30.20
 -14  -7   3  236.18   22.80
 -21   6   3   28.50   12.90
   6 -21  -3  -12.00   20.30
  15 -21   3   25.50   13.10
 -21  15  -3   57.59   19.00
  -6  21   3   30.60   14.90
 -15  21  -3   39.40   13.80
  21 -15   3   30.20   17.60
  21  -6  -3   44.00   15.80
  -6 -15  -3   25.70   13.50
 -15  -6   3   47.00   17.80
 -15  -6   3   11.30   12.10
 -21  16  -3  226.58   27.60
 -21   5   3  145.69   19.70
   5 -21  -3  172.58   26.10
  16 -21   3  172.48   21.00
  -5  21   3  180.78   22.50
 -16  21  -3  192.38   20.60
 -16  -5   3  144.79   23.60
 -16  -5   3  204.98   31.10
  21  -5  -3  180.78   22.40
  -5 -16  -3  130.79   20.70
  21 -16   3  139.19   24.50
   4 -21  -3  221.28   26.60
 -21  17  -3  271.07   28.00
  17 -21   3  216.18   22.70
 -21   4   3  172.28   23.70
  -4  21   3  232.28   24.90
 -17  21  -3  232.68   22.20
 -17  -4   3  190.68   21.40
  21  -4  -3  213.48   23.50
  -4 -17  -3  193.58   23.10
  21 -17   3  215.28   27.10
 -21   3   3   46.10   15.30
   3 -21  -3   46.80   17.30
  18 -21   3   57.79   14.30
  -3 -18  -3   32.30   14.80
  -3  21   3   72.49   17.80
 -18  21  -3   34.30   15.70
  21  -3  -3   63.39   17.40
 -18  -3   3   43.20   15.10
  21 -18   3   40.80   18.90
  19 -21   3   66.99   14.50
   2  19   3  106.19   20.70
 -21   2   3   57.09   15.80
   2 -21  -3   77.39   19.00
  19   2  -3   59.59   19.90
  21 -19   3   93.79   20.20
  -2  21   3  130.49   23.50
  -2 -19  -3   68.29   16.90
 -19  -2   3   50.99   15.40
 -19  21  -3  108.19   20.00
  21  -2  -3   87.79   19.50
  20 -21   3    9.70   14.90
   1  20   3   -8.00   20.60
  20   1  -3   35.60   18.60
 -21   1   3    2.50   14.60
   1 -21  -3   -4.50   17.20
  21 -20   3   41.00   19.60
  -1  21   3   42.90   18.30
  -1 -20  -3   18.50   16.00
 -20  -1   3   12.70   14.50
  21  -1  -3   66.09   18.50
 -21   0   3   10.30   15.10
   0  21   3   43.30   20.00
  21 -21   3   16.70   13.50
  21   0  -3   40.00   18.80
   0 -21  -3  -27.30   16.80
 -22  20   3   13.50   14.60
 -22   2  -3   23.00   17.80
  20 -22  -3   25.30   21.00
  20   2   3   41.50   18.70
   2  20  -3   -3.10   15.60
   2 -22   3   31.40   16.50
  -2 -20   3   14.00   17.60
 -20  22   3   22.50   13.10
  22 -20  -3    1.30   20.30
 -20  -2  -3   22.40   15.10
  -2  22  -3   12.30   14.60
  22  -2   3   32.80   17.80
  19 -22  -3   38.00   24.40
 -22   3  -3   92.49   17.60
  19   3   3   96.49   21.00
   3 -22   3   76.59   17.10
   3  19  -3   81.39   19.40
 -22  19   3  101.59   19.30
  -3 -19   3   78.39   17.40
 -19  -3  -3   59.59   16.70
 -19  22   3   79.69   15.30
  -3  22  -3   71.89   15.70
  22 -19  -3   65.49   21.80
  22  -3   3   95.99   20.90
  18 -22  -3  114.89   26.20
   4  18  -3   87.49   19.90
 -22   4  -3  127.49   22.50
  18   4   3  113.39   22.70
 -22  18   3  108.39   19.10
   4 -22   3  115.99   21.10
  -4  22  -3  114.59   19.80
  22  -4   3   98.99   21.20
  22 -18  -3   88.89   21.50
  -4 -18   3   98.29   17.60
 -18  -4  -3  102.59   20.70
 -18  22   3   93.99   18.60
   5  17  -3  154.48   24.40
 -22  17   3  167.48   20.20
   5 -22   3  171.68   22.10
  17   5   3  140.09   24.20
  17 -22  -3  155.38   28.70
 -22   5  -3  127.29   24.40
  22 -17  -3  145.89   23.00
  -5 -17   3  121.29   23.40
  22  -5   3  151.18   21.40
 -17  -5  -3  106.99   21.10
 -17  22   3  152.18   19.30
  -5  22  -3  148.19   21.90
 -22  16   3   45.30   14.80
   6 -22   3   35.60   15.50
 -22   6  -3   58.39   17.50
   6  16  -3   47.70   19.00
  16   6   3   31.60   19.50
  -6  22  -3   37.70   15.60
  -6 -16   3   19.50   17.20
  22  -6   3   68.69   15.60
 -16  -6  -3   33.40   15.50
  22 -16  -3   58.09   18.70
 -16  22   3   54.79   12.50
 -22   7  -3  313.97   29.20
  15 -22  -3  223.28   34.60
 -22  15   3  287.57   25.10
   7  15  -3  277.57   28.90
   7 -22   3  288.07   26.10
  15   7   3  303.37   27.50
 -15  22   3  282.37   24.20
 -15  -7  -3  236.38   25.40
  -7  22  -3  244.58   24.90
  22 -15  -3  298.77   26.80
  -7 -15   3  275.67   28.40
  22  -7   3  254.47   25.70
   8  14  -3  332.77   31.00
 -22   8  -3  372.36   31.00
   8 -22   3  355.16   28.50
 -22  14   3  318.97   26.90
  14   8   3  341.57   29.30
  14 -22  -3  251.77   36.00
  -8 -14   3  328.77   30.00
  22 -14  -3  324.57   28.10
  22  -8   3  277.17   27.00
 -14  22   3  322.67   26.00
 -14  -8  -3  318.77   27.10
  13   9   3    3.70   17.80
 -22  13   3   12.50   12.90
   9 -22   3   21.00   14.40
   9  13  -3   16.80   19.20
 -22   9  -3   29.80   18.80
 -13  22   3   24.40   12.60
  -9 -13   3   27.20   16.30
  22  -9   3    8.20   14.00
  -9  22  -3   11.20   12.60
  22 -13  -3   22.20   16.70
 -13  -9  -3    7.10   14.30
  10 -22   3   42.00   14.00
  12  10   3   43.50   18.30
 -22  10  -3   30.70   19.60
  10  12  -3   27.80   19.40
 -22  12   3   29.30   14.50
 -10  22  -3   30.30   12.10
  22 -10   3   37.00   14.90
 -12 -10  -3   36.30   14.00
  22 -12  -3   49.80   16.30
 -10 -12   3   39.00   16.60
 -12  22   3   38.80   12.90
  11 -22   3    0.20   13.70
  11  11   3   -0.10   17.00
 -22  11  -3   10.10   19.30
 -22  11   3    2.10   13.90
  11  11  -3    1.90   18.50
  22 -11  -3   13.10   15.40
  22 -11   3    3.20   15.60
 -11  22  -3   23.70   13.80
 -11  22   3    7.70   12.80
 -11 -11   3   34.20   16.60
 -11 -11  -3   14.70   13.60
 -22  12  -3   51.59   19.30
 -22  10   3   33.00   14.60
  12 -22   3   26.00   12.90
  10  12   3   53.19   18.20
 -10  22   3   19.90   14.00
  22 -12   3   15.00   15.50
 -10 -12  -3   34.40   14.00
 -12 -10   3   73.69   18.60
  22 -10  -3   37.20   16.70
 -12  22  -3   40.00   16.40
 -22  13  -3   67.49   21.50
 -22   9   3   88.49   19.30
  13 -22   3  102.19   20.10
 -13  22  -3  135.49   18.80
 -13  -9   3  133.79   25.10
  -9 -13  -3   99.79   19.20
  22  -9  -3  140.69   20.30
  -9  22   3   98.39   19.50
  22 -13   3  107.09   19.00
 -22   8   3   28.00   14.40
   8 -22  -3   86.69   24.40
  14 -22   3   39.00   13.80
 -22  14  -3   73.69   21.10
  22 -14   3   28.40   16.70
 -14  -8   3   53.89   18.30
  -8  22   3   46.20   15.00
  22  -8  -3   32.60   17.00
 -14  22  -3   51.59   15.70
  -8 -14  -3   16.10   13.50
 -22  15  -3  180.68   26.90
  15 -22   3  125.49   20.00
 -22   7   3  147.29   19.40
  -7 -15  -3   91.79   17.00
  22  -7  -3  138.49   20.50
 -15  22  -3  116.09   19.30
  22 -15   3  112.39   19.50
 -15  -7   3   78.29   14.90
 -15  -7   3  166.58   26.70
  -7  22   3   98.49   17.30
   6 -22  -3  147.29   27.40
  16 -22   3  192.78   21.20
 -22   6   3  164.68   20.90
 -22  16  -3  174.98   27.70
 -16  22  -3  198.88   20.50
  -6  22   3  169.98   23.30
  -6 -16  -3  154.08   21.90
 -16  -6   3  118.79   19.10
  22  -6  -3  183.18   22.20
 -16  -6   3  265.17   29.20
  22 -16   3  157.28   25.00
 -22   5   3   20.90   14.50
  17 -22   3   13.30   14.50
   5 -22  -3  -31.30   21.50
 -17  22  -3   35.10   17.50
  22 -17   3   24.80   18.40
  -5 -17  -3   31.00   14.80
  22  -5  -3   23.60   16.90
 -17  -5   3   22.40   13.50
  -5  22   3   29.80   15.80
 -22   4   3   78.39   16.70
  18 -22   3  113.49   19.40
   4 -22  -3   55.29   20.40
  -4 -18  -3   51.29   15.70
  -4  22   3   89.19   17.80
 -18  -4   3   65.09   16.90
  22 -18   3   79.39   19.90
 -18  22  -3  125.49   19.40
  22  -4  -3   95.99   18.30
  19 -22   3   37.90   15.60
 -22   3   3   47.40   15.60
 -22  19  -3   37.90   22.30
   3 -22  -3   49.99   18.80
  -3 -19  -3   32.60   17.10
  -3  22   3   71.89   17.60
 -19  22  -3   48.20   16.70
  22 -19   3   79.59   20.00
  22  -3  -3   50.59   19.00
 -19  -3   3   33.60   15.00
 -22   2   3   16.60   15.40
  20 -22   3   11.70   13.60
   2  20   3   16.20   21.30
   2 -22  -3   30.80   16.60
  22  -2  -3   63.09   18.40
  22 -20   3   35.50   19.40
  -2  22   3   59.39   18.50
 -20  -2   3   22.00   15.00
  -2 -20  -3   11.70   16.80
 -23  18   3   91.39   19.20
   5  18  -3   83.59   19.80
  18   5   3   71.39   20.90
  18 -23  -3   24.60   26.20
   5 -23   3  103.99   20.90
 -23   5  -3  120.29   22.70
  23 -18  -3   99.39   19.50
 -18  -5  -3   73.69   17.00
  23  -5   3   79.49   18.30
  -5 -18   3   75.49   17.70
  -5  23  -3   73.09   15.30
 -18  23   3   84.39   18.40
 -23   6  -3  183.88   26.70
   6  17  -3  189.28   26.00
  17 -23  -3  168.98   30.90
   6 -23   3  224.08   24.40
 -23  17   3  219.28   23.20
  17   6   3  192.48   25.80
  23  -6   3  168.58   23.40
  -6  23  -3  208.58   22.50
 -17  -6  -3  191.98   23.50
 -17  23   3  208.68   21.30
  23 -17  -3  207.38   24.20
  -6 -17   3  182.18   24.80
 -23   7  -3  125.39   24.40
 -23  16   3   95.59   20.10
   7  16  -3  119.59   23.90
  16 -23  -3   71.09   27.40
  16   7   3  122.69   23.50
   7 -23   3  107.09   18.40
  -7  23  -3  112.69   19.40
  -7 -16   3   92.89   19.50
 -16  23   3   96.49   17.60
  23  -7   3   96.79   21.20
 -16  -7  -3   95.49   18.20
  23 -16  -3  110.49   20.60
 -23  15   3   30.80   15.20
   8  15  -3   16.00   18.80
   8 -23   3   16.60   16.30
 -23   8  -3   68.29   19.20
  15   8   3   54.09   20.10
  -8 -15   3   16.90   16.90
 -15  23   3   24.40   13.30
 -15  -8  -3   28.60   15.20
  -8  23  -3   26.80   14.00
  23 -15  -3   47.20   17.50
  23  -8   3   31.00   15.70
  14 -23  -3   91.99   33.40
  14   9   3   89.59   21.20
 -23  14   3  114.19   19.60
 -23   9  -3  153.18   25.30
   9  14  -3  116.89   24.70
   9 -23   3  135.09   20.80
  23  -9   3   79.49   16.60
 -14  23   3  108.69   18.50
  -9 -14   3  123.59   19.00
  23 -14  -3  131.59   20.60
  -9  23  -3  102.59   18.00
 -14  -9  -3   96.29   19.50
 -23  13   3   38.80   14.90
  13  10   3   40.00   19.10
  10 -23   3   38.90   15.00
 -23  10  -3   57.99   18.20
  13 -23  -3  -28.30   43.90
  10  13  -3   27.10   19.80
  23 -13  -3   34.30   15.80
 -10 -13   3   47.40   17.20
  23 -10   3   26.50   14.80
 -10  23  -3   23.30   12.20
 -13 -10  -3   24.60   15.30
 -13  23   3   38.40   13.90
 -23  12   3    1.80   14.30
  12  11   3  -23.10   18.10
  11  12  -3    1.20   19.90
  11 -23   3   -3.80   14.10
 -23  11  -3   -4.40   19.80
 -11  23  -3   15.10   12.90
 -11 -12   3   31.70   17.30
  23 -12  -3   11.60   15.00
  23 -11   3   -0.60   15.10
 -12  23   3   10.90   13.90
 -12 -11  -3   16.10   14.30
  12 -23   3   28.00   15.00
  12  11  -3   61.89   22.90
 -23  11   3   56.59   15.50
 -23  12  -3   90.69   21.60
 -11 -12  -3   37.70   14.10
  23 -12   3   39.40   16.70
  23 -11  -3   51.69   15.60
 -11  23   3   44.80   13.40
 -12 -11   3   67.49   19.00
 -12  23  -3   46.50   14.70
 -23  13  -3   63.69   20.30
  13 -23   3   40.10   15.10
  13  10  -3   25.10   21.30
 -23  10   3   29.40   14.80
 -10 -13  -3   11.40   14.00
 -10  23   3   11.10   14.50
 -13  23  -3   43.50   13.60
 -13 -10   3   37.50   18.10
  23 -10  -3   26.60   16.30
  23 -13   3    9.00   16.20
 -23   9   3   25.90   15.20
 -23  14  -3   42.90   21.40
  14 -23   3   32.60   14.70
  23 -14   3   48.80   17.00
  -9  23   3   41.40   14.30
 -14  -9   3   54.19   18.50
 -14  23  -3   54.29   15.10
  -9 -14  -3   24.70   14.50
  23  -9  -3   60.09   16.00
 -23  15  -3  129.49   23.20
  15 -23   3   92.29   19.00
 -23   8   3   88.79   18.90
 -15  23  -3  105.59   19.10
 -15  -8   3  135.59   26.40
  -8  23   3  107.79   20.70
  23  -8  -3  107.79   20.00
  -8 -15  -3   73.19   15.90
  23 -15   3   96.19   18.90
   7 -23  -3   67.79   20.30
 -23   7   3   11.60   14.10
  16 -23   3   16.20   14.00
  23 -16   3   15.40   17.70
 -16  -7   3   69.79   20.00
  23  -7  -3   30.70   16.50
  -7 -16  -3   22.60   14.90
 -16  23  -3   35.40   14.40
  -7  23   3   16.20   16.70
 -23  17  -3   80.49   22.00
  17 -23   3   27.80   15.60
 -23   6   3   21.20   15.00
  -6 -17  -3   37.90   16.10
  23  -6  -3   50.29   17.80
 -17  -6   3   24.10   13.40
  23 -17   3   40.20   18.20
  -6  23   3   43.80   17.70
 -17  23  -3   41.50   16.20
  18 -23   3   58.89   15.60
 -23  18  -3   79.19   22.80
 -23   5   3   44.20   15.70
   5 -23  -3   48.70   21.90
 -18  -5   3   21.40   15.00
  -5  23   3   53.79   17.50
  23  -5  -3   80.49   18.10
  -5 -18  -3   39.70   15.40
 -18  23  -3   85.29   17.10
  23 -18   3   78.99   20.30
   8  16  -3   43.40   17.70
 -24  16   3   44.50   14.90
 -24   8  -3   64.39   18.20
  16   8   3   55.99   21.30
   8 -24   3   32.60   16.80
  -8 -16   3   15.20   18.70
 -16  -8  -3   22.80   15.00
 -16  24   3   38.40   14.00
  -8  24  -3   34.00   14.10
  24 -16  -3   29.10   17.00
  24  -8   3   42.00   16.50
 -24  15   3   12.70   14.80
  15   9   3   -8.90   20.40
 -24   9  -3   47.50   18.70
   9  15  -3   32.60   21.50
   9 -24   3   34.90   16.30
  -9 -15   3   23.20   17.60
 -15  -9  -3    9.10   15.60
 -15  24   3   19.30   13.40
  24  -9   3   17.40   15.90
  24 -15  -3   32.70   16.10
  -9  24  -3   26.00   13.30
 -24  14   3   26.50   14.30
  10 -24   3   25.90   15.40
  10  14  -3    9.00   19.80
 -24  10  -3   23.60   21.10
  14  10   3    6.60   22.60
  24 -14  -3   39.60   15.60
 -10  24  -3   28.20   12.90
  24 -10   3   18.10   15.00
 -14 -10  -3    9.40   14.70
 -14  24   3   30.60   13.40
 -10 -14   3   46.30   18.10
  11  13  -3   42.30   21.80
 -24  13   3   26.20   15.60
  11 -24   3   43.80   15.40
 -24  11  -3   79.39   19.70
  24 -11   3   31.70   15.60
 -13  24   3   45.10   14.50
 -13 -11  -3   34.40   15.00
 -11 -13   3   46.80   18.40
 -11  24  -3   23.90   13.30
  24 -13  -3   35.70   16.40
  12  12  -3   45.00   22.90
 -24  12  -3    6.80   21.20
  12 -24   3   39.10   15.70
 -24  12   3   53.89   16.10
 -12 -12   3   47.10   19.80
 -12  24   3   49.40   15.70
 -12 -12  -3   47.60   14.80
  24 -12  -3   59.09   17.50
 -12  24  -3   42.10   14.90
  24 -12   3   53.49   17.60
  13 -24   3    5.20   14.20
  13  11  -3   26.60   23.30
 -24  11   3   19.00   14.60
 -13  24  -3   46.10   14.30
 -11  24   3   12.50   13.50
  24 -11  -3   36.10   15.50
 -13 -11   3   24.30   18.30
 -11 -13  -3   27.80   14.60
  24 -13   3   15.50   16.10
  14 -24   3   -6.00   16.10
  14  10  -3   31.10   22.40
 -24  10   3    4.10   14.50
 -14 -10   3   69.59   19.20
  24 -14   3   17.60   17.20
  24 -10  -3   32.70   15.30
 -14  24  -3   37.80   15.20
 -10 -14  -3   -2.50   15.20
 -10  24   3   15.10   15.00
 -24   9   3   44.60   14.90
  15 -24   3   54.69   15.70
  -9  24   3   66.49   16.00
  24 -15   3   69.39   19.20
 -15  -9   3   66.79   19.50
  24  -9  -3   59.99   18.00
 -15  24  -3   53.29   16.20
  -9 -15  -3   41.70   16.20
 -24  16  -3   17.80   22.90
  16 -24   3   -6.50   15.60
 -24   8   3   24.00   15.70
  24  -8  -3   16.70   16.70
  -8 -16  -3   23.40   14.60
  -8  24   3   12.50   15.00
  24 -16   3   29.00   18.70
 -16  -8   3   56.09   20.70
 -16  24  -3   31.80   14.50
   0   0   4   -1.10    5.80
   0   0  -4   -4.50    5.80
   0   0   4   -1.80    5.90
   0   0  -4    1.60    8.80
   0  -1   4  123.89   11.70
   0   1  -4  121.09   20.10
  -1   1   4  106.49   11.00
   1   0   4   87.39   16.40
   0  -1   4   96.49   11.10
  -1   0  -4   99.89   13.00
   1  -1  -4   82.49   13.70
   0   1  -4   88.69   13.90
   1   0   4  121.49   11.70
  -1   0  -4   87.49   18.60
  -1   1   4  118.99   11.50
   0  -1   4   94.89   11.60
  -1   1  -4  296.67   25.70
  -1   0   4  271.17   19.20
   0   1   4  301.77   19.50
   1   0  -4  329.87   25.60
   1  -1   4  279.57   18.90
   1  -1   4  263.07   19.50
  -1   1  -4  313.97   21.10
   0  -1  -4  283.37   20.90
   0   1   4  275.77   18.90
   1   0  -4  264.07   21.50
  -1   0   4  260.17   18.90
   1  -1   4  296.97   19.50
  -1   0   4  289.87   19.50
   0  -2   4  510.95   30.50
   2   0   4  525.45   30.80
  -2   0  -4  524.75   31.30
  -2   2   4  468.35   30.30
   0  -2   4  491.35   30.80
  -2   2   4  502.75   31.90
  -2   0  -4  473.55   34.80
   0   2  -4  504.15   32.40
   2   0   4  442.46   29.80
   0  -2   4  483.15   30.40
  -2   2   4  508.15   30.50
   2  -2  -4  539.55   32.50
   0   2  -4  546.35   36.10
  -2   1   4  347.17   23.70
   1   1   4  389.46   24.30
  -2   1  -4  398.16   25.30
   1  -2   4  388.56   24.10
  -2   1  -4  357.46   29.20
  -2   1   4  398.46   24.00
   1  -2   4  352.96   23.70
   1   1  -4  411.26   30.70
   1   1   4  345.47   23.50
   1   1  -4  363.86   26.40
   1  -2  -4  367.86   25.60
  -2   1   4  338.17   23.40
   1  -2   4  348.37   24.40
  -1  -1   4  371.46   24.20
  -1   2   4  363.66   23.70
   2  -1   4  359.86   23.90
   2  -1   4  362.46   23.50
  -1   2  -4  428.26   26.20
  -1  -1  -4  390.26   25.10
  -1  -1   4  392.76   24.00
  -1  -1   4  348.37   23.60
  -1   2   4  392.86   24.20
  -1   2   4  390.16   25.40
   2  -1  -4  366.06   26.10
   2  -1   4  403.76   24.30
  -1   2  -4  413.66   29.90
   2   0  -4  209.18   21.20
   2  -2   4  197.48   14.40
   0   2   4  186.18   13.40
   0  -2  -4  156.28   16.00
   0   2   4  185.88   15.50
  -2   2  -4  179.58   16.10
  -2   0   4  137.99   13.90
  -2   0   4  163.38   13.70
   0  -2  -4  155.68   15.80
   2   0  -4  163.28   16.80
   0   2   4  199.18   14.30
   2  -2   4  158.18   14.40
  -2   2  -4  159.48   21.50
   2  -2   4  143.59   14.20
  -2   0   4  178.48   14.00
  -3   0  -4  572.14   34.10
  -3   0  -4  549.85   34.80
   0   3  -4  606.34   35.90
   3   0   4  507.45   33.00
   3   0   4  570.14   33.90
  -3   3   4  507.85   40.70
  -3   0  -4  515.15   36.90
   0  -3   4  539.15   33.60
   3  -3  -4  585.24   37.00
  -3   3   4  585.84   33.90
  -3   3   4  535.15   33.50
   0  -3   4  569.44   33.70
   0   3  -4  602.84   39.20
   0  -3   4  561.64   34.00
  -3   2   4   24.60    6.60
  -3   1  -4   10.40    5.70
  -3   1  -4    5.10    8.90
   2   1   4   21.40    5.40
  -3   2   4   32.10    7.30
   2  -3  -4    0.20    7.00
   1  -3   4   20.90    6.30
   1  -3   4   14.20    7.30
   1  -3   4   20.90    7.00
   2   1   4   24.30    7.30
   1   2  -4    7.60   10.80
  -2   3   4   49.30    9.50
  -1   3  -4    9.30    9.90
  -2  -1  -4   23.20    8.30
  -2   3   4   24.30    6.20
  -1  -2   4   15.70    6.50
  -1  -2   4   15.40    6.70
  -2   3   4   43.30   11.80
  -1   3  -4   11.00    6.20
  -2  -1  -4   19.00    5.50
  -1  -2   4   26.90    6.80
   3  -1   4   10.50    5.60
   3  -2  -4   16.40   11.60
   2  -3   4  218.68   15.40
  -3   1   4  201.28   15.30
   2  -3   4  177.18   16.10
  -3   1   4  231.98   15.50
   2   1  -4  194.28   27.90
   1   2   4  208.68   16.10
   1  -3  -4  174.58   16.30
   1  -3  -4  222.78   17.70
  -3   2  -4  230.08   17.30
   1   2   4  230.78   15.90
   1   2   4  207.38   14.60
   2  -3   4  196.28   14.80
   2   1  -4  185.58   26.50
  -3   2  -4  184.98   22.20
  -3   1   4  175.38   15.00
  -2  -1   4  196.68   15.10
  -1   3   4  207.38   17.20
  -1  -2  -4  170.38   16.40
   3  -2   4  171.88   15.80
  -2  -1   4  183.28   15.80
  -2   3  -4  206.08   23.10
  -1   3   4  206.68   15.70
   3  -1  -4  190.38   19.80
  -2  -1   4  190.38   15.20
   3  -2   4  227.78   15.80
  -1   3   4  207.28   15.00
  -2   3  -4  210.18   17.70
  -1  -2  -4  189.48   17.10
   3  -3   4  739.23   43.50
   0  -3  -4  751.22   44.20
  -3   0   4  693.93   43.00
  -3   3  -4  815.82   44.60
  -3   0   4  725.13   43.20
  -3   3  -4  792.02   46.90
   3  -3   4  770.92   43.40
  -3   0   4  745.93   43.10
   0   3   4  728.73   44.10
   0   3   4  702.23   42.80
   3   0  -4  734.93   47.90
   0   3   4  723.83   43.30
   0  -3  -4  653.53   43.60
   3   0  -4  728.83   45.10
   0  -4   4   58.99   10.20
  -4   4   4   81.99   10.50
   4   0   4   71.19   11.00
   4  -4  -4   81.19   10.10
  -4   0  -4   49.10    9.80
  -4   4   4   64.59   13.00
   0  -4   4   47.10    9.70
   0   4  -4   38.10    8.10
   0   4  -4   49.40   12.00
   0  -4   4   64.69   11.60
  -4   3   4  583.44   35.80
   3   1   4  585.54   34.20
   3  -4  -4  573.94   37.30
   1  -4   4  545.05   33.80
  -4   3   4  550.44   33.80
   1  -4   4  588.24   34.40
  -4   1  -4  596.54   34.20
   1  -4   4  564.34   33.70
  -4   1  -4  507.35   36.60
   1   3  -4  569.14   36.30
   1   3  -4  554.34   39.70
  -4   3   4  588.74   33.90
  -3  -1  -4  560.24   35.40
  -3  -1  -4  554.94   34.10
   4  -3  -4  610.64   36.00
  -3  -1  -4  482.05   36.90
  -1  -3   4  566.24   34.00
  -3   4   4  566.44   33.80
  -3   4   4  535.75   41.40
  -1   4  -4  628.94   36.20
   4  -1   4  572.74   34.30
  -1  -3   4  596.34   34.40
  -1  -3   4  529.65   33.70
  -1   4  -4  595.54   39.40
  -3   4   4  565.14   34.20
   2  -4   4  604.64   34.20
  -4   2   4  596.54   34.30
   2  -4   4  586.54   34.40
   2   2  -4  586.44   40.50
   2  -4   4  542.75   35.10
  -4   2   4  567.64   34.40
   2  -4  -4  505.35   34.60
  -4   2  -4  506.65   37.20
  -4   2  -4  589.54   35.00
   2   2   4  522.35   33.60
   2  -4  -4  618.34   36.00
  -4   2   4  551.24   35.80
   2   2   4  569.24   34.70
   2   2  -4  584.54   36.80
  -2  -2   4  531.95   34.30
  -2  -2   4  584.04   34.60
  -2  -2   4  532.25   34.30
  -2  -2  -4  546.05   35.50
  -2   4   4  582.14   35.80
  -2   4  -4  651.33   36.50
  -2   4   4  544.95   34.10
   4  -2  -4  613.34   36.70
  -2  -2  -4  534.45   34.80
  -2   4  -4  633.74   39.30
   4  -2   4  607.34   34.70
   4  -2   4  505.35   34.40
  -2   4   4  554.34   34.50
  -4   1   4  717.73   40.50
   3   1  -4  687.03   42.70
  -4   3  -4  754.52   41.50
  -4   1   4  649.04   40.40
   1   3   4  694.03   40.70
   3  -4   4  662.53   40.00
   1   3   4  636.64   39.90
   1  -4  -4  703.93   41.60
   3  -4   4  705.93   40.60
   3  -4   4  648.34   41.00
   1   3   4  686.43   41.20
  -4   3  -4  695.83   43.60
  -4   1   4  570.74   40.80
   1  -4  -4  631.34   41.10
   3   1  -4  691.53   46.50
  -3  -1   4  657.43   40.40
   4  -3   4  694.73   40.60
  -1  -3  -4  648.04   41.20
  -1   4   4  693.03   41.60
  -3   4  -4  747.63   44.60
  -1   4   4  666.53   40.20
   4  -3   4  684.83   40.80
   4  -1  -4  731.03   42.80
  -1  -3  -4  704.43   41.30
  -1   4   4  694.13   40.60
  -3  -1   4  663.33   40.20
  -3  -1   4  676.33   40.50
   0  -4  -4  297.37   22.50
   4   0  -4  333.87   28.50
  -4   0   4  317.87   21.00
   0   4   4  304.77   20.70
   4  -4   4  268.27   21.90
  -4   4  -4  340.47   22.90
   4   0  -4  288.07   23.90
  -4   0   4  367.06   21.30
  -4   4  -4  324.37   25.70
  -4   0   4  304.77   21.30
   0   4   4  283.87   22.30
   0  -4  -4  321.97   22.70
   4  -4   4  328.37   21.40
   0   4   4  337.17   21.50
   5  -5  -4  422.56   29.10
  -5   5   4  479.35   29.50
  -5   5   4  489.15   29.60
   5   0   4  491.35   29.70
  -5   0  -4  461.65   31.30
   5  -5  -4  494.65   31.80
   0  -5   4  415.36   28.90
   0  -5   4  488.75   29.20
   0  -5   4  468.75   29.80
   0   5  -4  513.25   35.30
   0   5  -4  492.45   31.90
  -5   5   4  466.55   31.30
   1  -5   4  463.55   27.80
  -5   4   4  450.95   29.90
  -5   4   4  439.16   28.00
   4   1   4  451.35   28.30
   4  -5  -4  391.56   28.00
   4  -5  -4  473.95   30.00
  -5   1  -4  443.56   29.60
   1   4  -4  470.65   30.90
   1   4  -4  474.85   35.20
   1  -5   4  419.76   27.70
   1  -5   4  455.95   28.60
  -5   4   4  470.25   28.20
   5  -4  -4  468.75   30.40
  -1   5  -4  467.35   30.10
  -1  -4   4  428.56   27.80
  -1  -4   4  457.95   28.30
  -1  -4   4  412.66   27.70
   5  -4  -4  403.66   27.40
  -1   5  -4  510.85   33.60
  -4   5   4  430.76   29.60
  -4   5   4  430.86   27.80
  -4  -1  -4  429.96   29.60
  -4   5   4  436.66   28.10
   5  -1   4  460.65   28.30
  -5   3   4  219.68   15.20
  -5   3   4  182.68   15.10
   3  -5  -4  164.88   15.70
   2  -5   4  168.88   15.60
  -5   3   4  181.28   17.40
   2  -5   4  163.68   14.70
   2   3  -4  147.19   24.30
   2  -5   4  188.98   14.30
   3   2   4  195.78   15.30
  -2  -3   4  149.39   14.20
  -2  -3   4  198.88   15.50
  -3  -2  -4  180.48   17.50
  -3   5   4  188.98   14.50
  -3   5   4  183.78   20.00
  -2   5  -4  188.88   21.30
  -3  -2  -4  186.98   15.00
   5  -2   4  210.88   15.40
  -2   5  -4  209.28   17.60
   5  -3  -4  198.88   18.40
  -3   5   4  161.48   15.40
  -2  -3   4  169.08   15.00
   3  -5   4  476.75   28.00
   2  -5  -4  439.26   28.60
   3  -5   4  408.86   28.60
  -5   3  -4  486.15   28.40
   3  -5   4  436.46   27.20
   3   2  -4  456.55   35.50
   2  -5  -4  468.45   29.70
   2   3   4  412.76   26.90
  -5   2   4  388.26   26.90
  -5   2   4  463.35   29.70
  -5   3  -4  429.86   30.10
   3   2  -4  439.36   30.50
  -5   2   4  462.35   27.80
   2   3   4  469.05   28.10
   2   3   4  449.66   28.40
  -5   2   4  514.15   28.00
  -2  -3  -4  426.16   29.20
  -2  -3  -4  429.76   28.40
  -3  -2   4  458.45   28.20
   5  -3   4  473.45   28.20
   5  -3   4  381.76   28.00
  -3  -2   4  421.66   27.60
  -2   5   4  429.56   29.20
  -3   5  -4  482.65   29.80
  -3   5  -4  469.05   33.20
   5  -2  -4  465.35   30.40
  -2   5   4  430.76   27.50
  -2   5   4  455.05   28.00
  -3  -2   4  404.26   27.80
   1  -5  -4 1629.34   91.79
  -5   1   4 1589.04   90.59
  -5   1   4 1560.54   90.69
   4   1  -4 1704.03   92.59
   1   4   4 1412.96   91.69
   1  -5  -4 1527.35   91.09
   4  -5   4 1590.94   90.69
   1   4   4 1572.34   91.39
   1   4   4 1564.04   90.89
   4   1  -4 1709.63   95.49
   4  -5   4 1588.44   91.09
  -5   4  -4 1778.52   91.59
  -5   1   4 1568.74   90.39
  -5   4  -4 1578.04   92.39
  -4   5  -4 1769.12   91.99
  -4  -1   4 1693.23   90.79
   5  -4   4 1628.64   90.99
   5  -1  -4 1723.93   92.59
  -1  -4  -4 1626.44   91.49
  -1   5   4 1591.54   91.69
  -1  -4  -4 1594.04   91.29
  -1   5   4 1490.55   90.39
   5  -4   4 1631.74   90.79
  -4   5  -4 1710.43   93.69
  -4  -1   4 1538.25   90.59
  -1   5   4 1649.23   90.89
  -4  -1   4 1591.04   90.59
   0   5   4  412.96   25.00
   5   0  -4  406.96   32.60
  -5   5  -4  400.86   26.30
   0   5   4  368.86   26.20
   5  -5   4  395.66   25.10
   0  -5  -4  376.56   26.10
   5   0  -4  355.86   27.60
   0   5   4  353.26   24.30
  -5   0   4  364.56   24.70
  -5   0   4  403.36   24.80
  -5   5  -4  437.46   28.30
  -5   5  -4  377.16   28.30
   0  -5  -4  384.56   26.60
  -6   6   4   50.19   10.60
   0  -6   4   40.50    8.30
  -6   6   4   30.70    7.80
   0  -6   4   33.70    7.50
   0   6  -4   39.80   11.50
   6  -6  -4   33.70    7.30
   0  -6   4   33.70    8.00
   6   0   4   27.60    8.80
   0   6  -4   30.10    8.20
  -6   0  -4   31.00   10.20
  -6   6   4   49.60   13.30
   1  -6   4   78.59   12.30
  -6   5   4  100.29   11.70
  -6   5   4   75.19   14.10
   5  -6  -4   95.19   15.10
   5   1   4   92.09   12.20
   1   5  -4   65.59   15.20
  -6   1  -4   88.99   12.00
   1  -6   4   62.19   10.90
   1  -6   4   96.69   10.80
   1   5  -4   58.89   12.80
   5  -6  -4   88.99   10.80
   6  -5  -4   79.09   14.90
  -5   6   4   79.89   11.50
   6  -1   4   72.39   12.30
  -5   6   4   73.39   11.60
  -1  -5   4   68.09    8.60
  -1   6  -4  120.19   19.80
  -1  -5   4   75.49   11.20
  -5  -1  -4   67.59   11.90
  -5   6   4   69.59   13.60
  -1  -5   4  113.49   12.60
   2   4  -4  410.16   29.60
   4  -6  -4  361.46   26.50
   2   4  -4  424.26   34.70
   2  -6   4  423.66   27.20
   2  -6   4  381.86   26.30
  -6   4   4  426.26   28.60
  -6   4   4  458.95   26.40
   4  -6  -4  422.66   28.50
   4   2   4  418.56   26.80
   2  -6   4  419.56   26.00
  -6   4   4  437.46   26.70
  -4   6   4  423.66   28.60
  -2   6  -4  460.15   32.50
   6  -4  -4  446.46   29.00
  -4   6   4  397.16   26.60
  -4  -2  -4  427.66   28.50
  -2  -4   4  356.96   26.10
  -2  -4   4  443.26   26.90
   6  -2   4  437.66   27.00
  -4   6   4  423.86   26.50
  -2  -4   4  375.36   26.30
   3  -6   4  772.12   46.20
   3  -6  -4  813.22   48.10
  -6   3   4  815.22   46.10
   3   3  -4  802.22   48.70
   3   3   4  833.12   46.60
   3   3  -4  792.42   52.59
  -6   3   4  799.22   48.10
   3   3   4  790.42   46.50
  -6   3   4  788.52   46.40
   3  -6  -4  709.03   46.60
   3  -6   4  767.42   46.80
  -3  -3   4  835.82   46.60
  -3  -3  -4  780.12   47.60
  -3   6   4  807.42   46.60
  -3   6  -4  806.52   50.79
  -3   6   4  771.62   46.20
   6  -3  -4  841.92   48.50
   6  -3   4  825.42   46.70
  -3  -3   4  755.02   46.10
  -3  -3  -4  780.92   46.90
  -3   6   4  800.42   47.90
  -3  -3   4  779.62   46.40
   4  -6   4  605.24   39.30
  -6   2   4  636.04   40.40
  -6   4  -4  611.94   39.80
  -6   4  -4  695.93   39.20
   4   2  -4  620.74   45.50
  -6   2   4  539.35   37.70
  -6   2   4  662.83   38.70
   4  -6   4  641.54   38.70
   2   4   4  642.84   39.20
   2   4   4  679.03   38.90
   2   4   4  592.54   37.90
   4   2  -4  629.74   41.10
   2  -6  -4  695.03   40.60
   2  -6  -4  610.94   39.20
  -4  -2   4  674.33   38.80
   6  -4   4  652.53   39.00
  -2   6   4  675.63   38.80
   6  -2  -4  696.53   41.10
  -2  -4  -4  673.73   39.80
  -2   6   4  639.84   40.40
  -4   6  -4  663.93   42.90
  -2   6   4  663.93   38.60
  -2  -4  -4  651.03   40.10
   6  -4   4  670.03   39.00
  -4  -2   4  661.63   38.70
   5   1  -4  540.15   36.20
   1  -6  -4  531.35   34.30
  -6   5  -4  586.54   34.70
  -6   5  -4  500.45   33.40
   1   5   4  528.05   34.50
   5  -6   4  558.24   33.60
   1   5   4  587.74   33.70
   1  -6  -4  574.34   35.50
   5  -6   4  506.05   34.10
   5   1  -4  553.34   41.00
  -6   1   4  580.14   33.60
   1   5   4  477.75   32.90
  -6   5  -4  511.25   35.40
  -6   1   4  542.15   33.10
  -5   6  -4  560.44   37.20
  -1   6   4  521.65   33.10
  -5   6  -4  552.14   34.50
  -1  -5  -4  531.25   34.50
  -5  -1   4  603.54   33.60
  -5  -1   4  544.85   33.40
  -1   6   4  572.74   33.70
   6  -5   4  595.84   33.80
   6  -1  -4  580.24   36.10
  -1   6   4  544.85   34.80
   6  -5   4  541.35   33.90
  -1  -5  -4  546.75   35.00
   0   6   4 2018.20  111.79
   0  -6  -4 2061.99  113.09
   6   0  -4 2033.50  113.59
   0   6   4 1974.70  112.59
   6  -6   4 2027.50  112.09
  -6   0   4 2057.09  112.09
  -6   6  -4 1899.11  113.29
  -6   0   4 1914.91  111.59
  -6   6  -4 1840.92  111.69
   0   6   4 1846.52  111.29
   6  -6   4 2066.39  111.79
   0  -6  -4 1971.50  112.09
   6   0  -4 2092.89  115.99
  -7   7   4    6.60    7.30
   7   0   4   -5.50    9.00
  -7   7   4   10.90    7.70
  -7   7   4   -1.50    6.40
   0  -7   4   14.40    6.60
  -7   0  -4  -16.60    9.90
   0   7  -4    4.20   11.30
   7  -7  -4    6.10    7.00
   0  -7   4   -1.00    7.50
   1   6  -4    0.30    7.40
  -7   1  -4   -1.00    9.60
   1  -7   4   10.50    6.50
   6  -7  -4    3.40    6.60
   1  -7   4   11.10    8.00
   1  -7   4   -8.90    6.40
   6   1   4    1.20    8.10
   1   6  -4   -1.70    9.90
  -7   6   4   -2.90    6.40
  -7   6   4   -0.60    7.30
  -1   7  -4   10.80   10.40
  -1  -6   4   -3.90    6.60
  -1  -6   4   -2.40    7.20
  -6   7   4    5.80    8.00
  -6   7   4   -1.20    6.90
  -1  -6   4    9.80    7.80
  -6  -1  -4   -7.50    9.50
   7  -1   4   -4.20    8.30
   7  -6  -4   -0.30    6.70
   5  -7  -4  185.08   18.00
  -7   2  -4  163.98   18.30
  -7   5   4  173.98   17.10
   2   5  -4  178.28   18.80
   2  -7   4  164.48   14.30
   5   2   4  172.58   15.60
   2   5  -4  167.58   25.40
   2  -7   4  161.08   15.60
  -7   5   4  169.98   14.90
   5  -7  -4  189.68   14.60
  -2  -5   4  149.19   14.00
   7  -2   4  184.08   15.80
  -5   7   4  168.38   15.20
  -5  -2  -4  172.98   18.40
  -2  -5   4  189.28   15.80
  -2  -5   4  150.18   14.70
  -2   7  -4  219.28   22.90
  -5   7   4  168.38   15.10
   7  -5  -4  183.88   18.30
  -5   7   4  175.78   17.40
   4   3   4  166.38   14.80
   3  -7   4  162.98   15.70
  -7   4   4  167.68   17.30
   4  -7  -4  167.58   17.10
   3   4  -4  126.29   24.60
   4  -7  -4  182.28   17.60
   3  -7   4  156.38   14.10
  -7   4   4  181.58   14.80
   3   4  -4  124.29   18.50
  -3   7  -4  186.48   21.80
   7  -4  -4  179.48   17.60
  -3  -4   4  195.08   15.40
  -4   7   4  138.99   14.90
   7  -3   4  180.28   15.10
  -4   7   4  166.88   14.60
  -3  -4   4  142.59   14.60
  -4   7   4  170.98   16.90
  -4  -3  -4  155.68   17.70
   4   3  -4  257.67   24.50
  -7   3   4  301.97   23.40
   3   4   4  293.47   21.00
  -7   3   4  318.27   21.30
   4   3  -4  243.58   30.20
   4  -7   4  298.57   21.10
   3   4   4  331.77   21.60
   3  -7  -4  330.37   23.80
   3  -7  -4  323.37   21.50
   7  -4   4  342.87   21.60
  -3  -4  -4  270.27   22.90
  -3   7   4  326.57   21.60
  -4   7  -4  279.07   23.50
  -4  -3   4  297.67   21.20
  -3   7   4  305.87   23.40
  -3   7   4  327.47   21.20
  -3  -4  -4  310.27   23.40
   7  -3  -4  340.47   24.10
  -4  -3   4  345.17   21.70
   5  -7   4 1325.67   76.09
   5   2  -4 1372.46   77.79
   2   5   4 1168.98   74.99
  -7   2   4 1197.98   74.89
   5   2  -4 1376.46   81.09
   2   5   4 1315.17   76.29
  -7   2   4 1327.27   77.19
  -7   5  -4 1255.17   76.79
  -7   2   4 1340.47   75.69
  -7   5  -4 1469.25   76.29
   2   5   4 1315.17   75.69
   5  -7   4 1347.67   75.69
   2  -7  -4 1261.87   79.09
   2  -7  -4 1258.17   75.89
  -5   7  -4 1313.07   76.39
  -2   7   4 1368.66   75.69
  -5   7  -4 1348.37   78.69
  -2   7   4 1267.47   77.39
  -2  -5  -4 1315.87   76.99
   7  -2  -4 1376.36   77.49
  -2  -5  -4 1270.17   76.29
   7  -5   4 1332.27   75.89
  -2   7   4 1325.67   75.59
  -5  -2   4 1394.96   75.79
  -5  -2   4 1326.97   75.59
   7  -5   4 1370.46   75.79
   6  -7   4  522.35   32.00
   1   6   4  548.65   32.00
   1   6   4  495.15   32.70
   6   1  -4  617.34   37.60
   6   1  -4  500.85   39.90
  -7   6  -4  445.86   33.40
   6  -7   4  465.95   32.40
  -7   1   4  497.95   31.10
   6   1  -4  510.65   34.60
   1  -7  -4  487.05   32.40
   1   6   4  482.55   31.20
   1  -7  -4  536.75   34.30
  -7   1   4  556.44   31.80
   7  -1  -4  613.84   37.80
  -6  -1   4  532.25   31.80
   7  -6   4  536.95   32.00
  -1   7   4  502.75   31.50
  -1   7   4  548.35   31.90
  -6   7  -4  451.95   32.30
  -1  -6  -4  506.45   34.10
  -1  -6  -4  518.75   32.90
  -6   7  -4  444.86   34.60
  -6  -1   4  528.15   31.60
   7  -1  -4  548.35   34.60
   7  -6   4  540.05   32.20
  -1   7   4  510.35   33.60
  -7   7  -4  609.94   42.70
   0   7   4  710.23   44.00
   7  -7   4  743.43   42.70
   7   0  -4  740.23   49.00
   0   7   4  692.73   42.30
   7   0  -4  704.93   44.90
  -7   0   4  752.92   43.10
   7   0  -4  799.12   47.60
   0  -7  -4  710.93   45.10
   0   7   4  762.22   42.80
   7  -7   4  687.03   43.00
  -7   0   4  743.93   42.50
  -7   7  -4  635.54   44.40
   0  -7  -4  707.33   43.20
   0   8  -4   39.40   12.50
   8  -8  -4   71.39   14.70
   0  -8   4   54.39    9.90
  -8   8   4   32.30    8.30
   0  -8   4   46.00    8.40
  -8   0  -4   34.80   11.40
  -8   8   4   36.30    8.90
   8   0   4   49.60   10.00
   7  -8  -4  119.89   16.60
  -8   1  -4  104.79   17.90
  -8   7   4  124.89   16.10
  -8   7   4  112.99   13.60
   1  -8   4  122.29   14.50
   1   7  -4  122.69   22.50
   7   1   4  116.89   14.30
  -1   8  -4  152.58   22.90
  -1  -7   4  122.99   12.90
   8  -7  -4  113.49   16.30
  -7   8   4  114.19   15.90
   8  -1   4  135.99   14.40
  -7   8   4  114.39   14.10
  -1  -7   4  134.89   15.10
  -7  -1  -4  111.29   17.90
  -7   8   4  130.29   12.80
   2  -8   4  283.67   20.40
   2   6  -4  256.17   27.50
   2   6  -4  271.37   22.70
  -8   6   4  286.17   19.80
  -8   2  -4  250.37   22.80
   2  -8   4  244.08   18.70
  -8   6   4  249.58   21.70
   6  -8  -4  283.67   22.40
   6   2   4  285.87   20.10
  -6   8   4  263.37   19.80
  -6   8   4  263.57   19.80
  -2   8  -4  304.47   27.60
  -6  -2  -4  250.67   22.70
  -2  -6   4  263.47   19.40
   8  -6  -4  270.37   22.50
   8  -2   4  277.87   20.20
  -2  -6   4  284.47   20.60
  -6   8   4  282.27   22.00
  -8   5   4  107.59   14.80
   3   5  -4   86.39   16.00
   3  -8   4   95.69   21.30
   5   3   4   75.59   12.80
  -8   3  -4  115.49   16.20
   5  -8  -4   93.39   16.20
   3  -8   4   84.49   13.00
   3  -8   4   86.49   11.70
  -8   5   4  107.69   12.90
   5  -8  -4   80.89   12.50
   3   5  -4   64.59   14.60
  -5  -3  -4   84.29   12.30
  -3   8  -4   89.39   12.70
  -3  -5   4   68.69   12.00
  -5   8   4   85.89   12.50
   8  -3   4  103.19   13.30
  -3   8  -4  112.19   20.80
   8  -5  -4  107.89   16.00
  -3  -5   4  109.49   13.70
  -5   8   4   94.69   15.50
  -5   8   4   98.79   12.70
   4  -8   4  335.07   22.70
   4   4   4  371.46   23.30
   4  -8  -4  338.17   23.50
  -8   4   4  324.97   24.90
   4  -8   4  358.86   29.80
  -8   4   4  332.47   22.90
   4   4  -4  334.77   26.20
   4   4  -4  318.77   32.10
   4  -8   4  339.07   23.80
   4  -8  -4  350.76   25.80
  -4   8   4  354.76   25.70
  -4  -4   4  332.97   23.10
   8  -4   4  356.86   23.60
   8  -4  -4  330.07   30.50
  -4  -4  -4  328.07   25.00
  -4   8  -4  352.76   25.40
  -4   8   4  327.67   23.30
  -4  -4   4  368.76   23.80
  -4   8  -4  392.96   29.10
   8  -4  -4  346.87   25.40
  -4   8   4  329.47   23.20
  -8   3   4  288.97   19.70
   3   5   4  289.77   20.00
   3  -8  -4  306.97   22.70
   5  -8   4  265.27   19.30
   3  -8  -4  260.47   20.40
   5  -8   4  298.17   27.00
   5   3  -4  229.68   22.90
   3   5   4  278.37   19.70
  -8   3   4  226.78   21.00
   5   3  -4  311.07   27.30
   5  -8   4  236.48   20.10
   5   3  -4  223.68   28.80
   8  -5   4  294.57   20.10
   8  -3  -4  282.57   22.40
  -5  -3   4  266.77   19.40
  -3  -5  -4  233.08   22.60
  -3   8   4  260.07   20.00
  -5   8  -4  283.07   24.90
  -3  -5  -4  260.67   21.40
  -5  -3   4  300.17   20.40
  -5   8  -4  268.47   21.30
   8  -5   4  219.98   19.40
  -3   8   4  278.57   19.70
   8  -3  -4  273.37   28.00
  -3   8   4  285.77   22.40
   6  -8   4  474.05   36.60
   2   6   4  431.56   29.70
  -8   6  -4  422.26   30.30
   6   2  -4  476.85   38.10
   2   6   4  501.45   29.60
   2  -8  -4  443.66   29.90
   2  -8  -4  501.65   32.40
   6   2  -4  463.25   32.30
   6  -8   4  409.66   30.00
   6  -8   4  468.55   29.30
   2   6   4  449.46   30.00
  -8   2   4  491.25   29.40
   6   2  -4  521.15   35.70
   8  -6   4  441.86   29.70
  -6  -2   4  439.46   29.30
  -6   8  -4  431.56   30.10
  -6   8  -4  446.26   33.30
  -2  -6  -4  410.76   31.80
   8  -2  -4  480.55   35.80
  -2   8   4  475.05   29.40
  -6  -2   4  507.75   29.80
   8  -6   4  478.15   29.70
   8  -2  -4  469.55   32.10
  -2  -6  -4  481.45   30.80
  -2   8   4  444.56   31.30
  -2   8   4  456.55   29.30
   1   7   4  873.51   54.29
   7   1  -4  914.41   61.49
  -8   7  -4  857.71   55.99
   7  -8   4  956.00   54.89
   1  -8  -4  939.51   55.19
   7   1  -4 1025.70   58.99
   7  -8   4  968.80   55.19
  -8   1   4  983.10   54.79
   1   7   4  976.50   54.99
   1   7   4  926.91   55.79
   1  -8  -4  900.81   57.89
   7  -8   4  972.60   59.49
  -8   1   4  925.91   54.29
   7   1  -4  988.10   57.49
  -1   8   4  985.80   54.89
   8  -7   4  968.80   55.09
   8  -1  -4  952.40   57.09
  -1   8   4  913.61   56.59
  -7   8  -4  898.71   55.19
  -7   8  -4  874.51   57.19
   8  -7   4  961.70   54.89
  -1  -7  -4  908.11   55.29
   8  -1  -4  981.70   59.09
  -1   8   4  898.51   54.59
  -1  -7  -4  877.51   56.89
  -7  -1   4  940.31   54.59
  -7  -1   4  965.60   54.79
  -8   8  -4   18.40    8.00
   0   8   4   12.00    8.20
   0  -8  -4    8.50    9.00
  -8   8  -4   -0.60    7.70
   8  -8   4   24.70    8.80
   8  -8   4   -3.10    8.90
   8   0  -4    6.30    7.50
   0   8   4   25.00    9.30
   8   0  -4   13.70   11.90
   8  -8   4   29.50   11.20
   0  -8  -4   19.00    9.00
   0   8   4   18.60    7.60
   9  -9  -4  133.49   22.90
  -9   0  -4  104.59   19.00
  -9   9   4  135.29   15.30
   0  -9   4  138.29   16.70
   9   0   4  155.98   15.90
  -9   9   4  137.09   17.30
   9  -9  -4  127.59   17.80
   0   9  -4  165.38   25.00
   1   8  -4   35.80   11.70
  -9   1  -4   27.50   11.60
   8  -9  -4   29.10    8.00
   1  -9   4   26.10   11.60
   1  -9   4   30.40    9.10
  -9   8   4   24.00    8.30
   8   1   4   44.40   11.00
  -9   8   4   39.20    9.40
   9  -1   4   26.70   10.40
  -8   9   4   28.80    7.50
  -1   9  -4   19.90   12.30
   9  -8  -4    7.80   18.20
  -8  -1  -4   16.60   11.60
  -8   9   4   30.70    8.60
   9  -8  -4   28.90    8.30
  -1  -8   4   29.80   10.20
   2   7  -4  180.58   18.90
  -9   2  -4  160.28   18.90
   2  -9   4  167.78   16.00
   7   2   4  152.58   15.90
  -9   7   4  151.48   15.50
   7  -9  -4  183.98   18.80
  -9   7   4  160.68   17.40
   2   7  -4  177.78   24.00
   2  -9   4  174.28   23.80
  -7   9   4  175.08   14.70
  -2   9  -4  147.69   24.20
  -7   9   4  148.39   18.10
  -7   9   4  148.59   15.50
   9  -2   4  154.58   15.90
   9  -7  -4  164.08   17.60
  -7  -2  -4  125.99   19.20
  -2   9  -4  135.89   19.30
   9  -7  -4  143.29   21.50
  -2  -7   4  158.48   16.90
  -2  -7   4  167.78   15.00
   3   6  -4   22.30    9.20
   3   6  -4   32.20   11.70
   6   3   4   38.10    9.80
   3  -9   4   20.10   11.80
   3  -9   4   42.40    8.90
   3  -9   4   32.10    8.20
  -9   6   4   29.40    7.70
   6  -9  -4   33.30    8.70
   6  -9  -4   27.20    8.30
  -9   3  -4   28.90   11.40
  -9   6   4   70.29   12.30
  -3  -6   4   49.00    8.90
  -6   9   4   51.49    9.40
   9  -6  -4   59.49   14.80
  -6   9   4   44.30    9.30
  -3   9  -4   40.40   11.50
  -3   9  -4   43.00   12.30
   9  -3   4   42.80    9.40
  -6   9   4   34.10    8.30
  -3  -6   4   37.60   10.00
  -6  -3  -4   36.10   10.80
   9  -6  -4   26.60   17.40
  -9   5   4  574.74   34.10
   4  -9   4  537.75   34.20
   4   5  -4  536.35   42.40
   4  -9   4  513.55   33.30
   5  -9  -4  557.24   36.40
  -9   5   4  513.35   35.70
  -9   4  -4  531.25   35.50
   5   4   4  539.65   34.00
   5  -9  -4  512.65   33.80
   4  -9   4  548.75   40.60
   4   5  -4  565.44   36.90
   4   5  -4  495.25   38.60
  -5  -4  -4  546.15   35.40
  -4   9  -4  613.44   39.50
  -5   9   4  553.74   34.00
   9  -5  -4  545.35   40.00
  -4   9  -4  552.44   35.90
  -5   9   4  561.84   36.30
  -5   9   4  545.75   34.00
  -4  -5   4  561.94   34.70
   9  -4   4  561.34   34.20
  -4  -5   4  519.45   33.70
   9  -5  -4  597.34   36.60
   4  -9  -4  433.06   30.30
   5  -9   4  454.45   35.90
   5   4  -4  441.86   31.00
   4  -9  -4  431.56   28.20
   5  -9   4  407.56   27.40
  -9   4   4  440.86   27.80
  -9   4   4  401.26   29.70
   5   4  -4  366.76   35.90
   5   4  -4  377.56   33.50
   4   5   4  437.56   27.90
   5  -9   4  428.96   28.40
   9  -4  -4  451.55   30.40
  -4   9   4  445.56   30.20
  -5   9  -4  446.36   29.50
  -5  -4   4  452.45   28.70
  -4  -5  -4  436.16   29.40
  -5  -4   4  414.36   27.80
   9  -5   4  442.06   28.10
  -4   9   4  444.96   28.00
   9  -4  -4  462.05   34.70
  -4   9   4  421.66   27.80
  -5   9  -4  422.36   32.60
   3   6   4  380.06   26.80
   6  -9   4  410.06   27.00
  -9   3   4  379.96   28.40
   6  -9   4  404.66   26.40
   3   6   4  389.06   26.80
  -9   3   4  435.66   26.40
   6   3  -4  371.06   35.10
   6   3  -4  449.16   32.60
   3   6   4  369.36   25.60
   6   3  -4  398.66   29.40
   3  -9  -4  412.26   27.20
   6  -9   4  448.86   34.90
   3  -9  -4  427.16   29.80
  -6   9  -4  405.36   27.70
  -6  -3   4  426.46   26.60
  -6   9  -4  401.56   31.40
  -3   9   4  393.36   26.70
   9  -6   4  419.36   26.90
  -3   9   4  399.86   26.90
   9  -3  -4  442.76   33.50
  -3   9   4  428.06   29.50
  -3  -6  -4  393.26   28.10
  -3  -6  -4  350.36   30.00
   9  -6   4  373.66   26.20
   9  -3  -4  408.26   29.20
  -6  -3   4  431.06   27.40
   7   2  -4  366.26   30.40
  -9   7  -4  330.57   24.10
   2   7   4  315.47   24.60
   7   2  -4  332.37   32.80
   2   7   4  330.97   23.70
   2  -9  -4  317.27   27.50
   7  -9   4  344.47   23.60
   7  -9   4  327.27   24.40
   2  -9  -4  325.07   24.50
   7   2  -4  343.07   27.10
   7  -9   4  376.46   32.10
  -9   2   4  372.86   23.70
   2   7   4  313.27   22.70
   9  -7   4  362.06   24.00
  -2  -7  -4  364.26   25.00
  -2   9   4  362.46   26.00
  -7   9  -4  317.07   27.90
  -7  -2   4  365.06   23.60
   9  -2  -4  330.97   26.50
   9  -7   4  370.36   23.80
  -2  -7  -4  315.87   27.70
  -2   9   4  359.56   23.80
   9  -2  -4  386.46   30.00
  -2   9   4  347.37   23.60
  -7  -2   4  376.56   24.40
  -7   9  -4  345.87   24.80
   1   8   4  580.04   36.50
   1  -9  -4  581.04   37.30
   1   8   4  592.34   38.20
  -9   8  -4  532.25   36.30
  -9   1   4  645.94   36.60
   8   1  -4  601.24   45.50
   1   8   4  574.04   36.30
   8   1  -4  642.74   40.10
   8  -9   4  609.64   43.20
  -9   1   4  625.74   36.00
   8  -9   4  576.34   37.00
  -9   8  -4  543.35   38.20
   8   1  -4  652.73   41.60
   8  -9   4  584.24   36.60
   1  -9  -4  571.74   40.30
  -1   9   4  612.74   36.70
  -8  -1   4  582.94   36.60
  -1   9   4  565.74   36.50
  -1  -8  -4  571.14   41.00
  -8  -1   4  638.24   37.00
   9  -1  -4  581.24   39.10
   9  -1  -4  603.14   44.00
   9  -8   4  614.24   36.80
  -8   9  -4  549.35   36.80
   9  -8   4  635.54   41.60
   9  -8   4  594.04   36.90
   9  -1  -4  669.13   41.90
  -1   9   4  598.54   38.90
  -8   9  -4  527.05   38.90
  -1  -8  -4  595.44   37.40
   0  -9  -4  311.47   29.00
   9  -9   4  340.17   24.80
   0   9   4  355.56   27.00
  -9   0   4  385.96   24.50
   9   0  -4  421.36   31.30
  -9   0   4  371.86   24.40
  -9   9  -4  331.87   27.60
  -9   9  -4  333.17   24.50
   0  -9  -4  342.07   25.40
   9  -9   4  357.86   24.60
   9   0  -4  350.86   27.10
   0   9   4  341.27   24.10
   0   9   4  350.06   24.40
   9  -9   4  397.96   32.30
   9   0  -4  375.66   34.00
  10   0   4   54.99   11.10
 -10   0  -4   59.49   13.00
 -10  10   4   84.99   15.90
 -10  10   4   79.69   14.20
  10 -10  -4   63.29   19.70
   0 -10   4   63.29   11.90
   0 -10   4   44.40   13.20
   0  10  -4   47.10   13.50
 -10   9   4  258.57   24.10
   9 -10  -4  316.67   25.10
   1 -10   4  284.77   29.30
   1 -10   4  310.67   23.30
   9 -10  -4  283.57   31.60
 -10   9   4  308.47   22.30
   9   1   4  326.57   22.70
   1   9  -4  322.47   30.50
 -10   1  -4  292.27   25.40
  -1  10  -4  272.47   30.50
  10  -1   4  306.27   22.70
  -1  10  -4  287.37   25.50
  -9  10   4  308.17   22.10
  -1  -9   4  298.67   23.30
  -9  10   4  305.07   24.50
  -9  -1  -4  300.27   25.60
  10  -9  -4  313.67   24.30
  10  -9  -4  311.27   30.90
   2   8  -4  184.28   26.70
 -10   8   4  187.58   19.10
   2 -10   4  205.58   26.10
   8 -10  -4  203.68   20.10
 -10   8   4  184.68   17.00
 -10   2  -4  178.48   20.90
   8   2   4  201.08   18.00
   2 -10   4  186.08   17.90
  -2  10  -4  179.78   21.40
  -8  10   4  193.98   17.60
  -2  -8   4  184.58   18.70
  -2  -8   4  223.58   16.10
  10  -8  -4  193.88   19.50
  -8  -2  -4  188.08   20.60
  10  -2   4  210.08   17.90
  -2  10  -4  188.78   24.90
  -8  10   4  160.68   19.70
  10  -8  -4  197.38   26.80
 -10   3  -4  284.87   24.50
   7 -10  -4  301.47   24.40
 -10   7   4  335.67   21.70
   3 -10   4  305.47   30.10
   3 -10   4  305.57   22.00
   7   3   4  297.07   22.00
   3   7  -4  285.37   24.00
 -10   7   4  270.57   23.40
   3   7  -4  302.97   29.50
  -3  10  -4  287.37   28.90
  10  -7  -4  252.27   29.30
  -3  -7   4  292.07   21.00
  -3  -7   4  272.57   22.60
  10  -7  -4  285.47   23.90
  10  -3   4  305.67   22.20
  -7  -3  -4  294.07   23.80
  -7  10   4  299.97   20.80
  -3  10  -4  277.17   25.00
  -7  10   4  279.07   24.00
  -7  10   4  295.87   21.70
 -10   6   4  201.38   17.40
   6   4   4  185.58   17.50
 -10   4  -4  197.98   21.00
   4   6  -4  138.19   24.00
   4   6  -4  182.88   26.40
 -10   6   4  194.78   19.00
   4   6  -4  195.68   20.50
   4 -10   4  193.68   17.50
   4 -10   4  181.98   15.70
   4 -10   4  212.98   27.80
   6 -10  -4  225.98   20.10
  10  -4   4  198.48   17.90
  -4  -6   4  205.28   16.80
  -6  10   4  192.28   20.10
  -4  10  -4  208.98   20.20
  -6  -4  -4  183.38   19.60
  -4  10  -4  198.48   24.50
  -4  -6   4  186.38   18.50
  10  -6  -4  225.28   20.10
  -6  10   4  205.48   17.70
  10  -6  -4  179.08   25.80
  -6  10   4  202.88   17.30
   5 -10   4  207.48   18.40
   5 -10  -4  207.08   18.30
   5 -10   4  226.98   28.00
 -10   5   4  201.18   19.70
   5   5  -4  219.18   28.70
   5   5  -4  153.08   24.30
   5   5   4  209.78   17.90
 -10   5   4  229.68   17.80
   5 -10   4  223.38   17.20
   5   5  -4  189.08   21.30
   5 -10  -4  243.78   21.50
  -5  10   4  228.48   18.30
  -5  10  -4  237.88   20.90
  10  -5   4  234.68   18.80
  10  -5  -4  211.48   20.80
  -5  -5  -4  230.78   20.40
  -5  -5   4  188.68   17.40
  -5  -5   4  214.88   19.20
  -5  10  -4  199.88   23.90
  -5  10   4  238.88   21.20
  -5  10   4  193.18   17.90
  10  -5  -4  256.27   26.60
   6 -10   4  227.98   17.90
   6   4  -4  249.38   25.00
   6   4  -4  171.58   29.00
   4 -10  -4  236.28   19.10
 -10   4   4  212.38   20.20
   4 -10  -4  254.67   22.30
   4   6   4  223.48   18.10
   6 -10   4  241.08   19.30
   4   6   4  226.08   18.90
   6   4  -4  202.98   21.60
 -10   4   4  248.68   18.60
   6 -10   4  264.07   28.50
  -6  10  -4  251.27   20.30
  -4  10   4  251.97   21.70
  -6  10  -4  213.18   25.00
  -4  10   4  228.18   18.50
  -6  -4   4  231.28   19.70
  10  -6   4  251.77   19.60
  10  -4  -4  237.58   21.70
  10  -4  -4  258.57   26.50
  -6  -4   4  226.98   18.60
  -4  10   4  249.58   19.20
  -4  -6  -4  236.88   20.70
  -4  -6  -4  198.28   22.30
   7   3  -4  483.55   34.70
   3   7   4  457.65   29.20
   3 -10  -4  410.26   33.10
   7   3  -4  434.56   32.00
   7 -10   4  450.85   29.10
   3   7   4  399.96   28.30
   7   3  -4  432.96   38.30
 -10   3   4  472.65   29.30
   3   7   4  450.35   30.00
   7 -10   4  443.66   29.60
   3 -10  -4  472.85   29.60
   7 -10   4  486.75   37.30
 -10   3   4  438.16   31.20
  -7  10  -4  462.45   30.60
  -3  10   4  465.55   32.10
  -3  10   4  465.85   29.40
  -3  -7  -4  458.55   30.40
  -3  -7  -4  406.86   33.10
  10  -3  -4  456.85   34.90
  10  -3  -4  456.95   31.60
  -7  -3   4  476.45   29.10
  -7  -3   4  463.05   30.00
  10  -7   4  447.26   28.90
  -7  10  -4  386.56   33.00
  10  -7   4  482.25   29.90
  -3  10   4  439.66   29.20
 -10   2   4  236.48   17.60
   8 -10   4  183.58   18.30
   2   8   4  207.18   17.50
   2   8   4  191.98   16.40
   8 -10   4  190.08   17.50
   8   2  -4  204.18   28.10
   2 -10  -4  192.48   23.20
   2   8   4  198.88   19.40
   8   2  -4  206.48   21.10
   8   2  -4  229.28   25.80
 -10   8  -4  232.08   18.20
   8 -10   4  243.38   28.30
   2 -10  -4  206.78   18.40
  -2  10   4  215.88   21.50
  10  -8   4  223.98   17.80
  10  -8   4  249.68   23.70
  10  -2  -4  180.08   20.40
  -8  10  -4  199.18   18.40
  -2  -8  -4  208.28   19.10
  -8  -2   4  207.48   18.70
  -2  10   4  197.78   17.80
  -2  -8  -4  162.78   24.70
  -8  -2   4  223.98   17.60
  -8  10  -4  157.58   21.40
  10  -8   4  210.88   18.20
  -2  10   4  193.08   17.40
   1   9   4   20.80    8.70
   9 -10   4   39.00    9.80
 -10   9  -4   60.79   11.50
   1   9   4   40.90   10.60
 -10   1   4   36.50   12.20
 -10   1   4   32.80    9.50
   1 -10  -4   33.60    9.80
   9   1  -4   15.30   13.40
   9   1  -4   19.40    8.20
   9 -10   4   41.50   10.20
   1   9   4   43.50    9.00
   9   1  -4   13.30   18.10
   1 -10  -4   11.70   10.10
   9 -10   4   32.70   13.70
  10  -1  -4   23.70   12.40
  -9  -1   4   44.80   10.10
  -9  10  -4   27.30    9.60
  10  -9   4   33.80   12.00
  -1  10   4   23.60    8.50
  -1  10   4   40.10    9.40
  -9  -1   4   49.00    9.70
  10  -9   4   44.80    9.40
  10  -1  -4   24.40    8.50
  -1  -9  -4   17.50   13.60
  -1  -9  -4   22.30   10.10
  -1  10   4   35.10    9.70
  10  -9   4   28.10   10.00
  10  -1  -4   36.00   17.60
  -9  10  -4   34.20    9.50
  10   0  -4   24.20   18.30
  10   0  -4   16.90   12.80
 -10  10  -4   18.00    8.40
   0  10   4    1.30    9.40
 -10   0   4   18.50    9.40
   0  10   4   13.00    9.00
  10 -10   4   10.70    8.70
  10 -10   4    5.40   14.20
 -10  10  -4    7.80    9.10
   0  10   4    6.00    8.30
   0 -10  -4    5.00   10.50
  10   0  -4   12.30    7.90
 -10   0   4    8.20    9.30
  10 -10   4   13.10    9.70
   0 -11   4   87.19   23.80
 -11  11   4   41.10   10.20
 -11   0  -4   42.90   13.80
   0  11  -4   17.10   13.00
  11   0   4   47.10   11.00
   0 -11   4   45.70   10.90
   0  11  -4   43.00   15.90
  11 -11  -4   38.20   21.40
  10 -11  -4  247.68   31.40
   1  10  -4  255.07   30.50
 -11   1  -4  263.07   24.60
   1 -11   4  273.37   22.40
   1 -11   4  272.47   29.70
  10 -11  -4  259.07   23.40
  10   1   4  304.37   21.90
 -11  10   4  292.37   21.30
 -11  10   4  242.18   23.10
  -1  11  -4  245.08   29.50
  11 -10  -4  239.88   23.80
  11  -1   4  302.37   21.80
  11 -10  -4  268.57   30.10
 -10  -1  -4  311.27   24.20
 -10  11   4  243.48   23.70
 -10  11   4  281.27   21.40
  -1 -10   4  306.67   22.60
  -1  11  -4  269.97   25.20
   9 -11  -4  235.18   29.90
   2   9  -4  209.78   27.20
   2 -11   4  182.08   28.00
 -11   2  -4  229.98   22.00
   9   2   4  225.18   19.40
 -11   9   4  235.48   18.40
   9 -11  -4  213.98   21.50
   2 -11   4  242.68   19.90
  11  -2   4  212.78   19.50
  -2  -9   4  222.28   17.50
  -2  -9   4  201.08   20.20
  -9  11   4  234.08   19.60
  -2  11  -4  212.08   23.10
  -9  -2  -4  217.78   21.50
  11  -9  -4  225.78   27.70
  -2  11  -4  224.38   27.00
  -9  11   4  181.18   21.40
   3 -11   4  360.26   34.60
 -11   3  -4  371.46   28.40
   3   8  -4  386.26   28.30
   3   8  -4  324.97   33.60
 -11   8   4  352.56   27.30
   8 -11  -4  376.76   28.50
   3 -11   4  401.36   26.00
   8   3   4  363.16   26.00
 -11   8   4  384.96   25.60
  -8  11   4  355.56   28.00
  -3  11  -4  371.66   32.60
  11  -8  -4  334.37   27.60
  -8  11   4  371.76   25.90
  11  -3   4  388.66   26.50
  -3  11  -4  385.46   28.50
  -3  -8   4  369.66   24.40
  11  -8  -4  357.26   32.40
  -3  -8   4  384.56   26.70
  -8  -3  -4  363.76   27.70
   7 -11  -4   18.40    7.90
   4   7  -4    3.60   11.50
 -11   7   4    7.60    7.40
   7 -11  -4   31.30    9.10
   7   4   4   28.60   10.60
 -11   7   4   27.90    9.30
   4 -11   4   23.50    9.20
 -11   4  -4   26.20   11.40
   4 -11   4    0.20   12.50
  11  -7  -4    9.50    8.20
  -7  -4  -4   22.60   11.60
  -4  -7   4   12.30    8.80
  -4  11  -4   19.50   12.10
  -7  11   4   17.80    9.70
  11  -7  -4   31.50   17.40
  -4  -7   4    5.00   10.20
  -7  11   4   29.50    9.20
  11  -4   4   24.10   10.30
   5   6  -4  477.55   32.30
 -11   6   4  482.85   29.90
   6 -11  -4  412.66   29.60
 -11   6   4  407.56   31.40
   6 -11  -4  447.16   32.80
   6   5   4  457.75   29.90
   5   6  -4  444.46   37.40
 -11   5  -4  452.95   32.20
   5 -11   4  434.86   37.80
   5 -11   4  448.76   29.80
  -6  11   4  462.55   30.20
  -6  -5  -4  459.95   31.70
  11  -5   4  483.95   30.50
  -5  11  -4  439.26   35.10
  11  -6  -4  461.65   35.80
  11  -6  -4  463.85   32.10
  -6  11   4  457.85   29.70
  -6  11   4  441.86   32.00
  -5  -6   4  465.35   29.30
  -5  11  -4  486.05   31.70
  -5  -6   4  447.46   30.80
 -11   5   4  266.77   19.70
   6   5  -4  219.08   26.70
   6 -11   4  230.98   18.60
   6 -11   4  252.37   20.30
   6   5  -4  225.48   22.40
   5 -11  -4  237.98   20.30
   6 -11   4  246.08   29.70
   5   6   4  230.08   19.50
 -11   5   4  225.58   21.50
   6   5  -4  227.18   30.30
   5 -11  -4  255.47   23.10
  -6  -5   4  237.78   21.20
  11  -5  -4  246.08   22.50
  -5  11   4  253.47   19.60
  -5  11   4  260.47   20.30
  -6  11  -4  240.68   25.60
  -5  -6  -4  230.38   21.70
  11  -6   4  264.07   20.60
  -6  11  -4  254.37   21.80
  -6  -5   4  264.77   19.20
  -5  11   4  262.37   22.70
  11  -5  -4  283.87   27.80
   7   4  -4  228.38   22.70
   4 -11  -4  249.68   20.70
   7   4  -4  226.98   27.70
   7   4  -4  270.67   30.80
 -11   4   4  222.48   21.00
   7 -11   4  252.57   19.40
 -11   4   4  281.57   19.90
   4 -11  -4  199.88   24.50
   7 -11   4  288.07   31.40
   7 -11   4  274.47   20.60
   4   7   4  267.27   20.40
   4   7   4  242.78   20.10
  -7  11  -4  230.18   24.80
  11  -7   4  278.47   21.00
  -7  -4   4  257.67   19.90
  11  -4  -4  299.57   28.10
  -7  11  -4  263.77   22.00
  -4  11   4  272.67   19.70
  -4  -7  -4  269.47   21.90
  -7  -4   4  263.57   21.50
  -4  11   4  256.87   23.80
  -4  11   4  264.37   20.20
  11  -4  -4  228.98   22.70
   3 -11  -4    2.50   10.00
   8   3  -4   19.80   17.30
   8   3  -4    2.90    7.60
   8 -11   4   18.00   13.50
   3   8   4   15.40    7.80
   3   8   4    7.90    7.50
   8 -11   4   11.50    8.60
   8 -11   4   21.60    9.40
   3   8   4    8.60    9.60
   3 -11  -4   -9.80    9.70
   8   3  -4  -20.70   13.10
 -11   3   4   -4.10    7.80
  -3  11   4    2.00    9.10
  -8  11  -4   -9.30    9.20
  11  -8   4    1.40   10.50
  -3  -8  -4    6.00   10.10
  -8  -3   4    5.90   10.30
  -3  11   4   13.00    9.60
  -8  11  -4    8.90   10.20
  -3  -8  -4   -4.70   10.80
  11  -3  -4   30.80   17.60
  11  -8   4   10.10    8.10
  -8  -3   4   13.40    8.90
  11  -3  -4    9.60    7.60
  -3  11   4    4.10    8.40
   9 -11   4   -0.10    9.50
   2   9   4    8.20    9.90
 -11   9  -4   16.60    7.10
 -11   2   4    7.80    8.10
   2   9   4   15.80    8.40
   2   9   4   15.90   11.80
   9   2  -4    0.80    8.20
   9 -11   4  -14.00   13.30
   9   2  -4   15.10   17.50
   9   2  -4   21.00   12.80
   2 -11  -4   -3.40    9.70
   9 -11   4   -4.30    9.40
  -9  11  -4    9.00    9.20
  -9  11  -4    5.80    9.70
  -2  11   4    0.20    9.60
  -2  -9  -4    5.70   10.10
  -2  -9  -4  -19.70   12.80
  11  -9   4   27.90   11.60
  11  -2  -4   -7.70    7.70
  -9  -2   4    0.10   10.10
  -2  11   4   10.70    8.30
  -2  11   4   10.30    9.30
  11  -9   4    0.90   10.20
  -9  -2   4    4.00    9.70
  11  -9   4   21.60    8.70
  11  -2  -4    8.80   18.80
  10   1  -4   28.50    9.10
   1  10   4   41.20    9.70
   1  10   4   64.09   10.20
   1 -11  -4   52.69   11.00
  10   1  -4  114.09   32.90
   1  10   4   49.50   10.70
  10 -11   4   63.09   10.80
  10   1  -4   50.99   18.90
 -11   1   4   55.59    9.80
  10 -11   4   41.00    9.70
  10 -11   4   41.70   15.50
 -10  -1   4   76.99   14.90
  -1  11   4   40.40    9.80
  -1  11   4   67.79   12.70
  11  -1  -4   60.79   19.20
  11  -1  -4   58.69   19.30
  -1  11   4   69.19   10.60
  11 -10   4   34.70   14.40
  -1 -10  -4   21.00   13.10
  11 -10   4   85.79   13.30
 -10  11  -4   50.99   10.40
  11 -10   4   62.59   11.50
  11  -1  -4   60.09   16.80
 -10  11  -4   39.40    9.90
  -1 -10  -4   50.69   11.30
 -10  -1   4   66.29   13.20
   0  11   4   89.99   18.80
  11 -11   4   83.99   14.80
 -11   0   4   91.09   13.80
  11   0  -4   94.99   20.10
   0  11   4   76.09   16.00
   0 -11  -4   81.69   15.50
  11 -11   4   62.39   15.60
   0  11   4   81.59   13.90
  11 -11   4   91.59   15.80
   0  12  -4  327.17   37.50
 -12   0  -4  410.06   29.40
  12 -12  -4  350.06   34.20
 -12  12   4  415.86   27.30
   1 -12   4  107.79   17.30
  11 -12  -4   95.39   23.90
   1  11  -4  103.19   20.80
  -1 -11   4  147.99   17.90
  -1  12  -4  133.29   21.00
 -11  12   4  114.69   16.00
   2 -12   4  385.86   37.30
 -12   2  -4  421.16   32.00
  10 -12  -4  418.96   38.60
   2 -12   4  449.76   30.40
 -12  10   4  454.35   29.30
  10 -12  -4  469.25   37.10
  10   2   4  453.75   30.00
  12  -2   4  444.36   30.20
  -2  12  -4  391.26   36.10
 -10  -2  -4  430.56   31.20
  -2  12  -4  442.96   32.60
 -10  12   4  459.75   29.90
  -2 -10   4  461.45   30.60
  12 -10  -4  402.56   36.20
   9 -12  -4  276.57   25.00
   3   9  -4  337.17   32.70
 -12   3  -4  290.27   25.80
   3   9  -4  326.67   45.10
   9 -12  -4  286.67   33.30
   3 -12   4  307.47   23.30
 -12   9   4  274.37   22.40
   9   3   4  276.87   23.10
   3 -12   4  274.57   32.10
  -9  12   4  310.27   23.00
  -3  -9   4  299.47   21.40
  12  -3   4  332.87   23.70
  -3  12  -4  303.97   26.00
  -3  12  -4  229.18   29.60
  12  -9  -4  302.67   30.10
  -9  -3  -4  316.67   25.30
  -9  12   4  279.47   25.50
  -3  -9   4  333.77   24.30
 -12   4  -4  250.37   23.60
   8 -12  -4  228.48   23.30
   4   8  -4  221.28   28.50
 -12   8   4  218.48   22.40
   8   4   4  233.48   20.30
   4 -12   4  219.08   30.00
   4   8  -4  212.98   21.70
   4 -12   4  245.78   20.40
  -8  12   4  191.18   22.60
  -4  -8   4  251.77   21.80
  12  -4   4  268.37   21.00
  12  -8  -4  293.57   28.30
  -8  12   4  250.47   20.60
  -4  -8   4  269.37   18.70
  -4  12  -4  210.98   26.40
  -4  12  -4  272.27   23.40
  -8  -4  -4  256.27   22.30
   7   5   4  638.14   39.50
   5   7  -4  611.84   41.70
   7 -12  -4  604.94   42.30
   7 -12  -4  581.34   39.20
   5 -12   4  674.83   39.50
 -12   5  -4  638.74   41.60
 -12   7   4  588.64   40.70
   5 -12   4  616.94   46.80
 -12   7   4  612.94   39.20
  12  -5   4  715.33   40.20
  -5  12  -4  646.84   40.70
  -5  12  -4  583.64   44.70
  -7  12   4  669.03   39.90
  -5  -7   4  643.74   38.80
  12  -7  -4  695.33   44.60
  -5  -7   4  670.13   40.50
  -7  12   4  628.04   41.60
  -7  -5  -4  633.94   40.70
  12  -7  -4  596.54   41.30
  -7  12   4  617.34   38.70
   6   6  -4  -19.40   16.90
 -12   6   4   40.60    9.20
   6   6   4   21.30   10.10
 -12   6   4   26.70    7.70
   6 -12  -4   18.20   10.20
   6 -12   4   21.50   14.20
 -12   6  -4   32.00   12.90
   6   6  -4    9.00   12.00
   6 -12  -4   30.00    9.20
   6 -12   4   22.60    9.10
  -6  12  -4   22.30   11.60
  12  -6  -4   54.09   15.70
  -6  12   4   33.50    9.90
  -6  -6  -4   24.60   11.40
  -6  12   4   23.60    8.50
  -6  12  -4   31.40   13.20
  -6  -6   4   32.20   11.30
  -6  -6   4   49.10   10.00
  -6  12   4   26.50   10.70
  12  -6  -4   71.49   19.10
  12  -6   4   49.99   11.30
   7 -12   4   21.70   14.10
   7   5  -4   -5.80   17.10
 -12   5   4   17.40    8.60
 -12   5   4    0.20    7.70
   7   5  -4   17.80    8.60
   7 -12   4   13.60    9.10
   5 -12  -4   -5.20    9.80
   5 -12  -4   13.70   10.30
   7 -12   4   12.70    9.00
   5   7   4    8.00    9.90
   7   5  -4   15.30   13.70
  -5  12   4   12.40   10.10
  -7  12  -4    2.50   11.20
  -5  -7  -4    8.80   10.90
  -7  12  -4    1.00   10.10
  12  -7   4   21.60   10.90
  12  -5  -4   13.00   17.70
  -5  -7  -4    0.80   10.80
  -5  12   4    3.00    9.50
  -7  -5   4   15.50    8.40
  -5  12   4    5.90    8.70
  -7  -5   4   18.10   10.60
  12  -5  -4    0.50    7.80
   8 -12   4   33.90   15.30
   8   4  -4   46.10   16.90
   8   4  -4   34.80   17.20
   8 -12   4   46.00   10.70
   8 -12   4   54.79   10.80
   4   8   4   51.39   10.30
   4   8   4   45.80   10.70
 -12   4   4   46.20    9.80
   8   4  -4   35.90   12.00
   4 -12  -4   35.40   11.40
   4   8   4   58.59   14.80
   4 -12  -4   32.20   11.30
 -12   4   4   37.00   11.30
  12  -4  -4   77.69   19.90
  -4  12   4   58.19   10.70
  -4  12   4   62.89   12.60
  -4  -8  -4   46.60   11.10
  12  -8   4   57.39   12.00
  -8  -4   4   47.30   11.80
  -8  -4   4   50.79   10.10
  -8  12  -4   26.40   10.90
  -4  -8  -4   27.70   12.70
  12  -4  -4   23.90    9.70
  -4  12   4   31.60    9.40
  -8  12  -4   41.80   11.50
   3 -12  -4   29.30   11.00
   9 -12   4    9.70   13.90
   3   9   4   41.80    9.10
 -12   3   4   34.80   10.40
   9 -12   4   37.80   10.30
   9   3  -4   30.90   17.30
   9 -12   4   27.20    9.50
   3   9   4   28.60   10.40
   3   9   4   32.50    8.60
  -9  -3   4   35.30   10.00
  -3  12   4   43.50   10.70
  -9  12  -4   31.40   11.00
  -3  12   4   28.90    9.50
  -3  -9  -4   16.00   12.80
  -9  -3   4   39.10   11.40
  12  -9   4   41.70   11.60
  12  -3  -4   31.80   19.10
  -9  12  -4   26.40   10.50
  -3  12   4   36.70   10.80
  -3  -9  -4   41.00   11.90
  12  -9   4   41.10    8.90
 -12  10  -4  132.19   14.00
 -12   2   4  110.79   14.60
   2  10   4  100.89   18.50
  10 -12   4   90.09   15.30
  10   2  -4   71.09   26.40
   2 -12  -4   92.39   14.70
 -12  10  -4  137.29   17.20
   2  10   4  105.29   14.30
  10 -12   4   71.59   16.80
  10 -12   4   86.89   15.20
   2  10   4  135.99   16.10
 -10  -2   4  112.99   17.60
  12 -10   4   95.49   17.00
 -10  -2   4  116.49   15.00
  -2  12   4   93.79   14.60
  -2  12   4   96.89   19.50
  12  -2  -4  121.79   20.90
 -10  12  -4  109.19   16.00
  -2  12   4  102.09   16.70
  -2 -10  -4   87.69   16.70
  12 -10   4  117.99   26.60
  12 -10   4  112.19   14.70
  11   1  -4   -2.20   17.20
   1  11   4   14.20    9.50
   1  11   4   13.20   10.50
 -12  11  -4   39.50    9.40
   1  11   4   14.00   10.90
   1 -12  -4   -3.20   11.30
  11 -12   4   30.60   14.60
   1 -12  -4    1.20   12.00
  11 -12   4   13.30   10.90
  12 -11   4    0.10   30.60
  -1 -11  -4   -6.30   13.80
 -11  12  -4   30.10    9.30
  -1  12   4   13.70   10.30
  -1  12   4    5.80    9.40
  12 -11   4   34.10   14.80
  -1  12   4   13.70   10.80
  12  -1  -4   31.10   18.40
  12 -11   4   13.60   11.60
  -1 -11  -4   21.10   10.90
  12 -12   4  165.58   17.90
   0  12   4  158.98   17.20
   0  12   4  172.78   20.10
   0 -12  -4  174.28   19.70
  12 -12   4  173.88   19.30
 -12   0   4  197.68   17.90
  12 -12   4  190.48   31.30
  12   0  -4  193.68   26.70
 -12  12  -4  202.48   21.00
   0  12   4  159.58   22.60
 -12  12  -4  207.38   18.20
 -13   0  -4   24.80   13.30
   0  13  -4   14.00   13.40
  13   0   4   39.50   13.50
   0 -13   4   31.20   12.00
 -13  13   4   14.20   11.00
  13 -13  -4   39.90   20.30
 -13  12   4  172.18   18.00
  12   1   4  160.78   18.60
  12 -13  -4  138.99   27.70
   1  12  -4  144.09   22.40
 -13   1  -4  179.78   21.70
   1 -13   4  162.88   19.00
  -1  13  -4  150.38   21.80
  13  -1   4  148.69   19.50
 -12  -1  -4  156.38   20.80
  -1 -12   4  165.48   19.20
  13 -12  -4  173.78   27.10
 -12  13   4  181.28   18.10
 -13   2  -4  193.78   23.50
   2  11  -4  208.98   24.10
   2 -13   4  209.18   21.10
  11   2   4  225.98   20.60
  11 -13  -4  213.78   33.30
 -13  11   4  221.78   19.90
  13 -11  -4  272.97   29.00
 -11  13   4  242.78   20.70
  -2 -11   4  243.08   22.10
  13  -2   4  222.88   21.20
 -11  -2  -4  222.48   22.70
 -13   3  -4   41.40   14.60
  10 -13  -4   38.00   23.70
   3 -13   4   48.30   13.10
 -13  10   4   36.20   10.60
  13  -3   4   53.89   13.40
  -3  13  -4   94.89   19.40
 -10  -3  -4   27.20   13.20
  -3 -10   4   42.50   11.90
  13 -10  -4   71.29   19.20
 -10  13   4   39.60   11.60
   4 -13   4  366.36   38.80
   9   4   4  459.35   30.50
   9 -13  -4  436.16   39.60
  -4  13  -4  489.35   32.20
  -9  13   4  476.85   30.50
  -4  13  -4  391.56   36.20
  -4  -9   4  488.05   31.60
   5 -13   4  127.59   27.90
   8   5   4  134.19   16.60
 -13   5  -4  151.58   21.80
 -13   8   4  111.69   23.10
   5 -13   4  110.89   22.30
   8 -13  -4  121.19   19.90
  -5  -8   4  139.79   15.90
  -8  -5  -4  121.69   18.30
  -5  13  -4  151.68   20.00
  13  -5   4  134.19   18.00
  -8  13   4  150.68   17.60
  -8  13   4  142.89   18.40
  13  -8  -4  111.39   23.80
  -5  -8   4  144.39   19.20
 -13   6  -4   97.59   20.50
   6 -13   4  119.49   17.30
   7   6   4  129.19   16.10
 -13   7   4  116.69   20.30
  -7  13   4  132.89   17.00
  -6  -7   4  116.89   17.20
  -7  -6  -4  143.59   18.30
  -6  13  -4  135.39   20.20
  -6  -7   4  134.39   18.90
  -7  13   4  124.29   19.00
  13  -6   4  126.99   18.10
  13  -7  -4  152.88   26.40
 -13   7  -4  109.69   15.90
   7 -13   4  105.79   17.10
 -13   6   4   97.19   16.70
   6 -13  -4  110.59   16.60
   7 -13   4   96.39   28.50
   6   7   4  125.39   15.30
   7   6  -4   68.39   17.80
  -6  13   4  116.69   14.80
  -6  13   4  113.29   16.50
  -7  -6   4  145.09   16.10
  -6  -7  -4  111.89   17.70
  -7  -6   4  132.79   18.80
  -6  13   4  108.69   19.80
  13  -6  -4  158.28   26.20
  -7  13  -4   92.89   21.80
  13  -7   4  125.59   17.80
  -7  13  -4  125.69   18.10
   5 -13  -4  -15.80   11.00
   5   8   4   -6.00   10.50
   8 -13   4   -4.10   16.10
   5   8   4   -7.90    7.80
 -13   5   4    2.70   10.90
   8   5  -4  -32.30   16.10
   8 -13   4   26.60    9.90
   5 -13  -4    4.70   10.30
   8 -13   4  -11.60   13.50
  -8  -5   4   15.50   11.40
  13  -8   4   10.50   11.70
  -5  13   4   -9.90   10.10
  -5  -8  -4    0.80   12.40
  -5  13   4    6.80    8.30
  -8  -5   4    4.70   14.70
  13  -5  -4    0.40   18.70
  -8  13  -4    0.30   11.20
  -5  -8  -4   11.20   11.20
  -5  13   4    5.10   10.50
   4 -13  -4   38.90   11.80
   9 -13   4   47.80   15.70
   9   4  -4   24.50   17.60
   9 -13   4   73.49   13.80
   4   9   4   57.39   11.40
   4   9   4   36.00    9.60
  13  -9   4   52.39   12.60
  -4  13   4   54.19   11.10
  -9  13  -4   33.30   11.40
  13  -4  -4   62.19   19.30
  -9  -4   4   61.29   12.80
  -4  -9  -4   96.09   23.90
  -9  13  -4   53.79   12.30
  -4  -9  -4   48.80   11.60
  -4  13   4   45.20   11.20
  -4  13   4   40.10   10.10
   3 -13  -4   49.40   12.60
  10   3  -4   45.50   18.10
   3  10   4   75.79   17.80
   3  10   4  106.39   15.90
  10 -13   4   51.69   12.10
   3  10   4   64.49   12.20
 -13   3   4   87.19   14.00
  10 -13   4   54.19   16.70
  10 -13   4   57.29   11.60
  -3 -10  -4   61.99   12.90
  13  -3  -4   79.29   19.90
 -10  -3   4   79.49   14.10
 -10  13  -4   85.19   15.60
  -3  13   4   62.59   13.70
 -10  -3   4   71.49   13.40
  -3  13   4   89.59   16.90
  13 -10   4   81.39   13.90
   2 -13  -4  294.57   33.40
  11   2  -4  303.47   30.90
   2  11   4  364.26   26.80
  11 -13   4  329.07   25.90
  11 -13   4  365.46   25.50
   2 -13  -4  341.27   27.20
   2  11   4  358.56   29.30
   2  11   4  344.47   25.40
  11 -13   4  418.46   38.40
 -13   2   4  377.06   25.40
  -2  13   4  354.16   29.40
  13 -11   4  380.96   27.30
 -11  -2   4  390.46   27.80
 -11  -2   4  350.46   25.10
  -2  13   4  396.76   27.40
  -2 -11  -4  353.56   26.70
  -2  13   4  339.77   25.20
  13  -2  -4  361.56   31.70
 -11  13  -4  335.77   25.90
 -11  13  -4  346.77   28.90
  13 -11   4  365.66   25.20
  12   1  -4  407.26   35.90
 -13   1   4  481.55   30.90
 -13  12  -4  456.45   43.00
   1  12   4  433.66   30.60
  12 -13   4  483.25   44.30
   1 -13  -4  450.15   32.60
   1  12   4  435.76   35.10
   1  12   4  464.05   32.30
  12 -13   4  469.25   32.10
 -13  12  -4  502.55   33.50
  12 -13   4  455.55   31.40
  13  -1  -4  471.15   36.80
  -1  13   4  432.76   30.80
  -1 -12  -4  410.76   40.50
  -1 -12  -4  458.95   32.10
 -12  13  -4  482.25   31.80
  13 -12   4  490.65   32.70
 -12  -1   4  492.15   31.00
  -1  13   4  433.76   35.00
  -1  13   4  486.75   32.60
  13 -12   4  480.85   30.90
 -12  13  -4  509.85   33.60
 -13  13  -4   97.79   16.80
  13 -13   4   91.09   29.70
   0  13   4   93.29   15.40
  13 -13   4  129.39   16.50
 -13   0   4  127.89   15.20
   0 -13  -4   91.19   18.10
  13   0  -4   97.29   19.00
   0  13   4  109.09   19.10
  13 -13   4  107.89   18.40
   0  13   4   86.29   21.40
  14 -14  -4   12.90   20.30
 -14   0  -4    1.30   13.00
   0  14  -4  -11.70   14.40
  14   0   4    0.80   12.60
 -14  14   4    1.10   11.40
   0 -14   4    6.60   12.30
   1  13  -4   70.99   16.70
  13   1   4   58.69   13.20
   1 -14   4   56.79   13.10
  13 -14  -4   70.49   21.50
 -14  13   4   55.69   11.70
 -14   1  -4   69.09   14.90
  -1 -13   4   74.79   13.90
 -13  -1  -4   73.29   15.20
  14 -13  -4   44.70   20.50
 -13  14   4   63.89   12.00
  14  -1   4   70.69   15.00
  -1  14  -4   74.69   17.00
  12   2   4   23.40   12.40
  12 -14  -4   19.90   21.10
 -14   2  -4   15.00   14.00
 -14  12   4   28.10   10.90
   2  12  -4    2.90   14.20
   2 -14   4   23.60   12.20
  14 -12  -4   28.50   20.30
 -12  14   4   22.80   10.80
  -2  14  -4   30.90   14.30
  14  -2   4   39.10   12.40
  -2 -12   4   24.90   12.20
 -12  -2  -4   31.40   13.10
 -14   3  -4  332.47   29.60
  11 -14  -4  346.47   36.10
   3 -14   4  371.06   27.30
  11   3   4  364.36   26.80
   3  11  -4  385.46   30.30
 -14  11   4  351.56   25.90
  14 -11  -4  349.07   33.90
  -3  14  -4  381.86   28.90
 -11  -3  -4  351.26   28.50
  -3 -11   4  369.26   30.00
 -11  14   4  339.77   26.70
  14  -3   4  367.26   27.60
 -14  10   4  106.09   16.00
   4 -14   4   84.19   16.70
  10 -14  -4  104.99   29.60
 -14   4  -4  116.19   20.70
  10   4   4   85.59   17.00
 -10  -4  -4   92.59   18.70
  -4 -10   4  108.29   19.30
  14 -10  -4   97.99   23.00
 -10  14   4  123.29   17.00
  14  -4   4  107.29   18.30
   5 -14   4  341.47   26.60
   9 -14  -4  359.36   43.00
 -14   5  -4  347.77   29.90
   9   5   4  320.77   32.90
 -14   9   4  389.66   26.40
  -5  -9   4  356.76   25.20
  -5  14  -4  388.26   30.00
  14  -9  -4  410.86   34.70
  -5  -9   4  391.46   28.60
  14  -5   4  380.76   28.00
  -9  -5  -4  359.96   28.30
   8   6   4  476.25   33.90
 -14   8   4  509.85   32.70
   6 -14   4  390.06   42.70
   6 -14   4  498.85   32.60
 -14   6  -4  521.25   35.40
  -6  14  -4  399.66   37.50
  -6  14  -4  535.15   34.80
  14  -8  -4  545.65   39.50
  -8  14   4  517.65   33.20
  -8  -6  -4  504.25   33.60
  -6  -8   4  519.35   34.40
  14  -6   4  523.25   33.90
  -6  -8   4  471.45   31.60
   7 -14   4  132.59   16.70
 -14   7  -4  125.89   21.80
   7   7   4  123.19   16.70
 -14   7   4  138.79   16.20
  -7  14  -4  168.18   19.50
  14  -7  -4  201.68   26.10
  -7  14  -4  137.29   23.80
  -7  14   4  155.98   18.20
  14  -7   4  128.79   22.90
  -7  -7   4  178.08   20.50
  -7  -7   4  129.49   16.00
  -7  -7  -4  152.58   19.00
   8 -14   4   50.59   11.50
   6   8   4   60.49   12.20
 -14   6   4   48.40   10.90
   6 -14  -4   68.89   12.60
   8 -14   4   35.80   16.20
 -14   8  -4   37.60   14.10
   8   6  -4   43.30   19.40
  14  -6  -4   76.29   22.80
  -6  -8  -4   75.29   17.90
  -6  14   4   35.20    9.40
  -6  14   4   56.49   11.70
  14  -8   4   84.59   22.90
  -8  -6   4   67.69   13.60
  -8  -6   4   66.59   13.70
  -8  14  -4   60.29   13.00
  -6  14   4   61.19   11.90
   9   5  -4   36.10   17.00
   9 -14   4   26.10   15.90
   9 -14   4   57.39   11.50
   5 -14  -4   67.09   13.20
 -14   5   4   79.09   14.20
   5   9   4   49.80   12.00
  -5  14   4   42.90   12.40
  -5  14   4   32.20    9.90
  -5  14   4   37.60   11.40
  -9  -5   4   35.10    9.50
  14  -9   4   42.80   13.00
  -9  14  -4   30.30   12.20
  -9  -5   4   47.80   13.50
  -9  14  -4   15.20   10.80
  10 -14   4  383.26   28.40
   4 -14  -4  396.36   30.10
  10 -14   4  394.66   40.10
  10 -14   4  424.06   28.10
   4  10   4  387.96   27.80
  10   4  -4  355.16   33.20
 -14   4   4  445.76   28.10
  14 -10   4  423.96   29.90
  -4  14   4  374.76   32.20
 -10  14  -4  395.16   28.80
  -4  14   4  385.06   28.60
 -10  -4   4  413.96   27.60
  -4  14   4  435.36   29.60
 -10  -4   4  440.96   30.70
   3  11   4  181.38   20.30
  11 -14   4  210.68   34.90
  11 -14   4  168.18   19.40
   3  11   4  172.18   17.70
   3 -14  -4  131.29   28.40
  11 -14   4  175.58   18.80
   3 -14  -4  151.38   20.70
 -14   3   4  213.98   18.10
  11   3  -4  186.08   25.80
 -11  -3   4  216.48   22.20
 -11  14  -4  203.98   19.40
 -11  -3   4  208.98   18.70
  14  -3  -4  252.87   41.80
 -11  14  -4  191.48   22.50
  -3  14   4  168.18   23.60
  14 -11   4  221.88   21.70
  14 -11   4  204.78   17.30
  -3  14   4  170.68   17.80
  -3  14   4  225.48   21.10
  12   2  -4   22.60   18.00
  12 -14   4   52.79   12.90
  12 -14   4   43.70   11.50
   2  12   4   42.50   12.50
   2 -14  -4   43.70   13.20
 -14   2   4   37.00   10.50
   2  12   4   50.19   13.20
  12 -14   4   65.89   18.30
   2  12   4   36.30   14.20
  -2  14   4   30.30   11.00
  14 -12   4   34.50   13.70
  14 -12   4   46.90   11.00
 -12  -2   4   48.90   11.30
 -12  -2   4   57.19   14.20
 -12  14  -4   80.89   16.20
 -12  14  -4   75.29   17.90
  -2  14   4   20.60   12.40
  -2  14   4   36.60   13.80
   1  13   4  375.36   28.50
  13   1  -4  312.07   30.70
  13 -14   4  353.16   27.30
  13 -14   4  336.27   25.70
 -14   1   4  346.77   25.00
   1  13   4  298.27   24.90
   1 -14  -4  342.77   27.20
   1  13   4  304.77   30.60
 -13  14  -4  415.86   26.60
  -1 -13  -4  308.17   31.50
  -1  14   4  338.77   30.30
  -1  14   4  315.67   25.20
  14 -13   4  383.36   28.30
  14  -1  -4  314.27   41.40
  -1  14   4  369.46   28.10
  14 -13   4  363.16   25.60
 -13  -1   4  364.56   25.70
   0  14   4  832.42   49.40
   0 -14  -4  676.53   56.99
 -14   0   4  814.92   47.40
  14 -14   4  836.12   49.20
  14   0  -4  686.13   54.49
  14 -14   4  821.62   47.40
   0  14   4  737.03   51.39
   0 -14  -4  697.63   49.10
  15   0   4    1.50   13.60
  15 -15  -4   15.30   22.50
   0  15  -4    8.30   14.90
   0 -15   4   -1.70   13.40
 -15   0  -4    1.40   14.60
 -15  15   4   -8.90   11.30
   1 -15   4   55.89   13.00
  14   1   4   45.30   14.30
 -15  14   4   48.40   11.90
 -15   1  -4   36.70   14.10
   1  14  -4   46.90   15.40
  14 -15  -4   62.59   22.30
  15 -14  -4   74.89   22.10
 -14  -1  -4   31.90   14.60
  15  -1   4   40.30   13.90
  -1 -14   4   49.70   13.40
 -14  15   4   50.39   12.30
  -1  15  -4   47.50   14.70
  13 -15  -4  197.98   29.30
 -15  13   4  171.18   19.00
 -15   2  -4  161.28   22.10
  13   2   4  176.68   20.40
   2  13  -4  196.78   24.50
   2 -15   4  153.08   19.90
 -13  15   4  175.88   19.40
  -2  15  -4  184.58   22.00
  15  -2   4  172.08   21.00
  15 -13  -4  169.18   29.10
  -2 -13   4  189.88   21.30
 -13  -2  -4  146.19   22.20
 -15   3  -4   75.29   15.80
  12 -15  -4   52.19   22.80
 -15  12   4  100.19   15.90
   3 -15   4   72.59   13.30
   3  12  -4   86.99   17.90
  12   3   4   92.29   17.70
 -12  -3  -4   84.29   15.00
  15 -12  -4  137.69   27.60
  -3 -12   4   88.49   15.30
  15  -3   4  101.99   18.80
 -12  15   4   82.19   17.20
  -3  15  -4   86.49   14.90
   4 -15   4  193.48   20.60
  11   4   4  178.88   20.50
  11 -15  -4  179.28   31.30
 -15  11   4  195.18   19.50
 -15   4  -4  196.78   23.40
 -11  15   4  203.48   20.10
  -4  15  -4  209.08   23.30
 -11  -4  -4  205.58   21.60
  15  -4   4  193.98   21.50
  -4 -11   4  183.18   22.50
  15 -11  -4  223.98   28.90
   5 -15   4  501.55   35.60
  10 -15  -4  546.05   44.40
  10   5   4  518.25   36.10
 -15   5  -4  540.75   38.20
  15  -5   4  559.74   36.60
 -10  15   4  546.05   36.00
 -10  -5  -4  529.95   36.80
  15 -10  -4  507.95   41.00
  -5 -10   4  552.84   40.10
  -5  15  -4  607.34   38.00
 -15   6  -4  121.79   21.80
   6 -15   4  115.29   17.30
   9 -15  -4  126.59   27.70
   9   6   4  133.39   17.90
 -15   9   4  134.09   17.30
  -9  15   4  121.79   18.30
  -6  -9   4  159.68   15.30
  -9  -6  -4  112.09   18.80
  15  -6   4  132.79   19.10
  -6  -9   4  125.29   21.10
  -6  15  -4  137.29   24.50
   7 -15   4  264.97   21.70
 -15   7  -4  279.87   26.20
 -15   8   4  234.18   21.60
   8   7   4  239.78   21.80
  15  -7   4  267.97   23.90
  -8  -7  -4  248.18   23.70
  -7  -8   4  239.78   20.40
  15  -8  -4  311.27   29.90
  -8  15   4  272.77   22.70
  -7  15  -4  294.17   24.50
  -7  -8   4  276.87   25.50
   7   8   4  202.38   26.90
 -15   7   4  230.08   20.20
   8 -15   4  215.28   20.20
 -15   8  -4  210.58   25.50
   7 -15  -4  246.98   24.60
  -8  -7   4  278.07   24.50
  15  -7  -4  290.97   28.70
  -7  -8  -4  235.18   22.30
  15  -8   4  242.98   22.60
  -8  15  -4  231.48   23.00
  -8  -7   4  208.58   19.30
   9 -15   4   81.99   15.20
 -15   9  -4   48.30   14.90
   6 -15  -4   38.50   13.40
   9 -15   4   22.40   16.00
  -6  -9  -4   40.10   12.90
  -9  15  -4   29.80   12.40
  -6  15   4   42.60   11.70
  -9  -6   4   67.19   13.60
  15  -9   4   63.79   13.80
  -6  15   4   56.19   20.30
  -9  -6   4   28.40   15.10
  -9  15  -4   11.60   11.60
  10   5  -4   69.69   17.90
  10 -15   4   84.39   15.40
  10 -15   4  153.38   32.30
 -15   5   4   94.09   15.60
   5 -15  -4  104.59   18.90
 -10  15  -4  100.29   16.80
  -5 -10  -4   62.29   13.90
  -5  15   4   67.19   13.80
 -10  -5   4  100.99   16.70
  -5  15   4   84.89   18.20
 -10  -5   4   81.99   14.50
  15 -10   4   93.29   15.10
  15  -5  -4  140.89   23.60
  11 -15   4   54.29   18.90
  11 -15   4   76.19   15.30
  11   4  -4   85.19   17.30
 -15   4   4  116.49   15.50
   4 -15  -4   76.09   14.90
  -4  15   4   67.69   14.10
  -4  15   4   68.29   14.00
 -11  -4   4   60.09   16.00
  -4 -11  -4   71.49   13.90
 -11  -4   4   95.79   15.20
 -11  15  -4   83.09   17.40
  15  -4  -4  139.99   24.00
  15 -11   4   73.99   15.30
   3  12   4  353.36   28.60
  12   3  -4  318.67   30.60
  12 -15   4  362.66   42.50
 -15   3   4  351.86   25.00
   3 -15  -4  308.17   27.70
  12 -15   4  327.87   27.10
  12 -15   4  318.07   25.50
 -12  -3   4  351.26   25.20
 -12  15  -4  340.37   28.70
  -3  15   4  372.56   27.90
  15 -12   4  312.87   24.20
  15 -12   4  348.57   29.20
 -12  15  -4  352.56   26.20
  -3  15   4  294.57   25.40
  15  -3  -4  336.47   30.40
 -12  -3   4  372.66   29.20
  -3 -12  -4  330.87   26.30
  13 -15   4  468.25   32.70
   2 -15  -4  404.26   32.90
   2  13   4  449.66   33.60
  13 -15   4  448.06   31.30
  13   2  -4  423.86   34.90
 -15   2   4  456.95   30.60
  15  -2  -4  430.26   36.00
  15 -13   4  435.36   30.30
  -2 -13  -4  426.26   31.70
 -13  -2   4  452.05   30.60
 -13  15  -4  501.75   31.90
  -2  15   4  472.85   33.10
   1  14   4   72.59   15.50
  14 -15   4   98.59   19.80
  14   1  -4   89.39   21.80
 -15   1   4  127.29   17.10
  14 -15   4   95.79   16.80
   1  14   4  134.99   21.90
   1 -15  -4   75.79   15.90
  15  -1  -4  128.49   23.70
 -14  -1   4  112.89   16.10
  -1  15   4  143.39   21.60
 -14  15  -4  122.19   18.40
  15 -14   4  107.59   16.40
  -1 -14  -4   73.69   15.00
  15 -14   4  108.99   25.00
  15 -15   4  371.56   31.90
   0 -15  -4  356.76   29.40
  15 -15   4  368.06   27.00
   0  15   4  313.17   27.00
   0  15   4  432.36   31.30
  15   0  -4  378.56   31.70
 -15   0   4  382.26   27.10
  16 -16  -4   79.09   23.60
 -16  16   4   88.79   17.60
   0  16  -4  106.09   20.50
   0 -16   4   97.09   16.10
 -16   0  -4   75.79   16.20
  16   0   4   97.39   16.60
  15   1   4   91.69   18.90
   1  15  -4   81.79   16.60
 -16  15   4   80.19   12.70
   1 -16   4   82.29   14.40
 -16   1  -4   76.29   16.90
  15 -16  -4   81.29   25.20
  16 -15  -4   76.69   23.00
  16  -1   4   71.19   15.40
  -1  16  -4   67.49   15.40
  -1 -15   4   71.09   15.00
 -15  16   4   81.59   17.20
 -15  -1  -4   80.89   15.30
 -16  14   4    0.80   10.90
  14   2   4   -1.40   14.20
   2  14  -4   -0.10   16.40
  14 -16  -4   -6.00   22.30
 -16   2  -4   -9.30   14.10
   2 -16   4  -17.30   13.00
 -14  16   4    2.20   12.00
  16  -2   4    9.40   14.20
  -2  16  -4   -3.60   16.00
  16 -14  -4  -12.10   20.00
 -14  -2  -4    4.10   13.10
  -2 -14   4  -20.20   13.50
  13   3   4  117.29   19.20
  13 -16  -4  152.28   29.70
   3 -16   4   92.69   15.60
 -16   3  -4  142.49   21.60
 -16  13   4  111.09   16.80
   3  13  -4  107.19   22.80
 -13  16   4   90.69   14.50
 -13  -3  -4  100.59   19.90
  -3 -13   4  109.29   16.80
  -3  16  -4  118.59   21.30
  16 -13  -4   89.29   21.70
  16  -3   4  117.59   19.90
   4  12  -4  412.96   34.20
 -16   4  -4  438.16   33.70
  12 -16  -4  420.76   39.70
 -16  12   4  397.06   30.30
  12   4   4  420.26   31.50
   4 -16   4  430.46   31.20
  -4  16  -4  491.55   33.90
  16  -4   4  442.06   32.10
 -12  16   4  448.66   30.70
  -4 -12   4  435.56   32.90
 -12  -4  -4  436.76   32.10
  16 -12  -4  427.76   37.40
 -16  11   4  129.19   16.70
   5 -16   4   83.89   17.30
  11   5   4   92.29   16.10
 -16   5  -4   78.19   16.20
  11 -16  -4   75.09   26.20
  16 -11  -4  123.79   26.20
 -11  -5  -4   70.59   14.80
  -5  16  -4   75.69   15.30
  16  -5   4   86.69   19.00
 -11  16   4  108.99   17.70
  -5 -11   4   75.39   15.40
  10   6   4  148.99   19.00
  10 -16  -4  171.28   32.30
   6 -16   4  114.29   18.20
 -16  10   4  146.39   17.90
 -16   6  -4  141.39   23.00
  16  -6   4  166.88   20.30
 -10  -6  -4  141.19   19.80
  -6  16  -4  155.68   20.60
  16 -10  -4  196.38   27.00
 -10  16   4  167.08   19.20
  -6 -10   4  187.08   22.50
 -16   9   4  292.57   23.80
   9 -16  -4  282.47   36.50
 -16   7  -4  260.17   27.70
   9   7   4  289.47   24.50
   7 -16   4  297.87   23.90
  -9  -7  -4  314.57   25.30
  -7  -9   4  299.67   22.30
  -7  16  -4  319.87   26.00
  -7  -9   4  321.07   29.50
  16  -7   4  296.57   25.50
  16  -9  -4  325.07   30.60
  -9  16   4  297.47   24.40
   8 -16   4   48.40   12.10
 -16   8  -4   64.09   16.00
   8   8   4   50.69   13.40
   8 -16  -4   45.70   27.00
 -16   8   4   57.29   11.10
  -8  -8   4   64.89   13.80
  -8  16   4   64.79   13.40
  16  -8  -4   85.39   20.60
  -8  -8   4   59.59   15.20
  16  -8   4   64.09   14.10
  -8  16  -4   60.49   14.50
  -8  -8  -4   52.99   12.60
   7   9   4   54.99   13.60
   9 -16   4   44.70   11.70
 -16   7   4   45.10   11.10
 -16   9  -4   43.20   15.80
   7 -16  -4   20.90   16.20
  -9  16  -4   64.49   21.80
  -9  -7   4   63.19   15.40
  -7  -9  -4   56.79   13.70
  -9  -7   4   39.80   10.40
  16  -7  -4   77.49   19.00
  16  -9   4   73.49   14.90
  -7  16   4   85.69   17.40
 -16   6   4   76.69   15.70
 -16  10  -4   51.89   15.70
   6  10   4   76.49   16.10
  10 -16   4   85.09   16.20
   6 -16  -4   53.49   15.40
 -10  -6   4   75.19   15.50
  -6  16   4  112.39   18.50
  16 -10   4   95.09   16.00
  -6 -10  -4   63.59   13.20
 -10  -6   4   91.79   16.30
  16  -6  -4  123.59   24.50
 -10  16  -4   77.59   17.10
 -16   5   4  210.18   19.40
  11   5  -4  255.37   29.10
   5 -16  -4  132.69   22.50
  11 -16   4  204.98   19.10
   5  11   4  169.68   19.30
  16 -11   4  197.98   22.30
 -11  -5   4  171.08   24.30
  -5  16   4  134.69   20.00
  -5 -11  -4  194.28   20.50
  16  -5  -4  241.28   25.90
  -5  16   4  235.08   22.30
 -11  -5   4  188.78   18.40
 -11  16  -4  172.18   20.90
  12   4  -4  270.67   27.20
 -16   4   4  245.38   20.30
   4 -16  -4  253.27   24.20
   4  12   4  203.58   20.20
  12 -16   4  209.88   20.90
  16 -12   4  249.68   24.20
 -12  16  -4  243.58   21.90
 -12  16  -4  230.48   30.80
  -4  16   4  236.48   23.70
 -12  -4   4  225.38   20.50
  -4  16   4  187.08   20.60
  16  -4  -4  217.38   26.60
  -4 -12  -4  240.78   22.10
 -12  -4   4  207.68   26.10
  13 -16   4  249.38   21.30
   3  13   4  206.18   20.90
  13 -16   4  246.88   27.70
   3 -16  -4  278.87   24.70
  13   3  -4  224.28   26.10
 -16   3   4  253.97   21.70
 -13  -3   4  225.98   20.30
  -3  16   4  248.78   24.10
  -3 -13  -4  230.48   22.60
  -3  16   4  196.78   21.40
 -13  16  -4  250.17   22.70
  16  -3  -4  272.77   27.80
  16 -13   4  261.07   24.60
   2 -16  -4  324.17   29.20
  14   2  -4  323.07   32.90
   2  14   4  353.16   31.40
   2  14   4  311.97   26.60
  14 -16   4  351.36   29.80
 -16   2   4  381.06   26.30
  14 -16   4  358.76   26.90
  -2  16   4  297.47   26.60
 -14  16  -4  384.46   28.40
 -14  -2   4  401.56   26.80
  16 -14   4  421.86   30.20
  -2 -14  -4  341.67   28.00
  16  -2  -4  379.26   31.30
  16 -14   4  347.37   25.80
  -2  16   4  386.96   29.90
   1 -16  -4  622.64   42.30
  15 -16   4  640.54   40.60
  15   1  -4  609.24   43.60
 -16   1   4  656.43   40.50
   1  15   4  633.54   44.10
  15 -16   4  646.44   43.10
   1  15   4  536.55   40.30
  16  -1  -4  572.54   43.10
  -1  16   4  711.03   43.00
  16 -15   4  642.94   40.20
  -1 -15  -4  598.44   41.60
  -1  16   4  547.25   40.80
  16 -15   4  651.43   43.00
 -15  16  -4  717.13   41.50
   0 -16  -4  179.08   24.00
   0  16   4  258.17   26.90
   0  16   4  187.78   23.60
 -16   0   4  221.58   21.20
  16 -16   4  236.28   21.30
  16 -16   4  232.78   26.40
  16   0  -4  242.78   25.90
  17 -17  -4  132.19   26.20
   0  17  -4  156.48   22.50
 -17   0  -4  146.29   22.40
 -17  17   4  148.89   20.00
   0 -17   4  142.09   22.00
  17   0   4  167.98   22.30
  16 -17  -4   18.40   23.60
 -17   1  -4   17.50   15.10
  16   1   4   19.50   15.90
   1  16  -4   30.00   14.90
   1 -17   4   23.10   13.50
 -17  16   4   20.50   12.30
  17  -1   4   16.40   15.10
  -1 -16   4    5.90   14.20
  17 -16  -4   -3.10   23.50
 -16  -1  -4    9.60   14.60
 -16  17   4   21.80   12.10
  -1  17  -4   11.50   16.30
 -17  15   4   13.60   11.90
  15   2   4    3.60   14.70
  15 -17  -4   13.00   24.50
 -17   2  -4    5.20   14.80
   2 -17   4   -4.20   13.30
   2  15  -4    4.20   14.50
  -2  17  -4   -4.10   16.70
 -15  17   4   11.00   11.50
  -2 -15   4    2.40   14.30
  17  -2   4    6.90   14.60
  17 -15  -4    4.30   22.50
 -15  -2  -4    8.30   14.10
 -17  14   4   51.99   12.80
   3 -17   4   13.60   13.10
 -17   3  -4   45.00   15.80
  14   3   4   47.90   15.70
  14 -17  -4   69.59   24.30
   3  14  -4   18.80   14.60
  17  -3   4   40.30   15.90
 -14  17   4   33.10   11.80
  -3  17  -4   38.00   15.20
  17 -14  -4   47.50   21.30
 -14  -3  -4   18.70   14.50
  -3 -14   4   17.40   15.20
  13   4   4   57.29   16.40
   4 -17   4   35.70   13.30
 -17  13   4   26.20   11.10
   4  13  -4   14.00   16.30
  13 -17  -4   26.70   25.10
 -17   4  -4   34.70   15.90
  -4  17  -4   35.20   15.90
  17 -13  -4   30.50   19.70
  -4 -13   4   25.80   14.70
 -13  17   4   48.20   12.10
 -13  -4  -4   33.10   13.60
  17  -4   4   44.20   14.70
   5  12  -4   90.39   19.10
   5 -17   4   73.39   14.00
 -17  12   4  143.69   17.30
  12 -17  -4  100.49   25.80
 -17   5  -4   94.09   17.30
  12   5   4   94.09   18.90
 -12  -5  -4  107.19   19.20
  17 -12  -4  106.49   22.00
  17  -5   4   91.39   19.80
 -12  17   4  110.39   18.40
  -5  17  -4   93.89   20.10
  -5 -12   4  101.79   16.40
 -17   6  -4  169.28   24.50
  11   6   4  201.88   21.20
  11 -17  -4  211.28   33.10
 -17  11   4  190.98   19.60
   6 -17   4  141.09   19.80
 -11  17   4  176.88   20.60
 -11  -6  -4  181.98   21.80
  -6 -11   4  184.38   24.30
  -6  17  -4  216.88   23.00
  17 -11  -4  191.68   27.60
  17  -6   4  189.58   22.10
 -17   7  -4   45.70   16.20
 -17  10   4   40.40   11.80
   7 -17   4   29.70   11.90
  10   7   4   42.30   14.50
  10 -17  -4   20.40   26.80
 -10  17   4   50.89   12.00
  -7  17  -4   34.70   13.90
  -7 -10   4   14.90   16.00
 -10  -7  -4   54.19   13.00
  17  -7   4   59.59   15.30
  17 -10  -4   45.00   19.60
   9 -17  -4  144.59   32.80
   8 -17   4  126.09   18.60
   9   8   4  151.48   19.50
 -17   9   4  136.89   18.40
 -17   8  -4  159.38   23.80
  17  -8   4  199.58   21.50
  -8  17  -4  171.38   21.70
  -8  -9   4  140.89   23.50
  -9  -8  -4  181.28   20.70
  -9  17   4  188.08   20.40
  17  -9  -4  187.58   25.90
  -8  -9   4  181.88   17.10
   9 -17   4  157.18   18.60
 -17   9  -4  160.18   24.50
 -17   8   4  171.58   18.60
   8 -17  -4  181.08   34.00
   8   9   4  158.68   19.50
  -9  -8   4  166.38   16.90
  -8  17   4  184.18   20.60
  -9  17  -4  171.08   21.60
  17  -9   4  172.38   21.60
  17  -8  -4  182.78   26.10
  -8  -9  -4  147.19   20.00
  -9  -8   4  163.08   23.50
   7  10   4   85.49   16.60
  10 -17   4  102.39   17.10
 -17  10  -4   83.49   17.40
 -17   7   4  106.09   16.40
 -10  -7   4  100.19   27.40
  -7  17   4  133.49   18.90
  17 -10   4   93.99   20.40
 -10  -7   4   81.89   15.30
  -7 -10  -4   90.29   18.20
 -10  17  -4   99.59   18.20
  17  -7  -4  132.39   23.60
  11 -17   4   21.10   11.10
 -17   6   4   32.10   11.50
   6 -17  -4   36.80   16.30
   6  11   4   20.30   13.50
 -17  11  -4    9.30   15.10
 -11  17  -4   25.60   13.50
  -6 -11  -4   28.20   13.10
  17  -6  -4   22.30   17.60
  17 -11   4   38.20   15.50
 -11  -6   4   40.10   16.40
  -6  17   4   28.70   13.10
 -11  -6   4   12.70   10.60
  12 -17   4   85.29   16.80
   5  12   4   87.29   16.70
 -17  12  -4  110.89   21.80
   5 -17  -4   53.99   17.00
 -17   5   4  105.09   16.40
  -5 -12  -4  112.39   18.70
  17 -12   4   98.59   21.30
 -12  -5   4   72.99   17.50
 -12  -5   4   79.69   16.00
 -12  17  -4  134.89   18.10
  -5  17   4   95.59   20.20
  17  -5  -4  137.59   23.80
  13 -17   4   67.99   13.00
   4  13   4   79.39   16.30
 -17   4   4  113.79   16.80
  13   4  -4  161.78   26.50
 -13  17  -4  121.39   19.70
  -4  17   4   54.69   15.50
 -13  -4   4   90.79   16.00
  -4 -13  -4  111.99   18.60
  17  -4  -4  140.99   23.10
  -4  17   4  110.19   20.70
 -13  -4   4   96.29   18.70
  17 -13   4  124.59   21.70
  14 -17   4  277.17   23.60
  14   3  -4  215.58   29.30
   3 -17  -4  254.87   26.50
 -17   3   4  286.87   23.20
   3  14   4  259.87   24.10
  -3  17   4  291.37   26.40
  -3  17   4  225.68   24.00
 -14  -3   4  314.57   23.20
  17  -3  -4  297.87   27.50
  -3 -14  -4  273.57   24.80
  17 -14   4  314.07   27.00
   2 -17  -4  120.19   21.00
   2  15   4  119.29   25.70
   2  15   4   70.99   15.10
  15 -17   4   94.89   17.50
  15 -17   4  103.49   19.20
  15   2  -4  109.99   23.30
 -17   2   4  116.39   17.50
 -15  -2   4  109.39   16.80
  -2 -15  -4   87.39   17.10
  17 -15   4   95.79   19.00
  -2  17   4   79.99   16.00
  17 -15   4   97.89   15.90
  -2  17   4  111.19   21.90
  17  -2  -4   76.29   19.40
  16   1  -4   77.49   18.90
   1 -17  -4   71.69   16.80
 -17   1   4   63.09   13.60
  16 -17   4   50.49   12.30
   1  16   4   81.39   18.30
   1  16   4   43.20   17.90
  16 -17   4   76.59   18.30
  -1 -16  -4   47.70   14.70
  17 -16   4   55.59   17.60
  17 -16   4   57.99   12.20
  -1  17   4  115.09   22.50
  17  -1  -4   73.99   18.20
  -1  17   4   44.10   15.00
 -16  -1   4   63.19   12.80
 -17   0   4  306.67   24.60
  17 -17   4  290.77   24.30
  17 -17   4  311.57   30.60
   0 -17  -4  280.37   27.70
  17   0  -4  294.37   29.10
   0  17   4  347.47   30.70
   0 -18   4   49.50   16.20
 -18   0  -4   43.30   15.80
  18   0   4   50.39   17.00
  18 -18  -4   47.00   23.80
 -18  18   4   36.10   13.10
   0  18  -4   36.90   16.90
 -18   1  -4   52.39   16.70
   1 -18   4   60.59   15.00
  17   1   4   64.09   16.90
  17 -18  -4   68.49   24.60
 -18  17   4   55.19   13.50
   1  17  -4   46.70   16.70
  18  -1   4   71.99   17.90
 -17  18   4   67.19   13.70
 -17  -1  -4   68.69   17.00
  18 -17  -4   51.79   22.20
  -1 -17   4   60.69   15.50
  -1  18  -4   72.29   18.80
   2 -18   4  118.09   21.00
 -18   2  -4  132.29   22.90
  16   2   4  127.99   21.10
  16 -18  -4  127.39   27.30
   2  16  -4  149.19   22.60
 -18  16   4  138.59   19.40
 -16  18   4  144.69   19.90
  -2  18  -4  144.29   26.80
 -16  -2  -4  143.89   21.20
  18 -16  -4  140.49   27.10
  -2 -16   4  138.19   22.40
  18  -2   4  134.99   22.10
  15 -18  -4   13.00   25.30
 -18  15   4   43.40   12.60
  15   3   4   37.70   16.20
   3 -18   4   20.50   13.90
 -18   3  -4   44.20   16.90
   3  15  -4   38.80   18.00
  -3 -15   4   18.60   16.20
 -15  18   4   36.20   13.10
  -3  18  -4   21.20   13.90
  18 -15  -4   46.90   21.30
 -15  -3  -4   27.90   15.40
  18  -3   4   51.39   16.20
   4  14  -4   37.00   17.20
  14   4   4   34.70   16.00
   4 -18   4   29.60   13.60
 -18  14   4   39.20   11.80
 -18   4  -4   42.50   15.70
  14 -18  -4   44.00   25.90
  -4 -14   4   24.60   15.80
  -4  18  -4   19.90   16.30
  18  -4   4   39.90   15.80
 -14  18   4   41.60   13.30
 -14  -4  -4   21.60   14.20
  18 -14  -4   23.00   20.80
   5 -18   4  137.19   20.00
 -18   5  -4  132.09   22.80
  13   5   4  134.79   20.90
  13 -18  -4  136.49   29.40
 -18  13   4  159.58   18.80
   5  13  -4  123.69   23.70
  -5  18  -4  111.99   21.40
  -5 -13   4  150.28   23.40
  18 -13  -4  116.79   25.40
 -13  -5  -4  138.79   21.20
  18  -5   4  123.69   21.30
 -13  18   4  144.89   19.30
  12 -18  -4  141.99   29.60
   6  12  -4  108.19   22.90
   6 -18   4   91.19   18.70
 -18  12   4  141.29   18.30
 -18   6  -4  149.39   23.50
  12   6   4  113.89   20.60
  -6 -12   4  160.88   24.10
  18 -12  -4  154.38   25.80
  18  -6   4  141.29   20.90
 -12  18   4  113.59   19.40
 -12  -6  -4  133.79   20.50
  -6  18  -4  138.99   20.70
 -18   7  -4  378.26   32.20
   7 -18   4  379.16   28.30
 -18  11   4  372.26   28.40
  11   7   4  357.06   29.00
  11 -18  -4  387.16   38.90
  18 -11  -4  371.86   33.90
 -11  -7  -4  361.56   28.90
  -7 -11   4  401.26   32.10
 -11  18   4  384.96   28.50
  -7  18  -4  364.26   29.90
  18  -7   4  392.56   29.70
 -18  10   4  134.79   18.10
  10   8   4  130.89   19.00
   8 -18   4  137.79   18.50
  10 -18  -4  124.09   32.00
 -18   8  -4  131.99   24.10
  18 -10  -4  138.89   25.20
 -10  18   4  152.88   19.40
 -10  -8  -4  121.09   19.70
  -8  18  -4  153.58   20.50
  18  -8   4  143.49   21.10
  -8 -10   4  125.29   23.10
   9 -18  -4   30.60   29.00
   9 -18   4    6.00   11.00
 -18   9   4   14.60   12.20
 -18   9  -4    3.70   17.00
   9   9   4   36.20   14.70
  -9  18  -4   24.10   15.80
  -9  18   4   33.10   12.60
  -9  -9   4   11.00   14.90
  18  -9   4   21.50   14.10
  -9  -9  -4   20.50   13.90
  -9  -9   4   30.10   10.90
  18  -9  -4   33.10   18.60
   8  10   4   63.19   15.70
 -18   8   4   87.79   16.50
 -18  10  -4   49.70   18.20
  10 -18   4   60.69   13.70
   8 -18  -4   87.59   31.20
 -10  18  -4   80.89   15.70
 -10  -8   4   78.29   14.90
  18 -10   4   89.19   17.20
  -8  18   4   96.89   18.80
  -8 -10  -4   49.00   14.10
 -10  -8   4   84.69   17.60
  18  -8  -4   70.59   18.50
 -18   7   4   50.79   13.00
   7 -18  -4  124.09   29.50
 -18  11  -4   31.10   17.60
  11 -18   4   45.30   12.90
   7  11   4   48.20   14.50
  18 -11   4   62.79   15.90
 -11  -7   4   30.20   11.90
  -7  18   4   69.49   14.30
 -11  -7   4   55.29   17.00
  18  -7  -4   66.59   20.30
 -11  18  -4   49.00   13.70
  -7 -11  -4   38.20   13.10
   6  12   4   30.70   14.40
 -18   6   4   47.70   12.00
   6 -18  -4   12.50   18.50
  12 -18   4   49.60   12.20
 -18  12  -4   22.30   16.80
  18 -12   4   58.99   16.20
 -12  18  -4   92.59   17.20
  -6 -12  -4   63.89   14.60
 -12  -6   4   45.50   11.90
 -12  -6   4   62.99   19.30
  -6  18   4   56.09   14.70
  18  -6  -4   81.79   19.20
 -18   5   4   42.10   11.70
   5 -18  -4   55.29   20.60
 -18  13  -4   42.30   16.80
   5  13   4   16.90   14.80
  13 -18   4   24.20   12.50
  -5  18   4   45.90   15.50
 -13  -5   4   65.69   19.90
 -13  -5   4   34.70   12.40
  -5 -13  -4   42.80   14.20
  18 -13   4   47.70   16.40
  18  -5  -4   38.70   16.90
 -13  18  -4   46.10   14.20
 -18   4   4  117.49   17.60
   4  14   4  107.19   17.80
  14 -18   4  126.69   17.80
   4 -18  -4  111.29   19.20
 -14  18  -4  174.68   20.10
  18  -4  -4  146.99   22.80
  -4 -14  -4   94.29   19.70
 -14  -4   4  113.09   17.80
  -4  18   4  118.59   21.80
 -14  -4   4  152.18   24.70
  18 -14   4  139.39   23.80
   3 -18  -4   52.99   16.60
  15 -18   4   73.19   13.80
   3  15   4   33.30   15.20
  15   3  -4  142.99   26.40
 -18   3   4   55.89   12.80
  -3 -15  -4   73.69   15.90
  18 -15   4   77.89   18.20
 -15  -3   4   60.89   12.90
  -3  18   4   82.59   16.90
  18  -3  -4   63.49   17.70
 -15  18  -4  117.19   19.20
   2  16   4  139.29   19.30
   2 -18  -4  132.09   22.90
  16   2  -4  203.38   25.40
 -18   2   4  165.68   19.50
  16 -18   4  150.28   19.50
  -2 -16  -4  138.79   21.70
  18 -16   4  160.88   24.70
  18 -16   4  130.89   17.80
  -2  18   4  104.79   19.60
  -2  18   4  194.08   24.50
  18  -2  -4  173.88   23.70
 -16  -2   4  163.08   19.10
   1 -18  -4   30.00   16.60
 -18   1   4   59.69   14.20
  17   1  -4  127.29   23.30
  17 -18   4   45.10   13.90
   1  17   4   63.29   19.90
  -1 -17  -4   31.90   15.40
  18 -17   4   75.79   13.60
  -1  18   4   97.19   18.00
 -17  -1   4   59.89   14.20
  18 -17   4   95.59   19.00
  18  -1  -4   84.39   19.30
  18   0  -4  107.29   23.20
   0 -18  -4   76.99   17.80
   0  18   4   97.39   20.30
  18 -18   4   71.09   14.70
  18 -18   4  107.89   19.90
 -19  19   4   51.49   14.60
   0 -19   4   59.69   16.70
 -19   0  -4   59.59   16.00
  19   0   4   69.39   18.70
   0  19  -4   43.20   15.20
  19 -19  -4   25.20   24.80
  18 -19  -4  235.28   34.00
  18   1   4  244.08   26.40
 -19   1  -4  212.68   25.90
 -19  18   4  226.08   23.10
   1 -19   4  245.48   24.80
   1  18  -4  239.28   26.00
 -18  -1  -4  243.38   25.20
  -1 -18   4  249.48   25.70
  19  -1   4  229.18   26.60
 -18  19   4  244.78   23.10
  19 -18  -4  194.28   32.10
  -1  19  -4  248.98   25.50
 -19   2  -4   72.99   16.90
  17 -19  -4   75.99   25.70
  17   2   4  100.59   21.30
   2  17  -4  116.39   20.90
   2 -19   4   87.29   17.10
 -19  17   4   97.99   18.40
  19 -17  -4   78.19   23.50
  -2  19  -4   77.69   16.40
 -17  19   4  100.19   18.30
 -17  -2  -4   69.49   17.30
  19  -2   4  107.09   18.70
  -2 -17   4  108.59   21.80
   3 -19   4    9.60   14.00
  16   3   4   12.00   17.00
 -19   3  -4   10.20   15.50
 -19  16   4   13.70   11.70
  16 -19  -4    7.10   26.30
   3  16  -4   24.80   15.60
 -16  19   4   24.80   13.60
  19  -3   4   13.40   15.50
 -16  -3  -4   13.80   15.90
  -3 -16   4   18.70   15.90
  -3  19  -4    8.00   13.40
  19 -16  -4   25.10   21.40
   4 -19   4    7.50   14.30
 -19   4  -4    2.60   15.30
 -19  15   4   12.80   12.30
   4  15  -4    9.40   15.20
  15   4   4   21.50   17.80
  15 -19  -4   19.60   25.70
  19 -15  -4   12.80   20.50
  -4 -15   4    0.70   16.10
 -15  19   4    2.90   12.70
 -15  -4  -4    9.60   14.60
  -4  19  -4    2.90   15.40
  19  -4   4   21.20   15.90
   5  14  -4   30.50   15.80
  14 -19  -4   29.50   29.30
   5 -19   4   42.30   14.70
  14   5   4   53.99   17.40
 -19   5  -4   54.79   16.30
 -19  14   4   58.89   14.80
 -14  -5  -4   42.50   14.30
  19  -5   4   48.20   17.00
  19 -14  -4   55.09   22.40
  -5 -14   4   54.69   16.80
  -5  19  -4   40.40   14.30
 -14  19   4   57.89   13.60
  13   6   4  107.29   21.60
 -19  13   4  127.19   18.30
 -19   6  -4  124.29   22.60
   6  13  -4   86.49   19.00
  13 -19  -4  131.39   28.80
   6 -19   4   95.29   18.80
 -13  -6  -4  107.19   20.00
  19  -6   4  117.09   18.10
  -6  19  -4  101.59   20.40
  19 -13  -4   89.79   20.90
 -13  19   4  101.29   19.10
  -6 -13   4  112.29   19.40
 -19   7  -4   63.29   17.60
   7  12  -4   42.40   19.40
   7 -19   4   54.59   14.20
  12 -19  -4   31.20   30.30
 -19  12   4   54.99   14.00
  12   7   4   80.19   17.10
  19 -12  -4   59.39   19.80
 -12  -7  -4   47.70   13.90
  19  -7   4   71.69   17.10
  -7 -12   4   57.79   18.80
 -12  19   4   70.79   14.40
  -7  19  -4   44.20   16.10
   8 -19   4   55.19   13.30
  11   8   4   52.89   16.20
  11 -19  -4   81.29   29.30
 -19  11   4   57.49   12.10
 -19   8  -4   59.29   17.60
 -11  19   4   50.89   14.10
  -8  19  -4   52.29   14.40
  19  -8   4   45.80   15.70
  -8 -11   4   44.10   17.30
 -11  -8  -4   51.29   14.40
  19 -11  -4   60.99   20.40
 -19   9  -4  140.59   24.70
  10 -19  -4  160.28   31.70
 -19  10   4  146.09   18.50
   9 -19   4  126.29   18.50
  10   9   4  142.19   20.40
  19  -9   4  144.69   22.00
 -10  -9  -4  135.59   20.30
  -9  19  -4  142.19   21.10
  19 -10  -4  167.18   24.90
 -10  19   4  176.28   20.80
  -9 -10   4  157.38   24.90
  10 -19   4   54.79   13.50
   9 -19  -4   73.29   31.10
 -19   9   4   92.29   16.90
   9  10   4   72.99   16.40
 -19  10  -4   55.79   18.00
  -9  19   4   78.19   14.10
  19  -9  -4   69.79   19.10
  -9 -10  -4   64.39   14.10
 -10  19  -4   55.39   14.50
 -10  -9   4   83.19   18.30
 -10  -9   4   63.19   11.60
  19 -10   4   70.49   16.90
 -19   8   4   20.70   12.00
   8  11   4   -2.70   15.00
 -19  11  -4   24.00   17.50
  11 -19   4   16.00   12.90
   8 -19  -4   11.60   33.70
  -8 -11  -4   11.20   12.40
 -11  -8   4   37.10   16.60
 -11  19  -4   23.90   13.10
  19  -8  -4   35.60   18.40
  -8  19   4   29.70   14.40
  19 -11   4    7.00   15.20
 -11  -8   4   17.20   11.30
   7  12   4   74.89   15.50
 -19   7   4   60.49   13.00
 -19  12  -4   81.59   19.20
  12 -19   4   54.69   12.90
 -12  19  -4  112.29   18.10
  -7  19   4   77.29   15.30
 -12  -7   4   91.29   18.10
  19 -12   4   81.29   17.20
  -7 -12  -4   85.99   15.50
 -12  -7   4   69.59   12.80
  19  -7  -4   91.49   18.40
 -19  13  -4   59.79   19.00
   6  13   4   26.70   14.70
 -19   6   4   42.50   12.00
   6 -19  -4   46.00   19.30
  13 -19   4   39.50   12.70
  -6  19   4   39.00   15.40
 -13  19  -4   55.99   14.60
  19  -6  -4   74.89   18.70
 -13  -6   4   40.70   12.10
  19 -13   4   57.09   17.00
 -13  -6   4   88.99   18.40
  -6 -13  -4   26.70   13.50
   5 -19  -4  -20.90   18.30
  14 -19   4   18.40   11.70
 -19  14  -4    2.80   16.40
 -19   5   4   17.00   12.60
   5  14   4   22.70   14.40
  19 -14   4   36.30   17.00
  -5 -14  -4   13.10   14.40
  -5  19   4    6.80   16.80
 -14  -5   4    4.90   12.20
  19  -5  -4   32.10   18.80
 -19   4   4   60.09   13.80
   4 -19  -4   79.19   18.40
  15 -19   4   50.39   13.50
   4  15   4   34.70   15.50
  -4 -15  -4   71.49   16.20
  19 -15   4  111.99   18.90
  -4  19   4   76.89   17.10
 -15  -4   4   70.79   14.20
 -15  19  -4   96.79   19.70
  19  -4  -4   68.59   17.80
   3  16   4   70.69   15.80
   3 -19  -4   47.20   18.30
  16 -19   4   58.09   14.10
 -19   3   4   52.29   13.60
  -3  19   4   91.89   18.30
  19 -16   4   82.69   19.30
  19  -3  -4  113.69   21.40
  -3 -16  -4   41.40   17.20
 -16  19  -4  121.29   25.80
 -16  -3   4   47.00   13.30
  17 -19   4    1.20   12.60
  17   2  -4   -8.90   19.80
   2 -19  -4   -5.00   16.50
 -19   2   4   -8.10   13.00
  19 -17   4   -5.50   19.30
  19  -2  -4   12.50   18.30
 -17  -2   4   -2.40   12.30
  -2  19   4   43.90   17.20
  -2 -17  -4   12.10   16.70
  18 -19   4   42.20   12.90
 -19   1   4   32.90   14.20
   1 -19  -4   10.20   16.00
  18   1  -4   13.40   19.90
  19 -18   4   70.09   19.80
  19  -1  -4   46.00   19.30
  -1 -18  -4   58.29   15.90
  19 -18   4   38.10   11.80
 -18  -1   4   28.40   13.70
  -1  19   4   61.39   18.60
  19 -19   4   -2.30   11.80
  19   0  -4  -15.80   19.30
 -19   0   4   -3.50   13.00
   0 -19  -4   -4.10   15.30
   0  19   4   12.20   20.00
 -20  20   4  107.79   19.30
   0 -20   4  137.99   23.20
  20 -20  -4  104.99   28.30
   0  20  -4  122.99   22.00
  20   0   4  130.89   23.00
 -20   0  -4  126.99   22.90
   1 -20   4   35.00   16.30
   1  19  -4   27.50   17.00
 -20   1  -4   36.00   16.70
  19   1   4   63.49   19.40
 -20  19   4   39.60   13.60
  19 -20  -4   27.40   25.50
 -19  -1  -4   47.20   16.10
  -1 -19   4   37.90   16.60
  20  -1   4   45.20   19.00
 -19  20   4   38.10   14.50
  20 -19  -4   35.30   22.90
  -1  20  -4   29.40   14.10
   2  18  -4   51.09   18.90
  18 -20  -4   18.00   25.80
   2 -20   4   50.19   15.50
 -20  18   4   53.29   15.00
  18   2   4   63.99   18.30
 -20   2  -4   31.40   17.10
  -2  20  -4   29.70   14.70
 -18  20   4   48.00   13.80
 -18  -2  -4   44.00   15.80
  20  -2   4   37.90   16.90
  20 -18  -4   62.39   23.50
  -2 -18   4   51.29   17.00
   3  17  -4   65.09   17.70
  17 -20  -4   56.49   27.20
  17   3   4  103.89   20.70
   3 -20   4   83.59   16.30
 -20  17   4   69.19   14.80
 -20   3  -4   66.19   17.30
  20  -3   4   94.19   19.50
  -3 -17   4   88.09   17.60
  20 -17  -4   97.09   23.30
 -17  20   4   68.09   14.20
  -3  20  -4   65.79   15.60
 -17  -3  -4   71.29   17.30
  16   4   4   36.40   18.20
 -20  16   4    9.30   13.60
 -20   4  -4    1.80   15.90
  16 -20  -4  -25.00   27.10
   4 -20   4    6.30   14.90
   4  16  -4   18.90   16.60
  20 -16  -4   32.60   21.50
 -16  -4  -4   -4.80   15.00
  -4  20  -4   16.70   14.00
 -16  20   4    2.60   12.20
  20  -4   4   18.00   15.70
  -4 -16   4    6.20   16.30
  15   5   4   21.30   17.70
   5 -20   4    3.20   14.80
 -20  15   4   18.80   14.40
  15 -20  -4    5.80   26.10
 -20   5  -4    3.30   16.20
   5  15  -4   15.50   15.20
  20 -15  -4   11.60   19.30
 -15  20   4   -5.90   12.00
  -5 -15   4    6.50   15.90
  -5  20  -4    9.50   15.60
 -15  -5  -4    2.40   14.20
  20  -5   4   -3.00   15.40
  14   6   4  -20.00   16.60
 -20  14   4    2.40   12.40
   6 -20   4   -9.70   12.80
  14 -20  -4   -6.60   29.30
   6  14  -4   -8.60   15.90
 -20   6  -4    7.10   16.20
 -14  -6  -4    7.70   13.90
  20  -6   4  -11.20   14.80
  -6  20  -4  -13.80   14.80
 -14  20   4  -13.00   12.60
  20 -14  -4   11.80   19.00
  -6 -14   4  -18.00   16.50
  13   7   4   50.89   17.80
 -20  13   4   60.79   14.40
 -20   7  -4   69.39   17.70
  13 -20  -4   43.20   28.50
   7  13  -4   65.09   19.10
   7 -20   4   42.50   13.60
  20  -7   4   65.59   16.30
  -7  20  -4   45.40   14.70
  -7 -13   4   52.09   18.60
 -13  20   4   48.90   14.00
 -13  -7  -4   56.29   15.50
  20 -13  -4   51.39   19.20
  12   8   4  154.28   21.90
  12 -20  -4  156.18   31.60
   8 -20   4  147.79   20.30
 -20   8  -4  176.78   25.70
   8  12  -4  149.79   24.80
 -20  12   4  145.09   19.20
  20  -8   4  147.79   22.30
  -8 -12   4  154.58   25.90
  20 -12  -4  163.88   25.20
 -12  20   4  144.19   20.10
 -12  -8  -4  149.49   21.00
  -8  20  -4  172.78   22.00
 -20  11   4   41.40   13.80
  11 -20  -4   47.10   31.50
   9 -20   4   52.79   14.00
  11   9   4   75.69   17.20
 -20   9  -4   70.29   18.20
  -9  20  -4   58.69   16.30
  20 -11  -4   77.29   20.70
  -9 -11   4   43.40   17.50
 -11  -9  -4   61.99   14.40
 -11  20   4   69.59   15.10
  20  -9   4   68.29   16.50
  10  10   4   18.50   15.60
  10 -20  -4   49.60   30.10
  10 -20   4    4.50   11.80
 -20  10   4    7.70   12.60
 -20  10  -4    5.60   18.60
 -10  20  -4   -2.20   13.60
 -10  20   4    7.40   12.90
 -10 -10  -4    8.80   13.20
  20 -10   4   -4.90   16.30
 -10 -10   4   33.40   17.60
  20 -10  -4   16.40   19.30
  11 -20   4   80.99   14.90
 -20  11  -4   87.59   20.40
 -20   9   4   76.29   13.60
   9  11   4   98.99   16.80
   9 -20  -4   40.80   34.10
  20  -9  -4  102.99   21.00
 -11  -9   4   56.09   12.00
 -11  -9   4  107.19   18.90
  20 -11   4   74.29   17.10
  -9 -11  -4   56.99   14.60
  -9  20   4   97.29   19.40
 -11  20  -4   73.39   14.40
   8  12   4   15.00   14.70
 -20   8   4   13.20   12.20
   8 -20  -4  118.09   33.80
 -20  12  -4    7.10   18.20
  12 -20   4   23.60   12.50
  -8  20   4   27.10   14.00
 -12  -8   4   47.50   17.40
  20  -8  -4   18.60   16.70
 -12  20  -4   21.90   13.40
  -8 -12  -4   -3.50   13.30
  20 -12   4    1.60   15.90
 -12  -8   4    5.40   11.40
   7  13   4   98.29   18.10
 -20  13  -4  117.49   20.60
  13 -20   4  107.69   18.00
 -20   7   4   88.09   14.80
   7 -20  -4  131.09   44.40
 -13  20  -4  129.59   19.40
 -13  -7   4  175.68   26.90
 -13  -7   4   80.69   17.30
  20  -7  -4   99.99   21.60
  -7  20   4  123.89   21.60
  20 -13   4  108.59   18.70
  -7 -13  -4   96.89   16.80
  14 -20   4   11.40   12.30
   6 -20  -4   63.99   21.80
   6  14   4    2.30   14.70
 -20  14  -4  -10.90   19.60
 -20   6   4    7.10   12.90
  -6  20   4    1.40   16.30
  20  -6  -4   11.70   16.40
  20 -14   4    0.00   17.00
  -6 -14  -4    8.20   13.80
 -14  20  -4   53.49   14.70
 -14  -6   4    8.50   11.50
 -20   5   4   56.29   14.60
   5  15   4   62.39   19.60
  15 -20   4   54.99   13.80
   5 -20  -4   58.09   19.80
 -20  15  -4   43.60   19.00
  20 -15   4   99.49   18.90
  -5 -15  -4   60.69   15.60
 -15  20  -4   75.69   17.60
  -5  20   4   61.39   18.20
  20  -5  -4   65.69   17.50
 -15  -5   4   47.80   14.00
   4 -20  -4  -45.70   19.40
 -20  16  -4   39.40   18.10
  16 -20   4   15.10   12.70
 -20   4   4    6.60   13.40
 -16  -4   4   10.90   12.00
  20  -4  -4   42.00   17.80
  -4  20   4   11.30   16.60
  -4 -16  -4   20.00   16.10
  20 -16   4   33.70   18.10
 -20   3   4   91.59   20.00
   3 -20  -4  128.59   19.90
  17 -20   4   97.29   18.50
 -17  20  -4  111.29   23.10
  20  -3  -4  102.59   22.40
  -3 -17  -4   75.29   17.70
  20 -17   4   76.49   20.90
 -17  -3   4   74.79   15.30
  -3  20   4  137.59   20.00
   2 -20  -4   72.79   18.80
  18 -20   4   60.99   14.10
 -20   2   4   34.30   14.50
  20  -2  -4   75.89   18.80
  -2 -18  -4   50.29   17.30
 -18  -2   4   49.60   14.50
  20 -18   4   26.90   20.40
  -2  20   4   86.09   18.90
 -20   1   4   28.20   14.80
  19   1  -4   37.90   19.80
  19 -20   4   39.80   14.40
   1 -20  -4   38.90   18.10
  20  -1  -4   14.50   20.00
  -1 -19  -4    2.90   17.10
 -19  -1   4   24.50   13.70
   0 -20  -4  -11.60   16.10
 -20   0   4  -11.60   14.30
  20   0  -4   36.00   19.80
  20 -20   4    2.20   11.70
  18   3   4    2.50   19.10
   3 -21   4   27.20   16.30
   3  18  -4   24.80   15.70
 -21   3  -4   -8.50   18.80
 -21  18   4    6.50   13.10
  18 -21  -4  -14.60   29.70
  -3  21  -4   16.50   14.30
 -18  -3  -4    0.60   15.30
 -18  21   4   27.60   13.10
  -3 -18   4   19.10   16.50
  21  -3   4   18.50   17.10
  21 -18  -4    5.80   23.00
  17 -21  -4   32.00   26.70
   4  17  -4   48.60   17.10
 -21   4  -4   52.89   18.30
  17   4   4   53.29   19.40
   4 -21   4   34.00   15.90
 -21  17   4   59.49   14.10
  21  -4   4   55.79   18.30
  -4  21  -4   41.10   14.20
  -4 -17   4   51.89   18.50
  21 -17  -4   53.09   22.40
 -17  21   4   51.39   13.50
 -17  -4  -4   39.30   16.20
   5  16  -4   36.40   18.60
 -21   5  -4   19.40   17.30
 -21  16   4   25.40   14.30
   5 -21   4    6.90   15.70
  16 -21  -4  -14.30   27.00
  16   5   4   55.09   18.90
 -16  21   4   30.80   13.30
  -5 -16   4   10.50   17.30
  21  -5   4   36.10   17.80
 -16  -5  -4   16.80   15.60
  21 -16  -4   42.00   20.30
  -5  21  -4   19.20   16.30
  15 -21  -4  -20.10   26.70
   6 -21   4    2.90   14.00
 -21  15   4   11.40   12.70
  15   6   4   26.40   18.00
   6  15  -4   15.70   16.00
 -21   6  -4   31.90   17.20
  21 -15  -4   19.50   21.40
  -6  21  -4   19.60   14.00
  -6 -15   4    8.50   17.30
 -15  -6  -4   -1.40   14.40
 -15  21   4   11.90   13.20
  21  -6   4    8.00   16.10
  14 -21  -4    9.50   27.50
  14   7   4   31.80   18.50
   7  14  -4   31.40   17.60
 -21  14   4   44.00   14.80
 -21   7  -4   50.69   17.30
   7 -21   4   26.40   13.90
  -7  21  -4   41.20   16.30
  -7 -14   4   31.20   18.90
  21 -14  -4   40.60   20.10
 -14  -7  -4   35.40   14.60
  21  -7   4   38.30   16.00
 -14  21   4   22.70   13.70
 -21   8  -4    3.00   17.80
  13   8   4    7.70   17.70
  13 -21  -4  -14.50   32.20
   8  13  -4   18.60   18.80
 -21  13   4   26.70   12.90
   8 -21   4   15.30   13.70
  21 -13  -4   28.40   19.80
  -8  21  -4    5.70   15.40
 -13  -8  -4   15.60   14.40
 -13  21   4   16.00   14.30
  21  -8   4   15.20   17.20
  -8 -13   4   12.70   19.30
  12 -21  -4   29.20   29.20
 -21   9  -4   36.00   20.00
   9  12  -4    9.20   17.40
  12   9   4   23.30   16.60
   9 -21   4   18.60   12.80
 -21  12   4   24.90   13.60
  -9  21  -4   17.20   14.60
  -9 -12   4   18.40   18.50
 -12  21   4   19.70   14.20
  21  -9   4   31.90   16.60
 -12  -9  -4   23.80   14.20
  21 -12  -4   36.20   19.10
 -21  10  -4  132.59   25.10
  10  11  -4   89.79   22.50
  11 -21  -4   19.40   32.80
 -21  11   4   83.79   14.10
  10 -21   4   88.19   17.80
  11  10   4  103.99   19.80
  21 -11  -4   88.79   19.40
 -10  21  -4   53.59   16.30
 -10 -11   4  103.69   18.90
 -11 -10  -4   76.09   14.90
 -11  21   4  100.59   20.10
  21 -10   4   75.79   17.10
  10  11   4   73.09   18.00
 -21  10   4   68.39   14.70
  10 -21  -4  105.39   32.70
 -21  11  -4   79.79   20.40
  11 -21   4   85.79   14.80
 -10 -11  -4   63.89   15.80
 -10  21   4   99.79   20.00
 -11  21  -4   94.29   18.20
  21 -10  -4   87.19   19.30
 -11 -10   4   97.99   20.20
  21 -11   4   78.59   18.40
 -21  12  -4  106.09   20.70
  12 -21   4   60.39   14.70
   9  12   4   57.99   17.30
 -21   9   4   70.79   15.00
  -9 -12  -4   40.60   14.60
  -9  21   4   78.39   15.50
  21 -12   4   71.59   17.50
 -12  21  -4   98.09   19.00
  21  -9  -4   72.49   17.60
   8 -21  -4   32.30   36.80
   8  13   4   56.69   16.60
 -21  13  -4   84.89   20.80
  13 -21   4   59.79   13.40
 -21   8   4   47.10   14.50
 -13  21  -4   62.89   15.50
  -8  21   4   74.69   16.50
 -13  -8   4   50.79   12.80
  21  -8  -4   72.29   17.70
  21 -13   4   58.89   17.60
  -8 -13  -4   41.50   15.10
 -13  -8   4  105.59   19.70
 -21  14  -4   49.90   19.80
 -21   7   4   47.80   14.30
   7  14   4   27.10   16.50
  14 -21   4   42.80   13.60
  21  -7  -4   51.99   16.50
 -14  21  -4  104.69   19.60
  -7  21   4   54.99   17.00
 -14  -7   4   26.00   12.80
  -7 -14  -4   47.60   15.00
  21 -14   4   53.29   18.20
 -14  -7   4   71.99   20.20
 -21   6   4   30.70   14.40
 -21  15  -4   43.40   19.50
  15 -21   4   31.80   14.00
  -6  21   4   25.90   17.60
  -6 -15  -4   18.00   14.00
  21  -6  -4   35.90   16.60
 -15  21  -4   43.60   16.80
  21 -15   4   56.09   18.40
 -15  -6   4   32.70   13.40
 -21  16  -4   96.79   22.70
 -21   5   4   62.39   14.60
  16 -21   4   70.89   15.50
   5 -21  -4  135.49   25.20
  21 -16   4  113.59   20.40
  -5  21   4   56.09   19.00
 -16  -5   4   58.99   14.40
  -5 -16  -4   50.09   16.80
  21  -5  -4   84.79   18.80
  17 -21   4  104.99   19.20
 -21  17  -4  104.59   21.30
 -21   4   4   95.19   19.60
   4 -21  -4  148.09   25.40
  21 -17   4   72.49   20.90
 -17  -4   4   82.89   17.80
  21  -4  -4  108.79   22.00
 -17  21  -4   90.29   21.90
  -4  21   4   93.89   19.40
  -4 -17  -4   58.79   17.40
  18 -21   4   -0.80   12.30
   3 -21  -4  -45.30   19.60
 -21   3   4   16.90   13.70
 -21  18  -4   43.40   19.40
  21 -18   4  -10.90   20.60
  -3 -18  -4   20.00   16.00
 -18  -3   4   -1.90   14.00
  21  -3  -4   42.40   18.90
  -3  21   4   64.29   18.40
 -22  17   4   -2.20   15.40
 -22   5  -4    8.50   18.00
   5  17  -4   15.20   16.40
  17   5   4   14.20   19.60
   5 -22   4   -0.80   15.70
  17 -22  -4    7.00   26.60
  22 -17  -4   16.40   20.80
  -5 -17   4  -18.80   17.40
 -17  22   4    1.20   12.80
  -5  22  -4    8.30   13.60
  22  -5   4    9.00   16.80
 -17  -5  -4   -2.10   15.80
 -22  16   4   14.90   14.10
  16   6   4    8.60   19.60
 -22   6  -4   22.60   17.50
  16 -22  -4  -15.80   27.20
   6 -22   4    6.80   14.80
   6  16  -4    8.30   18.60
  22  -6   4   -6.70   16.30
 -16  22   4   -2.50   13.10
 -16  -6  -4   18.60   15.30
  -6 -16   4   26.00   17.30
  -6  22  -4   20.60   16.70
  22 -16  -4    8.00   18.80
  15   7   4   32.00   19.70
   7  15  -4   39.80   17.40
 -22   7  -4   36.10   17.80
 -22  15   4   41.20   15.20
   7 -22   4   24.50   14.60
  22  -7   4   18.40   16.30
  -7  22  -4   21.80   14.70
 -15  -7  -4   25.70   15.10
 -15  22   4   30.90   14.80
  22 -15  -4   23.00   17.70
  -7 -15   4   36.00   18.60
 -22  14   4   20.40   12.90
 -22   8  -4   32.20   18.70
   8  14  -4    9.00   19.70
   8 -22   4   13.10   14.20
  14 -22  -4   13.90   29.00
  14   8   4   48.40   18.50
  -8  22  -4   17.90   14.50
  -8 -14   4  -30.10   18.60
  22  -8   4   26.20   16.50
 -14  22   4    3.60   14.60
  22 -14  -4   40.20   18.00
 -14  -8  -4   20.80   14.70
 -22  13   4   59.59   14.80
  13   9   4   80.29   18.20
   9 -22   4   52.39   14.20
 -22   9  -4   33.00   20.00
   9  13  -4   61.29   18.90
 -13  22   4   68.09   15.10
 -13  -9  -4   45.10   14.70
  -9  22  -4   40.90   15.00
  -9 -13   4   43.00   19.40
  22  -9   4   49.99   17.30
  22 -13  -4   84.59   19.70
 -22  10  -4   70.29   19.80
  10  12  -4   52.39   21.70
 -22  12   4   47.70   14.00
  12  10   4   43.40   18.70
  12 -22  -4   -4.10   32.30
  10 -22   4   49.40   13.90
  22 -12  -4   51.99   17.50
 -12 -10  -4   31.80   16.00
  22 -10   4   60.39   18.20
 -10  22  -4   45.40   14.30
 -12  22   4   40.10   14.50
 -10 -12   4   83.59   20.40
  11 -22   4   33.50   14.90
  11  11   4   55.79   18.40
 -22  11   4   46.20   14.70
 -22  11  -4   45.40   20.40
  11 -22  -4    3.40   32.30
  11  11  -4   22.80   19.40
 -11  22   4   49.20   15.90
  22 -11   4   21.90   16.80
 -11 -11  -4   12.20   14.40
 -11  22  -4   59.39   15.00
  22 -11  -4   49.20   18.30
 -11 -11   4   68.49   18.90
 -22  10   4  109.89   18.90
  10  12   4   64.99   19.50
 -22  12  -4  174.08   27.10
  12 -22   4  109.89   20.50
 -12 -10   4  158.98   27.50
 -10  22   4  150.58   21.30
  22 -10  -4  125.69   21.60
 -12  22  -4  116.99   21.10
  22 -12   4  108.49   23.30
 -10 -12  -4   86.19   16.50
 -22   9   4   10.20   13.20
   9  13   4    6.70   19.80
  13 -22   4   10.80   13.40
 -22  13  -4   36.60   19.40
 -13  22  -4   19.30   14.20
  22 -13   4   -1.40   17.00
  22  -9  -4   35.20   16.10
  -9 -13  -4   17.20   14.90
  -9  22   4   44.20   15.50
  14 -22   4   70.09   15.30
 -22  14  -4  129.39   25.90
 -22   8   4   77.79   14.40
  22 -14   4   96.29   19.10
  22  -8  -4   91.59   18.10
  -8 -14  -4   59.69   15.50
 -14  -8   4   55.49   13.60
  -8  22   4   89.49   17.90
 -22   7   4   32.00   14.10
 -22  15  -4   30.60   20.80
  15 -22   4   23.10   14.40
 -15  -7   4   12.30   13.20
  -7  22   4   49.00   17.10
  -7 -15  -4   22.70   15.70
  22 -15   4   46.60   18.50
  22  -7  -4   42.60   17.20
 -15  22  -4   34.40   17.10
  16 -22   4   32.10   14.80
 -22   6   4   35.80   13.70
 -22  16  -4   56.49   20.50
  22  -6  -4   24.10   18.00
 -16  -6   4   19.20   13.20
  22 -16   4   84.79   20.20
  -6 -16  -4   54.49   15.40
  -6  22   4    9.40   18.60
  17 -22   4   77.19   15.70
 -22  17  -4  152.98   26.60
 -22   5   4   45.90   14.40
   5 -22  -4   51.39   22.30
 -17  22  -4   73.09   22.00
 -17  -5   4   76.29   15.60
  22 -17   4   71.19   20.60
  22  -5  -4   99.39   21.50
  -5 -17  -4   74.19   17.30
  -5  22   4   66.29   20.40
  13  10   4   15.90   19.40
  13 -23  -4  -66.69   35.10
 -23  13   4   32.90   14.00
  10 -23   4    7.60   13.80
  10  13  -4   21.80   22.30
 -23  10  -4   21.60   19.80
 -13  23   4   32.90   15.00
 -10  23  -4   22.40   13.30
  23 -13  -4   38.10   17.10
 -10 -13   4   16.40   19.70
 -13 -10  -4    3.20   15.20
  23 -10   4   26.50   17.10
 -23  11  -4   64.69   21.50
  11 -23   4   40.60   14.90
 -23  12   4   54.99   15.50
  11  12  -4   33.70   20.70
  12  11   4   85.99   19.70
 -12 -11  -4   33.80   15.60
 -11  23  -4   66.39   15.40
  23 -12  -4   49.40   16.60
 -12  23   4   35.60   15.90
 -11 -12   4   63.39   21.00
  23 -11   4   57.99   19.00
 -23  12  -4  110.39   21.20
  12 -23   4   57.69   16.10
  12  11  -4   56.79   19.50
 -23  11   4   64.59   14.60
 -12  23  -4   63.29   15.50
 -11 -12  -4   42.90   15.80
 -11  23   4   70.49   16.90
  23 -12   4   60.59   18.10
  23 -11  -4   62.79   16.80
 -12 -11   4  105.29   20.20
  10  13   4   71.09   23.00
 -23  10   4   87.59   16.40
 -23  13  -4  133.89   26.90
  13 -23   4  104.09   19.70
  23 -10  -4   92.49   20.20
 -13  23  -4  110.89   19.90
 -13 -10   4  174.08   28.80
 -10  23   4   99.49   21.50
 -10 -13  -4   63.89   16.30
  23 -13   4   94.19   20.50
   0   0  -5    3.60   11.70
   0   0  -5    2.40    7.60
   0   0   5   10.00    8.60
   0   0   5   -5.20    7.70
   1  -1  -5   21.30    8.30
  -1   0  -5   29.50   12.50
  -1   0  -5   27.30    8.00
   0   1  -5   26.90    8.30
  -1   1   5   41.20    8.40
   0  -1   5   43.00    8.60
   1   0   5   37.00    8.50
   0  -1   5   40.40    8.50
   0   1  -5   32.60   12.70
   1  -1  -5   25.70   11.80
  -1   0   5  155.08   13.70
   0   1   5  142.09   14.00
   1  -1   5  160.98   13.90
  -1   1  -5  135.49   17.40
  -1   1  -5  142.89   28.40
   1   0  -5   94.29   17.00
  -1   0   5  144.39   13.50
   0  -1  -5   95.09   24.90
   1  -1   5  140.79   13.60
   0   1   5  122.29   13.60
   1  -1   5  134.49   13.70
   0  -1  -5   97.09   16.10
   1   0  -5  135.99   24.70
   2  -2  -5  481.95   35.60
  -2   0  -5  518.25   40.90
   0   2  -5  588.74   42.20
   2   0   5  574.74   34.90
   2   0   5  558.34   34.60
  -2   2   5  561.94   34.70
   0  -2   5  583.14   34.80
   0  -2   5  596.44   34.90
   0  -2   5  577.24   34.80
   2  -2  -5  586.74   37.10
   0   2  -5  598.44   37.40
  -2   2   5  568.84   34.60
  -2   0  -5  591.24   36.30
   1  -2   5  292.67   20.30
   1   1  -5  269.07   28.80
   1   1  -5  222.18   22.90
   1  -2   5  269.57   19.90
  -2   1  -5  271.07   28.60
  -2   1  -5  280.67   22.20
   1  -2   5  272.87   19.80
   1  -2  -5  233.88   22.10
   1  -2  -5  267.07   22.50
  -2   1   5  291.47   19.90
   1   1   5  288.27   19.90
   1   1   5  263.47   19.40
  -2   1   5  275.97   19.70
  -1  -1   5  280.57   19.70
   2  -1   5  286.17   20.10
  -1  -1   5  270.67   19.90
  -1   2   5  286.37   19.80
  -1   2   5  273.57   19.90
  -1   2  -5  273.07   22.40
   2  -1  -5  306.37   27.60
  -1  -1  -5  256.67   22.10
   2  -1   5  268.47   19.60
   2  -1  -5  259.57   22.60
  -1   2  -5  277.27   28.90
  -1  -1   5  267.97   20.00
  -1  -1  -5  249.58   28.10
  -1  -1  -5  260.67   22.40
  -2   2  -5   -0.30   12.30
   2  -2   5   29.80    8.10
   0  -2  -5   16.10    7.60
  -2   0   5   20.30    7.90
  -2   2  -5    8.40    8.10
   2   0  -5   14.60   11.70
   2   0  -5    1.90    7.90
   2  -2   5   21.80    7.80
   0   3  -5  293.87   30.50
   0  -3   5  284.97   22.20
  -3   3   5  286.67   23.60
   3  -3  -5  350.26   25.10
   0  -3   5  291.47   21.30
   0  -3   5  325.87   21.30
  -3   0  -5  252.37   28.70
  -3   3   5  307.77   21.50
  -3   3   5  332.57   21.60
   3  -3  -5  279.47   22.80
   3   0   5  228.68   25.00
   3   0   5  329.67   21.60
  -3   0  -5  302.67   23.20
  -3   0  -5  369.16   24.70
   0   3  -5  274.07   24.90
   2  -3  -5  153.78   17.90
   2   1   5  148.29   14.20
   1  -3   5  105.89   13.60
   2   1   5  114.19   13.40
  -3   2   5  139.79   14.40
   2  -3  -5   88.59   15.80
   1  -3   5  147.09   14.30
  -3   1  -5  120.19   16.20
   1  -3   5  107.39   14.70
  -3   2   5  160.18   14.00
  -2   3   5  125.89   16.20
  -1  -2   5  129.49   14.20
   3  -1   5  156.28   14.30
  -1  -2   5  103.29   14.90
  -2   3   5  126.69   13.90
  -1   3  -5   95.69   26.10
   3  -2  -5  110.49   17.60
  -2  -1  -5  122.19   16.30
  -2  -1  -5  154.08   18.30
  -2   3   5  148.89   14.00
  -1  -2   5  137.79   13.80
  -3   1   5  342.07   23.10
   1  -3  -5  332.17   24.80
   2   1  -5  337.77   31.80
   2  -3   5  377.46   23.40
   2  -3   5  337.27   23.50
  -3   2  -5  279.17   30.60
   1   2   5  321.97   22.50
   1   2   5  341.77   23.20
   2   1  -5  300.87   26.30
   1  -3  -5  364.16   25.70
  -3   1   5  372.36   23.10
   2  -3   5  314.57   22.60
  -3   2  -5  347.07   25.60
  -1  -2  -5  314.97   25.40
   3  -1  -5  330.27   30.40
  -2  -1   5  341.67   23.10
  -1  -2  -5  298.47   24.70
   3  -2   5  373.06   23.40
  -2  -1   5  337.37   23.20
   3  -1  -5  343.37   26.40
  -1   3   5  358.86   23.20
  -2  -1   5  302.77   23.00
  -2   3  -5  383.26   34.70
  -1   3   5  335.27   25.10
  -1   3   5  319.67   23.00
  -2   3  -5  329.47   36.90
  -3   3  -5  603.54   36.60
  -3   3  -5  600.84   40.90
   3  -3   5  523.85   34.00
  -3   0   5  548.05   34.40
   0  -3  -5  521.15   35.70
   0   3   5  505.75   34.20
  -3   0   5  542.95   34.20
   3  -3   5  568.14   34.70
   3  -3   5  547.55   34.50
   0   3   5  553.34   34.50
   3   0  -5  578.94   37.50
  -3   0   5  529.05   34.30
   0  -3  -5  583.84   36.60
   3   0  -5  539.25   41.50
   0  -4   5  229.68   18.40
   4  -4  -5  277.27   22.60
   0  -4   5  226.08   18.70
   0   4  -5  195.08   22.20
  -4   0  -5  226.08   19.40
  -4   4   5  228.58   21.40
  -4   4   5  274.97   19.00
   4  -4  -5  226.38   19.40
   0  -4   5  249.48   19.80
   0   4  -5  207.88   29.30
   4   0   5  263.57   19.00
   1   3  -5 1014.70   61.79
  -4   1  -5  922.21   55.79
   1  -4   5  944.91   54.99
   1  -4   5  926.61   54.99
  -4   1  -5  853.51   58.59
   3  -4  -5  853.31   55.39
  -4   3   5  931.61   54.79
   1  -4   5  969.60   55.49
   3   1   5  960.40   55.09
   3  -4  -5 1004.30   57.29
  -4   1  -5  976.80   56.49
  -4   3   5  935.91   54.99
   1   3  -5  981.70   57.89
  -4   3   5  888.41   56.69
  -1  -3   5  942.11   55.09
   4  -1   5  972.20   55.19
  -3  -1  -5  896.31   55.59
  -1   4  -5 1034.10   57.69
  -3   4   5  887.11   56.69
   4  -3  -5  965.40   57.39
  -1  -3   5  912.41   54.99
  -1  -3   5  952.80   55.39
  -3  -1  -5  863.01   59.39
  -3   4   5  957.00   54.99
   4  -3  -5  875.21   55.79
  -3  -1  -5  942.81   56.49
  -1   4  -5  955.30   60.89
  -3   4   5  925.81   54.99
   2   2   5  414.46   26.50
   2  -4  -5  443.96   29.60
   2  -4   5  416.46   27.10
  -4   2  -5  337.17   32.20
  -4   2   5  467.45   26.70
   2  -4   5  422.96   26.90
  -4   2  -5  377.46   28.50
   2  -4  -5  403.56   28.40
  -4   2   5  414.86   27.20
   2   2   5  437.46   27.20
   2  -4   5  397.56   27.90
   2   2  -5  386.16   30.50
   4  -2   5  429.46   27.40
  -2  -2   5  397.96   27.60
  -2   4   5  409.16   27.10
  -2   4   5  442.76   27.00
   4  -2  -5  401.86   30.20
  -2  -2   5  417.26   27.10
  -2  -2  -5  394.76   28.40
  -2   4  -5  460.45   30.00
  -2   4   5  397.56   29.20
  -2  -2   5  401.26   26.80
  -2   4  -5  455.05   34.70
  -2  -2  -5  413.46   29.40
   1   3   5  111.79   12.60
   1  -4  -5  100.19   16.40
  -4   1   5  105.79   12.90
   1  -4  -5  109.09   15.50
   3  -4   5   72.59   13.40
   3  -4   5  100.59   13.10
  -4   1   5   81.79   11.40
   3  -4   5   65.79   11.60
  -4   3  -5   55.69   15.20
  -1  -3  -5   92.29   15.20
  -1  -3  -5  105.09   16.20
  -3  -1   5   97.79   13.00
  -1   4   5   86.79   12.70
  -3  -1   5   52.69   10.00
   4  -3   5   84.79   12.60
  -3   4  -5   51.99   20.80
  -1   4   5   62.09   15.10
   4  -3   5   98.99   13.40
   4  -1  -5   50.29   13.00
  -3  -1   5  101.99   12.20
  -3   4  -5   86.89   24.10
   0   4   5  385.36   25.30
  -4   4  -5  430.06   27.70
   4   0  -5  361.46   28.60
  -4   0   5  407.96   25.20
   4  -4   5  406.96   25.60
   0  -4  -5  366.36   27.70
   0  -4  -5  391.96   27.50
   0   4   5  362.16   25.00
  -4   0   5  363.56   25.00
   4   0  -5  338.27   33.80
   4  -4   5  378.06   25.60
   0   4   5  330.17   27.00
  -4   4  -5  384.56   31.40
  -4   0   5  319.27   24.70
  -5   5   5 1240.38   79.29
   5  -5  -5 1212.88   77.79
  -5   0  -5 1375.36   78.99
  -5   5   5 1327.07   77.69
   0   5  -5 1376.66   80.19
   0  -5   5 1403.36   78.09
   5  -5  -5 1375.56   79.89
   5   0   5 1365.46   77.69
  -5   5   5 1289.27   77.59
   0  -5   5 1324.77   77.59
   0   5  -5 1421.86   83.29
   0  -5   5 1398.26   77.69
   4   1   5  564.54   34.60
  -5   4   5  597.24   34.40
   1  -5   5  583.44   35.20
   4  -5  -5  555.34   36.70
  -5   4   5  567.84   34.50
  -5   4   5  509.15   36.20
   1  -5   5  563.04   34.20
   1   4  -5  488.55   37.10
   1  -5   5  541.65   34.20
   1   4  -5  540.05   42.90
   4  -5  -5  544.25   35.30
  -1  -4   5  562.94   35.00
  -1   5  -5  562.14   37.40
  -4   5   5  550.34   34.20
  -1  -4   5  516.45   34.10
   5  -4  -5  590.84   37.40
   5  -1   5  559.94   34.40
   5  -4  -5  530.95   34.60
  -4   5   5  503.45   36.20
  -4  -1  -5  581.24   36.80
  -4   5   5  555.84   34.30
  -1   5  -5  549.35   41.40
  -1  -4   5  532.25   34.20
   2   3  -5  221.88   24.50
   2   3  -5  230.08   30.00
  -5   3   5  244.48   22.90
   2  -5   5  273.87   21.40
   3   2   5  313.07   20.80
   3  -5  -5  313.47   22.60
  -5   3   5  331.47   20.80
   2  -5   5  286.17   20.30
  -5   2  -5  245.58   21.20
   2  -5   5  265.87   20.70
  -5   3   5  309.77   20.90
   3  -5  -5  297.97   23.70
  -3  -2  -5  308.57   23.60
  -2   5  -5  289.67   24.00
   5  -3  -5  237.28   21.80
   5  -2   5  315.87   21.00
  -2  -3   5  252.27   20.20
  -3   5   5  261.57   23.00
  -3   5   5  317.97   20.90
  -2   5  -5  264.17   28.80
   5  -3  -5  280.07   23.90
  -2  -3   5  287.07   20.80
  -2  -3   5  295.27   21.60
  -3  -2  -5  273.67   21.50
  -3   5   5  287.77   20.80
   3  -5   5  713.93   43.90
   2   3   5  690.33   43.10
   3  -5   5  739.83   43.60
   3   2  -5  744.03   46.90
   2   3   5  753.52   43.60
  -5   3  -5  712.33   44.80
   2  -5  -5  748.63   45.60
   3   2  -5  656.93   50.59
  -5   2   5  751.52   43.50
   3  -5   5  678.93   43.00
   2  -5  -5  719.03   44.70
  -5   3  -5  645.54   46.90
  -5   2   5  747.63   43.50
  -2  -3  -5  744.23   45.10
  -3  -2   5  747.83   43.90
  -3  -2   5  739.13   43.70
  -3   5  -5  803.82   46.30
  -2   5   5  691.13   43.40
  -2   5   5  699.63   43.40
   5  -3   5  751.32   43.70
   5  -2  -5  709.23   45.90
  -2   5   5  685.43   45.30
  -3   5  -5  744.13   49.70
  -3  -2   5  691.03   43.40
  -2  -3  -5  736.43   44.60
  -5   4  -5  605.54   36.80
  -5   1   5  564.84   34.60
   1   4   5  544.15   35.90
   4   1  -5  521.25   43.40
   4  -5   5  571.64   35.30
   4  -5   5  549.65   34.70
  -5   1   5  587.54   34.40
  -5   4  -5  542.65   39.20
   1  -5  -5  606.24   37.10
   4   1  -5  525.25   37.50
   1  -5  -5  546.65   36.30
  -5   1   5  522.65   34.00
   1   4   5  559.24   34.50
   1   4   5  548.15   34.60
   5  -4   5  564.74   34.60
   5  -1  -5  548.45   41.50
  -4  -1   5  569.24   35.00
  -4   5  -5  596.14   39.30
  -4  -1   5  559.34   34.60
  -1   5   5  556.74   34.70
  -4   5  -5  553.14   49.90
  -4  -1   5  546.75   34.50
   5  -4   5  573.14   34.90
  -1  -4  -5  571.74   36.40
  -1   5   5  541.05   34.60
   5  -1  -5  545.45   37.70
  -1  -4  -5  534.85   36.50
  -1   5   5  529.95   36.40
  -5   0   5   71.09   13.40
   0   5   5  111.39   13.10
   5   0  -5   62.09   14.90
   0   5   5   79.99   13.60
  -5   0   5   92.29   13.50
   5   0  -5   64.09   17.70
   0  -5  -5   85.59   17.00
   5  -5   5  119.49   14.10
  -5   5  -5  105.69   16.50
   5  -5   5   94.59   14.40
  -5   0   5  112.09   12.60
   0  -5  -5  114.59   19.40
   0   5   5   97.59   24.20
   6  -6  -5   28.70   11.40
   6   0   5   26.00    9.90
   0  -6   5   23.40    9.90
   0  -6   5   29.00    9.20
  -6   6   5   55.99   14.90
   0  -6   5   14.40    9.20
   1  -6   5  558.64   36.90
  -6   5   5  605.44   37.30
  -6   5   5  529.15   38.80
  -6   1  -5  629.84   39.90
   1   5  -5  590.54   40.30
   1  -6   5  635.54   37.70
   1  -6   5  619.34   37.10
   5  -6  -5  630.64   40.10
   5   1   5  630.64   37.50
   5  -6  -5  541.85   37.40
  -6   5   5  632.24   37.20
   1   5  -5  590.14   44.60
  -5   6   5  609.84   37.20
  -1   6  -5  626.24   44.90
  -5  -1  -5  649.93   39.80
  -1   6  -5  610.34   40.40
  -1  -5   5  627.94   37.90
  -1  -5   5  634.24   37.30
   6  -1   5  612.64   37.50
   6  -5  -5  610.94   40.00
  -1  -5   5  540.55   36.80
   6  -5  -5  525.85   38.70
  -5   6   5  630.64   37.20
  -5   6   5  558.54   39.10
   2  -6   5  686.83   42.20
  -6   2  -5  800.82   45.00
  -6   4   5  735.93   42.50
   2   4  -5  715.63   45.70
   4  -6  -5  726.13   45.00
   2   4  -5  704.83   50.79
  -6   4   5  715.93   42.80
   4   2   5  689.63   42.90
   4  -6  -5  678.03   43.10
   2  -6   5  748.73   43.30
   2  -6   5  691.13   42.50
  -6   4   5  613.24   43.90
   6  -4  -5  718.23   45.10
  -2   6  -5  705.93   49.30
  -2   6  -5  754.32   45.80
  -4   6   5  705.73   42.70
  -4   6   5  630.94   44.20
  -4   6   5  663.73   42.40
  -4  -2  -5  745.13   44.60
  -2  -4   5  630.64   42.40
  -2  -4   5  679.93   42.60
   6  -2   5  712.23   42.90
  -2  -4   5  742.83   43.20
   3  -6  -5  386.46   28.40
   3  -6   5  386.66   25.50
  -6   3   5  343.97   27.70
  -6   3   5  420.86   25.00
  -6   3   5  381.56   25.70
   3   3   5  398.26   25.60
   3  -6   5  375.06   26.10
   3   3  -5  367.46   29.40
   3  -6  -5  375.96   26.30
   3   3  -5  324.57   34.10
  -3   6   5  369.56   27.60
   6  -3   5  380.96   25.70
  -3  -3   5  386.76   25.80
  -3  -3   5  319.57   25.20
  -3  -3  -5  385.46   26.80
  -3  -3  -5  396.06   28.50
   6  -3  -5  360.06   28.40
  -3   6  -5  394.86   33.10
  -3   6   5  397.56   25.50
  -3   6   5  363.46   25.50
  -3  -3   5  386.66   26.00
  -3   6  -5  404.66   29.00
   4  -6   5  284.57   20.20
  -6   4  -5  250.57   21.40
   4   2  -5  233.18   30.10
  -6   2   5  265.17   20.50
   2  -6  -5  296.87   23.80
  -6   2   5  304.07   19.50
   4  -6   5  255.07   21.10
   2   4   5  250.77   19.50
  -6   4  -5  235.08   21.50
   4   2  -5  260.57   24.50
   2  -6  -5  264.77   21.60
   2   4   5  244.28   20.80
   2   4   5  266.17   20.40
  -4  -2   5  246.48   19.60
  -2  -4  -5  281.07   22.10
  -4   6  -5  260.77   28.10
  -4  -2   5  255.17   20.40
   6  -2  -5  266.37   23.40
  -2   6   5  227.18   22.10
   6  -4   5  270.37   20.40
  -2   6   5  266.27   20.10
  -2  -4  -5  294.47   23.80
  -4  -2   5  288.07   20.90
  -2   6   5  278.07   20.10
  -4   6  -5  287.77   23.80
   1   5   5  210.18   15.80
   5  -6   5  175.18   17.40
  -6   1   5  170.38   15.70
   5   1  -5  179.78   28.70
   1   5   5  196.28   16.50
  -6   5  -5  200.48   18.30
   5   1  -5  184.08   20.00
  -6   1   5  176.68   16.80
   1  -6  -5  223.08   20.20
   1   5   5  181.98   18.30
  -6   5  -5  208.58   19.60
   1  -6  -5  188.88   18.30
   5  -6   5  179.18   17.00
  -6   5  -5  131.69   21.50
  -1   6   5  168.28   16.50
  -1  -5  -5  203.78   19.40
   6  -5   5  187.98   17.10
   6  -1  -5  154.68   20.40
  -5  -1   5  194.48   16.60
  -5   6  -5  203.28   26.80
  -1   6   5  145.89   16.20
   6  -5   5  196.98   16.80
  -5  -1   5  172.58   17.20
   6  -1  -5  195.18   26.50
  -1   6   5  152.98   18.50
  -1  -5  -5  179.98   19.40
   0  -6  -5  163.78   27.00
   6   0  -5  159.08   26.30
  -6   6  -5  137.19   18.40
   6  -6   5  127.39   15.20
  -6   6  -5  137.99   17.40
  -6   0   5  118.79   15.10
   0   6   5  134.29   14.80
   6   0  -5  108.49   18.40
   0   6   5  111.29   17.50
   6  -6   5  129.09   15.20
  -6   0   5  154.78   14.80
   0   6   5   90.09   14.30
   0  -6  -5  132.69   17.30
   0  -7   5  133.39   17.30
   0   7  -5  108.49   26.50
  -7   7   5  164.78   16.50
  -7   0  -5  149.29   20.40
   7  -7  -5  142.19   18.90
   0  -7   5  154.68   15.00
   7   0   5  144.19   16.40
   0   7  -5  134.49   19.80
  -7   7   5  168.28   14.70
   1  -7   5  516.85   35.00
  -7   1  -5  589.04   38.20
   1   6  -5  553.04   38.70
   1   6  -5  578.14   42.80
   6   1   5  534.75   35.40
   1  -7   5  562.84   36.00
  -7   6   5  540.95   34.70
  -7   6   5  568.94   35.50
  -7   6   5  514.75   37.40
   6  -7  -5  564.24   37.70
   1  -7   5  536.65   34.90
   7  -6  -5  571.44   37.80
  -6  -1  -5  589.94   37.80
  -6   7   5  515.65   37.30
  -1  -6   5  591.24   35.30
  -1   7  -5  602.84   42.90
  -1  -6   5  498.95   34.80
   7  -1   5  573.14   35.80
  -1   7  -5  603.04   38.80
  -6   7   5  561.74   35.30
  -1  -6   5  620.94   36.30
  -6   7   5  577.14   35.30
  -7   2  -5   51.79   13.00
   2   5  -5   16.20   13.50
   5  -7  -5   69.79   13.50
   2  -7   5   25.90    9.20
  -7   5   5   27.60    8.50
   2   5  -5   10.50    9.10
   2  -7   5   31.70    9.20
   5   2   5   31.20    9.70
  -2   7  -5   19.50   12.20
   7  -2   5   34.60   10.00
  -5  -2  -5   32.40   12.40
  -2   7  -5   17.20    9.20
  -2  -5   5   11.50    9.10
  -2  -5   5   29.90   10.50
  -2  -5   5   31.00    9.30
  -5   7   5   11.90    7.70
   4   3   5  242.88   19.30
  -7   4   5  248.48   19.70
   3  -7   5  235.08   20.20
   3   4  -5  268.97   29.50
   3  -7   5  225.18   18.90
  -7   4   5  207.28   20.50
   4  -7  -5  263.17   20.30
   4  -7  -5  277.77   22.30
  -7   3  -5  225.08   22.50
   3   4  -5  235.48   22.70
  -3   7  -5  214.68   28.30
  -3   7  -5  245.38   23.00
  -4  -3  -5  231.98   23.60
  -4   7   5  207.38   21.60
   7  -4  -5  251.27   22.80
  -4   7   5  242.58   18.70
  -4   7   5  225.88   19.50
   7  -3   5  248.98   19.90
  -3  -4   5  267.27   20.50
  -3  -4   5  250.97   19.10
   3  -7  -5  258.87   21.90
   4  -7   5  237.88   19.10
   3   4   5  222.28   18.30
   4   3  -5  227.08   22.70
   3  -7  -5  227.98   19.60
  -7   3   5  213.08   18.60
   4  -7   5  220.88   18.20
   4   3  -5  197.08   28.20
  -3   7   5  215.38   18.10
  -3  -4  -5  225.48   21.90
   7  -3  -5  182.98   21.60
  -3   7   5  204.58   18.10
  -4  -3   5  223.68   18.50
   7  -4   5  220.68   18.60
  -4   7  -5  227.08   21.90
  -4   7  -5  221.68   22.00
  -4   7  -5  159.48   26.70
  -3   7   5  203.68   20.30
  -4  -3   5  233.18   19.30
   2  -7  -5  152.68   18.60
   5   2  -5  104.19   26.10
   5   2  -5  100.39   18.90
   2   5   5  111.99   14.40
   5  -7   5  103.29   15.50
   2  -7  -5  116.89   16.30
   2   5   5  150.78   13.50
   2   5   5   90.19   15.50
   5  -7   5  102.39   14.40
  -7   2   5  125.59   14.80
  -7   5  -5  115.39   16.30
  -5  -2   5  108.29   14.80
  -5   7  -5   88.29   21.90
   7  -5   5  110.99   15.30
  -2   7   5  106.39   13.80
  -2  -5  -5  100.29   17.50
  -2  -5  -5   65.99   18.40
  -5   7  -5  108.19   18.50
   7  -2  -5  111.99   17.40
  -2   7   5  125.19   16.80
  -5   7  -5  134.99   18.70
  -2   7   5  109.79   14.20
   7  -5   5  115.29   13.60
  -5  -2   5  103.49   15.10
   1   6   5   26.60    9.50
   1   6   5   -8.30    8.80
  -7   6  -5    9.80    8.00
   1  -7  -5   18.80    8.90
  -7   6  -5   -3.20   10.00
   6  -7   5   14.10    9.90
   6   1  -5   13.90    8.20
   1  -7  -5   15.50   10.70
   1   6   5    1.60    7.70
  -7   1   5    8.00    8.90
  -7   1   5    2.10    7.70
   6   1  -5   18.50   13.10
   6  -7   5    5.30    9.30
  -7   6  -5   -1.50    9.20
   7  -6   5    9.70   10.00
  -1   7   5   15.60    7.70
  -6  -1   5   14.70    9.60
  -1   7   5    9.90    8.60
  -1  -6  -5    1.40    8.90
  -1   7   5   11.20    9.20
   7  -1  -5   14.50   12.00
   7  -6   5   20.80    8.60
  -6   7  -5    8.50   11.70
  -6  -1   5   26.60    9.40
  -1  -6  -5   11.60   11.30
  -6   7  -5   14.90   16.70
   7  -7   5    4.50    8.90
   0  -7  -5    4.10    8.90
   7   0  -5   -6.10    8.50
   0   7   5    8.90    8.70
  -7   7  -5  -20.80   10.10
   0   7   5   -2.80    9.60
   7  -7   5    7.60    9.90
   7   0  -5   23.60   13.70
   7   0  -5   -5.70   20.70
  -7   7  -5    7.10    8.30
  -7   0   5   -8.20    8.80
   0  -7  -5    4.60   10.60
   0   7   5    0.90    7.50
  -7   0   5    2.00    8.40
   0   8  -5  202.88   22.40
  -8   0  -5  218.88   23.10
   8  -8  -5  209.48   21.40
  -8   8   5  234.58   18.80
   0  -8   5  220.28   18.10
   0  -8   5  166.08   17.50
   0   8  -5  224.08   28.40
   8   0   5  202.78   18.80
   0  -8   5  230.38   19.60
  -8   1  -5  162.48   21.90
  -8   7   5  165.48   17.10
   7  -8  -5  149.29   20.20
   1  -8   5  126.49   15.50
   1   7  -5  166.18   20.30
  -8   7   5  181.18   19.00
   7   1   5  150.48   17.20
   1   7  -5  177.08   26.70
   1  -8   5  179.18   18.20
   8  -7  -5  160.28   20.30
  -1  -7   5  161.58   17.90
  -1   8  -5  173.68   27.00
  -7   8   5  190.88   15.70
  -1  -7   5  173.58   16.20
   8  -1   5  177.08   17.30
  -7  -1  -5  167.38   22.00
  -7   8   5  186.28   17.60
  -7   8   5  154.48   19.10
  -1   8  -5  153.48   19.90
   2  -8   5  162.08   16.80
   2   6  -5  164.08   21.40
  -8   6   5  200.88   17.80
  -8   6   5  164.68   20.00
  -8   2  -5  217.78   22.20
   2   6  -5  200.68   27.20
   6   2   5  192.18   17.90
   6  -8  -5  212.08   21.40
   2  -8   5  198.58   18.60
  -6   8   5  199.28   17.50
  -2   8  -5  205.38   27.40
  -6   8   5  208.28   18.00
  -6  -2  -5  201.58   22.10
  -2  -6   5  218.78   17.80
  -6   8   5  186.88   19.70
  -2  -6   5  188.78   18.60
  -2   8  -5  205.28   20.70
   8  -2   5  190.78   18.10
   8  -6  -5  181.18   21.50
   3  -8   5  393.36   27.50
   3  -8   5  404.56   28.20
  -8   5   5  402.86   27.90
   3   5  -5  391.06   37.70
  -8   3  -5  419.36   30.90
   5  -8  -5  381.36   28.60
   5  -8  -5  399.86   31.10
   3   5  -5  404.66   31.00
   5   3   5  394.56   28.10
  -8   5   5  368.36   29.80
  -5  -3  -5  421.26   31.40
   8  -5  -5  451.55   30.90
  -5   8   5  432.16   27.70
  -3   8  -5  422.16   36.20
  -3   8  -5  442.56   30.80
  -5   8   5  396.86   30.20
  -5   8   5  430.96   28.00
  -3  -5   5  436.56   27.70
   8  -3   5  444.36   28.30
  -3   8  -5  466.55   31.80
  -3  -5   5  445.66   28.90
   4   4  -5   62.79   17.10
   4  -8   5   29.20    9.60
  -8   4   5   27.20    8.50
   4  -8   5   40.90   10.20
  -8   4   5   66.49   13.40
   4   4   5   39.40   10.20
   4  -8  -5   44.30   10.20
   4   4  -5   43.00   14.20
  -4  -4  -5   50.79   13.00
  -4  -4   5   80.49   13.00
   8  -4   5   49.20   11.10
  -4   8   5   42.50    9.80
   8  -4  -5   72.99   16.30
  -4   8  -5   60.99   16.70
  -4   8   5   23.80    9.10
  -4   8  -5   24.50   12.70
  -4  -4   5   56.09   10.60
  -4   8   5   65.69   12.20
  -4   8  -5   34.40   14.30
   3  -8  -5   63.19   11.40
   3   5   5   73.89   13.70
   3   5   5   63.49   13.60
   5   3  -5   46.10   14.20
   5  -8   5   75.29   14.20
   5  -8   5   59.49   13.10
  -8   3   5   60.89   11.00
  -5  -3   5   81.49   12.10
  -3   8   5   67.39   10.90
  -3   8   5   72.39   13.20
  -3  -5  -5   75.99   13.20
  -5  -3   5   66.79   13.60
  -5   8  -5   70.29   14.10
   8  -5   5   78.59   14.40
  -3   8   5   66.69   16.00
   8  -3  -5   76.79   22.50
  -5   8  -5   89.99   17.40
   6   2  -5   27.90    9.70
   2  -8  -5   41.30   11.10
  -8   2   5   45.90    9.60
   2   6   5   46.20    9.50
   2  -8  -5   71.19   17.60
   2   6   5   32.50    8.20
   6  -8   5   41.00    9.80
   6   2  -5   24.40   14.10
   6  -8   5   47.10   10.80
   6   2  -5   87.09   22.00
   2   6   5   29.90   10.20
   8  -6   5   62.49   12.10
  -2  -6  -5   18.70   10.60
   8  -2  -5   59.09   16.20
  -6  -2   5   78.89   15.00
  -2  -6  -5   55.49   12.80
  -6   8  -5   39.90    9.50
   8  -6   5   63.89   11.50
  -6   8  -5   50.19   13.50
  -6  -2   5   58.39   10.10
   8  -2  -5   70.69   22.20
  -2   8   5   29.70    9.20
  -2   8   5   53.49   10.10
  -2   8   5   59.09   12.50
   7   1  -5  100.09   24.00
  -8   1   5   75.09   14.10
  -8   7  -5   91.99   16.60
   1   7   5   77.59   13.70
   1  -8  -5   54.69   12.20
   7   1  -5   89.39   17.30
   7  -8   5   77.49   14.40
   7  -8   5   82.09   14.50
   1   7   5  108.89   25.60
   7   1  -5   96.39   25.40
   1   7   5   84.69   13.00
  -7   8  -5   51.69   12.90
   8  -7   5   85.59   13.90
   8  -7   5   77.49   14.90
  -1   8   5   77.69   14.20
  -7   8  -5   71.19   17.00
  -7  -1   5   80.39   13.80
   8  -1  -5   55.39   14.30
  -7  -1   5   81.99   14.40
  -1   8   5   82.69   13.40
   8  -1  -5  114.09   24.50
  -1  -7  -5   68.49   12.90
  -8   8  -5   13.90    9.00
   0   8   5   15.30    9.60
   8  -8   5   25.50   10.70
  -8   0   5   20.10    9.60
   0  -8  -5   19.90   11.20
   8   0  -5    5.30   21.60
   0   8   5    6.10    8.60
   8  -8   5   22.50    9.30
   0   8   5   18.40   10.80
   0  -9   5  133.59   17.20
   0   9  -5  108.09   27.30
  -9   0  -5  125.39   19.40
   9   0   5  115.09   16.40
   0   9  -5  141.89   18.70
  -9   9   5  106.29   16.60
   1   8  -5   -2.30    9.00
   1  -9   5    2.00    9.40
   8  -9  -5   17.40    8.90
   1   8  -5   20.10   12.60
  -9   8   5    4.60    9.40
  -9   1  -5   -9.80   19.60
   1  -9   5   -4.90    9.40
  -1   9  -5   -5.10   13.40
  -8  -1  -5    8.60   13.60
  -1  -8   5   24.50    9.30
   9  -8  -5   15.90    8.70
  -8   9   5   10.30    9.90
  -8   9   5   15.40    7.80
  -1   9  -5   23.60    9.10
  -1  -8   5   26.00   11.20
   2   7  -5  129.19   25.30
   2  -9   5  113.39   16.40
   7   2   5  107.29   18.00
   7  -9  -5  111.39   19.00
   2   7  -5   86.69   18.80
  -9   2  -5   87.39   15.60
  -9   7   5  101.89   15.70
  -9   7   5   86.79   17.60
   2  -9   5   85.79   13.90
  -2  -7   5  131.89   16.70
  -2  -7   5  103.89   14.60
  -2   9  -5   74.59   15.90
   9  -7  -5  102.99   18.00
  -7  -2  -5   95.89   15.50
  -2   9  -5  107.39   18.60
  -2   9  -5  110.19   21.60
  -7   9   5  115.69   15.40
  -7   9   5   96.09   17.90
  -7   9   5  131.89   16.50
   9  -7  -5   99.39   22.70
   9  -2   5   99.69   15.90
   3  -9   5   83.49   14.60
   3   6  -5   25.70   14.50
  -9   6   5   52.09   14.40
  -9   3  -5   53.89   14.60
  -9   6   5   68.59   14.20
   3   6  -5   76.29   17.60
   6  -9  -5   80.29   18.00
   6   3   5   65.29   13.60
   3  -9   5   49.70   10.30
  -3   9  -5   43.80   10.70
  -3   9  -5   64.79   15.60
   9  -6  -5   35.80   10.00
  -3  -6   5   80.69   15.50
  -3   9  -5   28.60   13.10
   9  -6  -5   43.50   21.50
   9  -3   5   60.09   11.90
  -6  -3  -5   73.39   14.20
  -6   9   5   78.29   13.40
  -6   9   5   34.50    9.80
   4   5  -5  304.57   27.40
  -9   5   5  278.67   25.50
   4   5  -5  309.87   35.30
   4  -9   5  352.96   24.40
  -9   5   5  333.57   24.30
   5  -9  -5  357.46   28.00
   5   4   5  340.57   24.50
  -9   4  -5  336.17   27.40
   4  -9   5  292.57   23.70
   5  -9  -5  330.47   24.90
  -4  -5   5  345.87   23.90
  -5  -4  -5  350.76   27.00
  -5   9   5  352.96   24.40
  -4   9  -5  358.16   28.90
  -4   9  -5  404.96   32.70
   9  -5  -5  345.07   34.10
   9  -4   5  338.27   25.00
  -5   9   5  316.27   27.00
  -5   9   5  356.26   23.90
   9  -5  -5  307.37   27.00
  -4  -5   5  370.26   25.30
   4  -9  -5  132.29   19.10
   5   4  -5  195.48   21.00
   4  -9  -5  234.68   21.70
   5   4  -5  150.18   29.50
   5  -9   5  178.08   18.20
   5   4  -5  198.28   29.30
  -9   4   5  171.68   19.60
   5  -9   5  177.68   17.30
   4   5   5  211.38   17.60
  -9   4   5  194.78   17.60
  -4  -5  -5  178.18   20.70
  -5  -4   5  224.58   19.40
  -4   9   5  180.18   17.00
   9  -4  -5  197.58   20.60
  -4   9   5  187.28   20.90
  -5   9  -5  220.28   22.00
  -4   9   5  187.58   18.10
   9  -4  -5  196.88   29.80
  -5   9  -5  168.18   26.20
   9  -5   5  199.18   18.70
  -5  -4   5  183.98   17.20
   3  -9  -5  111.89   19.10
   3   6   5   81.59   15.10
   6   3  -5   64.79   18.40
  -9   3   5   87.09   14.60
   6  -9   5   87.89   14.90
   3  -9  -5   70.69   12.80
   6   3  -5   67.49   16.90
   6   3  -5  154.28   30.70
   3   6   5   96.79   14.50
   6  -9   5  101.89   14.90
  -3   9   5   74.49   14.00
   9  -3  -5   98.59   23.00
   9  -6   5   98.39   15.30
  -6  -3   5  103.39   14.50
  -3   9   5   87.29   15.10
  -3  -6  -5   93.29   17.50
  -6   9  -5   94.49   18.30
   9  -3  -5   69.39   17.30
  -6  -3   5  115.69   16.30
  -3   9   5   98.89   17.10
   7   2  -5  133.99   25.00
   7  -9   5  102.79   15.70
   2  -9  -5  110.69   17.20
  -9   2   5  153.18   15.30
   2   7   5  133.99   16.00
   2   7   5  118.59   16.90
   2   7   5  109.89   14.80
   2  -9  -5  107.59   20.30
   7  -9   5   96.79   15.90
  -7  -2   5  135.99   17.60
  -2  -7  -5  123.19   18.20
  -2   9   5  113.59   14.60
   9  -7   5  133.09   16.90
  -7   9  -5   82.99   15.10
  -7  -2   5  121.49   15.60
  -2   9   5  114.99   18.00
  -2   9   5  125.49   16.20
   9  -7   5  121.39   14.40
   9  -2  -5  112.39   23.40
  -9   8  -5  668.03   41.00
  -9   1   5  668.83   39.10
   8  -9   5  650.53   39.00
   1  -9  -5  542.75   43.90
   1   8   5  650.53   38.60
   1   8   5  575.04   40.50
   1  -9  -5  594.24   39.60
   1   8   5  598.34   38.30
  -9   8  -5  538.45   41.30
   8   1  -5  677.83   46.20
  -8   9  -5  525.55   39.10
  -1  -8  -5  634.34   39.90
  -1   9   5  608.44   38.70
  -1   9   5  599.74   40.60
   9  -1  -5  666.03   46.00
  -1   9   5  629.04   38.30
   9  -8   5  652.53   39.30
  -8   9  -5  536.15   42.70
  -8  -1   5  647.24   39.20
  -9   9  -5  480.15   35.80
   0   9   5  530.35   37.40
   0   9   5  532.05   35.50
  -9   0   5  569.64   36.20
   9  -9   5  588.04   35.20
   0  -9  -5  539.65   36.50
   9   0  -5  636.34   43.50
   9  -9   5  557.64   35.90
  10   0   5  -11.70   12.00
 -10   0  -5  -16.70   13.40
  10 -10  -5  -27.50   20.60
 -10  10   5  -16.30   10.50
   9   1   5   32.50   11.60
 -10   1  -5   19.40   14.10
 -10   9   5   29.00   15.40
   1 -10   5   31.30   17.40
  -1  -9   5   23.60   11.80
  10  -9  -5    1.80   23.00
  -1  10  -5   -7.30   15.00
  -9  -1  -5   20.70   14.30
  -9  10   5   27.10   11.10
  10  -1   5   16.10   13.00
 -10   2  -5  -17.70   13.10
   2 -10   5    7.90   11.10
   8   2   5    0.30   12.00
   8 -10  -5    3.80   11.00
  10  -8  -5  -17.20   20.20
  -2  10  -5   -8.00   12.80
  -8  -2  -5   -5.10   17.00
  10  -2   5    4.90   11.40
  -2  -8   5    4.10   10.80
  -2  10  -5  -19.90   14.70
  -8  10   5    0.20   10.80
  -2  -8   5   24.10   10.10
 -10   7   5   84.99   15.70
 -10   3  -5   75.89   15.70
   3 -10   5   74.79   15.30
   7   3   5   77.59   13.10
   3 -10   5   81.89   15.70
  -3  -7   5   78.79   14.20
  -7  10   5  102.79   16.00
  10  -7  -5   74.39   29.40
  -3  10  -5   88.89   17.20
  -7  -3  -5   88.19   15.30
  -7  10   5   67.59   18.20
  -3  -7   5   87.49   13.40
  -3  10  -5  133.19   24.90
  -7  10   5  118.59   15.50
   6   4   5  200.28   27.10
   4   6  -5  265.57   32.20
   4 -10   5  264.37   21.70
   6 -10  -5  253.67   24.60
   4 -10   5  232.38   20.10
 -10   6   5  261.67   21.10
 -10   4  -5  243.28   31.60
  -6  -4  -5  256.27   24.30
  -4  10  -5  275.37   30.70
  -6  10   5  267.67   23.90
  -4  -6   5  254.97   22.80
  10  -6  -5  241.18   41.30
  -4  10  -5  278.27   25.50
  10  -4   5  267.07   21.90
  -6  10   5  281.67   21.80
  -4  -6   5  277.37   20.50
   5 -10   5   82.09   15.10
   5 -10   5   80.69   15.40
 -10   5  -5  101.69   22.00
 -10   5   5   99.89   16.00
   5 -10  -5  113.59   16.80
   5   5  -5   82.39   24.30
   5 -10  -5  117.09   19.20
  10  -5  -5  139.19   27.30
  -5  10   5  108.49   17.90
  -5  10  -5  100.49   20.10
  -5  -5   5   75.39   13.40
  -5  10   5  114.69   16.50
  -5  -5   5   90.29   14.40
  -5  -5  -5  104.19   19.30
  10  -5   5   95.99   16.50
   4 -10  -5  422.76   29.10
 -10   4   5  418.86   33.60
   4 -10  -5  395.26   32.40
   6   4  -5  461.85   37.50
   6 -10   5  384.16   27.90
  -6  -4   5  403.16   29.50
  -6  -4   5  396.66   28.40
  -4  10   5  414.06   30.50
  10  -6   5  425.86   29.00
  -6  10  -5  382.86   35.10
  -6  10  -5  431.86   30.60
  -4  10   5  426.36   28.70
  -4  -6  -5  396.16   30.70
  10  -4  -5  415.56   37.20
   7 -10   5  168.28   18.30
   3 -10  -5  196.48   19.30
   7   3  -5  244.68   29.20
   7 -10   5  194.38   19.50
   3 -10  -5  148.79   23.20
  -3  10   5  185.08   21.10
  -3  -7  -5  181.48   20.10
  -7  -3   5  215.98   20.00
  10  -3  -5  256.87   29.60
  -7  10  -5  154.18   25.10
  -7  10  -5  157.58   22.00
  10  -7   5  187.48   18.90
  -3  10   5  182.38   18.80
   8   2  -5  312.17   32.20
 -10   2   5  293.07   21.40
   2 -10  -5  284.67   22.90
   8 -10   5  286.47   22.10
   8 -10   5  267.97   21.90
  -8  10  -5  209.38   27.70
  -2  10   5  237.88   24.90
  -2  -8  -5  269.67   23.30
  10  -8   5  284.67   20.60
  -8  -2   5  287.57   21.80
  10  -8   5  285.87   22.80
  -2  -8  -5  223.18   34.00
  -2  10   5  255.37   22.30
  10  -2  -5  298.07   31.50
  -8  10  -5  225.98   23.30
  -8  -2   5  310.37   23.00
   1   9   5   53.89   11.80
   9   1  -5   73.69   23.60
   9 -10   5   56.09   12.60
   1 -10  -5   49.30   12.50
   9 -10   5   51.19   11.10
   1   9   5   49.90   11.70
   1   9   5   82.19   16.90
  -1  10   5   51.79   12.10
  -1  -9  -5   49.90   13.20
  10  -1  -5   83.29   22.70
  -1  10   5   73.09   13.40
  10  -9   5   69.29   14.00
  10  -9   5   50.19   12.60
  -9  10  -5   19.10   12.50
  10 -10   5  436.16   29.10
  10 -10   5  427.86   27.70
   0  10   5  399.16   27.40
   0  10   5  390.76   29.20
  10   0  -5  427.36   37.40
 -10   0   5  437.86   28.00
   0 -10  -5  359.36   29.60
   0  10   5  334.67   31.00
 -11  11   5   14.30   11.30
  11 -11  -5   -1.60   20.50
   0 -11   5    1.30   11.00
 -11   0  -5   -0.20   14.10
  11   0   5   -0.50   12.20
   0  11  -5   -2.50   15.20
 -11   1  -5   20.20   14.50
  10   1   5   23.50   13.10
  10 -11  -5   -7.90   22.20
 -11  10   5   27.90   11.40
   1 -11   5   20.30   11.60
  11  -1   5   20.20   12.20
  -1  11  -5   30.90   17.40
 -10  11   5   26.90   10.90
  -1 -10   5   33.60   12.40
 -10  -1  -5   26.60   14.60
  11 -10  -5   -7.20   22.10
   2 -11   5   17.40   10.90
 -11   9   5    6.70   10.50
   9   2   5   -5.90   11.00
 -11   2  -5   -9.20   13.50
  -2  11  -5   16.90   16.20
  11  -9  -5   -5.80   19.00
  -2  -9   5   13.70   11.90
  -9  -2  -5    8.60   13.40
  11  -2   5    2.10   12.30
  -2  -9   5   25.40   10.00
  -9  11   5   -2.00   11.80
   8   3   5   32.80   12.40
   3 -11   5   19.60   10.00
 -11   3  -5   16.20   14.20
 -11   8   5   25.70   11.20
  -8  -3  -5   21.60   13.50
  11  -3   5   20.40   12.60
  -3  -8   5   31.50   11.70
  -3  -8   5   40.00    9.30
  -3  11  -5   29.30   16.10
  -8  11   5   25.60   11.50
  11  -8  -5   -9.50   20.80
  -3  11  -5   21.60   13.70
 -11   4  -5   12.40   14.00
   4 -11   5   21.30   11.00
   7   4   5    1.30   11.40
 -11   7   5   16.40   10.20
  -7  -4  -5   -1.10   13.70
  -4  -7   5   14.70    9.20
  -4  -7   5   13.10   11.90
  -7  11   5   34.20   10.70
  -7  11   5   22.50   12.10
  -7  11   5   19.30   11.00
  -4  11  -5    2.40   14.30
  -4  11  -5   -6.20   12.60
  11  -7  -5   16.90   21.80
  11  -4   5    0.60   11.30
   6 -11  -5  185.48   22.30
 -11   5  -5  149.99   22.70
   5 -11   5  178.38   17.90
   5 -11   5  148.69   18.60
 -11   6   5  147.29   17.70
   5   6  -5  134.29   29.20
   6   5   5  158.38   17.50
  11  -6  -5  196.68   28.40
  -6  11   5  184.38   18.90
  -5  11  -5  215.58   23.00
  11  -5   5  156.88   20.00
  -5  -6   5  176.08   19.90
  -5  -6   5  175.78   16.80
  -6  11   5  173.68   16.80
  -6  11   5  187.88   21.00
  -5  11  -5  125.59   26.20
   6 -11   5   34.00    9.90
 -11   5   5   44.50   10.00
   6 -11   5   41.00   11.20
 -11   6  -5   34.70   13.70
   5   6   5   28.80   10.90
   5 -11  -5   15.60   10.90
   6   5  -5   24.20   21.90
  -5  11   5   19.90   10.70
  -6  -5   5   24.10    9.40
  -5  11   5   70.09   18.10
  -5  -6  -5   23.80   13.10
  11  -5  -5   30.80   25.40
  -5  11   5   36.10   11.70
  -6  -5   5   39.10   12.00
  -6  11  -5   42.40   13.80
 -11   4   5   79.09   15.00
   4   7   5   72.79   14.80
   7 -11   5  128.19   15.90
   7 -11   5   81.49   15.60
   4 -11  -5   94.99   13.90
   7   4  -5  122.09   23.40
  -7  -4   5  120.79   18.70
  -4  11   5  101.49   17.10
  11  -7   5   93.29   16.70
  -7  11  -5   59.49   14.70
  -7  -4   5   97.89   14.40
  -7  11  -5  105.89   17.20
  -4  -7  -5   90.89   18.10
  -4  11   5   97.19   14.20
   8 -11   5   72.49   15.90
   8   3  -5  132.39   24.20
 -11   3   5  102.29   14.90
   8 -11   5   89.69   15.10
   3 -11  -5   83.79   13.70
   3   8   5   79.09   14.60
  -8  -3   5   96.89   18.10
  -8  -3   5   71.39   14.40
  -3  11   5   92.99   17.60
  -3  -8  -5   91.49   17.80
  -3  11   5   86.99   14.40
  11  -8   5   79.49   16.80
  11  -3  -5  109.89   25.60
  -8  11  -5   78.39   14.20
   2   9   5  154.38   16.80
   9   2  -5  168.98   26.10
 -11   2   5  172.18   17.10
   2 -11  -5  160.98   18.80
   9 -11   5  135.09   17.20
   9 -11   5  160.58   18.60
  11  -9   5  157.38   19.30
  -2  11   5  107.69   21.30
  -9  -2   5  205.18   20.00
  -9  -2   5  167.08   16.60
  -2  -9  -5  152.88   19.40
  -2  11   5  163.78   19.50
  11  -9   5  161.28   15.90
  -2  11   5  153.88   16.60
  -9  11  -5  107.09   19.60
  11  -2  -5  169.08   28.40
  10 -11   5  147.59   19.20
  10   1  -5  152.08   30.40
  10 -11   5  142.99   17.20
   1  10   5  146.69   16.40
   1 -11  -5  149.29   18.90
 -11   1   5  170.98   17.20
   1  10   5  152.68   19.10
 -10  11  -5  107.29   18.80
  -1  11   5  117.29   22.70
 -10  -1   5  180.58   17.30
  -1  11   5  184.78   19.60
  11 -10   5  167.98   19.30
  11  -1  -5  168.48   30.10
  -1 -10  -5  131.99   19.90
  11 -10   5  160.18   16.80
  -1  11   5  153.68   16.40
  11 -11   5   26.70   10.30
  11 -11   5   48.60   13.40
   0  11   5   44.10   12.80
   0 -11  -5   27.70   12.50
   0  11   5   49.00   12.00
 -11   0   5   84.99   14.60
  11   0  -5   50.19   24.40
   0 -12   5  289.37   25.40
   0  12  -5  366.86   30.30
 -12  12   5  324.27   24.80
  12   0   5  294.67   25.90
  12 -12  -5  325.67   34.10
 -12   0  -5  302.17   27.70
 -12  11   5  153.98   19.30
 -12   1  -5  177.48   23.90
  11   1   5  163.08   20.20
  11 -12  -5  147.79   30.10
   1 -12   5  173.98   19.90
   1  11  -5  166.38   24.10
  -1  12  -5  195.48   25.10
  12  -1   5  183.28   20.30
 -11  -1  -5  177.58   22.70
  -1 -11   5  186.08   20.30
 -11  12   5  193.98   19.40
  12 -11  -5  186.58   29.60
 -12   2  -5   46.10   15.40
  10 -12  -5   26.30   23.10
 -12  10   5   75.39   15.80
  10   2   5   72.59   14.30
   2 -12   5   56.09   12.00
  -2  12  -5   64.69   17.60
 -10  -2  -5   34.70   14.70
  -2 -10   5   64.29   13.20
 -10  12   5   59.79   12.80
  12 -10  -5   58.39   21.40
  12  -2   5   54.69   13.20
   3 -12   5   48.30   11.60
 -12   9   5   54.29   11.10
 -12   3  -5   54.89   15.10
   9   3   5   41.90   12.60
  -3  -9   5   78.09   13.60
  -9  12   5   56.39   12.60
  12  -9  -5   65.59   22.80
  -9  -3  -5   48.20   14.00
  12  -3   5   48.30   13.50
 -12   4  -5  -13.40   14.00
   4 -12   5    1.60   10.30
 -12   8   5    9.90    9.70
   8   4   5   -1.40   11.00
  -4  12  -5   12.90   15.60
  -8  12   5    9.40   12.40
  12  -4   5    6.50   12.40
  12  -8  -5  -16.50   19.90
  -4  -8   5   15.50   12.40
  -4  -8   5   19.20    9.00
  -8  -4  -5   20.10   13.90
 -12   5  -5  101.49   16.80
   5 -12   5  117.09   16.80
   7   5   5  113.79   16.10
 -12   7   5  106.79   16.10
  -7  12   5  130.89   14.70
  -5  -7   5  133.79   19.60
  12  -5   5  127.19   18.10
  -5  -7   5  125.59   15.40
  -7  12   5  124.49   17.70
  12  -7  -5  103.19   23.00
  -7  -5  -5  113.19   19.50
  -5  12  -5  128.69   21.40
   6   6   5  157.28   19.20
   6   6  -5  162.38   29.90
   6 -12  -5  185.98   25.00
 -12   6  -5  193.18   23.70
 -12   6   5  206.68   19.00
   6 -12   5  200.78   19.00
  -6  12  -5  233.78   23.20
  12  -6  -5  183.38   28.40
  -6  12   5  212.58   20.90
  -6  -6  -5  182.48   21.60
  -6  -6   5  216.98   18.60
  12  -6   5  215.88   20.60
  -6  -6   5  227.48   22.10
  -6  12   5  195.48   18.20
   5   7   5  141.69   16.60
   7 -12   5  156.08   17.10
 -12   7  -5  176.38   21.60
   7 -12   5  164.48   30.00
   7 -12   5  134.69   24.20
   7   5  -5  127.99   26.60
 -12   5   5  145.59   17.20
   5 -12  -5  123.09   20.00
  -5  12   5   95.99   21.40
  -5  -7  -5  159.88   20.20
  -7  -5   5  133.19   16.40
  -7  12  -5  160.08   22.20
  -5  12   5  185.88   19.70
  12  -7   5  151.68   18.70
  -7  -5   5  160.18   20.40
  12  -5  -5  187.38   27.70
  -5  12   5  132.39   16.60
   4 -12  -5   29.20   12.90
 -12   4   5   21.80    9.80
   8 -12   5   23.90   11.20
   4   8   5   24.20   11.60
   8   4  -5   43.60   23.80
   8 -12   5   53.29   12.60
  -4  12   5   43.80   12.30
  -8  -4   5   17.10   13.00
  -4  -8  -5   32.40   13.80
  12  -8   5   30.30   13.90
  -4  12   5   27.30   11.10
  -8  -4   5   28.90    9.70
  -8  12  -5    8.80   13.40
  -4  12   5   42.40   10.90
  12  -4  -5   53.59   21.50
   9 -12   5  232.38   32.30
 -12   3   5  221.28   18.90
   3   9   5  193.78   18.10
   9 -12   5  208.68   19.10
   9   3  -5  199.68   32.20
   9 -12   5  204.58   20.40
  -9  -3   5  247.08   22.60
  -3  12   5  225.68   21.60
  -3  12   5  160.78   24.50
  -9  12  -5  150.78   21.70
  12  -3  -5  202.38   30.20
  -9  -3   5  211.18   18.90
  -3  12   5  168.88   18.30
   2 -12  -5   34.30   13.10
  10   2  -5   18.60   22.80
  10 -12   5   54.39   13.90
  10 -12   5   57.19   11.60
   2  10   5   53.19   12.50
 -12   2   5   81.49   15.10
 -10  12  -5   31.60   13.80
  12 -10   5   74.59   13.50
  12 -10   5   60.49   16.20
 -10  -2   5   83.39   15.00
  -2  12   5   75.29   13.10
  12  -2  -5   90.89   25.10
  -2  12   5   63.89   13.90
   1 -12  -5  113.09   18.90
   1  11   5  109.49   24.20
  11 -12   5  124.99   19.40
   1  11   5  133.09   16.50
 -12   1   5  138.09   16.60
  11 -12   5  139.39   17.20
  11   1  -5  149.79   26.20
  -1  12   5  109.59   16.50
  12 -11   5  166.38   16.40
  -1  12   5  120.59   20.50
 -11  -1   5  148.59   17.30
  12  -1  -5  130.39   29.10
  12 -11   5  129.59   19.40
  -1 -11  -5  125.89   23.60
  12 -12   5   94.49   19.30
 -12   0   5   99.09   15.40
   0  12   5   84.69   15.10
   0  12   5   96.09   19.80
  12 -12   5   94.99   15.80
   0 -12  -5   78.39   14.90
 -13   0  -5  874.91   55.79
   0 -13   5  848.92   54.59
  13   0   5  942.31   54.99
 -13  13   5  897.31   53.99
  13 -13  -5  823.62   59.69
   1  12  -5   58.29   18.40
 -13   1  -5   50.99   15.60
   1 -13   5   66.79   13.50
  12   1   5   69.99   15.40
 -13  12   5   64.69   12.40
  12 -13  -5   64.49   23.30
  -1 -12   5   50.49   13.40
 -12  -1  -5   66.49   15.10
  13  -1   5   84.39   18.30
  13 -12  -5   43.20   22.90
  -1  13  -5   65.69   16.80
 -13   2  -5   85.39   17.10
  11 -13  -5   97.99   24.00
   2  11  -5  131.59   23.70
   2 -13   5   75.69   14.10
  11   2   5  108.59   18.10
 -13  11   5  111.69   17.40
  13 -11  -5   93.09   23.30
 -11  -2  -5  100.49   20.30
  13  -2   5  123.19   18.80
 -11  13   5  118.29   17.90
  -2  13  -5   95.79   17.50
  -2 -11   5  133.89   20.00
 -13   3  -5  149.29   23.30
   3 -13   5  158.78   18.90
  10 -13  -5  134.09   27.50
 -13  10   5  150.08   18.70
  10   3   5  151.18   19.10
  13  -3   5  181.68   20.50
  -3 -10   5  179.28   21.60
 -10  13   5  179.68   20.00
  13 -10  -5  150.78   27.90
 -10  -3  -5  185.88   22.60
  -3  13  -5  198.08   24.50
   9   4   5  138.19   18.50
 -13   9   5  163.78   18.50
   4 -13   5  150.18   18.20
 -13   4  -5  150.28   23.40
  -4  -9   5  176.88   16.70
  13  -9  -5  173.78   27.60
  13  -4   5  187.18   19.90
  -9  -4  -5  132.69   21.50
  -4  -9   5  156.98   21.80
  -4  13  -5  182.68   23.50
  -9  13   5  166.18   19.30
   8   5   5  184.18   20.00
 -13   8   5  196.58   19.40
   5 -13   5  205.18   20.50
 -13   5  -5  193.88   25.00
  -8  13   5  221.28   21.20
  -5  -8   5  212.68   22.90
  13  -5   5  229.98   21.60
  -5  -8   5  226.38   18.70
  -8  -5  -5  214.58   23.30
  13  -8  -5  232.58   28.80
   6 -13   5   50.99   11.30
   7   6   5   50.09   12.90
 -13   6  -5   40.80   14.70
 -13   7   5   53.29   11.20
  13  -7  -5   80.29   21.30
  13  -6   5   61.79   13.80
  -7  13   5   91.69   17.90
  -6  13  -5   47.00   16.90
  -7  -6  -5   51.89   14.40
  -6  -7   5   60.69   15.20
  -7  13   5   65.79   13.40
  -6  -7   5   53.69   11.60
   6   7   5   30.60   12.70
   7 -13   5   19.50   10.40
 -13   7  -5   18.80   14.20
 -13   6   5   47.90   10.50
  -7  13  -5   50.99   15.10
  -6  13   5   34.10   12.20
  -6  -7  -5   33.20   12.60
  -6  13   5   38.40   19.50
  -7  -6   5   38.30   14.40
  13  -7   5   46.00   13.80
  13  -6  -5   48.40   21.90
  -7  -6   5   40.10   11.00
   5 -13  -5  265.17   24.30
   8 -13   5  257.57   21.70
   5   8   5  238.08   21.30
 -13   5   5  261.87   21.50
   8 -13   5  301.57   35.90
 -13   8  -5  239.68   25.20
  -8  -5   5  246.58   25.60
  13  -8   5  234.88   23.20
  -5  13   5  273.97   24.00
  13  -5  -5  285.47   32.00
  -5  13   5  244.48   21.00
  -8  13  -5  229.08   24.60
  -5  -8  -5  253.87   23.70
  -8  -5   5  252.67   21.00
   4 -13  -5  230.68   25.10
   4   9   5  279.87   22.70
   9   4  -5  206.48   33.70
 -13   4   5  317.57   22.90
   9 -13   5  361.86   38.30
   9 -13   5  289.47   23.10
  -4  -9  -5  277.57   25.10
  -4  13   5  240.28   40.70
  -9  -4   5  294.67   22.20
  -9  13  -5  256.47   25.70
  -9  -4   5  305.07   26.50
  13  -9   5  291.17   24.70
  13  -4  -5  315.97   33.70
  -4  13   5  260.67   22.40
  -4  13   5  314.77   26.10
   3 -13  -5   98.29   20.20
   3  10   5  124.89   16.10
  10 -13   5  108.49   18.90
  10 -13   5  121.29   17.00
 -13   3   5  156.18   16.80
  10   3  -5   83.89   24.60
  13  -3  -5  163.28   29.00
 -10  -3   5  137.89   16.60
 -10  13  -5   98.19   17.00
  -3 -10  -5  124.09   19.50
  13 -10   5  158.38   19.40
  -3  13   5  120.89   20.60
  -3  13   5  143.09   16.20
  -3  13   5   92.39   23.40
  11 -13   5  119.39   19.40
  11   2  -5  126.89   24.60
  11 -13   5   99.29   16.90
 -13   2   5  125.69   16.60
   2 -13  -5  134.29   19.20
   2  11   5  105.19   16.20
  13 -11   5  128.09   15.30
 -11  -2   5  165.28   17.40
  -2  13   5  108.19   17.10
  13 -11   5  146.49   19.50
 -11  13  -5   99.69   18.00
  -2 -11  -5  119.09   19.10
  -2  13   5  102.89   20.90
  13  -2  -5  130.79   24.90
  12 -13   5   28.60   11.00
   1 -13  -5   16.50   14.80
   1  12   5   24.70   12.20
  12 -13   5   52.39   14.50
  13  -1  -5   27.70   21.40
  -1  13   5   21.60   12.90
  13 -12   5   34.80   11.50
  13 -12   5   28.30   15.20
 -12  -1   5   39.40   10.60
  -1  13   5   21.60   15.10
  -1 -12  -5   44.90   13.60
   0  13   5  109.79   17.80
  13 -13   5  143.79   17.20
 -13   0   5  170.88   17.80
  13   0  -5  160.38   24.50
   0  13   5  124.29   23.50
   0 -13  -5  114.29   20.90
   0  14  -5  491.35   38.70
  14 -14  -5  506.05   42.90
 -14  14   5  540.95   35.30
 -14   0  -5  513.85   37.60
  14   0   5  551.64   36.70
   0 -14   5  518.75   36.60
  13   1   5  176.38   21.80
 -14  13   5  197.88   20.60
 -14   1  -5  195.88   24.10
  13 -14  -5  172.58   31.00
   1 -14   5  153.68   21.60
   1  13  -5  183.08   25.40
  -1  14  -5  176.68   25.70
 -13  -1  -5  208.48   24.30
  14 -13  -5  239.48   31.10
  -1 -13   5  184.48   23.30
 -13  14   5  220.08   21.00
  14  -1   5  202.68   21.70
   2  12  -5  314.67   31.80
  12   2   5  348.27   28.00
  12 -14  -5  339.07   36.90
   2 -14   5  310.87   27.50
 -14  12   5  371.96   27.20
 -14   2  -5  322.27   30.50
 -12  -2  -5  337.27   29.40
  -2  14  -5  379.46   31.40
  -2 -12   5  361.66   29.00
  14  -2   5  375.36   28.30
 -12  14   5  363.86   27.20
  14 -12  -5  362.86   35.60
  11 -14  -5  265.67   34.60
 -14   3  -5  239.68   27.20
 -14  11   5  255.17   22.80
   3 -14   5  232.78   23.10
  11   3   5  264.87   24.00
  14  -3   5  265.47   24.10
  14 -11  -5  259.47   31.10
 -11  14   5  287.37   24.00
  -3  14  -5  292.77   27.20
 -11  -3  -5  238.48   25.80
  -3 -11   5  260.97   25.20
  10 -14  -5  131.39   29.00
 -14  10   5  114.39   17.90
   4 -14   5  121.19   17.50
 -14   4  -5  150.98   23.10
  10   4   5  127.19   18.40
 -10  -4  -5  103.29   21.30
  -4 -10   5  125.39   20.90
  14  -4   5  118.99   19.40
 -10  14   5  135.39   19.10
  14 -10  -5  114.99   24.70
  -4  14  -5  110.69   21.80
 -14   9   5   11.30   11.30
 -14   5  -5    2.50   15.20
   9 -14  -5   17.40   26.30
   5 -14   5    8.50   10.60
   9   5   5    9.90   12.40
  -9  -5  -5   12.50   13.40
  -5  14  -5   19.20   15.60
  14  -5   5    1.40   12.80
  14  -9  -5   16.30   22.00
  -5  -9   5    7.50   13.20
  -9  14   5   24.60   12.90
   8   6   5  171.68   19.30
   6 -14   5  186.68   19.80
 -14   8   5  150.98   19.00
 -14   6  -5  218.78   24.80
  14  -6   5  211.68   21.50
  -8  14   5  205.58   22.20
  -8  -6  -5  205.78   22.50
  -6  -8   5  188.38   36.20
  -6  14  -5  214.68   25.50
  -6  -8   5  181.48   17.90
  14  -8  -5  190.88   29.20
 -14   7   5  264.57   22.90
   7 -14   5  284.17   22.90
   7   7   5  246.18   23.40
 -14   7  -5  262.37   27.20
  -7  14   5  247.68   21.50
  14  -7   5  294.17   24.90
  14  -7  -5  320.57   33.50
  -7  -7  -5  282.77   25.00
  -7  14   5  336.07   24.90
  -7  -7   5  312.07   27.40
  -7  -7   5  246.08   21.60
 -14   8  -5  125.49   22.90
 -14   6   5  135.89   17.80
   6   8   5  143.39   17.80
   8 -14   5  154.88   17.60
  -8  14  -5  149.59   22.00
  -6  14   5  129.49   17.10
  -6  14   5  169.48   21.20
  14  -8   5  183.48   20.70
  -6  -8  -5  159.38   20.70
  14  -6  -5  188.58   29.70
  -8  -6   5  152.98   17.00
  -8  -6   5  171.88   22.80
 -14   9  -5   41.70   14.80
   5   9   5   31.20   12.90
   5 -14  -5  -38.60   22.00
   9 -14   5   29.20   11.20
 -14   5   5   71.49   15.00
  -5  14   5   26.10   13.30
  -9  -5   5   27.00   10.30
  -5  14   5   30.00   13.80
  -5  -9  -5   30.90   14.10
  14  -9   5   43.60   13.80
  -9  -5   5    2.80   15.60
  -9  14  -5   11.10   15.10
  14  -5  -5   62.59   23.50
 -14   4   5  564.14   35.20
   4 -14  -5  505.05   38.10
  10 -14   5  567.04   35.50
   4  10   5  465.25   35.40
 -10  -4   5  564.44   35.20
  -4 -10  -5  548.85   36.80
  14  -4  -5  556.94   42.60
 -10  14  -5  497.05   37.40
  -4  14   5  521.65   35.20
  14 -10   5  589.14   37.50
 -10  -4   5  573.74   39.30
  11 -14   5  124.19   17.30
  11 -14   5  117.89   20.20
 -14   3   5  150.58   17.50
   3 -14  -5  121.89   19.80
   3  11   5   93.69   16.40
  -3 -11  -5  121.79   19.20
  14 -11   5  139.49   20.00
  14  -3  -5   98.59   23.80
  -3  14   5  106.09   15.70
 -11  14  -5   76.09   16.70
  -3  14   5  115.39   23.60
 -11  -3   5  120.89   16.00
  12 -14   5   90.29   16.40
   2  12   5   80.89   15.50
  12 -14   5   82.59   16.20
   2 -14  -5   42.00   17.20
 -14   2   5   91.69   15.30
  12   2  -5   40.20   36.40
  -2  14   5   83.19   13.90
  14 -12   5   71.69   14.20
  -2 -12  -5   56.89   14.40
  14 -12   5   85.49   16.10
  14  -2  -5   74.19   22.30
  -2  14   5   82.99   17.10
 -12  14  -5  156.38   25.80
 -12  -2   5   93.39   16.30
   1  13   5   45.30   13.60
  13 -14   5   60.39   11.60
 -14   1   5   90.49   16.10
   1 -14  -5   41.80   15.60
  13   1  -5   50.19   21.30
  13 -14   5   82.29   19.50
 -13  -1   5   92.39   15.90
  -1  14   5   51.19   14.30
  -1  14   5  109.69   23.30
  -1 -13  -5   31.80   14.50
  14 -13   5   51.69   11.30
  14 -13   5   66.29   16.40
  14  -1  -5   61.19   22.30
 -14   0   5    8.50   11.20
  14 -14   5    0.00   15.40
   0 -14  -5   12.60   13.50
  14   0  -5   13.90   19.80
   0  14   5    4.30   13.30
  14 -14   5   24.70   11.10
   0  15  -5  182.58   25.70
 -15  15   5  199.78   21.10
  15 -15  -5  177.98   31.50
  15   0   5  185.88   25.10
 -15   0  -5  173.08   24.20
   0 -15   5  160.08   23.30
   1 -15   5  816.42   52.79
  14 -15  -5  873.31   58.89
 -15   1  -5  804.92   53.89
   1  14  -5  819.52   54.99
 -15  14   5  841.82   51.99
 -14  -1  -5  830.22   53.99
 -14  15   5  873.31   52.39
  -1 -14   5  863.01   53.79
 -15  13   5  310.67   23.90
   2 -15   5  251.27   24.20
  13 -15  -5  249.08   34.00
  13   2   5  253.87   25.50
 -15   2  -5  282.87   26.70
   2  13  -5  239.98   27.60
 -13  15   5  277.77   24.00
 -13  -2  -5  236.08   26.40
  15 -13  -5  244.48   32.80
  15  -2   5  260.27   25.50
  -2 -13   5  266.57   26.30
  -2  15  -5  271.67   27.80
  12 -15  -5   28.00   25.60
 -15  12   5   32.30   12.50
 -15   3  -5   21.20   16.40
  12   3   5   28.30   14.50
   3  12  -5   14.90   16.00
   3 -15   5   22.10   12.70
  15  -3   5   22.40   13.90
  -3  15  -5   16.70   15.30
  -3 -12   5   22.20   14.10
  15 -12  -5   32.30   23.10
 -12  15   5   24.60   13.50
 -12  -3  -5   20.90   14.40
   4 -15   5  107.89   18.60
  11   4   5  133.19   19.50
  11 -15  -5  105.89   26.20
 -15   4  -5  114.49   23.30
 -15  11   5  134.39   18.20
 -11  15   5  157.98   19.60
  -4 -11   5  134.39   22.30
  15  -4   5  134.79   20.90
 -11  -4  -5  112.59   20.70
  15 -11  -5  135.39   29.30
  -4  15  -5  174.28   23.80
   5 -15   5  319.57   26.90
  10   5   5  333.87   28.00
 -15   5  -5  388.76   31.20
  10 -15  -5  320.87   40.70
 -15  10   5  362.66   27.00
  -5  15  -5  358.86   32.00
  15  -5   5  362.76   28.80
 -10  15   5  374.66   28.50
 -10  -5  -5  367.46   29.10
  -5 -10   5  384.16   30.10
  15 -10  -5  375.66   36.10
 -15   6  -5  352.46   31.80
   6 -15   5  362.16   28.00
   9 -15  -5  368.56   39.30
   9   6   5  370.16   28.20
 -15   9   5  342.57   27.50
  -6  -9   5  403.06   31.20
  15  -9  -5  407.96   37.00
  -9  15   5  375.26   29.50
  -6  15  -5  438.36   31.80
  -9  -6  -5  335.67   29.80
  -6  -9   5  393.86   26.60
  15  -6   5  379.46   29.40
 -15   8   5   92.39   16.40
 -15   7  -5   83.99   17.40
   8   7   5   70.29   14.90
   7 -15   5   75.49   14.30
  -8  -7  -5   65.19   15.70
  -8  15   5  106.99   19.30
  -7  -8   5   81.69   16.50
  -7  15  -5   49.30   15.90
  15  -7   5   90.29   19.10
  -7  -8   5   68.39   14.90
  15  -8  -5   82.69   23.20
   8 -15   5  111.59   17.00
   7   8   5  103.49   17.60
 -15   8  -5   94.59   18.00
  -8  15  -5  110.59   21.80
  -7  15   5  139.59   21.30
  -8  -7   5  116.99   16.60
  15  -7  -5  130.49   27.10
  -7  -8  -5  152.88   20.50
  15  -8   5  131.19   20.20
 -15   6   5  461.35   30.50
   6   9   5  359.06   30.60
 -15   9  -5  448.26   34.50
   9 -15   5  468.45   30.50
  -9  15  -5  376.56   33.00
  -6  15   5  466.95   32.90
  15  -6  -5  451.15   38.10
  15  -9   5  471.85   32.40
  -6  -9  -5  457.35   31.60
  -9  -6   5  420.86   29.90
  -9  -6   5  473.15   35.40
  -6  15   5  397.66   29.40
  10 -15   5  288.87   23.40
 -15  10  -5  313.17   27.60
 -15   5   5  300.67   23.00
   5  10   5  255.87   22.90
  15 -10   5  316.77   25.80
 -10  -5   5  269.57   22.20
 -10  15  -5  205.48   36.00
  -5  15   5  282.17   26.80
  -5  15   5  227.98   23.00
  15  -5  -5  303.47   32.10
 -10  -5   5  298.07   28.80
  -5 -10  -5  269.57   25.30
 -15   4   5  131.59   16.60
  11 -15   5  117.19   17.00
  11   4  -5  136.79   29.50
   4 -15  -5  104.39   18.20
   4  11   5   96.59   17.70
 -11  -4   5  136.99   16.40
 -11  15  -5   91.49   17.20
  -4  15   5   88.49   16.60
  15 -11   5  154.18   21.20
  -4 -11  -5  115.09   19.30
  -4  15   5  118.59   17.60
 -11  -4   5  111.79   24.90
  15  -4  -5  150.48   26.60
   3 -15  -5  139.09   27.80
  12 -15   5  219.18   24.90
  12   3  -5  161.98   32.00
  12 -15   5  223.08   20.60
   3  12   5  201.28   20.10
 -15   3   5  228.38   20.60
 -12  -3   5  236.18   19.70
  -3  15   5  234.68   25.90
 -12  15  -5  280.87   22.30
  15 -12   5  234.38   24.00
  -3 -12  -5  170.58   21.70
  -3  15   5  192.08   20.00
  15  -3  -5  204.48   28.90
  13 -15   5   53.99   16.50
  13   2  -5   -4.50   21.20
  13 -15   5   20.80   11.30
   2  13   5   11.00   13.70
   2 -15  -5   16.70   14.80
 -15   2   5   26.90   11.10
  -2 -13  -5   -5.50   14.10
  15  -2  -5  -18.70   20.80
 -13  -2   5   29.80   11.90
  -2  15   5   -6.20   13.10
  15 -13   5   27.20   15.60
  -2  15   5   34.70   16.00
  15 -13   5   18.20   10.10
   1 -15  -5   36.40   14.70
  14 -15   5   86.79   17.50
  14   1  -5   29.30   21.90
  14 -15   5   50.39   11.90
   1  14   5   50.89   14.40
 -15   1   5   60.79   12.70
  -1 -14  -5   75.29   16.00
  15  -1  -5   71.39   21.10
 -14  -1   5   77.89   16.20
  -1  15   5   40.40   14.30
  15 -14   5   45.90   11.10
  15 -14   5   67.79   16.70
  -1  15   5   71.29   18.30
   0  15   5   -4.70   14.00
 -15   0   5    6.30   11.90
   0 -15  -5   -7.00   13.70
  15   0  -5  -17.40   21.30
  15 -15   5  -35.30   17.50
  15 -15   5   11.00   11.10
 -16  16   5  375.06   28.40
   0 -16   5  355.36   30.60
  16   0   5  379.16   30.10
 -16   0  -5  327.67   30.90
  16 -16  -5  353.96   45.90
 -16  15   5  206.98   21.20
  15   1   5  174.68   23.20
 -16   1  -5  183.78   24.40
  15 -16  -5  160.38   31.10
   1  15  -5  172.68   26.40
   1 -16   5  162.58   22.90
  16  -1   5  202.58   23.40
  16 -15  -5  193.48   31.80
  -1 -15   5  182.78   23.80
  -1  16  -5  193.48   24.50
 -15  16   5  197.78   21.40
 -15  -1  -5  167.58   24.30
  14 -16  -5  148.89   31.50
 -16   2  -5  128.59   22.80
  14   2   5  114.19   24.20
   2  14  -5  128.29   24.50
   2 -16   5  105.29   20.00
 -16  14   5  148.79   19.90
 -14  16   5  136.79   19.50
  16  -2   5  126.59   21.40
  -2  16  -5  108.39   23.00
 -14  -2  -5  134.79   22.50
  16 -14  -5  103.79   29.70
  -2 -14   5  145.49   22.60
 -16   3  -5  288.17   28.90
   3 -16   5  301.37   26.20
   3  13  -5  294.17   30.30
  13   3   5  323.97   27.10
  13 -16  -5  293.17   35.10
  -3 -13   5  324.37   29.00
  16  -3   5  305.07   27.40
 -13  16   5  315.97   26.70
  -3  16  -5  334.67   30.00
  16 -13  -5  334.97   35.30
 -13  -3  -5  338.77   28.40
  12   4   5  154.28   20.60
 -16  12   5  152.08   19.40
 -16   4  -5  158.68   24.70
   4  12  -5  150.18   24.80
  12 -16  -5  123.79   30.40
   4 -16   5  146.69   20.00
  -4 -12   5  169.28   23.80
  16 -12  -5  155.48   29.40
  -4  16  -5  162.28   25.70
 -12  16   5  190.28   20.70
 -12  -4  -5  160.48   22.10
  16  -4   5  160.58   21.80
 -16  11   5  147.39   19.10
  11 -16  -5  165.28   32.60
  11   5   5  144.49   19.70
   5 -16   5  114.69   18.50
 -16   5  -5  133.69   23.80
 -11  16   5  157.98   20.70
  16  -5   5  135.99   21.20
  -5  16  -5  161.78   24.20
  16 -11  -5  135.39   28.60
  -5 -11   5  138.49   23.10
 -11  -5  -5  127.29   21.60
   6 -16   5   12.30   11.30
 -16   6  -5   19.40   16.40
 -16  10   5   19.40   11.20
  10   6   5   23.80   13.90
  10 -16  -5   20.10   28.10
  -6  16  -5    4.40   15.30
  -6 -10   5   21.30   10.00
  16 -10  -5   41.70   20.80
  -6 -10   5   17.70   15.00
  16  -6   5   15.00   14.10
 -10  -6  -5   20.20   13.40
 -10  16   5   20.30   13.90
   9   7   5  199.58   20.90
   9 -16  -5  195.78   36.40
   7 -16   5  184.18   20.60
 -16   9   5  185.68   20.10
 -16   7  -5  177.68   25.40
  -7  -9   5  213.38   24.90
  16  -7   5  197.38   23.20
  -9  -7  -5  185.78   22.70
  -7  16  -5  192.78   24.60
  16  -9  -5  168.18   30.60
  -7  -9   5  223.98   18.80
  -9  16   5  216.98   22.90
   8   8   5  157.98   20.20
   8 -16   5  172.28   19.70
 -16   8   5  201.88   19.30
 -16   8  -5  173.78   25.50
  16  -8  -5  204.48   28.80
  -8  -8  -5  167.98   21.90
  -8  -8   5  215.78   25.00
  -8  16   5  201.58   23.10
  -8  -8   5  165.38   17.40
  -8  16  -5  170.28   23.20
  16  -8   5  186.38   22.70
   7   9   5  163.18   19.00
 -16   7   5  153.48   18.70
   9 -16   5  155.48   18.60
 -16   9  -5  165.78   24.50
  -7  -9  -5  153.08   20.60
  -9  -7   5  159.08   18.20
  -9  16  -5  121.79   23.20
  -9  -7   5  239.28   25.40
  16  -7  -5  181.68   28.90
  -7  16   5  178.38   22.50
  16  -9   5  181.78   22.40
 -16  10  -5   36.70   16.70
  10 -16   5   42.20   11.90
   6  10   5   27.30   14.10
 -16   6   5   57.49   12.20
  16  -6  -5   61.09   21.40
  -6  16   5   40.10   15.60
 -10  16  -5    3.80   15.20
  -6 -10  -5   44.50   13.90
  16 -10   5   65.09   16.20
 -10  -6   5   95.79   30.50
 -10  -6   5   45.20   12.10
  -6  16   5   50.49   13.30
   5  11   5  259.37   23.60
 -16  11  -5  296.57   28.30
  11 -16   5  330.87   24.60
 -16   5   5  314.97   24.10
  16 -11   5  338.97   27.70
 -11  -5   5  323.27   32.20
  -5  16   5  315.67   28.50
  16  -5  -5  298.57   31.60
 -11  16  -5  239.38   26.60
 -11  -5   5  333.97   24.40
  -5 -11  -5  315.57   26.20
  -5  16   5  261.07   23.90
  12 -16   5   84.39   16.80
   4  12   5   58.79   15.40
 -16   4   5   99.19   16.90
 -12  -4   5   80.79   15.90
  16 -12   5   97.19   17.60
  -4  16   5   58.89   16.00
  -4  16   5   79.39   17.00
 -12  16  -5  127.99   18.60
  16  -4  -5   82.49   22.50
  -4 -12  -5   63.79   14.70
  13   3  -5   52.59   20.50
   3  13   5   32.70   14.10
   3 -16  -5   25.80   16.40
 -16   3   5   29.60   12.20
  13 -16   5   52.69   12.10
  -3 -13  -5    9.60   14.60
 -13  -3   5   48.80   12.40
  16  -3  -5   30.40   20.00
  16 -13   5   67.49   16.90
  -3  16   5   25.00   14.20
  -3  16   5   47.50   16.20
  14 -16   5   50.29   15.40
   2  14   5   35.80   13.40
  14   2  -5   76.19   21.00
   2 -16  -5   11.30   16.40
 -16   2   5   50.09   13.40
  -2  16   5   20.70   13.90
  16  -2  -5   37.10   21.00
  16 -14   5   63.99   17.00
  -2  16   5   81.29   17.80
 -14  -2   5   46.00   13.00
  -2 -14  -5   34.10   14.60
 -16   1   5   30.10   12.50
   1  15   5   17.80   15.00
  15 -16   5    9.90   22.40
  15   1  -5   42.90   20.20
  15 -16   5   37.70   11.80
  16 -15   5   48.20   17.10
  -1 -15  -5   14.90   14.60
  -1  16   5   26.60   18.00
  16 -15   5   28.00   10.50
 -15  -1   5   32.70   12.30
  -1  16   5    2.30   14.10
  16  -1  -5    5.10   19.50
  16 -16   5   -9.30   10.60
  16 -16   5   -7.70   18.20
  16   0  -5   19.30   20.00
 -16   0   5    4.90   11.70
   0  16   5    8.70   14.60
  17 -17  -5   66.59   24.70
 -17   0  -5   61.99   16.70
   0 -17   5   71.99   17.20
  17   0   5   63.19   17.60
   0  17  -5   60.29   18.80
 -17  17   5   64.59   14.90
  16 -17  -5   40.80   26.10
   1  16  -5   53.09   18.50
 -17  16   5   62.29   14.20
  16   1   5   65.19   18.20
 -17   1  -5   44.40   16.50
   1 -17   5   63.99   16.20
 -16  -1  -5   71.89   16.10
  -1 -16   5   69.29   16.80
  17 -16  -5   43.80   24.90
  -1  17  -5   65.09   18.30
 -16  17   5   63.59   15.20
  17  -1   5   75.89   17.90
  15   2   5  314.57   28.30
 -17  15   5  310.17   26.40
   2  15  -5  311.47   30.30
   2 -17   5  307.77   27.50
  15 -17  -5  336.67   37.30
 -17   2  -5  296.87   29.40
  -2 -15   5  328.07   29.30
 -15  -2  -5  321.77   28.90
  17  -2   5  322.77   28.40
  -2  17  -5  325.67   30.10
  17 -15  -5  309.47   34.70
 -15  17   5  340.57   26.80
  14   3   5  122.99   21.50
 -17  14   5  149.09   19.40
  14 -17  -5   88.09   30.80
   3 -17   5  109.89   20.20
 -17   3  -5  111.09   22.90
   3  14  -5  141.59   23.80
  -3  17  -5  127.09   25.70
  17  -3   5  124.89   21.70
 -14  17   5  140.49   20.60
  17 -14  -5   98.49   23.60
 -14  -3  -5  131.59   22.70
  -3 -14   5  137.79   23.10
   4 -17   5   66.99   14.20
 -17  13   5   63.69   13.90
 -17   4  -5   60.19   17.00
  13   4   5   57.59   16.30
  13 -17  -5   84.69   26.40
   4  13  -5   57.89   16.90
 -13  -4  -5   49.50   15.50
  -4 -13   5   69.59   17.30
  17  -4   5   72.19   17.20
 -13  17   5   65.39   14.10
  17 -13  -5   48.90   22.10
  -4  17  -5   72.69   19.20
 -17   5  -5   19.00   16.70
   5  12  -5   10.00   16.30
  12   5   5   10.80   16.20
  12 -17  -5   26.60   25.10
 -17  12   5   -1.50   12.60
   5 -17   5   -9.10   11.80
  17  -5   5    0.20   15.80
 -12  17   5   13.60   13.70
 -12  -5  -5    9.10   14.30
  -5 -12   5   10.50   16.00
  17 -12  -5   17.70   21.90
  -5  17  -5   25.20   16.20
   6 -17   5   89.89   17.70
  11 -17  -5  115.69   27.90
 -17  11   5   89.49   17.10
  11   6   5   87.09   19.20
 -17   6  -5   93.39   18.70
  17 -11  -5  138.79   28.10
 -11  17   5  102.29   20.80
 -11  -6  -5  119.99   20.50
  17  -6   5   97.59   20.70
  -6  17  -5  119.29   22.10
  -6 -11   5  111.89   18.10
   7 -17   5   69.59   14.10
 -17  10   5   96.99   17.10
 -17   7  -5   97.09   18.60
  10 -17  -5  134.39   31.40
  10   7   5  105.99   18.80
 -10  -7  -5   80.89   16.40
  -7 -10   5   91.59   15.30
  -7  17  -5   90.49   17.30
 -10  17   5  111.19   20.10
  17 -10  -5   94.49   22.70
  -7 -10   5  138.29   23.80
  17  -7   5   89.79   17.30
   8 -17   5  114.99   18.20
   9 -17  -5  127.29   32.50
 -17   8  -5  108.39   19.00
 -17   9   5  104.79   17.60
   9   8   5   86.89   18.40
  -9  -8  -5   84.39   16.40
  -9  17   5  121.79   21.20
  -8  -9   5  116.59   18.70
  -8  17  -5   84.89   18.00
  17  -8   5  100.99   17.60
  17  -9  -5  103.69   22.60
  -8  -9   5   97.89   15.00
   8 -17  -5   68.09   29.10
 -17   9  -5   59.49   17.70
   9 -17   5   50.59   12.40
   8   9   5   60.39   15.30
 -17   8   5   78.99   16.70
  -8  17   5   73.09   16.40
  -9  -8   5   67.79   17.80
  -9  -8   5   76.39   14.20
  17  -9   5   64.39   17.80
  -9  17  -5   41.50   15.70
  17  -8  -5   75.99   22.70
  -8  -9  -5   47.10   15.40
   7  10   5  151.38   18.60
  10 -17   5  151.18   18.30
 -17   7   5  144.29   18.20
 -17  10  -5  129.99   24.90
  -7 -10  -5   98.99   20.60
 -10  -7   5  136.99   17.60
 -10  -7   5  166.38   26.10
  17 -10   5  135.99   23.00
  -7  17   5  113.19   22.80
 -10  17  -5  114.39   21.80
  17  -7  -5  144.89   26.80
  11 -17   5   71.29   13.20
   6  11   5   68.69   15.90
 -17  11  -5   70.99   19.30
 -17   6   5   89.19   16.50
  -6  17   5   82.19   17.10
  17  -6  -5   87.79   22.90
  17 -11   5  123.09   19.20
 -11  -6   5  124.89   21.20
 -11  -6   5   73.09   13.40
 -11  17  -5   35.60   16.70
  -6 -11  -5   80.09   16.40
 -17  12  -5   41.60   17.10
  12 -17   5   61.79   13.50
 -17   5   5   59.29   12.40
   5  12   5   46.30   14.30
  17 -12   5   60.49   17.70
  17  -5  -5   53.69   20.40
  -5 -12  -5   52.69   14.10
  -5  17   5   41.30   16.50
 -12  -5   5   74.89   15.50
  -5  17   5   40.60   14.00
   4  13   5   91.59   16.80
 -17   4   5   88.99   17.00
  13 -17   5   95.79   17.40
   4 -17  -5  121.49   24.00
  -4  17   5  101.09   18.10
  17 -13   5  110.39   22.50
  -4 -13  -5   70.79   16.10
  17  -4  -5   92.99   21.70
  -4  17   5   65.79   15.60
 -13  -4   5   93.99   17.20
 -17   3   5   13.40   12.10
   3 -17  -5   31.80   17.00
  14 -17   5   21.40   11.80
   3  14   5   -0.50   14.40
  17 -14   5   16.90   17.30
  -3  17   5    5.60   14.30
 -14  -3   5    8.80   11.50
  -3  17   5   25.70   16.60
  -3 -14  -5   11.70   14.10
  17  -3  -5   21.70   20.30
   2 -17  -5  -31.50   16.90
  15   2  -5   22.10   23.30
  15 -17   5    8.90   11.70
 -17   2   5   15.30   12.50
   2  15   5   16.20   14.90
  -2  17   5  -18.50   17.60
 -15  -2   5    9.30   12.10
  17 -15   5   52.59   17.70
  -2 -15  -5    4.80   15.50
  -2  17   5    9.40   14.60
  17  -2  -5   33.20   18.80
  16 -17   5   64.39   12.90
   1 -17  -5   76.69   18.40
  16   1  -5  119.19   24.90
   1  16   5   45.70   15.40
 -17   1   5   82.19   14.10
  -1 -16  -5   42.50   15.70
  -1  17   5   65.59   16.20
 -16  -1   5   68.79   13.30
  17  -1  -5   38.10   21.00
  17 -16   5   83.49   15.10
  17 -16   5  109.69   19.20
  17 -17   5   40.80   26.10
 -17   0   5   22.20   13.50
  17 -17   5   38.30   11.50
   0 -17  -5   36.90   18.10
  17   0  -5   50.49   19.60
 -18  18   5   37.90   13.40
  18 -18  -5  -17.60   25.10
   0  18  -5   -2.50   16.60
   0 -18   5   -7.50   16.70
  18   0   5   17.60   18.10
 -18   0  -5   27.30   18.30
   1 -18   5  119.09   22.30
  17 -18  -5   75.79   30.20
   1  17  -5  109.29   22.60
 -18   1  -5  112.39   20.10
 -18  17   5  108.49   19.70
  17   1   5  108.49   22.80
  -1 -17   5  110.89   18.70
  18  -1   5  120.49   19.90
 -17  18   5  103.99   20.40
  -1  18  -5  113.89   24.30
  18 -17  -5   77.79   26.30
 -17  -1  -5  117.09   22.70
   2 -18   5   22.00   15.10
 -18  16   5   22.10   14.00
 -18   2  -5   -0.50   17.60
  16 -18  -5   10.50   26.60
   2  16  -5  -13.90   17.00
  16   2   5    8.20   17.20
  -2  18  -5   13.50   18.60
  18 -16  -5   -2.80   23.20
  -2 -16   5   12.70   16.10
  18  -2   5   20.80   17.90
 -16  -2  -5   25.70   15.30
 -16  18   5   17.90   13.00
   3  15  -5   25.50   17.10
 -18  15   5   25.80   14.00
   3 -18   5    6.80   13.80
  15 -18  -5   23.20   30.20
  15   3   5   20.80   17.30
 -18   3  -5   27.20   17.70
  -3 -15   5    3.80   16.00
 -15  18   5   14.60   14.10
  18  -3   5   16.30   16.90
 -15  -3  -5   37.80   15.00
  -3  18  -5   15.60   15.90
  18 -15  -5   17.90   23.70
  14   4   5   96.19   18.80
   4  14  -5  113.39   20.40
 -18  14   5   92.99   18.60
   4 -18   5   94.79   16.10
 -18   4  -5  102.49   19.50
  14 -18  -5  105.39   28.70
  18  -4   5  108.89   18.40
  -4 -14   5  146.49   24.00
 -14  18   5  103.39   19.80
 -14  -4  -5  103.19   17.00
  -4  18  -5  131.89   22.50
  18 -14  -5  101.59   24.20
   5 -18   5   38.40   14.00
 -18   5  -5   50.09   18.10
  13   5   5   52.59   16.70
 -18  13   5   41.10   14.20
   5  13  -5   36.50   17.10
  13 -18  -5   19.90   29.30
  -5 -13   5   22.50   17.20
  18 -13  -5   28.60   21.00
 -13  18   5   43.70   14.50
  18  -5   5   34.50   16.70
 -13  -5  -5   33.10   16.00
  -5  18  -5   40.80   16.40
 -18   6  -5   55.89   18.40
   6 -18   5   50.69   13.70
  12 -18  -5   78.49   28.00
   6  12  -5   27.00   16.40
  12   6   5   61.89   16.60
 -18  12   5   44.00   12.70
 -12  -6  -5   49.80   15.00
  18  -6   5   69.79   18.10
  -6  18  -5   37.50   16.90
 -12  18   5   54.29   14.60
  -6 -12   5   71.59   17.10
  18 -12  -5   60.59   21.90
  11 -18  -5    8.10   33.40
   7 -18   5   24.80   13.20
 -18   7  -5   38.80   17.60
 -18  11   5   44.30   13.10
  11   7   5   38.70   16.90
 -11  -7  -5   44.40   15.00
  -7  18  -5   49.60   16.00
  18  -7   5   44.80   16.40
  18 -11  -5   66.89   22.80
 -11  18   5   58.89   15.40
  -7 -11   5   71.79   18.30
   8 -18   5   49.80   14.20
  10 -18  -5   51.19   29.20
 -18  10   5   56.79   12.80
 -18   8  -5   38.50   18.20
  10   8   5   56.49   16.30
  18 -10  -5   33.60   21.30
 -10  -8  -5   52.89   15.40
 -10  18   5   72.79   15.00
  18  -8   5   67.79   18.30
  -8 -10   5   52.09   17.40
  -8  18  -5   52.29   18.70
   9 -18   5   44.10   12.70
 -18   9  -5   37.00   17.90
 -18   9   5   63.59   13.50
   9   9   5   51.39   16.10
   9 -18  -5  103.99   31.50
  -9  -9   5   44.90   11.90
  -9  18  -5   57.49   16.50
  18  -9   5   54.59   17.00
  -9  -9  -5   59.49   15.50
  -9  -9   5   22.50   17.60
  18  -9  -5   48.30   22.20
  -9  18   5   66.39   16.20
   8  10   5  163.68   20.40
 -18  10  -5  171.88   26.50
 -18   8   5  160.38   19.30
  10 -18   5  161.98   19.20
   8 -18  -5  213.58   36.70
  18  -8  -5  176.48   26.60
 -10  -8   5  177.78   17.30
  -8  18   5  151.38   23.60
  18 -10   5  157.08   24.30
 -10  18  -5  163.28   22.30
 -10  -8   5  168.48   28.00
  -8 -10  -5  144.09   21.50
 -18   7   5   35.10   12.10
  11 -18   5   25.30   12.40
 -18  11  -5   26.30   17.70
   7  11   5   25.70   14.60
  18 -11   5   30.30   17.00
  -7 -11  -5   25.80   14.20
  18  -7  -5   27.40   19.30
 -11  -7   5   46.00   19.30
 -11  -7   5   24.20   12.40
  -7  18   5   29.20   16.00
 -18   6   5   46.30   11.70
   6  12   5   26.70   15.40
 -18  12  -5   25.50   18.40
  12 -18   5   50.79   12.90
 -12  -6   5   57.49   13.00
  -6 -12  -5   36.00   14.40
  18 -12   5   73.19   17.90
  -6  18   5   70.99   17.00
  18  -6  -5   51.89   23.20
  13 -18   5  122.49   18.50
   5  13   5  126.99   18.10
 -18  13  -5  121.99   24.50
 -18   5   5  126.99   19.20
  -5  18   5  131.29   24.90
  18  -5  -5  130.49   28.60
 -13  18  -5  191.18   27.80
  -5 -13  -5  109.49   19.40
  18 -13   5  115.69   24.40
 -13  -5   5  131.29   17.30
   4  14   5   37.30   15.60
  14 -18   5   27.70   12.60
 -18  14  -5   10.80   17.70
 -18   4   5   26.10   12.00
  18  -4  -5   26.30   20.30
  -4  18   5   43.70   17.70
  -4  18   5   -5.40   14.20
  -4 -14  -5   40.70   15.40
 -14  -4   5   24.50   11.50
  18 -14   5    8.20   18.50
   3  15   5   23.30   15.10
   3 -18  -5    9.30   18.40
 -18   3   5   24.80   12.30
  15 -18   5   42.90   13.70
 -15  -3   5   41.20   12.10
  -3 -15  -5    9.20   15.30
  18 -15   5   20.30   18.80
  18  -3  -5   36.60   18.90
  -3  18   5   -6.10   14.70
  -3  18   5   31.00   18.30
   2 -18  -5   27.00   18.50
 -18   2   5   27.60   12.60
   2  16   5   10.90   15.20
  16 -18   5   28.90   12.90
  -2  18   5   -8.50   19.60
  -2 -16  -5   16.20   16.80
  18 -16   5   23.30   18.50
 -16  -2   5   30.00   13.60
  -2  18   5   13.50   16.30
  18  -2  -5   28.60   20.60
 -18   1   5   38.80   13.60
   1 -18  -5   75.19   19.00
  17 -18   5   66.29   14.00
  17   1  -5   97.39   24.10
  18 -17   5  127.19   20.70
  -1 -17  -5   59.29   16.70
 -17  -1   5   76.29   16.40
  -1  18   5   34.50   17.00
  18  -1  -5   84.89   20.60
  18 -18   5  238.68   21.80
   0 -18  -5  260.47   26.70
 -18   0   5  285.27   23.00
  18   0  -5  275.67   29.80
   0  18   5  191.58   23.80
 -19   2  -5   17.40   16.80
   2 -19   5   16.00   15.90
   2  17  -5   10.50   15.00
  17 -19  -5   -7.50   26.70
 -19  17   5   14.40   14.50
  17   2   5   15.90   18.50
 -17  -2  -5   15.00   15.60
  -2  19  -5    3.40   15.40
  19 -17  -5   10.90   27.00
  19  -2   5   25.00   18.20
  -2 -17   5   13.60   16.80
 -17  19   5    6.60   14.60
   3  16  -5   25.20   16.60
   3 -19   5   11.00   14.60
 -19   3  -5   -8.30   16.90
 -19  16   5   -5.30   14.90
  16   3   5   -1.30   17.80
  16 -19  -5   10.30   30.40
 -16  19   5   14.50   14.70
  -3  19  -5    8.70   15.10
  -3 -16   5    3.70   16.90
  19  -3   5    4.60   18.10
 -16  -3  -5    6.20   15.10
  19 -16  -5    1.80   25.70
  15   4   5    1.40   17.50
 -19  15   5    8.90   13.80
   4 -19   5   16.20   14.90
   4  15  -5   22.20   17.60
 -19   4  -5   14.00   16.80
  15 -19  -5  -22.10   27.10
  -4  19  -5    0.80   14.80
  19 -15  -5   13.70   20.70
 -15  -4  -5   12.10   15.30
  -4 -15   5   24.40   17.00
 -15  19   5   18.20   14.00
  19  -4   5   10.20   17.40
   5  14  -5   43.00   21.20
   5 -19   5   25.60   14.10
  14   5   5   39.70   17.50
 -19  14   5   25.60   14.50
 -19   5  -5   28.90   17.80
  14 -19  -5   32.10   27.10
  -5  19  -5   10.90   16.50
 -14  19   5   23.00   13.90
  -5 -14   5   28.40   17.40
  19 -14  -5   42.70   22.50
  19  -5   5   27.00   17.50
 -14  -5  -5   24.50   16.10
  13   6   5    8.10   16.80
  13 -19  -5   -2.00   30.30
   6  13  -5    1.80   17.40
 -19  13   5   -2.40   12.70
   6 -19   5    6.60   12.80
 -19   6  -5    1.40   18.30
 -13  19   5    1.70   15.30
  -6 -13   5   22.30   17.40
  19  -6   5  -10.30   17.60
  -6  19  -5    9.00   16.80
 -13  -6  -5   -5.10   14.70
  19 -13  -5   12.30   22.80
 -19  12   5   13.00   12.30
   7  12  -5   22.40   16.30
  12 -19  -5   61.09   29.00
   7 -19   5   14.30   12.70
  12   7   5   23.40   16.40
 -19   7  -5    6.40   18.40
  -7 -12   5   42.60   17.70
  19 -12  -5   26.50   21.10
 -12  19   5   27.80   14.30
  -7  19  -5    2.10   16.80
 -12  -7  -5   22.40   15.60
  19  -7   5   34.20   17.00
  11 -19  -5    9.70   32.90
 -19   8  -5    7.00   17.80
   8 -19   5    3.50   12.90
  11   8   5   15.10   16.30
 -19  11   5   15.00   13.10
  -8  19  -5    4.10   15.30
  19 -11  -5   14.50   22.20
  -8 -11   5   -4.90   17.90
  19  -8   5   18.50   17.00
 -11  19   5   24.40   15.60
 -11  -8  -5    5.20   14.20
   9 -19   5   89.29   18.50
 -19  10   5  122.59   18.40
  10   9   5  117.89   19.80
 -19   9  -5   84.89   20.20
  10 -19  -5  148.49   34.80
  -9 -10   5  117.49   21.90
  19  -9   5  116.69   19.10
  19 -10  -5  102.99   24.00
 -10  -9  -5   88.99   16.40
  -9  19  -5  105.39   19.40
 -10  19   5  116.99   22.30
 -19   9   5   55.49   13.70
  10 -19   5   40.20   13.00
   9  10   5   31.90   16.00
 -19  10  -5   46.90   19.00
   9 -19  -5   53.49   36.80
  19 -10   5   55.09   18.40
  -9 -10  -5   35.30   14.30
 -10  -9   5   36.80   11.20
  19  -9  -5   33.60   19.50
 -10  19  -5   34.50   16.10
 -10  -9   5   22.30   20.20
  -9  19   5   29.20   16.90
  11 -19   5   43.20   13.90
   8  11   5   54.59   16.70
 -19   8   5   66.69   13.90
 -19  11  -5   69.09   19.50
 -11  19  -5   41.20   17.10
  -8  19   5   49.80   17.70
  19  -8  -5   58.89   19.80
 -11  -8   5   53.09   12.40
  19 -11   5   89.19   19.40
  -8 -11  -5   70.39   15.10
 -11  -8   5   56.09   20.90
 -19   7   5  110.39   17.70
   7 -19  -5  221.28   42.00
 -19  12  -5  127.19   21.40
   7  12   5   89.19   18.30
  12 -19   5  120.49   18.80
 -12  -7   5   88.19   16.90
  19  -7  -5  124.69   25.00
  19 -12   5  124.09   25.00
  -7 -12  -5   98.79   19.10
  -7  19   5  154.88   24.20
  13 -19   5   21.40   13.20
   6  13   5   31.40   14.80
 -19   6   5   26.70   12.80
 -19  13  -5    9.70   18.70
  19 -13   5   35.50   18.70
  -6  19   5   25.80   17.30
  19  -6  -5   11.10   19.90
  -6 -13  -5   33.90   14.30
 -13  -6   5    4.70   11.80
 -19   5   5   32.30   12.80
   5  14   5   33.50   20.00
  14 -19   5   27.10   13.30
 -19  14  -5    9.60   19.00
 -14  19  -5   66.19   19.80
  19 -14   5   36.40   18.70
  19  -5  -5   22.10   17.70
 -14  -5   5   16.70   12.50
  -5  19   5   16.30   17.90
  -5 -14  -5   24.20   15.30
   4  15   5  -26.90   15.20
 -19   4   5    9.00   13.00
  15 -19   5    3.70   12.40
 -19  15  -5   -4.30   19.10
  -4  19   5    8.20   17.80
  -4 -15  -5    5.20   15.90
  19  -4  -5    8.60   18.40
 -15  -4   5   -8.80   13.70
  19 -15   5    8.00   19.00
 -19   3   5   54.69   13.80
   3  16   5   55.19   16.70
   3 -19  -5  -11.00   20.20
  16 -19   5   56.09   12.90
  -3  19   5   10.90   19.60
  -3  19   5    9.90   15.40
  -3 -16  -5   15.90   17.20
 -16  -3   5   47.40   13.40
  19 -16   5   32.30   20.40
  19  -3  -5   71.99   19.50
 -19   2   5  161.58   20.20
   2 -19  -5  123.39   21.40
   2  17   5  108.69   21.40
  17 -19   5  159.38   19.20
  19 -17   5  195.68   27.30
  19  -2  -5  175.38   24.80
  -2 -17  -5  113.59   22.40
 -17  -2   5  146.59   19.30
 -20  16   5   36.40   14.40
   4 -20   5   33.50   15.50
  16 -20  -5   32.80   30.80
   4  16  -5   41.60   16.70
  16   4   5   34.00   19.10
 -20   4  -5   10.10   18.30
  20  -4   5   23.80   18.50
  20 -16  -5   21.70   23.80
 -16  -4  -5   25.60   16.10
  -4  20  -5   33.90   15.80
  -4 -16   5   31.20   18.00
 -16  20   5   24.00   15.40
  15 -20  -5  -28.70   30.40
   5 -20   5   11.00   14.70
   5  15  -5   15.20   16.60
 -20  15   5   10.40   14.60
  15   5   5   20.30   18.20
 -20   5  -5   18.10   17.30
 -15  20   5   -4.90   14.60
  20 -15  -5   10.30   22.50
 -15  -5  -5   16.00   15.90
  20  -5   5    9.80   17.90
  -5  20  -5   22.50   17.10
  -5 -15   5   21.90   18.30
   6 -20   5   24.10   14.60
  14   6   5   40.80   18.10
   6  14  -5   13.90   20.70
  14 -20  -5   30.10   27.50
 -20   6  -5    7.90   17.80
 -20  14   5   12.10   13.40
 -14  -6  -5   20.50   16.80
  20 -14  -5   19.40   22.10
 -14  20   5   40.00   14.20
  20  -6   5   32.30   18.50
  -6  20  -5   11.00   15.30
  -6 -14   5    9.40   17.90
  13   7   5   41.90   18.00
   7 -20   5   28.60   13.70
 -20  13   5   22.80   13.40
   7  13  -5   27.30   17.40
 -20   7  -5   43.20   19.90
  13 -20  -5   11.70   33.10
  20 -13  -5   20.90   20.80
 -13  -7  -5   24.20   15.00
  -7 -13   5   45.30   18.10
  20  -7   5   35.00   17.60
  -7  20  -5   -3.00   15.90
 -13  20   5   15.60   15.80
   8 -20   5   31.50   14.30
 -20  12   5   38.80   12.80
  12 -20  -5   47.10   31.30
 -20   8  -5   25.20   18.60
   8  12  -5   24.10   17.60
  12   8   5   57.49   18.00
  20  -8   5   22.30   17.50
  -8 -12   5   17.80   19.50
  20 -12  -5   46.30   20.60
  -8  20  -5   38.90   16.10
 -12  -8  -5   34.70   16.30
 -12  20   5   43.30   15.00
  11 -20  -5  121.39   31.80
  11   9   5   88.29   19.00
 -20  11   5   86.69   17.70
 -20   9  -5   62.49   19.30
   9 -20   5   71.49   15.50
 -11  20   5   95.99   17.50
 -11  -9  -5   70.89   15.80
  20 -11  -5   82.19   22.20
  -9 -11   5   42.20   21.00
  20  -9   5   71.29   18.90
  -9  20  -5   82.39   18.50
  10  10   5    2.20   17.30
  10 -20   5   12.30   13.80
 -20  10   5   31.00   12.40
 -20  10  -5   14.30   20.10
  10 -20  -5    9.30   33.40
  20 -10   5   26.30   18.50
 -10  20   5   25.60   16.40
 -10  20  -5   21.30   16.20
 -10 -10  -5   20.10   14.70
 -10 -10   5  -22.10   20.00
  20 -10  -5   42.20   20.60
   9 -20  -5  118.39   38.50
 -20   9   5   86.29   17.60
 -20  11  -5   97.09   20.30
  11 -20   5   99.29   17.80
   9  11   5   85.79   18.20
  20 -11   5   92.99   19.60
  -9 -11  -5   97.29   19.90
  -9  20   5   92.39   18.10
 -11  -9   5   80.39   15.50
  20  -9  -5   83.69   20.60
 -11  -9   5   97.39   23.00
 -11  20  -5   88.19   17.60
   8 -20  -5   -6.30   39.70
 -20  12  -5   42.70   20.00
  12 -20   5   18.70   13.20
 -20   8   5   13.80   13.60
   8  12   5   39.30   16.60
  -8 -12  -5    6.70   16.00
  20 -12   5   32.10   18.20
  20  -8  -5   18.10   19.50
  -8  20   5   28.30   17.00
 -12  -8   5  -13.50   24.50
 -12  -8   5   25.70   12.20
  13 -20   5   15.50   13.60
 -20  13  -5   20.10   19.40
   7  13   5   36.00   15.80
 -20   7   5   20.60   12.70
  -7 -13  -5   32.10   15.20
  20  -7  -5   29.50   17.90
  -7  20   5   45.10   17.60
  20 -13   5   63.59   19.50
 -13  -7   5   23.50   13.00
 -13  20  -5   45.40   16.70
 -20   6   5   19.60   13.10
  14 -20   5   12.90   13.50
 -20  14  -5   -5.50   19.00
   6  14   5   22.20   15.60
  20  -6  -5   44.50   19.00
 -14  -6   5   16.50   13.80
  -6  20   5   37.50   17.70
  20 -14   5   57.69   19.70
  -6 -14  -5   31.30   15.20
 -20   5   5   26.60   13.30
  15 -20   5   18.60   13.20
 -20  15  -5   26.50   20.70
   5  15   5   -8.60   16.30
  20  -5  -5   13.10   20.10
  -5 -15  -5   16.00   14.30
 -15  -5   5    9.50   13.40
  20 -15   5   34.70   19.80
  -5  20   5   30.30   18.60
   4  16   5   45.20   17.00
 -20  16  -5   72.79   20.90
  16 -20   5   64.89   14.80
 -20   4   5   69.49   14.40
  -4  20   5   16.70   20.20
 -16  -4   5   55.99   14.60
  -4 -16  -5   46.80   17.20
  20 -16   5   69.49   21.20
  20  -4  -5   62.09   19.40
   8 -21   5   46.50   14.70
  13   8   5   61.49   18.50
 -21  13   5   70.89   14.10
   8  13  -5   41.30   18.10
  13 -21  -5   24.50   34.40
 -21   8  -5   75.89   20.20
  21 -13  -5   65.59   20.80
  -8  21  -5   33.40   19.90
 -13  21   5   72.29   16.50
 -13  -8  -5   46.50   15.60
  -8 -13   5   72.29   20.80
  21  -8   5   76.79   19.90
  12   9   5   28.40   19.00
   9  12  -5   40.00   20.50
   9 -21   5    9.70   14.20
  12 -21  -5   -2.60   36.30
 -21   9  -5   41.20   19.10
 -21  12   5   39.80   14.00
  21  -9   5   24.40   18.10
  -9 -12   5  -30.60   20.40
 -12  -9  -5   37.10   16.20
  -9  21  -5   22.20   16.20
 -12  21   5   42.40   16.00
  21 -12  -5   32.90   21.50
  10  11  -5   73.29   21.20
  11 -21  -5  105.49   35.10
 -21  10  -5  110.79   21.70
  11  10   5   64.39   18.70
  10 -21   5   57.39   14.60
 -21  11   5   73.19   15.10
  21 -11  -5   96.89   22.40
 -10 -11   5   24.90   21.20
  21 -10   5   91.49   20.50
 -11  21   5   82.89   17.20
 -10  21  -5   26.40   18.30
 -11 -10  -5   68.39   16.60
 -21  11  -5   46.00   20.20
  10 -21  -5   84.39   34.20
  10  11   5   40.90   16.50
 -21  10   5   35.70   13.70
  11 -21   5   56.89   13.90
  21 -10  -5   64.29   21.30
 -11 -10   5   25.90   22.00
 -11  21  -5   44.40   15.70
 -10 -11  -5   35.10   15.00
 -10  21   5   45.00   18.50
  21 -11   5   28.00   18.40
  12 -21   5   35.60   14.80
   9  12   5   72.59   17.40
 -21   9   5   65.49   14.30
 -21  12  -5   61.19   21.30
   9 -21  -5   53.29   38.40
 -12  21  -5  117.49   20.40
  21  -9  -5   70.09   18.30
  21 -12   5   67.59   19.40
 -12  -9   5   31.20   12.50
  -9  21   5   38.80   18.40
  -9 -12  -5   39.40   16.60
 -21  13  -5  101.89   21.20
 -21   8   5   89.69   17.70
  13 -21   5   64.49   14.90
  -8  21   5   90.39   19.60
  -8 -13  -5   72.29   16.80
 -13  -8   5   58.89   14.00
  21  -8  -5   80.79   19.40
 -13  21  -5  122.29   21.50
  21 -13   5  101.99   20.30
   0   0  -6   25.60   10.20
   0   0  -6   18.90   15.90
   1   0   6  574.44   34.70
   1  -1  -6  475.75   45.50
   0   1  -6  502.65   45.50
  -1   1   6  560.14   35.30
   0   1  -6  534.35   38.40
   1  -1  -6  547.15   38.50
   0  -1   6  582.14   35.30
   0  -1   6  590.04   34.60
  -1   0  -6  494.05   45.80
  -1   1   6  569.34   34.50
   1  -1  -6  499.05   37.60
  -1   0  -6  571.04   37.90
  -1   0  -6  546.65   38.50
   1   0   6  523.35   35.40
   0  -1  -6  504.55   36.30
   0  -1  -6  472.45   43.30
   1  -1   6  490.25   32.90
   1   0  -6  445.86   36.30
   1   0  -6  451.85   43.10
  -1   1  -6  469.35   36.20
   0   1   6  534.65   32.30
  -1   0   6  557.44   33.40
  -1   0   6  529.05   32.40
   1  -1   6  539.25   32.50
  -1   1  -6  468.25   44.40
   0   1   6  491.85   33.10
   0  -1  -6  557.14   36.50
   0  -2   6  388.26   25.70
  -2   0  -6  431.76   30.60
  -2   2   6  387.56   25.80
   0  -2   6  385.76   26.20
   2  -2  -6  333.27   36.30
   0   2  -6  337.47   30.60
   2   0   6  388.96   25.90
   0   2  -6  298.67   37.90
   0  -2   6  376.56   26.50
  -2   0  -6  414.56   38.10
   2  -2  -6  370.06   30.30
   2   0   6  342.57   26.40
  -2   0  -6  385.36   29.90
  -2   2   6  388.06   26.80
   2  -2  -6  346.17   29.60
   1  -2  -6  115.49   19.50
  -2   1  -6   32.10   18.00
   1  -2  -6   92.39   19.80
  -2   1  -6   70.39   18.80
   1   1   6  109.79   15.50
   1  -2   6   86.49   14.60
   2  -1   6   53.19   11.50
   2  -1  -6   58.59   14.70
  -1  -1   6  101.79   15.70
   2  -1  -6   85.99   19.50
   0   2   6  671.33   39.50
   0  -2  -6  573.54   49.40
  -2   0   6  657.83   39.10
   2  -2   6  645.94   39.00
   2  -2   6  575.54   39.30
  -2   2  -6  549.05   49.70
   0  -2  -6  649.54   42.00
  -2   0   6  685.13   39.70
   0  -2  -6  608.24   42.20
  -2   2  -6  629.14   42.60
   2   0  -6  643.44   42.60
   2   0  -6  578.44   48.10
   0   2   6  614.94   41.10
   3  -3  -6   54.89   14.10
   3  -3  -6   74.39   19.30
  -3   0  -6   -5.70   19.80
   0  -3   6   34.90   11.50
  -3   0  -6   37.90   14.50
   2  -3  -6  472.95   32.90
   1   2  -6  382.16   34.40
  -3   2   6  486.65   30.70
  -3   1  -6  474.25   33.60
   2   1   6  441.66   30.50
   2  -3  -6  490.45   34.00
   1   2  -6  430.06   41.30
   1  -3   6  431.86   30.60
  -3   2   6  477.15   29.70
   1  -3   6  478.55   30.80
   1  -3   6  482.45   30.10
  -3   1  -6  436.16   36.70
   3  -2  -6  449.06   34.50
   3  -1   6  394.56   33.20
  -2   3   6  450.75   30.50
  -2  -1  -6  366.56   49.70
  -1   3  -6  409.16   41.20
   3  -2  -6  373.36   38.80
   3  -2  -6  452.05   33.60
  -1  -2   6  466.75   30.70
  -1   3  -6  420.26   34.40
  -2  -1  -6  496.05   34.00
   3  -1   6  486.05   30.10
  -1  -2   6  489.35   30.20
  -1  -2   6  519.25   30.80
  -3   1   6  391.76   26.60
   2   1  -6  298.37   30.40
   2  -3   6  393.96   27.00
   2  -3   6  389.06   26.00
  -3   2  -6  416.46   37.70
   1  -3  -6  408.26   29.70
   2   1  -6  286.97   37.30
   1   2   6  340.47   31.50
   1  -3  -6  383.36   30.10
  -3   2  -6  366.06   29.80
  -3   1   6  401.16   26.00
   1   2   6  361.46   26.90
   2  -3   6  431.16   26.30
  -2  -1   6  394.56   26.80
  -2  -1   6  402.36   25.90
   3  -1  -6  333.97   37.60
  -2   3  -6  378.96   38.20
  -1   3   6  367.56   29.30
   3  -1  -6  348.57   30.70
  -2   3  -6  359.56   31.00
  -1  -2  -6  385.96   38.20
  -1  -2  -6  392.26   29.60
  -2  -1   6  377.66   26.10
   3  -2   6  399.96   26.20
   3  -2   6  340.77   26.10
  -1   3   6  342.87   26.50
  -1  -2  -6  415.36   30.50
   3   0  -6   24.70   10.30
   0  -3  -6   13.90   14.70
   3   0  -6   16.00   14.30
  -3   3  -6    5.90   14.80
  -3   3  -6    5.90   10.30
   3  -3   6    3.20   10.10
   0  -3  -6   52.59   14.60
   4  -4  -6  163.18   22.60
   0  -4   6  202.68   20.60
  -4   4   6  240.18   18.30
   0   4  -6  201.88   30.70
   0  -4   6  199.28   19.80
   0  -4   6  210.18   19.20
  -4   4   6  242.08   20.50
   4  -4  -6  219.58   23.90
   0   4  -6  189.08   23.90
   4   0   6  217.48   18.90
  -4   0  -6  261.57   24.40
   1  -4   6  414.96   28.40
   1   3  -6  356.66   39.80
   3   1   6  399.16   27.70
   3  -4  -6  365.16   31.10
   3  -4  -6  383.26   31.50
   1  -4   6  399.66   27.60
  -4   3   6  410.66   28.20
   1  -4   6  435.96   28.50
  -4   1  -6  453.45   32.70
   1   3  -6  386.16   31.60
  -1  -3   6  418.06   28.60
  -3  -1  -6  413.46   32.00
  -1  -3   6  410.16   28.10
   4  -3  -6  379.16   30.90
   4  -3  -6  406.06   31.70
  -3   4   6  399.96   27.30
  -3   4   6  428.96   28.70
  -1   4  -6  430.96   39.10
  -1  -3   6  420.76   27.80
  -1   4  -6  403.26   31.70
   2  -4  -6  131.69   21.60
   2  -4   6  129.39   16.80
   2  -4  -6  167.78   20.60
   2  -4   6  130.19   16.00
  -4   2   6  138.19   16.90
  -4   2   6  135.09   15.90
   2   2  -6  106.79   28.00
  -2  -2   6  122.69   15.30
  -2   4  -6  130.49   28.80
  -2   4  -6  134.99   20.60
   4  -2   6  140.49   15.90
   4  -2  -6  120.69   25.90
   4  -2  -6  162.78   20.90
  -2  -2  -6  102.59   25.50
  -2   4   6  128.99   17.60
  -2  -2  -6  162.18   21.70
   4  -2  -6  150.08   20.90
  -2   4   6  145.09   15.40
  -2  -2   6  111.29   17.10
  -2  -2   6  150.98   17.00
   1  -4  -6  120.39   20.30
   3   1  -6   70.39   20.40
   3  -4   6  109.09   15.50
  -4   1   6  114.19   15.30
   1   3   6  114.79   15.00
   1   3   6  120.29   16.20
   1  -4  -6  110.69   20.10
   3  -4   6  106.39   15.30
  -4   1   6  130.29   16.00
   4  -3   6  111.59   15.80
  -1   4   6  128.99   16.80
  -1  -3  -6  140.49   28.30
   4  -1  -6  130.29   27.50
  -1   4   6  124.39   14.50
  -1  -3  -6   96.99   16.80
  -3   4  -6   94.99   20.30
  -3  -1   6  117.49   15.80
  -3  -1   6  141.79   16.40
  -3  -1   6  115.29   15.20
  -4   4  -6  109.59   20.50
  -4   0   6  136.99   16.10
  -4   4  -6  116.39   28.10
   4  -4   6  117.69   16.40
  -4   0   6  115.79   15.60
   0  -4  -6  108.69   20.80
   4   0  -6  127.09   21.20
   0   4   6  120.69   15.00
   0   4   6  115.99   17.10
   4  -4   6  147.99   15.40
   4   0  -6  151.08   28.20
   0  -5   6  108.69   16.00
   5   0   6  138.49   15.80
   5  -5  -6  101.79   20.50
   0   5  -6  132.09   27.40
  -5   5   6  150.18   17.20
  -5   5   6  131.39   15.50
  -5   0  -6  120.19   19.20
  -5   5   6   86.99   19.20
   0  -5   6  132.59   16.70
   0  -5   6  125.69   17.40
   1  -5   6  105.79   15.50
   1  -5   6  106.79   17.20
  -5   1  -6  112.59   22.00
   1   4  -6   84.19   21.10
   4  -5  -6  125.59   20.60
   1  -5   6  106.49   16.00
   4   1   6  108.79   15.40
   4  -5  -6  136.39   20.20
  -5   4   6  124.69   16.70
  -5   4   6  122.19   15.10
  -1  -4   6  112.29   15.50
  -4   5   6   95.99   18.40
  -1   5  -6   79.19   20.60
   5  -1   6  121.09   15.30
  -1  -4   6  106.29   17.50
  -4  -1  -6  133.69   22.00
   5  -4  -6  100.09   20.60
  -1   5  -6  102.09   27.20
  -4   5   6  111.19   17.10
  -1  -4   6  117.59   16.00
  -4   5   6  140.19   14.40
   3  -5  -6  185.78   20.70
  -5   2  -6  155.28   21.80
   2  -5   6  159.88   17.30
   3  -5  -6  156.28   20.40
  -5   3   6  149.79   16.70
   2   3  -6  137.59   20.70
   2  -5   6  129.59   16.20
   3   2   6  132.59   16.10
  -5   3   6  144.79   16.80
  -2  -3   6  141.29   18.10
  -2   5  -6  108.69   21.60
   5  -3  -6  157.28   21.00
  -3   5   6  137.39   19.50
  -3   5   6  146.79   15.90
  -3   5   6  153.38   18.00
  -3  -2  -6  145.99   22.30
   5  -3  -6  122.09   21.10
  -2  -3   6  158.48   17.00
  -2  -3   6  127.39   16.00
   3  -5   6   71.99   14.60
   2  -5  -6   92.79   19.40
   2  -5  -6   74.39   15.20
   3   2  -6   43.00   16.10
   3  -5   6   85.29   15.40
   2   3   6  101.69   14.10
  -5   2   6   94.49   15.20
  -2   5   6   73.89   13.20
   5  -3   6   73.99   15.00
  -2   5   6   76.79   13.80
  -3  -2   6   82.99   15.10
  -3  -2   6   65.99   12.40
  -2  -3  -6   79.19   17.40
  -3   5  -6  109.39   27.20
   5  -2  -6  114.89   18.80
  -3   5  -6   82.69   20.20
  -3  -2   6   78.59   12.40
   5  -2  -6   51.89   11.50
  -2   5   6   63.99   17.80
   5  -2  -6   45.00   14.30
   1  -5  -6   63.59   14.60
  -5   1   6   50.49   11.20
   4   1  -6   26.30   14.20
   1   4   6   58.59   11.80
   1  -5  -6   84.59   19.90
   1   4   6   41.00   13.60
  -5   1   6   68.29   11.70
   4  -5   6   63.59   12.10
   4   1  -6   39.00   11.20
   4  -5   6   45.10   11.90
  -4  -1   6   48.50   11.40
   5  -4   6   54.39   11.80
   5  -1  -6  105.09   25.60
  -1  -4  -6  117.99   30.50
  -4   5  -6   84.89   19.10
  -1   5   6   47.40   12.60
  -4  -1   6   60.19   11.90
  -1  -4  -6   62.59   15.70
  -1   5   6   67.99   13.10
   5  -1  -6   78.49   18.70
  -4  -1   6   75.89   15.30
   5  -5   6   20.70   11.30
  -5   0   6   42.30   10.80
   0   5   6   50.49   12.10
   5  -5   6   43.80   15.70
   0  -5  -6   34.30   14.10
   0   5   6   51.79   11.90
  -5   0   6   38.00   11.30
  -5   0   6   31.90   10.60
  -6   0  -6   -8.10   14.30
   6  -6  -6   11.80   11.80
   0  -6   6   -7.50   11.20
  -6   6   6   16.90   10.00
   0   6  -6    6.70    9.30
   0  -6   6   -6.80   12.10
   0   6  -6    7.20   14.00
   0  -6   6    3.80   10.20
  -6   6   6   10.90   11.00
   6   0   6    1.30   10.80
   1   5  -6   45.00   15.30
   1  -6   6   45.00   11.20
   1  -6   6   45.20   12.30
   1  -6   6   41.50   12.20
  -6   5   6   60.89   12.90
  -6   1  -6   24.20   15.30
   5  -6  -6   78.79   18.10
   5   1   6   41.00   11.20
  -6   5   6   48.40   11.80
  -1   6  -6   86.19   19.20
  -5   6   6   49.10   12.10
   6  -5  -6   33.30   11.30
  -1  -5   6   46.30   12.70
   6  -1   6   39.30   11.40
  -1  -5   6   46.30   11.50
  -1  -5   6   31.10   11.50
  -5   6   6   55.79   11.90
   2   4  -6  203.48   24.30
   2  -6   6  197.78   19.00
   2   4  -6  167.08   31.90
   2  -6   6  196.18   18.90
   2  -6   6  214.58   20.20
  -6   2  -6  187.08   24.90
  -6   4   6  209.58   18.20
  -6   4   6  219.18   20.10
   4   2   6  195.28   19.10
   4  -6  -6  240.78   21.60
   4  -6  -6  224.48   24.00
  -4  -2  -6  231.68   25.30
  -4   6   6  223.08   20.80
  -2   6  -6  221.08   31.20
  -2   6  -6  251.07   23.80
  -2  -4   6  215.78   19.30
  -2  -4   6  185.68   19.30
   6  -2   6  194.68   19.10
  -2  -4   6  223.48   21.30
  -4   6   6  223.88   18.10
  -6   3  -6   32.40   14.90
   3   3  -6   21.00   11.10
   3  -6   6   35.10   15.10
   3   3  -6   47.10   23.20
   3  -6   6   21.70   11.30
  -6   3   6   43.50   11.30
   3   3   6   24.20   11.40
  -3   6  -6   35.30   10.60
  -3  -3   6   25.70   11.00
  -3   6   6    4.40    9.70
   6  -3   6   21.70   11.90
  -3   6   6   37.30   11.80
  -3  -3   6   24.50   10.60
  -3  -3  -6   24.40   14.60
  -3  -3   6   59.89   12.20
  -3   6  -6    0.10   15.30
  -3   6   6   33.90   10.10
   2  -6  -6  101.99   20.00
   2  -6  -6  111.29   18.40
  -6   2   6   88.69   16.20
   2   4   6   78.09   14.00
  -6   2   6   75.79   15.10
   4  -6   6   64.99   12.80
   4  -6   6   75.09   18.40
  -2   6   6  100.39   16.70
  -2   6   6   59.69   12.10
  -4   6  -6   77.89   20.70
  -4  -2   6   52.99   11.90
  -2  -4  -6   59.59   15.40
  -4  -2   6   56.59   12.00
  -4  -2   6   40.80   13.20
  -6   1   6   39.10   13.00
   5  -6   6   36.50   11.70
   5  -6   6   56.59   11.10
   1   5   6   37.20   11.20
   1  -6  -6   40.50   13.20
  -1   6   6   56.69   12.70
  -5  -1   6   41.00   11.90
  -5   6  -6  107.29   22.20
  -1  -5  -6   27.70   14.70
  -1   6   6   37.90   10.90
   6  -5   6   46.80   11.90
  -1   6   6   21.00    9.50
  -5  -1   6   39.20   13.10
   6  -6   6   21.60    9.40
   0   6   6   16.00   10.30
   0  -6  -6   34.20   13.50
   6  -6   6   10.20   11.70
   0   6   6   29.70   12.20
  -6   0   6   21.30   12.70
  -6   0   6    5.50   11.80
   0  -7   6  181.08   17.90
  -7   7   6  159.18   28.00
   0  -7   6  129.99   18.20
   7   0   6  170.58   18.70
  -7   7   6  193.88   16.90
  -7   0  -6  232.28   24.60
   6   1   6   41.90   12.50
   1  -7   6   44.40   12.40
  -7   1  -6   56.09   16.60
   1  -7   6   61.19   21.50
   1  -7   6   47.10   11.20
  -7   6   6   83.99   12.60
  -6  -1  -6   76.19   16.60
   7  -1   6   54.99   12.30
  -1   7  -6   33.50   15.00
  -1  -6   6   41.40   12.00
  -1  -6   6   52.09   11.70
  -6   7   6   56.19   13.10
  -6   7   6   57.69   12.00
  -1  -6   6   66.69   12.90
   2  -7   6   41.20   11.80
   5   2   6   43.80   11.60
   5  -7  -6   70.99   20.40
   2  -7   6   49.90   16.90
  -7   5   6   77.79   12.80
  -7   2  -6   30.50   15.50
  -5   7   6   76.39   16.00
  -5   7   6   35.90    9.90
  -2   7  -6   40.50   15.80
  -2  -5   6   35.60   12.00
  -5   7   6   56.09   11.60
  -2   7  -6   23.60   11.30
  -2  -5   6   48.40   11.50
   7  -2   6   43.20   12.30
  -2  -5   6   57.69   12.60
  -5  -2  -6   46.40   16.50
   4  -7  -6  329.37   28.70
   4  -7  -6  354.96   27.00
   4   3   6  292.47   23.60
  -7   3  -6  318.77   28.30
   3  -7   6  351.26   24.70
   3  -7   6  287.57   24.10
  -3  -4   6  319.07   26.30
  -3  -4   6  325.87   25.60
  -4   7   6  283.97   26.60
   7  -3   6  318.07   24.30
  -4  -3  -6  325.37   29.80
  -3   7  -6  280.17   36.10
  -4   7   6  328.27   23.00
  -4   7   6  343.07   24.70
  -3   7  -6  308.17   29.20
   4  -7   6  196.48   18.90
   3  -7  -6  210.98   22.00
  -7   3   6  187.28   20.30
   3   4   6  162.08   17.90
   4  -7   6  174.08   18.80
  -7   4  -6  207.88   22.70
  -3  -4  -6  168.28   24.00
   7  -4   6  178.58   18.50
  -3   7   6  176.18   17.30
  -4   7  -6  182.18   23.90
  -3   7   6  201.68   19.60
  -3   7   6  167.78   21.60
  -4  -3   6  188.38   20.80
   2  -7  -6  113.79   19.60
   2   5   6   53.19   11.50
  -7   2   6   84.39   15.50
   5  -7   6   58.09   12.70
   5  -7   6   92.99   14.90
  -2   7   6   42.60   11.50
  -2   7   6   65.19   18.60
  -5  -2   6  108.89   17.40
  -2  -5  -6   52.29   14.50
  -5  -2   6   73.09   15.40
  -2   7   6   92.29   16.80
   7  -5   6   51.69   14.40
  -5   7  -6   48.60   19.00
  -5   7  -6  117.99   23.70
   1   6   6  103.19   14.90
   6  -7   6   93.19   16.60
   1  -7  -6  129.69   19.60
  -7   1   6  138.49   15.70
   6  -7   6  109.19   15.90
   7  -6   6  106.59   21.00
  -1   7   6  141.89   17.80
  -1  -6  -6  105.29   20.60
   7  -6   6  104.29   14.90
  -1   7   6  106.59   14.70
  -6  -1   6  104.99   16.50
   7  -7   6  466.15   32.50
   0  -7  -6  463.05   34.20
  -7   0   6  502.95   32.00
   0   7   6  433.76   31.20
   0   7   6  533.75   35.10
   7  -7   6  475.95   31.60
  -8   0  -6    4.60   16.10
  -8   8   6   19.10   11.50
   0  -8   6    1.50   11.50
   8   0   6   12.10   11.50
   1  -8   6  220.48   20.60
  -8   1  -6  202.88   25.30
  -8   7   6  214.58   19.90
   7   1   6  175.38   19.50
  -1  -7   6  184.38   18.00
   8  -1   6  188.68   19.30
  -7   8   6  190.98   17.30
  -7   8   6  204.98   20.50
  -7  -1  -6  200.68   25.20
   6   2   6  128.69   16.70
  -8   2  -6  138.79   23.10
   2  -8   6  154.18   18.40
   2  -8   6  108.59   17.10
  -8   6   6  156.78   17.20
  -2   8  -6  117.19   29.60
  -6  -2  -6  121.39   18.30
  -2   8  -6  153.58   22.30
  -6   8   6  121.29   18.50
  -2  -6   6  152.78   19.60
  -6   8   6  119.59   15.60
  -2  -6   6  134.99   17.30
   8  -2   6  131.09   17.20
   5   3   6   48.20   11.70
  -8   3  -6   29.70   15.90
  -8   5   6   47.10   12.30
   3  -8   6   39.70   11.80
   3  -8   6   22.40   12.50
   8  -3   6   52.39   13.00
  -3   8  -6   23.80   17.40
  -5  -3  -6   54.09   16.70
  -3  -5   6   37.80   11.20
  -5   8   6   35.90   11.40
  -3  -5   6   54.99   12.90
  -5   8   6   41.80   12.80
  -8   4  -6   60.09   15.60
   4   4   6   78.99   14.80
   4  -8   6   78.89   15.90
   4  -8  -6  118.89   21.40
  -8   4   6   96.79   16.20
   4  -8  -6   63.49   16.10
   4  -8   6   61.99   12.20
  -4  -4  -6   63.09   17.30
  -4   8   6  108.49   14.00
  -4   8   6   91.69   17.30
  -4   8  -6   56.39   16.40
  -4  -4   6  115.79   18.90
  -4   8  -6   89.49   19.40
   8  -4   6  101.39   15.90
  -4   8  -6   79.09   21.60
  -4  -4   6   72.89   15.10
   5  -8   6  277.37   24.40
   3   5   6  325.17   23.70
   3  -8  -6  335.87   29.30
   5  -8   6  332.57   24.70
   3  -8  -6  271.17   26.90
  -8   3   6  323.87   24.30
   8  -5   6  341.57   24.80
  -3   8   6  323.87   25.80
   8  -3  -6  354.56   36.50
  -5   8  -6  342.47   38.80
  -3   8   6  318.67   23.50
  -5  -3   6  331.67   24.20
  -5   8  -6  341.47   30.30
  -5  -3   6  317.57   26.20
  -3  -5  -6  311.57   30.10
  -5   8  -6  364.46   31.70
  -3   8   6  260.17   27.60
   2  -8  -6  272.07   26.40
   6  -8   6  289.57   24.10
   2  -8  -6  342.07   31.90
  -8   2   6  341.67   24.00
   2   6   6  287.97   23.30
   6  -8   6  296.17   23.60
   6   2  -6  366.96   37.70
  -6  -2   6  331.97   24.00
  -2   8   6  298.37   23.20
  -6  -2   6  348.97   26.00
  -6   8  -6  234.68   29.70
  -2   8   6  322.17   25.40
   8  -6   6  305.07   24.40
   8  -2  -6  330.27   35.70
  -2  -6  -6  289.37   27.80
  -2   8   6  315.17   30.20
   7   1  -6  296.27   37.90
   1   7   6  207.48   19.40
   7  -8   6  215.28   21.10
  -8   1   6  246.78   20.30
   1  -8  -6  162.28   23.90
   7  -8   6  248.28   20.60
  -1   8   6  213.88   19.20
   8  -7   6  205.78   26.50
  -1   8   6  248.08   22.50
  -7  -1   6  249.08   20.80
  -1  -7  -6  208.48   23.20
   8  -7   6  240.58   19.40
   8  -1  -6  245.08   34.50
   0  -8  -6   25.00   14.20
   8  -8   6   46.00   19.20
   0   8   6   38.70   11.60
   8   0  -6   33.20   27.80
   8  -8   6   37.00   10.40
  -8   0   6   43.90   12.00
  -9   9   6  201.68   20.80
   9   0   6  191.68   20.30
  -9   0  -6  173.88   25.30
   0  -9   6  219.78   21.40
   1  -9   6  245.78   21.70
   8   1   6  213.88   20.80
  -9   8   6  240.18   21.50
  -9   1  -6  260.67   26.50
  -1  -8   6  219.98   22.50
  -8   9   6  203.88   22.00
  -8  -1  -6  248.18   26.70
   9  -1   6  213.78   20.80
  -1  -8   6  232.58   19.70
   2  -9   6   31.00   11.80
   7   2   6   17.70   11.90
  -9   2  -6   26.10   16.20
  -9   7   6   20.30   11.50
   9  -7  -6   25.40   24.50
  -2  -7   6   14.40   10.30
  -2  -7   6   23.60   16.20
  -7   9   6   39.90   11.30
  -7  -2  -6   12.30   15.30
  -7   9   6   32.90   12.80
   9  -2   6   12.30   12.80
  -9   3  -6  101.39   17.10
   6   3   6   75.49   15.60
   3  -9   6  101.69   16.80
   3  -9   6   83.09   13.80
  -9   6   6  102.59   16.30
   9  -6  -6   85.49   25.60
  -3  -6   6   81.49   15.60
  -3   9  -6   45.70   20.30
  -6  -3  -6   68.39   16.10
  -6   9   6   74.59   14.50
   9  -3   6   73.99   13.60
  -3   9  -6   97.29   20.20
  -3  -6   6  108.19   18.90
  -9   5   6  203.38   19.50
   5   4   6  189.08   18.90
   4  -9   6  186.48   19.70
   5  -9  -6  210.88   35.40
  -9   4  -6  204.48   25.40
   4  -9   6  164.48   19.50
  -4   9  -6  208.88   27.60
   9  -4   6  192.58   19.80
  -4  -5   6  215.08   19.30
  -4   9  -6  167.78   24.80
  -5   9   6  168.38   18.10
  -5   9   6  184.98   20.40
  -5  -4  -6  188.48   23.90
   9  -5  -6  161.08   32.00
  -4  -5   6  228.78   21.70
  -4   9  -6  224.68   32.40
   4   5   6  111.49   16.60
   5  -9   6  117.09   17.10
   4  -9  -6  148.49   22.20
   5   4  -6  176.98   34.50
   5  -9   6   87.99   18.00
  -9   5  -6  152.98   22.10
  -9   4   6  135.59   17.10
  -4   9   6   93.49   18.50
  -5  -4   6  124.59   20.40
   9  -5   6  100.59   17.40
  -4   9   6  117.59   15.00
   9  -4  -6  139.39   27.80
  -5  -4   6  131.09   16.40
  -4  -5  -6  114.29   21.10
  -5   9  -6  137.29   24.40
   6  -9   6  132.69   17.70
   6  -9   6  138.19   18.80
   6   3  -6  197.98   35.60
  -9   3   6  152.18   17.30
   3  -9  -6  103.49   20.80
   3  -9  -6  149.09   24.80
   3   6   6  137.79   16.50
  -6   9  -6   95.69   19.30
  -3  -6  -6  158.48   21.90
   9  -3  -6  163.78   31.90
   9  -6   6  123.59   18.10
  -6  -3   6  149.59   16.70
  -3   9   6  127.39   19.60
  -6  -3   6  146.69   20.80
  -3   9   6  129.79   16.00
   2   7   6  158.88   17.70
   7  -9   6  162.78   20.00
   2  -9  -6  156.68   22.40
   7  -9   6  178.48   18.20
   7   2  -6  267.37   36.20
  -9   2   6  197.28   18.70
  -2   9   6  167.18   21.00
   9  -7   6  182.18   20.00
  -2   9   6  172.28   17.60
  -7  -2   6  183.78   18.30
   9  -2  -6  181.68   32.90
   1  -9  -6  303.37   27.40
   1   8   6  309.97   24.10
  -9   1   6  356.06   25.10
   8  -9   6  328.77   25.90
   8  -9   6  338.37   24.50
  -8  -1   6  356.56   24.80
  -1  -8  -6  307.57   27.60
   9  -8   6  305.07   23.40
   9  -8   6  322.27   25.70
  -1   9   6  322.67   24.00
  -1   9   6  306.87   26.70
   9  -1  -6  292.67   36.90
   9  -9   6  226.18   22.30
   9   0  -6  287.77   34.40
   0  -9  -6  218.38   24.10
   0   9   6  217.98   19.80
  -9   0   6  246.88   21.30
   9  -9   6  239.48   20.20
 -10  10   6  125.89   19.10
  10 -10  -6  130.49   29.30
   0  10  -6  113.59   21.00
   0 -10   6  137.29   20.10
  10   0   6  120.99   18.40
 -10   0  -6  164.98   25.00
   9   1   6   36.60   12.70
 -10   1  -6   25.30   16.60
   1 -10   6   45.40   13.40
 -10   9   6   37.10   12.20
  -9  10   6   45.30   12.20
  10  -9  -6    0.70   23.90
  -1  10  -6   44.00   19.10
  -9  -1  -6   26.40   16.40
  10  -1   6   30.30   13.00
  -1  -9   6   37.40   14.30
 -10   8   6  308.67   24.40
   8   2   6  247.88   23.90
   2 -10   6  299.37   24.60
 -10   2  -6  309.17   29.90
  -2  -8   6  293.77   26.30
  -2  -8   6  300.77   23.10
  -8  10   6  310.97   25.10
  -2  10  -6  357.96   31.90
  10  -8  -6  282.87   34.90
  10  -2   6  290.27   24.40
  -8  -2  -6  316.17   28.90
 -10   3  -6  351.56   30.10
   7   3   6  293.87   24.60
   3 -10   6  342.17   25.60
 -10   7   6  340.07   25.10
  10  -3   6  314.87   25.30
  -3  -7   6  315.77   28.30
  -7  -3  -6  327.47   29.20
  -7  10   6  300.37   26.00
  -3  10  -6  316.27   38.40
  10  -7  -6  317.77   36.50
  -7  10   6  296.77   23.00
  -3  -7   6  305.67   24.20
   6   4   6  238.78   20.90
 -10   4  -6  289.17   26.70
 -10   6   6  253.47   21.70
   4   6  -6  322.87   38.20
   4 -10   6  233.18   22.00
  -6  -4  -6  225.68   25.60
  10  -6  -6  241.68   35.10
  -4  -6   6  223.18   21.20
  10  -4   6  222.28   22.00
  -4  10  -6  313.27   29.20
  -6  10   6  218.08   20.20
  -6  10   6  207.68   23.60
  -4  -6   6  237.18   24.70
   5   5   6   80.79   15.70
   5 -10   6   88.99   16.40
 -10   5  -6   96.19   18.30
   5 -10   6   80.29   16.70
   5   5  -6  113.89   32.10
 -10   5   6  103.39   16.70
  10  -5  -6   89.19   25.30
  10  -5   6   90.39   17.30
  -5  10  -6  108.09   29.70
  -5  -5   6  124.39   20.10
  -5  10   6   48.10   14.90
  -5  -5   6  110.89   16.10
  -5  -5  -6   56.99   16.00
  -5  10  -6   69.29   19.40
  -5  10   6   74.59   15.10
   6   4  -6  511.35   42.20
   4   6   6  373.06   28.10
 -10   4   6  422.96   28.50
   6 -10   6  327.07   29.20
   6 -10   6  388.26   28.70
   4 -10  -6  341.67   34.40
 -10   6  -6  406.26   31.90
  -6  -4   6  424.96   28.40
  -4  10   6  390.36   27.60
  -4  10   6  398.66   36.50
  -4  10   6  386.86   30.70
  -4  -6  -6  390.26   32.30
  10  -4  -6  401.46   38.30
  -6  10  -6  474.95   33.20
  10  -6   6  423.46   29.40
  -6  -4   6  441.76   31.40
 -10   3   6  207.98   19.20
   7   3  -6  179.58   37.00
   7 -10   6  186.98   20.10
   7 -10   6  183.08   19.40
   3   7   6  194.38   18.40
   3 -10  -6  163.08   22.10
  -3  -7  -6  171.28   22.90
  10  -3  -6  221.28   32.40
  -7  10  -6  170.28   27.60
  -3  10   6  184.88   17.80
  -3  10   6  148.39   22.10
  10  -7   6  204.88   20.40
  -7  -3   6  202.88   19.20
   8 -10   6  169.48   20.70
   8 -10   6  181.58   18.60
   2 -10  -6  146.49   22.30
 -10   2   6  200.18   19.00
   2   8   6  164.08   18.00
  10  -8   6  173.18   20.40
  10  -2  -6  199.18   31.60
  -2  -8  -6  178.18   22.40
  -8  -2   6  215.88   18.90
  -2  10   6  140.89   22.20
  -2  10   6  188.88   18.20
   1   9   6   27.80   12.40
 -10   1   6   25.30   11.70
   9   1  -6   68.99   27.10
   9 -10   6   25.90   11.20
   1 -10  -6   -6.60   14.60
  10  -1  -6   48.80   26.20
  -1  10   6   29.70   19.50
  -1  -9  -6   40.80   14.40
  10  -9   6   38.60   13.90
  -1  10   6   12.80   11.60
  10  -9   6   25.80    9.70
  -9  -1   6   29.50   11.60
 -10   0   6   82.89   16.50
  10 -10   6   86.09   14.90
  10 -10   6   76.09   15.60
  10   0  -6  124.39   29.00
   0  10   6   63.89   12.90
   0 -10  -6   70.79   21.10
   0  11  -6   84.29   21.30
 -11   0  -6   69.29   17.40
 -11  11   6   86.99   18.00
   0 -11   6   65.79   14.40
  11   0   6   67.19   15.50
  11 -11  -6   54.89   26.90
   1 -11   6  339.17   27.30
  10 -11  -6  297.27   36.80
 -11  10   6  341.07   26.70
 -11   1  -6  358.06   30.70
  10   1   6  319.67   26.10
  -1 -10   6  337.77   28.10
  11  -1   6  322.87   26.70
 -10  11   6  342.47   27.00
  11 -10  -6  335.37   37.00
 -10  -1  -6  325.87   30.50
  -1  11  -6  335.87   33.90
 -11   9   6  247.98   22.70
   2 -11   6  241.78   22.90
   9   2   6  227.48   22.20
 -11   2  -6  287.47   27.90
  -2  11  -6  266.47   30.50
  11  -9  -6  230.68   33.60
  11  -2   6  234.18   23.30
  -9  11   6  264.07   23.70
  -9  -2  -6  224.38   27.00
  -2  -9   6  262.27   24.80
 -11   8   6  140.49   18.80
   3 -11   6  128.59   18.20
   8   3   6  105.89   18.00
 -11   3  -6  122.19   24.80
  -8  11   6  139.29   19.50
  -3  11  -6  120.29   21.50
  -8  -3  -6  138.89   23.10
  -3  -8   6  159.78   21.60
  11  -8  -6  105.99   26.00
  -3  -8   6  147.19   16.80
  11  -3   6  123.89   19.10
   4 -11   6  153.78   19.20
 -11   7   6  186.68   19.20
   7   4   6  139.39   18.50
 -11   4  -6  168.48   24.70
  11  -4   6  185.58   20.30
  -4  11  -6  171.48   26.60
  11  -7  -6  162.08   30.40
  -4  -7   6  168.18   22.50
  -4  -7   6  164.88   18.30
  -7  11   6  137.59   21.00
  -7  -4  -6  193.68   23.80
  -7  11   6  169.78   16.60
   5 -11   6  429.66   30.30
   6   5   6  382.76   29.60
 -11   6   6  436.86   30.10
 -11   5  -6  462.35   34.20
  -5  11  -6  454.95   40.80
  -5  -6   6  413.86   33.30
  -6  11   6  413.96   31.50
  11  -6  -6  440.16   39.90
  -5  -6   6  421.16   29.90
  11  -5   6  432.26   31.00
  -6  -5  -6  408.06   33.30
   5   6   6  206.78   20.60
 -11   5   6  242.08   21.20
   6 -11   6  220.58   21.00
   6   5  -6  282.27   37.90
 -11   6  -6  231.38   25.90
   6 -11   6  180.18   27.80
  11  -6   6  229.48   22.40
  11  -5  -6  279.47   33.10
  -6  11  -6  296.27   27.40
  -6  -5   6  228.98   20.40
  -5  11   6  245.88   24.60
  -5  -6  -6  199.28   24.40
  -6  -5   6  233.68   25.20
  -5  11   6  193.58   19.70
   4   7   6  219.78   20.70
 -11   4   6  270.27   21.60
   7 -11   6  216.38   23.60
 -11   7  -6  244.08   25.90
   7   4  -6  273.57   36.40
   7 -11   6  253.57   21.70
  -7  11  -6  190.88   29.60
  11  -7   6  249.88   23.20
  -7  -4   6  253.57   20.90
  -4  -7  -6  197.98   25.10
  -4  11   6  235.28   20.30
  11  -4  -6  267.57   32.70
  -4  11   6  253.87   24.20
  -7  -4   6  307.27   26.70
   3 -11  -6  309.17   28.50
   3   8   6  314.57   24.60
   8 -11   6  344.87   25.40
   8   3  -6  314.17   40.40
   8 -11   6  302.17   26.60
 -11   3   6  358.36   25.50
  -8  -3   6  330.17   25.30
  -3  11   6  341.27   27.70
  -3  -8  -6  338.97   28.20
  11  -3  -6  375.16   35.40
  -3  11   6  262.87   25.70
  11  -8   6  365.36   27.10
  -8  11  -6  283.67   32.90
   9   2  -6  227.48   34.90
   2   9   6  194.98   19.50
   2 -11  -6  197.58   23.50
   9 -11   6  228.48   20.20
 -11   2   6  218.98   20.10
   9 -11   6  232.38   23.70
  -2  -9  -6  215.28   23.50
  -2  11   6  249.38   24.20
  11  -9   6  231.88   22.70
  11  -2  -6  274.47   33.20
  -9  -2   6  229.28   20.40
  -2  11   6  205.38   19.60
 -11   1   6  193.88   18.80
  10   1  -6  170.98   34.00
  10 -11   6  180.58   21.30
   1  10   6  167.88   18.00
  10 -11   6  170.18   18.40
  11  -1  -6  168.38   32.10
  -1 -10  -6  127.49   19.00
  11 -10   6  179.28   17.30
  11 -10   6  183.48   21.40
  -1  11   6  154.88   17.90
 -10  -1   6  202.48   19.90
 -11   0   6   32.20   12.70
  11 -11   6   34.80   11.40
  11   0  -6   27.20   28.90
   0  11   6    7.50   12.80
   0 -11  -6   55.89   14.80
  11 -11   6   50.59   15.00
  12   0   6  110.29   19.80
  12 -12  -6   92.59   25.40
 -12  12   6  147.29   19.50
 -12   0  -6  113.09   18.10
   0 -12   6  134.29   20.60
   0  12  -6  103.19   21.90
   1  11  -6   99.49   21.40
 -12  11   6  107.69   18.70
  11 -12  -6   97.29   27.30
 -12   1  -6  109.39   19.50
   1 -12   6  115.59   19.90
  11   1   6   93.69   17.10
  -1  12  -6  129.79   23.20
  -1 -11   6  107.29   20.30
 -11  -1  -6   86.99   18.50
 -11  12   6  111.49   19.80
  12  -1   6   97.49   16.60
  12 -11  -6   82.59   26.50
 -12  10   6   84.19   17.20
 -12   2  -6   75.89   18.10
  10   2   6   67.99   15.20
   2 -12   6   76.59   14.10
  10 -12  -6   57.99   27.20
 -10  12   6   69.39   15.70
  12  -2   6   60.09   14.70
  -2  12  -6   56.29   19.70
 -10  -2  -6   54.89   16.30
  -2 -10   6   73.39   14.80
  12 -10  -6   88.29   24.80
 -12   3  -6  228.48   26.30
   9   3   6  175.38   20.40
 -12   9   6  194.08   20.50
   3 -12   6  187.18   20.60
  -9  -3  -6  164.98   23.50
  -9  12   6  184.78   22.20
  -3  -9   6  199.98   18.90
  -3  12  -6  225.38   28.80
  12  -3   6  203.08   21.50
  12  -9  -6  197.08   31.10
  -3  -9   6  186.78   23.10
   4 -12   6  210.38   21.20
   8   4   6  192.58   21.00
 -12   4  -6  219.78   27.10
 -12   8   6  220.28   21.30
  -8  -4  -6  200.38   26.00
  -4  -8   6  204.48   19.40
  12  -4   6  236.98   22.80
  -8  12   6  211.48   22.80
  -4  -8   6  258.57   24.70
  -4  12  -6  241.48   29.10
  12  -8  -6  261.27   32.70
   7   5   6  216.68   20.40
 -12   7   6  222.78   20.60
 -12   5  -6  218.38   26.50
   5 -12   6  200.48   21.10
  -7  12   6  175.88   18.10
  -5  12  -6  244.28   27.00
  -7  12   6  221.98   22.50
  -7  -5  -6  192.88   23.80
  -5  -7   6  225.38   24.90
  12  -5   6  209.18   22.00
  -5  -7   6  198.28   20.30
  12  -7  -6  207.58   33.50
   6   6   6   12.90   13.30
 -12   6  -6   35.70   16.90
   6 -12   6   34.00   12.30
 -12   6   6   25.20   12.40
  12  -6   6   41.90   14.60
  -6  -6   6   34.30   11.90
  -6  12   6   37.80   12.90
  12  -6  -6   41.70   23.80
  -6  -6  -6   21.70   13.80
  -6  12  -6   12.20   19.40
  -6  12   6   43.00   13.80
   7 -12   6  250.57   21.60
   5   7   6  234.28   21.60
 -12   7  -6  216.68   26.20
 -12   5   6  239.48   21.70
  -7  -5   6  258.27   21.20
  -7  12  -6  208.98   29.50
  -5  -7  -6  225.48   25.40
  -5  12   6  229.98   23.90
  -5  12   6  218.58   20.20
  -7  -5   6  233.38   27.30
  12  -7   6  271.57   23.50
  12  -5  -6  245.48   31.90
 -12   8  -6  125.59   22.80
 -12   4   6  147.49   17.60
   8   4  -6   77.29   31.50
   8 -12   6  116.59   17.60
   8 -12   6  146.89   20.10
   4   8   6  131.99   17.10
  -4  12   6  123.19   16.50
  -4  -8  -6  144.59   21.00
  12  -8   6  138.69   20.40
  12  -4  -6  192.38   31.50
  -4  12   6  113.79   21.60
  -8  -4   6  146.89   17.50
  -8  -4   6  130.79   24.80
 -12   3   6  379.46   26.60
   9 -12   6  310.37   28.60
   9   3  -6  297.37   45.10
   9 -12   6  408.66   26.80
   3   9   6  329.37   25.80
   3 -12  -6  319.37   33.30
  -3  -9  -6  334.87   29.20
  -3  12   6  330.87   25.30
  12  -3  -6  405.06   36.90
  12  -9   6  384.26   28.50
  -3  12   6  337.47   33.10
  -9  -3   6  352.96   25.80
 -12   2   6  170.18   18.40
  10 -12   6  171.88   18.40
   2  10   6  171.88   18.50
  10   2  -6  132.49   32.80
   2 -12  -6  173.38   22.70
  10 -12   6  183.28   25.20
 -10  -2   6  178.48   18.90
  12 -10   6  191.08   22.10
  -2  12   6  151.18   17.70
  -2 -10  -6  138.09   22.20
  -2  12   6  177.08   23.50
  12  -2  -6  206.58   32.10
   1  11   6   51.69   13.90
  11   1  -6   38.10   29.20
   1 -12  -6   43.20   15.00
  11 -12   6   40.30   16.00
  11 -12   6   57.69   12.00
 -12   1   6   56.69   13.20
  -1  12   6   64.79   13.40
  12  -1  -6   43.00   29.20
  12 -11   6   49.00   10.70
  -1 -11  -6   61.59   15.30
 -11  -1   6   72.79   13.20
  12 -11   6   76.09   16.20
   0 -12  -6  168.48   22.30
   0  12   6  166.48   18.60
 -12   0   6  183.28   19.40
  12 -12   6  186.48   18.30
  12 -12   6  232.18   23.30
  12   0  -6  146.59   29.50
  13 -13  -6   -2.70   23.70
 -13  13   6  -12.00   13.70
 -13   0  -6   -1.60   15.90
   0 -13   6   23.80   14.30
   0  13  -6    9.50   18.90
  13   0   6    2.30   15.00
   1  12  -6   24.70   18.40
  12 -13  -6    3.90   23.30
  12   1   6    3.00   15.50
 -13   1  -6  -12.70   19.50
 -13  12   6   29.20   13.70
   1 -13   6    4.00   13.20
  13  -1   6    8.10   14.40
 -12  -1  -6   26.70   18.20
  -1  13  -6   15.10   19.00
  13 -12  -6   12.10   22.50
  -1 -12   6   11.80   13.70
 -12  13   6    2.30   13.70
  11   2   6  110.59   19.40
 -13   2  -6  134.29   25.60
  11 -13  -6  143.19   29.20
   2  11  -6  148.89   25.90
 -13  11   6  127.59   19.30
   2 -13   6  129.29   20.50
 -11  13   6  124.99   20.80
  -2 -11   6  119.69   21.30
 -11  -2  -6  147.79   24.00
  13 -11  -6  142.49   27.40
  13  -2   6  122.19   20.10
  -2  13  -6  154.28   26.20
 -13  10   6   87.99   17.80
 -13   3  -6   45.90   18.50
  10 -13  -6   52.19   28.60
   3 -13   6   71.49   14.70
  10   3   6   66.69   15.60
  13 -10  -6   40.70   26.40
  -3  13  -6   54.19   20.30
  13  -3   6   83.49   17.00
  -3 -10   6   68.29   15.90
 -10  13   6   79.29   15.40
 -10  -3  -6   57.49   17.80
   4 -13   6   87.59   14.80
   9   4   6   78.29   15.50
 -13   9   6   86.49   14.20
 -13   4  -6   79.99   18.20
  -4  13  -6  130.59   26.20
  -4  -9   6  124.09   21.30
  -9  -4  -6   95.89   17.00
  13  -4   6   95.19   19.40
  -4  -9   6  111.79   15.80
  -9  13   6   99.79   19.70
  13  -9  -6   93.39   25.50
   5 -13   6   60.19   13.90
   8   5   6   48.30   15.00
 -13   8   6   81.89   17.00
 -13   5  -6   42.00   17.50
  -8  13   6   62.39   14.20
  13  -8  -6   56.99   25.10
  -5  13  -6   65.29   19.10
  -8  -5  -6   56.89   15.90
  -5  -8   6   51.99   11.60
  13  -5   6   54.39   16.10
  -5  -8   6   83.89   15.90
   7   6   6  122.99   18.20
 -13   6  -6  137.89   24.40
   6 -13   6  121.89   18.50
 -13   7   6  122.19   18.50
  -6  -7   6  139.29   17.20
  -7  -6  -6  153.98   23.40
  -7  13   6  143.49   21.20
  -6  -7   6  206.38   23.40
  13  -7  -6  170.98   29.80
  -6  13  -6  143.59   27.70
  13  -6   6  129.59   20.90
  -7  13   6  123.19   15.80
 -13   7  -6  138.89   24.40
   6   7   6  141.49   18.10
   7 -13   6  159.98   18.60
 -13   6   6  149.79   19.10
  -7  -6   6  159.78   25.80
  -6  -7  -6  134.89   22.10
  -7  13  -6  159.48   25.40
  13  -6  -6  188.08   30.30
  13  -7   6  163.28   21.90
  -6  13   6  143.99   21.80
  -6  13   6  137.09   16.70
  -7  -6   6  147.39   18.90
 -13   8  -6  210.88   26.10
   5   8   6  197.28   20.70
   8 -13   6  220.08   21.60
 -13   5   6  245.98   21.30
  -5  13   6  226.88   20.70
  -5  -8  -6  248.48   24.80
  -8  -5   6  254.77   29.20
  -8  -5   6  230.18   21.00
  13  -5  -6  236.78   32.20
  -5  13   6  246.28   24.70
  13  -8   6  232.28   24.40
   9 -13   6  253.37   21.60
 -13   9  -6  217.48   26.30
 -13   4   6  273.27   22.00
   4   9   6  219.48   21.10
  -9  -4   6  254.67   20.80
  -4  13   6  267.87   26.20
  -4  -9  -6  214.28   25.20
  13  -4  -6  251.57   36.00
  -9  13  -6  189.18   29.90
  -4  13   6  224.18   20.80
  13  -9   6  265.97   24.70
  10 -13   6   30.00   12.30
 -13   3   6   41.60   12.30
  10   3  -6  -52.79   28.10
  10 -13   6   49.60   22.10
   3  10   6   26.30   12.40
   3 -13  -6   59.39   21.30
 -10  -3   6   31.20   11.40
  -3 -10  -6   -2.50   15.50
  -3  13   6   18.50   13.70
  13  -3  -6   21.60   27.80
  13 -10   6   17.40   16.00
  -3  13   6   33.40   15.80
 -13   2   6  131.39   17.20
   2 -13  -6   81.79   18.10
  11   2  -6   49.60   29.70
  11 -13   6  106.79   16.60
  11 -13   6  125.49   20.90
   2  11   6   89.49   17.50
  -2 -11  -6  118.89   20.50
  13  -2  -6  130.69   29.50
  13 -11   6  114.29   21.50
  -2  13   6   97.79   15.60
 -11  -2   6  115.89   17.30
 -13   1   6   21.90   12.10
   1  12   6   31.90   12.90
  12   1  -6  -31.90   25.90
  12 -13   6   34.10   16.10
  12 -13   6   22.40   11.60
  -1  13   6   22.10   13.10
 -12  -1   6   24.40   12.10
  -1 -12  -6   -2.10   15.10
  13 -12   6   35.50   16.20
  13  -1  -6  -33.10   26.40
  13 -12   6   16.10   10.80
  13 -13   6   31.20   11.00
   0  13   6   35.80   13.30
 -13   0   6   36.60   12.40
  13 -13   6   49.60   16.80
  13   0  -6   31.60   25.10
   0 -14   6    7.60   15.10
  14   0   6   -5.20   15.20
   0  14  -6   -3.10   17.30
 -14  14   6    2.00   13.20
  14 -14  -6    0.00   22.90
 -14   0  -6   -1.30   16.60
  13   1   6   -3.20   15.20
 -14   1  -6    8.10   16.70
 -14  13   6   11.90   12.70
   1 -14   6   13.90   13.60
  13 -14  -6    1.50   23.90
   1  13  -6    2.90   20.40
 -13  14   6  -21.00   15.00
  14  -1   6    1.80   15.20
  -1 -13   6   25.30   14.40
 -13  -1  -6   15.20   17.10
  14 -13  -6   19.90   24.90
  -1  14  -6   11.00   23.20
  12 -14  -6   19.80   24.70
 -14   2  -6    7.60   16.80
 -14  12   6    6.80   13.30
  12   2   6   20.30   15.20
   2  12  -6   -0.90   17.10
   2 -14   6   22.30   14.70
 -12  14   6   11.40   13.40
  14  -2   6    1.90   15.80
  14 -12  -6   30.50   22.70
  -2 -12   6   -3.10   15.40
 -12  -2  -6   13.00   17.10
  -2  14  -6    0.50   19.10
   3  11  -6   48.50   19.00
   3 -14   6   22.60   14.20
 -14  11   6   36.10   13.40
 -14   3  -6   42.60   17.30
  11   3   6   35.00   15.10
  11 -14  -6   65.69   28.40
  14  -3   6   56.09   17.40
 -11  14   6   58.09   15.00
  -3 -11   6   43.10   15.90
 -11  -3  -6   44.20   16.30
  14 -11  -6   41.30   25.00
  -3  14  -6   29.10   20.00
  10   4   6   30.00   14.20
 -14   4  -6   18.70   17.10
  10 -14  -6    9.50   26.20
 -14  10   6   43.60   12.70
   4 -14   6   37.00   12.80
  14 -10  -6   31.60   23.90
  14  -4   6   27.60   15.30
  -4  14  -6   30.40   18.90
 -10  -4  -6   35.80   16.60
  -4 -10   6   58.99   16.40
 -10  14   6   63.09   15.10
 -14   5  -6   31.50   17.40
   5 -14   6   27.90   11.80
 -14   9   6   29.30   13.20
   9   5   6   31.80   15.10
   9 -14  -6   35.80   26.80
  -9  -5  -6   56.49   16.50
  14  -9  -6   43.50   26.80
  -5  -9   6   68.39   17.00
  -5  14  -6   36.90   19.10
  -5  -9   6   32.20   10.80
  -9  14   6   42.30   15.00
  14  -5   6   42.50   17.10
   8   6   6   95.59   17.60
   6 -14   6  104.89   18.00
 -14   8   6   81.89   18.10
 -14   6  -6  111.59   19.30
  -8  14   6  116.39   21.10
  -6  -8   6  114.29   23.30
  -6  14  -6   97.99   22.90
  -8  -6  -6  114.29   18.70
  14  -8  -6  116.49   25.30
  -6  -8   6  105.59   15.20
  14  -6   6   99.39   20.90
   7   7   6   13.00   14.00
   7 -14   6   16.50   12.70
 -14   7   6   16.30   12.80
 -14   7  -6   30.60   17.30
  -7  -7   6   29.10   16.80
  14  -7  -6   21.20   25.50
  -7  14   6   46.80   14.90
  -7  -7   6   21.00   11.30
  -7  14  -6   22.60   18.20
  -7  14   6   29.30   12.70
  14  -7   6   16.40   15.70
  -7  -7  -6   13.30   14.30
 -14   6   6  178.08   20.10
 -14   8  -6  165.58   26.10
   6   8   6  163.18   19.70
   8 -14   6  190.08   19.60
  -6  14   6  223.28   24.00
  -6  -8  -6  216.08   23.50
  14  -6  -6  159.88   31.30
  -6  14   6  130.99   21.00
  -8  14  -6  146.99   26.20
  14  -8   6  196.18   23.30
  -8  -6   6  199.88   19.50
 -14   9  -6   41.60   17.80
 -14   5   6   78.39   16.40
   9 -14   6   26.10   12.00
   5   9   6   39.70   13.70
  -9  -5   6   38.90   12.40
  -5  14   6   68.79   16.30
  -5  14   6   39.30   13.50
  14  -9   6   59.19   17.30
  14  -5  -6   45.70   27.40
  -5  -9  -6   19.20   14.50
 -14  10  -6  274.47   28.20
  10 -14   6  305.37   24.20
 -14   4   6  300.07   24.00
   4  10   6  262.17   23.50
  14 -10   6  313.67   27.60
 -10  -4   6  281.47   24.00
  -4  14   6  260.17   23.00
  -4  14   6  333.67   28.40
  14  -4  -6  259.27   34.90
  -4 -10  -6  277.67   26.80
 -14   3   6  166.68   18.80
   3  11   6  159.68   18.50
  11 -14   6  161.08   18.90
  14 -11   6  150.28   23.70
  -3 -11  -6  151.28   22.10
  14  -3  -6  175.78   28.90
  -3  14   6  126.89   19.50
  -3  14   6  206.78   24.50
 -11  -3   6  183.38   19.40
  12   2  -6  -57.19   24.50
   2  12   6    7.50   13.60
  12 -14   6    0.70   11.50
 -14   2   6   24.80   12.20
   2 -14  -6   22.00   16.60
  14  -2  -6  -17.60   24.40
  14 -12   6    0.90   17.10
  -2 -12  -6    7.70   15.20
  -2  14   6    5.10   14.20
 -12  -2   6   16.70   11.90
   1 -14  -6   62.39   16.90
  13   1  -6  -22.60   25.30
  13 -14   6   88.99   19.70
 -14   1   6   51.69   13.00
   1  13   6   40.30   15.50
  13 -14   6   42.00   12.00
  -1  14   6   38.00   17.40
  14 -13   6   50.49   11.00
  14 -13   6   75.79   17.80
 -13  -1   6   58.89   13.00
  -1 -13  -6    5.40   15.50
  14  -1  -6   17.70   24.50
   0  14   6    6.80   13.30
  14 -14   6   19.90   10.70
   0 -14  -6   28.20   15.40
  14 -14   6   65.69   18.40
 -14   0   6   18.60   12.50
 -15  15   6   42.80   14.90
   0 -15   6   53.79   15.90
 -15   0  -6   58.99   19.50
  15 -15  -6   31.60   25.60
   0  15  -6   38.10   18.50
  15   0   6   63.49   18.50
   1  14  -6   82.99   18.90
  14   1   6   88.69   17.80
   1 -15   6   80.69   15.60
 -15  14   6   78.69   15.30
 -15   1  -6   77.79   19.00
  15 -14  -6   69.79   25.70
  15  -1   6  108.59   19.50
  -1 -14   6   81.29   16.30
 -14  -1  -6   72.79   18.80
 -14  15   6   67.19   16.30
  -1  15  -6   79.59   20.30
   2  13  -6    6.10   20.10
  13 -15  -6    8.50   24.20
 -15  13   6    0.80   14.30
 -15   2  -6   -1.90   17.50
   2 -15   6    1.20   14.40
  13   2   6    3.60   15.50
 -13  15   6    4.00   14.30
  -2 -13   6   -5.40   15.70
  15  -2   6   -6.40   16.30
 -13  -2  -6   -5.20   16.40
  15 -13  -6   -7.40   23.00
  -2  15  -6   25.00   19.60
   3  12  -6   16.70   19.80
 -15   3  -6   30.90   18.20
   3 -15   6   21.60   13.80
 -15  12   6   35.30   12.90
  12 -15  -6   33.10   26.60
  12   3   6   15.40   14.80
  -3  15  -6   15.80   18.60
  15  -3   6   17.50   16.10
 -12  15   6   26.80   14.70
  15 -12  -6   16.00   23.40
 -12  -3  -6   22.40   16.20
  -3 -12   6   11.50   16.00
   4 -15   6    2.40   13.20
 -15   4  -6   -2.70   17.90
  11   4   6   -3.00   14.90
 -15  11   6   13.70   12.10
  15  -4   6   -1.60   15.80
  -4 -11   6  -15.10   15.90
  15 -11  -6    7.60   24.60
 -11  -4  -6   14.40   16.40
  -4  15  -6    1.30   18.20
 -11  15   6    4.60   13.70
  10   5   6  102.59   18.60
 -15  10   6   84.79   18.00
  10 -15  -6   92.99   29.60
   5 -15   6   86.39   14.30
 -15   5  -6  101.19   20.20
  15 -10  -6   95.69   25.40
  -5  15  -6   83.29   22.70
 -10  15   6  119.09   21.00
 -10  -5  -6  114.59   22.60
  15  -5   6  102.39   21.20
  -5 -10   6   82.89   18.20
 -15   6  -6   35.40   18.40
   6 -15   6   44.60   12.50
   9   6   6   46.00   15.30
 -15   9   6   41.10   13.00
   9 -15  -6   50.89   27.40
  -6  15  -6   63.19   19.30
  15  -9  -6   46.30   24.90
  -6  -9   6   34.00   18.00
  -9  15   6   67.19   16.20
  15  -6   6   53.09   17.20
  -9  -6  -6   31.00   15.40
  -6  -9   6   50.29   11.90
   8   7   6   38.50   14.20
 -15   7  -6   41.40   17.90
 -15   8   6   30.70   13.30
   7 -15   6   28.60   12.30
  -7  15  -6   39.40   18.60
  15  -7   6   40.20   16.50
  15  -8  -6    3.90   25.80
  -7  -8   6   34.70   10.80
  -8  15   6   60.69   16.40
  -7  -8   6   41.40   17.10
  -8  -7  -6   46.20   15.80
 -15   7   6   38.40   12.60
   8 -15   6   43.80   12.30
 -15   8  -6   28.40   17.80
   7   8   6   39.10   14.00
  15  -7  -6   21.50   26.20
  15  -8   6   34.70   16.60
  -8  15  -6   53.59   18.30
  -8  -7   6   59.29   18.00
  -8  -7   6   38.20   12.40
  -7  -8  -6   32.50   16.30
  -7  15   6   56.49   16.50
   9 -15   6   61.09   13.60
 -15   9  -6   43.20   18.30
   6   9   6   60.49   14.50
 -15   6   6   64.99   13.10
  -6  -9  -6   47.00   15.40
  -6  15   6   29.80   14.70
  -6  15   6  115.09   22.40
  -9  -6   6   59.29   13.10
  15  -9   6   72.29   17.40
  15  -6  -6   64.79   27.30
 -15   5   6  109.29   17.30
   5  10   6   84.69   16.80
 -15  10  -6   70.99   18.60
  10 -15   6   88.99   17.20
  -5 -10  -6   99.99   18.30
  15  -5  -6   98.69   25.80
  15 -10   6  115.79   22.60
 -10  -5   6  108.29   17.80
  -5  15   6   63.29   16.70
  -5  15   6  161.68   23.70
 -15  11  -6   73.19   18.20
  11 -15   6   87.29   16.80
   4  11   6   86.39   16.90
 -15   4   6   82.69   17.00
  15  -4  -6   79.69   25.40
  -4  15   6   97.79   18.50
  -4  15   6   82.89   16.30
  15 -11   6   84.39   18.40
  -4 -11  -6  113.19   20.10
 -11  -4   6   71.69   13.20
 -15   3   6  143.59   18.50
   3  12   6   99.69   19.20
  12 -15   6  123.89   17.30
  15 -12   6  137.09   24.10
  15  -3  -6  112.49   25.70
 -12  -3   6  134.49   17.10
  -3 -12  -6  124.29   20.80
  -3  15   6  118.39   17.40
   2  13   6   13.70   12.90
  13   2  -6   -7.10   32.50
  13 -15   6   27.90   11.90
 -15   2   6   12.30   12.00
  15  -2  -6    2.30   23.20
  -2 -13  -6  -22.60   14.60
  15 -13   6   19.00   18.20
 -13  -2   6   10.70   11.80
  -2  15   6   14.20   13.20
   1  14   6    7.30   13.60
   1 -15  -6    3.20   16.20
 -15   1   6    3.30   11.60
  14 -15   6    4.10   11.10
  14   1  -6   16.20   23.70
 -14  -1   6    9.90   12.20
  -1 -14  -6   12.30   16.10
  15  -1  -6  -40.30   22.90
  15 -14   6   -6.60   18.00
  -1  15   6  -12.80   13.00
   0  15   6    1.50   15.00
  15 -15   6   45.80   22.00
  15   0  -6   14.90   23.20
 -15   0   6    8.20   11.70
   0 -15  -6  -11.50   16.30
  15 -15   6    1.00   10.90
 -16  16   6   75.19   16.60
  16   0   6   78.89   19.20
  16 -16  -6   78.89   28.50
   0  16  -6   61.99   19.00
   0 -16   6  109.49   21.60
 -16   0  -6   79.79   18.80
   1 -16   6   35.20   16.20
  15   1   6   36.80   17.60
   1  15  -6   33.60   18.20
 -16   1  -6   27.20   17.30
  15 -16  -6   -1.50   24.60
 -16  15   6   49.70   14.80
 -15  -1  -6   33.40   18.30
  16  -1   6   32.30   17.70
  -1  16  -6   34.60   18.20
  -1 -15   6   23.50   16.80
 -15  16   6   23.10   14.80
  16 -15  -6   21.60   26.30
 -16  14   6   88.29   16.70
  14 -16  -6   86.89   26.30
   2 -16   6  101.49   16.10
 -16   2  -6  127.49   23.20
   2  14  -6  117.39   23.40
  14   2   6  116.99   20.20
 -14  16   6   87.69   17.20
  -2 -14   6   75.49   17.80
  16 -14  -6   78.19   28.10
 -14  -2  -6   85.29   18.60
  -2  16  -6   90.29   21.70
  16  -2   6   90.49   19.00
 -16  13   6   18.50   13.60
 -16   3  -6   13.90   17.00
   3 -16   6   16.00   15.10
  13   3   6   23.60   16.30
   3  13  -6   13.90   16.80
  13 -16  -6   -7.50   25.30
 -13  16   6   26.70   14.10
  16 -13  -6    2.00   26.00
  -3 -13   6    1.60   17.80
  -3  16  -6   17.90   19.60
 -13  -3  -6   22.30   15.70
  16  -3   6   19.50   17.80
   4 -16   6   22.30   14.10
   4  12  -6   18.10   16.80
  12 -16  -6   19.70   33.00
  12   4   6   21.60   16.20
 -16   4  -6    9.60   17.60
 -16  12   6   26.50   13.90
  16  -4   6   31.80   18.10
  16 -12  -6   29.10   26.70
  -4 -12   6   18.00   17.30
 -12  -4  -6   33.30   17.00
 -12  16   6   23.20   15.50
  -4  16  -6   13.20   19.90
 -16  11   6   62.59   14.90
  11   5   6   88.99   17.50
   5 -16   6   70.89   14.40
 -16   5  -6   69.29   18.90
  11 -16  -6   93.99   29.00
  -5 -11   6   70.09   18.40
 -11  16   6   93.19   17.70
  16  -5   6   87.39   17.90
  16 -11  -6   59.09   27.60
 -11  -5  -6   63.59   16.80
  -5  16  -6   87.69   21.00
 -16  10   6   16.10   12.40
  10   6   6    8.40   15.20
  10 -16  -6  -16.80   34.00
 -16   6  -6   -2.50   17.80
   6 -16   6   12.80   12.40
 -10  16   6   29.20   14.90
 -10  -6  -6   12.70   15.80
  -6 -10   6  -12.20   17.60
  16  -6   6   10.10   17.80
  16 -10  -6   16.70   26.00
  -6  16  -6   24.60   19.00
 -16   7  -6   17.50   18.10
   9 -16  -6   62.89   29.00
 -16   9   6   36.60   13.70
   9   7   6   36.10   15.20
   7 -16   6   38.60   13.40
  16  -9  -6   14.70   25.10
  -7  -9   6   50.59   19.60
  -9  -7  -6   46.70   16.80
  -9  16   6   56.89   15.80
  -7  -9   6   39.10   12.80
  16  -7   6   43.20   17.40
 -16   8   6   -2.20   11.80
 -16   8  -6   -2.70   17.70
   8   8   6    3.60   14.10
   8 -16   6  -15.50   11.90
  16  -8  -6   -8.50   23.30
  16  -8   6   14.60   16.70
  -8  -8   6    1.80   11.30
  -8  16  -6   -8.90   19.10
  -8  16   6   42.20   16.20
  -8  -8   6  -36.80   18.20
  -8  -8  -6   10.50   16.20
 -16   9  -6   57.29   18.70
   7   9   6   58.49   16.20
   9 -16   6   45.90   12.90
 -16   7   6   47.60   13.30
  -9  -7   6   59.59   13.10
  16  -9   6   57.39   17.60
  -7  -9  -6   43.60   15.60
  -7  16   6   80.29   17.30
  -9  16  -6    2.50   19.70
  16  -7  -6   54.69   24.00
 -16  10  -6   38.60   19.30
 -16   6   6   52.19   13.40
  10 -16   6   36.70   13.20
   6  10   6   50.99   15.20
  -6 -10  -6   41.70   16.20
  16  -6  -6   34.30   23.30
 -10  -6   6   37.20   13.10
  -6  16   6   38.10   12.90
  -6  16   6   64.79   17.50
  16 -10   6   51.39   18.10
 -16   5   6  117.39   18.40
  11 -16   6  127.69   18.10
 -16  11  -6  115.09   19.80
   5  11   6  106.39   17.90
  -5  16   6  146.39   25.30
  16  -5  -6  124.49   25.50
  -5 -11  -6  124.69   20.90
 -11  -5   6  134.59   18.80
  16 -11   6  131.89   23.70
  12 -16   6   87.19   17.10
 -16  12  -6   56.09   18.90
 -16   4   6   92.69   17.30
   4  12   6   78.49   16.80
  -4  16   6   35.70   16.50
  -4  16   6   41.90   19.40
 -12  -4   6   82.99   15.60
  16 -12   6   84.79   19.30
  -4 -12  -6   56.19   15.10
  16  -4  -6   59.79   23.50
  13 -16   6  167.38   19.00
   3  13   6  131.09   18.50
 -16   3   6  195.18   19.60
  16  -3  -6  135.19   29.70
  16 -13   6  228.98   26.40
 -13  -3   6  184.48   17.90
  -3  16   6  139.79   21.60
  -3 -13  -6  119.89   18.60
  14 -16   6  125.89   17.50
   2  14   6   86.39   18.70
 -16   2   6  117.69   17.70
  -2  16   6   66.49   17.40
  -2 -14  -6   93.79   17.90
  16 -14   6  116.79   21.10
 -14  -2   6  120.69   17.30
  16  -2  -6  130.09   27.30
  15 -16   6   23.70   11.50
   1  15   6   -4.10   14.30
 -16   1   6    5.00   13.40
  15   1  -6   -2.70   23.90
  16  -1  -6   -6.80   22.90
  16 -15   6  -46.30   23.20
  -1  16   6  -10.30   13.60
  -1 -15  -6  -24.30   16.30
 -15  -1   6   17.10   11.60
   0  16   6   -5.50   15.60
  16   0  -6   53.29   22.20
  16 -16   6    3.50   11.90
   0 -16  -6   -4.40   18.40
 -16   0   6   37.00   13.80
 -17  15   6   76.89   15.50
  15   2   6   79.29   18.60
   2  15  -6   58.09   21.10
   2 -17   6   67.49   16.30
  15 -17  -6   46.00   28.00
 -17   2  -6   84.39   18.70
  17  -2   6   77.39   18.80
 -15  -2  -6   66.59   18.50
  -2  17  -6   83.29   20.80
 -15  17   6   51.29   16.50
  -2 -15   6   59.79   19.40
  14 -17  -6   59.49   27.80
  14   3   6   44.20   17.50
   3 -17   6   52.89   15.50
 -17  14   6   75.19   13.90
 -17   3  -6   63.89   18.40
   3  14  -6   66.79   20.70
 -14  17   6   68.69   15.30
  17 -14  -6   35.50   25.00
  -3  17  -6    7.20   20.00
  -3 -14   6   66.29   17.60
 -14  -3  -6   53.89   17.80
  17  -3   6   63.19   18.50
   4  13  -6  114.69   22.80
   4 -17   6   82.19   16.40
  13   4   6   91.09   18.70
  13 -17  -6   65.59   28.00
 -17   4  -6  104.29   19.80
 -17  13   6   97.19   18.60
 -13  17   6  117.09   21.10
  -4  17  -6  101.19   22.10
 -13  -4  -6   77.19   17.40
  -4 -13   6  100.69   20.20
  17  -4   6   86.69   19.30
  17 -13  -6   88.69   27.80
  12   5   6   97.09   18.10
  12 -17  -6   85.19   29.90
 -17   5  -6   91.39   21.00
 -17  12   6   87.09   15.40
   5 -17   6   86.89   15.90
   5  12  -6   86.29   20.60
  -5  17  -6  138.09   25.10
 -12  -5  -6   99.39   18.30
  17 -12  -6   60.29   27.90
  17  -5   6  124.09   21.10
  -5 -12   6   96.09   19.30
 -12  17   6   90.79   17.50
  11 -17  -6   48.20   27.70
  11   6   6   23.00   16.80
 -17  11   6   40.80   14.00
   6 -17   6   43.20   13.70
 -17   6  -6   28.00   18.30
  17 -11  -6   46.30   23.60
  -6  17  -6    9.80   19.00
 -11  -6  -6   31.80   15.50
 -11  17   6   33.20   15.80
  -6 -11   6   37.40   18.40
  17  -6   6   22.10   17.30
  10   7   6   32.00   15.80
   7 -17   6   28.20   13.30
 -17   7  -6   27.00   18.70
 -17  10   6   31.10   13.30
  10 -17  -6   36.30   35.50
  -7  17  -6   28.60   22.90
 -10  -7  -6   24.80   15.60
  -7 -10   6   47.60   19.20
  17 -10  -6    8.40   24.30
  17  -7   6   43.90   18.80
 -10  17   6   64.39   16.70
   8 -17   6   14.90   13.00
 -17   9   6   18.60   13.10
   9   8   6   25.80   15.20
 -17   8  -6   17.90   18.60
   9 -17  -6   49.50   30.30
  -8  -9   6   12.90   11.00
  -9  17   6   42.80   17.60
  -8  -9   6  -10.90   19.50
  -8  17  -6    9.70   18.90
  17  -9  -6   25.30   25.90
  17  -8   6   24.20   18.20
  -9  -8  -6    6.50   15.80
   8 -17  -6   50.69   30.00
   9 -17   6   35.10   13.10
 -17   9  -6    3.40   18.30
 -17   8   6   31.20   13.10
   8   9   6   32.60   15.90
  -8  17   6   46.00   17.50
  17  -8  -6   16.50   22.50
  -9  -8   6   34.50   12.50
  -9  17  -6   43.20   18.30
  17  -9   6   29.30   18.20
  -9  -8   6    9.60   21.50
  -8  -9  -6   37.50   15.40
 -17   7   6   49.60   13.70
 -17  10  -6   44.80   19.00
  10 -17   6   35.00   13.10
   7  10   6   41.70   14.90
  17 -10   6   60.19   19.20
  17  -7  -6   16.60   22.90
  -7 -10  -6   48.30   15.90
 -10  -7   6   24.00   12.10
 -10  17  -6   15.50   17.90
  -7  17   6   46.70   18.00
 -17   6   6   36.50   13.10
 -17  11  -6   -3.40   18.20
   6  11   6   18.00   15.70
  11 -17   6   26.20   13.20
  -6  17   6    3.80   18.10
  17  -6  -6   20.20   22.20
  17 -11   6   42.30   18.80
 -11  -6   6   24.40   12.60
  -6 -11  -6   27.70   15.20
 -17  12  -6  186.38   26.50
   5  12   6  166.98   19.50
  12 -17   6  165.38   19.90
 -17   5   6  186.38   19.60
  -5 -12  -6  169.88   22.00
  -5  17   6  126.39   18.00
  -5  17   6  154.58   26.90
  17 -12   6  188.88   26.10
 -12  -5   6  175.98   18.80
  17  -5  -6  140.89   28.70
 -17   4   6  147.19   18.40
 -17  13  -6  150.58   25.10
  13 -17   6  124.09   18.00
   4  13   6  112.49   18.00
 -13  -4   6  126.99   17.20
  -4  17   6   79.59   17.30
  -4 -13  -6   82.79   18.80
  17 -13   6  156.48   25.20
  17  -4  -6   76.89   22.90
 -17  14  -6   69.29   18.00
 -17   3   6   42.50   13.80
  14 -17   6   49.50   13.20
   3  14   6   42.10   14.30
 -14  -3   6   51.49   13.20
  17  -3  -6   57.99   22.40
  -3 -14  -6   35.20   16.70
  -3  17   6   32.30   15.90
  17 -14   6   53.09   19.70
  15 -17   6  103.89   17.20
   2  15   6   86.49   17.80
 -17   2   6  122.69   17.70
  17 -15   6   79.99   21.60
  17  -2  -6   38.80   24.40
  -2  17   6   66.69   17.80
 -15  -2   6  114.09   19.40
  -2 -15  -6   72.99   19.60
   4 -18   6   33.50   15.30
  14 -18  -6    7.60   29.00
 -18  14   6   46.40   13.70
   4  14  -6    6.60   17.00
 -14  18   6   46.20   16.30
  -4  18  -6   17.70   19.00
  -4 -14   6   59.09   18.00
 -18   5  -6    9.40   17.90
  13   5   6   22.60   17.20
   5  13  -6    6.60   18.20
  13 -18  -6   20.00   27.50
 -18  13   6   10.60   13.20
   5 -18   6   10.00   15.20
  -5  18  -6    9.70   17.10
  18 -13  -6   28.40   25.60
  -5 -13   6    8.90   17.80
 -13  18   6    5.60   16.20
 -13  -5  -6   -1.60   15.70
  18  -5   6   -6.20   17.90
   6  12  -6   87.29   22.20
 -18   6  -6  118.39   21.80
 -18  12   6   99.49   19.60
  12   6   6  105.39   20.80
   6 -18   6   90.99   15.90
  12 -18  -6  104.49   30.60
 -12  18   6  118.59   18.10
  -6 -12   6  128.69   25.90
  18 -12  -6   45.90   27.90
 -12  -6  -6  112.19   19.10
  18  -6   6  117.89   21.50
  11   7   6   43.00   17.40
   7 -18   6   36.20   13.60
 -18  11   6   39.10   14.10
 -18   7  -6   42.40   18.90
  11 -18  -6   51.59   34.00
  18 -11  -6   35.50   22.80
  18  -7   6   48.90   18.70
  -7 -11   6   68.19   20.20
  -7  18  -6   28.50   18.30
 -11  18   6   59.69   17.20
 -11  -7  -6   31.40   16.80
  10   8   6   -1.20   16.50
 -18  10   6   12.70   13.70
  10 -18  -6   -1.60   36.70
   8 -18   6   12.70   13.50
 -18   8  -6    6.20   19.10
  18 -10  -6   -7.00   22.30
 -10  18   6   25.90   17.60
  18  -8   6    5.50   18.20
 -10  -8  -6    4.00   15.50
  -8 -10   6   27.30   19.20
 -18   9   6   20.90   12.80
   9 -18   6   11.10   13.00
 -18   9  -6  -22.00   19.20
   9 -18  -6   87.29   31.30
   9   9   6    3.70   15.70
  18  -9   6    4.20   19.10
  -9  -9   6    3.00   11.70
  -9  -9   6   56.99   25.50
  -9  -9  -6    2.80   15.30
  -9  18   6   43.40   18.00
  18  -9  -6   -6.90   21.60
  -9  18  -6   -7.20   18.80
 -18  10  -6   35.30   19.30
   8 -18  -6   66.29   31.00
  10 -18   6   30.80   13.10
   8  10   6   38.40   15.50
 -18   8   6   46.80   13.90
  -8 -10  -6   46.30   15.80
 -10  18  -6   27.50   18.40
  -8  18   6   21.00   18.90
  18  -8  -6   16.90   22.00
 -10  -8   6   24.30   11.80
  18 -10   6   69.29   20.00
  11 -18   6   85.19   14.80
 -18  11  -6   97.59   20.70
 -18   7   6   97.09   17.50
   7  11   6   59.69   17.50
  -7 -11  -6   87.89   18.00
 -11  -7   6   64.39   13.50
  -7  18   6   77.69   19.60
  18 -11   6  120.39   25.20
  18  -7  -6   72.69   23.40
 -18  12  -6  107.89   20.50
  12 -18   6   94.49   18.00
 -18   6   6   91.49   17.20
   6  12   6   94.09   19.60
  -6  18   6   51.29   19.90
  18 -12   6  110.19   20.90
 -12  -6   6   82.49   16.30
  18  -6  -6   43.90   22.90
  -6 -12  -6   79.39   16.10
   5  13   6   65.69   15.60
 -18  13  -6   67.69   20.20
  13 -18   6   51.39   13.70
 -18   5   6   64.89   14.40
  -5 -13  -6   19.50   18.00
  18 -13   6   79.49   20.90
  -5  18   6   53.49   20.70
  18  -5  -6   81.99   21.70
 -13  -5   6   64.39   14.10
 -18   4   6  189.58   19.90
  14 -18   6  170.58   19.80
  18  -4  -6  134.79   29.80
   0   0   7   -6.30   11.30
   0   0  -7   20.10   22.70
   0   0   7  -17.90   13.60
   1   0   7   14.70   11.60
   0  -1   7   14.70   12.20
   0  -1   7    3.30   13.40
  -1   1   7   18.00   11.40
  -1   0  -7   18.80   18.20
   1  -1  -7    0.20   18.00
   1  -1   7  -30.50   14.90
  -1   0   7    5.50   14.00
   1  -1   7    8.60   11.30
   0   1   7   28.20   12.20
  -1   1  -7    6.50   16.80
   1   0  -7   10.20   18.10
   0   1   7    3.60   14.60
  -1   0   7    4.20   11.70
   0  -1  -7   16.00   18.70
   2  -2  -7   61.59   19.10
   0  -2   7   39.60   12.60
  -2   0  -7   24.70   17.40
   2   0   7   48.00   12.70
  -2   2   7   49.50   11.70
  -2   2   7   25.50   14.00
  -2   1   7   95.59   15.30
   1  -2  -7  151.28   24.40
   1   1   7  100.69   15.00
   1  -2   7   79.49   16.20
   1  -2   7   79.29   15.70
  -2   1   7   51.89   15.40
  -2   1  -7   54.59   18.80
  -1  -1   7   85.39   15.00
   2  -1   7   77.29   15.20
  -1  -1   7   54.59   15.90
  -1   2   7   95.29   17.00
   2  -1  -7   56.69   18.60
  -1  -1  -7  143.09   26.00
  -1   2   7   87.69   16.20
   0   2   7   80.09   15.70
   2   0  -7   35.30   17.90
   2  -2   7   83.79   15.30
  -2   0   7   89.29   15.60
  -2   0   7   77.79   15.30
  -2   2  -7   49.60   17.60
   3  -3  -7  322.57   36.60
   3   0   7  299.77   25.50
  -3   0  -7  379.16   32.90
  -3   3   7  343.47   27.40
   0  -3   7  342.27   25.60
   0  -3   7  365.46   27.60
  -3   3   7  339.37   24.50
   1  -3   7  171.58   20.80
  -3   1  -7  216.28   26.80
  -3   2   7  160.98   28.40
   2  -3  -7  199.58   29.10
   1  -3   7  182.68   18.50
  -3   2   7  189.18   17.60
   2   1   7  176.48   18.20
   3  -2  -7  190.68   27.60
  -2   3   7  124.89   21.10
  -2  -1  -7  228.58   27.10
  -1  -2   7  165.28   20.90
   3  -1   7  159.78   18.20
  -1  -2   7  157.38   18.00
  -2   3   7  180.48   17.50
   2  -3   7   20.40   12.70
   1  -3  -7   48.40   19.80
  -3   2  -7   23.00   16.90
   1   2   7   32.10   11.40
  -3   1   7   38.90   12.30
  -1  -2  -7   18.20   18.30
   3  -2   7   25.70   11.80
   3  -1  -7    5.40   19.40
  -1   3   7   43.20   12.20
  -1   3   7  -15.60   15.30
  -2  -1   7   16.90   12.00
   3  -3   7  209.68   19.80
  -3   0   7  188.88   21.50
   0   3   7  204.58   18.60
  -3   0   7  195.88   19.80
   0  -3  -7  234.98   29.90
   0  -4   7  146.79   19.20
   4   0   7  186.88   18.90
  -4   0  -7  197.18   27.90
   0  -4   7  216.68   20.20
  -4   4   7  181.08   18.30
  -4   4   7  196.28   21.30
  -4   3   7   66.09   14.10
   1  -4   7   29.50   13.40
  -4   3   7   29.50   13.20
   1  -4   7   36.40   11.80
   1  -4   7   -1.20   13.40
   3   1   7   20.80   11.80
  -4   1  -7   50.69   18.90
  -3   4   7   41.90   14.80
  -1  -3   7   45.90   13.30
  -3  -1  -7   45.00   19.20
   4  -1   7   34.40   12.20
  -1  -3   7   23.60   12.70
  -3   4   7   46.40   11.70
  -1  -3   7   -1.50   16.30
  -4   2  -7  137.99   25.60
  -4   2   7  122.69   19.20
   2  -4  -7  217.68   27.80
   2  -4   7  128.99   17.50
  -4   2   7  145.49   17.70
   2   2   7  137.09   16.80
  -2  -2   7  119.19   18.90
  -2  -2   7  119.89   17.00
  -2   4   7  153.58   16.50
  -2  -2  -7  153.78   26.20
  -2   4   7  160.18   20.60
   4  -2   7  158.48   17.80
  -4   1   7  217.48   22.10
   3  -4   7  213.38   21.00
  -4   1   7  222.28   21.00
   1   3   7  208.88   20.60
  -4   3  -7  248.68   26.80
  -1   4   7  211.68   25.30
  -3  -1   7  222.68   22.00
  -3  -1   7  220.98   20.90
   4  -3   7  203.38   20.50
  -1   4   7  223.28   19.50
  -1  -3  -7  302.57   28.10
   4  -4   7   40.20   13.20
   0  -4  -7   62.79   22.90
  -4   0   7   38.10   13.80
   5   0   7   36.20   12.60
   0  -5   7   22.30   13.30
  -5   5   7   34.80   13.80
  -5   0  -7   47.80   18.50
  -5   5   7   35.60   11.90
   0  -5   7   33.80   13.80
   0  -5   7    8.10   13.20
   1  -5   7   99.39   15.30
   4   1   7   94.89   15.80
  -5   4   7   97.49   18.80
  -5   1  -7  101.59   21.20
  -5   4   7   99.79   15.10
   1  -5   7   45.10   17.40
   1  -5   7  101.59   15.70
  -1  -4   7   99.99   18.60
  -4   5   7   67.99   14.30
   5  -1   7   79.99   15.80
  -1  -4   7  105.79   18.20
  -1  -4   7   77.19   14.70
  -4   5   7   91.39   15.80
  -4  -1  -7  112.69   20.90
   3   2   7   96.89   15.90
  -5   3   7  128.29   15.50
  -5   3   7  113.09   18.30
  -5   2  -7  126.79   25.10
   2  -5   7  134.09   17.20
   2  -5   7   92.59   17.00
  -3  -2  -7  161.48   26.90
   5  -2   7  102.19   16.60
  -2  -3   7  101.29   18.80
  -2  -3   7   92.89   16.80
  -3   5   7  117.19   17.30
  -3   5   7  101.19   19.90
   2  -5  -7   27.80   18.70
   3  -5   7   45.00   13.60
  -5   2   7   50.69   14.00
   2   3   7   49.90   13.00
  -5   3  -7   57.99   18.60
  -3  -2   7   70.19   15.10
  -3  -2   7   41.50   14.10
  -2   5   7   44.00   14.70
   5  -3   7   74.09   15.30
   1   4   7  283.87   25.30
   1  -5  -7  365.36   32.30
  -5   1   7  339.77   26.60
  -5   1   7  314.17   24.00
   4  -5   7  325.77   25.10
  -4  -1   7  355.66   26.00
  -1  -4  -7  398.06   31.80
  -4  -1   7  285.77   24.50
   5  -4   7  321.77   25.70
  -1   5   7  309.17   24.10
   0  -5  -7  428.96   44.10
   0   5   7  308.37   23.50
   5  -5   7  289.17   24.80
  -5   0   7  302.47   26.00
   6   0   7   21.90   12.60
  -6   6   7   27.80   11.20
   0  -6   7    4.70   12.80
  -6   6   7   24.70   14.40
   0  -6   7   11.80   13.30
  -6   0  -7   26.10   18.20
   0  -6   7   -6.60   13.30
   1  -6   7   27.50   13.80
   5   1   7   37.10   12.60
   1  -6   7   50.59   14.10
  -6   5   7   35.60   13.60
  -6   5   7   57.89   12.20
  -6   1  -7   62.39   19.70
  -5   6   7   55.19   14.90
  -5  -1  -7   39.80   18.30
  -1  -5   7   25.60   13.30
  -1  -5   7   33.60   13.70
   6  -1   7   33.10   13.00
  -5   6   7   50.29   12.40
  -1  -5   7   44.00   13.80
  -6   2  -7   69.99   18.50
  -6   4   7   78.59   15.30
  -6   4   7   43.40   14.10
   2  -6   7   51.29   13.70
   4   2   7   70.59   15.10
   2  -6   7   50.39   15.00
  -2  -4   7   40.90   15.00
  -2  -4   7   42.20   13.70
  -2  -4   7   64.59   14.10
  -4  -2  -7   42.30   18.50
   6  -2   7   43.90   13.30
  -4   6   7   52.39   12.60
  -4   6   7   68.59   15.80
   3  -6   7  259.07   21.70
   3  -6   7  206.48   21.50
  -6   3   7  218.78   20.30
  -6   3  -7  245.68   29.00
  -6   3   7  230.48   22.50
   3   3   7  210.68   20.60
  -3  -3   7  234.68   27.50
  -3   6   7  217.78   24.80
   6  -3   7  238.28   21.90
  -3   6   7  236.78   19.60
  -3  -3  -7  308.67   29.80
  -3  -3   7  180.68   20.70
  -3  -3   7  266.37   21.90
   2  -6  -7  296.27   30.80
   2   4   7  305.77   23.60
   4  -6   7  319.37   24.10
  -6   2   7  304.57   26.00
   4  -6   7  327.17   25.30
  -6   4  -7  362.76   30.40
  -2  -4  -7  328.07   30.90
  -2   6   7  235.28   27.30
  -2   6   7  268.17   25.30
  -4  -2   7  307.77   24.80
  -4  -2   7  316.87   26.20
   6  -4   7  288.07   24.50
   1   5   7  110.99   15.60
   5  -6   7   97.19   17.50
  -6   1   7  109.89   18.00
   6  -5   7   98.79   18.00
  -1   6   7   98.59   15.50
  -1  -5  -7  161.48   22.70
  -5  -1   7  112.59   17.90
  -6   0   7  407.26   28.20
   6  -6   7  336.07   27.70
   0  -6  -7  407.86   33.50
   0   6   7  351.46   26.60
  -7   0  -7  111.29   20.20
  -7   7   7  119.59   20.10
  -7   7   7  109.69   14.70
   0  -7   7   78.69   16.90
   7   0   7   93.29   16.90
   0  -7   7  103.89   19.90
   1  -7   7  114.29   17.10
  -7   1  -7  151.28   26.50
   6   1   7   93.89   17.90
  -7   6   7  127.69   19.90
   1  -7   7   79.79   16.40
  -6   7   7  143.69   20.80
  -6  -1  -7  151.48   26.00
  -6   7   7  125.69   15.20
  -1  -6   7   88.89   17.20
   7  -1   7  104.19   17.50
  -1  -6   7  143.89   20.30
  -1  -6   7   93.79   16.00
   5   2   7   33.90   12.40
  -7   2  -7   63.69   18.80
   2  -7   7   45.50   14.00
   2  -7   7   31.50   14.30
  -7   5   7   39.30   14.10
  -5  -2  -7   66.49   19.10
  -2  -5   7   24.20   14.60
  -2  -5   7   33.90   13.50
  -5   7   7   56.29   13.50
   7  -2   7   50.29   13.60
  -7   3  -7  235.98   28.10
   3  -7   7  235.48   22.00
  -7   4   7  207.68   22.10
   4   3   7  200.28   20.00
   3  -7   7  190.98   21.90
  -3  -4   7  219.98   21.40
  -4  -3  -7  251.77   28.00
  -3  -4   7  186.28   23.70
  -4   7   7  250.17   24.00
  -4   7   7  202.28   19.40
   7  -3   7  206.08   21.20
  -7   3   7  281.07   23.30
   4  -7   7  216.78   24.00
  -7   4  -7  284.57   29.80
   3   4   7  232.08   21.90
   4  -7   7  273.27   23.40
  -3   7   7  320.37   29.60
  -3  -4  -7  307.27   29.90
  -3   7   7  285.97   21.50
  -4  -3   7  262.87   26.20
   7  -4   7  261.07   23.20
  -4  -3   7  241.08   24.20
  -7   2   7  342.37   26.80
  -7   5  -7  370.66   30.90
   5  -7   7  300.27   25.60
   2   5   7  315.27   24.50
   5  -7   7  332.97   24.80
  -5  -2   7  323.07   29.60
   7  -5   7  312.27   25.60
  -5  -2   7  327.17   25.80
  -2  -5  -7  348.37   29.90
  -2   7   7  297.07   24.10
   1   6   7  192.58   18.70
   6  -7   7  194.98   19.40
   6  -7   7  172.58   20.80
  -7   1   7  216.08   21.30
  -1  -6  -7  214.78   25.70
  -1   7   7  177.08   18.70
  -6  -1   7  225.28   20.90
   7  -6   7  200.48   20.70
  -7   0   7   46.10   13.10
   7  -7   7   53.49   14.40
   7   0  -7  112.59   31.60
   0   7   7   39.20   12.30
   0  -8   7  124.59   21.70
  -8   8   7  161.78   22.10
  -8   0  -7  163.08   27.80
   8   0   7  133.49   19.20
   7   1   7   19.00   12.90
  -8   1  -7   50.69   20.40
   1  -8   7   14.00   13.30
  -8   7   7   42.60   14.80
  -1  -7   7   12.50   12.90
  -7   8   7   17.10   15.10
   8  -1   7   39.10   13.60
  -7   8   7   31.80   11.30
  -7  -1  -7   36.20   19.80
  -1  -7   7   32.80   14.00
  -8   6   7  174.18   21.70
  -8   2  -7  244.38   27.70
   6   2   7  200.78   20.10
   2  -8   7  210.08   21.90
  -6  -2  -7  203.98   28.20
  -2  -6   7  178.98   21.00
  -2  -6   7  225.58   23.70
   8  -2   7  190.68   20.30
  -6   8   7  175.88   18.00
  -2   8  -7  250.17   32.00
  -6   8   7  182.78   23.30
   3  -8   7   88.09   18.90
   3  -8   7  122.59   18.50
   5   3   7   89.29   16.50
  -8   5   7  131.39   18.50
  -8   3  -7  137.29   26.20
  -3   8  -7  174.38   29.70
  -3  -5   7  104.39   17.80
  -5   8   7  106.89   16.00
  -3  -5   7  110.29   17.90
  -5   8   7  102.19   21.30
   8  -3   7  113.49   17.50
  -5  -3  -7  144.39   26.30
   4   4   7  126.09   18.20
   4  -8   7  123.29   20.30
  -8   4  -7  169.78   26.70
   4  -8   7  154.38   19.50
  -8   4   7  175.98   20.40
  -4  -4  -7  222.38   25.80
   8  -4  -7  226.48   34.80
  -4  -4   7  167.38   21.30
  -4   8   7  156.58   23.00
  -4   8   7  153.78   17.20
   8  -4   7  156.48   19.10
  -4  -4   7  115.19   22.10
   3   5   7  181.68   19.00
  -8   3   7  197.68   20.80
   5  -8   7  203.08   20.20
   5  -8   7  164.38   21.80
  -8   5  -7  237.88   26.60
   8  -3  -7  208.88   36.50
  -3  -5  -7  217.38   25.80
   8  -5   7  201.08   20.90
  -5  -3   7  209.38   20.20
  -5  -3   7  158.38   25.00
  -3   8   7  182.38   22.00
   2   6   7   47.20   13.10
   6  -8   7   63.19   14.80
   6  -8   7   54.69   12.00
   6   2  -7  150.48   33.50
  -8   6  -7   58.99   17.80
  -8   2   7   50.29   14.10
   8  -6   7   50.19   14.20
  -2  -6  -7   59.99   16.70
  -2   8   7   52.79   13.50
   8  -2  -7  105.99   30.50
  -6  -2   7   66.99   14.00
  -8   1   7  134.69   19.20
   1   7   7   90.09   18.20
   1  -8  -7  112.09   23.00
   7  -8   7   99.09   19.20
   7  -8   7  142.29   16.60
   7   1  -7  181.28   38.40
  -1  -7  -7  125.29   23.90
   8  -7   7  142.49   18.70
  -7  -1   7  145.39   18.30
  -1   8   7  101.49   17.20
   8  -1  -7  149.79   35.60
  -8   0   7   43.10   13.50
   0   8   7   29.80   12.30
   8  -8   7   39.80   14.40
   0  -8  -7   20.80   16.60
   8   0  -7   79.59   32.50
   9   0   7  128.29   18.80
   0  -9   7  102.59   21.20
   9  -9  -7  170.28   33.00
  -9   0  -7  132.29   27.00
  -9   9   7  122.79   20.60
  -9   8   7  317.47   26.50
  -9   1  -7  283.67   32.00
   8   1   7  299.87   24.80
   1  -9   7  307.57   26.60
  -1  -8   7  301.47   27.30
  -8   9   7  295.47   27.10
   9  -1   7  266.57   25.30
   9  -8  -7  300.57   37.80
  -8  -1  -7  329.67   31.90
   2  -9   7  175.18   21.00
  -9   2  -7  211.68   27.00
   7   2   7  131.59   19.00
  -9   7   7  163.78   21.30
  -7   9   7  204.98   23.20
  -7  -2  -7  188.18   26.40
   9  -2   7  163.58   19.60
   9  -7  -7  206.38   33.70
  -2   9  -7  255.07   31.50
  -7   9   7  136.69   21.40
  -2  -7   7  146.89   19.30
  -2  -7   7  162.48   23.00
   3  -9   7   42.90   19.20
   6   3   7   47.00   14.00
  -9   6   7   73.39   14.70
  -9   3  -7   83.79   19.10
   3  -9   7   60.29   14.70
  -6   9   7   79.29   15.80
   9  -6  -7   61.09   27.90
  -6  -3  -7   86.79   19.30
   9  -3   7   57.19   14.50
  -3  -6   7   77.99   16.50
  -3   9  -7   41.70   24.40
  -6   9   7   82.59   14.10
  -3  -6   7   65.69   13.50
   4  -9   7  126.59   19.10
  -9   5   7  151.48   19.40
   5   4   7  121.59   18.10
  -9   4  -7  166.68   26.30
   4  -9   7  144.09   20.40
  -5   9   7  168.28   22.60
  -5   9   7  133.39   17.30
   9  -4   7  120.09   19.40
   9  -5  -7  163.28   35.70
  -4  -5   7  141.89   19.20
  -5  -4  -7  166.68   25.40
  -4  -5   7  166.98   23.10
  -4   9  -7  216.58   38.60
  -9   5  -7   98.09   20.30
   4   5   7   75.29   16.10
  -9   4   7  118.39   18.80
   5  -9   7   95.69   18.00
   9  -5   7   93.29   15.60
  -4   9   7  120.79   22.50
  -4  -5  -7  133.19   23.90
  -4   9   7  102.69   16.40
  -5  -4   7   45.00   21.00
   9  -4  -7  121.09   30.20
  -5  -4   7   89.29   17.80
   6  -9   7  114.89   18.60
  -9   3   7  132.69   18.80
   6  -9   7  111.79   17.40
   3   6   7   94.69   16.50
   6   3  -7  137.09   36.20
  -9   6  -7  102.09   18.60
  -3  -6  -7  119.49   23.40
  -3   9   7  115.59   22.10
   9  -3  -7  157.98   33.20
  -6  -3   7  110.99   17.50
   9  -6   7   79.09   16.10
  -3   9   7  110.19   15.20
  -9   2   7   84.19   17.30
   7  -9   7   71.69   13.20
   2   7   7   59.19   13.30
   7  -9   7   57.69   15.60
   7   2  -7  137.69   34.60
   9  -2  -7   98.89   31.90
  -2  -7  -7   84.19   16.80
  -2   9   7   77.09   16.10
  -7  -2   7   86.59   14.60
   9  -7   7   84.89   17.90
  -9   1   7   10.40   13.80
   1  -9  -7   36.60   20.20
   8  -9   7   34.10   14.80
   8  -9   7   18.70   10.60
   8   1  -7  -11.40   34.50
   1   8   7   13.70   12.30
   9  -8   7   16.10   14.00
   9  -1  -7   21.10   32.30
  -8  -1   7   14.40   12.60
  -1  -8  -7   13.00   16.30
  -1   9   7   13.70   12.70
   9   0  -7   40.70   30.70
   0  -9  -7   24.10   17.10
  -9   0   7   21.80   13.70
   9  -9   7   37.60   14.60
   0   9   7   22.90   13.60
 -10   0  -7  175.38   27.10
  10   0   7  168.18   21.20
   0 -10   7  212.28   23.60
 -10  10   7  190.68   23.00
  10 -10  -7  137.49   31.50
   0  10  -7  222.88   30.00
   9 -10  -7   55.59   25.90
 -10   1  -7   57.19   20.40
 -10   9   7   50.89   14.80
   9   1   7   48.00   14.20
   1 -10   7   33.90   15.10
  10  -1   7   43.30   15.80
  -1  10  -7   72.79   22.30
  10  -9  -7   71.39   29.00
  -9  -1  -7   46.40   18.00
  -1  -9   7   47.90   16.60
   8   2   7  143.09   19.50
 -10   2  -7  167.48   27.30
   2 -10   7  172.08   22.10
 -10   8   7  165.38   21.30
  -2  10  -7  162.08   31.90
  -8  10   7  201.38   23.10
  10  -2   7  140.29   19.90
  -2  -8   7  138.09   23.30
  -8  -2  -7  173.78   25.90
  10  -8  -7  154.58   34.10
   7   3   7  223.28   22.70
   3 -10   7  257.47   24.00
 -10   7   7  269.07   24.30
 -10   3  -7  321.87   29.70
  -7  10   7  221.98   21.60
  -3  -7   7  232.48   22.50
  10  -7  -7  268.07   36.50
  -7  -3  -7  292.17   28.50
  -3  -7   7  277.77   26.50
  -7  10   7  278.27   25.50
  -3  10  -7  328.17   34.70
  10  -3   7  234.38   24.10
 -10   6   7  243.28   22.80
   4 -10   7  227.48   22.90
 -10   4  -7  272.87   29.00
   6   4   7  215.08   21.60
  -6  10   7  255.47   25.50
  -4  10  -7  332.27   32.80
  -4  -6   7  226.58   22.40
  -4  -6   7  243.48   26.70
  -6  -4  -7  250.87   27.50
  -6  10   7  194.98   19.80
  10  -4   7  217.78   23.00
  10  -6  -7  272.47   35.80
 -10   5   7   39.50   13.20
   5 -10   7   19.30   12.40
 -10   5  -7   22.20   17.40
   5   5   7   22.20   13.10
  10  -5   7   20.00   14.30
  -5  10   7   24.70   16.00
  -5  -5   7    7.90   13.20
  -5  10   7   27.90   12.40
  -5  -5  -7   14.60   17.20
  10  -5  -7   39.80   29.50
  -5  -5   7   21.10   18.90
   6   4  -7  225.88   42.40
 -10   4   7  164.08   19.70
   6 -10   7  167.28   30.10
   6 -10   7  132.79   19.10
   4   6   7  110.09   17.80
 -10   6  -7  148.49   26.30
  -6  -4   7  143.39   19.30
  10  -6   7  140.69   20.10
  -4  10   7  125.89   16.90
  -4  10   7  192.28   23.90
  -4  -6  -7  126.09   23.90
  10  -4  -7  152.08   30.60
 -10   7  -7   55.79   18.70
 -10   3   7   66.79   14.60
   7 -10   7   69.19   16.10
   3   7   7   44.60   14.20
   7   3  -7  103.39   36.00
   7 -10   7   61.29   13.30
  -3  10   7   57.39   12.80
  -7  -3   7   59.89   13.70
  -3  -7  -7   48.00   16.80
  10  -7   7   68.79   15.40
  10  -3  -7   43.40   30.40
   8 -10   7   14.10   15.40
 -10   2   7   40.60   13.60
   8 -10   7   47.80   12.70
   2   8   7   58.99   13.40
   8   2  -7  130.49   32.50
  -2  10   7   57.29   13.40
  10  -8   7   30.10   14.90
  -8  -2   7   40.10   13.20
  -2  -8  -7   55.19   15.90
  10  -2  -7   32.10   30.00
   9 -10   7   16.30   15.20
 -10   1   7   -7.40   12.10
   9 -10   7    5.70   10.60
   9   1  -7  103.39   31.80
   1   9   7   -0.60   13.00
  10  -9   7  -23.20   14.30
  -1  -9  -7    7.20   16.70
  10  -1  -7   22.50   30.10
  -9  -1   7   12.70   12.90
  -1  10   7    4.30   12.60
   0 -10  -7   30.40   17.80
  10 -10   7   52.69   16.10
   0  10   7   36.20   13.40
 -10   0   7   48.50   13.90
  10   0  -7   -6.40   33.20
 -11  11   7   21.00   15.70
  11 -11  -7   39.00   27.40
   0 -11   7   47.00   16.00
  11   0   7   11.60   15.50
   0  11  -7   32.50   22.40
 -11   0  -7   16.30   18.50
  10   1   7   95.49   19.50
   1  10  -7  137.09   28.40
 -11  10   7  107.29   21.10
   1 -11   7  125.69   21.50
 -11   1  -7  142.09   26.40
  11  -1   7  115.49   19.80
 -10  -1  -7  144.49   25.50
  -1  11  -7  105.49   26.30
  -1 -10   7  172.68   22.50
 -10  11   7  178.38   21.40
  11 -10  -7   68.19   33.90
 -11   2  -7  239.08   30.30
   9 -11  -7  239.98   36.40
 -11   9   7  253.77   24.60
   2 -11   7  230.68   24.20
   9   2   7  257.17   23.20
  -9  -2  -7  234.68   27.30
  11  -2   7  224.08   23.60
  11  -9  -7  193.38   35.00
  -2  -9   7  284.77   26.90
  -9  11   7  276.67   25.90
  -2  11  -7  305.47   33.60
   3 -11   7  195.38   22.60
 -11   3  -7  224.68   27.90
 -11   8   7  163.18   22.30
   8   3   7  157.88   20.50
  -3  -8   7  200.58   20.00
  -3  11  -7  249.08   33.90
  11  -8  -7  128.09   33.50
  -8  -3  -7  225.58   27.60
  11  -3   7  184.38   21.90
  -3  -8   7  201.48   25.30
  -8  11   7  226.58   24.00
   7   4   7   89.49   17.70
 -11   7   7  110.19   19.10
   4 -11   7  101.99   18.90
 -11   4  -7  135.19   26.00
  11  -7  -7  124.29   28.70
  -4  -7   7  126.39   23.70
  -7  -4  -7  104.29   20.30
  -4  11  -7   88.99   25.70
  -4  -7   7   79.69   17.00
  11  -4   7   89.69   19.50
  -7  11   7  106.39   15.00
  -7  11   7  163.98   21.40
 -11   6   7  149.79   19.50
   6   5   7  120.39   18.20
   5 -11   7  137.89   19.60
 -11   5  -7  173.98   26.60
  -6  11   7  189.88   22.70
  11  -5   7  133.09   20.50
  11  -6  -7  152.18   33.20
  -5  -6   7  114.39   23.50
  -6  11   7  122.69   16.40
  -6  -5  -7  173.38   25.00
  -5  -6   7   88.29   20.10
   5   6   7   98.19   16.90
 -11   5   7  115.79   19.10
   6 -11   7   92.99   17.80
 -11   6  -7  121.49   24.30
  -5  11   7  143.79   22.40
  -5  11   7   90.39   16.20
  -6  -5   7   75.49   15.00
  11  -5  -7  114.19   34.10
  11  -6   7   92.39   19.40
  -5  -6  -7   88.59   17.50
 -11   4   7   13.60   13.80
   4   7   7    5.60   12.90
 -11   7  -7   20.20   18.20
   7 -11   7   14.50   12.20
  -7  -4   7   -0.20   12.90
  11  -7   7   37.50   15.20
  -4  -7  -7  -12.80   18.00
  -4  11   7   42.00   21.60
  11  -4  -7   42.90   31.20
  -4  11   7    3.00   12.60
   8   3  -7   28.10   34.90
   3   8   7   42.00   13.70
 -11   8  -7   38.50   17.90
 -11   3   7   49.99   13.90
   8 -11   7   46.40   12.90
  11  -3  -7   85.89   30.30
  11  -8   7   58.89   16.30
  -8  -3   7   58.59   13.80
  -3  -8  -7   66.79   17.90
  -3  11   7   57.09   13.90
   9 -11   7   72.49   13.40
   2   9   7   54.79   14.30
   9 -11   7   58.89   17.00
 -11   2   7   70.59   13.00
   9   2  -7   46.60   33.50
  11  -2  -7   77.09   31.20
  -9  -2   7   53.69   12.80
  -2  11   7   56.69   13.30
  11  -9   7   77.19   16.90
  -2  -9  -7   48.90   17.30
  10 -11   7   93.49   19.90
  10   1  -7   87.09   33.00
 -11   1   7   46.50   13.60
   1  10   7   48.50   13.90
  10 -11   7   34.70   11.10
  11  -1  -7   27.20   30.80
  11 -10   7   35.50   16.10
  -1 -10  -7   34.60   18.40
  -1  11   7   26.00   12.90
 -10  -1   7   21.30   13.40
   0  11   7   18.80   13.20
 -11   0   7   18.40   13.60
  11   0  -7  -33.30   32.70
  11 -11   7  -23.30   16.00
 -12   0  -7  135.09   25.10
   0 -12   7   94.09   17.80
   0  12  -7  111.69   24.90
 -12  12   7  106.49   21.10
  12 -12  -7   90.89   29.30
  12   0   7   91.39   20.10
   1  11  -7  155.08   29.10
 -12   1  -7  142.29   25.50
  11 -12  -7   83.39   29.80
 -12  11   7  117.99   21.10
   1 -12   7  125.69   21.50
  11   1   7  123.19   20.20
  -1  12  -7   67.99   23.80
  12 -11  -7  116.69   29.40
 -11  12   7  154.28   21.50
 -11  -1  -7  100.69   19.50
  12  -1   7  106.59   21.00
  -1 -11   7   96.89   18.20
 -12   2  -7   89.49   21.10
   2 -12   7  108.29   20.50
  10   2   7   89.49   18.70
 -12  10   7   99.49   19.90
   2  10  -7   99.89   22.60
 -10  -2  -7  129.59   25.00
  12 -10  -7   54.79   33.60
  -2  12  -7  117.09   28.70
 -10  12   7  115.39   20.70
  12  -2   7   85.19   18.00
  -2 -10   7   66.69   18.40
   3 -12   7  169.98   22.60
 -12   3  -7  220.38   28.20
   9 -12  -7  236.08   35.90
 -12   9   7  200.68   22.50
   9   3   7  216.68   21.90
  12  -9  -7  224.98   34.00
  -3  12  -7  210.88   32.60
  -9  12   7  233.28   24.20
  -3  -9   7  186.58   25.90
  12  -3   7  177.08   22.80
  -9  -3  -7  227.18   27.60
 -12   8   7  116.19   20.10
   4 -12   7  116.89   20.30
   8   4   7  107.09   18.50
 -12   4  -7  135.29   25.80
  -4  -8   7  177.68   24.00
  12  -8  -7  107.09   28.50
  -8  -4  -7  110.99   20.30
  -4  12  -7   61.49   25.80
  -8  12   7  137.99   22.40
  12  -4   7  115.39   20.70
  -4  -8   7  123.19   17.90
 -12   5  -7  231.68   28.10
   5 -12   7  200.68   21.80
   7   5   7  179.98   21.20
 -12   7   7  209.78   22.20
  -7  12   7  187.98   18.60
  -5  12  -7  283.87   33.50
  -5  -7   7  166.58   20.20
  12  -5   7  199.98   23.00
  12  -7  -7  199.18   39.20
  -5  -7   7  264.37   27.60
  -7  -5  -7  192.98   26.10
  -7  12   7  224.48   25.10
 -12   6  -7  129.69   20.20
   6   6   7   80.29   17.90
 -12   6   7  125.79   18.90
   6 -12   7   66.39   14.50
  -6  12   7   83.69   16.30
  -6  -6   7   94.09   18.50
  12  -6  -7   84.39   30.90
  -6  -6  -7  117.79   22.70
  -6  12   7  141.39   23.40
  12  -6   7   92.89   19.80
   5   7   7   37.50   14.70
 -12   7  -7   32.90   18.00
 -12   5   7   46.90   13.60
   7 -12   7   18.50   12.60
  -7  -5   7   42.60   14.50
  -5  12   7   37.20   17.70
  12  -7   7   43.90   16.10
  12  -5  -7   64.69   27.70
  -5  12   7   28.70   13.20
  -5  -7  -7   10.00   18.80
   4   8   7   25.80   13.10
   8 -12   7   20.40   12.90
 -12   8  -7   17.00   18.70
 -12   4   7   41.40   13.60
  12  -4  -7   36.30   30.30
  -4  -8  -7   41.30   16.60
  -8  -4   7   17.10   13.40
  12  -8   7   13.60   15.70
  -4  12   7   15.60   13.70
 -12   9  -7    8.20   17.60
   3   9   7   13.60   12.90
   9 -12   7   25.20   12.70
 -12   3   7    8.80   13.10
  12  -3  -7   37.80   28.90
  -3  12   7   30.00   13.20
  -9  -3   7   18.80   12.70
  12  -9   7   40.00   16.20
  -3  -9  -7   20.70   17.40
  10 -12   7    6.10   23.00
   2  10   7   -1.10   12.70
 -12   2   7    7.80   12.80
  10 -12   7    3.00   11.30
  -2  12   7    5.50   12.60
  12  -2  -7    5.60   29.70
 -10  -2   7  -10.00   13.30
  -2 -10  -7   -1.30   17.00
  12 -10   7   26.60   16.30
  11   1  -7    0.40   33.70
  11 -12   7   55.89   16.70
 -12   1   7   38.80   13.70
   1  11   7   42.80   14.60
  11 -12   7   28.30   11.40
  12  -1  -7   -3.40   35.10
  -1 -11  -7   75.49   17.10
  12 -11   7   58.89   17.10
 -11  -1   7   38.50   14.00
  -1  12   7   36.50   13.10
   0  12   7    1.60   13.70
   0 -12  -7   27.60   18.00
 -12   0   7   20.50   13.70
  12   0  -7   13.60   28.80
  12 -12   7  -15.20   16.50
 -13  13   7    6.80   15.70
  13   0   7   17.00   16.40
   0 -13   7    9.80   16.00
  13 -13  -7   49.80   27.40
 -13   0  -7   10.60   18.60
   0  13  -7   13.60   21.20
  12 -13  -7   -7.00   26.90
 -13  12   7    9.70   15.90
   1  12  -7    9.30   22.20
 -13   1  -7   11.00   19.80
   1 -13   7  -25.00   15.20
  12   1   7    3.90   17.20
 -12  -1  -7   -0.90   17.90
  13  -1   7    7.90   15.90
 -12  13   7   27.00   15.70
  13 -12  -7   27.60   25.20
  -1 -12   7   -2.50   16.50
  -1  13  -7   14.90   20.50
  11 -13  -7   95.29   29.90
  11   2   7  126.49   20.30
   2  11  -7  131.19   27.80
 -13  11   7  118.39   21.20
   2 -13   7  113.09   21.30
 -13   2  -7  135.19   22.60
 -11  -2  -7   96.59   20.10
  13 -11  -7  133.99   29.40
  -2 -11   7   88.69   18.80
  13  -2   7  104.89   20.90
 -11  13   7  140.29   21.10
  -2  13  -7  147.79   29.90
  10   3   7   95.99   19.20
 -13   3  -7   97.59   21.50
  10 -13  -7   95.49   31.30
 -13  10   7   96.89   20.20
   3 -13   7  107.79   20.30
 -10  -3  -7   99.29   20.40
  13 -10  -7   49.50   27.90
  13  -3   7   78.69   17.60
 -10  13   7  107.59   21.90
  -3  13  -7   93.19   26.30
   4 -13   7  180.08   22.10
 -13   4  -7  195.48   29.30
 -13   9   7  196.48   22.80
   9   4   7  181.38   21.90
   9 -13  -7  201.18   36.10
  -4  13  -7  261.97   30.60
  13  -9  -7  178.28   32.30
  -9  13   7  217.28   25.10
  -9  -4  -7  223.18   27.70
  -4  -9   7  172.88   26.30
  13  -4   7  177.28   23.20
   8   5   7  135.89   19.70
 -13   5  -7  201.08   27.40
 -13   8   7  185.88   20.90
   5 -13   7  141.19   21.20
  -8  -5  -7  179.98   25.20
  -5  -8   7  135.79   18.10
  13  -8  -7  183.98   30.90
  -8  13   7  182.48   24.40
  13  -5   7  144.69   22.10
  -5  -8   7  133.09   26.30
  -5  13  -7  173.98   32.30
   6 -13   7   45.90   14.40
 -13   6  -7   47.90   19.70
   7   6   7   46.10   15.10
 -13   7   7   60.89   14.40
  -6  -7   7   88.89   24.10
  13  -6   7   43.70   17.30
  -6  13  -7  -27.70   25.60
  -7  -6  -7   33.10   18.50
  13  -7  -7   88.29   27.30
  -7  13   7  107.69   22.30
  -6  -7   7   29.50   13.00
   6   7   7  160.78   20.10
 -13   6   7  172.38   20.80
   7 -13   7  170.08   20.70
 -13   7  -7  169.68   26.90
  -6  13   7  175.58   24.60
  -6  -7  -7  189.48   24.00
  13  -7   7  141.19   22.50
  13  -6  -7  152.58   32.00
  -7  -6   7  154.88   20.00
  -6  13   7  145.99   17.50
   5   8   7   87.49   16.20
 -13   8  -7  116.49   20.30
 -13   5   7  108.09   18.90
   8 -13   7   78.89   14.70
  13  -8   7   76.09   18.00
  -8  -5   7   68.59   15.10
  -5  13   7  147.89   23.40
  -5  -8  -7  103.39   17.70
  -5  13   7   78.09   15.50
  13  -5  -7  126.59   31.60
 -13   9  -7   44.80   19.20
   4   9   7   54.49   14.80
   9 -13   7   46.10   13.10
 -13   4   7   49.60   14.00
  13  -4  -7   69.59   29.20
  -4  -9  -7   25.20   16.50
  13  -9   7   46.40   18.00
  -9  -4   7   43.20   14.30
  -4  13   7   52.69   13.90
   3  10   7   29.20   15.40
 -13   3   7   39.20   13.30
  10 -13   7   68.19   13.00
 -13  10  -7   30.60   18.20
  -3  13   7   32.10   13.70
  13 -10   7   37.10   17.50
  -3 -10  -7   34.10   16.50
  13  -3  -7   16.20   33.40
 -10  -3   7   46.70   13.90
   2  11   7    6.50   13.20
 -13   2   7   11.80   13.50
  11 -13   7   17.70   11.30
  13  -2  -7   13.70   31.70
  -2 -11  -7   40.20   16.80
  13 -11   7   49.00   17.00
 -11  -2   7    9.10   12.50
  -2  13   7   13.60   13.00
 -13   1   7   83.09   17.80
  12 -13   7   75.39   13.30
   1  12   7   82.19   16.60
  -1  13   7   86.49   15.30
  13 -12   7  126.99   22.90
  -1 -12  -7   80.39   17.80
 -12  -1   7   77.59   16.50
  13   0  -7    9.50   28.80
   0  13   7   80.99   15.20
 -13   0   7  100.89   17.20
  12 -14  -7   52.59   29.00
   2 -14   7    0.40   16.00
 -14  12   7   45.10   15.50
 -14   2  -7   -4.90   18.90
   2  12  -7   49.50   20.50
  12   2   7   24.50   17.30
 -12  -2  -7   29.90   17.50
  -2  14  -7    8.70   22.70
 -12  14   7   40.50   16.20
  -2 -12   7   58.89   17.90
  14  -2   7   33.80   17.90
 -14  11   7   29.10   14.90
   3 -14   7   42.10   14.90
 -14   3  -7   26.40   19.20
   3  11  -7   60.19   21.50
  11   3   7   43.80   16.20
  -3  14  -7   43.50   22.30
 -11  -3  -7   34.20   18.70
  14 -11  -7   19.60   26.40
  -3 -11   7   45.50   17.50
 -11  14   7   14.50   16.80
  14  -3   7   19.50   16.40
   4 -14   7  129.89   21.40
 -14  10   7  164.88   21.50
  10 -14  -7  135.99   32.30
 -14   4  -7  159.68   27.00
  10   4   7  127.29   21.10
 -10  14   7  139.59   23.40
 -10  -4  -7  204.38   26.50
  -4  14  -7  164.28   29.90
  14 -10  -7  112.49   30.50
  -4 -10   7  145.29   20.10
  14  -4   7  132.39   22.50
   9   5   7   32.40   15.60
 -14   9   7   55.99   14.90
   5 -14   7   36.50   14.50
 -14   5  -7   52.89   20.30
  -9  -5  -7   41.60   18.40
  14  -5   7   37.70   17.80
  14  -9  -7   52.49   28.50
  -5  -9   7    8.90   19.20
  -9  14   7   61.29   16.30
  -5  14  -7   25.60   25.70
 -14   8   7  205.98   22.10
   8   6   7  194.18   22.00
   6 -14   7  194.18   22.20
 -14   6  -7  237.18   28.50
  -6  -8   7  181.38   20.80
  -8  -6  -7  170.48   25.80
  -6  -8   7  236.18   28.50
  14  -8  -7  167.48   32.00
  14  -6   7  183.78   24.30
  -8  14   7  255.57   25.20
  -6  14  -7  213.08   31.80
 -14   7   7  153.98   20.70
   7   7   7  121.49   19.20
   7 -14   7  150.08   20.00
 -14   7  -7  165.68   26.60
  -7  -7  -7  183.18   22.90
  14  -7   7  151.58   23.10
  -7  14   7  161.98   25.10
  -7  -7   7  113.99   17.30
  14  -7  -7  167.48   30.80
 -14   6   7   26.70   14.30
   6   8   7   17.80   14.40
 -14   8  -7   21.50   19.20
   8 -14   7   -1.30   13.30
  -6  14   7   14.10   12.90
  14  -8   7   47.00   17.30
  -6  -8  -7   19.30   16.00
  14  -6  -7   39.30   27.90
  -6  14   7   43.90   18.00
  -8  -6   7   16.70   13.70
   5   9   7   29.50   14.00
 -14   9  -7   22.90   18.70
 -14   5   7   11.60   13.50
   9 -14   7   20.40   12.40
  14  -9   7   26.50   17.00
  -5  -9  -7    0.70   18.10
  -9  -5   7   27.20   13.80
  -5  14   7   16.40   13.10
  14  -5  -7   -3.60   30.50
 -14   4   7   12.60   13.90
 -14  10  -7  -26.70   18.70
   4  10   7    3.20   14.20
  10 -14   7   11.20   12.60
  -4 -10  -7   -0.30   17.80
 -10  -4   7   28.10   12.80
  14  -4  -7    5.40   30.80
  -4  14   7   21.10   13.60
  14 -10   7    0.70   17.50
   3  11   7   42.10   14.20
 -14   3   7   42.50   13.20
 -14  11  -7   31.60   19.10
  11 -14   7   50.19   13.10
 -11  -3   7   52.19   14.10
  14  -3  -7    4.40   27.00
  -3 -11  -7   78.29   18.30
  -3  14   7   43.90   14.20
  14 -11   7   42.30   19.00
 -14  12  -7   60.59   18.30
  12 -14   7   83.69   15.90
   2  12   7   74.99   15.20
 -14   2   7   83.59   17.70
  14  -2  -7   -9.60   29.40
  -2  14   7   74.89   15.80
  14 -12   7   86.09   19.60
  -2 -12  -7   61.79   17.50
 -12  -2   7  104.49   17.90
  11 -15  -7   22.80   27.30
   4 -15   7   37.10   15.30
 -15  11   7   21.80   14.20
   4  11  -7   20.20   18.40
 -11  15   7   27.60   15.90
  15 -11  -7   37.30   26.50
  -4 -11   7   66.19   18.70
  -4  15  -7   14.70   22.30
   5 -15   7  135.59   21.10
  10 -15  -7  107.49   33.20
  10   5   7  125.29   20.60
 -15  10   7  127.19   21.00
 -15   5  -7  154.88   26.70
 -10  15   7  177.68   22.90
 -10  -5  -7  140.79   25.10
  15  -5   7  128.79   23.30
  15 -10  -7  120.49   30.20
  -5  15  -7  111.59   25.50
  -5 -10   7  146.29   27.60
   6 -15   7  151.58   21.40
 -15   9   7  154.38   20.90
   9 -15  -7  197.68   36.00
   9   6   7  137.79   20.80
 -15   6  -7  192.88   27.50
  15  -6   7  161.48   23.70
  -6  15  -7  179.78   31.10
  -9  15   7  157.28   26.00
  -9  -6  -7  168.08   25.30
  -6  -9   7  287.67   44.20
  15  -9  -7  140.79   30.40
 -15   7  -7   45.10   19.90
 -15   8   7   33.00   14.10
   7 -15   7   19.30   14.60
   8   7   7   37.70   15.80
  15  -8  -7    9.80   28.50
  -8  15   7  -21.70   18.30
  -7  -8   7   26.40   13.00
  15  -7   7   36.80   17.90
  -8  -7  -7   46.00   17.00
 -15   7   7   53.89   14.10
   8 -15   7   50.19   14.50
 -15   8  -7   23.80   19.70
   7   8   7   26.20   15.10
  -7  -8  -7   27.90   16.90
  15  -8   7   46.70   18.90
  15  -7  -7   36.50   30.10
  -8  -7   7   41.20   12.90
   6   9   7   49.60   15.90
   9 -15   7   42.10   14.70
 -15   9  -7   36.60   19.80
 -15   6   7   50.29   14.70
  -9  -6   7   53.89   13.30
  -6  -9  -7   36.60   18.80
  -6  15   7   35.50   13.80
  15  -6  -7   43.40   31.10
  15  -9   7   70.49   18.90
 -15   5   7   81.69   17.50
  10 -15   7   75.39   14.70
 -15  10  -7   91.49   20.40
   5  10   7  101.19   18.00
 -10  -5   7   93.29   18.80
  -5  15   7   63.09   14.90
  15  -5  -7   65.99   26.20
  -5 -10  -7   62.69   17.70
  15 -10   7  125.39   19.70
  11 -15   7   90.89   17.70
 -15   4   7  104.39   18.00
  15  -4  -7   31.50   29.60
   0   0   8    5.60   12.50
   1   0   8   10.20   13.50
  -1   1   8   17.80   13.40
   0   1  -8   33.60   21.70
   0  -1   8   17.90   12.80
  -1   1  -8    8.10   21.20
   1  -1   8   22.90   13.20
   0   1   8   13.90   13.60
   1   0  -8   62.29   23.30
  -1   0   8    5.30   13.80
   0  -1  -8   61.09   22.80
   0   2  -8  105.29   22.40
   0  -2   8   65.69   14.80
   2   0   8   92.99   16.00
  -2   2   8   54.69   15.20
   1  -2   8   57.19   14.10
  -2   1  -8   62.59   23.70
  -2   1   8   50.59   14.50
   1   1   8   45.80   13.70
   1   1  -8  108.69   24.10
  -1   2   8   41.20   13.00
   2  -1   8   52.49   14.40
  -1   2  -8   72.99   24.50
  -1  -1  -8   36.90   24.90
  -1  -1   8   40.80   14.40
   0   2   8   40.50   13.90
  -2   0   8   35.70   14.30
   2  -2   8   38.20   13.80
  -2   2  -8   44.70   21.20
  -3   0  -8  371.56   34.90
  -3   3   8  290.77   23.30
   3   0   8  296.77   23.40
   0  -3   8  247.88   25.00
  -3   2   8   25.00   17.80
  -3   2   8   40.50   14.70
   2   1   8   41.70   13.30
   1   2  -8   30.20   21.70
   1  -3   8   59.49   14.80
  -2   3   8   55.19   13.80
  -1  -2   8   39.00   14.60
   3  -1   8   50.59   14.20
  -1   3  -8   45.80   21.00
  -2  -1  -8   83.99   25.20
   1   2   8   32.70   14.30
   2  -3   8   38.70   14.50
  -3   1   8   25.60   17.00
  -3   1   8   40.80   14.50
  -3   2  -8   -8.80   22.20
  -1  -2  -8   80.99   23.10
   3  -2   8   46.90   13.90
  -2  -1   8   29.90   14.40
  -2   3  -8   51.09   22.20
  -1   3   8   30.10   12.60
   3  -3   8   37.80   14.10
   0   3   8   21.00   12.90
  -3   3  -8   32.60   22.00
  -3   0   8   37.10   14.40
  -4   4   8   63.49   18.20
  -4   0  -8   86.69   25.20
   0  -4   8   90.29   17.90
  -4   4   8  105.19   15.70
  -4   3   8  165.58   24.60
   3   1   8  187.38   18.40
   1  -4   8  141.29   19.60
  -4   3   8  182.68   17.80
  -3   4   8  150.88   18.50
  -1  -3   8  128.49   25.10
  -1  -3   8  171.48   19.90
   4  -1   8  165.98   18.80
  -4   2   8   98.99   19.60
   2   2  -8  102.19   31.50
  -4   2  -8  142.29   28.70
  -4   2   8  109.69   16.20
   2  -4   8  104.19   18.40
   2   2   8  105.69   16.10
  -2   4   8  106.69   16.90
  -2  -2   8  119.39   19.90
   4  -2   8  106.69   17.10
  -2  -2   8   94.39   18.50
   1   3   8   60.99   14.10
  -4   3  -8   94.79   21.80
  -4   1   8   50.69   13.80
  -4   1   8   64.09   17.40
   3  -4   8   66.19   15.30
   4  -3   8   56.89   15.10
  -1  -3  -8  103.69   22.70
  -3  -1   8   48.10   14.10
  -1   4   8   77.89   14.30
  -3  -1   8   63.69   17.20
  -3   4  -8   49.70   20.40
  -4   4  -8   10.90   20.40
   4  -4   8   17.90   14.40
   0   4   8   16.00   14.00
  -4   0   8   20.10   12.70
   0  -5   8  119.69   24.00
   0  -5   8  178.08   21.00
  -5   5   8  146.79   23.90
  -5   5   8  192.28   21.50
   5   0   8  164.38   20.50
   4   1   8  223.48   24.00
  -5   4   8  242.68   25.90
  -5   1  -8  352.46   33.20
   1  -5   8  203.18   23.70
  -5   4   8  260.37   21.00
   5  -1   8  272.87   22.40
  -4   5   8  256.77   21.80
  -1  -4   8  257.57   23.80
  -5   3   8   50.99   12.80
   3   2   8   44.40   13.70
   2  -5   8   34.20   15.00
  -5   2  -8   76.39   23.10
  -5   3   8   25.20   17.10
  -2  -3   8   24.10   14.00
  -2  -3   8   22.10   16.20
   5  -2   8   47.00   13.70
  -3   5   8   54.29   14.00
  -5   2   8   -4.40   16.80
   3  -5   8   37.00   15.60
   2   3   8   40.50   13.40
  -5   3  -8   44.40   22.50
  -3  -2   8  -14.20   16.90
  -2   5   8   29.40   12.80
  -2  -3  -8   74.39   21.20
   5  -3   8   56.79   14.80
  -5   4  -8   64.39   23.10
   4  -5   8   29.90   14.40
  -5   1   8   23.50   16.00
   1   4   8   36.40   13.70
  -4   5  -8   11.50   18.80
   5  -4   8   28.40   14.70
  -4  -1   8   25.30   15.80
  -1   5   8   43.80   13.20
  -5   5  -8   34.20   21.60
   0   5   8    9.30   14.10
   5  -5   8   13.90   14.90
  -5   0   8    4.80   14.90
  -6   6   8  239.38   20.50
   0  -6   8  237.38   24.70
  -6   6   8  247.58   25.60
   0  -6   8  262.77   24.20
   6   0   8  224.48   23.80
  -6   1  -8  189.68   31.10
   6  -1   8  115.19   18.30
  -5   6   8  107.79   23.60
  -5   6   8  118.79   16.40
  -5  -1  -8  208.58   31.00
  -6   4   8  132.39   22.90
   4   2   8  146.89   21.00
   2  -6   8   94.89   20.40
   6  -2   8  175.08   19.20
  -2  -4   8  136.99   23.70
  -4   6   8  179.38   18.80
  -6   3   8  110.49   21.40
  -6   3  -8  174.08   29.40
   3  -6   8   96.89   19.60
   3   3   8  114.59   17.10
  -3  -3  -8  139.59   28.20
  -3  -3   8  110.29   20.80
  -3   6   8  114.99   16.70
   6  -3   8  112.89   18.90
   2   4   8   23.40   13.50
  -6   2   8  -15.40   16.80
  -6   4  -8   31.00   20.90
   4  -6   8   10.60   14.70
  -2   6   8   17.70   12.70
   6  -4   8   29.30   14.20
  -4  -2   8   -0.90   15.60
   5  -6   8  -20.60   14.70
   1   5   8    5.70   13.00
  -6   5  -8   15.80   21.00
  -6   1   8    4.80   14.90
   6  -5   8   19.70   14.20
  -5  -1   8    6.40   15.90
  -1  -5  -8   32.70   22.20
  -1   6   8   12.20   12.90
  -6   0   8   -4.90   15.90
  -6   6  -8  -29.50   19.90
   6   0  -8   75.09   31.50
   0   6   8   12.30   13.10
   6  -6   8   -2.70   15.50
   0  -7   8   24.20   15.40
  -7   7   8   51.09   17.30
   7   0   8   46.20   14.70
  -7   0  -8   69.49   22.60
  -7   1  -8  209.48   29.70
  -7   6   8  124.79   24.30
   1  -7   8  130.09   20.80
   6   1   8  104.59   20.30
  -6   7   8  109.29   20.90
  -6  -1  -8  209.08   29.60
  -6   7   8  168.48   25.10
  -1  -6   8  128.59   21.70
   7  -1   8  118.39   19.10
   2  -7   8  241.38   22.20
  -7   5   8  197.88   24.10
   2  -7   8  147.69   22.70
   5   2   8  207.38   21.40
  -5   7   8  195.08   19.20
   7  -2   8  244.38   21.80
  -5   7   8  287.97   27.50
  -2  -5   8  145.69   22.40
  -2  -5   8  216.48   24.30
   4   3   8   63.59   14.70
  -7   4   8   39.40   17.10
   3  -7   8   40.10   16.30
  -3  -4   8   32.00   17.20
  -4  -3  -8   97.99   23.70
   7  -3   8   90.19   17.70
   4  -7   8  136.19   22.60
  -7   4  -8  166.88   28.30
  -7   3   8  157.38   22.20
   3   4   8  144.29   18.10
   7  -4   8  153.38   21.20
  -3   7   8  153.88   18.60
  -4  -3   8  187.88   22.20
  -3  -4  -8  218.58   28.00
  -7   5  -8  101.69   22.30
   2   5   8   63.39   14.60
  -7   2   8   43.70   16.90
   5  -7   8   75.09   16.10
  -2   7   8   77.29   15.80
   7  -5   8   90.89   18.10
  -5  -2   8   38.70   15.60
   6  -7   8   -0.50   15.10
   1   6   8    8.50   14.80
  -7   6  -8   20.30   20.70
  -7   1   8   24.50   15.10
  -1   7   8   10.50   13.10
  -6  -1   8   -4.70   14.50
   7  -1  -8   84.59   31.60
  -1  -6  -8   67.79   20.00
   7  -6   8    6.00   14.90
   7  -7   8   48.20   15.60
  -7   0   8   42.00   16.40
  -7   7  -8   54.59   18.50
   7   0  -8   61.39   37.40
   0   7   8   39.20   14.20
  -8   0  -8  158.08   28.30
  -8   8   8   62.29   17.30
   8   0   8   74.19   17.00
   0  -8   8   77.29   18.00
   0   8  -8  164.88   33.00
  -8   1  -8  238.48   30.80
   7   1   8  146.19   19.90
  -8   7   8  152.58   23.50
   1  -8   8  133.49   22.30
  -1  -7   8  145.19   23.60
  -7   8   8  130.39   19.90
  -7  -1  -8  196.68   30.00
   8  -1   8  118.89   19.30
  -8   6   8   58.19   16.60
   6   2   8   49.30   14.80
   2  -8   8   42.20   15.70
  -8   2  -8   82.59   22.90
  -6   8   8   54.49   13.00
  -6   8   8   59.89   18.20
  -6  -2  -8   69.29   23.00
   8  -2   8   68.29   15.70
  -2  -6   8   18.60   15.60
  -2  -6   8   51.89   17.10
   8  -6  -8   46.90   28.90
   3  -8   8  122.79   19.50
  -8   3  -8  210.78   29.60
   5   3   8  131.59   18.30
  -8   5   8  108.39   18.20
  -5  -3  -8  207.88   27.20
   8  -5  -8  228.08   35.80
  -3  -5   8  122.59   17.70
   8  -3   8  123.59   19.20
  -5   8   8  114.29   16.80
  -8   4   8   71.79   17.90
   4  -8   8  103.99   15.50
   4   4   8   79.79   16.80
  -8   4  -8   99.19   21.80
   8  -4   8   92.79   18.90
  -4   8   8  102.89   16.70
   8  -4  -8  134.49   32.60
  -4  -4   8   71.59   16.30
  -8   5  -8   24.50   20.40
   3   5   8   38.90   14.20
  -8   3   8   28.30   16.30
   5  -8   8   46.20   16.20
   8  -5   8   24.70   15.50
  -3  -5  -8   73.09   20.00
  -5  -3   8   22.70   14.60
  -3   8   8   52.99   14.20
   8  -3  -8   78.49   34.20
   2   6   8   63.39   16.20
   6  -8   8   60.49   17.80
  -8   6  -8  139.99   23.80
  -8   2   8   62.99   17.10
  -6  -2   8   85.09   16.10
   8  -6   8  105.79   17.00
  -2   8   8   83.49   17.30
   7   1  -8  136.29   37.20
  -8   1   8   22.00   15.50
   7  -8   8   19.30   16.60
   1   7   8   47.30   14.50
  -8   7  -8   56.89   19.60
  -7  -1   8   12.20   15.40
   8  -7   8   45.90   15.70
  -1   8   8   36.30   13.40
  -1  -7  -8  -23.90   28.00
   8  -1  -8  114.79   36.10
  -8   0   8   20.10   16.00
   8   0  -8   69.89   37.10
  -8   8  -8   10.90   18.80
   8  -8   8   30.00   15.90
   0   8   8    9.70   13.20
   9  -9  -8   47.10   30.60
   0  -9   8   49.80   17.10
   8   1   8   29.60   15.20
  -9   8   8    9.20   15.80
  -9   1  -8   75.99   22.60
   1  -9   8   27.70   15.80
  -1  -8   8   22.30   17.20
   9  -1   8   35.80   15.50
  -8  -1  -8   10.50   20.70
  -1   9  -8   43.20   26.40
  -8   9   8   36.00   17.70
   9  -8  -8   74.09   31.10
  -9   2  -8   57.29   22.60
   2  -9   8   23.30   15.30
   7   2   8   31.50   15.30
  -9   7   8   30.10   15.90
   9  -7  -8   49.20   30.40
   9  -2   8   27.70   15.30
  -7   9   8   23.20   18.40
  -7  -2  -8   15.60   19.40
  -2  -7   8   33.20   18.10
  -9   6   8   49.00   16.70
  -9   3  -8   70.89   22.10
   3  -9   8   37.60   14.90
   6   3   8   46.90   15.70
  -6   9   8   48.90   13.00
   9  -6  -8   92.39   30.80
  -6  -3  -8   65.39   19.40
  -3  -6   8   12.40   15.40
   9  -3   8   53.89   15.60
   4  -9   8   43.80   14.10
  -9   4  -8   92.09   21.50
   5   4   8   56.99   14.80
  -9   5   8   67.29   16.00
   9  -5  -8   68.69   32.30
  -4  -5   8   19.30   14.50
   9  -4   8   28.20   15.30
  -5   9   8   33.70   13.30
  -5  -4  -8   49.60   21.50
  -9   5  -8  142.09   27.30
   5  -9   8  132.69   18.30
  -9   4   8   95.79   20.50
   4   5   8  107.29   18.40
   9  -4  -8  129.19   38.00
  -5  -4   8  120.29   19.80
  -4   9   8  104.69   18.60
  -4  -5  -8  145.39   27.70
   9  -5   8  113.79   20.30
  -9   6  -8   61.29   21.00
  -9   3   8   46.00   16.10
   3   6   8   29.90   13.90
  -3   9   8   48.10   14.40
   9  -6   8   24.30   15.40
   9  -3  -8   29.70   34.20
  -6  -3   8   44.40   15.40
   7  -9   8   53.89   18.90
   7   2  -8   10.00   40.30
  -9   7  -8   61.19   20.80
  -9   2   8   22.00   15.20
   2   7   8   66.29   15.10
  -2  -7  -8   -5.20   20.80
  -2   9   8   62.39   14.50
   9  -2  -8   75.29   33.50
   9  -7   8   12.00   16.10
  -7  -2   8   40.50   16.80
   8   1  -8   82.49   36.00
  -9   8  -8   43.70   20.60
  -9   1   8   32.00   15.30
   8  -9   8   48.70   16.30
   1   8   8   41.70   15.90
  -1   9   8   47.60   14.10
   9  -1  -8   39.60   32.80
  -8  -1   8   29.10   15.40
   9  -8   8   -2.60   16.10
   9   0  -8  113.19   33.60
   7   3   8   22.80   14.70
   3 -10   8   22.50   15.20
 -10   3  -8   21.10   22.60
 -10   7   8    4.30   15.70
  10  -7  -8   44.10   34.30
  -7  -3  -8   36.50   20.70
  -7  10   8   53.79   19.00
  10  -3   8    5.10   15.10
 -10   4  -8   70.69   21.90
 -10   6   8   36.80   15.50
   4 -10   8   42.50   14.90
   6   4   8   26.80   14.80
  10  -6  -8   33.70   33.60
  10  -4   8   43.20   15.70
  -6  10   8   44.10   13.40
  -6  -4  -8   45.40   21.60
 -10   5   8    9.60   15.30
   5 -10   8   27.60   13.40
 -10   5  -8   31.50   20.70
   5   5   8   27.80   14.70
  10  -5  -8   37.90   33.20
  -5  10   8   35.10   13.90
  -5  -5  -8   19.60   20.50
  -5  -5   8    0.90   14.20
  10  -5   8   44.60   16.00
   6 -10   8  102.39   17.60
 -10   6  -8   82.29   22.40
 -10   4   8   78.79   16.60
   4   6   8   82.29   17.00
  10  -6   8   93.39   20.40
  10  -4  -8   73.49   36.70
  -6  -4   8   70.99   16.00
  -4  10   8   98.19   16.70
  -4  -6  -8   80.09   20.90
 -10   7  -8   83.49   21.00
 -10   3   8   64.99   18.10
   3   7   8   85.19   16.80
  10  -7   8   97.29   20.70
  -7  -3   8   81.79   16.70
  -3  10   8   85.89   17.80
  10  -3  -8  138.59   33.40
  -3  -7  -8   99.79   20.40
   0   0   0    0.00    0.00

_computing_structure_solution     'SHELXT 2014/5 (Sheldrick, 2014)'
;
_shelx_hkl_checksum              56257
_olex2_submission_special_instructions 'No special instructions were received'
loop_
_space_group_symop_operation_xyz
'x, y, z'
'-y, x-y, z+2/3'
'-x+y, -x, z+1/3'
'y, x, -z'
'x-y, -y, -z+1/3'
'-x, -x+y, -z+2/3'
loop_
_atom_site_label
_atom_site_type_symbol
_atom_site_fract_x
_atom_site_fract_y
_atom_site_fract_z
_atom_site_U_iso_or_equiv
_atom_site_adp_type
_atom_site_occupancy
_atom_site_site_symmetry_order
_atom_site_calc_flag
_atom_site_refinement_flags_posn
_atom_site_refinement_flags_adp
_atom_site_refinement_flags_occupancy
_atom_site_disorder_assembly
_atom_site_disorder_group
Zn1 Zn 0.61672(5) 0.26531(5) 0.62952(12) 0.0172(2) Uani 1 1 d . . . . .
O1 O 0.6885(3) 0.2515(3) 1.4455(7) 0.0185(10) Uani 1 1 d . . . . .
O2 O 0.6547(3) 0.2871(3) 1.0868(7) 0.0200(10) Uani 1 1 d . . . . .
O3 O 0.6214(3) 0.2030(3) 0.8530(7) 0.0238(12) Uani 1 1 d . . . . .
O4 O 0.5210(4) 0.1701(4) 0.5392(12) 0.0490(19) Uani 1 1 d . . . . .
O5 O 0.4233(5) 0.0686(5) 0.4371(16) 0.076(3) Uani 1 1 d . . . . .
N1 N 0.4816(7) 0.1699(7) 0.2405(14) 0.063(3) Uani 1 1 d D U . . .
H1B H 0.529158 0.199119 0.211085 0.075 Uiso 0.47 1 calc R . P A 2
H1A H 0.523193 0.208534 0.197530 0.075 Uiso 0.53 1 calc R . P B 1
N2 N 0.4553(6) 0.0866(6) -0.1195(17) 0.061(3) Uani 1 1 d . U . . .
H2BD H 0.433384 0.041046 -0.178898 0.073 Uiso 0.47 1 calc R . P C 2
H2BE H 0.478521 0.123351 -0.209763 0.073 Uiso 0.47 1 calc R . P C 2
H2BF H 0.489566 0.089366 -0.031693 0.073 Uiso 0.47 1 calc R . P C 2
H2AA H 0.500556 0.109128 -0.058745 0.073 Uiso 0.53 1 calc R . P D 1
H2AB H 0.426353 0.039523 -0.071119 0.073 Uiso 0.53 1 calc R . P D 1
H2AC H 0.462035 0.083894 -0.249028 0.073 Uiso 0.53 1 calc R . P D 1
C1 C 0.6655(4) 0.1856(4) 1.3594(10) 0.0177(15) Uani 1 1 d . . . . .
C2 C 0.6457(4) 0.1704(4) 1.1629(9) 0.0146(13) Uani 1 1 d . . . . .
C3 C 0.6202(4) 0.0977(4) 1.0903(10) 0.0184(15) Uani 1 1 d . . . . .
H3 H 0.608512 0.088770 0.956141 0.022 Uiso 1 1 calc R . . . .
C4 C 0.6113(4) 0.0387(4) 1.2044(11) 0.0186(15) Uani 1 1 d . . . . .
C5 C 0.6313(5) 0.0544(4) 1.3998(11) 0.0213(16) Uani 1 1 d . . . . .
H5 H 0.626468 0.015222 1.482121 0.026 Uiso 1 1 calc R . . . .
C6 C 0.6581(4) 0.1258(4) 1.4772(11) 0.0207(16) Uani 1 1 d . . . . .
H6 H 0.671543 0.134593 1.610417 0.025 Uiso 1 1 calc R . . . .
C7 C 0.6405(4) 0.2239(4) 1.0246(10) 0.0172(14) Uani 1 1 d . . . . .
C8 C 0.4737(6) 0.1330(7) 0.4153(18) 0.051(3) Uani 1 1 d . . . . .
C11 C 0.3421(7) 0.0964(8) -0.183(2) 0.065(3) Uani 1 1 d D U . . .
H11A H 0.311553 0.044304 -0.135642 0.078 Uiso 0.53 1 calc R . P E 1
H11B H 0.349468 0.094352 -0.324282 0.078 Uiso 0.53 1 calc R . P E 1
H11C H 0.369380 0.140677 -0.268281 0.078 Uiso 0.47 1 calc R . P F 2
H11D H 0.322245 0.050107 -0.261422 0.078 Uiso 0.47 1 calc R . P F 2
C14 C 0.3648(7) 0.1759(9) 0.1837(19) 0.065(3) Uani 1 1 d D U . . .
H14A H 0.395897 0.228744 0.142450 0.078 Uiso 0.53 1 calc R . P G 1
H14B H 0.356791 0.174709 0.325563 0.078 Uiso 0.53 1 calc R . P G 1
H14C H 0.338741 0.132251 0.271585 0.078 Uiso 0.47 1 calc R . P H 2
H14D H 0.384271 0.221857 0.263370 0.078 Uiso 0.47 1 calc R . P H 2
C9A C 0.4038(12) 0.1311(13) 0.132(3) 0.049(5) Uani 0.53 1 d D U P I 1
H9A H 0.372697 0.078225 0.177204 0.059 Uiso 0.53 1 calc R . P I 1
C10A C 0.4165(11) 0.1321(14) -0.085(3) 0.051(4) Uani 0.53 1 d D U P I 1
H10A H 0.448687 0.184699 -0.131991 0.061 Uiso 0.53 1 calc R . P I 1
C12A C 0.2990(17) 0.1387(17) -0.147(4) 0.075(7) Uani 0.53 1 d D U P I 1
H12A H 0.249859 0.113299 -0.213661 0.091 Uiso 0.53 1 calc R . P I 1
H12B H 0.328047 0.190850 -0.195614 0.091 Uiso 0.53 1 calc R . P I 1
C13A C 0.2883(14) 0.1381(18) 0.075(4) 0.081(9) Uani 0.53 1 d D U P I 1
H13A H 0.257511 0.085630 0.120012 0.097 Uiso 0.53 1 calc R . P I 1
H13B H 0.261001 0.164922 0.106555 0.097 Uiso 0.53 1 calc R . P I 1
C9B C 0.4314(11) 0.1738(12) 0.087(3) 0.046(4) Uani 0.47 1 d D U P I 2
H9B H 0.459309 0.215883 -0.006769 0.055 Uiso 0.47 1 calc R . P I 2
C10B C 0.3929(11) 0.0970(12) -0.011(3) 0.042(4) Uani 0.47 1 d D U P I 2
H10B H 0.363893 0.055697 0.083627 0.050 Uiso 0.47 1 calc R . P I 2
C12B C 0.2795(13) 0.0995(16) -0.067(4) 0.064(6) Uani 0.47 1 d D U P I 2
H12C H 0.238506 0.091528 -0.155971 0.077 Uiso 0.47 1 calc R . P I 2
H12D H 0.258638 0.058550 0.030284 0.077 Uiso 0.47 1 calc R . P I 2
C13B C 0.309(2) 0.1745(16) 0.037(5) 0.071(8) Uani 0.47 1 d D U P I 2
H13C H 0.267348 0.177155 0.103040 0.085 Uiso 0.47 1 calc R . P I 2
H13D H 0.333312 0.216723 -0.055488 0.085 Uiso 0.47 1 calc R . P I 2
loop_
_atom_site_aniso_label
_atom_site_aniso_U_11
_atom_site_aniso_U_22
_atom_site_aniso_U_33
_atom_site_aniso_U_23
_atom_site_aniso_U_13
_atom_site_aniso_U_12
Zn1 0.0211(4) 0.0171(4) 0.0143(4) 0.0007(3) -0.0006(3) 0.0103(4)
O1 0.022(3) 0.014(2) 0.020(2) -0.0031(19) -0.001(2) 0.009(2)
O2 0.028(3) 0.014(3) 0.017(2) 0.002(2) 0.000(2) 0.010(2)
O3 0.041(3) 0.020(3) 0.014(3) 0.002(2) -0.001(2) 0.017(3)
O4 0.031(4) 0.043(4) 0.059(5) -0.024(4) -0.010(3) 0.008(3)
O5 0.049(5) 0.042(5) 0.098(8) -0.014(5) 0.003(5) -0.006(4)
N1 0.073(7) 0.083(8) 0.039(5) -0.002(5) 0.001(5) 0.044(6)
N2 0.048(6) 0.043(6) 0.086(8) -0.011(5) 0.005(5) 0.019(5)
C1 0.017(4) 0.021(4) 0.013(3) -0.001(3) -0.002(2) 0.008(3)
C2 0.017(3) 0.014(3) 0.011(3) 0.005(2) 0.005(3) 0.007(3)
C3 0.019(4) 0.023(4) 0.013(3) -0.002(3) -0.002(3) 0.010(3)
C4 0.021(4) 0.012(4) 0.021(4) -0.002(3) 0.002(3) 0.007(3)
C5 0.028(4) 0.016(4) 0.017(4) 0.004(3) -0.001(3) 0.010(3)
C6 0.023(4) 0.024(4) 0.016(4) 0.000(3) -0.004(3) 0.013(3)
C7 0.016(4) 0.021(4) 0.012(3) 0.002(3) 0.005(3) 0.008(3)
C8 0.037(6) 0.049(7) 0.060(7) -0.011(6) 0.000(5) 0.017(5)
C11 0.071(8) 0.057(8) 0.068(8) -0.007(6) -0.010(6) 0.032(7)
C14 0.071(8) 0.080(9) 0.057(7) -0.001(6) 0.008(6) 0.049(7)
C9A 0.056(11) 0.058(14) 0.044(9) 0.013(10) -0.001(8) 0.037(11)
C10A 0.049(10) 0.052(13) 0.053(9) 0.013(9) 0.014(8) 0.026(10)
C12A 0.071(16) 0.063(17) 0.098(14) 0.003(15) -0.026(14) 0.037(15)
C13A 0.094(18) 0.11(3) 0.096(15) 0.000(18) -0.016(15) 0.092(19)
C9B 0.054(11) 0.040(11) 0.038(10) 0.012(8) 0.016(7) 0.019(10)
C10B 0.031(10) 0.033(10) 0.044(11) 0.010(8) 0.014(7) 0.003(8)
C12B 0.049(13) 0.056(15) 0.073(17) 0.006(12) -0.006(10) 0.015(13)
C13B 0.097(19) 0.054(16) 0.087(19) 0.007(13) -0.005(14) 0.057(16)
loop_
_atom_type_symbol
_atom_type_description
_atom_type_scat_dispersion_real
_atom_type_scat_dispersion_imag
_atom_type_scat_source
C C 0.0060 0.0030
'ANOMDisVal Program in PLATON Spek, A. L. J. Appl. Crystallogr. 2003, 36, 7-13'
H H 0.0000 0.0000
'ANOMDisVal Program in PLATON Spek, A. L. J. Appl. Crystallogr. 2003, 36, 7-13'
N N 0.0100 0.0050
'ANOMDisVal Program in PLATON Spek, A. L. J. Appl. Crystallogr. 2003, 36, 7-13'
O O 0.0180 0.0100
'ANOMDisVal Program in PLATON Spek, A. L. J. Appl. Crystallogr. 2003, 36, 7-13'
Zn Zn 0.0350 2.0980
'ANOMDisVal Program in PLATON Spek, A. L. J. Appl. Crystallogr. 2003, 36, 7-13'
loop_
_geom_angle_atom_site_label_1
_geom_angle_atom_site_label_2
_geom_angle_atom_site_label_3
_geom_angle
_geom_angle_site_symmetry_1
_geom_angle_site_symmetry_3
O1 Zn1 O1 162.6(2) 3_664 1_554
O1 Zn1 O2 83.6(2) 3_664 3_664
O1 Zn1 O2 81.2(2) 1_554 3_664
O1 Zn1 O2 78.5(2) 3_664 2_654
O1 Zn1 O2 90.4(2) 1_554 2_654
O1 Zn1 O4 96.3(3) 3_664 .
O2 Zn1 O2 78.73(6) 3_664 2_654
O3 Zn1 O1 96.6(2) . 1_554
O3 Zn1 O1 96.8(2) . 3_664
O3 Zn1 O2 90.4(2) . 2_654
O3 Zn1 O2 168.8(2) . 3_664
O3 Zn1 O4 87.3(3) . .
O4 Zn1 O1 95.3(3) . 1_554
O4 Zn1 O2 174.0(3) . 2_654
O4 Zn1 O2 103.8(3) . 3_664
Zn1 O1 Zn1 99.9(2) 2_655 1_556
C1 O1 Zn1 119.8(5) . 1_556
C1 O1 Zn1 123.2(4) . 2_655
Zn1 O2 Zn1 94.5(2) 2_655 3_665
C7 O2 Zn1 126.4(5) . 2_655
C7 O2 Zn1 134.8(5) . 3_665
C7 O3 Zn1 127.0(5) . .
C8 O4 Zn1 151.9(9) . .
C8 N1 H1B 111.1 . .
C8 N1 H1A 125.5 . .
C8 N1 C9A 109.0(12) . .
C8 N1 C9B 137.9(13) . .
C9A N1 H1A 125.5 . .
C9B N1 H1B 111.1 . .
H2BD N2 H2BE 109.5 . .
H2BD N2 H2BF 109.5 . .
H2BE N2 H2BF 109.5 . .
H2AA N2 H2AB 109.5 . .
H2AA N2 H2AC 109.5 . .
H2AB N2 H2AC 109.5 . .
C10A N2 H2AA 109.5 . .
C10A N2 H2AB 109.5 . .
C10A N2 H2AC 109.5 . .
C10B N2 H2BD 109.5 . .
C10B N2 H2BE 109.5 . .
C10B N2 H2BF 109.5 . .
O1 C1 C2 125.0(6) . .
O1 C1 C6 117.3(6) . .
C2 C1 C6 117.7(7) . .
C1 C2 C3 119.5(6) . .
C1 C2 C7 124.6(6) . .
C3 C2 C7 115.4(6) . .
C2 C3 H3 118.4 . .
C4 C3 C2 123.2(7) . .
C4 C3 H3 118.4 . .
C3 C4 C4 120.8(8) . 5_557
C3 C4 C5 116.8(7) . .
C5 C4 C4 121.8(9) . 5_557
C4 C5 H5 119.1 . .
C6 C5 C4 121.9(7) . .
C6 C5 H5 119.1 . .
C1 C6 H6 119.6 . .
C5 C6 C1 120.8(7) . .
C5 C6 H6 119.6 . .
O2 C7 C2 118.6(6) . .
O3 C7 O2 123.2(7) . .
O3 C7 C2 118.2(7) . .
O4 C8 N1 115.0(11) . .
O5 C8 O4 124.7(13) . .
O5 C8 N1 120.3(12) . .
H11A C11 H11B 107.8 . .
H11C C11 H11D 109.5 . .
C10A C11 H11A 109.0 . .
C10A C11 H11B 109.0 . .
C10A C11 C12A 112.9(17) . .
C12A C11 H11A 109.0 . .
C12A C11 H11B 109.0 . .
C10B C11 H11C 111.8 . .
C10B C11 H11D 111.8 . .
C12B C11 H11C 111.8 . .
C12B C11 H11D 111.8 . .
C12B C11 C10B 100.0(16) . .
H14A C14 H14B 108.6 . .
H14C C14 H14D 107.8 . .
C9A C14 H14A 110.4 . .
C9A C14 H14B 110.4 . .
C9A C14 C13A 106.8(15) . .
C13A C14 H14A 110.4 . .
C13A C14 H14B 110.4 . .
C9B C14 H14C 109.0 . .
C9B C14 H14D 109.0 . .
C13B C14 H14C 109.0 . .
C13B C14 H14D 109.0 . .
C13B C14 C9B 112.9(19) . .
N1 C9A H9A 109.7 . .
C14 C9A N1 106.8(13) . .
C14 C9A H9A 109.7 . .
C10A C9A N1 109.8(14) . .
C10A C9A C14 111.2(15) . .
C10A C9A H9A 109.7 . .
N2 C10A H10A 110.4 . .
C11 C10A N2 110.6(15) . .
C11 C10A C9A 108.2(15) . .
C11 C10A H10A 110.4 . .
C9A C10A N2 106.6(15) . .
C9A C10A H10A 110.4 . .
C11 C12A H12A 110.6 . .
C11 C12A H12B 110.6 . .
C11 C12A C13A 105.9(19) . .
H12A C12A H12B 108.7 . .
C13A C12A H12A 110.6 . .
C13A C12A H12B 110.6 . .
C14 C13A H13A 109.3 . .
C14 C13A H13B 109.3 . .
C12A C13A C14 112(2) . .
C12A C13A H13A 109.3 . .
C12A C13A H13B 109.3 . .
H13A C13A H13B 108.0 . .
N1 C9B C14 109.8(13) . .
N1 C9B H9B 112.8 . .
N1 C9B C10B 105.6(15) . .
C14 C9B H9B 112.8 . .
C10B C9B C14 102.2(16) . .
C10B C9B H9B 112.8 . .
N2 C10B H10B 111.8 . .
C11 C10B N2 103.0(13) . .
C11 C10B H10B 111.8 . .
C9B C10B N2 108.1(14) . .
C9B C10B C11 109.8(15) . .
C9B C10B H10B 111.8 . .
C11 C12B H12C 109.3 . .
C11 C12B H12D 109.3 . .
H12C C12B H12D 107.9 . .
C13B C12B C11 112(2) . .
C13B C12B H12C 109.3 . .
C13B C12B H12D 109.3 . .
C14 C13B H13C 111.0 . .
C14 C13B H13D 111.0 . .
C12B C13B C14 103.9(19) . .
C12B C13B H13C 111.0 . .
C12B C13B H13D 111.0 . .
H13C C13B H13D 109.0 . .
loop_
_geom_bond_atom_site_label_1
_geom_bond_atom_site_label_2
_geom_bond_distance
_geom_bond_site_symmetry_2
Zn1 O1 2.061(5) 3_664
Zn1 O1 2.074(5) 1_554
Zn1 O2 2.091(5) 3_664
Zn1 O2 2.218(5) 2_654
Zn1 O3 2.038(5) .
Zn1 O4 2.063(7) .
O1 C1 1.331(9) .
O2 C7 1.259(9) .
O3 C7 1.254(9) .
O4 C8 1.233(13) .
O5 C8 1.217(14) .
N1 H1B 0.8800 .
N1 H1A 0.8800 .
N1 C8 1.390(16) .
N1 C9A 1.58(2) .
N1 C9B 1.51(2) .
N2 H2BD 0.9100 .
N2 H2BE 0.9100 .
N2 H2BF 0.9100 .
N2 H2AA 0.9100 .
N2 H2AB 0.9100 .
N2 H2AC 0.9100 .
N2 C10A 1.52(2) .
N2 C10B 1.59(3) .
C1 C2 1.404(9) .
C1 C6 1.418(10) .
C2 C3 1.408(10) .
C2 C7 1.501(10) .
C3 H3 0.9500 .
C3 C4 1.381(11) .
C4 C4 1.475(14) 5_557
C4 C5 1.398(11) .
C5 H5 0.9500 .
C5 C6 1.395(11) .
C6 H6 0.9500 .
C11 H11A 0.9900 .
C11 H11B 0.9900 .
C11 H11C 0.9900 .
C11 H11D 0.9900 .
C11 C10A 1.489(17) .
C11 C12A 1.545(18) .
C11 C10B 1.577(17) .
C11 C12B 1.548(18) .
C14 H14A 0.9900 .
C14 H14B 0.9900 .
C14 H14C 0.9900 .
C14 H14D 0.9900 .
C14 C9A 1.538(17) .
C14 C13A 1.558(19) .
C14 C9B 1.546(17) .
C14 C13B 1.527(19) .
C9A H9A 1.0000 .
C9A C10A 1.515(17) .
C10A H10A 1.0000 .
C12A H12A 0.9900 .
C12A H12B 0.9900 .
C12A C13A 1.55(2) .
C13A H13A 0.9900 .
C13A H13B 0.9900 .
C9B H9B 1.0000 .
C9B C10B 1.528(18) .
C10B H10B 1.0000 .
C12B H12C 0.9900 .
C12B H12D 0.9900 .
C12B C13B 1.526(19) .
C13B H13C 0.9900 .
C13B H13D 0.9900 .
loop_
_geom_hbond_atom_site_label_D
_geom_hbond_atom_site_label_H
_geom_hbond_atom_site_label_A
_geom_hbond_distance_DH
_geom_hbond_distance_HA
_geom_hbond_distance_DA
_geom_hbond_angle_DHA
_geom_hbond_site_symmetry_A
N1 H1B O2 0.88 2.45 3.327(13) 171.1 1_554
N2 H2BE O4 0.91 1.96 2.829(14) 158.8 1_554
N2 H2AA O3 0.91 2.34 3.048(12) 134.2 1_554
N2 H2AB O5 0.91 1.98 2.812(13) 151.8 5
N2 H2AC O5 0.91 2.27 3.110(16) 152.7 1_554
loop_
_geom_torsion_atom_site_label_1
_geom_torsion_atom_site_label_2
_geom_torsion_atom_site_label_3
_geom_torsion_atom_site_label_4
_geom_torsion
_geom_torsion_site_symmetry_1
_geom_torsion_site_symmetry_4
Zn1 O1 C1 C2 -22.3(10) 2_655 .
Zn1 O1 C1 C2 105.5(7) 1_556 .
Zn1 O1 C1 C6 159.8(5) 2_655 .
Zn1 O1 C1 C6 -72.4(8) 1_556 .
Zn1 O2 C7 O3 -145.9(6) 2_655 .
Zn1 O2 C7 O3 4.6(12) 3_665 .
Zn1 O2 C7 C2 34.9(9) 2_655 .
Zn1 O2 C7 C2 -174.6(5) 3_665 .
Zn1 O3 C7 O2 5.5(11) . .
Zn1 O3 C7 C2 -175.2(5) . .
Zn1 O4 C8 O5 174.8(11) . .
Zn1 O4 C8 N1 -5(2) . .
O1 C1 C2 C3 -178.3(7) . .
O1 C1 C2 C7 -6.3(12) . .
O1 C1 C6 C5 177.3(7) . .
N1 C9A C10A N2 62.0(18) . .
N1 C9A C10A C11 -179.0(15) . .
N1 C9B C10B N2 -65.3(17) . .
N1 C9B C10B C11 -176.9(14) . .
C1 C2 C3 C4 1.8(12) . .
C1 C2 C7 O2 0.2(11) . .
C1 C2 C7 O3 -179.1(7) . .
C2 C1 C6 C5 -0.7(11) . .
C2 C3 C4 C4 169.6(6) . 5_557
C2 C3 C4 C5 -2.0(12) . .
C3 C2 C7 O2 172.4(7) . .
C3 C2 C7 O3 -6.8(10) . .
C3 C4 C5 C6 0.8(12) . .
C4 C4 C5 C6 -170.7(6) 5_557 .
C4 C5 C6 C1 0.6(12) . .
C6 C1 C2 C3 -0.4(11) . .
C6 C1 C2 C7 171.6(7) . .
C7 C2 C3 C4 -170.9(7) . .
C8 N1 C9A C14 94.9(15) . .
C8 N1 C9A C10A -144.5(15) . .
C8 N1 C9B C14 41(2) . .
C8 N1 C9B C10B -68(2) . .
C11 C12A C13A C14 59(3) . .
C11 C12B C13B C14 -65(3) . .
C14 C9A C10A N2 179.9(14) . .
C14 C9A C10A C11 -61(2) . .
C14 C9B C10B N2 179.8(13) . .
C14 C9B C10B C11 68.2(18) . .
C9A N1 C8 O4 -157.9(11) . .
C9A N1 C8 O5 22.6(16) . .
C9A C14 C13A C12A -60(2) . .
C10A C11 C12A C13A -60(3) . .
C12A C11 C10A N2 178.0(17) . .
C12A C11 C10A C9A 62(2) . .
C13A C14 C9A N1 179.6(16) . .
C13A C14 C9A C10A 60(2) . .
C9B N1 C8 O4 -143.6(16) . .
C9B N1 C8 O5 37(2) . .
C9B C14 C13B C12B 62(3) . .
C10B C11 C12B C13B 68(2) . .
C12B C11 C10B N2 175.1(15) . .
C12B C11 C10B C9B -70(2) . .
C13B C14 C9B N1 -176.0(17) . .
C13B C14 C9B C10B -64(2) . .
loop_
_twin_individual_id
_twin_individual_mass_fraction_refined
1 0.59(3)
2 0.41(3)
