#------------------------------------------------------------------------------
#$Date: 2017-06-16 01:41:29 +0300 (Fri, 16 Jun 2017) $
#$Revision: 197856 $
#$URL: file:///home/coder/svn-repositories/cod/cif/4/12/62/4126222.cif $
#------------------------------------------------------------------------------
#
# This file is available in the Crystallography Open Database (COD),
# http://www.crystallography.net/
#
# All data on this site have been placed in the public domain by the
# contributors.
#
data_4126222
loop_
_publ_author_name
'Oburn, Shalisa M.'
'Swenson, Dale C.'
'Mariappan, S. V. Santhana'
'MacGillivray, Leonard R.'
_publ_section_title
;
 Supramolecular Construction of an Aldehyde-Cyclobutane via the Solid
 State: Combining Reversible Imine Formation and Metal-Organic
 Self-Assembly.
;
_journal_name_full               'Journal of the American Chemical Society'
_journal_paper_doi               10.1021/jacs.7b04420
_journal_year                    2017
_chemical_formula_moiety         'C14 H12 N2'
_chemical_formula_sum            'C14 H12 N2'
_chemical_formula_weight         208.26
_chemical_name_common            'cinnamaldehyde N-(4-pyridyl)imine'
_space_group_crystal_system      monoclinic
_space_group_IT_number           14
_space_group_name_Hall           '-P 2yn'
_space_group_name_H-M_alt        'P 1 21/n 1'
_symmetry_space_group_name_Hall  '-P 2yn'
_symmetry_space_group_name_H-M   'P 1 21/n 1'
_atom_sites_solution_hydrogens   geom
_atom_sites_solution_primary     direct
_cell_angle_alpha                90
_cell_angle_beta                 94.241(5)
_cell_angle_gamma                90
_cell_formula_units_Z            4
_cell_length_a                   6.7813(19)
_cell_length_b                   7.436(2)
_cell_length_c                   22.969(6)
_cell_measurement_reflns_used    16706
_cell_measurement_temperature    298
_cell_measurement_theta_max      27.89
_cell_measurement_theta_min      2.739
_cell_volume                     1155.1(5)
_computing_cell_refinement       'apexII (Bruker AXS, 2010)'
_computing_data_collection       'apexII (Bruker AXS, 2010)'
_computing_data_reduction        'apexII (Bruker AXS, 2010)'
_computing_molecular_graphics    'Olex2 (Dolomanov et al., 2009)'
_computing_publication_material  'Olex2 (Dolomanov et al., 2009)'
_computing_structure_refinement  'ShelXL (Sheldrick, 2015)'
_computing_structure_solution    'ShelXT (Sheldrick, 2015)'
_diffrn_ambient_temperature      298.15
_diffrn_measured_fraction_theta_full 0.999
_diffrn_measured_fraction_theta_max 0.943
_diffrn_measurement_device_type  'Bruker Nonius Apex II Kappa'
_diffrn_measurement_method       'CCD phi and omega scans'
_diffrn_radiation_type           MoK\a
_diffrn_radiation_wavelength     0.71073
_diffrn_reflns_av_R_equivalents  0.0212
_diffrn_reflns_av_unetI/netI     0.0155
_diffrn_reflns_Laue_measured_fraction_full 0.999
_diffrn_reflns_Laue_measured_fraction_max 0.943
_diffrn_reflns_limit_h_max       8
_diffrn_reflns_limit_h_min       -6
_diffrn_reflns_limit_k_max       9
_diffrn_reflns_limit_k_min       -9
_diffrn_reflns_limit_l_max       29
_diffrn_reflns_limit_l_min       -29
_diffrn_reflns_number            15994
_diffrn_reflns_point_group_measured_fraction_full 0.999
_diffrn_reflns_point_group_measured_fraction_max 0.943
_diffrn_reflns_theta_full        25.242
_diffrn_reflns_theta_max         27.795
_diffrn_reflns_theta_min         2.880
_exptl_absorpt_coefficient_mu    0.072
_exptl_absorpt_correction_type   multi-scan
_exptl_absorpt_process_details
;
SADABS-2014/5 (Bruker,2014/5) was used for absorption correction.
The Ratio of minimum to maximum transmission is 0.962.
;
_exptl_crystal_colour            yellow
_exptl_crystal_colour_primary    yellow
_exptl_crystal_density_diffrn    1.198
_exptl_crystal_description       plate
_exptl_crystal_F_000             440
_exptl_crystal_recrystallization_method Acetonitrile
_exptl_crystal_size_max          0.32
_exptl_crystal_size_mid          0.32
_exptl_crystal_size_min          0.07
_exptl_transmission_factor_max   0.900
_exptl_transmission_factor_min   0.862
_refine_diff_density_max         0.110
_refine_diff_density_min         -0.150
_refine_diff_density_rms         0.028
_refine_ls_extinction_method     none
_refine_ls_goodness_of_fit_ref   1.041
_refine_ls_hydrogen_treatment    constr
_refine_ls_matrix_type           full
_refine_ls_number_parameters     145
_refine_ls_number_reflns         2570
_refine_ls_number_restraints     0
_refine_ls_restrained_S_all      1.041
_refine_ls_R_factor_all          0.0615
_refine_ls_R_factor_gt           0.0410
_refine_ls_shift/su_max          0.001
_refine_ls_shift/su_mean         0.000
_refine_ls_structure_factor_coef Fsqd
_refine_ls_weighting_details
'w=1/[\s^2^(Fo^2^)+(0.0450P)^2^+0.1410P] where P=(Fo^2^+2Fc^2^)/3'
_refine_ls_weighting_scheme      calc
_refine_ls_wR_factor_gt          0.0984
_refine_ls_wR_factor_ref         0.1087
_reflns_Friedel_coverage         0.000
_reflns_number_gt                1859
_reflns_number_total             2570
_reflns_threshold_expression     'I > 2\s(I)'
_cod_data_source_file            ja7b04420_si_002.cif
_cod_data_source_block           cpi
_cod_database_code               4126222
_shelx_space_group_comment
;
The symmetry employed for this shelxl refinement is uniquely defined
by the following loop, which should always be used as a source of
symmetry information in preference to the above space-group names.
They are only intended as comments.
;
_shelx_estimated_absorpt_t_max   0.995
_shelx_estimated_absorpt_t_min   0.977
_olex2_refinement_description
;
1. Fixed Uiso
 At 1.2 times of:
  All C(H) groups
2.a Aromatic/amide H refined with riding coordinates:
 C005(H005), C006(H006), C007(H007), C008(H008), C009(H009), C00A(H00A),
 C00B(H00B), C00C(H00C), C00D(H00D), C00E(H00E), C00F(H00F), C00G(H00G)
;
_shelx_res_file
;
TITL mcg1526_a.res in P2(1)/n
    mcg1526.res
    created by SHELXL-2016/6 at 14:19:04 on 17-Feb-2017
REM Old TITL mcg1526 in P21/n #14
REM SHELXT solution in P2(1)/n
REM R1 0.161, Rweak 0.008, Alpha 0.019, Orientation as input
REM Formula found by SHELXT: C15 N
CELL 0.71073 6.7813 7.436 22.969 90 94.241 90
ZERR 4 0.0019 0.002 0.006 0 0.005 0
LATT 1
SYMM 0.5-X,0.5+Y,0.5-Z
SFAC C H N
UNIT 56 48 8

L.S. 4
PLAN  -20
SIZE 0.07 0.32 0.32
TEMP 25
BOND $H
LIST 4
MORE -1
CONF
fmap 2 53
acta
OMIT 0 0 2
OMIT 2 0 18
REM <olex2.extras>
REM <HklSrc "%.\\mcg1526.hkl">
REM </olex2.extras>

WGHT    0.045000    0.141000
FVAR       0.68155
N001  3    0.345020    0.712531    0.500679    11.00000    0.05986    0.07826 =
         0.05634   -0.00133    0.00184    0.01412
N002  3   -0.159292    0.878525    0.396642    11.00000    0.07666    0.07749 =
         0.06487    0.00207   -0.00828    0.01329
C003  1    0.766867    0.667257    0.680387    11.00000    0.05637    0.04877 =
         0.04754   -0.00045    0.00516   -0.00674
C004  1    0.172441    0.774237    0.468815    11.00000    0.05714    0.05030 =
         0.05043   -0.00447    0.00332    0.00573
C005  1    0.585302    0.709251    0.644675    11.00000    0.05656    0.05512 =
         0.05715   -0.00520    0.00746    0.00329
AFIX  43
H005  2    0.488917    0.771651    0.663209    11.00000   -1.20000
AFIX   0
C006  1    0.366453    0.730535    0.555828    11.00000    0.05497    0.05573 =
         0.05690   -0.00231    0.00630    0.00528
AFIX  43
H006  2    0.266470    0.784809    0.575187    11.00000   -1.20000
AFIX   0
C007  1    0.541838    0.668880    0.588990    11.00000    0.05466    0.06372 =
         0.05685   -0.00278    0.00519    0.00930
AFIX  43
H007  2    0.629623    0.596649    0.570302    11.00000   -1.20000
AFIX   0
C008  1    0.921485    0.569311    0.658999    11.00000    0.05927    0.06125 =
         0.04812   -0.00116    0.00495   -0.00189
AFIX  43
H008  2    0.907838    0.524430    0.621123    11.00000   -1.20000
AFIX   0
C009  1    0.792765    0.731062    0.737587    11.00000    0.07273    0.06710 =
         0.05585   -0.01280    0.00721   -0.00500
AFIX  43
H009  2    0.691738    0.795906    0.753099    11.00000   -1.20000
AFIX   0
C00A  1   -0.016709    0.737277    0.483465    11.00000    0.06064    0.07035 =
         0.05807    0.01010    0.00809    0.00574
AFIX  43
H00A  2   -0.037211    0.677496    0.518066    11.00000   -1.20000
AFIX   0
C00B  1    1.094118    0.537911    0.693033    11.00000    0.05359    0.07997 =
         0.06926    0.00335    0.00229    0.00031
AFIX  43
H00B  2    1.195892    0.472700    0.678057    11.00000   -1.20000
AFIX   0
C00C  1    0.191721    0.866458    0.417176    11.00000    0.06712    0.06766 =
         0.05851    0.00448    0.00559   -0.00836
AFIX  43
H00C  2    0.316234    0.894682    0.405336    11.00000   -1.20000
AFIX   0
C00D  1    1.115681    0.603511    0.749452    11.00000    0.06583    0.09271 =
         0.06971    0.00284   -0.01482   -0.01465
AFIX  43
H00D  2    1.232000    0.582512    0.772492    11.00000   -1.20000
AFIX   0
C00E  1    0.024377    0.915571    0.383740    11.00000    0.09352    0.06545 =
         0.05602    0.00989   -0.00125   -0.00111
AFIX  43
H00E  2    0.040502    0.979363    0.349591    11.00000   -1.20000
AFIX   0
C00F  1   -0.175130    0.789707    0.446380    11.00000    0.05748    0.08878 =
         0.07174    0.00417    0.00496    0.00623
AFIX  43
H00F  2   -0.301369    0.761198    0.456766    11.00000   -1.20000
AFIX   0
C00G  1    0.965349    0.699581    0.771399    11.00000    0.08566    0.08939 =
         0.05409   -0.01346   -0.00550   -0.01828
AFIX  43
H00G  2    0.980109    0.743719    0.809355    11.00000   -1.20000
AFIX   0
HKLF 4




REM  mcg1526_a.res in P2(1)/n
REM R1 =  0.0410 for    1859 Fo > 4sig(Fo)  and  0.0615 for all    2570 data
REM    145 parameters refined using      0 restraints

END

WGHT      0.0447      0.1410

REM Highest difference peak  0.110,  deepest hole -0.150,  1-sigma level  0.028
Q1    1   0.6755  0.6787  0.5598  11.00000  0.05    0.11
Q2    1  -0.0490  0.5943  0.5059  11.00000  0.05    0.10
Q3    1  -0.2476  0.9540  0.3812  11.00000  0.05    0.10
Q4    1   0.5346  0.8654  0.6546  11.00000  0.05    0.10
Q5    1   0.8735  0.6808  0.6600  11.00000  0.05    0.09
Q6    1  -0.3200  0.8643  0.4677  11.00000  0.05    0.09
Q7    1   0.6163  0.8414  0.7415  11.00000  0.05    0.09
Q8    1   0.7140  0.7264  0.6576  11.00000  0.05    0.08
Q9    1   0.4413  0.6840  0.4639  11.00000  0.05    0.08
Q10   1  -0.0834  0.9431  0.4017  11.00000  0.05    0.08
Q11   1  -0.0387  1.0567  0.3599  11.00000  0.05    0.08
Q12   1   0.9450  0.5681  0.6024  11.00000  0.05    0.07
Q13   1   0.6297  0.7363  0.7622  11.00000  0.05    0.07
Q14   1   0.3059  0.8705  0.5753  11.00000  0.05    0.07
Q15   1   1.0247  0.6202  0.6742  11.00000  0.05    0.07
Q16   1   0.6014  0.4738  0.5775  11.00000  0.05    0.07
Q17   1   0.8762  0.8106  0.8222  11.00000  0.05    0.07
Q18   1   0.3472  0.8115  0.3957  11.00000  0.05    0.07
Q19   1   0.8602  0.8886  0.8388  11.00000  0.05    0.07
Q20   1   0.7292  0.5159  0.7601  11.00000  0.05    0.07
;
_shelx_res_checksum              74570
_shelx_hkl_file
;
   1   0   0   -0.10    0.10
   1   0   0    0.10    0.10
   2   0   0    3.90    0.40
   2   0   0    4.60    0.30
   3   0   0   -0.50    0.20
   3   0   0    0.00    0.20
   3   0   0    0.00    0.10
   3   0   0   -0.10    0.10
   3   0   0   -0.10    0.20
   4   0   0   47.30    1.40
   4   0   0   47.80    0.80
   4   0   0   49.90    1.40
   4   0   0   47.90    1.50
   4   0   0   48.50    1.40
   5   0   0    0.40    0.50
   5   0   0    0.80    0.50
   5   0   0   -0.40    0.50
   5   0   0    0.00    0.40
   6   0   0   16.50    1.30
   6   0   0   17.60    1.10
   6   0   0   15.10    1.10
   6   0   0   15.30    1.10
   7   0   0    0.10    0.60
   7   0   0    0.40    0.60
   7   0   0    0.90    0.50
   8   0   0    1.20    0.70
   8   0   0    0.40    0.80
   0   1   0   -7.50    0.10
   1  -1   0    3.70    0.30
  -1  -1   0    3.70    0.20
   1  -1   0    3.70    0.30
  -1  -1   0    3.40    0.20
  -1  -1   0    3.70    0.30
   1  -1   0    3.70    0.30
  -1   1   0    4.60    0.30
  -1   1   0    4.10    0.20
   1   1   0    3.70    0.30
   1   1   0    3.30    0.20
  -1   1   0    3.60    0.30
   1   1   0    3.90    0.20
   2  -1   0  260.47    4.10
   2  -1   0  266.77    3.80
   2  -1   0  263.17    4.00
   2   1   0  271.87    3.60
   2   1   0  268.57    4.10
  -2   1   0  267.67    3.70
   2   1   0  271.17    3.60
   2   1   0  264.57    3.90
   3  -1   0    8.20    0.40
   3  -1   0    8.10    0.60
   3  -1   0    8.10    0.60
   3   1   0    8.60    0.50
   3   1   0    8.00    0.20
   3   1   0    8.10    0.20
   3   1   0    7.10    0.60
   3   1   0    7.80    0.50
   4  -1   0  134.49    2.20
   4  -1   0  131.79    2.80
   4  -1   0  134.29    2.70
   4   1   0  135.49    2.60
   4   1   0  135.09    2.70
   4   1   0  135.49    1.80
   4   1   0  136.09    2.60
   4   1   0  136.59    2.80
   5  -1   0   71.59    1.50
   5  -1   0   70.39    2.20
   5  -1   0   71.99    1.80
   5  -1   0   71.69    2.10
   5   1   0   72.39    2.00
   5   1   0   73.49    2.10
   5   1   0   72.79    2.00
   5   1   0   74.69    2.00
   6  -1   0   -0.80    0.60
   6  -1   0    1.60    0.60
   6  -1   0    0.30    0.50
   6   1   0    0.50    0.40
   6   1   0   -0.70    0.60
   6   1   0    0.40    0.50
   6   1   0   -0.60    0.40
   7  -1   0    7.30    1.00
   7  -1   0    7.70    1.00
   7  -1   0    6.80    1.10
   7   1   0    4.90    0.80
   7   1   0    6.20    0.90
   7   1   0    5.70    0.90
   7   1   0    5.30    0.80
   8  -1   0    4.70    1.10
   8  -1   0    3.80    0.90
   0  -2   0 5122.59   68.39
   0  -2   0 5091.29   69.59
   0  -2   0 5149.28   67.89
   0   2   0 5248.77   67.99
   0   2   0 5210.48   69.29
   0   2   0 5143.79   69.59
  -1  -2   0   40.50    0.80
  -1  -2   0   38.80    0.90
   1  -2   0   38.90    1.00
   1  -2   0   40.00    1.00
   1  -2   0   40.10    1.00
  -1  -2   0   39.60    0.90
   1   2   0   41.10    0.90
   1   2   0   38.80    1.10
  -1   2   0   39.90    1.00
  -1   2   0   39.80    1.00
   1   2   0   39.90    1.00
  -1   2   0   39.80    0.80
  -2  -2   0  166.38    2.50
  -2  -2   0  166.68    2.70
   2  -2   0  162.68    2.80
   2  -2   0  160.08    2.90
   2  -2   0  162.28    2.70
   2   2   0  164.98    2.60
   2   2   0  163.58    2.60
   2   2   0  162.28    2.90
  -2   2   0  164.78    2.40
  -2   2   0  161.48    2.70
  -2   2   0  158.58    2.80
   3  -2   0    1.20    0.30
   3  -2   0    1.00    0.30
   3  -2   0    1.10    0.30
   3   2   0    1.30    0.30
   3   2   0    1.40    0.40
   3   2   0    1.20    0.20
  -3   2   0    0.70    0.30
   3   2   0    0.70    0.20
   4  -2   0   10.00    0.80
   4  -2   0    8.60    0.70
   4  -2   0    7.90    0.60
   4   2   0    7.40    0.60
   4   2   0    9.20    0.80
   4   2   0    8.60    0.60
   4   2   0    8.20    0.40
   5  -2   0  183.38    3.90
   5  -2   0  171.58    3.60
   5  -2   0  172.18    3.10
   5   2   0  175.68    3.50
   5   2   0  169.08    3.70
   5   2   0  174.98    3.50
   5   2   0  175.98    3.40
   6  -2   0   46.70    1.40
   6  -2   0   46.60    2.00
   6  -2   0   47.60    1.90
   6   2   0   46.00    1.70
   6   2   0   45.60    1.90
   6   2   0   46.90    1.70
   6   2   0   48.10    1.70
   7  -2   0    3.40    0.80
   7  -2   0    3.30    0.90
   7   2   0    3.40    0.80
   8  -2   0    0.40    0.90
   8  -2   0    0.20    0.70
   8  -2   0    0.60    0.80
   0  -3   0    0.00    0.20
   0  -3   0   -0.10    0.20
   0  -3   0   -0.60    0.30
   0   3   0    0.10    0.20
   0   3   0    0.00    0.20
   0   3   0   -0.40    0.30
  -1  -3   0  343.47    5.10
  -1  -3   0  346.87    4.80
   1  -3   0  352.06    5.30
  -1  -3   0  341.37    5.20
   1  -3   0  351.86    5.20
   1  -3   0  340.67    5.30
  -1   3   0  337.97    5.30
   1   3   0  342.97    5.20
   1   3   0  341.87    5.00
   1   3   0  349.57    5.30
  -1   3   0  341.07    5.00
  -1   3   0  348.37    5.20
  -2  -3   0  161.28    2.90
  -2  -3   0  163.48    2.70
   2  -3   0  159.48    3.00
   2  -3   0  160.08    3.00
  -2  -3   0  164.38    2.50
   2  -3   0  159.28    3.00
  -2   3   0  154.98    3.00
   2   3   0  155.78    2.70
  -2   3   0  160.88    2.90
   2   3   0  162.38    3.10
  -2   3   0  161.58    2.50
   3  -3   0  210.48    4.00
  -3  -3   0  224.68    3.70
   3  -3   0  213.98    3.80
   3  -3   0  212.68    3.90
   3   3   0  211.18    3.50
   3   3   0  217.18    4.00
  -3   3   0  216.98    3.30
  -3   3   0  213.28    3.90
   3   3   0  212.58    3.60
  -3   3   0  220.68    3.70
   4  -3   0    2.20    0.60
   4  -3   0    3.50    0.50
   4  -3   0    4.30    0.60
   4   3   0    4.50    0.40
   4   3   0    4.80    0.60
   4   3   0    4.50    0.70
   5  -3   0    3.20    0.70
   5  -3   0    3.30    0.60
   5  -3   0    3.00    0.80
   5   3   0    1.50    0.50
   5   3   0    4.00    0.80
   5   3   0    1.70    0.40
   6  -3   0    0.80    0.70
   6  -3   0    0.20    0.50
   6  -3   0    0.20    0.50
   6   3   0    0.60    0.40
   6   3   0   -0.90    0.50
   7  -3   0    0.20    0.70
   7  -3   0    0.70    0.70
   7   3   0    1.30    0.80
   8  -3   0    2.00    1.00
   8   3   0    1.60    1.00
   0  -4   0  105.09    2.00
   0  -4   0  111.39    2.40
   0  -4   0  107.89    2.30
   0   4   0  107.79    2.20
   0   4   0  108.09    2.20
   0   4   0  105.19    2.40
   1  -4   0   42.90    1.30
   1  -4   0   44.10    1.40
   1  -4   0   42.50    1.50
  -1  -4   0   43.60    1.40
  -1  -4   0   43.90    1.40
  -1  -4   0   42.50    1.00
   1   4   0   44.60    1.40
   1   4   0   45.30    1.40
   1   4   0   44.30    1.30
  -1   4   0   43.20    1.40
  -1   4   0   44.30    1.50
  -1   4   0   43.70    1.20
  -2  -4   0    5.80    0.60
   2  -4   0    4.30    0.60
  -2  -4   0    4.60    0.50
   2  -4   0    4.50    0.60
  -2  -4   0    5.20    0.40
   2  -4   0    4.90    0.60
   2   4   0    4.00    0.60
   2   4   0    5.20    0.60
  -2   4   0    5.20    0.40
  -2   4   0    4.10    0.60
  -2   4   0    4.80    0.60
   2   4   0    5.10    0.50
   3  -4   0    0.40    0.50
   3  -4   0    0.00    0.30
   3  -4   0    0.70    0.40
  -3  -4   0    0.80    0.40
   3   4   0    0.40    0.40
   3   4   0    0.30    0.50
  -3   4   0    0.40    0.40
   3   4   0    0.00    0.30
  -3   4   0    0.50    0.40
   4  -4   0    7.40    0.90
   4  -4   0    7.10    0.80
   4  -4   0    5.70    0.70
   4   4   0    7.00    0.90
   4   4   0    7.90    0.70
  -4   4   0    5.40    0.70
   4   4   0    7.00    0.70
   5  -4   0   33.60    1.70
   5  -4   0   33.40    1.50
   5  -4   0   34.10    1.80
   5   4   0   33.40    1.20
   5   4   0   34.60    1.80
   6  -4   0    0.30    0.70
   6  -4   0    0.40    0.70
   6  -4   0    0.20    0.50
   6   4   0    1.60    0.80
   7  -4   0    0.70    0.80
   7  -4   0    1.20    0.60
   7  -4   0    2.10    0.90
   7   4   0    1.80    1.00
   0  -5   0    0.30    0.40
   0  -5   0    0.00    0.40
   0  -5   0    0.80    0.40
   0   5   0   -0.60    0.40
   0   5   0   -0.40    0.30
   0   5   0    0.80    0.40
  -1  -5   0    7.00    0.70
   1  -5   0    7.60    0.70
   1  -5   0    7.90    0.80
  -1  -5   0    6.90    0.50
   1  -5   0    7.90    0.80
  -1  -5   0    7.00    0.70
   1   5   0    8.30    0.80
  -1   5   0    7.70    0.70
   1   5   0    7.40    0.70
  -1   5   0    9.90    0.90
  -1   5   0    7.80    0.80
   1   5   0    7.30    0.80
   2  -5   0   12.20    1.00
  -2  -5   0   10.40    0.80
  -2  -5   0   12.00    0.90
   2  -5   0   13.10    0.90
   2  -5   0   11.60    1.00
  -2   5   0   10.20    0.70
   2   5   0   12.30    1.00
  -2   5   0   12.30    0.90
   2   5   0   11.00    0.90
   2   5   0   11.00    0.80
  -2   5   0   10.40    0.80
  -3  -5   0   45.90    1.60
   3  -5   0   44.00    1.70
   3  -5   0   51.59    1.80
   3  -5   0   45.70    1.80
  -3   5   0   51.29    1.90
  -3   5   0   46.00    1.70
   3   5   0   46.90    1.60
   3   5   0   48.70    1.50
   3   5   0   49.50    1.90
  -4  -5   0    1.80    0.60
   4  -5   0    2.40    0.70
   4  -5   0    3.30    0.80
   4  -5   0    3.70    0.70
  -4   5   0    2.40    0.70
   4   5   0    4.10    0.80
   4   5   0    3.20    0.60
   5  -5   0   12.20    1.30
   5  -5   0   12.70    1.10
   5  -5   0   13.00    1.30
   5   5   0   14.80    1.40
   5   5   0   13.40    1.00
   6  -5   0    2.60    0.90
   6  -5   0    2.40    0.90
   6  -5   0    2.60    0.70
   6   5   0    0.80    0.80
   7  -5   0    0.00    0.80
   7  -5   0   -0.80    0.80
   7   5   0   -0.60    0.80
   0  -6   0   52.49    1.90
   0  -6   0   51.59    1.90
   0   6   0   50.79    1.80
   0   6   0   49.80    1.70
   0   6   0   51.29    1.90
   1  -6   0    1.00    0.40
  -1  -6   0    1.10    0.50
   1  -6   0    1.60    0.60
  -1  -6   0    1.20    0.50
   1  -6   0    1.20    0.60
   1   6   0    0.20    0.50
  -1   6   0    1.30    0.60
  -1   6   0    1.70    0.60
   1   6   0    0.90    0.60
   1   6   0    1.40    0.50
  -1   6   0    0.70    0.40
   2  -6   0    8.80    0.90
   2  -6   0    5.90    0.90
  -2  -6   0    9.50    1.00
   2  -6   0    6.40    0.90
  -2   6   0    8.20    0.90
   2   6   0    6.20    0.80
  -2   6   0    8.10    0.90
   2   6   0    8.20    1.00
   2   6   0    7.10    0.80
   3  -6   0    5.50    0.90
   3  -6   0    5.90    0.90
   3  -6   0    6.50    0.90
  -3  -6   0    6.10    0.80
   3   6   0    7.40    1.00
   3   6   0    5.90    0.80
  -3   6   0    5.80    0.90
  -4  -6   0   13.80    1.20
   4  -6   0   11.60    1.20
   4  -6   0   16.40    1.40
   4  -6   0   14.60    1.30
  -4   6   0   14.80    1.40
   4   6   0   14.50    1.30
   4   6   0   14.60    1.40
   5  -6   0    9.90    1.30
   5  -6   0    7.40    1.00
   5  -6   0    8.40    1.30
   5   6   0    7.10    1.20
   5   6   0    8.90    1.00
   6  -6   0    2.00    1.00
   6  -6   0    2.60    1.10
   6  -6   0    2.20    0.90
   6   6   0    1.60    1.00
   0  -7   0   -0.10    0.60
   0  -7   0   -0.90    0.50
   0   7   0    0.00    0.50
   0   7   0    0.00    0.60
   0   7   0    0.70    0.50
  -1  -7   0    1.20    0.60
  -1  -7   0    1.00    0.70
   1  -7   0    0.70    0.60
   1  -7   0    0.60    0.70
   1   7   0    1.00    0.60
   1   7   0    1.40    0.70
  -1   7   0    1.70    0.60
  -1   7   0    0.20    0.70
   1   7   0    0.80    0.60
   2  -7   0    2.20    0.70
   2  -7   0    2.20    0.80
   2  -7   0    1.00    0.80
  -2  -7   0    1.60    0.70
   2   7   0    3.30    0.80
  -2   7   0    2.60    0.80
   2   7   0    1.30    0.70
   2   7   0    1.50    0.60
  -2   7   0    2.50    0.80
  -3  -7   0    8.60    1.10
   3  -7   0    6.40    1.10
   3  -7   0    6.40    1.00
   3  -7   0    9.30    1.20
  -3   7   0    9.40    1.20
   3   7   0    5.30    1.10
   3   7   0    7.70    1.20
  -4  -7   0    3.50    0.80
   4  -7   0    2.30    1.00
   4  -7   0    3.90    0.90
   4  -7   0    4.50    1.00
  -4   7   0    3.70    1.00
   4   7   0    1.80    0.90
   4   7   0    3.90    0.80
   5  -7   0    0.50    0.80
   5  -7   0    0.90    0.90
   5  -7   0    0.40    0.90
   5   7   0    1.90    1.00
   5   7   0    0.10    0.60
   0  -8   0    0.40    0.80
   0  -8   0   -1.00    0.60
   0   8   0    0.50    0.70
   0   8   0    0.30    0.80
   1  -8   0   -0.10    0.50
   1  -8   0    0.00    0.70
  -1  -8   0   -0.60    0.60
   1   8   0    0.50    0.70
  -1   8   0    0.70    0.90
   1   8   0    0.60    0.70
  -1   8   0    1.50    0.80
   1   8   0    0.50    0.70
   2  -8   0    4.30    1.10
  -2  -8   0    3.90    1.00
   2  -8   0    4.40    1.00
   2   8   0    3.90    1.00
   2   8   0    1.80    0.90
  -2   8   0    2.70    1.00
  -2   8   0    2.30    1.00
   3  -8   0    2.20    0.90
   3  -8   0    3.20    1.10
  -3  -8   0    1.40    0.80
  -3   8   0    3.50    1.10
   3   8   0    1.80    0.90
   3   8   0    2.50    1.00
   4  -8   0    0.40    1.00
   4  -8   0    0.50    0.90
   4   8   0    1.10    0.90
  -4   8   0   -0.50    0.90
   4   8   0    0.60    0.80
   0  -9   0   -0.90    0.50
   0   9   0    0.20    0.90
  -1  -9   0   -0.10    0.80
   1  -9   0    1.80    1.00
   1  -9   0    0.50    0.90
   1   9   0    2.00    1.00
  -1   9   0    2.70    1.10
  -1   9   0    2.90    1.00
   2  -9   0    0.10    0.90
  -2  -9   0    0.10    0.80
   2   9   0    0.40    0.90
  -2   9   0    1.00    1.00
   8   0  -1   -0.50    0.70
   7   0  -1   13.30    1.20
   7   0  -1   13.70    1.10
   7   0  -1   14.10    1.30
   6   0  -1   -0.80    0.40
   6   0  -1   -0.30    0.50
   6   0  -1    0.00    0.70
   6   0  -1   -0.60    0.50
   5   0  -1   10.40    0.90
   5   0  -1    9.90    0.80
   5   0  -1    9.70    0.90
   5   0  -1   10.00    0.80
   4   0  -1    0.40    0.30
   4   0  -1    0.20    0.10
   4   0  -1    0.00    0.10
   4   0  -1   -0.40    0.20
   4   0  -1    0.20    0.30
   3   0  -1    0.60    0.20
   3   0  -1    0.50    0.10
   3   0  -1    1.20    0.30
   3   0  -1    0.70    0.10
   3   0  -1    0.60    0.30
   2   0  -1    0.00    0.20
   2   0  -1    0.00    0.10
   2   0  -1    0.00    0.10
   2   0  -1   -0.30    0.20
   1   0  -1    0.60    0.10
   0   0  -1    0.00    0.10
   0   0   1    0.00    0.10
   0   0  -1    0.00    0.10
   0   0   1    0.00    0.10
   0   0  -1    0.00    0.10
   0   0   1    0.00    0.10
   2   0   1   -0.10    0.10
   2   0   1   -0.10    0.10
   2   0   1   -0.40    0.20
   2   0   1   -0.10    0.10
   3   0   1   59.09    0.90
   3   0   1   60.19    0.90
   3   0   1   60.89    1.50
   3   0   1   59.89    1.40
   3   0   1   58.49    1.40
   4   0   1    0.20    0.30
   4   0   1   -0.20    0.30
   4   0   1   -0.20    0.10
   4   0   1    0.50    0.30
   4   0   1   -0.10    0.10
   4   0   1   -0.10    0.20
   5   0   1  529.15    8.20
   5   0   1  526.25    8.00
   5   0   1  524.55    8.10
   5   0   1  521.05    8.00
   6   0   1   -1.30    0.40
   6   0   1   -0.40    0.50
   6   0   1   -0.10    0.50
   6   0   1    0.60    0.50
   7   0   1    3.00    0.80
   7   0   1    1.20    0.60
   7   0   1    1.30    0.60
   8   0   1   -0.70    0.60
   8   0   1   -0.40    0.90
   8  -1  -1    1.30    0.80
   8  -1  -1    1.00    0.80
   8  -1  -1    1.60    0.80
   7  -1  -1    1.70    0.70
   7  -1  -1    1.40    0.60
   7  -1  -1    1.30    0.70
   7   1  -1    1.00    0.60
   7   1  -1    1.60    0.60
   7   1  -1    0.80    0.60
   6  -1  -1   33.00    1.60
   6  -1  -1   30.00    1.70
   6   1  -1   31.10    1.40
   6   1  -1   31.60    1.50
   6   1  -1   30.30    1.50
   6   1  -1   32.50    1.60
   5  -1  -1  109.59    2.00
   5  -1  -1  105.49    2.70
   5  -1  -1  109.39    2.30
   5  -1  -1  107.09    2.60
   5   1  -1  108.19    2.60
   5   1  -1  110.99    2.60
   5   1  -1  107.59    2.50
   5   1  -1  111.19    2.50
   4  -1  -1    6.80    0.40
   4  -1  -1    7.50    0.70
   4  -1  -1    6.20    0.50
   4  -1  -1    6.20    0.60
   4   1  -1    7.30    0.60
   4   1  -1    6.80    0.20
   4   1  -1    6.50    0.50
   4   1  -1    6.50    0.60
   4   1  -1    6.40    0.20
   4   1  -1    6.70    0.60
   3  -1  -1   49.20    1.00
   3  -1  -1   48.90    1.30
   3  -1  -1   50.39    1.40
   3   1  -1   50.49    1.20
   3   1  -1   49.50    0.80
   3   1  -1   49.20    1.30
   3   1  -1   50.49    0.80
   2  -1  -1  325.47    4.90
   2  -1  -1  324.07    4.80
   2  -1  -1  321.87    4.60
   2   1  -1  324.97    4.40
  -2   1   1  333.27    4.50
   2   1  -1  329.37    4.40
   2   1  -1  329.67    4.50
   2   1  -1  321.27    4.80
  -2   1   1  329.67    4.70
  -1  -1   1  148.69    2.10
  -1  -1   1  148.29    2.20
   1  -1  -1  145.49    2.20
  -1  -1   1  145.49    2.10
   1  -1  -1  145.59    2.30
   1  -1  -1  147.39    2.30
   1   1  -1  144.99    2.10
  -1   1   1  143.79    2.20
  -1   1   1  147.39    2.20
   1   1  -1  141.39    2.30
  -1   1   1  147.49    2.00
   1   1  -1  144.09    2.10
   0  -1  -1    2.30    0.20
   0  -1  -1    2.60    0.30
   0  -1   1    2.40    0.30
   0  -1  -1    2.80    0.20
   0  -1   1    2.50    0.20
   0   1   1    1.70    0.20
   0   1   1    2.40    0.20
   0   1  -1    1.20    0.20
   0   1  -1    2.40    0.20
   1  -1   1   34.60    0.80
  -1  -1  -1   34.40    0.70
   1  -1   1   34.60    0.80
   1  -1   1   35.20    0.80
  -1  -1  -1   35.20    0.70
   1   1   1   32.30    0.80
   1   1   1   33.90    0.70
  -1   1  -1   34.90    0.70
  -1   1  -1   35.90    0.80
   1   1   1   35.10    0.80
  -1   1  -1   33.90    0.70
   2  -1   1    0.60    0.20
   2  -1   1    0.60    0.30
   2  -1   1    0.80    0.30
   2   1   1    0.30    0.30
   2   1   1    0.80    0.20
  -2   1  -1    0.70    0.20
   2   1   1    0.70    0.10
  -2   1  -1    0.80    0.20
   2   1   1    0.90    0.20
   2   1   1    0.70    0.10
   3  -1   1    1.00    0.20
   3  -1   1    0.80    0.20
   3  -1   1    1.00    0.40
   3   1   1    0.70    0.20
   3   1   1    0.70    0.10
   3   1   1    1.00    0.10
   3   1   1    0.60    0.30
   3   1   1    1.10    0.30
   3   1   1    0.50    0.20
   4  -1   1   36.40    1.20
   4  -1   1   36.00    1.30
   4  -1   1   36.70    0.90
   4   1   1   36.60    1.20
   4   1   1   36.00    1.20
   4   1   1   36.40    1.30
   4   1   1   37.10    1.20
   4   1   1   36.40    0.60
   4   1   1   35.10    0.60
   5  -1   1   92.29    2.20
   5  -1   1   93.39    2.30
   5  -1   1   90.99    2.40
   5  -1   1   88.69    1.70
   5   1   1   91.59    2.20
   5   1   1   88.89    2.30
   5   1   1   90.49    2.40
   5   1   1   90.09    2.30
   6  -1   1    8.50    0.90
   6  -1   1    8.60    1.00
   6  -1   1    6.00    1.00
   6   1   1    7.20    0.90
   6   1   1    8.30    0.90
   6   1   1    7.90    0.90
   6   1   1    9.40    0.90
   7  -1   1    1.70    0.70
   7  -1   1    4.10    0.80
   7  -1   1    6.20    1.00
   7   1   1    5.30    0.80
   7   1   1    5.60    0.80
   7   1   1    4.70    0.80
   8  -1   1    0.90    0.70
   8  -1   1    1.20    0.90
   8  -2  -1    1.90    0.90
   8  -2  -1    0.40    0.90
   8  -2  -1    0.60    0.70
   7  -2  -1    2.40    0.90
   7  -2  -1    0.20    0.60
   7   2  -1    1.10    0.70
   7   2  -1    1.20    0.60
   6  -2  -1    0.50    0.40
   6  -2  -1    1.00    0.70
   6  -2  -1    0.20    0.60
   6   2  -1    0.70    0.50
   6   2  -1    1.40    0.60
   6   2  -1    1.00    0.50
   6   2  -1    0.80    0.60
   5  -2  -1   25.90    1.00
   5  -2  -1   25.30    1.40
   5  -2  -1   30.40    1.60
   5   2  -1   27.10    1.30
   5   2  -1   27.60    1.20
   5   2  -1   26.10    1.40
   5   2  -1   26.10    1.20
   4  -2  -1   22.30    0.90
   4  -2  -1   21.70    1.10
   4  -2  -1   22.40    1.10
   4   2  -1   21.40    0.90
   4   2  -1   22.70    0.60
   4   2  -1   24.20    1.10
   3  -2  -1    1.30    0.40
   3  -2  -1    1.10    0.40
   3  -2  -1    1.00    0.30
   3   2  -1    0.60    0.20
   3   2  -1    0.90    0.40
  -3   2   1    0.70    0.30
  -3   2   1    0.90    0.40
   3   2  -1    1.60    0.30
  -2  -2   1   15.80    0.50
   2  -2  -1   15.00    0.70
   2  -2  -1   15.10    0.70
  -2  -2   1   14.80    0.50
   2  -2  -1   14.00    0.70
  -2  -2   1   14.40    0.70
  -2   2   1   15.10    0.70
   2   2  -1   14.10    0.50
   2   2  -1   15.50    0.80
   2   2  -1   14.90    0.60
  -2   2   1   15.20    0.60
  -2   2   1   14.90    0.40
   1  -2  -1 1509.75   21.00
  -1  -2   1 1534.75   21.10
  -1  -2   1 1529.95   21.10
  -1  -2   1 1527.45   21.10
   1  -2  -1 1531.45   21.10
   1  -2  -1 1524.05   19.80
   1   2  -1 1527.95   20.50
   1   2  -1 1491.85   21.30
  -1   2   1 1501.85   20.80
  -1   2   1 1489.15   20.30
   1   2  -1 1511.45   21.10
  -1   2   1 1497.25   20.80
   0  -2   1 5287.67   70.79
   0  -2  -1 5275.97   71.99
   0  -2  -1 5305.27   70.59
   0  -2   1 5391.06   72.09
   0  -2   1 5355.06   70.89
   0   2  -1 5303.37   71.29
   0   2  -1 5327.47   71.89
   0   2   1 5386.66   71.49
   0   2   1 5466.35   72.09
   0   2   1 5345.67   70.69
   0   2  -1 5510.95   70.49
   1  -2   1   31.70    0.90
  -1  -2  -1   33.20    0.80
  -1  -2  -1   33.90    0.80
   1  -2   1   33.10    0.90
  -1  -2  -1   33.50    0.60
   1  -2   1   32.10    0.90
  -1   2  -1   33.60    0.90
  -1   2  -1   32.70    0.90
   1   2   1   31.60    0.90
   1   2   1   32.60    0.90
  -1   2  -1   33.30    0.80
   1   2   1   32.80    0.90
  -2  -2  -1    6.40    0.40
   2  -2   1    6.80    0.50
   2  -2   1    6.40    0.50
   2  -2   1    6.00    0.50
  -2  -2  -1    5.60    0.30
   2   2   1    6.20    0.40
   2   2   1    6.60    0.40
  -2   2  -1    6.30    0.40
  -2   2  -1    6.10    0.50
  -2   2  -1    6.50    0.40
   2   2   1    6.10    0.60
   3  -2   1    6.60    0.60
   3  -2   1    7.00    0.70
   3  -2   1    7.60    0.60
   3   2   1    6.10    0.40
   3   2   1    7.20    0.40
   3   2   1    6.80    0.70
  -3   2  -1    6.50    0.40
  -3   2  -1    7.30    0.40
   3   2   1    6.40    0.50
   4  -2   1    1.80    0.40
   4  -2   1    2.40    0.60
   4  -2   1    2.20    0.50
   4   2   1    2.70    0.50
   4   2   1    2.00    0.50
   4   2   1    1.60    0.30
   4   2   1    2.10    0.40
   5  -2   1  152.38    3.50
   5  -2   1  153.28    2.80
   5  -2   1  152.48    3.30
   5   2   1  154.08    3.20
   5   2   1  147.09    3.10
   5   2   1  154.38    3.50
   5   2   1  156.18    3.10
   6  -2   1    8.40    1.10
   6  -2   1    7.60    0.70
   6  -2   1    8.00    1.00
   6   2   1    7.50    0.80
   6   2   1    8.80    1.10
   6   2   1    7.70    0.90
   7  -2   1    0.70    0.60
   7  -2   1    0.50    0.60
   7  -2   1    0.00    0.70
   7   2   1   -0.40    0.60
   8  -2   1    0.70    0.80
   8  -2   1   -0.30    0.90
   8  -3  -1    1.00    0.90
   8   3  -1    0.80    0.90
   7  -3  -1    0.20    0.80
   7  -3  -1    2.30    0.80
   7   3  -1    2.10    0.90
   6  -3  -1    5.00    0.70
   6  -3  -1    5.40    1.00
   6  -3  -1    5.50    1.00
   6   3  -1    6.80    1.00
   6   3  -1    4.00    0.70
   5  -3  -1  229.68    4.10
   5  -3  -1  226.68    4.60
   5  -3  -1  222.48    4.70
   5   3  -1  224.28    4.60
   5   3  -1  220.48    4.00
   5   3  -1  221.58    3.60
   4  -3  -1   48.00    1.70
   4  -3  -1   48.40    1.70
   4  -3  -1   47.90    1.50
   4   3  -1   47.90    1.20
   4   3  -1   49.10    1.70
   4   3  -1   49.00    1.40
   3  -3  -1    0.40    0.30
   3  -3  -1    0.50    0.40
  -3  -3   1    0.70    0.30
   3  -3  -1    0.60    0.40
   3   3  -1    0.60    0.30
  -3   3   1    0.20    0.30
   3   3  -1    0.30    0.30
   3   3  -1    0.40    0.30
  -3   3   1    1.00    0.40
  -3   3   1    0.80    0.20
   2  -3  -1   56.89    1.50
   2  -3  -1   58.49    1.50
  -2  -3   1   58.99    1.50
  -2  -3   1   58.19    1.30
   2  -3  -1   57.59    1.60
  -2  -3   1   59.59    1.20
  -2   3   1   56.79    1.10
  -2   3   1   55.59    1.50
   2   3  -1   58.59    1.30
   2   3  -1   58.29    1.60
   2   3  -1   57.09    1.40
  -2   3   1   54.89    1.50
   1  -3  -1  324.57    5.10
   1  -3  -1  324.37    5.00
   1  -3  -1  333.77    5.00
  -1  -3   1  334.47    4.70
  -1  -3   1  335.47    5.00
  -1  -3   1  330.27    5.00
   1   3  -1  335.07    5.10
   1   3  -1  325.27    5.10
  -1   3   1  330.37    5.00
   1   3  -1  335.17    4.80
  -1   3   1  327.67    5.10
  -1   3   1  327.07    4.70
   0  -3   1    0.70    0.30
   0  -3  -1    1.00    0.30
   0  -3   1    1.00    0.30
   0  -3  -1    1.30    0.20
   0  -3  -1    0.60    0.30
   0  -3   1    0.90    0.20
   0   3  -1    0.50    0.30
   0   3  -1    0.90    0.30
   0   3   1    0.80    0.30
   0   3   1    0.90    0.30
   0   3  -1    2.20    0.30
  -1  -3  -1    8.80    0.60
  -1  -3  -1    9.50    0.40
   1  -3   1    7.90    0.60
   1  -3   1    8.30    0.60
   1  -3   1    9.40    0.60
  -1  -3  -1   10.00    0.60
  -1   3  -1   10.00    0.60
   1   3   1    9.50    0.60
   1   3   1   12.00    0.60
  -1   3  -1    8.70    0.60
   1   3   1    9.50    0.60
  -1   3  -1    9.90    0.50
   2  -3   1  169.18    3.10
   2  -3   1  163.88    3.00
  -2  -3  -1  164.58    2.90
   2  -3   1  163.98    3.10
  -2  -3  -1  164.48    2.80
   2   3   1  162.28    2.90
   2   3   1  166.58    3.20
  -2   3  -1  166.08    3.00
  -2   3  -1  162.78    3.00
  -2   3  -1  163.88    2.70
   2   3   1  162.08    2.90
   3  -3   1   34.00    1.30
   3  -3   1   36.10    1.20
   3  -3   1   35.00    1.30
  -3  -3  -1   33.80    1.20
   3   3   1   35.30    1.10
  -3   3  -1   37.00    1.20
   3   3   1   36.50    1.20
   3   3   1   36.30    1.40
  -3   3  -1   34.60    0.90
  -3   3  -1   34.20    1.30
   4  -3   1    5.70    0.80
   4  -3   1    4.20    0.50
   4  -3   1    4.90    0.70
   4   3   1    6.30    0.80
   4   3   1    4.50    0.50
   4   3   1    4.70    0.50
   5  -3   1    1.10    0.70
   5  -3   1    1.40    0.60
   5  -3   1    1.50    0.50
   5   3   1    0.10    0.40
   5   3   1    1.10    0.30
   5   3   1    0.80    0.60
   6  -3   1    2.80    0.60
   6  -3   1    1.90    0.80
   6  -3   1    2.20    0.70
   6   3   1    2.40    0.60
   6   3   1    4.00    0.90
   7  -3   1   -0.50    0.50
   7  -3   1   -0.40    0.60
   7   3   1    0.50    0.70
   8  -3   1    1.40    1.10
   8  -3   1    0.80    0.80
   8   3   1   -0.10    0.90
   7  -4  -1    0.10    0.50
   7  -4  -1    0.50    0.80
   7  -4  -1    0.80    0.80
   7   4  -1    0.00    0.80
   6  -4  -1    0.10    0.60
   6  -4  -1    0.60    0.70
   6  -4  -1    0.40    0.50
   6   4  -1    1.60    0.80
   5  -4  -1   18.20    1.40
   5  -4  -1   15.10    1.10
   5  -4  -1   14.70    1.30
   5   4  -1   13.30    1.30
   5   4  -1   13.40    0.80
   4  -4  -1    4.10    0.70
   4  -4  -1    3.30    0.70
   4  -4  -1    3.40    0.60
   4   4  -1    3.50    0.50
   4   4  -1    4.00    0.50
   4   4  -1    3.50    0.70
  -4   4   1    3.30    0.70
  -3  -4   1   42.50    1.40
   3  -4  -1   41.60    1.50
   3  -4  -1   41.50    1.60
   3  -4  -1   38.90    1.50
  -3   4   1   41.00    1.40
   3   4  -1   42.20    1.60
   3   4  -1   39.60    1.20
  -3   4   1   39.30    1.50
   3   4  -1   42.50    1.40
  -2  -4   1   18.50    0.90
  -2  -4   1   17.10    0.70
  -2  -4   1   17.40    0.90
   2  -4  -1   20.10    1.00
   2  -4  -1   17.60    1.00
   2  -4  -1   16.50    0.90
   2   4  -1   17.60    1.00
  -2   4   1   18.70    0.70
  -2   4   1   16.60    1.00
   2   4  -1   17.90    0.90
   2   4  -1   18.20    0.80
  -2   4   1   17.90    1.00
  -1  -4   1   30.60    1.20
  -1  -4   1   26.90    1.10
   1  -4  -1   30.20    1.10
   1  -4  -1   30.10    1.20
   1  -4  -1   28.30    1.20
  -1  -4   1   29.30    0.90
   1   4  -1   31.60    1.20
  -1   4   1   29.10    1.10
  -1   4   1   30.00    1.00
   1   4  -1   28.70    1.00
   1   4  -1   30.20    1.20
  -1   4   1   30.10    1.20
   0  -4  -1   24.60    0.80
   0  -4   1   25.00    0.90
   0  -4   1   24.10    1.10
   0  -4   1   25.00    1.00
   0  -4  -1   25.00    1.10
   0  -4  -1   26.60    1.10
   0   4  -1   26.10    1.10
   0   4   1   24.60    1.00
   0   4   1   25.60    1.00
   0   4  -1   25.20    1.00
   0   4   1   21.70    1.00
   0   4  -1   24.30    1.00
  -1  -4  -1   -0.20    0.30
   1  -4   1    0.40    0.30
  -1  -4  -1    0.30    0.20
   1  -4   1    0.00    0.40
   1  -4   1    0.20    0.40
  -1  -4  -1    0.10    0.30
  -1   4  -1    0.40    0.30
   1   4   1   -0.10    0.30
   1   4   1    0.10    0.30
  -1   4  -1   -0.30    0.40
  -1   4  -1    0.90    0.40
  -2  -4  -1   48.90    1.40
   2  -4   1   48.90    1.50
   2  -4   1   47.60    1.50
  -2  -4  -1   49.00    1.40
   2  -4   1   47.50    1.60
  -2  -4  -1   49.30    1.00
  -2   4  -1   49.50    1.50
   2   4   1   49.20    1.40
  -2   4  -1   50.29    1.60
   2   4   1   49.30    1.60
  -2   4  -1   49.30    1.20
   3  -4   1   87.19    2.30
   3  -4   1   87.69    2.30
  -3  -4  -1   96.39    2.20
   3  -4   1   87.49    2.30
   3   4   1   92.09    2.10
   3   4   1   88.19    2.40
  -3   4  -1   89.29    1.80
  -3   4  -1   83.69    2.30
  -3   4  -1   88.29    2.20
   4  -4   1  127.39    3.20
   4  -4   1  129.19    3.10
   4  -4   1  129.49    2.90
   4   4   1  131.09    2.80
   4   4   1  128.69    2.60
   4   4   1  129.39    3.20
   5  -4   1    1.80    0.60
   5  -4   1    1.90    0.50
   5  -4   1    1.30    0.70
   5   4   1    1.20    0.70
   5   4   1    0.90    0.40
   5   4   1    1.50    0.50
   6  -4   1    8.70    1.20
   6  -4   1    7.80    1.00
   6  -4   1    5.80    0.80
   6   4   1    4.80    0.90
   7  -4   1    0.00    0.90
   7  -4   1    0.90    0.80
   7   4   1   -1.80    0.70
   7  -5  -1    2.40    1.00
   7  -5  -1    1.40    1.00
   7  -5  -1    0.50    0.80
   7   5  -1   -0.10    0.80
   6  -5  -1    0.60    0.80
   6  -5  -1    0.10    0.50
   6  -5  -1    1.20    0.90
   6   5  -1    1.20    0.90
   5  -5  -1    2.70    0.90
   5  -5  -1    3.50    0.90
   5  -5  -1    3.40    0.80
   5   5  -1    2.20    0.60
   5   5  -1    5.00    1.00
   4  -5  -1    2.70    0.60
  -4  -5   1    2.90    0.60
   4  -5  -1    2.90    0.70
   4  -5  -1    3.10    0.70
  -4   5   1    2.30    0.70
   4   5  -1    2.30    0.50
   4   5  -1    4.90    0.90
   3  -5  -1   11.70    1.00
   3  -5  -1   12.50    1.10
  -3  -5   1   15.10    1.00
   3  -5  -1   13.20    1.10
  -3   5   1   13.50    1.20
  -3   5   1   12.30    1.10
   3   5  -1   15.00    1.00
   3   5  -1   12.40    0.90
   3   5  -1   13.50    1.10
   2  -5  -1    7.20    0.70
  -2  -5   1    6.40    0.70
   2  -5  -1    7.90    0.80
   2  -5  -1    7.80    0.80
  -2  -5   1    7.70    0.70
   2   5  -1    7.40    0.70
   2   5  -1    7.90    0.80
   2   5  -1    8.40    0.90
  -2   5   1    6.80    0.80
  -2   5   1    7.20    0.80
   1  -5  -1    1.00    0.50
   1  -5  -1    1.30    0.40
  -1  -5   1    1.50    0.40
  -1  -5   1    2.00    0.50
   1  -5  -1    1.50    0.50
  -1  -5   1    2.00    0.50
  -1   5   1    2.00    0.40
  -1   5   1    1.80    0.40
   1   5  -1    1.10    0.50
  -1   5   1    1.90    0.50
   1   5  -1    2.20    0.40
   1   5  -1    1.70    0.50
   0  -5   1  134.49    3.00
   0  -5   1  127.79    2.50
   0  -5  -1  127.79    2.80
   0  -5  -1  131.29    2.40
   0  -5   1  130.99    2.90
   0  -5  -1  128.79    2.90
   0   5   1  131.29    3.00
   0   5   1  126.59    2.80
   0   5  -1  129.89    3.00
   0   5  -1  134.69    2.80
   0   5   1  131.59    2.70
   0   5  -1  125.69    2.70
  -1  -5  -1   75.09    2.00
   1  -5   1   76.39    2.10
   1  -5   1   72.69    2.10
   1  -5   1   71.39    1.90
  -1  -5  -1   69.79    1.90
   1   5   1   74.39    2.00
   1   5   1   73.09    2.10
  -1   5  -1   66.59    1.70
  -1   5  -1   75.69    2.10
   1   5   1   72.29    1.90
  -1   5  -1   70.69    1.90
   2  -5   1    8.90    0.80
   2  -5   1   10.00    0.90
   2  -5   1    9.90    0.90
  -2  -5  -1   10.60    0.90
  -2  -5  -1   10.20    0.80
   2   5   1   10.10    0.90
   2   5   1    9.70    0.80
   2   5   1    9.10    0.80
  -2   5  -1   11.00    0.70
  -2   5  -1    9.10    0.90
  -2   5  -1   10.40    0.90
   3  -5   1    0.70    0.50
   3  -5   1    0.50    0.50
  -3  -5  -1    0.40    0.40
   3  -5   1   -0.40    0.50
   3   5   1    0.40    0.40
   3   5   1    0.40    0.40
  -3   5  -1    0.60    0.50
  -3   5  -1   -0.40    0.40
   3   5   1    0.30    0.50
   4  -5   1   13.20    1.20
  -4  -5  -1   13.60    1.00
   4  -5   1   15.60    1.30
   4  -5   1   13.60    1.20
   4   5   1   15.10    1.30
   4   5   1   12.60    1.00
   4   5   1   12.10    1.00
  -4   5  -1   13.60    1.30
   5  -5   1    7.90    1.10
   5  -5   1    6.70    1.10
   5  -5   1    7.80    1.00
   5   5   1    7.90    0.80
   5   5   1    8.10    1.20
   6  -5   1    0.90    0.80
   6  -5   1    0.40    0.80
   6  -5   1    0.30    0.60
   6   5   1    0.20    0.80
   7  -5   1    0.50    0.70
   7  -5   1    1.40    0.90
   7   5   1    1.40    1.00
   6  -6  -1    8.40    1.40
   6  -6  -1    6.60    1.30
   6  -6  -1    5.50    1.00
   6   6  -1    7.30    1.40
   5  -6  -1    4.40    1.00
   5  -6  -1    4.00    1.00
   5  -6  -1    3.70    0.90
   5   6  -1    1.80    0.90
   5   6  -1    3.70    0.70
   4  -6  -1    5.70    0.90
  -4  -6   1    5.20    0.90
   4  -6  -1    5.00    1.00
   4  -6  -1    6.60    1.10
   4   6  -1    6.40    1.00
  -4   6   1    5.30    1.00
   4   6  -1    5.70    0.80
   3  -6  -1    6.00    0.90
  -3  -6   1    7.60    0.90
   3  -6  -1    6.00    0.90
   3  -6  -1    5.30    0.90
   3   6  -1    7.70    1.00
   3   6  -1    6.50    0.90
  -3   6   1    7.60    1.00
   2  -6  -1   29.20    1.60
  -2  -6   1   30.70    1.50
   2  -6  -1   27.80    1.60
   2  -6  -1   26.50    1.30
  -2   6   1   28.40    1.50
   2   6  -1   28.80    1.50
  -2   6   1   24.40    1.50
   2   6  -1   26.60    1.20
   2   6  -1   31.30    1.60
   1  -6  -1   40.00    1.50
  -1  -6   1   45.80    1.80
   1  -6  -1   44.50    1.80
   1  -6  -1   46.00    1.90
  -1  -6   1   45.80    1.70
  -1   6   1   39.70    1.70
   1   6  -1   42.40    1.60
  -1   6   1   42.50    1.70
  -1   6   1   42.10    1.40
   1   6  -1   43.20    1.80
   1   6  -1   46.00    1.80
   0  -6  -1   34.70    1.60
   0  -6  -1   31.10    1.50
   0  -6   1   32.10    1.60
   0  -6   1   30.80    1.50
   0  -6   1   31.40    1.20
   0   6  -1   30.30    1.40
   0   6  -1   35.00    1.60
   0   6   1   32.50    1.40
   0   6   1   32.30    1.50
   0   6  -1   33.10    1.40
   0   6   1   33.90    1.60
   1  -6   1   13.10    1.20
   1  -6   1   13.10    1.10
   1  -6   1   11.50    0.90
  -1  -6  -1   11.30    1.00
  -1  -6  -1   12.90    1.00
   1   6   1   11.60    1.10
  -1   6  -1   10.40    0.80
  -1   6  -1   10.40    1.00
   1   6   1   10.40    1.00
  -1   6  -1   12.70    1.10
   1   6   1   11.90    1.00
   2  -6   1   -0.40    0.50
  -2  -6  -1    0.20    0.40
   2  -6   1    0.00    0.50
   2  -6   1    0.40    0.50
  -2   6  -1    0.70    0.60
   2   6   1    0.70    0.50
   2   6   1   -0.10    0.40
  -2   6  -1   -0.40    0.50
   2   6   1    0.50    0.60
  -3  -6  -1   27.50    1.40
   3  -6   1   26.80    1.60
   3  -6   1   26.70    1.60
   3  -6   1   29.40    1.60
   3   6   1   27.40    1.30
  -3   6  -1   27.80    1.60
   3   6   1   26.10    1.60
   3   6   1   28.80    1.50
   4  -6   1    3.00    0.80
   4  -6   1    1.20    0.80
   4  -6   1    1.40    0.70
  -4  -6  -1    2.10    0.60
   4   6   1    1.10    0.60
  -4   6  -1    3.10    0.90
   4   6   1    3.60    0.90
   5  -6   1    3.50    0.90
   5  -6   1    2.60    0.90
   5  -6   1    1.70    0.80
   5   6   1    3.10    1.00
   5   6   1    2.70    0.70
   6  -6   1   -0.10    0.90
   6  -6   1    0.50    0.70
   6  -6   1    0.00    0.90
   6   6   1    1.50    1.00
   5  -7  -1    0.60    0.90
   5  -7  -1    2.50    0.90
   5  -7  -1    0.40    0.80
   5   7  -1    0.60    0.90
   5   7  -1   -0.20    0.60
   4  -7  -1    5.30    1.10
   4  -7  -1    2.80    0.90
   4  -7  -1    4.90    1.00
  -4  -7   1    5.20    1.00
  -4   7   1    4.10    1.10
   4   7  -1    3.40    0.90
   4   7  -1    6.90    1.20
   3  -7  -1    0.50    0.80
   3  -7  -1   -0.70    0.60
   3  -7  -1    0.10    0.70
  -3  -7   1    0.20    0.60
   3   7  -1    0.70    0.80
   3   7  -1   -0.80    0.60
  -3   7   1   -0.40    0.70
   2  -7  -1    1.10    0.60
   2  -7  -1    0.10    0.70
  -2  -7   1    0.60    0.60
   2  -7  -1   -0.60    0.60
  -2   7   1    0.90    0.70
   2   7  -1   -0.20    0.60
   2   7  -1    0.20    0.60
  -2   7   1    0.60    0.70
   1  -7  -1   10.00    1.10
   1  -7  -1   11.50    1.10
  -1  -7   1   10.70    1.10
  -1  -7   1   11.50    1.20
   1   7  -1   13.30    1.30
  -1   7   1   13.40    1.20
   1   7  -1   10.90    1.00
  -1   7   1   10.50    1.10
   1   7  -1   12.10    1.10
   0  -7  -1    5.90    0.90
   0  -7  -1    6.50    0.90
   0  -7   1    6.40    1.00
   0  -7   1    7.10    1.00
   0   7  -1    4.60    0.90
   0   7  -1    5.70    0.80
   0   7   1    5.40    0.90
   0   7  -1    5.70    0.90
   0   7   1    6.00    1.00
   0   7   1    6.30    0.80
   1  -7   1    0.30    0.70
  -1  -7  -1    0.20    0.60
   1  -7   1    0.30    0.70
  -1   7  -1   -0.60    0.50
   1   7   1    1.00    0.60
  -1   7  -1    0.70    0.70
   1   7   1    0.40    0.70
   1   7   1    1.80    0.70
   2  -7   1    0.90    0.60
  -2  -7  -1    0.30    0.60
   2  -7   1    0.60    0.50
   2  -7   1    1.30    0.60
   2   7   1    0.10    0.50
  -2   7  -1    0.30    0.70
  -2   7  -1    0.20    0.70
   2   7   1    0.40    0.70
   2   7   1   -0.20    0.60
   3  -7   1    0.60    0.70
   3  -7   1    1.70    0.90
  -3  -7  -1    1.20    0.60
   3  -7   1    1.00    0.70
   3   7   1    1.20    0.80
   3   7   1    0.60    0.80
  -3   7  -1    2.00    0.80
   4  -7   1    3.00    0.80
   4  -7   1    3.60    1.00
   4  -7   1    2.90    0.90
  -4   7  -1    3.10    0.80
   4   7   1    4.10    1.00
   4   7   1    4.50    0.90
   5  -7   1   -0.50    0.80
   5  -7   1    0.60    0.80
   5  -7   1   -0.50    0.70
   5   7   1    0.00    0.60
   5   7   1   -0.90    0.80
   4  -8  -1   -0.10    0.90
   4  -8  -1    1.70    1.10
   4   8  -1    0.90    0.80
  -4   8   1    0.60    1.00
   4   8  -1    1.40    1.00
   3  -8  -1    1.00    0.90
   3  -8  -1    1.00    0.90
  -3  -8   1    2.10    0.90
   3   8  -1    1.30    0.90
   3   8  -1   -0.40    0.80
  -3   8   1    2.00    1.00
  -2  -8   1    6.70    1.10
   2  -8  -1    6.10    1.20
   2  -8  -1    8.40    1.30
   2   8  -1    8.20    1.20
  -2   8   1    6.90    1.00
  -2   8   1    7.00    1.20
   2   8  -1   11.90    1.40
   1  -8  -1    3.50    1.00
  -1  -8   1    4.00    0.90
   1  -8  -1    4.10    1.00
  -1   8   1    2.50    0.80
   1   8  -1    3.10    0.90
   1   8  -1    4.00    1.00
  -1   8   1    2.30    0.90
   0  -8   1    2.30    0.90
   0  -8   1    2.00    0.90
   0  -8  -1    2.10    0.80
   0  -8  -1    2.10    0.90
   0   8  -1    1.90    0.80
   0   8  -1    3.30    1.00
   0   8   1    2.40    0.80
   0   8   1    3.80    1.00
  -1  -8  -1    0.00    0.60
   1  -8   1    1.00    0.80
   1  -8   1   -0.70    0.70
   1   8   1   -0.60    0.60
   1   8   1   -0.90    0.70
  -1   8  -1   -0.60    0.70
   1   8   1    0.10    0.60
  -1   8  -1    1.30    0.90
   2  -8   1    1.10    0.60
   2  -8   1    0.60    0.90
  -2  -8  -1   -0.30    0.70
  -2   8  -1    2.80    1.00
   2   8   1    1.20    1.00
   2   8   1    1.70    0.80
  -2   8  -1    2.60    0.90
  -3  -8  -1    4.10    0.90
   3  -8   1    2.80    1.10
   3  -8   1    5.50    1.10
   3   8   1    4.40    1.10
  -3   8  -1    3.60    1.10
   3   8   1    4.60    1.10
   4  -8   1    1.80    1.00
   4  -8   1    1.30    0.90
  -4   8  -1    0.70    1.00
   4   8   1    0.30    0.70
   4   8   1    2.90    1.10
  -3  -9   1    1.00    0.90
   2  -9  -1   -0.10    0.90
  -2  -9   1    0.80    0.90
   2  -9  -1    0.70    1.00
   2   9  -1   -0.10    0.80
  -2   9   1    2.70    1.00
  -1  -9   1   -0.50    0.80
   1  -9  -1    0.00    0.90
   1  -9  -1    0.30    0.90
  -1   9   1    0.50    1.00
   1   9  -1    0.30    0.90
  -1   9   1   -0.10    0.80
   0  -9  -1    0.60    0.80
   0  -9   1    0.40    0.80
   0   9  -1    1.00    1.00
   0   9   1    0.10    0.80
   0   9   1    1.10    1.00
   1  -9   1    1.40    1.00
  -1  -9  -1    1.20    0.80
   1  -9   1    1.20    1.00
  -1   9  -1    1.00    0.90
   1   9   1    1.00    1.00
  -1   9  -1   -0.60    1.00
  -2  -9  -1    1.20    0.90
   2  -9   1   -0.10    0.90
   2   9   1    2.00    1.00
  -2   9  -1    1.20    1.00
   8   0  -2   -0.10    0.70
   8   0  -2    0.30    0.70
   7   0  -2    0.80    0.70
   7   0  -2    0.20    0.50
   7   0  -2    1.50    0.60
   6   0  -2  134.59    3.40
   6   0  -2  133.79    3.10
   6   0  -2  137.49    3.30
   5   0  -2    0.20    0.30
   5   0  -2    0.20    0.40
   5   0  -2   -0.40    0.40
   5   0  -2    0.40    0.30
   5   0  -2    0.00    0.20
   4   0  -2    0.10    0.30
   4   0  -2    0.50    0.10
   4   0  -2    0.10    0.10
   4   0  -2    0.40    0.30
   4   0  -2    0.10    0.30
   3   0  -2   -0.20    0.10
   3   0  -2   -0.30    0.20
   3   0  -2   -0.10    0.20
   3   0  -2   -0.20    0.10
   3   0  -2   -0.20    0.30
   2   0  -2    1.10    0.20
   2   0  -2    1.60    0.10
   2   0  -2    1.40    0.10
   2   0  -2    1.60    0.20
  -1   0   2   -0.40    0.10
  -1   0   2   -0.60    0.10
   1   0  -2   -0.60    0.10
   1   0  -2   -0.60    0.10
   1   0  -2   -0.60    0.10
   0   0   2   -0.40    0.10
   0   0  -2   -0.40    0.10
   0   0   2   -0.50    0.10
   0   0   2   -0.50    0.10
   0   0  -2   -0.40    0.10
   1   0   2    0.10    0.10
   1   0   2    0.00    0.10
   1   0   2    0.10    0.10
   1   0   2   -0.10    0.10
  -1   0  -2   -0.10    0.10
   1   0   2    0.10    0.10
   2   0   2  240.48    3.60
   2   0   2  240.48    3.30
   2   0   2  245.88    3.50
   2   0   2  240.48    3.70
   2   0   2  241.98    3.30
   3   0   2   -0.10    0.30
   3   0   2    0.10    0.10
   3   0   2    0.00    0.10
   3   0   2    0.20    0.20
   3   0   2   -0.60    0.20
   4   0   2  117.69    2.50
   4   0   2  113.99    1.80
   4   0   2  117.09    1.80
   4   0   2  113.89    2.50
   4   0   2  117.49    2.30
   5   0   2   -0.20    0.40
   5   0   2   -0.40    0.40
   5   0   2   -1.10    0.50
   5   0   2    0.50    0.40
   6   0   2  161.08    3.60
   6   0   2  165.28    3.70
   6   0   2  164.08    3.60
   7   0   2    0.80    0.60
   7   0   2   -0.60    0.60
   8   0   2    3.90    0.90
   8   0   2    2.90    0.90
   8  -1  -2    7.20    1.10
   8  -1  -2    8.90    1.20
   8  -1  -2    5.70    1.20
   7  -1  -2    0.60    0.60
   7  -1  -2    0.00    0.60
   7  -1  -2    0.50    0.70
   7   1  -2    0.30    0.50
   7   1  -2    0.60    0.60
   6  -1  -2  224.58    4.70
   6  -1  -2  214.58    4.50
   6   1  -2  212.88    4.40
   6   1  -2  219.28    4.50
   6   1  -2  226.28    4.50
   6   1  -2  215.28    4.20
   5  -1  -2    0.10    0.20
   5  -1  -2    0.10    0.50
   5  -1  -2    0.40    0.40
   5  -1  -2   -0.20    0.40
   5   1  -2    0.10    0.40
   5   1  -2   -0.40    0.30
   5   1  -2    0.60    0.40
   5   1  -2    0.10    0.30
   4  -1  -2    0.00    0.20
   4  -1  -2    0.00    0.40
   4  -1  -2   -0.10    0.20
   4  -1  -2    0.00    0.30
   4   1  -2    0.10    0.10
   4   1  -2   -0.40    0.20
   4   1  -2   -0.10    0.10
   4   1  -2   -0.20    0.20
   4   1  -2   -0.10    0.30
   3  -1  -2   83.79    1.50
   3  -1  -2   83.39    1.50
   3  -1  -2   84.79    1.90
   3  -1  -2   84.79    1.90
   3   1  -2   81.09    1.80
   3   1  -2   81.89    1.30
   3   1  -2   82.19    1.30
   3   1  -2   83.69    1.60
   2  -1  -2  696.63    9.50
   2  -1  -2  703.83    9.40
   2  -1  -2  692.23    9.30
   2  -1  -2  712.03    9.70
   2   1  -2  697.83    9.90
  -2   1   2  725.13    9.40
   2   1  -2  704.43    9.70
   2   1  -2  705.23    9.20
  -2   1   2  704.73    9.50
   2   1  -2  705.33    9.80
  -1  -1   2 1825.92   24.40
   1  -1  -2 1775.62   24.80
  -1  -1   2 1753.72   24.30
  -1  -1   2 1763.82   24.70
   1  -1  -2 1744.13   24.60
   1  -1  -2 1845.72   24.80
  -1   1   2 1783.82   24.80
   1   1  -2 1716.63   24.90
  -1   1   2 1778.52   23.60
   1   1  -2 1821.42   24.50
   1   1  -2 1758.82   23.20
   0  -1  -2   33.70    0.80
   0  -1   2   34.00    0.70
   0  -1   2   29.50    0.70
   0  -1  -2   33.30    0.70
   0  -1   2   31.40    0.70
   0   1  -2   33.80    0.80
   0   1   2   32.90    0.80
   0   1  -2   34.20    0.80
   0   1   2   33.30    0.80
   1  -1   2  577.64    7.70
   1  -1   2  590.84    7.90
   1  -1   2  576.54    7.80
  -1  -1  -2  597.34    7.90
  -1  -1  -2  600.64    8.20
   1   1   2  581.64    7.70
   1   1   2  568.24    8.10
  -1   1  -2  590.94    7.80
   1   1   2  566.44    7.90
  -1   1  -2  571.74    8.10
   2  -1   2   13.70    0.60
   2  -1   2   13.30    0.50
   2  -1   2   14.10    0.60
   2   1   2   14.60    0.40
   2   1   2   13.50    0.40
  -2   1  -2   13.70    0.50
  -2   1  -2   13.80    0.40
   2   1   2   13.90    0.60
   2   1   2   13.60    0.50
   3  -1   2  223.78    3.60
   3  -1   2  211.98    3.70
   3  -1   2  219.58    3.30
   3   1   2  218.88    3.60
   3   1   2  219.58    3.40
   3   1   2  220.28    3.00
   3   1   2  216.98    3.50
   3   1   2  216.08    3.00
   3   1   2  219.08    3.70
   4  -1   2    1.20    0.40
   4  -1   2    1.80    0.40
   4  -1   2    1.50    0.30
   4   1   2    1.50    0.20
   4   1   2    1.80    0.30
   4   1   2    1.60    0.40
   4   1   2    1.30    0.40
   4   1   2    1.60    0.20
   4   1   2    1.40    0.40
   5  -1   2    4.60    0.60
   5  -1   2    4.10    0.70
   5  -1   2    4.10    0.40
   5   1   2    4.30    0.60
   5   1   2    3.70    0.60
   5   1   2    4.40    0.70
   5   1   2    5.00    0.70
   6  -1   2    1.40    0.60
   6  -1   2    1.20    0.60
   6  -1   2    1.20    0.60
   6   1   2    0.80    0.50
   6   1   2    1.50    0.50
   6   1   2    1.60    0.50
   6   1   2    1.20    0.60
   7  -1   2   -0.90    0.50
   7  -1   2    0.10    0.50
   7  -1   2   -0.40    0.60
   7   1   2    0.50    0.50
   7   1   2   -0.50    0.50
   8  -1   2   -0.40    0.80
   8  -1   2   -0.30    0.60
   8  -2  -2   -0.50    0.70
   8  -2  -2    0.30    0.80
   8  -2  -2    0.10    0.80
   7  -2  -2    1.30    0.80
   7  -2  -2    1.50    0.80
   7   2  -2    1.40    0.70
   7   2  -2    2.40    0.70
   6  -2  -2   63.29    2.40
   6  -2  -2   65.39    1.70
   6  -2  -2   65.09    2.30
   6   2  -2   65.69    2.30
   6   2  -2   67.99    2.10
   6   2  -2   64.79    2.20
   5  -2  -2   14.70    1.00
   5  -2  -2   15.70    0.80
   5  -2  -2   17.70    1.30
   5   2  -2   14.80    1.10
   5   2  -2   15.70    1.00
   5   2  -2   16.40    0.90
   5   2  -2   16.50    1.00
   4  -2  -2    2.70    0.40
   4  -2  -2    3.30    0.60
   4  -2  -2    2.70    0.50
   4  -2  -2    3.20    0.30
   4   2  -2    3.70    0.60
   4   2  -2    3.40    0.40
   4   2  -2    3.50    0.30
   3  -2  -2   39.60    1.30
   3  -2  -2   40.00    1.30
   3  -2  -2   41.30    1.20
  -3   2   2   43.30    1.30
   3   2  -2   40.00    1.00
   3   2  -2   40.90    0.90
  -3   2   2   40.30    1.00
   3   2  -2   42.30    1.30
   2  -2  -2   27.70    1.00
   2  -2  -2   26.60    0.90
   2  -2  -2   27.60    1.00
  -2  -2   2   28.30    0.90
  -2  -2   2   28.40    0.80
  -2  -2   2   27.40    0.70
   2   2  -2   27.20    0.70
   2   2  -2   26.60    1.00
   2   2  -2   26.50    0.80
  -2   2   2   28.10    0.50
  -2   2   2   27.30    0.80
  -2   2   2   27.50    0.90
  -1  -2   2  128.49    2.20
  -1  -2   2  130.19    2.20
  -1  -2   2  131.49    2.10
   1  -2  -2  125.99    2.20
   1  -2  -2  123.39    2.20
   1  -2  -2  127.89    2.20
   1   2  -2  124.59    2.20
   1   2  -2  124.89    2.30
  -1   2   2  130.49    2.30
  -1   2   2  128.99    1.90
   1   2  -2  129.69    2.00
  -1   2   2  127.69    2.30
   0  -2  -2 1549.14   20.30
   0  -2   2 1524.75   21.20
   0  -2   2 1513.55   21.70
   0  -2   2 1512.05   21.60
   0  -2  -2 1553.54   21.00
   0  -2  -2 1520.15   21.20
   0   2  -2 1515.45   21.50
   0   2  -2 1548.05   21.70
   0   2   2 1535.25   21.50
   0   2  -2 1541.95   21.20
   0   2   2 1548.55   21.60
   0   2   2 1539.45   21.60
  -1  -2  -2  289.97    4.10
   1  -2   2  311.47    4.60
   1  -2   2  310.47    4.60
  -1  -2  -2  318.27    4.50
   1  -2   2  311.07    4.60
  -1  -2  -2  311.67    4.40
  -1   2  -2  320.47    4.50
  -1   2  -2  314.37    4.50
  -1   2  -2  311.87    4.60
   1   2   2  321.97    4.50
   1   2   2  302.57    4.60
   1   2   2  297.37    4.50
  -2  -2  -2    4.60    0.40
   2  -2   2    4.60    0.40
  -2  -2  -2    4.00    0.30
   2  -2   2    4.60    0.40
   2  -2   2    4.70    0.50
   2   2   2    4.50    0.40
  -2   2  -2    4.70    0.30
   2   2   2    4.10    0.30
   2   2   2    4.80    0.50
  -2   2  -2    4.80    0.40
   2   2   2    3.80    0.30
   3  -2   2  315.17    5.00
   3  -2   2  318.97    5.20
   3  -2   2  311.77    4.80
   3   2   2  322.77    4.50
   3   2   2  312.27    4.90
   3   2   2  309.47    4.60
  -3   2  -2  312.57    4.70
  -3   2  -2  314.27    4.60
   3   2   2  318.57    5.20
   4  -2   2  382.56    5.80
   4  -2   2  379.86    6.40
   4  -2   2  386.56    6.10
   4   2   2  394.86    6.10
   4   2   2  387.36    5.40
   4   2   2  382.86    5.80
   4   2   2  387.66    6.40
   5  -2   2   11.70    1.00
   5  -2   2   10.30    1.00
   5  -2   2   10.20    0.70
   5   2   2   12.20    1.00
   5   2   2   10.50    0.80
   5   2   2   10.20    0.80
   5   2   2   11.80    1.10
   6  -2   2    4.80    0.80
   6  -2   2    4.40    0.60
   6  -2   2    6.30    1.00
   6   2   2    4.20    0.90
   6   2   2    5.00    0.80
   7  -2   2    0.40    0.60
   7  -2   2    0.10    0.70
   7  -2   2   -0.60    0.50
   7   2   2    0.50    0.60
   7   2   2    0.00    0.50
   8  -2   2   -1.10    0.80
   8  -2   2    0.80    0.70
   8  -3  -2    4.80    1.20
   8   3  -2    4.90    1.10
   7  -3  -2   -1.70    0.70
   7  -3  -2   -0.50    0.70
   7   3  -2    0.40    0.50
   7   3  -2    0.40    0.70
   6  -3  -2   -0.20    0.60
   6  -3  -2    1.10    0.50
   6  -3  -2    1.40    0.80
   6   3  -2    0.90    0.50
   6   3  -2    0.90    0.80
   5  -3  -2   83.89    2.60
   5  -3  -2   78.39    2.00
   5  -3  -2   80.39    2.50
   5   3  -2   75.99    1.70
   5   3  -2   81.59    2.50
   4  -3  -2    0.60    0.40
   4  -3  -2    0.00    0.40
   4  -3  -2    0.40    0.40
   4   3  -2    0.30    0.20
   4   3  -2    0.00    0.30
  -4   3   2    0.10    0.30
   4   3  -2    0.00    0.40
   3  -3  -2   60.19    1.60
   3  -3  -2   61.59    1.80
   3  -3  -2   59.49    1.70
  -3  -3   2   61.29    1.70
   3   3  -2   60.89    1.40
   3   3  -2   59.29    1.70
  -3   3   2   57.59    1.70
   3   3  -2   62.29    1.40
  -3   3   2   56.69    1.50
  -2  -3   2    2.80    0.40
  -2  -3   2    2.80    0.30
   2  -3  -2    2.30    0.40
  -2  -3   2    2.40    0.40
   2  -3  -2    2.90    0.50
   2  -3  -2    1.90    0.40
  -2   3   2    2.60    0.20
   2   3  -2    2.60    0.30
   2   3  -2    2.00    0.40
   2   3  -2    2.90    0.50
  -2   3   2    3.10    0.50
  -2   3   2    2.80    0.40
  -1  -3   2  624.74    8.70
   1  -3  -2  621.24    8.90
   1  -3  -2  617.14    8.80
  -1  -3   2  633.74    8.80
   1  -3  -2  644.24    8.70
  -1  -3   2  631.44    8.50
   1   3  -2  624.54    8.40
  -1   3   2  619.64    8.80
  -1   3   2  630.74    8.50
   1   3  -2  611.64    8.80
   1   3  -2  612.94    8.90
   0  -3   2  162.18    2.80
   0  -3   2  159.38    2.90
   0  -3  -2  161.28    2.50
   0  -3   2  161.38    2.70
   0  -3  -2  159.98    2.90
   0  -3  -2  159.48    2.80
   0   3   2  163.58    2.80
   0   3  -2  157.88    2.90
   0   3  -2  161.78    2.80
   0   3   2  160.98    2.90
   0   3  -2  158.88    2.70
   0   3   2  160.08    2.70
   1  -3   2    2.70    0.40
   1  -3   2    2.80    0.40
   1  -3   2    1.80    0.40
  -1  -3  -2    2.70    0.40
  -1  -3  -2    2.50    0.20
  -1  -3  -2    2.30    0.40
  -1   3  -2    2.40    0.40
   1   3   2    2.40    0.40
   1   3   2    3.00    0.40
  -1   3  -2    2.20    0.30
   1   3   2    2.40    0.40
  -1   3  -2    2.20    0.40
   2  -3   2    1.70    0.40
   2  -3   2    2.70    0.50
  -2  -3  -2    2.20    0.30
   2  -3   2    2.70    0.50
  -2  -3  -2    2.10    0.30
  -2   3  -2    2.20    0.40
  -2   3  -2    2.50    0.50
   2   3   2    3.20    0.40
  -2   3  -2    1.80    0.30
   2   3   2    2.50    0.40
   2   3   2    2.90    0.40
   3  -3   2  176.78    3.50
  -3  -3  -2  177.08    3.10
   3  -3   2  182.78    3.40
   3  -3   2  176.88    3.30
   3   3   2  178.38    2.80
  -3   3  -2  178.78    3.00
   3   3   2  170.78    3.20
   3   3   2  176.58    3.00
   3   3   2  179.98    3.60
  -3   3  -2  180.08    3.20
   4  -3   2    1.30    0.50
   4  -3   2    1.00    0.40
   4  -3   2    0.90    0.50
  -4   3  -2    0.70    0.30
   4   3   2    1.90    0.60
   4   3   2    1.20    0.40
   4   3   2    0.90    0.30
   5  -3   2    8.50    0.80
   5  -3   2    8.10    0.90
   5  -3   2    9.80    1.10
   5   3   2    9.50    0.90
   5   3   2    9.60    1.00
   6  -3   2    4.20    0.70
   6  -3   2    4.60    0.90
   6  -3   2    6.50    1.00
   6   3   2    3.50    0.90
   6   3   2    4.10    0.70
   7  -3   2    0.50    0.70
   7  -3   2    1.40    0.70
   7   3   2    1.70    0.80
   8  -3   2    0.40    0.80
   8   3   2   -0.50    0.80
   8   4  -2   -1.00    0.90
   7  -4  -2    3.20    1.10
   7  -4  -2    1.80    0.80
   7  -4  -2    3.80    1.00
   7   4  -2    3.90    1.10
   6  -4  -2   18.00    1.40
   6  -4  -2   19.60    1.70
   6  -4  -2   20.40    1.60
   6   4  -2   19.20    1.60
   5  -4  -2   52.09    1.80
   5  -4  -2   46.20    2.00
   5  -4  -2   46.70    2.10
   5   4  -2   50.79    2.10
   5   4  -2   46.00    1.40
   4  -4  -2    2.50    0.50
   4  -4  -2    1.00    0.60
   4  -4  -2    1.90    0.50
  -4   4   2    1.60    0.60
   4   4  -2    1.10    0.60
   4   4  -2    2.30    0.50
   4   4  -2    1.80    0.50
   3  -4  -2   62.89    1.90
  -3  -4   2   64.19    1.50
  -3  -4   2   61.79    1.80
   3  -4  -2   62.39    1.90
   3  -4  -2   63.39    1.90
   3   4  -2   61.69    2.00
  -3   4   2   62.39    1.80
   3   4  -2   63.59    1.60
   3   4  -2   63.59    1.70
  -3   4   2   57.39    1.90
   2  -4  -2    0.70    0.40
  -2  -4   2    0.60    0.40
  -2  -4   2    0.00    0.40
   2  -4  -2   -0.10    0.30
  -2  -4   2    0.40    0.20
   2  -4  -2    0.00    0.40
  -2   4   2    0.30    0.20
   2   4  -2    0.50    0.30
  -2   4   2    0.10    0.40
  -2   4   2    0.30    0.40
   2   4  -2    0.70    0.40
   2   4  -2   -0.10    0.30
   1  -4  -2  882.71   12.80
  -1  -4   2  907.31   12.70
   1  -4  -2  902.71   12.60
  -1  -4   2  908.41   12.60
   1  -4  -2  910.41   12.40
  -1  -4   2  922.11   12.30
   1   4  -2  910.81   12.70
  -1   4   2  909.51   12.80
   1   4  -2  904.71   12.80
   1   4  -2  886.21   12.20
  -1   4   2  913.41   12.30
  -1   4   2  900.91   12.50
   0  -4  -2   85.69    1.90
   0  -4  -2   82.79    2.00
   0  -4   2   79.89    2.00
   0  -4   2   83.49    1.80
   0  -4  -2   80.29    1.60
   0  -4   2   82.79    2.00
   0   4   2   81.19    1.80
   0   4   2   78.79    1.90
   0   4  -2   82.59    1.90
   0   4  -2   78.99    1.90
   0   4  -2   81.59    2.00
   1  -4   2   31.60    1.20
   1  -4   2   32.00    1.10
   1  -4   2   31.00    1.30
  -1  -4  -2   31.60    1.10
  -1  -4  -2   31.30    1.10
  -1  -4  -2   31.80    0.80
  -1   4  -2   33.40    1.20
  -1   4  -2   31.10    1.00
  -1   4  -2   30.50    1.20
   1   4   2   32.10    1.10
   1   4   2   31.30    1.20
   1   4   2   32.10    1.20
  -2  -4  -2    4.20    0.50
   2  -4   2    5.40    0.70
   2  -4   2    4.10    0.60
  -2  -4  -2    4.60    0.50
   2  -4   2    4.60    0.60
   2   4   2    4.80    0.60
   2   4   2    4.80    0.60
  -2   4  -2    4.20    0.60
   2   4   2    4.70    0.60
  -2   4  -2    4.90    0.60
  -2   4  -2    4.60    0.50
   3  -4   2   44.50    1.50
  -3  -4  -2   44.10    1.40
   3  -4   2   44.40    1.60
   3  -4   2   43.10    1.60
   3   4   2   46.20    1.70
  -3   4  -2   46.30    1.70
  -3   4  -2   42.90    1.20
   3   4   2   44.60    1.50
   3   4   2   42.00    1.30
  -3   4  -2   45.70    1.50
   4  -4   2   33.70    1.60
   4  -4   2   31.10    1.40
   4  -4   2   31.40    1.50
   4   4   2   30.90    1.60
   4   4   2   32.90    1.30
   5  -4   2    7.50    1.00
   5  -4   2    7.60    0.80
   5  -4   2    7.40    1.10
   5   4   2    7.10    1.00
   5   4   2    5.90    0.60
   5   4   2    7.60    0.90
   6  -4   2    0.10    0.60
   6  -4   2    0.30    0.50
   6  -4   2    1.10    0.80
   6   4   2   -1.00    0.60
   7  -4   2   -0.70    0.70
   7  -4   2    0.60    0.90
   7   4   2    0.10    0.80
   8  -4   2    8.90    1.50
   7  -5  -2    0.60    0.80
   7  -5  -2   -0.80    0.80
   7  -5  -2    1.60    1.00
   7   5  -2   -0.20    0.90
   6  -5  -2    2.00    0.90
   6  -5  -2    0.10    0.80
   6  -5  -2    1.80    0.80
   6   5  -2    1.90    0.90
   5  -5  -2   32.60    1.70
   5  -5  -2   36.00    1.90
   5  -5  -2   35.00    1.80
   5   5  -2   36.80    2.00
   5   5  -2   32.00    1.40
   4  -5  -2   17.80    1.30
   4  -5  -2   18.00    1.30
   4  -5  -2   14.70    1.20
  -4  -5   2   16.60    1.20
   4   5  -2   16.70    1.00
   4   5  -2   17.70    1.30
  -4   5   2   17.50    1.30
   3  -5  -2   28.70    1.50
  -3  -5   2   26.50    1.30
   3  -5  -2   27.20    1.40
   3  -5  -2   27.20    1.40
  -3   5   2   30.80    1.40
  -3   5   2   29.50    1.50
   3   5  -2   30.30    1.20
   3   5  -2   29.10    1.50
   3   5  -2   30.30    1.30
  -2  -5   2    2.30    0.50
  -2  -5   2    1.70    0.50
   2  -5  -2    2.00    0.60
   2  -5  -2    1.90    0.50
   2  -5  -2    2.50    0.60
   2   5  -2    1.70    0.50
   2   5  -2    1.90    0.40
   2   5  -2    1.60    0.60
  -2   5   2    2.10    0.60
  -2   5   2    0.70    0.50
  -1  -5   2   29.50    1.00
   1  -5  -2   29.20    1.30
  -1  -5   2   29.20    1.30
   1  -5  -2   27.90    1.10
   1  -5  -2   27.80    1.30
  -1  -5   2   27.80    1.20
  -1   5   2   29.10    1.10
   1   5  -2   28.90    1.30
   1   5  -2   29.20    1.30
  -1   5   2   29.20    1.30
   1   5  -2   29.90    1.20
  -1   5   2   29.40    1.30
   0  -5  -2   14.10    1.00
   0  -5   2   13.50    0.80
   0  -5  -2   14.30    0.90
   0  -5   2   16.20    1.00
   0  -5  -2   13.30    0.70
   0  -5   2   13.70    1.00
   0   5  -2   14.50    1.00
   0   5  -2   12.90    0.90
   0   5   2   14.50    1.00
   0   5   2   12.70    0.80
   0   5   2   15.50    1.00
   0   5  -2   12.30    0.80
   1  -5   2    4.60    0.70
  -1  -5  -2    4.50    0.60
   1  -5   2    4.50    0.70
  -1  -5  -2    3.10    0.50
   1  -5   2    3.90    0.50
   1   5   2    5.40    0.70
   1   5   2    3.50    0.60
   1   5   2    3.40    0.60
  -1   5  -2    3.90    0.70
  -1   5  -2    5.00    0.60
  -1   5  -2    4.10    0.50
   2  -5   2   14.40    1.10
  -2  -5  -2   14.60    0.90
  -2  -5  -2   14.40    0.90
   2  -5   2   14.50    1.00
   2  -5   2   16.00    1.00
  -2   5  -2   13.40    1.00
   2   5   2   15.10    1.00
   2   5   2   14.80    1.10
  -2   5  -2   15.20    0.80
  -2   5  -2   15.00    1.10
  -3  -5  -2   17.10    1.00
   3  -5   2   17.90    1.20
   3  -5   2   17.20    1.20
   3  -5   2   16.00    1.20
   3   5   2   16.00    1.20
  -3   5  -2   17.00    1.20
   3   5   2   18.70    1.10
  -3   5  -2   18.50    1.10
   3   5   2   17.00    1.00
  -4  -5  -2   41.70    1.60
   4  -5   2   45.60    2.00
   4  -5   2   46.60    1.90
   4  -5   2   45.70    2.00
   4   5   2   42.20    1.60
   4   5   2   41.40    2.00
   4   5   2   46.10    1.60
   5  -5   2   -0.80    0.70
   5  -5   2    0.80    0.60
   5  -5   2    0.30    0.70
   5   5   2   -0.20    0.50
   5   5   2   -1.50    0.60
   6  -5   2   -0.40    0.70
   6  -5   2    0.20    0.70
   6  -5   2    0.90    0.80
   6   5   2    0.20    0.70
   7  -5   2   -0.70    0.60
   7  -5   2   -0.60    0.80
   7   5   2    0.70    0.90
   6  -6  -2    0.30    0.60
   6  -6  -2   -0.20    0.90
   6  -6  -2   -1.90    0.80
   6   6  -2    0.80    0.90
   5  -6  -2    1.20    0.90
   5  -6  -2    1.00    0.70
   5  -6  -2   -0.50    0.70
   5   6  -2    1.40    0.80
   5   6  -2    1.10    0.70
  -5   6   2   -0.50    0.70
   4  -6  -2    6.10    1.00
  -4  -6   2    5.50    0.90
   4  -6  -2    7.10    1.00
   4  -6  -2    5.40    0.90
   4   6  -2    3.50    0.80
   4   6  -2    4.70    1.00
  -4   6   2    6.00    1.00
  -3  -6   2    0.90    0.60
   3  -6  -2    0.90    0.60
   3  -6  -2    0.40    0.60
   3  -6  -2    1.10    0.60
   3   6  -2    1.30    0.60
  -3   6   2    1.20    0.70
   3   6  -2    1.40    0.70
  -2  -6   2   10.20    1.00
   2  -6  -2   10.60    0.90
   2  -6  -2    9.60    1.00
   2  -6  -2   10.00    1.10
  -2   6   2    9.10    1.00
  -2   6   2   10.00    1.10
   2   6  -2   11.90    1.10
   2   6  -2   10.00    1.00
   2   6  -2    9.80    0.90
   1  -6  -2   42.80    1.70
   1  -6  -2   48.70    1.90
   1  -6  -2   43.50    1.50
  -1  -6   2   47.10    1.80
  -1  -6   2   44.00    1.80
   1   6  -2   42.80    1.50
  -1   6   2   43.80    1.80
   1   6  -2   44.70    1.80
  -1   6   2   43.90    1.80
  -1   6   2   42.20    1.40
   1   6  -2   45.40    1.80
   0  -6   2   11.40    1.10
   0  -6   2    9.40    0.80
   0  -6  -2   10.10    1.00
   0  -6  -2   11.00    1.00
   0  -6   2    9.90    1.00
   0   6  -2   10.90    1.00
   0   6   2   10.40    1.00
   0   6  -2    9.10    0.90
   0   6   2    9.70    0.90
   0   6  -2   10.90    1.00
   0   6   2    9.70    1.00
  -1  -6  -2    5.10    0.80
   1  -6   2    5.90    0.70
   1  -6   2    5.00    0.80
   1  -6   2    5.90    0.80
  -1  -6  -2    5.30    0.70
  -1   6  -2    6.20    0.70
   1   6   2    5.20    0.80
   1   6   2    4.60    0.80
   1   6   2    6.00    0.70
  -1   6  -2    5.40    0.80
  -1   6  -2    5.30    0.80
   2  -6   2   10.90    1.00
   2  -6   2   11.80    1.00
   2  -6   2   14.30    1.20
  -2  -6  -2   11.00    1.00
  -2   6  -2   11.40    1.10
   2   6   2   11.50    1.00
  -2   6  -2   11.70    1.10
   2   6   2   12.90    1.10
   2   6   2   11.20    1.10
   3  -6   2    6.20    1.00
  -3  -6  -2    6.70    0.80
   3  -6   2    5.00    0.90
   3  -6   2    6.00    0.90
   3   6   2    6.50    1.00
   3   6   2    6.30    0.90
  -3   6  -2    6.00    0.90
   3   6   2    6.50    0.80
   4  -6   2   14.00    1.30
   4  -6   2   11.10    1.30
   4  -6   2   11.70    1.30
   4   6   2   14.30    1.20
   4   6   2   14.10    1.40
   5  -6   2    3.00    1.00
   5  -6   2    0.30    0.80
   5  -6   2   -0.10    0.80
   5   6   2    1.20    0.70
   5   6   2    0.70    0.80
   6  -6   2    1.10    1.00
   6  -6   2    2.60    1.00
   6  -6   2    0.40    0.90
   6   6   2    2.10    1.00
   5  -7  -2    1.50    0.90
   5  -7  -2    0.70    0.90
   5  -7  -2    1.00    0.80
   5   7  -2    0.20    0.60
  -5   7   2    0.50    0.90
   5   7  -2    0.80    0.90
  -4  -7   2    0.70    0.70
   4  -7  -2    0.60    0.80
   4  -7  -2    2.80    0.90
   4  -7  -2    1.40    0.80
   4   7  -2    1.30    0.90
  -4   7   2    0.00    0.70
   4   7  -2   -0.10    0.70
   3  -7  -2    7.10    1.10
   3  -7  -2    6.80    1.00
   3  -7  -2    4.60    1.00
  -3  -7   2    6.10    1.00
   3   7  -2    6.30    1.10
   3   7  -2    5.00    0.90
  -3   7   2    7.20    1.00
   2  -7  -2   -0.20    0.60
  -2  -7   2   -0.20    0.60
   2  -7  -2   -0.80    0.60
  -2   7   2    0.10    0.70
  -2   7   2   -0.10    0.60
   2   7  -2   -0.30    0.60
   2   7  -2   -0.40    0.60
  -1  -7   2    8.40    1.00
  -1  -7   2    9.50    1.10
   1  -7  -2    6.90    1.00
   1  -7  -2    9.60    1.10
  -1   7   2    7.40    1.00
   1   7  -2    8.20    0.90
  -1   7   2   10.30    1.20
   1   7  -2    9.20    1.00
   1   7  -2   10.40    1.20
   0  -7  -2   31.00    1.80
   0  -7   2   30.80    1.70
   0  -7  -2   32.00    1.70
   0  -7   2   31.20    1.70
   0   7  -2   34.70    1.70
   0   7   2   29.50    1.40
   0   7   2   31.90    1.60
   0   7   2   31.40    1.80
   0   7  -2   30.70    1.50
   0   7  -2   33.30    1.60
   1  -7   2    4.80    0.90
  -1  -7  -2    6.10    0.90
   1  -7   2    4.70    0.90
  -1   7  -2    5.90    1.00
   1   7   2    5.80    1.00
   1   7   2    5.40    0.90
   1   7   2    6.00    0.90
  -1   7  -2    6.20    0.90
  -2  -7  -2    0.30    0.50
   2  -7   2    0.50    0.70
   2  -7   2    0.70    0.70
   2  -7   2   -0.20    0.60
  -2   7  -2    0.80    0.70
   2   7   2   -0.60    0.60
   2   7   2    0.00    0.60
   2   7   2   -0.20    0.60
  -2   7  -2    1.10    0.70
   3  -7   2   24.20    1.80
   3  -7   2   22.00    1.70
   3  -7   2   23.70    1.70
  -3  -7  -2   22.40    1.50
  -3   7  -2   20.50    1.70
   3   7   2   26.10    1.80
   3   7   2   23.00    1.60
   4  -7   2    3.60    1.00
   4  -7   2    3.30    1.00
   4  -7   2    5.80    1.20
   4   7   2    3.60    0.90
  -4   7  -2    4.30    1.10
   4   7   2    7.00    1.20
   5  -7   2    1.20    1.00
   5  -7   2    0.20    0.90
   5  -7   2   -0.50    0.80
   5   7   2   -1.10    0.70
   5   7   2   -0.10    0.80
   5  -8  -2    2.10    1.10
  -4  -8   2   -0.70    0.80
   4  -8  -2    2.10    1.10
  -4   8   2   -0.20    0.90
   4   8  -2   -0.60    0.70
   4   8  -2    0.60    0.90
   3  -8  -2    0.60    0.90
   3  -8  -2    0.20    0.90
  -3  -8   2   -0.60    0.70
   3   8  -2    0.80    0.80
   3   8  -2    1.10    0.90
  -3   8   2    0.80    0.90
  -2  -8   2    0.80    0.70
   2  -8  -2    1.60    0.90
   2  -8  -2   -0.20    0.50
  -2   8   2   -0.10    0.80
   2   8  -2   -0.20    0.90
   2   8  -2   -0.30    0.70
  -2   8   2   -0.10    0.70
   1  -8  -2    0.40    0.80
  -1  -8   2   -0.50    0.60
   1  -8  -2    0.50    0.70
  -1   8   2    0.30    0.80
   1   8  -2   -0.30    0.80
   1   8  -2   -0.50    0.70
  -1   8   2   -0.10    0.70
   0  -8  -2    7.20    1.10
   0  -8   2    7.10    1.20
   0  -8  -2    4.30    1.00
   0  -8   2    5.40    1.00
   0   8  -2    4.70    0.90
   0   8  -2    6.10    1.20
   0   8   2    6.30    1.00
   0   8   2    6.30    1.20
   1  -8   2    0.60    0.80
   1  -8   2    1.60    0.80
  -1  -8  -2    1.10    0.70
   1   8   2    1.20    0.80
   1   8   2    0.80    0.70
   1   8   2    0.00    0.60
  -1   8  -2    2.60    0.80
  -1   8  -2    1.30    0.90
   2  -8   2    1.50    0.90
   2  -8   2    3.50    1.00
  -2  -8  -2    1.10    0.90
  -2   8  -2    2.00    0.90
   2   8   2    1.10    0.80
   2   8   2    0.60    0.80
  -2   8  -2    1.90    0.90
   3  -8   2    6.60    1.30
   3  -8   2    5.30    1.00
   3  -8   2    6.00    1.10
   3   8   2    7.00    1.20
  -3   8  -2    6.40    1.20
   3   8   2    6.90    1.20
   4  -8   2   -0.10    1.00
   4  -8   2   -1.00    0.80
   4   8   2    0.50    0.80
   4   8   2   -0.30    0.90
  -3  -9   2    4.40    1.20
   2  -9  -2    0.50    1.00
  -2  -9   2   -0.50    0.80
   2  -9  -2   -2.00    0.80
  -2   9   2   -0.40    0.90
   2   9  -2    0.50    1.10
  -1  -9   2   -0.70    0.80
   1  -9  -2   -0.30    0.90
   1  -9  -2    0.50    0.80
  -1   9   2   -0.40    1.00
   1   9  -2    0.20    0.90
  -1   9   2   -0.40    1.00
   0  -9  -2   -1.10    0.70
   0  -9   2   -0.30    0.80
   0   9  -2    0.20    1.00
   0   9   2    0.30    0.80
   0   9   2   -0.10    0.90
  -1  -9  -2    3.80    1.00
   1  -9   2    2.10    1.00
   1  -9   2    2.60    1.00
  -1   9  -2    1.60    1.10
  -1   9  -2    2.40    1.00
   1   9   2    1.40    1.00
  -2  -9  -2    0.40    0.80
   2  -9   2    0.10    0.90
   2   9   2    2.90    1.00
  -2   9  -2    1.30    1.00
   8   0  -3   -0.70    0.80
   8   0  -3   -0.30    0.80
   7   0  -3    3.30    0.70
   7   0  -3    2.30    0.70
   7   0  -3    4.20    0.90
   6   0  -3   -0.30    0.60
   6   0  -3    0.10    0.60
   6   0  -3   -0.20    0.50
   5   0  -3    0.10    0.20
   5   0  -3   -0.20    0.30
   5   0  -3   -0.10    0.40
   5   0  -3   -0.10    0.40
   4   0  -3   -0.10    0.10
   4   0  -3    0.10    0.10
   4   0  -3    0.30    0.30
   4   0  -3    0.20    0.20
   4   0  -3   -0.20    0.30
   3   0  -3    0.50    0.20
   3   0  -3    1.10    0.30
   3   0  -3    0.40    0.20
   3   0  -3    0.50    0.10
   2   0  -3    0.00    0.20
   2   0  -3    0.10    0.10
  -2   0   3   -0.20    0.10
   2   0  -3   -0.30    0.10
   2   0  -3   -0.30    0.20
   1   0  -3    0.60    0.10
  -1   0   3    0.40    0.10
  -1   0   3    0.50    0.10
   1   0  -3    0.40    0.10
  -1   0   3    0.70    0.10
   0   0  -3   -0.20    0.10
   0   0   3   -0.20    0.10
   0   0   3   -0.30    0.10
   0   0  -3   -0.30    0.10
   0   0   3   -0.20    0.10
  -1   0  -3  304.17    4.30
   1   0   3  302.77    4.20
   1   0   3  301.67    4.20
  -1   0  -3  314.67    4.20
   1   0   3  301.07    4.20
   1   0   3  298.67    4.10
   2   0   3    0.00    0.10
   2   0   3   -0.20    0.10
   2   0   3    0.00    0.10
  -2   0  -3   -0.10    0.10
   2   0   3   -0.10    0.20
   2   0   3   -0.10    0.20
   3   0   3 1154.48   15.30
   3   0   3 1124.49   15.40
   3   0   3 1145.89   15.20
   3   0   3 1129.09   14.90
   3   0   3 1132.39   15.30
   4   0   3    0.60    0.40
   4   0   3    0.00    0.30
   4   0   3   -0.10    0.20
   4   0   3    0.00    0.10
   5   0   3   95.49    2.40
   5   0   3   99.49    2.30
   5   0   3   95.79    1.60
   5   0   3   97.89    2.50
   6   0   3    0.50    0.60
   6   0   3   -0.20    0.50
   6   0   3    0.10    0.50
   6   0   3   -0.30    0.40
   7   0   3    0.10    0.60
   7   0   3   -0.20    0.50
   8   0   3    0.30    0.70
   8  -1  -3    1.70    0.90
   8  -1  -3    1.70    0.80
   8   1  -3    2.60    0.80
   8   1  -3    0.30    0.70
   7  -1  -3    3.20    0.80
   7  -1  -3    2.20    0.80
   7  -1  -3    1.70    0.60
   7   1  -3    1.50    0.70
   7   1  -3    1.60    0.70
   6  -1  -3  117.99    3.20
   6  -1  -3  113.39    3.10
   6   1  -3  114.29    3.00
   6   1  -3  113.59    3.00
   6   1  -3  115.29    2.80
   5  -1  -3    4.50    0.70
   5  -1  -3    4.00    0.70
   5  -1  -3    4.00    0.40
   5   1  -3    5.10    0.60
   5   1  -3    3.40    0.50
   5   1  -3    3.70    0.60
   5   1  -3    5.60    0.70
   4  -1  -3   24.80    1.10
   4  -1  -3   26.60    0.80
   4  -1  -3   26.00    1.20
   4  -1  -3   25.80    0.80
   4   1  -3   25.80    0.90
   4   1  -3   27.10    1.00
   4   1  -3   25.70    1.10
   4   1  -3   26.60    0.60
   3  -1  -3  288.27    4.10
   3  -1  -3  287.87    4.70
   3  -1  -3  286.87    4.60
   3  -1  -3  286.57    4.20
   3   1  -3  291.97    4.60
   3   1  -3  285.37    4.20
   3   1  -3  288.67    4.00
   3   1  -3  290.97    4.00
   2  -1  -3   68.49    1.50
   2  -1  -3   70.59    1.10
   2  -1  -3   68.99    1.30
   2   1  -3   68.99    1.50
  -2   1   3   71.49    1.30
   2   1  -3   68.79    1.20
  -2   1   3   69.39    1.40
   2   1  -3   68.99    1.20
  -1   1   3 9999.00  128.09
   0  -1  -3  316.57    4.20
   0  -1   3  312.07    4.40
   0  -1   3  319.17    4.40
   0  -1  -3  319.57    4.40
   0  -1   3  320.37    4.40
   0   1  -3  313.37    4.50
   0   1   3  315.97    4.40
   0   1   3  315.37    4.40
   0   1  -3  326.17    4.50
   1  -1   3  637.24    8.50
  -1  -1  -3  638.34    9.00
  -1  -1  -3  642.64    8.50
   1  -1   3  627.74    8.60
   1  -1   3  633.84    8.70
   1   1   3  665.33    9.10
  -1   1  -3  642.54    8.70
   1   1   3  644.04    8.60
   1   1   3  652.13    8.70
  -1   1  -3  640.04    8.60
   2  -1   3  180.28    2.70
   2  -1   3  174.78    3.00
   2  -1   3  177.78    2.80
   2   1   3  181.48    2.90
   2   1   3  179.08    2.60
  -2   1  -3  177.28    2.90
  -2   1  -3  178.68    2.70
   2   1   3  177.68    2.70
   3  -1   3  258.67    4.00
   3  -1   3  255.17    3.80
   3  -1   3  250.17    4.20
   3   1   3  253.47    3.60
   3   1   3  256.37    3.60
   3   1   3  253.17    3.80
   3   1   3  260.27    4.00
   3   1   3  255.07    4.10
   4  -1   3    5.50    0.40
   4  -1   3    4.50    0.60
   4  -1   3    5.20    0.50
   4   1   3    6.10    0.60
   4   1   3    5.00    0.30
   4   1   3    5.00    0.60
   4   1   3    4.90    0.50
   4   1   3    5.70    0.50
   5  -1   3  105.79    2.70
   5  -1   3  107.49    2.70
   5  -1   3  106.89    2.50
   5  -1   3  106.19    2.00
   5   1   3  108.79    2.50
   5   1   3  109.39    2.60
   5   1   3  110.09    2.70
   5   1   3  108.69    2.40
   6  -1   3   -0.40    0.50
   6  -1   3   -0.20    0.50
   6  -1   3    0.30    0.60
   6   1   3   -0.20    0.50
   6   1   3   -0.20    0.50
   6   1   3    1.00    0.50
   7  -1   3    4.40    0.90
   7  -1   3    4.00    0.90
   7   1   3    4.00    0.80
   7   1   3    2.30    0.70
   8  -1   3   -0.10    0.70
   8  -1   3    0.40    0.80
   8   1   3    0.10    0.70
   8  -2  -3    2.20    1.00
   8  -2  -3    1.70    0.90
   8  -2  -3   -0.50    0.60
   7  -2  -3    2.80    1.00
   7  -2  -3    4.60    0.90
   7   2  -3    4.60    0.80
   7   2  -3    6.10    1.00
   6  -2  -3    5.90    1.00
   6  -2  -3    5.80    1.10
   6  -2  -3    7.70    0.70
   6   2  -3    7.60    0.90
   6   2  -3    7.80    0.90
   6   2  -3    7.20    0.90
   5  -2  -3    3.20    0.70
   5  -2  -3    4.10    0.70
   5  -2  -3    3.40    0.50
   5   2  -3    3.30    0.30
   5   2  -3    3.70    0.60
   5   2  -3    3.50    0.60
   4  -2  -3    2.60    0.60
   4  -2  -3    2.50    0.50
   4  -2  -3    2.40    0.40
   4   2  -3    2.70    0.30
   4   2  -3    1.40    0.40
   4   2  -3    2.10    0.30
   3  -2  -3  146.69    2.90
   3  -2  -3  149.88    3.00
   3  -2  -3  151.58    2.10
   3  -2  -3  149.29    2.70
  -3   2   3  158.08    2.90
  -3   2   3  151.18    2.60
   3   2  -3  150.08    3.00
   3   2  -3  154.68    2.50
   3   2  -3  150.68    2.50
  -2  -2   3   26.10    0.80
   2  -2  -3   25.60    0.90
   2  -2  -3   27.20    1.00
  -2  -2   3   27.50    0.90
  -2  -2   3   27.40    0.70
   2  -2  -3   28.00    0.90
   2   2  -3   27.10    0.70
   2   2  -3   26.10    1.00
  -2   2   3   25.40    0.80
  -2   2   3   25.80    0.90
   2   2  -3   25.80    0.80
  -1  -2   3 3540.55   48.70
   1  -2  -3 3525.95   47.70
  -1  -2   3 3569.74   48.50
   1  -2  -3 3576.44   49.50
  -1  -2   3 3600.04   48.70
   1  -2  -3 3543.25   48.30
  -1   2   3 3586.44   49.30
  -1   2   3 3511.45   48.40
   1   2  -3 3584.64   46.40
  -1   2   3 3555.74   47.00
   1   2  -3 3588.64   48.80
   1   2  -3 3568.54   49.70
   0  -2   3  902.61   12.10
   0  -2  -3  918.01   12.60
   0  -2  -3  892.01   12.10
   0  -2  -3  905.51   12.20
   0  -2   3  904.31   12.50
   0  -2   3  919.61   12.00
   0   2   3  900.21   12.00
   0   2   3  899.21   11.90
   0   2   3  898.01   12.10
   0   2  -3  897.61   11.70
   0   2  -3  910.11   12.10
   0   2  -3  876.31   12.10
   1  -2   3   70.09    1.50
  -1  -2  -3   71.49    1.30
   1  -2   3   71.29    1.50
  -1  -2  -3   72.89    1.40
   1  -2   3   72.69    1.50
  -1   2  -3   70.79    1.50
  -1   2  -3   68.49    1.40
   1   2   3   70.59    1.40
   1   2   3   69.39    1.50
  -1   2  -3   70.59    1.50
   1   2   3   68.89    1.50
   2  -2   3   91.39    1.80
  -2  -2  -3   90.59    1.60
  -2  -2  -3   90.09    1.60
   2  -2   3   87.89    1.80
   2  -2   3   88.39    1.90
   2   2   3   89.49    1.90
   2   2   3   88.79    1.80
  -2   2  -3   90.39    1.70
   2   2   3   87.89    1.40
   2   2   3   91.19    1.70
  -2   2  -3   88.39    1.70
   3  -2   3  100.29    2.20
   3  -2   3  104.39    2.00
   3  -2   3  100.39    2.30
  -3   2  -3   99.29    1.90
   3   2   3  105.19    2.20
  -3   2  -3  103.69    2.00
   3   2   3   99.99    2.30
   3   2   3   97.69    1.80
   3   2   3  103.09    1.80
   4  -2   3    0.80    0.40
   4  -2   3    1.10    0.50
   4  -2   3    1.10    0.30
   4   2   3    1.10    0.40
   4   2   3    1.00    0.40
   4   2   3    0.70    0.50
   4   2   3    0.90    0.20
   5  -2   3    0.20    0.50
   5  -2   3    0.80    0.50
   5  -2   3   -0.10    0.30
   5   2   3    0.40    0.50
   5   2   3    0.30    0.40
   5   2   3    0.40    0.40
   5   2   3    0.40    0.40
   6  -2   3   32.10    1.70
   6  -2   3   31.80    1.20
   6  -2   3   35.30    1.70
   6   2   3   31.30    1.70
   6   2   3   34.20    1.60
   7  -2   3    4.60    0.90
   7  -2   3    2.10    0.90
   7  -2   3    2.70    0.90
   7   2   3    4.90    0.90
   7   2   3    4.10    0.80
   8  -2   3    8.90    1.30
   8  -2   3    9.30    1.30
   8   2   3    9.90    1.40
   8  -3  -3   -0.20    0.80
   7  -3  -3    3.10    1.00
   7  -3  -3    3.30    0.90
   7   3  -3    2.10    0.90
   7   3  -3    3.70    0.80
   6  -3  -3   38.90    1.50
   6  -3  -3   39.10    2.00
   6  -3  -3   38.50    1.90
   6   3  -3   40.60    1.90
   5  -3  -3    5.00    0.90
   5  -3  -3    4.90    0.80
   5  -3  -3    5.10    0.70
   5   3  -3    5.90    0.90
   5   3  -3    4.30    0.50
   4  -3  -3    0.10    0.40
   4  -3  -3    0.10    0.30
   4  -3  -3   -0.40    0.40
   4   3  -3    0.50    0.40
  -4   3   3   -0.40    0.40
   4   3  -3   -0.20    0.20
   4   3  -3    0.10    0.20
   3  -3  -3    0.30    0.40
   3  -3  -3    0.00    0.30
   3  -3  -3    0.80    0.40
  -3  -3   3    0.00    0.20
  -3  -3   3    1.20    0.40
   3   3  -3   -0.30    0.20
  -3   3   3    0.00    0.30
  -3   3   3    0.20    0.40
   3   3  -3    0.20    0.40
   3   3  -3    0.30    0.20
   2  -3  -3  179.18    3.20
   2  -3  -3  173.78    3.20
  -2  -3   3  177.08    2.90
  -2  -3   3  177.08    2.90
  -2  -3   3  178.28    3.20
   2  -3  -3  171.58    3.20
   2   3  -3  172.88    2.70
   2   3  -3  174.38    3.00
  -2   3   3  172.48    2.50
   2   3  -3  170.18    3.30
  -2   3   3  169.38    3.20
  -1  -3   3  116.39    2.10
   1  -3  -3  111.99    2.10
   1  -3  -3  118.29    2.30
  -1  -3   3  119.39    2.30
   1  -3  -3  117.39    2.40
  -1  -3   3  118.79    2.30
  -1   3   3  116.09    2.40
   1   3  -3  114.49    2.40
  -1   3   3  114.29    2.30
   1   3  -3  117.29    2.30
   1   3  -3  117.99    2.00
  -1   3   3  115.09    1.90
   0  -3   3    9.70    0.60
   0  -3   3    9.60    0.60
   0  -3   3    8.90    0.60
   0  -3  -3    8.90    0.60
   0  -3  -3    9.40    0.40
   0  -3  -3    9.60    0.60
   0   3  -3    9.10    0.60
   0   3   3   10.30    0.70
   0   3  -3    9.40    0.50
   0   3   3    8.50    0.50
   0   3   3    9.20    0.60
   0   3  -3   10.70    0.70
  -1  -3  -3   77.79    1.10
   1  -3   3   79.09    1.80
   1  -3   3   80.29    1.80
  -1  -3  -3   78.99    1.70
  -1  -3  -3   80.09    1.60
   1  -3   3   78.29    1.80
  -1   3  -3   78.59    1.70
   1   3   3   79.69    1.80
  -1   3  -3   79.49    1.70
   1   3   3   80.79    1.80
   1   3   3   79.59    1.80
  -1   3  -3   78.39    1.80
   2  -3   3   16.20    0.90
   2  -3   3   19.50    0.90
  -2  -3  -3   17.90    0.70
   2  -3   3   17.00    0.80
  -2  -3  -3   17.10    0.70
   2   3   3   17.40    0.90
   2   3   3   16.80    0.80
   2   3   3   16.30    0.30
  -2   3  -3   15.80    0.80
   2   3   3   17.20    0.80
  -2   3  -3   16.60    0.80
  -2   3  -3   16.20    0.70
   3  -3   3   13.60    0.90
   3  -3   3   11.60    0.80
   3  -3   3   13.20    0.90
  -3   3  -3   12.30    0.70
  -3   3  -3   12.20    0.80
   3   3   3   13.80    0.70
   3   3   3   13.30    0.50
   3   3   3   13.10    0.80
   3   3   3   12.70    0.90
   4  -3   3   61.39    1.90
   4  -3   3   63.79    2.00
   4  -3   3   63.99    1.70
  -4   3  -3   64.19    1.60
   4   3   3   65.49    1.80
   4   3   3   62.39    1.50
   4   3   3   65.19    2.10
   5  -3   3   36.10    1.40
   5  -3   3   33.80    1.60
   5  -3   3   40.90    1.80
   5   3   3   37.00    1.50
   5   3   3   38.10    1.10
   5   3   3   36.90    1.80
   6  -3   3    7.50    0.80
   6  -3   3    8.70    1.10
   6  -3   3    8.60    1.10
   6   3   3    7.80    0.90
   6   3   3    9.00    1.10
   7  -3   3   -0.20    0.60
   7  -3   3    0.50    0.80
   7   3   3   -0.80    0.70
   8   3   3    1.60    1.00
   8   4  -3    0.40    1.00
   7  -4  -3    1.10    0.70
   7  -4  -3   -0.90    0.80
   7  -4  -3    0.80    0.80
   7   4  -3    0.60    0.60
   7   4  -3    0.20    0.80
   6  -4  -3    1.40    0.80
   6  -4  -3    0.70    0.80
   6  -4  -3    1.00    0.60
   6   4  -3    1.50    0.80
   5  -4  -3   26.60    1.30
   5  -4  -3   24.50    1.60
   5  -4  -3   21.10    1.50
   5   4  -3   20.80    1.00
   5   4  -3   22.20    1.50
   4  -4  -3    4.60    0.70
   4  -4  -3    4.60    0.80
   4  -4  -3    4.30    0.70
   4   4  -3    4.70    0.60
   4   4  -3    6.20    0.80
  -4   4   3    5.60    0.80
   3  -4  -3   11.70    0.90
   3  -4  -3   12.40    0.90
  -3  -4   3   11.00    0.90
   3  -4  -3   13.20    0.90
  -3  -4   3   11.90    0.70
  -3   4   3   12.90    0.90
  -3   4   3   11.20    0.90
   3   4  -3   11.70    1.00
   3   4  -3   12.00    0.70
   3   4  -3   12.60    0.80
  -2  -4   3   49.10    1.30
   2  -4  -3   48.40    1.50
   2  -4  -3   50.99    1.50
   2  -4  -3   48.20    1.60
  -2  -4   3   48.20    1.50
  -2  -4   3   49.90    1.40
  -2   4   3   48.80    1.00
  -2   4   3   48.10    1.60
   2   4  -3   48.10    1.50
   2   4  -3   49.60    1.70
   2   4  -3   48.90    1.20
  -2   4   3   45.90    1.50
  -1  -4   3  238.28    3.80
   1  -4  -3  238.98    3.90
  -1  -4   3  235.18    4.10
   1  -4  -3  230.98    4.20
  -1  -4   3  230.88    4.10
   1  -4  -3  236.38    4.10
   1   4  -3  236.08    4.20
  -1   4   3  235.98    4.10
   1   4  -3  237.58    4.20
  -1   4   3  231.68    3.70
   1   4  -3  235.28    3.70
   0  -4  -3   26.90    1.10
   0  -4  -3   28.60    1.10
   0  -4   3   28.70    1.00
   0  -4  -3   27.40    0.80
   0  -4   3   28.00    1.20
   0  -4   3   27.30    1.10
   0   4  -3   29.10    1.00
   0   4   3   29.30    1.00
   0   4   3   29.10    1.20
   0   4  -3   28.30    1.10
   0   4   3   28.50    1.10
   0   4  -3   27.60    1.10
   1  -4   3    9.70    0.80
  -1  -4  -3    9.40    0.70
  -1  -4  -3    9.10    0.40
  -1  -4  -3    9.90    0.70
   1  -4   3    9.80    0.70
   1  -4   3    9.50    0.80
   1   4   3   10.40    0.80
  -1   4  -3    8.80    0.60
  -1   4  -3   10.00    0.70
   1   4   3   10.20    0.70
  -1   4  -3    9.20    0.80
   1   4   3    8.90    0.70
   2  -4   3  162.08    3.20
  -2  -4  -3  164.98    3.00
   2  -4   3  160.18    3.30
   2  -4   3  157.28    3.20
  -2  -4  -3  160.38    3.00
  -2   4  -3  167.48    3.30
   2   4   3  158.68    3.30
   2   4   3  162.38    3.20
   2   4   3  161.88    3.10
  -2   4  -3  164.18    2.90
  -2   4  -3  160.78    3.20
   3  -4   3    3.40    0.60
  -3  -4  -3    4.60    0.60
   3  -4   3    2.70    0.50
   3  -4   3    4.10    0.70
  -3   4  -3    4.10    0.50
   3   4   3    3.10    0.60
   3   4   3    4.10    0.50
   3   4   3    3.00    0.50
  -3   4  -3    3.80    0.60
   4  -4   3   70.99    2.20
   4  -4   3   74.59    2.10
   4  -4   3   69.99    2.30
   4   4   3   71.39    2.40
   4   4   3   70.29    2.00
   4   4   3   70.69    1.80
   5  -4   3    3.50    0.70
   5  -4   3    5.00    0.90
   5  -4   3    3.90    0.70
   5   4   3    5.70    0.80
   5   4   3    4.40    0.90
   6  -4   3   -0.30    0.70
   6  -4   3   -0.40    0.40
   6  -4   3   -0.30    0.60
   6   4   3    2.00    0.80
   7  -4   3    2.40    1.00
   7  -4   3    2.40    0.90
   7   4   3    0.10    0.90
   7  -5  -3    0.60    1.00
   7  -5  -3    1.30    0.80
   7  -5  -3   -0.30    0.90
   7   5  -3    0.00    0.90
   6  -5  -3    6.00    1.20
   6  -5  -3    4.90    1.10
   6  -5  -3    2.10    0.90
   6   5  -3    2.90    1.00
   5  -5  -3   16.40    1.50
   5  -5  -3   19.30    1.60
   5  -5  -3   15.40    1.30
   5   5  -3   14.70    1.40
   5   5  -3   17.80    1.20
  -5   5   3   19.80    1.60
   4  -5  -3    1.90    0.70
   4  -5  -3    1.70    0.60
   4  -5  -3    1.30    0.50
  -4  -5   3    3.50    0.70
   4   5  -3    1.80    0.70
   4   5  -3    1.90    0.60
  -4   5   3    2.20    0.70
   3  -5  -3    2.40    0.60
   3  -5  -3    2.20    0.60
   3  -5  -3    2.50    0.70
  -3  -5   3    2.20    0.60
   3   5  -3    2.10    0.50
   3   5  -3    2.60    0.70
  -3   5   3    3.90    0.70
  -3   5   3    0.80    0.60
  -2  -5   3   49.80    1.60
   2  -5  -3   49.60    1.60
   2  -5  -3   50.39    1.80
  -2  -5   3   51.59    1.80
   2  -5  -3   47.30    1.80
  -2   5   3   50.89    1.80
   2   5  -3   50.99    1.80
   2   5  -3   50.49    1.70
  -2   5   3   51.19    1.80
   2   5  -3   52.79    1.50
   1  -5  -3    4.00    0.70
  -1  -5   3    4.80    0.70
  -1  -5   3    6.10    0.70
   1  -5  -3    7.10    0.60
   1  -5  -3    5.70    0.70
  -1  -5   3    5.50    0.50
  -1   5   3    6.30    0.60
   1   5  -3    7.00    0.60
   1   5  -3    4.50    0.70
  -1   5   3    5.30    0.70
  -1   5   3    6.30    0.70
   1   5  -3    4.90    0.70
   0  -5  -3   15.60    0.90
   0  -5  -3   17.00    0.70
   0  -5  -3   17.20    1.00
   0  -5   3   18.40    1.10
   0  -5   3   17.00    0.90
   0  -5   3   17.10    1.10
   0   5   3   17.30    1.00
   0   5  -3   17.10    0.90
   0   5  -3   16.50    1.10
   0   5  -3   18.60    1.10
   0   5   3   17.20    1.00
  -1  -5  -3    0.70    0.40
   1  -5   3    0.60    0.40
  -1  -5  -3    1.60    0.40
   1  -5   3    0.40    0.50
   1  -5   3    0.70    0.40
   1   5   3    1.00    0.50
   1   5   3    0.30    0.40
  -1   5  -3    0.80    0.40
  -1   5  -3    0.70    0.30
   1   5   3    1.00    0.40
  -1   5  -3    0.40    0.40
  -2  -5  -3    3.70    0.60
   2  -5   3    3.10    0.70
   2  -5   3    2.60    0.60
  -2  -5  -3    2.90    0.50
   2  -5   3    3.90    0.60
   2   5   3    2.90    0.60
   2   5   3    2.70    0.60
   2   5   3    3.10    0.60
  -2   5  -3    3.10    0.50
  -2   5  -3    2.50    0.60
  -2   5  -3    1.80    0.60
  -3  -5  -3   18.70    1.10
   3  -5   3   20.20    1.30
   3  -5   3   20.80    1.30
   3  -5   3   20.10    1.30
   3   5   3   18.80    1.20
   3   5   3   21.10    1.30
   3   5   3   19.60    1.10
  -3   5  -3   17.80    1.10
  -3   5  -3   17.90    1.10
   4  -5   3    6.30    1.00
   4  -5   3    6.70    0.90
  -4  -5  -3    4.50    0.70
   4  -5   3    4.20    0.80
   4   5   3    5.10    0.90
   4   5   3    6.40    0.80
   5  -5   3    2.80    0.70
   5  -5   3    2.80    0.80
   5  -5   3    2.80    0.90
   5   5   3    2.40    0.90
   5   5   3    2.10    0.60
   6  -5   3   -0.80    0.70
   6  -5   3   -0.70    0.60
   6  -5   3   -0.80    0.70
   6   5   3    1.50    0.90
   7  -5   3    1.30    0.70
   7  -5   3    0.30    0.80
   6  -6  -3    0.50    0.90
   6  -6  -3   -0.10    0.80
   6  -6  -3    0.50    0.70
   6   6  -3   -0.30    0.90
   5  -6  -3   11.30    1.40
   5  -6  -3    9.00    1.30
   5  -6  -3    8.50    1.20
   5   6  -3    9.80    1.00
   5   6  -3    8.00    1.20
  -5   6   3    9.80    1.30
   4  -6  -3    4.30    0.90
   4  -6  -3    2.40    0.90
  -4  -6   3    3.20    0.80
   4  -6  -3    2.60    0.80
  -4   6   3    2.40    0.80
   4   6  -3    4.70    1.00
   4   6  -3    3.80    0.70
   3  -6  -3    0.00    0.60
   3  -6  -3    0.50    0.50
  -3  -6   3   -0.60    0.50
   3  -6  -3   -0.20    0.60
   3   6  -3   -0.70    0.60
  -3   6   3    0.00    0.60
   3   6  -3    0.00    0.60
   2  -6  -3   34.20    1.70
   2  -6  -3   34.10    1.70
   2  -6  -3   34.50    1.40
  -2  -6   3   34.80    1.60
  -2   6   3   34.90    1.70
   2   6  -3   32.90    1.70
  -2   6   3   35.20    1.70
   2   6  -3   37.20    1.70
   1  -6  -3    0.20    0.60
   1  -6  -3   -0.70    0.40
  -1  -6   3   -0.10    0.50
   1  -6  -3   -0.10    0.30
  -1  -6   3    0.30    0.50
   1   6  -3    0.60    0.50
   1   6  -3   -0.10    0.50
  -1   6   3   -0.30    0.40
   1   6  -3    0.30    0.50
  -1   6   3    0.00    0.50
   0  -6   3    2.10    0.70
   0  -6   3    2.90    0.70
   0  -6  -3    3.00    0.70
   0  -6   3    3.00    0.50
   0  -6  -3    2.80    0.70
   0   6  -3    2.90    0.60
   0   6  -3    3.40    0.70
   0   6   3    3.20    0.60
   0   6   3    3.20    0.70
   0   6   3    3.40    0.70
   0   6  -3    3.70    0.60
   1  -6   3   10.40    0.90
  -1  -6  -3    8.70    0.90
  -1  -6  -3    8.90    0.90
   1  -6   3    8.40    1.00
   1  -6   3    8.60    1.00
   1   6   3    7.30    0.90
  -1   6  -3    7.60    0.80
  -1   6  -3    9.70    1.00
  -1   6  -3    8.60    0.90
   1   6   3    9.00    0.90
   1   6   3    9.30    0.90
   2  -6   3   19.10    1.30
   2  -6   3   17.50    1.20
  -2  -6  -3   21.20    1.20
   2  -6   3   20.50    1.40
  -2   6  -3   18.30    1.30
   2   6   3   18.70    1.30
  -2   6  -3   19.00    1.30
   2   6   3   19.80    1.30
   2   6   3   19.40    1.30
   3  -6   3    1.40    0.70
   3  -6   3    1.40    0.70
   3  -6   3    1.40    0.70
  -3  -6  -3    0.70    0.50
   3   6   3    1.90    0.70
   3   6   3    1.60    0.70
   3   6   3    0.50    0.70
  -3   6  -3    0.20    0.60
   4  -6   3    6.10    1.10
   4  -6   3    6.40    1.00
   4  -6   3    8.00    1.10
   4   6   3    8.00    1.00
   4   6   3    6.70    0.90
   4   6   3    6.40    1.10
   5  -6   3    1.00    0.80
   5  -6   3    1.80    0.60
   5  -6   3    2.70    0.80
   5   6   3    3.10    1.00
   5   6   3    2.20    0.70
   6  -6   3    0.20    0.90
   6  -6   3   -0.10    0.70
   6  -6   3   -0.20    0.80
   6   6   3    0.20    0.90
   5  -7  -3    3.00    1.00
   5  -7  -3    2.30    1.10
   5  -7  -3    3.30    1.10
  -5   7   3    2.70    1.00
   5   7  -3    2.10    1.00
   5   7  -3    2.80    0.80
   4  -7  -3    4.20    1.00
   4  -7  -3    6.80    1.10
  -4  -7   3    3.70    0.90
   4  -7  -3    7.10    1.20
   4   7  -3    3.50    1.00
  -4   7   3    5.60    1.10
   4   7  -3    6.90    1.20
   3  -7  -3    3.10    1.00
  -3  -7   3    1.90    0.80
   3  -7  -3    2.20    0.80
   3  -7  -3    1.90    0.90
   3   7  -3    2.70    0.90
   3   7  -3    2.30    0.80
  -3   7   3    3.40    0.90
  -2  -7   3   -0.60    0.60
   2  -7  -3   -0.50    0.60
   2  -7  -3    0.10    0.60
   2   7  -3   -1.00    0.60
  -2   7   3    0.10    0.70
   2   7  -3    1.90    0.70
  -2   7   3    0.30    0.60
  -1  -7   3    0.40    0.60
  -1  -7   3    2.40    0.70
   1  -7  -3    0.50    0.70
   1  -7  -3    2.00    0.70
  -1   7   3    1.10    0.70
  -1   7   3    0.70    0.50
   1   7  -3    2.10    0.70
   1   7  -3    0.70    0.70
   0  -7  -3    0.90    0.70
   0  -7   3    1.80    0.70
   0  -7   3    1.50    0.70
   0  -7  -3    1.00    0.60
   0   7  -3    0.60    0.60
   0   7   3    0.90    0.50
   0   7   3   -0.50    0.60
   0   7   3    0.60    0.70
   0   7  -3    0.60    0.70
   0   7  -3    1.00    0.60
   1  -7   3    0.70    0.70
   1  -7   3    2.00    0.80
  -1  -7  -3    1.10    0.60
   1  -7   3    1.10    0.60
   1   7   3    0.20    0.50
  -1   7  -3    0.70    0.60
   1   7   3    0.50    0.70
   1   7   3    2.10    0.70
  -1   7  -3    0.80    0.70
   2  -7   3   -0.20    0.70
   2  -7   3   -1.00    0.60
   2  -7   3   -0.20    0.70
  -2  -7  -3   -0.50    0.50
   2   7   3   -0.90    0.50
  -2   7  -3    0.20    0.70
   2   7   3   -0.50    0.50
  -2   7  -3    0.50    0.70
   2   7   3    0.20    0.60
   3  -7   3   22.40    1.80
   3  -7   3   23.00    1.70
   3  -7   3   23.10    1.70
   3   7   3   23.00    1.70
  -3   7  -3   21.50    1.70
   3   7   3   22.20    1.70
   3   7   3   22.20    1.50
   4  -7   3   -1.00    0.70
   4  -7   3   -0.40    0.80
   4  -7   3   -0.40    0.70
   4   7   3   -0.50    0.60
   4   7   3    0.80    0.80
   5  -7   3    1.90    1.00
   5  -7   3    2.50    1.00
   5  -7   3    5.60    1.10
   5   7   3    3.10    1.10
   5   7   3    4.50    1.00
   5  -8  -3    0.10    1.00
   4  -8  -3    7.10    1.30
  -4  -8   3    4.20    1.10
   4   8  -3    5.10    1.20
   4   8  -3    4.90    1.20
  -4   8   3    5.80    1.30
   3  -8  -3    1.30    1.00
   3  -8  -3    2.90    1.00
  -3  -8   3    1.00    0.80
   3   8  -3    1.30    0.90
   3   8  -3    2.90    1.00
  -3   8   3    3.60    1.00
   2  -8  -3    1.10    0.90
   2  -8  -3    2.70    0.80
  -2  -8   3    5.00    1.00
   2   8  -3    1.80    0.90
  -2   8   3    2.30    1.00
  -2   8   3    3.30    1.00
   2   8  -3    2.40    1.00
   1  -8  -3    2.30    1.00
   1  -8  -3    3.00    0.70
  -1  -8   3    1.70    0.80
  -1   8   3    4.40    0.90
   1   8  -3    1.20    0.90
   1   8  -3    2.70    0.80
  -1   8   3    2.70    0.90
   0  -8   3    2.20    0.90
   0  -8  -3    0.90    0.90
   0  -8  -3    1.90    0.70
   0  -8   3    1.10    0.90
   0   8   3    2.20    0.90
   0   8  -3    0.60    0.80
   0   8   3    1.90    0.80
   0   8  -3    1.00    0.80
   1  -8   3   -0.20    0.80
   1  -8   3    0.10    0.70
  -1  -8  -3   -0.30    0.60
   1   8   3    1.10    0.80
   1   8   3    0.00    0.60
   1   8   3    0.20    0.80
  -1   8  -3   -0.60    0.70
  -1   8  -3    1.10    0.90
   2  -8   3    5.60    1.20
   2  -8   3    7.40    1.20
  -2  -8  -3    6.30    1.00
   2   8   3    6.00    1.10
   2   8   3    8.20    1.30
  -2   8  -3    7.40    1.10
  -2   8  -3    7.60    1.30
   2   8   3    6.30    1.10
   3  -8   3    0.00    0.80
   3  -8   3   -0.30    0.80
   3  -8   3    0.70    0.90
   3   8   3    0.70    0.90
  -3   8  -3    1.80    0.90
   3   8   3    0.40    0.80
   4  -8   3   -0.80    0.80
   4   8   3   -0.50    0.80
   4   8   3    0.50    0.90
   2  -9  -3   -0.20    0.90
  -2  -9   3    0.70    0.90
   2  -9  -3    1.70    1.00
   2   9  -3   -0.50    0.90
  -2   9   3    0.00    1.00
  -2   9   3    0.20    0.90
  -1  -9   3    0.30    0.80
   1  -9  -3   -1.00    0.90
   1  -9  -3    0.70    0.90
   1   9  -3    0.00    0.70
  -1   9   3    0.30    1.00
  -1   9   3    0.80    0.90
   0  -9   3    1.30    0.90
   0  -9  -3    1.30    0.90
   0   9   3    0.60    1.00
   0   9   3    3.40    1.10
   0   9  -3    1.00    1.10
   1  -9   3    2.20    1.00
  -1  -9  -3   -0.20    0.80
   1  -9   3   -0.40    1.00
  -1   9  -3   -0.90    0.90
  -2   9  -3   -0.90    1.10
   8   0  -4    6.60    1.20
   8   0  -4    5.30    1.00
   7   0  -4    0.10    0.70
   7   0  -4    0.40    0.60
   6   0  -4  111.89    2.90
   6   0  -4  112.49    3.10
   6   0  -4  107.29    2.70
   5   0  -4   -0.10    0.30
   5   0  -4    0.10    0.40
   5   0  -4   -0.50    0.40
   5   0  -4   -0.30    0.20
   4   0  -4    4.20    0.50
   4   0  -4    4.00    0.40
   4   0  -4    4.20    0.30
   3   0  -4   -0.10    0.20
   3   0  -4   -0.10    0.30
   3   0  -4   -0.10    0.20
   3   0  -4   -0.20    0.20
  -2   0   4  568.64    7.50
   2   0  -4  569.04    7.70
   2   0  -4  560.84    7.80
   2   0  -4  562.24    7.60
  -2   0   4  561.34    7.50
   1   0  -4   -0.10    0.10
  -1   0   4    0.40    0.20
  -1   0   4   -0.10    0.10
   1   0  -4   -0.10    0.10
   0   0   4  287.77    4.00
   0   0  -4  288.67    4.00
   0   0   4  284.97    3.90
   0   0  -4  288.77    4.00
   0   0   4  290.47    4.00
   1   0   4   -1.10    0.10
  -1   0  -4   -1.30    0.20
   1   0   4   -0.90    0.20
   1   0   4   -1.10    0.20
   1   0   4   -0.90    0.10
  -1   0  -4   -0.80    0.20
   2   0   4   24.60    0.60
   2   0   4   25.10    0.80
   2   0   4   24.60    0.60
   2   0   4   25.30    0.80
   3   0   4   -0.10    0.20
   3   0   4   -0.30    0.20
   3   0   4    0.30    0.20
   3   0   4    0.10    0.20
   3   0   4   -0.20    0.30
   4   0   4    1.80    0.30
   4   0   4    1.50    0.20
   4   0   4    2.20    0.40
   4   0   4    2.10    0.40
   5   0   4    0.20    0.20
   5   0   4    0.30    0.40
   5   0   4    0.30    0.40
   5   0   4    0.20    0.30
   6   0   4    0.40    0.40
   6   0   4    1.40    0.50
   6   0   4    1.60    0.50
   6   0   4    1.50    0.60
   7   0   4    0.40    0.60
   7   0   4   -0.30    0.50
   8   0   4    2.00    0.90
   8  -1  -4    7.50    1.30
   8  -1  -4   11.80    1.40
   8   1  -4    8.30    1.20
   8   1  -4    9.80    1.30
   7  -1  -4    0.60    0.70
   7  -1  -4    0.70    0.60
   7  -1  -4    1.10    0.80
   7   1  -4    0.60    0.60
   7   1  -4    1.50    0.70
   6  -1  -4   17.60    1.50
   6  -1  -4   16.90    1.40
   6   1  -4   18.00    1.30
   6   1  -4   17.00    1.30
   6   1  -4   18.70    1.20
   5  -1  -4    9.40    0.60
   5  -1  -4   10.70    0.90
   5  -1  -4    8.70    0.90
   5   1  -4    9.80    0.80
   5   1  -4    9.70    0.80
   5   1  -4   10.40    0.80
   5   1  -4   10.90    0.80
   5   1  -4    9.20    0.40
   4  -1  -4   11.70    0.60
   4  -1  -4   13.40    0.60
   4  -1  -4   12.60    0.80
   4  -1  -4   12.10    0.90
   4   1  -4   13.50    0.80
   4   1  -4   13.20    0.50
   4   1  -4   12.40    0.60
   4   1  -4   12.70    0.70
   3  -1  -4   42.50    1.00
   3  -1  -4   43.80    1.30
   3  -1  -4   42.60    0.90
   3  -1  -4   44.30    1.30
   3   1  -4   43.60    1.00
   3   1  -4   43.50    0.90
  -3   1   4   44.20    1.20
   3   1  -4   43.70    1.20
   3   1  -4   42.80    0.90
   2  -1  -4 1519.15   20.30
   2  -1  -4 1486.55   21.00
   2  -1  -4 1461.85   20.80
  -2  -1   4 1542.75   21.40
  -2  -1   4 1509.05   20.60
  -2   1   4 1526.85   20.70
  -2   1   4 1508.45   20.40
   2   1  -4 1566.84   20.90
   2   1  -4 1501.05   20.90
   2   1  -4 1498.65   20.50
   1  -1  -4  736.43    9.80
  -1  -1   4  751.22   10.40
  -1  -1   4  745.03    9.90
   1  -1  -4  757.62   10.20
   1  -1  -4  747.13   10.00
  -1  -1   4  728.83   10.20
  -1   1   4  739.63   10.00
   1   1  -4  750.82    9.90
  -1   1   4  750.72    9.80
   1   1  -4  730.53   10.00
   0  -1   4 1401.66   18.80
   0  -1  -4 1420.66   19.40
   0  -1   4 1440.16   20.20
   0  -1  -4 1407.76   20.00
   0  -1   4 1396.86   19.60
   0   1  -4 1457.35   20.30
   0   1   4 1447.96   19.70
   0   1   4 1440.36   20.00
   0   1   4 1440.96   20.40
   0   1  -4 1427.36   20.20
   1  -1   4  450.75    6.30
  -1  -1  -4  451.85    6.40
   1  -1   4  458.45    6.10
   1  -1   4  455.65    6.40
  -1  -1  -4  459.95    6.20
   1   1   4  461.05    6.30
   1   1   4  440.16    6.10
  -1   1  -4  460.35    6.40
  -1   1  -4  462.35    6.30
   1   1   4  456.65    6.20
   2  -1   4   98.39    1.90
   2  -1   4   98.69    1.70
   2  -1   4   95.69    1.70
   2   1   4   98.09    1.70
   2   1   4   96.49    1.90
  -2   1  -4   99.59    1.90
   2   1   4   96.19    1.60
  -2   1  -4   96.49    1.70
   3  -1   4   80.29    1.90
   3  -1   4   79.89    1.70
   3  -1   4   77.79    1.50
  -3   1  -4   77.19    1.70
   3   1   4   75.59    1.60
   3   1   4   79.09    1.40
   3   1   4   80.99    1.40
   3   1   4   79.69    1.90
   3   1   4   79.29    1.50
   4  -1   4   41.20    1.30
   4  -1   4   40.90    1.40
   4  -1   4   41.90    1.10
   4  -1   4   43.50    1.50
   4   1   4   43.80    1.20
   4   1   4   43.10    0.90
   4   1   4   44.00    1.40
   4   1   4   39.10    1.20
   5  -1   4    0.90    0.50
   5  -1   4    0.20    0.30
   5  -1   4   -0.30    0.50
   5  -1   4    0.80    0.50
   5   1   4    1.00    0.40
   5   1   4    0.10    0.40
   5   1   4    0.50    0.50
   5   1   4    0.20    0.40
   6  -1   4   28.90    1.50
   6  -1   4   30.00    1.40
   6  -1   4   29.30    1.60
   6   1   4   26.30    1.50
   6   1   4   30.40    1.40
   6   1   4   31.10    1.50
   7  -1   4    1.60    0.70
   7  -1   4    0.40    0.70
   7   1   4    1.50    0.70
   7   1   4    2.00    0.70
   8  -1   4    0.40    0.80
   8  -1   4    1.20    0.90
   8   1   4    0.30    0.70
   8  -2  -4   -1.40    0.80
   8  -2  -4    0.00    0.80
   8   2  -4    0.50    0.70
   7  -2  -4    2.60    0.90
   7  -2  -4    5.00    1.00
   7   2  -4    4.60    0.80
   7   2  -4    3.70    0.90
   7   2  -4    4.20    0.80
   6  -2  -4   70.39    1.80
   6  -2  -4   79.19    2.70
   6  -2  -4   72.59    2.50
   6   2  -4   71.29    2.30
   6   2  -4   69.09    2.20
   6   2  -4   70.49    2.30
   5  -2  -4    3.30    0.50
   5  -2  -4    3.40    0.70
   5  -2  -4    2.30    0.70
   5   2  -4    3.20    0.30
   5   2  -4    3.70    0.60
   5   2  -4    3.60    0.50
   4  -2  -4    4.90    0.50
   4  -2  -4    4.70    0.60
   4  -2  -4    4.10    0.60
  -4   2   4    4.70    0.60
   4   2  -4    4.80    0.60
   4   2  -4    4.40    0.40
   4   2  -4    4.00    0.40
   3  -2  -4  311.27    4.90
   3  -2  -4  323.87    5.20
   3  -2  -4  318.97    5.20
  -3   2   4  321.67    4.80
   3   2  -4  318.37    5.20
   3   2  -4  312.77    4.60
   3   2  -4  317.37    4.50
  -3   2   4  313.97    5.00
   2  -2  -4   28.50    1.00
   2  -2  -4   28.20    0.90
  -2  -2   4   26.80    0.90
   2  -2  -4   26.00    0.90
  -2  -2   4   28.90    1.00
  -2  -2   4   27.40    0.80
  -2   2   4   29.30    0.90
   2   2  -4   27.00    0.80
   2   2  -4   28.40    1.00
  -2   2   4   26.50    0.90
   2   2  -4   27.20    0.60
   1  -2  -4  300.97    4.40
  -1  -2   4  295.57    4.40
  -1  -2   4  300.47    4.50
  -1  -2   4  300.57    4.40
   1  -2  -4  295.97    4.50
   1  -2  -4  297.37    4.40
   1   2  -4  298.77    4.60
  -1   2   4  296.17    4.10
   1   2  -4  298.87    4.50
   1   2  -4  299.77    4.00
  -1   2   4  297.87    4.50
  -1   2   4  297.37    4.50
   0  -2   4 1906.91   27.00
   0  -2  -4 1897.11   26.40
   0  -2  -4 1910.51   26.00
   0  -2   4 1856.61   26.00
   0  -2  -4 1902.41   25.60
   0  -2   4 1831.32   26.00
   0   2  -4 1843.32   26.60
   0   2  -4 1900.11   26.40
   0   2   4 1865.21   26.30
   0   2   4 1803.32   25.80
   0   2  -4 1899.71   25.60
   0   2   4 1871.41   25.40
   1  -2   4  112.39    2.10
   1  -2   4  109.59    2.00
  -1  -2  -4  111.89    1.80
  -1  -2  -4  107.29    2.00
   1  -2   4  104.39    2.00
   1   2   4  107.09    2.00
  -1   2  -4  109.59    2.00
   1   2   4  110.29    2.00
  -1   2  -4  104.59    2.00
   2  -2   4   26.50    1.00
   2  -2   4   25.00    0.90
  -2  -2  -4   24.90    0.70
   2  -2   4   25.30    0.90
  -2  -2  -4   25.80    0.70
   2   2   4   25.90    1.00
   2   2   4   27.10    0.80
   2   2   4   25.50    0.50
   2   2   4   25.80    0.90
  -2   2  -4   24.50    0.80
  -2   2  -4   24.90    0.80
   3  -2   4    2.10    0.50
   3  -2   4    1.70    0.40
   3  -2   4    1.90    0.30
   3   2   4    2.00    0.30
   3   2   4    1.50    0.30
  -3   2  -4    1.20    0.30
  -3   2  -4    1.60    0.30
   3   2   4    1.50    0.40
   3   2   4    1.70    0.40
   4  -2   4   11.50    0.80
   4  -2   4    8.40    0.60
   4  -2   4    9.50    0.80
   4   2   4    8.90    0.60
   4   2   4    9.00    0.60
   4   2   4    8.70    0.50
   4   2   4   10.50    0.90
   4   2   4    8.90    0.80
   5  -2   4   41.50    1.30
   5  -2   4   43.20    1.70
   5  -2   4   43.50    1.80
   5   2   4   42.60    1.40
   5   2   4   42.90    1.60
   5   2   4   40.50    1.80
   6  -2   4    8.90    1.10
   6  -2   4    8.70    0.70
   6  -2   4    7.90    1.00
   6  -2   4   11.00    1.10
   6   2   4   10.20    1.20
   6   2   4    9.10    1.00
   7  -2   4    0.40    0.70
   7  -2   4    0.20    0.70
   7   2   4    0.20    0.70
   7   2   4    0.10    0.70
   8  -2   4   -0.40    0.80
   8  -2   4    0.00    0.80
   8   2   4    1.00    0.90
   8  -3  -4    0.10    0.80
   7  -3  -4   23.10    1.90
   7  -3  -4   18.20    1.70
   7   3  -4   17.40    1.50
   7   3  -4   16.90    1.70
   6  -3  -4   12.70    1.20
   6  -3  -4   12.50    0.90
   6  -3  -4   14.10    1.40
   6   3  -4   13.20    1.30
   5  -3  -4    0.00    0.30
   5  -3  -4   -0.30    0.50
   5  -3  -4    0.80    0.60
   5   3  -4   -0.10    0.30
   5   3  -4    0.10    0.50
   4  -3  -4   10.40    0.90
   4  -3  -4   10.20    1.00
   4  -3  -4   11.30    0.80
   4   3  -4   10.20    0.90
  -4   3   4   10.80    0.90
   4   3  -4    9.10    0.60
   4   3  -4    9.90    0.60
  -3  -3   4    0.20    0.30
   3  -3  -4   -0.40    0.30
   3  -3  -4    0.20    0.40
   3  -3  -4    0.30    0.40
  -3  -3   4    0.10    0.30
  -3   3   4   -0.20    0.20
   3   3  -4    0.10    0.30
   3   3  -4   -0.30    0.40
  -3   3   4    0.30    0.40
   3   3  -4   -0.20    0.20
   2  -3  -4  690.13    9.90
  -2  -3   4  711.33    9.70
  -2  -3   4  691.63    9.70
   2  -3  -4  700.83   10.00
   2  -3  -4  687.43    9.90
  -2  -3   4  707.63    9.90
   2   3  -4  699.43    9.80
  -2   3   4  701.63   10.00
  -2   3   4  693.83    9.90
   2   3  -4  703.13   10.20
   2   3  -4  696.53    9.20
  -2   3   4  701.03    9.40
   1  -3  -4  708.63    9.70
  -1  -3   4  711.53    9.70
  -1  -3   4  712.13    9.90
  -1  -3   4  706.43    9.90
   1  -3  -4  698.93   10.00
   1  -3  -4  698.13    9.80
  -1   3   4  697.33    9.50
  -1   3   4  690.63    9.80
   1   3  -4  699.33   10.10
   1   3  -4  715.73    9.90
  -1   3   4  717.03   10.00
   1   3  -4  711.53    9.30
   0  -3  -4   83.39    1.90
   0  -3  -4   84.39    1.70
   0  -3   4   87.49    1.80
   0  -3  -4   90.89    1.50
   0  -3   4   85.59    1.90
   0  -3   4   85.59    1.90
   0   3  -4   82.79    1.60
   0   3  -4   85.59    1.90
   0   3   4   86.29    1.90
   0   3   4   84.49    1.90
   0   3  -4   85.79    1.90
   0   3   4   85.99    1.70
  -1  -3  -4   18.50    0.70
   1  -3   4   18.20    0.80
   1  -3   4   18.10    0.80
  -1  -3  -4   19.10    0.80
   1  -3   4   18.10    0.80
   1   3   4   18.30    0.80
  -1   3  -4   18.30    0.80
   1   3   4   17.00    0.80
  -1   3  -4   19.40    0.80
  -1   3  -4   17.70    0.80
   1   3   4   18.40    0.80
  -2  -3  -4  235.88    3.70
   2  -3   4  231.58    4.00
   2  -3   4  235.58    4.10
  -2  -3  -4  233.08    3.60
   2  -3   4  226.28    4.00
   2   3   4  233.08    3.90
   2   3   4  232.38    4.10
  -2   3  -4  228.98    3.80
   2   3   4  234.78    3.80
  -2   3  -4  231.48    3.90
   3  -3   4   72.69    1.90
   3  -3   4   70.89    2.00
   3  -3   4   73.59    1.80
   3   3   4   70.49    1.70
  -3   3  -4   72.89    1.70
  -3   3  -4   72.09    1.70
   3   3   4   70.29    1.80
   3   3   4   67.89    2.00
   4  -3   4   42.10    1.50
   4  -3   4   41.90    1.40
   4  -3   4   42.20    1.70
   4   3   4   41.80    1.20
   4   3   4   43.60    1.70
  -4   3  -4   45.10    1.30
   4   3   4   41.80    1.50
   5  -3   4    0.00    0.50
   5  -3   4   -0.60    0.50
   5  -3   4    0.40    0.40
   5   3   4    0.60    0.60
   5   3   4    0.10    0.40
   5   3   4   -0.20    0.30
   6  -3   4    1.30    0.50
   6  -3   4    0.80    0.60
   6  -3   4    1.90    0.80
   6   3   4    2.00    0.60
   6   3   4    0.40    0.70
   7  -3   4    2.20    0.80
   7  -3   4    0.20    0.70
   7  -3   4    1.80    0.90
   7   3   4    2.00    0.90
   8   3   4    0.90    1.00
   8   4  -4    0.70    1.20
   7  -4  -4   -0.20    0.80
   7  -4  -4    1.00    0.70
   7  -4  -4   -0.70    0.80
   7   4  -4    1.40    0.80
   7   4  -4    0.20    0.80
   6  -4  -4   41.70    2.20
   6  -4  -4   38.30    1.80
   6  -4  -4   41.40    2.20
   6   4  -4   43.90    2.10
   5  -4  -4    0.40    0.50
   5  -4  -4   -0.90    0.50
   5  -4  -4   -0.30    0.60
   5   4  -4   -0.90    0.50
  -5   4   4    0.60    0.60
   5   4  -4   -0.40    0.30
   4  -4  -4    0.40    0.50
   4  -4  -4    0.40    0.40
   4  -4  -4    0.60    0.50
   4   4  -4   -0.10    0.50
  -4   4   4    0.80    0.50
   4   4  -4    0.40    0.30
   3  -4  -4    3.70    0.60
  -3  -4   4    4.30    0.50
   3  -4  -4    4.00    0.60
   3  -4  -4    4.50    0.70
  -3  -4   4    4.70    0.60
   3   4  -4    3.90    0.70
   3   4  -4    4.10    0.40
  -3   4   4    3.70    0.60
  -3   4   4    3.90    0.60
   3   4  -4    2.90    0.50
   2  -4  -4  142.39    2.80
   2  -4  -4  138.39    2.90
  -2  -4   4  141.39    2.70
  -2  -4   4  140.99    2.90
   2  -4  -4  133.79    2.90
  -2   4   4  138.29    3.00
  -2   4   4  141.49    2.20
   2   4  -4  138.99    2.80
   2   4  -4  137.69    2.40
   2   4  -4  140.59    3.00
  -1  -4   4   24.70    1.10
  -1  -4   4   25.20    1.00
   1  -4  -4   28.40    1.10
  -1  -4   4   26.80    1.20
   1  -4  -4   27.50    1.20
   1  -4  -4   26.30    0.90
  -1   4   4   27.70    1.20
   1   4  -4   27.10    1.10
   1   4  -4   27.00    1.20
  -1   4   4   25.70    0.80
  -1   4   4   29.40    1.20
   1   4  -4   27.30    0.90
   0  -4  -4  512.45    7.70
   0  -4   4  503.35    7.60
   0  -4   4  503.65    7.70
   0  -4  -4  501.25    7.00
   0  -4   4  513.05    7.40
   0  -4  -4  517.05    7.40
   0   4   4  501.75    7.70
   0   4   4  499.65    7.40
   0   4  -4  505.05    7.60
   0   4   4  507.15    7.50
   0   4  -4  500.25    7.20
   0   4  -4  495.35    7.70
  -1  -4  -4   33.00    0.60
  -1  -4  -4   35.00    1.30
   1  -4   4   32.40    1.20
   1  -4   4   32.90    1.30
  -1  -4  -4   33.60    1.10
   1  -4   4   33.90    1.20
   1   4   4   33.20    1.20
  -1   4  -4   32.00    1.30
  -1   4  -4   34.50    1.20
   1   4   4   33.80    1.20
  -1   4  -4   33.60    1.10
   1   4   4   31.90    1.20
   2  -4   4   29.70    1.20
  -2  -4  -4   29.00    1.10
   2  -4   4   27.70    1.20
  -2  -4  -4   27.40    1.00
   2  -4   4   28.60    1.30
  -2   4  -4   27.80    1.00
  -2   4  -4   29.00    1.20
   2   4   4   28.20    1.20
   2   4   4   29.70    1.20
  -2   4  -4   29.20    1.20
   2   4   4   29.80    1.30
   3  -4   4   22.50    1.20
   3  -4   4   22.80    1.20
   3  -4   4   21.80    1.10
  -3  -4  -4   19.00    0.90
   3   4   4   21.80    1.20
  -3   4  -4   20.10    0.90
  -3   4  -4   23.40    1.10
   3   4   4   22.70    1.10
   3   4   4   22.20    1.00
   4  -4   4   18.20    1.30
   4  -4   4   18.10    1.10
   4  -4   4   20.20    1.30
   4   4   4   16.60    1.30
   4   4   4   16.60    1.10
   4   4   4   16.30    0.90
   5  -4   4   13.00    1.20
   5  -4   4   12.20    1.00
   5  -4   4   14.20    1.30
   5   4   4   13.10    1.10
   5   4   4   11.40    0.80
   5   4   4   14.40    1.30
   6  -4   4    6.30    0.90
   6  -4   4    6.30    1.00
   6  -4   4    6.40    1.10
   6   4   4    6.10    1.00
   6   4   4    6.10    1.10
   7  -4   4    1.40    1.00
   7  -4   4    4.20    1.00
   7   4   4    1.50    1.00
   7  -5  -4   10.20    1.30
   7  -5  -4   10.40    1.60
   7  -5  -4   10.80    1.50
   7   5  -4    9.30    1.40
   6  -5  -4    0.20    0.80
   6  -5  -4    1.10    0.80
   6  -5  -4   -0.20    0.70
   6   5  -4    0.70    0.70
   5  -5  -4    5.60    1.00
   5  -5  -4    6.60    0.90
   5  -5  -4    6.00    1.00
  -5   5   4    7.60    1.10
   5   5  -4    7.00    1.10
   5   5  -4    6.60    0.80
   4  -5  -4    0.60    0.60
  -4  -5   4    0.10    0.50
   4  -5  -4    0.20    0.50
   4  -5  -4    0.30    0.60
  -4   5   4   -0.10    0.50
   4   5  -4    0.10    0.50
   4   5  -4    0.80    0.50
   3  -5  -4   25.80    1.30
   3  -5  -4   23.10    1.40
  -3  -5   4   27.00    1.40
   3  -5  -4   25.30    1.40
   3   5  -4   23.80    1.40
   3   5  -4   26.60    1.40
  -3   5   4   25.00    1.40
  -3   5   4   25.40    1.30
  -2  -5   4   41.20    1.60
   2  -5  -4   40.90    1.70
  -2  -5   4   40.90    1.30
  -2  -5   4   42.50    1.50
   2  -5  -4   45.40    1.70
   2  -5  -4   42.20    1.50
   2   5  -4   40.30    1.20
  -2   5   4   40.20    1.60
   2   5  -4   44.60    1.60
   2   5  -4   46.90    1.80
  -2   5   4   45.70    1.70
   1  -5  -4    1.50    0.40
  -1  -5   4    1.10    0.40
   1  -5  -4    1.00    0.40
   1  -5  -4    0.40    0.50
  -1  -5   4    0.60    0.50
   1   5  -4    1.20    0.50
   1   5  -4    0.90    0.50
   1   5  -4    0.60    0.30
  -1   5   4    0.30    0.50
  -1   5   4    0.80    0.30
   0  -5  -4    9.20    0.90
   0  -5   4    7.80    0.70
   0  -5   4    7.10    0.80
   0  -5  -4    9.00    0.80
   0  -5  -4    7.40    0.50
   0  -5   4    7.10    0.70
   0   5   4    7.90    0.70
   0   5  -4    8.80    0.70
   0   5   4    7.00    0.80
   0   5  -4    6.60    0.70
   0   5   4    8.30    0.80
   0   5  -4    7.40    0.70
   1  -5   4    5.00    0.70
   1  -5   4    4.10    0.60
  -1  -5  -4    5.50    0.60
   1  -5   4    4.00    0.70
  -1  -5  -4    4.80    0.70
  -1   5  -4    4.40    0.70
  -1   5  -4    5.30    0.60
   1   5   4    6.80    0.70
  -1   5  -4    5.30    0.70
   1   5   4    5.30    0.70
   1   5   4    5.10    0.70
   2  -5   4   85.09    2.40
  -2  -5  -4   83.89    2.10
   2  -5   4   83.89    2.30
   2  -5   4   90.09    2.50
   2   5   4   87.79    2.30
  -2   5  -4   85.99    2.40
  -2   5  -4   89.59    2.40
  -2   5  -4   86.19    2.10
   2   5   4   85.49    2.30
   2   5   4   83.99    2.40
   3  -5   4   71.59    2.30
  -3  -5  -4   71.39    2.00
   3  -5   4   72.79    2.20
   3  -5   4   72.29    2.30
   3   5   4   74.19    2.20
  -3   5  -4   75.89    2.20
   3   5   4   76.39    2.40
   3   5   4   69.19    2.00
   4  -5   4    1.20    0.70
   4  -5   4    1.10    0.60
   4  -5   4    0.80    0.60
   4   5   4    0.50    0.60
   4   5   4    0.60    0.50
   4   5   4    0.10    0.50
   5  -5   4   -0.20    0.60
   5  -5   4    0.40    0.70
   5  -5   4   -1.00    0.60
   5   5   4    1.30    0.80
   5   5   4   -0.20    0.60
   6  -5   4    1.50    0.80
   6  -5   4    0.40    0.60
   6  -5   4   -0.70    0.80
   6   5   4   -0.40    0.70
   7  -5   4    1.50    0.90
   7  -5   4    1.40    0.90
   6  -6  -4    0.60    0.90
   6  -6  -4    0.70    0.90
   6  -6  -4    1.90    0.90
   6   6  -4    1.90    1.00
   5  -6  -4    6.80    1.10
   5  -6  -4    6.20    1.00
   5  -6  -4    4.50    1.00
   5   6  -4    6.20    1.10
   5   6  -4    5.80    0.90
  -5   6   4    5.30    1.10
  -4  -6   4    1.40    0.70
   4  -6  -4    2.90    0.80
   4  -6  -4    0.00    0.60
   4  -6  -4    1.30    0.80
   4   6  -4    0.90    0.70
  -4   6   4    1.30    0.60
   4   6  -4    1.50    0.70
  -3  -6   4    4.30    0.80
   3  -6  -4    3.90    0.80
   3  -6  -4    2.30    0.80
   3  -6  -4    3.10    0.70
  -3   6   4    3.00    0.80
  -3   6   4    2.40    0.80
   3   6  -4    2.90    0.80
   3   6  -4    2.90    0.70
   2  -6  -4   17.30    1.30
  -2  -6   4   16.40    1.30
   2  -6  -4   16.70    1.20
   2  -6  -4   17.30    1.30
  -2   6   4   18.70    1.30
   2   6  -4   18.20    1.30
   2   6  -4   18.60    1.30
  -2   6   4   14.90    1.20
  -1  -6   4    9.00    0.80
  -1  -6   4    9.00    1.00
   1  -6  -4    9.00    1.00
  -1  -6   4    9.00    0.90
   1  -6  -4    9.40    1.00
  -1   6   4   10.20    1.00
  -1   6   4   10.40    1.00
   1   6  -4   10.90    0.90
   1   6  -4    9.70    1.00
   1   6  -4    8.00    1.00
   0  -6  -4   20.60    1.20
   0  -6  -4   16.30    1.10
   0  -6   4   16.60    1.10
   0  -6   4   18.40    1.30
   0  -6   4   17.50    1.00
   0   6  -4   18.20    1.30
   0   6  -4   18.80    1.10
   0   6  -4   17.50    1.00
   0   6   4   17.70    1.30
   0   6   4   18.60    1.20
   0   6   4   16.10    1.00
   1  -6   4    0.30    0.60
  -1  -6  -4    0.20    0.50
   1  -6   4    0.40    0.40
  -1  -6  -4    0.50    0.40
   1  -6   4   -0.10    0.50
   1   6   4   -0.20    0.40
  -1   6  -4    0.80    0.60
   1   6   4    0.80    0.50
  -1   6  -4    0.70    0.50
  -1   6  -4    0.10    0.50
   2  -6   4   -0.50    0.50
   2  -6   4    1.00    0.60
   2  -6   4    2.20    0.60
  -2  -6  -4    0.90    0.50
  -2   6  -4    0.40    0.60
   2   6   4    1.80    0.60
  -2   6  -4   -0.10    0.60
  -2   6  -4    0.60    0.50
   2   6   4    0.90    0.60
   3  -6   4   11.20    1.20
   3  -6   4   11.40    1.20
  -3  -6  -4   11.60    1.00
   3  -6   4    9.70    1.10
   3   6   4   12.50    1.20
  -3   6  -4   12.50    1.20
   3   6   4   12.90    1.20
   4  -6   4    0.80    0.70
   4  -6   4    2.10    0.80
   4  -6   4    1.10    0.70
   4   6   4    0.80    0.70
   4   6   4   -0.10    0.70
   4   6   4    0.70    0.70
   5  -6   4   -0.50    0.60
   5  -6   4   -0.60    0.80
   5  -6   4    0.00    0.80
   5   6   4   -0.90    0.80
   5   6   4    0.80    0.50
   6  -6   4    0.20    0.90
   6  -6   4    0.30    0.80
   6  -6   4    0.60    0.70
   6   6   4    1.90    0.90
   5  -7  -4   -0.20    0.90
   5  -7  -4    0.40    0.90
   5  -7  -4    1.70    0.90
   5   7  -4    0.60    0.70
   5   7  -4    0.30    0.90
  -5   7   4   -1.60    0.80
   4  -7  -4    1.10    0.90
   4  -7  -4    1.20    0.90
  -4  -7   4    0.90    0.80
   4  -7  -4    0.80    0.80
   4   7  -4    1.30    0.90
   4   7  -4    0.70    0.90
  -4   7   4    0.60    0.90
   3  -7  -4   37.30    1.80
   3  -7  -4   42.60    2.20
  -3  -7   4   38.90    2.00
   3  -7  -4   40.30    2.10
   3   7  -4   40.30    2.10
   3   7  -4   40.40    2.00
  -3   7   4   38.40    2.10
   2  -7  -4    8.20    1.10
   2  -7  -4    7.70    1.00
  -2  -7   4    8.20    1.10
   2   7  -4    8.20    1.10
  -2   7   4    7.70    1.10
  -2   7   4    7.70    1.10
   2   7  -4    8.00    1.10
   1  -7  -4    1.90    0.70
   1  -7  -4    2.40    0.80
  -1  -7   4    1.90    0.70
  -1  -7   4    1.30    0.70
   1   7  -4    2.30    0.80
  -1   7   4    1.50    0.70
  -1   7   4    2.10    0.80
   1   7  -4    1.80    0.70
   0  -7   4    0.70    0.60
   0  -7  -4    0.60    0.70
   0  -7   4    0.40    0.60
   0  -7  -4    0.70    0.60
   0   7  -4   -0.80    0.50
   0   7   4    0.70    0.70
   0   7  -4   -0.60    0.60
   0   7   4    0.30    0.60
   0   7  -4   -0.10    0.50
   1  -7   4   -0.30    0.50
   1  -7   4   -0.50    0.60
   1  -7   4   -0.40    0.60
  -1  -7  -4    0.10    0.50
  -1   7  -4   -0.30    0.60
   1   7   4    0.00    0.70
  -1   7  -4    0.60    0.70
   1   7   4   -0.50    0.50
  -1   7  -4    0.00    0.70
   1   7   4   -0.70    0.50
  -2  -7  -4    0.40    0.50
   2  -7   4    0.60    0.70
   2  -7   4   -0.10    0.60
   2  -7   4    0.30    0.70
  -2   7  -4   -0.60    0.70
   2   7   4    0.00    0.60
   2   7   4    1.00    0.70
  -2   7  -4    0.20    0.60
   2   7   4    1.10    0.70
   3  -7   4    2.00    0.80
   3  -7   4    1.00    0.80
   3  -7   4    3.10    0.90
   3   7   4    0.60    0.70
   3   7   4    1.20    0.80
   3   7   4    0.40    0.70
  -3   7  -4    0.90    0.80
   4  -7   4    0.70    0.80
   4  -7   4   -0.30    0.80
   4  -7   4    1.10    0.80
   4   7   4    0.90    0.90
   4   7   4   -1.00    0.70
   5  -7   4   -0.20    0.80
   5  -7   4    0.40    0.80
   5  -7   4   -0.10    0.90
   5   7   4    0.90    0.70
   5   7   4   -0.90    0.90
  -4  -8   4   -0.50    0.70
   4  -8  -4    0.80    1.00
   4   8  -4    0.90    0.90
   4   8  -4   -1.10    0.90
  -4   8   4    0.50    1.00
  -3  -8   4    2.50    0.90
   3  -8  -4    2.70    1.00
   3  -8  -4    1.50    1.00
   3   8  -4    4.20    1.10
   3   8  -4    2.80    1.00
  -3   8   4    3.50    1.00
   2  -8  -4   -0.90    0.70
  -2  -8   4   -0.20    0.70
   2  -8  -4   -0.80    0.70
  -2   8   4    0.60    0.80
  -2   8   4   -0.40    0.80
   2   8  -4    0.30    0.70
   2   8  -4    0.00    0.80
   1  -8  -4    3.60    0.90
   1  -8  -4    4.80    1.10
  -1  -8   4    3.30    0.90
   1   8  -4    3.00    0.90
  -1   8   4    4.30    1.00
   1   8  -4    3.30    1.00
  -1   8   4    4.10    1.00
   0  -8   4    3.40    1.00
   0  -8  -4    2.80    0.90
   0  -8  -4    4.50    0.90
   0  -8   4    4.10    0.90
   0   8  -4    3.90    1.00
   0   8   4    4.80    1.10
   0   8  -4    3.40    1.00
   0   8   4    4.00    0.90
   1  -8   4    2.40    1.00
  -1  -8  -4    1.80    0.80
   1  -8   4    0.30    0.80
   1   8   4    1.70    1.00
   1   8   4    0.70    0.80
  -1   8  -4    1.10    0.80
  -1   8  -4    1.60    0.90
   2  -8   4   10.20    1.40
   2  -8   4    7.90    1.20
  -2   8  -4    8.00    1.20
   2   8   4   10.10    1.30
   2   8   4   12.30    1.50
  -2   8  -4    9.80    1.40
   2   8   4    7.80    1.10
   3  -8   4    0.50    0.90
   3  -8   4    0.30    0.80
   3  -8   4    2.70    1.00
  -3   8  -4    1.30    0.90
   3   8   4    0.00    0.80
   3   8   4    1.40    0.90
   4  -8   4    1.10    0.90
   4   8   4   -0.70    0.90
   2  -9  -4   -1.20    0.90
  -2  -9   4   -0.50    0.90
   2  -9  -4    0.80    0.90
  -2   9   4   -0.10    0.90
   2   9  -4   -0.70    0.90
  -2   9   4   -1.20    1.00
   1  -9  -4   -0.20    1.00
   1  -9  -4    0.00    0.80
  -1  -9   4    0.80    0.90
  -1   9   4    0.50    1.00
  -1   9   4    1.40    1.00
   1   9  -4    0.40    0.80
   0  -9   4   -0.80    0.80
   0  -9  -4    1.60    0.90
   0   9   4   -0.40    0.90
   0   9   4    1.20    1.00
   0   9  -4   -1.30    0.90
   1  -9   4    0.50    1.00
   1  -9   4   -1.20    0.80
  -1  -9  -4   -0.80    0.80
  -1   9  -4    1.20    1.00
   1   9   4    0.40    1.10
  -2   9  -4    1.20    1.10
   8   0  -5    0.80    0.80
   8   0  -5   -0.70    0.80
   7   0  -5   44.70    2.10
   7   0  -5   47.60    2.20
   6   0  -5   -0.30    0.50
   6   0  -5    0.70    0.50
   6   0  -5   -0.30    0.50
   5   0  -5   11.70    0.90
   5   0  -5   10.10    0.90
   5   0  -5   10.50    0.70
   5   0  -5   10.90    0.50
   4   0  -5    0.00    0.20
   4   0  -5   -0.50    0.30
   4   0  -5    0.10    0.30
   3   0  -5  961.20   13.20
   3   0  -5  972.00   13.20
   3   0  -5  959.70   13.00
   2   0  -5   -0.30    0.20
   2   0  -5   -0.30    0.10
   2   0  -5   -0.30    0.20
  -2   0   5   -0.10    0.20
  -2   0   5    0.00    0.10
  -1   0   5  466.05    6.00
  -1   0   5  459.15    6.30
   1   0  -5  447.66    6.30
  -1   0   5  451.35    6.30
   1   0  -5  450.85    6.20
   0   0  -5    0.20    0.10
   0   0   5    0.20    0.20
   0   0   5    0.20    0.20
   0   0  -5    0.00    0.20
   0   0   5   -0.20    0.10
  -1   0  -5  142.19    2.40
  -1   0  -5  145.69    2.30
   1   0   5  144.09    2.30
   1   0   5  144.39    2.30
   1   0   5  145.69    2.30
   1   0   5  144.09    2.00
   2   0   5    0.00    0.10
   2   0   5    0.10    0.20
   2   0   5    0.10    0.20
  -2   0  -5   -0.20    0.10
   2   0   5    0.10    0.10
  -2   0  -5    1.40    0.30
   3   0   5   33.40    0.90
   3   0   5   33.00    0.90
   3   0   5   34.00    1.20
   3   0   5   35.60    1.10
   4   0   5   -0.20    0.20
   4   0   5    0.30    0.30
   4   0   5   -0.10    0.10
   4   0   5    0.00    0.20
   5   0   5   11.00    0.90
   5   0   5   11.20    0.60
   5   0   5   12.20    1.00
   5   0   5   12.00    0.80
   6   0   5   -0.90    0.50
   6   0   5   -0.20    0.40
   6   0   5    0.40    0.50
   7   0   5   -0.40    0.60
   7   0   5    0.40    0.60
   8   0   5   -0.10    0.90
   8  -1  -5    0.60    0.80
   8  -1  -5    0.10    0.90
   8   1  -5   -0.10    0.70
   8   1  -5    0.70    0.80
   7  -1  -5   21.40    1.60
   7  -1  -5   19.10    1.70
   7   1  -5   21.30    1.50
   7   1  -5   22.40    1.50
   6  -1  -5    1.00    0.70
   6  -1  -5    0.40    0.60
   6   1  -5    0.20    0.40
   6   1  -5    1.30    0.60
   6   1  -5    0.60    0.60
   5  -1  -5    2.80    0.60
   5  -1  -5    3.90    0.40
   5  -1  -5    3.30    0.60
   5   1  -5    3.30    0.60
   5   1  -5    3.60    0.30
   5   1  -5    3.30    0.60
   5   1  -5    4.20    0.50
   4  -1  -5    5.10    0.60
   4  -1  -5    5.10    0.40
   4  -1  -5    4.40    0.40
   4  -1  -5    4.10    0.60
   4   1  -5    4.00    0.60
   4   1  -5    4.60    0.50
   4   1  -5    4.80    0.30
   4   1  -5    5.50    0.40
   3  -1  -5    0.40    0.20
   3  -1  -5    0.70    0.20
   3  -1  -5    0.50    0.30
   3   1  -5    0.70    0.30
   3   1  -5    0.70    0.20
   3   1  -5    0.30    0.20
  -3   1   5    0.80    0.20
  -3   1   5    0.70    0.30
   2  -1  -5    6.90    0.50
   2  -1  -5    6.10    0.50
  -2  -1   5    7.10    0.50
   2  -1  -5    6.60    0.30
  -2  -1   5    5.80    0.40
   2   1  -5    6.40    0.30
   2   1  -5    7.10    0.40
   2   1  -5    7.10    0.50
  -2   1   5    7.90    0.50
  -2   1   5    6.80    0.50
   1  -1  -5   74.89    1.40
  -1  -1   5   74.39    1.50
  -1  -1   5   75.99    1.40
   1  -1  -5   73.89    1.50
   1  -1  -5   74.09    1.20
  -1  -1   5   73.99    1.50
   1   1  -5   74.19    1.50
   1   1  -5   73.29    1.40
  -1   1   5   75.79    1.50
  -1   1   5   73.39    1.40
   0  -1  -5 1657.83   21.70
   0  -1  -5 1641.34   22.70
   0  -1   5 1632.94   21.90
   0  -1   5 1653.23   23.00
   0  -1   5 1598.74   23.00
   0  -1   5 1638.74   22.70
   0  -1  -5 1578.64   21.90
   0   1  -5 1599.04   21.30
   0   1   5 1607.64   22.60
   0   1   5 1597.24   22.30
   0   1   5 1563.34   22.60
   0   1  -5 1581.74   23.10
   1  -1   5   22.80    0.80
   1  -1   5   24.70    0.60
  -1  -1  -5   23.50    0.70
   1  -1   5   23.40    0.70
  -1  -1  -5   23.10    0.40
  -1   1  -5   24.80    0.70
   1   1   5   23.70    0.80
   1   1   5   22.80    0.70
  -1   1  -5   23.90    0.80
   1   1   5   23.40    0.50
   2  -1   5  258.87    3.90
   2  -1   5  254.47    4.10
   2  -1   5  256.97    3.80
  -2  -1  -5  261.87    3.70
   2   1   5  258.07    3.70
   2   1   5  257.07    3.50
  -2   1  -5  257.37    3.80
   2   1   5  258.37    3.80
  -2   1  -5  262.27    4.10
   2   1   5  255.67    4.10
   3  -1   5  714.33    9.80
   3  -1   5  719.33   10.30
   3  -1   5  730.43    9.90
   3  -1   5  719.23   10.20
   3   1   5  719.53    9.60
   3   1   5  717.03    9.70
  -3   1  -5  711.73   10.20
   3   1   5  718.03   10.20
  -3   1  -5  727.83    9.70
   3   1   5  731.43    9.90
   4  -1   5   14.60    0.90
   4  -1   5   13.50    0.90
   4  -1   5   15.30    0.80
   4  -1   5   13.00    0.60
   4   1   5   15.20    0.70
   4   1   5   15.40    0.60
   4   1   5   13.50    0.90
   4   1   5   14.40    0.70
   5  -1   5   90.59    2.50
   5  -1   5   92.09    2.50
   5  -1   5   89.09    2.20
   5  -1   5   89.59    1.80
   5   1   5   91.59    2.10
   5   1   5   91.19    2.50
   5   1   5   90.89    1.70
   5   1   5   87.09    2.20
   5   1   5   88.69    2.50
   6  -1   5    0.60    0.60
   6  -1   5    0.00    0.40
   6  -1   5    0.10    0.40
   6   1   5    1.90    0.60
   6   1   5    0.50    0.50
   6   1   5    0.70    0.60
   7  -1   5   -0.40    0.70
   7  -1   5    0.70    0.60
   7   1   5   -0.30    0.60
   7   1   5   -0.10    0.60
   8  -1   5    1.40    0.80
   8  -1   5    1.20    0.90
   8   1   5    1.00    0.80
   8  -2  -5    1.80    1.00
   8  -2  -5    1.10    0.90
   8   2  -5    0.90    0.80
   7  -2  -5    4.20    1.00
   7  -2  -5    4.70    1.00
   7   2  -5    2.10    0.70
   7   2  -5    3.30    0.90
   7   2  -5    3.10    0.80
   6  -2  -5   28.30    1.60
   6  -2  -5   27.40    1.70
   6  -2  -5   29.10    1.20
   6   2  -5   29.40    1.50
   6   2  -5   27.10    1.50
   6   2  -5   28.90    1.50
   5  -2  -5    4.20    0.50
   5  -2  -5    4.80    0.70
   5  -2  -5    4.50    0.80
   5   2  -5    4.80    0.40
   5   2  -5    4.00    0.70
   4  -2  -5   46.80    1.60
   4  -2  -5   46.10    1.60
   4  -2  -5   47.00    1.30
   4   2  -5   45.50    1.10
  -4   2   5   45.80    1.50
   4   2  -5   49.10    1.60
   4   2  -5   45.00    1.10
  -3  -2   5   97.29    2.10
   3  -2  -5   93.69    2.20
   3  -2  -5   93.99    2.20
   3  -2  -5   91.29    2.00
  -3   2   5  102.29    2.20
   3   2  -5   95.69    1.80
   3   2  -5   97.49    2.20
   3   2  -5   95.29    1.60
  -3   2   5   97.19    1.90
  -2  -2   5   17.60    0.70
   2  -2  -5   16.70    0.80
  -2  -2   5   17.60    0.80
   2  -2  -5   16.10    0.80
  -2  -2   5   17.00    0.70
   2  -2  -5   17.00    0.80
   2   2  -5   19.80    0.70
   2   2  -5   16.90    0.80
   2   2  -5   17.30    0.40
  -2   2   5   18.20    0.80
  -2   2   5   18.20    0.80
   1  -2  -5   16.80    0.70
   1  -2  -5   17.40    0.70
  -1  -2   5   18.60    0.80
  -1  -2   5   19.00    0.70
  -1  -2   5   17.30    0.70
  -1   2   5   18.20    0.80
  -1   2   5   18.40    0.80
   1   2  -5   17.60    0.40
   1   2  -5   18.50    0.80
   1   2  -5   18.80    0.70
   0  -2  -5   85.49    1.80
   0  -2   5   84.69    1.70
   0  -2   5   84.19    1.70
   0  -2  -5   80.99    1.50
   0  -2   5   86.39    1.80
   0   2   5   86.09    1.70
   0   2  -5   85.79    1.70
   0   2   5   85.49    1.70
   0   2  -5   85.99    1.70
   1  -2   5    2.20    0.30
  -1  -2  -5    2.70    0.30
  -1  -2  -5    2.50    0.20
   1  -2   5    2.30    0.30
   1  -2   5    3.40    0.40
   1   2   5    3.00    0.40
  -1   2  -5    3.30    0.40
   1   2   5    2.40    0.30
  -1   2  -5    2.80    0.30
   2  -2   5  263.27    4.20
   2  -2   5  262.97    4.20
  -2  -2  -5  268.37    3.80
  -2  -2  -5  271.37    4.00
   2  -2   5  269.27    4.40
   2   2   5  270.67    4.30
  -2   2  -5  268.37    4.20
   2   2   5  275.87    3.70
   2   2   5  268.67    4.10
  -2   2  -5  269.67    4.20
   3  -2   5   24.60    0.90
   3  -2   5   25.00    1.10
   3  -2   5   24.70    1.00
  -3   2  -5   24.50    0.80
   3   2   5   24.20    0.80
   3   2   5   24.50    0.70
  -3   2  -5   23.00    0.90
   3   2   5   23.20    1.00
   4  -2   5    0.30    0.30
   4  -2   5    0.20    0.30
   4  -2   5    0.10    0.30
   4   2   5    0.40    0.30
   4   2   5    0.00    0.30
  -4   2  -5    0.20    0.30
   4   2   5    0.30    0.20
   4   2   5    0.10    0.40
   4   2   5   -0.20    0.40
   5  -2   5   49.80    1.90
   5  -2   5   50.99    1.50
   5  -2   5   52.59    1.80
   5   2   5   47.90    1.20
   5   2   5   48.80    1.80
   5   2   5   49.90    1.90
   6  -2   5   10.70    1.00
   6  -2   5   10.60    1.20
   6  -2   5   10.70    0.80
   6  -2   5   12.40    1.20
   6   2   5   12.20    1.20
   6   2   5   10.80    1.10
   7  -2   5    3.10    0.90
   7  -2   5    2.30    0.80
   7   2   5    0.70    0.70
   7   2   5    3.50    0.80
   8  -2   5   -0.30    0.80
   8  -2   5    1.20    0.90
   8   2   5    0.90    0.80
   8   2   5    0.80    0.80
   8  -3  -5    1.20    1.00
   8   3  -5    0.00    0.80
   7  -3  -5   39.00    2.30
   7  -3  -5   34.90    2.10
   7   3  -5   32.20    1.90
   7   3  -5   35.00    2.00
   6  -3  -5   10.50    0.90
   6  -3  -5    9.20    1.20
   6  -3  -5    9.20    1.20
   6   3  -5    8.80    1.10
   5  -3  -5    1.50    0.60
   5  -3  -5    1.20    0.50
   5  -3  -5    1.40    0.40
   5   3  -5    1.00    0.30
   5   3  -5    2.00    0.60
   4  -3  -5    3.00    0.50
   4  -3  -5    3.00    0.60
   4  -3  -5    2.60    0.60
   4   3  -5    2.70    0.60
  -4   3   5    2.40    0.50
   4   3  -5    1.90    0.30
  -3  -3   5   30.30    1.20
   3  -3  -5   27.40    1.20
   3  -3  -5   30.00    1.10
   3  -3  -5   30.20    1.30
  -3  -3   5   28.60    1.00
   3   3  -5   30.10    1.00
  -3   3   5   30.10    1.20
   3   3  -5   29.60    1.30
   3   3  -5   28.10    0.80
   2  -3  -5  474.65    7.20
  -2  -3   5  486.25    7.20
   2  -3  -5  485.05    7.30
  -2  -3   5  480.85    7.00
   2  -3  -5  474.45    7.20
  -2  -3   5  485.75    7.00
   2   3  -5  482.35    6.50
   2   3  -5  484.75    7.40
   2   3  -5  485.15    7.10
  -2   3   5  480.95    6.40
  -2   3   5  487.55    7.20
  -2   3   5  488.55    7.30
   1  -3  -5   48.20    1.20
  -1  -3   5   48.30    1.30
  -1  -3   5   48.70    1.40
   1  -3  -5   48.20    1.40
   1  -3  -5   49.10    1.30
  -1  -3   5   50.29    1.40
   1   3  -5   48.50    1.00
   1   3  -5   49.80    1.40
  -1   3   5   48.00    1.00
  -1   3   5   48.10    1.40
   1   3  -5   52.79    1.50
  -1   3   5   48.10    1.40
   0  -3   5   54.49    1.40
   0  -3  -5   51.89    1.10
   0  -3   5   52.09    1.40
   0  -3  -5   53.69    1.30
   0  -3  -5   52.99    1.50
   0  -3   5   53.69    1.40
   0   3  -5   55.19    1.40
   0   3   5   52.49    1.40
   0   3  -5   51.19    1.40
   0   3   5   52.09    1.30
   0   3  -5   53.69    1.20
   0   3   5   51.79    1.40
   1  -3   5    0.20    0.30
  -1  -3  -5   -0.10    0.20
   1  -3   5    0.30    0.30
  -1  -3  -5    0.20    0.30
   1  -3   5    0.70    0.30
   1   3   5    0.30    0.30
  -1   3  -5    0.60    0.30
   1   3   5    0.80    0.30
  -1   3  -5    0.90    0.30
   1   3   5    0.80    0.30
  -1   3  -5    0.40    0.30
   2  -3   5  212.78    3.80
  -2  -3  -5  210.48    3.50
  -2  -3  -5  214.88    3.30
   2  -3   5  212.48    3.80
   2  -3   5  210.28    3.70
  -2   3  -5  213.08    3.60
   2   3   5  214.98    3.60
   2   3   5  212.18    3.90
   2   3   5  214.28    3.70
  -2   3  -5  210.88    3.70
   3  -3   5   36.90    1.30
   3  -3   5   39.80    1.50
   3  -3   5   36.50    1.30
   3   3   5   38.00    1.40
   3   3   5   37.40    1.20
   3   3   5   39.60    1.40
  -3   3  -5   37.30    1.20
  -3   3  -5   41.10    1.30
   4  -3   5    5.30    0.70
   4  -3   5    4.50    0.60
   4  -3   5    4.60    0.70
   4   3   5    5.70    0.80
   4   3   5    4.90    0.50
   4   3   5    4.40    0.70
  -4   3  -5    4.90    0.60
   5  -3   5    6.90    1.00
   5  -3   5    5.40    0.80
   5  -3   5    6.20    0.70
   5   3   5    8.10    0.90
   5   3   5    7.10    0.60
   5   3   5    7.40    1.00
   6  -3   5    2.00    0.70
   6  -3   5    1.50    0.60
   6  -3   5    3.10    0.90
   6   3   5    2.80    0.80
   6   3   5    2.00    0.70
   7  -3   5    6.40    1.10
   7  -3   5    5.90    1.10
   7   3   5    6.90    1.10
   7   3   5    9.80    1.30
   8   3   5    2.40    1.30
   8   4  -5   -0.10    0.90
   7  -4  -5    0.40    0.90
   7  -4  -5   -0.10    0.60
   7  -4  -5    0.20    0.80
   7   4  -5    0.30    0.60
   7   4  -5   -0.20    0.80
   6  -4  -5   18.80    1.30
   6  -4  -5   15.50    1.50
   6  -4  -5   17.50    1.60
   6   4  -5   17.30    1.50
   5  -4  -5    0.40    0.60
   5  -4  -5    1.50    0.60
   5  -4  -5    2.00    0.70
   5   4  -5    0.50    0.40
   5   4  -5    1.20    0.70
  -5   4   5    1.10    0.70
   4  -4  -5    0.20    0.50
   4  -4  -5    0.60    0.40
   4  -4  -5    0.40    0.50
  -4   4   5   -0.80    0.40
   4   4  -5   -0.30    0.50
   4   4  -5   -0.20    0.30
   3  -4  -5    2.30    0.60
   3  -4  -5    2.20    0.60
  -3  -4   5    1.80    0.50
   3  -4  -5    0.90    0.50
  -3  -4   5    2.40    0.50
  -3   4   5    0.70    0.50
   3   4  -5    1.20    0.40
   3   4  -5    2.00    0.60
  -3   4   5    1.20    0.50
  -2  -4   5  129.99    2.70
  -2  -4   5  124.89    2.80
  -2  -4   5  128.99    2.50
   2  -4  -5  130.19    2.70
   2  -4  -5  127.59    2.80
   2  -4  -5  128.99    2.80
   2   4  -5  132.99    2.90
  -2   4   5  129.89    2.80
  -2   4   5  128.89    2.90
   2   4  -5  131.39    2.20
   2   4  -5  127.19    2.70
   1  -4  -5   37.40    1.30
  -1  -4   5   38.50    1.30
   1  -4  -5   38.30    1.10
   1  -4  -5   40.00    1.40
  -1  -4   5   40.80    1.20
  -1  -4   5   41.30    1.40
  -1   4   5   39.00    1.40
   1   4  -5   41.10    1.10
   1   4  -5   38.40    1.30
   1   4  -5   39.50    1.40
  -1   4   5   39.50    1.10
  -1   4   5   41.00    1.40
   0  -4  -5  138.19    2.70
   0  -4  -5  137.89    2.90
   0  -4  -5  134.19    2.30
   0  -4   5  136.59    2.90
   0  -4   5  137.99    2.70
   0  -4   5  133.69    2.80
   0   4  -5  134.49    2.90
   0   4   5  134.49    2.90
   0   4  -5  136.79    2.50
   0   4   5  131.39    2.60
   0   4   5  137.59    2.80
   0   4  -5  134.59    2.80
   1  -4   5   80.99    2.10
   1  -4   5   85.39    2.10
  -1  -4  -5   84.19    1.90
   1  -4   5   82.69    2.00
  -1  -4  -5   84.09    2.00
   1   4   5   79.79    2.00
   1   4   5   81.99    2.10
  -1   4  -5   82.59    2.00
  -1   4  -5   83.09    1.90
  -1   4  -5   81.29    2.10
   1   4   5   82.49    2.10
  -2  -4  -5   23.90    1.00
   2  -4   5   24.20    1.20
  -2  -4  -5   25.20    0.90
   2  -4   5   26.10    1.20
   2  -4   5   24.80    1.20
   2   4   5   23.40    1.20
   2   4   5   25.80    1.10
   2   4   5   24.90    1.10
  -2   4  -5   25.20    1.10
  -2   4  -5   22.60    1.00
   3  -4   5   32.30    1.40
   3  -4   5   31.20    1.40
  -3  -4  -5   31.50    1.10
   3  -4   5   30.90    1.30
  -3   4  -5   30.60    1.10
  -3   4  -5   31.50    1.30
   3   4   5   29.10    1.40
   3   4   5   31.00    1.30
   3   4   5   31.10    1.20
   4  -4   5    0.10    0.60
   4  -4   5    0.90    0.50
   4  -4   5    0.30    0.40
   4   4   5   -0.20    0.40
   4   4   5    0.30    0.40
   4   4   5    0.40    0.60
   5  -4   5   10.70    1.10
   5  -4   5   13.30    1.20
   5  -4   5   11.70    1.10
   5   4   5   11.80    1.20
   5   4   5   13.20    0.90
   5   4   5   13.70    1.20
   6  -4   5    1.40    0.70
   6  -4   5    0.60    0.70
   6  -4   5    1.50    0.90
   6   4   5    1.80    0.80
   6   4   5    1.90    0.80
   7  -4   5    0.50    0.90
   7  -4   5    0.00    0.80
   7   4   5   -1.20    0.80
   7  -5  -5    2.30    1.00
   7  -5  -5    0.00    1.00
   7  -5  -5    0.80    0.90
   7   5  -5   -0.10    0.90
   6  -5  -5   -0.20    0.80
   6  -5  -5    1.60    0.90
   6  -5  -5    0.20    0.60
   6   5  -5   -0.40    0.70
   5  -5  -5   16.00    1.50
   5  -5  -5   15.50    1.30
   5  -5  -5   12.90    1.30
   5   5  -5   12.60    1.10
   5   5  -5   12.20    1.30
  -5   5   5   13.50    1.40
   4  -5  -5    1.40    0.60
   4  -5  -5    0.20    0.60
  -4  -5   5    0.20    0.50
   4  -5  -5    0.70    0.60
   4   5  -5    0.50    0.60
   4   5  -5    0.70    0.50
  -4   5   5   -0.40    0.50
   3  -5  -5    7.40    0.80
  -3  -5   5    6.70    0.90
   3  -5  -5    7.30    0.90
   3  -5  -5    6.90    0.90
   3   5  -5    8.40    0.90
   3   5  -5    6.70    0.90
  -3   5   5    6.50    0.80
  -3   5   5    6.90    0.90
   2  -5  -5  186.68    3.90
   2  -5  -5  176.98    3.50
  -2  -5   5  183.08    3.40
  -2  -5   5  172.68    3.70
   2  -5  -5  188.68    3.80
  -2  -5   5  181.98    3.60
  -2   5   5  182.88    3.80
   2   5  -5  174.98    3.80
   2   5  -5  177.38    3.70
  -1  -5   5   60.39    1.70
   1  -5  -5   61.89    1.90
   1  -5  -5   58.99    1.60
  -1  -5   5   59.69    1.90
   1  -5  -5   60.59    2.00
  -1  -5   5   61.79    1.90
  -1   5   5   58.39    1.50
   1   5  -5   58.99    1.90
   1   5  -5   59.29    1.60
  -1   5   5   57.29    1.80
  -1   5   5   60.09    2.00
   1   5  -5   60.19    1.90
   0  -5   5   22.70    1.10
   0  -5   5   21.60    1.10
   0  -5  -5   23.90    1.20
   0  -5  -5   23.40    1.10
   0  -5   5   21.60    1.20
   0   5   5   22.00    1.00
   0   5   5   21.90    1.20
   0   5  -5   24.10    1.10
   0   5  -5   21.40    1.20
   0   5  -5   22.90    1.00
   0   5   5   25.10    1.20
   1  -5   5   -0.10    0.30
  -1  -5  -5   -0.20    0.30
   1  -5   5    0.40    0.40
  -1  -5  -5    0.00    0.40
   1  -5   5    0.10    0.50
   1   5   5   -0.20    0.30
   1   5   5   -0.20    0.40
  -1   5  -5   -0.10    0.40
  -1   5  -5   -0.10    0.40
  -1   5  -5    0.00    0.40
   1   5   5    0.20    0.30
   2  -5   5   25.60    1.30
   2  -5   5   23.70    1.30
   2  -5   5   23.20    1.30
  -2  -5  -5   24.60    1.10
   2   5   5   23.10    1.30
  -2   5  -5   26.00    1.30
  -2   5  -5   24.60    1.20
  -2   5  -5   25.20    1.30
   2   5   5   24.10    1.30
   2   5   5   21.40    1.20
   3  -5   5    2.10    0.70
  -3  -5  -5    1.20    0.40
   3  -5   5    2.70    0.70
   3  -5   5    1.50    0.60
   3   5   5    1.80    0.60
   3   5   5    1.60    0.50
   3   5   5    0.90    0.60
   4  -5   5    1.40    0.70
   4  -5   5    1.40    0.70
   4  -5   5   -0.60    0.40
   4   5   5    0.80    0.50
   4   5   5    1.60    0.70
   4   5   5    1.40    0.70
   5  -5   5    0.40    0.70
   5  -5   5    0.20    0.60
   5  -5   5    0.80    0.80
   5   5   5    0.30    0.60
   5   5   5    0.50    0.50
   5   5   5   -0.80    0.70
   6  -5   5    2.10    0.90
   6  -5   5    3.00    1.00
   6  -5   5    3.70    0.80
   6   5   5    2.90    1.00
   7  -5   5   10.40    1.40
   7  -5   5    7.10    1.10
   6  -6  -5   12.40    1.40
   6  -6  -5   14.00    1.60
   6  -6  -5   13.80    1.60
   6   6  -5   11.90    1.60
   5  -6  -5    1.40    0.90
   5  -6  -5    0.90    0.70
   5  -6  -5    0.60    0.80
   5   6  -5    0.60    0.80
  -5   6   5    1.00    0.80
   5   6  -5    0.50    0.60
   4  -6  -5    2.40    0.80
   4  -6  -5    1.90    0.80
  -4  -6   5    2.20    0.80
   4  -6  -5    4.70    0.90
  -4   6   5    3.80    1.00
   4   6  -5    3.50    0.70
   4   6  -5    3.30    1.00
   3  -6  -5   14.10    1.30
   3  -6  -5   13.30    1.10
  -3  -6   5   12.40    1.10
   3  -6  -5   13.90    1.30
   3   6  -5   14.50    1.20
   3   6  -5   14.50    1.20
  -3   6   5   12.60    1.20
   2  -6  -5    7.50    0.90
   2  -6  -5    5.90    0.80
  -2  -6   5    8.20    1.00
   2  -6  -5    7.00    1.00
   2   6  -5    7.50    0.90
  -2   6   5    6.40    0.90
   2   6  -5    6.50    0.90
  -2   6   5    7.20    0.90
   1  -6  -5    2.50    0.60
  -1  -6   5    2.80    0.70
   1  -6  -5    0.90    0.60
  -1  -6   5    2.10    0.60
  -1  -6   5    2.30    0.50
   1   6  -5    1.70    0.60
   1   6  -5    1.10    0.60
  -1   6   5    3.40    0.80
   1   6  -5    2.40    0.60
  -1   6   5    2.70    0.70
   0  -6  -5    1.40    0.50
   0  -6   5    1.10    0.60
   0  -6   5    0.30    0.50
   0  -6   5    1.00    0.50
   0  -6  -5    1.40    0.60
   0   6   5    0.60    0.60
   0   6  -5    0.80    0.50
   0   6  -5    0.40    0.40
   0   6  -5    1.20    0.60
   0   6   5    1.40    0.50
   1  -6   5    1.00    0.50
   1  -6   5    1.80    0.70
   1  -6   5    2.50    0.70
  -1  -6  -5    1.20    0.60
  -1  -6  -5    1.80    0.60
  -1   6  -5    2.10    0.50
   1   6   5    1.60    0.50
  -1   6  -5    2.90    0.60
  -1   6  -5    2.30    0.70
   1   6   5    1.60    0.60
   1   6   5    1.60    0.60
   2  -6   5   17.00    1.20
  -2  -6  -5   16.90    1.10
   2  -6   5   19.20    1.40
   2  -6   5   17.50    1.40
   2   6   5   17.20    1.30
  -2   6  -5   15.90    1.20
   2   6   5   19.40    1.40
   2   6   5   17.00    1.20
  -2   6  -5   16.30    1.30
  -2   6  -5   18.00    1.20
   3  -6   5   39.30    1.90
   3  -6   5   42.70    2.00
   3  -6   5   40.70    1.90
   3   6   5   38.50    2.00
   3   6   5   39.20    1.80
   3   6   5   39.70    1.80
   4  -6   5    6.90    1.10
   4  -6   5    5.80    1.10
   4  -6   5    5.30    0.90
   4   6   5    6.70    1.00
   4   6   5    6.30    1.10
   5  -6   5    1.20    0.80
   5  -6   5   -0.80    0.70
   5  -6   5   -0.40    0.70
   5   6   5    0.00    0.80
   5   6   5    0.80    0.60
   6  -6   5    3.80    1.10
   6  -6   5    4.50    1.00
   6  -6   5    2.60    1.10
   6   6   5    3.40    1.10
   5  -7  -5    1.20    0.90
   5  -7  -5    0.20    0.90
   5  -7  -5    0.40    0.90
   5   7  -5    0.60    0.90
   5   7  -5    0.70    0.70
  -5   7   5    1.10    0.90
  -4  -7   5    0.40    0.70
   4  -7  -5    0.70    0.70
   4  -7  -5    0.10    0.80
   4  -7  -5    0.50    0.70
   4   7  -5    1.00    0.90
   4   7  -5    0.70    0.80
  -4   7   5   -0.30    0.80
  -3  -7   5    6.00    1.00
   3  -7  -5    6.80    1.20
   3  -7  -5    6.20    1.10
   3   7  -5    5.80    1.10
   3   7  -5    6.20    1.10
  -3   7   5    4.90    1.10
   2  -7  -5    1.20    0.70
  -2  -7   5    0.70    0.70
   2  -7  -5    2.70    0.90
  -2   7   5    0.80    0.80
  -2   7   5    1.60    0.70
   2   7  -5    1.70    0.80
   2   7  -5    1.40    0.70
  -1  -7   5    0.50    0.60
   1  -7  -5    0.60    0.70
  -1  -7   5   -0.20    0.60
   1  -7  -5    0.20    0.60
  -1   7   5    3.10    0.80
   1   7  -5   -0.70    0.60
  -1   7   5    0.00    0.50
   1   7  -5    0.10    0.60
   0  -7  -5   -0.20    0.50
   0  -7  -5    0.00    0.60
   0  -7   5    0.20    0.60
   0  -7   5    0.80    0.70
   0   7  -5   -0.10    0.50
   0   7  -5   -0.20    0.60
   0   7  -5   -0.90    0.60
   0   7   5   -0.80    0.50
   0   7   5    0.20    0.60
   1  -7   5   -0.30    0.50
   1  -7   5    0.00    0.70
  -1  -7  -5    0.10    0.50
   1  -7   5    0.90    0.80
  -1   7  -5   -0.20    0.70
   1   7   5    0.30    0.50
   1   7   5    0.10    0.60
  -1   7  -5   -0.70    0.60
  -1   7  -5    0.80    0.70
   1   7   5   -0.10    0.70
  -2  -7  -5   28.00    1.50
   2  -7   5   26.40    1.60
   2  -7   5   28.60    1.70
   2  -7   5   33.20    1.90
   2   7   5   28.90    1.80
  -2   7  -5   29.70    1.70
   2   7   5   27.40    1.60
   2   7   5   28.30    1.70
  -2   7  -5   32.00    1.90
   3  -7   5    3.20    0.80
   3  -7   5    6.70    1.10
   3  -7   5    4.90    1.00
   3   7   5    4.30    0.90
   3   7   5    4.90    1.00
   3   7   5    6.90    1.20
   4  -7   5   -0.30    0.80
   4  -7   5    0.10    0.80
   4  -7   5   -1.00    0.90
   4   7   5    0.50    0.90
   4   7   5    0.10    0.60
   5  -7   5    0.80    0.90
   5  -7   5    2.90    1.10
   5   7   5    2.10    1.10
   5   7   5    1.30    0.80
  -4  -8   5    2.30    1.00
   4  -8  -5    3.00    1.10
   4   8  -5    2.20    1.00
   3  -8  -5    1.90    1.00
  -3  -8   5    2.00    0.90
   3  -8  -5    3.80    1.10
  -3   8   5    2.30    1.00
   3   8  -5    2.70    1.00
   3   8  -5    2.50    1.10
   2  -8  -5    2.30    1.00
   2  -8  -5    3.40    1.00
  -2  -8   5    2.30    0.90
   2   8  -5    1.70    1.10
  -2   8   5    1.80    1.00
  -2   8   5    2.30    0.90
   2   8  -5    3.10    0.90
   1  -8  -5    2.40    0.90
  -1  -8   5    2.80    0.90
   1  -8  -5    1.80    0.80
  -1   8   5    2.00    0.90
  -1   8   5    2.40    0.90
   1   8  -5    3.20    1.00
   1   8  -5    1.50    0.80
   0  -8  -5    4.60    1.20
   0  -8   5    4.70    1.10
   0  -8   5    6.20    1.10
   0  -8  -5    3.20    0.90
   0   8  -5    4.80    1.00
   0   8  -5    4.10    1.10
   0   8   5    5.30    1.20
   0   8   5    6.00    1.10
   1  -8   5    5.40    1.10
  -1  -8  -5    4.30    0.90
   1  -8   5    4.00    0.90
  -1   8  -5    3.20    1.00
   1   8   5    5.80    1.10
  -1   8  -5    1.30    0.80
   1   8   5    4.70    1.00
   2  -8   5   15.80    1.50
   2  -8   5   16.90    1.70
   2  -8   5   22.90    1.90
   2   8   5   17.40    1.50
   2   8   5   16.70    1.60
   2   8   5   18.50    1.70
  -2   8  -5   19.80    1.80
  -2   8  -5   16.80    1.60
   3  -8   5    2.10    1.00
   3  -8   5    0.90    1.00
   3  -8   5    0.90    0.80
   3   8   5    0.80    0.80
   3   8   5    2.90    1.00
   4  -8   5    0.10    1.00
   4   8   5   -0.20    0.90
   2  -9  -5    1.30    0.90
  -2  -9   5    0.40    0.90
  -2   9   5   -0.30    1.00
   2   9  -5   -0.10    0.90
   1  -9  -5    1.00    1.00
   1  -9  -5    1.00    0.90
  -1  -9   5    1.20    0.90
  -1   9   5    1.80    1.00
  -1   9   5    0.90    1.00
   1   9  -5    0.20    0.80
   0  -9  -5    1.00    0.90
   0  -9   5   -0.30    0.80
   0   9   5    0.10    0.90
   0   9  -5    0.90    1.00
   0   9   5   -0.20    0.90
   1  -9   5    2.70    1.20
  -1   9  -5    1.00    1.10
   1   9   5    1.20    1.00
   8   0  -6    0.80    0.80
   8   0  -6   -0.20    0.90
   7   0  -6   -0.20    0.70
   7   0  -6   -0.50    0.60
   6   0  -6    8.60    1.10
   6   0  -6    7.40    0.80
   6   0  -6    7.90    1.00
   5   0  -6    0.90    0.40
   5   0  -6    0.00    0.20
   5   0  -6    0.10    0.30
   4   0  -6  149.29    2.70
   4   0  -6  147.19    2.50
   4   0  -6  147.49    3.10
  -3   0   6   -0.10    0.20
   3   0  -6   -0.10    0.40
   3   0  -6   -0.10    0.20
   3   0  -6    0.10    0.20
   2   0  -6   13.60    0.50
   2   0  -6   13.20    0.70
   2   0  -6   13.30    0.50
  -2   0   6   13.80    0.50
  -2   0   6   13.50    0.50
   1   0  -6   -0.10    0.10
  -1   0   6   -0.20    0.20
  -1   0   6    0.10    0.10
  -1   0   6    0.00    0.10
   1   0  -6    0.00    0.20
   0   0  -6  201.58    3.10
   0   0   6  199.18    3.10
   0   0   6  200.98    2.90
   0   0   6  195.98    3.00
   0   0  -6  197.88    3.10
   1   0   6    0.10    0.10
   1   0   6    0.00    0.20
   1   0   6   -0.10    0.20
  -1   0  -6    0.40    0.20
   1   0   6    0.10    0.20
  -1   0  -6   -0.20    0.20
   2   0   6  361.96    4.90
   2   0   6  363.06    5.30
  -2   0  -6  365.96    5.50
  -2   0  -6  369.56    5.10
   2   0   6  361.86    5.20
   2   0   6  355.66    5.40
   3   0   6   -0.10    0.20
  -3   0  -6   -0.10    0.10
   3   0   6   -0.20    0.20
   3   0   6   -0.30    0.30
   3   0   6    0.10    0.30
   4   0   6  106.19    1.90
   4   0   6  105.79    2.50
   4   0   6  108.79    2.10
   4   0   6  103.49    2.40
   5   0   6    0.20    0.30
   5   0   6    0.10    0.50
   5   0   6   -0.10    0.40
   5   0   6   -0.10    0.30
   6   0   6   31.90    1.50
   6   0   6   35.00    1.70
   7   0   6   -0.30    0.60
   7   0   6    0.20    0.70
   7   0   6    0.10    0.70
   8   0   6    0.00    0.80
   8  -1  -6   11.40    1.50
   8  -1  -6   11.50    1.40
   8   1  -6    9.60    1.30
   8   1  -6   10.90    1.40
   7  -1  -6    8.10    1.20
   7  -1  -6    8.70    1.10
   7   1  -6    9.40    1.20
   7   1  -6    8.50    1.10
   6  -1  -6    0.20    0.40
   6  -1  -6   -0.10    0.50
   6   1  -6   -0.40    0.50
   6   1  -6   -0.50    0.50
   6   1  -6   -0.10    0.40
   5  -1  -6    0.10    0.30
   5  -1  -6    0.20    0.30
   5  -1  -6   -0.30    0.40
   5   1  -6    0.40    0.20
   5   1  -6   -0.20    0.20
   5   1  -6   -0.10    0.40
   5   1  -6    0.00    0.30
   4  -1  -6    3.00    0.40
   4  -1  -6    3.10    0.30
   4  -1  -6    3.20    0.50
   4   1  -6    2.50    0.30
   4   1  -6    3.10    0.40
   4   1  -6    2.70    0.40
   3  -1  -6   71.39    1.80
   3  -1  -6   70.19    1.50
   3  -1  -6   72.49    1.30
  -3   1   6   75.79    1.50
   3   1  -6   73.19    1.70
   3   1  -6   73.79    1.50
  -3   1   6   73.49    1.60
   3   1  -6   72.89    1.30
   2  -1  -6   48.10    1.20
   2  -1  -6   48.40    0.90
  -2  -1   6   48.50    1.20
   2  -1  -6   47.90    1.30
  -2  -1   6   47.50    1.10
  -2   1   6   46.90    1.10
   2   1  -6   48.70    1.10
   2   1  -6   46.60    1.20
  -2   1   6   47.70    1.10
   1  -1  -6  580.04    8.00
  -1  -1   6  576.64    8.00
   1  -1  -6  575.94    8.00
  -1  -1   6  581.94    7.60
   1  -1  -6  578.14    7.80
  -1  -1   6  575.84    7.90
  -1  -1   6  571.14    7.90
  -1   1   6  577.84    8.00
  -1   1   6  587.04    7.80
   1   1  -6  563.54    7.90
   1   1  -6  558.34    8.00
   0  -1  -6  161.98    2.30
   0  -1   6  162.28    2.70
   0  -1   6  162.38    2.40
   0  -1   6  164.08    2.70
   0  -1  -6  161.78    2.60
   0  -1  -6  160.08    2.60
   0  -1   6  159.68    2.50
   0   1   6  159.98    2.60
   0   1  -6  158.48    2.60
   0   1   6  159.48    2.50
   0   1   6  160.98    2.70
   0   1  -6  162.38    2.70
   1  -1   6   52.59    1.20
  -1  -1  -6   54.69    1.20
   1  -1   6   55.89    1.20
   1  -1   6   52.79    1.10
   1  -1   6   51.79    1.20
  -1   1  -6   52.89    1.20
  -1   1  -6   52.39    1.30
   1   1   6   54.79    1.30
   1   1   6   53.39    1.00
   1   1   6   54.99    1.20
  -2  -1  -6  196.78    3.00
   2  -1   6  189.58    3.20
   2  -1   6  197.88    3.00
   2  -1   6  195.48    3.30
   2  -1   6  196.08    3.30
   2   1   6  198.38    2.70
  -2   1  -6  199.28    3.10
   2   1   6  201.28    3.00
  -2   1  -6  198.58    3.30
   2   1   6  197.88    3.10
   2   1   6  195.28    3.30
   3  -1   6   95.89    1.90
   3  -1   6   94.69    2.20
   3  -1   6   91.19    2.10
   3  -1   6   96.79    1.90
   3   1   6   94.09    1.80
  -3   1  -6   95.29    2.10
   3   1   6   95.29    1.60
   3   1   6   95.89    1.90
   3   1   6   94.79    2.20
  -3   1  -6   96.19    1.70
   4  -1   6   21.80    0.90
   4  -1   6   24.30    1.10
   4  -1   6   22.80    0.80
   4  -1   6   22.60    1.10
   4   1   6   23.30    1.00
   4   1   6   23.30    0.80
   4   1   6   20.20    1.00
   4   1   6   23.10    0.70
   5  -1   6    7.50    0.60
   5  -1   6    7.50    0.90
   5  -1   6    7.70    0.90
   5  -1   6    7.10    0.70
   5   1   6    8.10    0.70
   5   1   6    7.00    0.50
   5   1   6    6.70    0.80
   6  -1   6    8.70    1.10
   6  -1   6    8.10    1.00
   6   1   6    7.30    1.00
   6   1   6   10.30    1.10
   7  -1   6    0.40    0.70
   7  -1   6    1.20    0.80
   7   1   6    1.10    0.70
   7   1   6    2.30    0.80
   8  -1   6    1.10    0.90
   8  -1   6    3.20    0.90
   8   1   6    1.90    0.90
   8  -2  -6   11.00    1.60
   8  -2  -6    9.10    1.40
   8   2  -6    6.30    1.20
   7  -2  -6   24.90    1.80
   7  -2  -6   26.10    1.90
   7   2  -6   25.30    1.60
   7   2  -6   23.20    1.60
   6  -2  -6   17.00    1.40
   6  -2  -6   17.00    1.00
   6  -2  -6   18.20    1.50
   6   2  -6   16.10    1.20
   6   2  -6   18.60    1.30
   5  -2  -6    3.60    0.70
   5  -2  -6    3.20    0.70
   5  -2  -6    2.80    0.40
   5   2  -6    3.50    0.40
   5   2  -6    2.10    0.50
   4  -2  -6    0.30    0.40
   4  -2  -6    0.30    0.40
   4  -2  -6    0.30    0.30
   4   2  -6    0.90    0.30
  -4   2   6    1.10    0.40
   4   2  -6    0.50    0.20
   4   2  -6    0.70    0.40
  -3  -2   6    2.80    0.30
   3  -2  -6    2.50    0.50
  -3  -2   6    2.80    0.50
   3  -2  -6    2.80    0.50
   3  -2  -6    2.70    0.40
  -3   2   6    2.40    0.40
  -3   2   6    2.10    0.40
   3   2  -6    2.80    0.40
   3   2  -6    2.10    0.50
   3   2  -6    2.60    0.20
   2  -2  -6  297.77    4.60
   2  -2  -6  292.77    4.60
  -2  -2   6  292.07    4.60
  -2  -2   6  293.37    4.40
  -2  -2   6  288.77    4.70
   2   2  -6  296.17    4.70
  -2   2   6  297.67    4.60
  -2   2   6  297.47    4.60
   2   2  -6  294.27    4.50
   2   2  -6  290.57    3.80
   1  -2  -6    0.40    0.30
   1  -2  -6    0.10    0.20
  -1  -2   6    0.50    0.30
  -1  -2   6    0.10    0.30
  -1  -2   6    0.10    0.20
   1   2  -6    0.00    0.20
   1   2  -6    0.50    0.30
  -1   2   6    0.10    0.30
  -1   2   6    0.00    0.30
   0  -2  -6    3.20    0.40
   0  -2   6    4.10    0.50
   0  -2   6    3.60    0.40
   0  -2  -6    3.90    0.30
   0  -2   6    4.10    0.40
   0   2   6    3.70    0.40
   0   2  -6    3.30    0.40
   0   2   6    3.90    0.40
   0   2  -6    4.80    0.50
   1  -2   6  220.68    3.70
  -1  -2  -6  232.08    3.20
   1  -2   6  228.18    3.60
   1  -2   6  228.08    3.80
  -1  -2  -6  233.58    3.70
   1   2   6  229.08    3.10
   1   2   6  226.08    3.70
  -1   2  -6  228.78    3.70
   1   2   6  228.08    3.70
  -1   2  -6  225.98    3.70
   2  -2   6  348.67    5.30
  -2  -2  -6  350.26    5.20
   2  -2   6  356.26    5.40
  -2  -2  -6  358.26    4.80
   2  -2   6  350.66    5.60
  -2   2  -6  352.96    5.30
   2   2   6  346.67    5.40
  -2   2  -6  357.46    5.40
   2   2   6  359.76    5.30
   2   2   6  365.46    4.80
   3  -2   6   55.39    1.50
   3  -2   6   56.39    1.50
   3  -2   6   56.19    1.70
  -3   2  -6   62.89    1.60
  -3   2  -6   57.39    1.40
   3   2   6   58.89    1.70
   3   2   6   57.59    1.20
   3   2   6   57.09    1.40
   4  -2   6    0.00    0.30
   4  -2   6   -0.60    0.40
   4  -2   6    0.10    0.30
  -4   2  -6   -0.10    0.30
   4   2   6    0.50    0.30
   4   2   6    0.10    0.20
   4   2   6   -0.10    0.20
   4   2   6    0.50    0.40
   4   2   6   -0.60    0.40
   5  -2   6    0.10    0.40
   5  -2   6    0.10    0.50
   5  -2   6    0.10    0.40
   5  -2   6    0.70    0.60
   5   2   6    0.70    0.30
   5   2   6    0.80    0.50
   5   2   6    0.10    0.50
   6  -2   6    0.80    0.40
   6  -2   6    1.10    0.70
   6  -2   6    1.30    0.70
   6  -2   6    1.20    0.70
   6   2   6    0.10    0.60
   6   2   6    0.90    0.50
   7  -2   6    1.10    0.80
   7  -2   6    1.60    0.80
   7   2   6    2.70    0.90
   7   2   6    3.50    0.90
   8  -2   6   -0.60    0.80
   8   2   6    0.60    0.80
   8   2   6   -0.20    0.80
   8   3  -6    4.70    1.00
   7  -3  -6    0.70    0.90
   7  -3  -6    1.80    0.90
   7   3  -6    2.10    0.80
   7   3  -6    2.30    0.80
   6  -3  -6   11.60    1.30
   6  -3  -6   15.10    1.40
   6  -3  -6   12.20    0.90
   6   3  -6   12.20    1.20
   5  -3  -6   14.60    1.30
   5  -3  -6   16.00    1.20
   5  -3  -6   16.10    1.00
   5   3  -6   16.40    1.30
   5   3  -6   16.10    0.80
  -5   3   6   15.20    1.20
   4  -3  -6    1.80    0.50
   4  -3  -6    1.60    0.40
   4  -3  -6    2.40    0.50
   4   3  -6    1.40    0.50
  -4   3   6    2.00    0.50
   4   3  -6    2.80    0.40
   3  -3  -6   24.60    1.10
   3  -3  -6   25.20    1.20
  -3  -3   6   25.00    1.00
   3  -3  -6   24.20    1.10
   3   3  -6   26.50    1.00
  -3   3   6   24.90    1.10
   3   3  -6   26.10    1.20
   3   3  -6   24.60    0.60
  -3   3   6   26.30    1.10
  -2  -3   6  319.47    5.20
   2  -3  -6  309.87    5.00
  -2  -3   6  315.27    4.90
   2  -3  -6  312.17    5.20
   2  -3  -6  315.37    5.10
  -2  -3   6  324.97    5.00
  -2   3   6  315.47    5.10
   2   3  -6  318.27    4.30
  -2   3   6  317.87    4.20
  -2   3   6  318.67    5.10
   2   3  -6  318.97    5.30
   2   3  -6  313.27    5.00
   1  -3  -6    3.50    0.40
  -1  -3   6    2.80    0.40
   1  -3  -6    2.30    0.40
   1  -3  -6    3.30    0.50
  -1  -3   6    2.50    0.50
  -1  -3   6    2.90    0.50
   1   3  -6    2.60    0.40
  -1   3   6    2.30    0.50
   1   3  -6    3.10    0.30
  -1   3   6    3.80    0.50
   1   3  -6    1.80    0.40
  -1   3   6    3.20    0.30
   0  -3  -6  520.35    6.90
   0  -3  -6  508.85    7.50
   0  -3   6  509.65    7.40
   0  -3   6  518.45    7.50
   0  -3  -6  513.05    7.20
   0  -3   6  509.45    7.40
   0   3   6  499.55    7.50
   0   3  -6  503.15    7.00
   0   3   6  510.95    7.30
   0   3   6  501.65    7.40
   0   3  -6  496.05    7.50
   0   3  -6  511.75    7.50
   1  -3   6    0.30    0.30
  -1  -3  -6    0.20    0.20
   1  -3   6   -0.10    0.20
   1  -3   6    0.00    0.30
  -1  -3  -6   -0.20    0.30
   1   3   6    0.30    0.30
   1   3   6    0.20    0.30
   1   3   6   -0.20    0.30
  -1   3  -6   -0.40    0.30
  -1   3  -6    0.20    0.30
   2  -3   6   14.40    0.90
  -2  -3  -6   12.50    0.50
   2  -3   6   14.40    0.90
   2  -3   6   12.50    0.80
  -2  -3  -6   13.20    0.70
  -2   3  -6   12.80    0.80
   2   3   6   12.70    0.80
   2   3   6   12.60    0.80
   2   3   6   11.30    0.70
  -2   3  -6   13.20    0.70
   3  -3   6    8.60    0.70
   3  -3   6    9.10    0.80
   3  -3   6    8.70    0.70
  -3   3  -6    9.60    0.70
   3   3   6    9.40    0.80
   3   3   6    8.50    0.60
   3   3   6    9.20    0.80
  -3   3  -6    8.10    0.60
   4  -3   6    0.20    0.30
   4  -3   6    0.00    0.40
   4  -3   6   -0.90    0.40
   4   3   6    0.00    0.40
   4   3   6    0.00    0.30
   4   3   6    0.20    0.50
  -4   3  -6    0.10    0.40
   5  -3   6   24.40    1.30
   5  -3   6   25.00    1.30
   5  -3   6   25.70    1.60
   5   3   6   24.30    1.00
   5   3   6   26.80    1.50
   5   3   6   26.80    1.60
   6  -3   6   -0.20    0.50
   6  -3   6    0.90    0.60
   6  -3   6    0.40    0.50
   6   3   6    1.20    0.70
   6   3   6   -0.40    0.70
   7  -3   6    3.80    1.00
   7  -3   6    4.20    1.10
   7   3   6    3.00    0.90
   7   3   6    3.60    1.00
   8   4  -6    0.00    0.90
   8   4  -6    0.10    0.90
   7  -4  -6    6.50    1.30
   7  -4  -6    6.80    1.00
   7  -4  -6    8.30    1.40
   7   4  -6    8.20    1.20
   7   4  -6    8.20    1.20
   6  -4  -6   13.90    1.50
   6  -4  -6   13.10    1.40
   6  -4  -6   14.50    1.20
   6   4  -6   13.00    1.40
   5  -4  -6    3.70    0.70
   5  -4  -6    4.90    0.90
   5  -4  -6    3.60    0.80
   5   4  -6    4.90    0.60
  -5   4   6    5.30    0.90
   5   4  -6    3.20    0.80
   4  -4  -6    2.60    0.60
   4  -4  -6    4.60    0.80
   4  -4  -6    3.80    0.70
  -4  -4   6    2.80    0.50
   4   4  -6    2.70    0.50
   4   4  -6    3.50    0.70
  -4   4   6    3.40    0.70
   3  -4  -6   45.00    1.60
  -3  -4   6   43.00    1.40
  -3  -4   6   41.40    1.60
   3  -4  -6   38.70    1.50
   3  -4  -6   42.40    1.60
  -3   4   6   43.30    1.60
   3   4  -6   41.40    1.70
   3   4  -6   42.50    1.40
   2  -4  -6    9.50    0.80
  -2  -4   6   11.40    0.80
   2  -4  -6   11.10    0.90
  -2  -4   6    9.60    0.80
   2  -4  -6   10.30    0.80
  -2  -4   6   10.50    0.90
   2   4  -6   11.20    0.80
   2   4  -6   10.30    0.80
  -2   4   6   10.30    0.90
   2   4  -6   10.90    0.50
  -2   4   6   11.00    0.90
  -1  -4   6    4.40    0.60
  -1  -4   6    5.50    0.60
   1  -4  -6    4.40    0.50
   1  -4  -6    5.40    0.70
  -1  -4   6    5.70    0.60
   1  -4  -6    6.00    0.60
   1   4  -6    4.80    0.60
  -1   4   6    6.20    0.70
  -1   4   6    5.90    0.50
   1   4  -6    5.20    0.60
   1   4  -6    5.60    0.50
  -1   4   6    5.60    0.70
   0  -4   6  236.78    4.20
   0  -4  -6  240.98    3.60
   0  -4  -6  227.28    4.20
   0  -4   6  239.08    4.20
   0  -4   6  239.38    4.10
   0  -4  -6  239.28    4.00
   0   4   6  236.78    4.00
   0   4  -6  232.58    4.20
   0   4   6  235.38    4.20
   0   4  -6  233.38    3.80
   0   4   6  239.88    4.30
   0   4  -6  231.88    4.20
   1  -4   6   37.00    1.40
   1  -4   6   35.80    1.30
  -1  -4  -6   37.90    1.30
  -1  -4  -6   36.90    1.10
   1  -4   6   37.90    1.40
   1   4   6   39.10    1.40
   1   4   6   36.50    1.30
  -1   4  -6   37.60    1.40
   1   4   6   35.10    1.30
  -1   4  -6   38.60    1.30
  -1   4  -6   34.80    1.20
   2  -4   6   40.90    1.50
   2  -4   6   39.80    1.50
   2  -4   6   40.10    1.50
  -2  -4  -6   40.40    1.20
  -2  -4  -6   40.10    1.30
   2   4   6   37.20    1.30
  -2   4  -6   42.40    1.40
   2   4   6   41.30    1.50
   2   4   6   38.60    1.40
  -2   4  -6   39.00    1.40
   3  -4   6    2.20    0.50
   3  -4   6    2.10    0.60
   3  -4   6    3.40    0.60
  -3  -4  -6    3.00    0.40
  -3   4  -6    1.70    0.50
   3   4   6    2.50    0.60
  -3   4  -6    2.80    0.50
   3   4   6    1.60    0.60
   3   4   6    1.80    0.40
   4  -4   6   14.70    1.20
   4  -4   6   15.80    1.10
   4  -4   6   14.70    1.10
   4   4   6   15.20    1.10
   4   4   6   14.10    0.90
   4   4   6   14.20    1.10
   5  -4   6    1.40    0.70
   5  -4   6    1.70    0.80
   5  -4   6    3.10    0.80
   5   4   6    4.00    0.90
   5   4   6    1.90    0.70
   5   4   6    2.00    0.50
   6  -4   6    0.90    0.80
   6  -4   6    1.80    0.70
   6  -4   6    1.60    0.60
   6   4   6    2.40    0.80
   6   4   6    1.40    0.90
   7  -4   6   -0.70    0.90
   7   4   6    0.30    0.90
   7  -5  -6    0.70    0.70
   7   5  -6   -0.20    0.90
   6  -5  -6    7.90    1.20
   6  -5  -6    5.40    1.20
   6  -5  -6    8.40    1.10
   6   5  -6    8.40    1.30
   5  -5  -6    0.00    0.60
   5  -5  -6    0.70    0.80
   5  -5  -6   -0.80    0.60
   5   5  -6   -1.10    0.60
  -5   5   6   -0.70    0.40
   5   5  -6    0.80    0.60
   4  -5  -6    1.80    0.70
   4  -5  -6    0.90    0.50
   4  -5  -6    1.60    0.70
  -4  -5   6    1.30    0.60
  -4   5   6    1.60    0.60
   4   5  -6    1.40    0.70
   4   5  -6    1.70    0.60
   3  -5  -6   67.09    2.10
   3  -5  -6   66.79    2.30
  -3  -5   6   68.29    2.20
  -3  -5   6   63.49    1.90
   3  -5  -6   65.29    2.20
   3   5  -6   62.09    2.20
   3   5  -6   65.99    2.00
  -3   5   6   70.09    2.30
  -3   5   6   71.79    2.20
   2  -5  -6    1.10    0.60
   2  -5  -6    0.70    0.50
  -2  -5   6    1.50    0.40
  -2  -5   6    0.00    0.50
   2  -5  -6    1.90    0.50
  -2  -5   6    0.80    0.50
   2   5  -6    1.60    0.60
   2   5  -6    1.40    0.50
  -2   5   6    1.70    0.60
  -2   5   6    1.10    0.60
   1  -5  -6   10.00    0.90
  -1  -5   6   10.80    0.90
   1  -5  -6   10.10    0.70
   1  -5  -6    8.30    0.90
  -1  -5   6    8.70    0.80
  -1  -5   6    8.50    0.90
   1   5  -6    7.90    0.60
   1   5  -6    7.70    0.80
  -1   5   6    8.70    0.60
  -1   5   6   11.40    1.00
   1   5  -6    7.60    0.80
  -1   5   6    7.20    0.80
   0  -5  -6    3.70    0.60
   0  -5   6    3.40    0.60
   0  -5  -6    4.10    0.70
   0  -5   6    3.60    0.60
   0  -5   6    4.60    0.70
   0   5  -6    4.60    0.60
   0   5  -6    3.80    0.50
   0   5   6    3.30    0.60
   0   5   6    3.50    0.70
   0   5  -6    4.50    0.70
   0   5   6    3.60    0.50
   1  -5   6   25.00    1.20
   1  -5   6   22.20    1.30
  -1  -5  -6   24.80    1.20
  -1  -5  -6   25.80    1.10
   1  -5   6   26.80    1.40
  -1   5  -6   22.80    1.30
   1   5   6   24.20    1.30
  -1   5  -6   23.40    1.10
  -1   5  -6   26.00    1.20
   1   5   6   25.30    1.20
   1   5   6   22.50    1.20
  -2  -5  -6   33.90    1.30
   2  -5   6   34.40    1.50
   2  -5   6   34.80    1.60
   2  -5   6   34.70    1.50
  -2   5  -6   32.70    1.30
   2   5   6   34.90    1.60
   2   5   6   31.10    1.40
   2   5   6   33.00    1.50
  -2   5  -6   36.20    1.60
   3  -5   6    1.40    0.60
   3  -5   6    2.30    0.70
   3  -5   6    2.20    0.70
   3   5   6    2.40    0.70
  -3   5  -6    2.70    0.50
   3   5   6    3.20    0.70
   3   5   6    2.00    0.60
   4  -5   6    9.70    1.00
   4  -5   6   10.40    1.10
   4  -5   6    9.70    1.10
   4   5   6   10.70    1.20
   4   5   6    8.90    1.00
   4   5   6    8.60    0.90
   5  -5   6    6.30    0.90
   5  -5   6    6.60    1.10
   5  -5   6    5.90    1.10
   5   5   6    5.60    0.80
   5   5   6    7.50    1.20
   5   5   6    7.50    1.00
   6  -5   6    0.60    0.80
   6  -5   6    1.90    1.00
   6  -5   6    0.10    0.60
   6   5   6    1.10    0.90
   7  -5   6    0.50    0.90
   6  -6  -6    5.00    1.20
   6  -6  -6    6.60    1.30
   6  -6  -6    6.70    1.20
   6   6  -6    3.50    1.10
   5  -6  -6    1.40    0.90
   5  -6  -6   -0.80    0.70
   5  -6  -6    0.30    0.70
  -5   6   6    1.10    0.80
   5   6  -6    1.30    0.70
   5   6  -6   -0.70    0.80
   4  -6  -6    3.20    0.90
   4  -6  -6    4.10    0.90
   4  -6  -6    4.50    1.00
  -4  -6   6    4.40    0.90
   4   6  -6    4.50    1.00
   4   6  -6    4.80    0.80
  -4   6   6    5.70    1.00
   3  -6  -6   13.70    1.20
   3  -6  -6   15.10    1.20
   3  -6  -6   14.20    1.30
  -3  -6   6   14.70    1.30
  -3   6   6   13.90    1.20
   3   6  -6   17.30    1.40
   3   6  -6   14.80    1.20
   2  -6  -6   16.50    1.30
   2  -6  -6   13.30    1.20
  -2  -6   6   15.40    1.30
   2  -6  -6   12.90    1.00
   2   6  -6   14.50    1.20
   2   6  -6   14.60    1.30
  -2   6   6   14.70    1.30
  -2   6   6   16.60    1.30
   1  -6  -6    3.00    0.70
  -1  -6   6    3.00    0.60
  -1  -6   6    3.10    0.70
  -1  -6   6    3.00    0.70
   1  -6  -6    2.80    0.70
   1   6  -6    4.00    0.70
   1   6  -6    3.60    0.70
  -1   6   6    2.60    0.70
   0  -6  -6   -0.20    0.50
   0  -6   6    0.00    0.40
   0  -6  -6    0.10    0.40
   0  -6   6    0.90    0.60
   0  -6   6    0.00    0.50
   0   6   6    0.60    0.40
   0   6   6   -0.20    0.40
   0   6  -6   -0.30    0.40
   0   6   6    0.50    0.60
   0   6  -6    0.00    0.60
   0   6  -6   -0.80    0.40
   1  -6   6    5.50    0.80
   1  -6   6    4.70    0.70
   1  -6   6    6.10    0.90
  -1  -6  -6    4.50    0.70
  -1  -6  -6    6.90    0.90
  -1   6  -6    5.50    0.80
   1   6   6    4.50    0.70
   1   6   6    6.90    0.90
  -1   6  -6    5.40    0.70
   1   6   6    5.50    0.80
  -1   6  -6    4.50    0.70
  -2  -6  -6   53.19    1.80
   2  -6   6   54.19    2.10
   2  -6   6   53.59    2.00
   2  -6   6   53.69    2.10
   2   6   6   53.89    2.10
   2   6   6   55.99    2.10
  -2   6  -6   53.69    2.00
   2   6   6   51.89    2.00
  -2   6  -6   51.29    1.80
  -2   6  -6   54.29    2.10
   3  -6   6   13.10    1.30
   3  -6   6   13.40    1.30
   3  -6   6   11.20    1.20
   3   6   6   11.30    1.20
   3   6   6   11.90    1.20
   3   6   6   11.50    1.10
   4  -6   6    2.60    0.80
   4  -6   6    2.60    0.90
   4  -6   6    2.30    0.80
   4   6   6    2.70    0.80
   4   6   6    1.80    0.90
   4   6   6    2.30    0.80
   5  -6   6    0.10    0.70
   5  -6   6    0.60    0.90
   5  -6   6    1.70    0.90
   5   6   6    2.00    0.80
   5   6   6    0.90    0.90
   6  -6   6    0.60    0.80
   6  -6   6    0.50    0.90
   5  -7  -6    3.50    1.00
   5  -7  -6    2.30    0.90
   5  -7  -6    3.80    1.10
   5   7  -6    1.60    0.80
   5   7  -6    5.20    1.20
  -5   7   6    0.30    1.00
   4  -7  -6    1.00    0.80
   4  -7  -6    0.20    0.80
   4  -7  -6    1.50    0.80
  -4  -7   6    1.10    0.80
  -4   7   6   -1.40    0.80
   4   7  -6    0.60    0.80
   4   7  -6   -0.30    0.70
   3  -7  -6   22.90    1.70
   3  -7  -6   24.50    1.80
  -3  -7   6   22.00    1.70
   3   7  -6   20.10    1.70
  -3   7   6   22.60    1.80
   3   7  -6   23.00    1.70
  -2  -7   6   -0.20    0.70
   2  -7  -6   -0.10    0.60
   2  -7  -6    0.40    0.70
   2   7  -6    0.60    0.60
  -2   7   6    0.10    0.70
   2   7  -6    0.30    0.70
  -2   7   6    0.10    0.70
   1  -7  -6   -0.80    0.60
  -1  -7   6   -0.40    0.60
   1  -7  -6    0.20    0.50
  -1  -7   6    0.40    0.70
   1   7  -6   -0.30    0.60
   1   7  -6    0.20    0.60
  -1   7   6   -0.40    0.60
  -1   7   6   -1.00    0.70
   0  -7   6    0.00    0.70
   0  -7  -6    0.70    0.60
   0  -7   6    1.00    0.70
   0  -7   6    0.10    0.50
   0  -7  -6    1.70    0.80
   0   7  -6    1.00    0.60
   0   7  -6   -0.40    0.60
   0   7   6    1.30    0.70
   0   7   6    0.70    0.80
   1  -7   6   10.10    1.20
   1  -7   6   10.50    1.20
  -1  -7  -6   10.60    1.10
   1  -7   6    9.50    1.00
  -1   7  -6    7.80    1.00
   1   7   6   11.10    1.20
  -1   7  -6    8.60    1.20
   1   7   6    9.50    1.10
  -1   7  -6    7.50    1.00
   2  -7   6    3.20    0.90
   2  -7   6    2.60    0.90
   2  -7   6    3.80    0.90
  -2   7  -6    4.00    0.80
   2   7   6    3.50    0.90
  -2   7  -6    2.70    0.90
   2   7   6    1.90    0.80
   3  -7   6    2.50    0.90
   3  -7   6    2.50    0.90
   3  -7   6    1.10    0.80
   3   7   6    0.70    0.80
   3   7   6    2.30    0.90
   4  -7   6    1.60    0.90
   4  -7   6    3.60    1.00
   4  -7   6    2.30    0.80
   4   7   6    2.40    1.00
   4   7   6    1.60    0.90
   4   7   6    1.90    1.00
   5  -7   6    2.40    1.10
   5  -7   6    1.10    1.00
   5   7   6    2.10    1.10
   5   7   6    3.90    1.00
   4  -8  -6    2.70    1.10
  -4  -8   6    1.50    0.90
   3  -8  -6    2.20    1.00
  -3  -8   6   -0.10    0.80
   3  -8  -6   -0.30    0.80
   3   8  -6   -0.30    0.80
  -3   8   6    1.40    0.90
   3   8  -6    1.20    0.90
   2  -8  -6   -1.40    0.80
  -2  -8   6   -0.70    0.70
   2  -8  -6    0.20    0.80
  -2   8   6   -0.30    0.90
  -2   8   6   -0.60    0.80
   2   8  -6    0.00    0.80
   2   8  -6    0.30    0.80
   1  -8  -6    0.50    0.90
  -1  -8   6    0.90    0.80
   1  -8  -6    1.20    0.80
   1   8  -6    0.80    0.80
  -1   8   6    0.60    0.80
   1   8  -6    0.20    0.80
  -1   8   6    1.80    1.00
   0  -8   6    9.30    1.30
   0  -8  -6    6.50    1.20
   0  -8   6    9.80    1.30
   0  -8  -6    8.00    1.10
   0   8   6    6.60    1.00
   0   8  -6    8.50    1.20
   0   8  -6    9.00    1.30
   0   8   6   10.10    1.40
   1  -8   6    0.70    0.90
  -1  -8  -6    1.90    0.80
   1  -8   6    3.90    1.00
   1   8   6    2.60    1.00
  -1   8  -6    1.50    1.00
   1   8   6    0.50    0.80
   2  -8   6   13.90    1.60
   2  -8   6   15.00    1.50
  -2   8  -6   14.30    1.40
  -2   8  -6   14.20    1.60
   2   8   6   16.30    1.60
   2   8   6   15.10    1.60
   2   8   6   17.00    1.60
   3  -8   6   15.60    1.70
   3  -8   6   13.20    1.50
   3  -8   6   11.90    1.50
   3   8   6   14.90    1.50
   3   8   6   12.40    1.50
   3   8   6   12.40    1.50
   4  -8   6   -0.10    0.90
   4   8   6    1.60    1.00
   2  -9  -6    1.10    1.00
   2   9  -6   -0.30    0.90
  -1  -9   6    0.40    0.90
   1  -9  -6    0.10    1.00
   1  -9  -6   -0.30    0.80
   1   9  -6    1.00    0.90
  -1   9   6    0.50    1.00
  -1   9   6    0.00    0.90
   0  -9   6    0.10    0.90
   0  -9  -6   -0.50    1.00
   0   9   6   -0.80    0.90
   0   9  -6    0.80    1.00
   0   9   6    0.80    0.90
   1  -9   6    4.80    1.30
  -1   9  -6    5.70    1.30
   1   9   6    6.00    1.30
   8   0  -7    0.70    0.90
   8   0  -7   -0.40    0.80
   7   0  -7   21.70    1.60
   7   0  -7   22.30    1.70
   6   0  -7   -0.20    0.50
   6   0  -7    0.10    0.50
   5   0  -7   14.70    0.80
   5   0  -7   11.50    0.90
   5   0  -7   13.40    0.70
   4   0  -7    0.40    0.30
   4   0  -7    0.30    0.30
   4   0  -7   -0.10    0.20
   3   0  -7 1068.49   14.70
  -3   0   7 1087.59   14.30
   3   0  -7 1054.09   14.40
  -3   0   7 1087.79   14.10
   3   0  -7 1091.99   14.50
  -2   0   7    0.10    0.10
   2   0  -7   -0.20    0.20
  -2   0   7    0.00    0.30
  -2   0   7    0.00    0.20
   2   0  -7    0.00    0.20
   2   0  -7   -0.10    0.20
   1   0  -7  157.88    2.60
  -1   0   7  163.18    2.40
  -1   0   7  156.18    2.60
  -1   0   7  159.38    2.70
   1   0  -7  156.08    2.50
   0   0  -7    0.00    0.20
   0   0  -7   -0.10    0.20
   0   0   7   -0.20    0.20
   0   0   7    0.00    0.20
   0   0   7   -0.10    0.20
  -1   0  -7  236.08    3.60
   1   0   7  239.68    3.70
   1   0   7  238.58    3.20
   1   0   7  232.38    3.60
  -1   0  -7  234.18    3.80
   1   0   7  236.78    3.60
   2   0   7   -0.30    0.10
   2   0   7   -0.80    0.20
   2   0   7   -0.40    0.30
   2   0   7    0.00    0.20
  -2   0  -7    0.50    0.30
  -2   0  -7   -0.40    0.20
   3   0   7  370.96    5.50
   3   0   7  375.46    5.90
  -3   0  -7  380.86    5.30
   3   0   7  384.86    5.80
   3   0   7  382.46    5.30
   4   0   7   -0.40    0.30
   4   0   7    0.00    0.20
   4   0   7    0.00    0.20
   4   0   7    0.80    0.50
   5   0   7   17.00    1.20
   5   0   7   17.00    0.70
   5   0   7   15.70    1.10
   6   0   7   -0.30    0.50
   6   0   7   -0.10    0.60
   7   0   7    1.90    0.80
   7   0   7    2.40    0.80
   8   0   7   -0.20    0.80
   8  -1  -7    0.10    0.90
   8  -1  -7    2.70    1.00
   8   1  -7    0.80    0.90
   8   1  -7    0.10    0.80
   7  -1  -7   23.30    1.80
   7  -1  -7   25.00    1.70
   7   1  -7   17.80    1.50
   7   1  -7   21.50    1.60
   6  -1  -7    1.50    0.40
   6  -1  -7    1.40    0.60
   6  -1  -7    1.60    0.70
   6   1  -7    1.70    0.60
   5  -1  -7    7.40    0.60
   5  -1  -7    7.30    0.80
   5  -1  -7    7.60    0.90
   5   1  -7    7.20    0.50
   5   1  -7    7.60    0.90
   5   1  -7    8.00    0.70
   4  -1  -7   21.20    1.00
   4  -1  -7   20.50    0.70
   4  -1  -7   19.90    0.80
   4   1  -7   20.10    0.70
   4   1  -7   21.40    0.80
   4   1  -7   20.60    1.00
  -4   1   7   20.30    0.90
  -3  -1   7  353.36    5.00
   3  -1  -7  345.17    5.50
   3  -1  -7  345.77    5.30
   3   1  -7  347.77    5.40
   3   1  -7  350.76    5.20
  -3   1   7  351.36    5.30
  -3   1   7  363.66    5.20
   2  -1  -7   48.30    0.90
   2  -1  -7   48.90    1.30
   2  -1  -7   47.50    1.20
  -2  -1   7   48.30    1.10
  -2  -1   7   48.40    1.30
  -2   1   7   48.20    1.20
  -2   1   7   49.30    1.20
   2   1  -7   46.80    1.20
   2   1  -7   48.70    1.20
  -1  -1   7  143.69    2.60
   1  -1  -7  144.29    2.40
   1  -1  -7  142.29    2.50
  -1  -1   7  148.89    2.50
   1  -1  -7  145.69    2.30
  -1  -1   7  145.59    2.50
  -1  -1   7  147.49    2.00
   1   1  -7  141.79    2.50
  -1   1   7  141.99    2.50
   1   1  -7  145.09    2.50
  -1   1   7  146.09    2.40
  -1   1   7  148.19    2.50
   0  -1   7  108.99    1.80
   0  -1   7  113.19    2.10
   0  -1  -7  107.99    2.00
   0  -1   7  108.49    2.00
   0  -1  -7  112.99    2.10
   0  -1  -7  109.29    1.70
   0  -1   7  110.29    1.90
   0   1   7  108.29    2.00
   0   1  -7  110.29    2.10
   0   1   7  110.79    2.00
   0   1  -7  109.19    2.00
   0   1   7  112.09    1.90
   1  -1   7   14.60    0.60
  -1  -1  -7   14.80    0.60
  -1  -1  -7   14.60    0.70
   1  -1   7   14.40    0.70
   1  -1   7   12.40    0.60
   1  -1   7   12.30    0.50
   1   1   7   13.50    0.70
  -1   1  -7   13.40    0.60
   1   1   7   13.00    0.60
  -1   1  -7   13.80    0.60
   1   1   7   14.90    0.50
   2  -1   7   29.10    0.90
   2  -1   7   31.80    0.80
  -2  -1  -7   31.30    0.90
   2  -1   7   31.60    1.10
   2  -1   7   31.90    1.10
   2   1   7   30.30    1.10
   2   1   7   30.60    0.80
   2   1   7   30.30    0.90
  -2   1  -7   29.40    1.00
  -2   1  -7   32.40    0.90
   2   1   7   30.10    0.50
   3  -1   7    8.40    0.50
   3  -1   7    7.40    0.50
   3  -1   7    8.90    0.70
   3  -1   7    8.50    0.70
   3   1   7    7.80    0.40
   3   1   7    7.50    0.50
   3   1   7    7.20    0.60
  -3   1  -7    7.00    0.50
   3   1   7    7.80    0.50
  -3   1  -7    8.20    0.70
   4  -1   7    5.40    0.50
   4  -1   7    5.20    0.60
   4  -1   7    4.30    0.60
   4  -1   7    4.90    0.50
   4   1   7    5.30    0.40
   4   1   7    5.40    0.50
   4   1   7    4.70    0.50
   4   1   7    4.70    0.60
   5  -1   7   29.70    1.20
   5  -1   7   27.50    1.40
   5  -1   7   26.20    1.40
   5  -1   7   28.80    1.00
   5   1   7   28.90    0.90
   5   1   7   29.40    1.50
   5   1   7   28.10    1.20
   6  -1   7    4.00    0.80
   6  -1   7    4.10    0.80
   6   1   7    4.40    0.90
   6   1   7    3.80    0.90
   7  -1   7   -0.40    0.50
   7  -1   7    1.10    0.70
   7   1   7   -0.40    0.50
   7   1   7   -0.10    0.60
   8  -1   7    0.80    0.80
   8  -1   7    0.70    0.90
   8   1   7    1.10    0.90
   8  -2  -7    1.90    1.00
   8  -2  -7    1.10    1.10
   8   2  -7    2.00    0.90
   7  -2  -7   12.30    1.40
   7  -2  -7   11.70    1.40
   7   2  -7   12.30    1.20
   7   2  -7   12.30    1.30
   6  -2  -7    5.50    0.70
   6  -2  -7    5.70    0.90
   6  -2  -7    6.50    1.10
   6   2  -7    5.70    0.90
   6   2  -7    5.50    0.80
   5  -2  -7    0.10    0.30
   5  -2  -7   -0.10    0.50
   5  -2  -7   -0.20    0.30
   5   2  -7    0.30    0.40
   5   2  -7    0.00    0.30
   4  -2  -7   26.90    1.30
   4  -2  -7   29.30    1.10
   4  -2  -7   27.10    1.30
   4   2  -7   26.30    1.20
  -4   2   7   29.00    1.20
   4   2  -7   26.80    0.90
  -3  -2   7  206.48    3.70
   3  -2  -7  212.98    3.80
   3  -2  -7  208.18    3.60
  -3  -2   7  209.48    3.30
  -3   2   7  204.48    3.50
   3   2  -7  210.88    3.50
   3   2  -7  206.78    3.80
   3   2  -7  203.38    2.90
  -3   2   7  205.68    3.60
  -2  -2   7    0.90    0.30
  -2  -2   7    1.20    0.30
  -2  -2   7    0.50    0.30
   2  -2  -7    0.40    0.30
   2  -2  -7    0.50    0.30
  -2   2   7    0.70    0.30
   2   2  -7    1.20    0.30
   2   2  -7    0.90    0.40
  -2   2   7    0.20    0.30
  -1  -2   7   38.00    1.10
  -1  -2   7   38.20    1.10
   1  -2  -7   39.40    1.10
  -1  -2   7   37.70    0.70
   1  -2  -7   38.80    1.20
  -1  -2   7   38.80    1.10
   1   2  -7   37.70    1.20
  -1   2   7   37.30    1.10
   1   2  -7   38.40    1.10
  -1   2   7   37.50    1.10
   0  -2   7  264.57    4.30
   0  -2   7  272.97    4.30
   0  -2   7  271.67    4.20
   0  -2  -7  275.37    3.90
   0  -2  -7  274.67    4.30
   0   2   7  270.37    4.30
   0   2   7  274.67    4.30
   0   2  -7  272.67    4.30
   0   2  -7  271.87    4.30
  -1  -2  -7   16.20    0.50
   1  -2   7   17.00    0.80
   1  -2   7   17.30    0.80
   1  -2   7   17.30    0.70
  -1  -2  -7   15.50    0.70
   1   2   7   17.40    0.80
   1   2   7   17.00    0.50
  -1   2  -7   18.20    0.80
   1   2   7   16.90    0.80
  -1   2  -7   17.70    0.80
   2  -2   7  291.47    4.50
  -2  -2  -7  295.67    4.50
   2  -2   7  289.17    4.70
   2  -2   7  285.67    4.80
  -2   2  -7  293.37    4.70
   2   2   7  297.57    4.60
   2   2   7  289.67    4.70
  -2   2  -7  288.57    4.60
   2   2   7  298.77    4.10
   3  -2   7   50.89    1.60
   3  -2   7   51.49    1.40
   3  -2   7   49.60    1.40
   3   2   7   51.39    1.10
  -3   2  -7   50.69    1.50
  -3   2  -7   51.49    1.30
   3   2   7   52.29    1.60
   3   2   7   52.79    1.30
   3   2   7   50.99    1.00
   4  -2   7    9.40    0.80
   4  -2   7   10.40    0.80
   4  -2   7    8.60    0.70
   4   2   7   10.00    0.60
   4   2   7   10.50    0.90
  -4   2  -7    9.90    0.80
   5  -2   7    0.00    0.40
   5  -2   7   -0.10    0.40
   5  -2   7    0.00    0.50
   5  -2   7   -0.50    0.40
   5   2   7    0.10    0.50
   5   2   7    0.20    0.30
   5   2   7   -0.60    0.50
   6  -2   7   16.70    1.40
   6  -2   7   16.60    1.40
   6  -2   7   16.40    0.90
   6   2   7   17.20    1.40
   6   2   7   17.20    1.40
   7  -2   7    0.30    0.70
   7  -2   7   -1.40    0.60
   7   2   7    2.50    0.70
   7   2   7   -0.60    0.70
   8  -2   7    3.50    1.10
   8   2   7    1.10    1.10
   8   2   7    3.40    1.00
   8   3  -7    0.80    0.90
   7  -3  -7   -0.70    0.80
   7  -3  -7    0.10    0.80
   7   3  -7    0.80    0.70
   7   3  -7    1.40    0.80
   6  -3  -7   -0.60    0.70
   6  -3  -7   -0.40    0.60
   6  -3  -7    0.00    0.50
   6   3  -7    0.60    0.60
   5  -3  -7    2.90    0.80
   5  -3  -7    2.70    0.60
   5  -3  -7    2.90    0.60
   5   3  -7    3.50    0.50
   5   3  -7    2.50    0.70
  -5   3   7    3.50    0.70
   4  -3  -7   19.00    1.20
   4  -3  -7   18.70    1.20
   4  -3  -7   19.00    1.00
   4   3  -7   16.90    0.80
   4   3  -7   17.60    1.10
  -4   3   7   16.80    1.10
   3  -3  -7   74.99    2.00
   3  -3  -7   69.29    1.90
  -3  -3   7   69.29    1.80
   3  -3  -7   72.79    2.00
  -3   3   7   69.89    1.90
   3   3  -7   69.49    1.70
   3   3  -7   71.59    2.00
  -3   3   7   74.09    1.90
  -2  -3   7   34.40    1.10
   2  -3  -7   32.60    1.20
  -2  -3   7   32.50    1.20
  -2  -3   7   35.10    1.20
   2  -3  -7   32.70    1.20
   2  -3  -7   33.30    1.20
  -2   3   7   32.50    0.60
  -2   3   7   31.50    1.20
   2   3  -7   34.20    1.30
   2   3  -7   33.20    0.60
   2   3  -7   33.70    1.20
  -2   3   7   33.40    1.20
   1  -3  -7  895.11   12.50
  -1  -3   7  908.51   12.30
  -1  -3   7  888.01   12.30
  -1  -3   7  881.01   12.40
   1  -3  -7  900.21   12.10
   1  -3  -7  891.61   12.10
   1   3  -7  898.21   11.50
   1   3  -7  860.51   12.40
   1   3  -7  890.81   12.60
  -1   3   7  874.81   11.90
  -1   3   7  892.21   12.30
  -1   3   7  897.41   12.50
   0  -3  -7  216.98    3.50
   0  -3   7  206.98    3.70
   0  -3   7  213.68    3.70
   0  -3  -7  220.68    3.20
   0  -3  -7  220.98    3.80
   0  -3   7  220.48    3.80
   0   3   7  215.28    3.50
   0   3   7  211.48    3.70
   0   3  -7  218.18    3.80
   0   3  -7  209.48    3.80
   0   3   7  219.78    3.80
  -1  -3  -7  174.18    3.20
   1  -3   7  176.78    3.30
  -1  -3  -7  173.68    2.30
   1  -3   7  176.08    3.20
  -1  -3  -7  183.18    2.80
   1  -3   7  174.08    3.30
  -1   3  -7  181.08    3.30
   1   3   7  173.38    3.20
   1   3   7  171.98    3.20
  -1   3  -7  174.18    3.30
   1   3   7  175.88    3.20
   2  -3   7    2.10    0.50
   2  -3   7    2.50    0.50
   2  -3   7    1.60    0.50
  -2  -3  -7    2.30    0.30
  -2  -3  -7    2.20    0.40
   2   3   7    2.20    0.50
   2   3   7    1.20    0.40
  -2   3  -7    1.70    0.40
  -2   3  -7    1.70    0.40
   2   3   7    2.50    0.50
   3  -3   7    0.20    0.40
   3  -3   7    1.40    0.40
   3  -3   7    0.80    0.40
   3   3   7    0.80    0.40
   3   3   7    1.50    0.50
   3   3   7    1.00    0.30
  -3   3  -7    1.70    0.40
  -3   3  -7    1.10    0.30
   4  -3   7    0.20    0.30
   4  -3   7   -0.50    0.40
   4  -3   7   -0.40    0.50
   4   3   7    0.30    0.50
  -4   3  -7   -0.20    0.40
   4   3   7   -0.10    0.50
   4   3   7   -0.40    0.30
   5  -3   7   47.60    1.80
   5  -3   7   46.90    2.00
   5  -3   7   45.90    1.70
   5   3   7   46.10    1.90
   5   3   7   45.40    1.40
   5   3   7   47.20    2.10
   6  -3   7    1.30    0.60
   6  -3   7    2.60    0.80
   6  -3   7    0.10    0.70
   6   3   7    2.40    0.80
   6   3   7    2.60    0.80
   7  -3   7    0.60    0.80
   7  -3   7   -0.40    0.70
   7   3   7    0.40    0.70
   7   3   7    0.10    0.80
   7  -4  -7    0.10    0.90
   7  -4  -7    0.90    0.90
   7  -4  -7    1.30    0.80
   7   4  -7   -0.50    0.80
   6  -4  -7   10.40    1.20
   6  -4  -7   11.20    1.10
   6  -4  -7   11.50    1.30
   6   4  -7   10.40    1.20
   5  -4  -7    1.20    0.70
   5  -4  -7    2.50    0.60
   5  -4  -7    3.20    0.80
   5   4  -7    2.50    0.70
   5   4  -7    2.10    0.50
  -5   4   7    1.80    0.70
  -4  -4   7   14.30    1.00
   4  -4  -7   17.70    1.30
   4  -4  -7   15.40    1.20
   4  -4  -7   16.30    1.10
   4   4  -7   16.10    0.90
  -4   4   7   16.10    1.20
   4   4  -7   15.30    1.20
  -3  -4   7    7.40    0.80
   3  -4  -7    5.50    0.70
   3  -4  -7    5.50    0.70
  -3  -4   7    5.40    0.60
   3  -4  -7    6.70    0.80
   3   4  -7    6.70    0.80
  -3   4   7    5.20    0.70
   3   4  -7    6.90    0.70
  -3   4   7    6.50    0.80
  -2  -4   7  116.39    2.50
  -2  -4   7  114.79    2.50
  -2  -4   7  114.59    2.70
   2  -4  -7  116.69    2.60
   2  -4  -7  112.79    2.70
   2  -4  -7  115.09    2.50
  -2   4   7  113.49    2.70
   2   4  -7  111.49    2.70
   2   4  -7  106.59    2.50
  -2   4   7  111.49    2.60
  -1  -4   7   90.39    2.20
  -1  -4   7   87.79    2.20
   1  -4  -7   85.99    2.10
   1  -4  -7   82.79    1.80
   1  -4  -7   86.49    2.20
  -1  -4   7   86.99    2.10
   1   4  -7   88.09    2.20
   1   4  -7   83.29    1.70
   1   4  -7   87.59    2.20
  -1   4   7   86.59    1.70
  -1   4   7   86.89    2.20
  -1   4   7   90.59    2.30
   0  -4  -7   18.80    1.10
   0  -4   7   19.40    1.00
   0  -4  -7   18.50    0.90
   0  -4   7   19.40    1.10
   0  -4  -7   18.80    0.60
   0  -4   7   20.60    1.00
   0   4   7   18.30    1.00
   0   4  -7   19.50    1.00
   0   4   7   19.10    0.90
   0   4  -7   19.30    1.10
   0   4  -7   19.40    0.80
   0   4   7   19.50    1.10
   1  -4   7  129.29    2.80
   1  -4   7  129.29    2.80
  -1  -4  -7  126.79    2.70
   1  -4   7  126.19    2.80
  -1  -4  -7  124.99    2.40
   1   4   7  125.89    2.80
  -1   4  -7  127.09    2.70
   1   4   7  123.89    2.80
   1   4   7  128.59    2.70
  -1   4  -7  120.99    2.80
   2  -4   7   37.20    1.40
  -2  -4  -7   37.50    1.30
  -2  -4  -7   40.10    1.20
   2  -4   7   40.80    1.50
   2  -4   7   37.50    1.50
  -2   4  -7   39.70    1.40
   2   4   7   37.00    1.40
  -2   4  -7   36.60    1.40
   2   4   7   42.60    1.50
   2   4   7   38.80    1.50
   3  -4   7    5.00    0.70
   3  -4   7    6.00    0.70
   3  -4   7    4.00    0.60
  -3   4  -7    5.10    0.60
  -3   4  -7    4.20    0.70
   3   4   7    4.70    0.80
   3   4   7    4.30    0.60
   3   4   7    5.00    0.70
   4  -4   7    7.30    0.90
   4  -4   7    7.50    1.00
   4  -4   7    7.70    0.80
  -4   4  -7   10.30    0.80
   4   4   7    8.50    1.00
   4   4   7    9.00    1.10
   4   4   7    9.20    0.80
   5  -4   7    7.10    1.00
   5  -4   7    6.80    0.90
   5  -4   7    8.70    1.20
   5   4   7    6.70    0.70
   5   4   7    7.30    1.00
   5   4   7    5.00    1.00
   6  -4   7   -0.10    0.50
   6  -4   7    0.10    0.70
   6  -4   7   -0.30    0.60
   6   4   7    2.70    0.80
   6   4   7    0.80    0.80
   7  -4   7    5.30    1.20
   7  -4   7    5.40    1.20
   7   4   7    6.80    1.20
   7   4   7    6.70    1.30
   7  -5  -7    1.30    0.80
   7   5  -7    1.80    1.00
   6  -5  -7    2.10    1.00
   6  -5  -7    3.20    1.00
   6  -5  -7    1.50    0.90
   6   5  -7    1.70    0.90
   5  -5  -7    7.70    1.10
   5  -5  -7    7.20    1.10
   5  -5  -7    6.10    1.10
   5   5  -7    6.50    1.10
   5   5  -7    7.60    0.80
  -5   5   7    9.30    1.20
   4  -5  -7    2.50    0.70
   4  -5  -7    3.60    0.80
   4  -5  -7    3.30    0.80
   4   5  -7    3.80    0.70
   4   5  -7    2.90    0.80
  -4   5   7    3.60    0.80
   3  -5  -7  122.69    3.10
  -3  -5   7  113.89    3.00
  -3  -5   7  118.59    2.70
   3  -5  -7  126.69    3.20
   3  -5  -7  123.89    3.00
   3   5  -7  125.09    3.20
  -3   5   7  122.89    3.20
   3   5  -7  124.59    2.90
  -2  -5   7   24.40    1.30
  -2  -5   7   23.40    1.20
   2  -5  -7   23.60    1.30
  -2  -5   7   26.00    1.20
   2  -5  -7   25.80    1.20
   2  -5  -7   25.00    1.20
  -2   5   7   25.40    1.40
   2   5  -7   26.80    1.40
   2   5  -7   24.20    1.30
  -2   5   7   22.00    1.20
   1  -5  -7   15.20    0.80
  -1  -5   7   15.70    1.10
   1  -5  -7   16.70    1.10
  -1  -5   7   17.40    1.00
   1  -5  -7   16.70    1.00
  -1  -5   7   16.40    1.10
   1   5  -7   15.60    0.80
   1   5  -7   14.60    1.10
  -1   5   7   16.10    1.10
  -1   5   7   14.40    1.10
   1   5  -7   18.10    1.10
   0  -5   7   13.30    1.10
   0  -5   7   16.10    1.00
   0  -5  -7   15.10    0.90
   0  -5  -7   16.60    1.10
   0  -5   7   17.10    1.10
   0   5   7   12.60    1.10
   0   5   7   13.90    0.90
   0   5  -7   15.00    1.10
   0   5  -7   12.60    0.80
   0   5   7   17.10    1.10
   0   5  -7   14.60    1.00
   1  -5   7   10.00    1.00
  -1  -5  -7    8.10    0.70
  -1  -5  -7    9.80    0.90
   1  -5   7    7.50    0.90
   1  -5   7    8.60    0.90
  -1   5  -7    8.60    0.80
   1   5   7   10.20    0.90
   1   5   7    8.60    0.90
   1   5   7    8.10    0.80
  -1   5  -7    9.50    0.90
  -1   5  -7    8.80    0.80
   2  -5   7    0.20    0.50
   2  -5   7    0.40    0.50
  -2  -5  -7    0.50    0.30
   2  -5   7    0.70    0.40
   2   5   7    0.90    0.50
  -2   5  -7    0.60    0.50
   2   5   7    1.20    0.50
  -2   5  -7    0.40    0.40
   2   5   7   -0.30    0.50
   3  -5   7   -0.30    0.50
   3  -5   7    0.90    0.60
   3  -5   7    0.10    0.50
   3   5   7    0.00    0.40
   3   5   7    0.00    0.50
   3   5   7    0.40    0.60
  -3   5  -7   -0.40    0.40
   4  -5   7    3.30    0.80
   4  -5   7    2.90    0.70
   4  -5   7    3.60    0.80
   4   5   7    2.90    0.90
   4   5   7    2.50    0.60
   4   5   7    2.50    0.70
   5  -5   7   37.90    2.00
   5  -5   7   39.50    1.90
   5  -5   7   41.30    2.20
   5   5   7   39.20    1.90
   5   5   7   37.00    2.20
   5   5   7   35.30    1.50
   6  -5   7    0.80    0.80
   6  -5   7   -1.10    0.70
   6  -5   7    0.80    0.80
   6   5   7   -0.90    0.70
   6   5   7    1.00    0.90
   6  -6  -7    1.50    1.00
   6  -6  -7    1.90    0.80
   6  -6  -7    1.80    1.10
  -6   6   7    4.30    1.10
   6   6  -7    1.80    1.00
   5  -6  -7    1.40    0.80
   5  -6  -7    2.00    0.90
   5  -6  -7    2.30    1.00
   5   6  -7    0.80    0.70
  -5   6   7    2.20    0.90
   5   6  -7    0.90    0.80
   4  -6  -7   25.50    1.70
   4  -6  -7   25.80    1.80
  -4  -6   7   29.70    1.80
   4  -6  -7   23.90    1.70
  -4   6   7   24.90    1.80
   4   6  -7   23.00    1.80
   4   6  -7   26.30    1.60
   3  -6  -7   12.20    1.20
   3  -6  -7   10.60    1.10
  -3  -6   7    9.80    1.20
   3  -6  -7   11.40    1.10
   3   6  -7   13.20    1.20
   3   6  -7   11.20    1.20
  -3   6   7   13.00    1.30
  -2  -6   7    0.70    0.60
   2  -6  -7   -0.40    0.60
   2  -6  -7    0.80    0.60
   2   6  -7   -0.20    0.60
   2   6  -7   -0.30    0.50
  -2   6   7    0.90    0.70
   1  -6  -7    9.80    1.10
  -1  -6   7    9.20    1.10
   1  -6  -7    8.40    1.00
  -1  -6   7    8.70    0.90
  -1  -6   7   10.00    1.00
   1   6  -7    9.40    1.00
   1   6  -7    8.50    0.90
  -1   6   7    7.70    1.00
  -1   6   7   10.80    1.10
   0  -6   7   46.00    1.70
   0  -6   7   48.30    1.90
   0  -6   7   49.20    2.00
   0  -6  -7   45.60    1.90
   0  -6  -7   45.90    1.70
   0   6  -7   46.80    1.90
   0   6   7   48.20    2.00
   0   6   7   45.00    1.60
   0   6   7   48.20    1.90
   0   6  -7   49.50    1.90
   0   6  -7   47.30    1.60
  -1  -6  -7    0.10    0.50
   1  -6   7    0.90    0.60
   1  -6   7   -0.60    0.50
   1  -6   7   -0.30    0.60
  -1  -6  -7    0.40    0.40
  -1   6  -7    0.40    0.50
  -1   6  -7    0.50    0.60
   1   6   7    0.40    0.50
   1   6   7   -0.20    0.60
  -1   6  -7    0.30    0.50
   1   6   7    0.70    0.60
   2  -6   7   23.50    1.50
   2  -6   7   24.90    1.50
   2  -6   7   22.30    1.50
  -2   6  -7   21.00    1.50
   2   6   7   23.10    1.50
   2   6   7   21.00    1.50
  -2   6  -7   22.30    1.30
   2   6   7   23.90    1.50
   3  -6   7   10.30    1.20
   3  -6   7   10.20    1.20
   3  -6   7    9.10    1.10
   3   6   7   10.80    1.20
   3   6   7    8.40    1.00
   3   6   7    9.00    1.10
   4  -6   7    4.30    1.00
   4  -6   7    5.60    1.00
   4  -6   7    4.60    1.00
   4   6   7    5.20    1.10
   4   6   7    7.40    1.10
   4   6   7    5.50    0.90
   5  -6   7    4.50    1.00
   5  -6   7    3.90    1.00
   5  -6   7    2.30    1.00
   5   6   7    3.40    1.10
   5   6   7    2.40    0.70
   5   6   7    3.90    1.00
   6  -6   7    0.80    0.90
   5  -7  -7   -0.40    0.90
   5  -7  -7   -0.40    0.80
  -5   7   7   -0.80    0.80
   5   7  -7   -0.20    0.80
   5   7  -7    0.10    0.70
   4  -7  -7    3.50    0.90
   4  -7  -7    4.80    1.10
   4  -7  -7    2.20    1.00
  -4  -7   7    3.10    1.00
   4   7  -7    4.70    1.10
  -4   7   7    3.80    0.90
   4   7  -7    2.80    0.90
  -3  -7   7   -0.70    0.70
   3  -7  -7    1.60    0.80
   3  -7  -7    1.10    0.80
   3   7  -7    0.70    0.80
  -3   7   7    0.90    0.80
   3   7  -7    2.00    0.90
   2  -7  -7    6.40    1.10
   2  -7  -7    7.10    1.10
  -2  -7   7    5.40    1.00
   2   7  -7    6.40    1.00
  -2   7   7    5.80    1.00
  -2   7   7    5.50    1.10
   2   7  -7    5.30    1.00
  -1  -7   7    4.20    0.90
   1  -7  -7    5.30    0.90
  -1  -7   7    5.70    1.00
   1  -7  -7    5.70    1.00
  -1   7   7    4.00    0.90
  -1   7   7    3.60    1.00
   1   7  -7    4.50    0.90
   1   7  -7    3.60    0.90
   0  -7   7    9.20    1.10
   0  -7   7    8.40    1.00
   0  -7  -7    9.20    1.20
   0  -7   7    8.10    1.10
   0  -7  -7    8.30    1.00
   0   7  -7    9.50    1.10
   0   7  -7    8.50    1.10
   0   7   7    8.30    1.10
   1  -7   7    6.80    1.00
   1  -7   7    7.00    1.00
   1  -7   7    6.10    1.10
  -1  -7  -7    5.80    0.90
  -1   7  -7    4.70    1.00
   1   7   7    5.80    1.00
   1   7   7    7.70    0.90
   1   7   7    6.70    1.00
  -1   7  -7    5.60    0.80
  -1   7  -7    5.90    1.00
   2  -7   7    5.60    1.00
   2  -7   7    5.80    1.10
   2  -7   7    7.20    1.10
   2   7   7    5.20    1.00
  -2   7  -7    7.80    1.10
   2   7   7    7.40    1.10
   2   7   7    5.50    1.00
   3  -7   7    1.90    0.80
   3  -7   7    0.80    0.80
   3  -7   7    0.60    0.80
   3   7   7    1.90    1.00
   3   7   7    0.20    0.70
   4  -7   7    1.60    0.90
   4  -7   7    1.20    0.90
   4  -7   7    0.40    0.70
   4   7   7    0.30    0.80
   4   7   7   -0.60    0.80
   5  -7   7   -0.30    0.80
   5   7   7    0.60    0.80
  -4  -8   7    4.20    1.10
   3  -8  -7    1.70    0.90
   3  -8  -7   -0.30    0.80
  -3  -8   7    0.20    0.80
   3   8  -7    1.40    1.00
   3   8  -7   -0.60    0.80
  -3   8   7    0.80    0.90
   2  -8  -7   -0.10    0.80
   2  -8  -7    1.20    0.80
  -2  -8   7   -1.30    0.70
   2   8  -7    0.40    0.80
  -2   8   7    0.40    0.80
  -2   8   7   -0.70    0.90
   2   8  -7    2.10    1.00
   1  -8  -7   -0.50    0.70
  -1  -8   7    0.10    0.70
   1  -8  -7    0.10    0.90
  -1   8   7    0.30    0.80
   1   8  -7    0.80    0.80
  -1   8   7    0.30    0.90
   1   8  -7    0.10    0.70
   0  -8  -7    0.60    0.70
   0  -8  -7    2.00    0.90
   0  -8   7    1.10    0.90
   0  -8   7    2.50    1.00
   0   8  -7    2.00    1.00
   0   8   7    0.80    0.80
   0   8   7    2.00    1.00
   0   8  -7    2.20    1.00
   1  -8   7    2.10    0.90
   1  -8   7    1.80    0.90
  -1   8  -7    1.70    0.90
   1   8   7    0.80    0.90
   1   8   7    1.30    0.90
   2  -8   7    0.70    0.80
   2  -8   7    0.10    0.90
   2  -8   7    1.60    1.00
   2   8   7   -0.20    0.70
   2   8   7    0.00    0.80
   2   8   7   -0.70    0.80
  -2   8  -7    0.10    0.90
   3  -8   7    1.30    0.90
   3  -8   7    1.00    1.00
   3  -8   7   -0.80    0.90
   3   8   7    2.80    1.00
   3   8   7    0.00    1.10
   3   8   7   -0.10    0.80
   4  -8   7   -0.60    0.90
   2  -9  -7    1.50    1.00
   2   9  -7    0.40    0.90
   1  -9  -7    0.00    0.80
   1  -9  -7   -1.30    1.00
   1   9  -7    1.00    1.10
  -1   9   7    0.20    1.00
  -1   9   7   -0.10    1.00
   0   9   7    1.40    1.00
   1  -9   7    1.80    1.10
  -1   9  -7    0.80    1.10
   1   9   7    0.60    1.00
   2   9   7   -0.70    0.90
   8   0  -8    1.30    0.90
   8   0  -8    0.50    1.00
   7   0  -8    1.00    0.70
   7   0  -8   -0.30    0.70
   6   0  -8   13.70    1.30
   6   0  -8   14.40    1.20
   5   0  -8    0.50    0.30
   5   0  -8    0.30    0.50
   4   0  -8   10.10    0.60
   4   0  -8   10.80    0.80
   4   0  -8   10.60    0.60
   3   0  -8   -0.30    0.20
   3   0  -8   -0.20    0.20
  -3   0   8   -0.30    0.20
  -3   0   8   -0.20    0.20
   3   0  -8   -0.20    0.20
  -2   0   8    0.30    0.30
  -2   0   8    0.30    0.20
  -2   0   8    0.30    0.20
   2   0  -8    0.20    0.20
   2   0  -8    0.50    0.20
   1   0  -8    0.00    0.20
   1   0  -8    0.10    0.20
  -1   0   8    0.00    0.20
  -1   0   8    0.40    0.30
  -1   0   8   -0.10    0.20
   0   0   8  188.98    3.20
   0   0  -8  190.38    3.20
   0   0  -8  195.38    3.20
   0   0   8  193.48    3.10
   0   0   8  194.78    3.00
  -1   0  -8   -0.50    0.20
   1   0   8    0.20    0.20
   1   0   8   -0.10    0.20
  -1   0  -8    0.10    0.30
   1   0   8    0.30    0.10
   1   0   8    0.00    0.20
  -2   0  -8  963.70   13.40
   2   0   8  963.30   13.10
   2   0   8  937.81   13.10
   2   0   8  949.90   13.00
   2   0   8  978.50   13.00
  -2   0  -8  972.30   12.90
   3   0   8    0.00    0.10
  -3   0  -8    0.00    0.20
   3   0   8    0.10    0.30
   3   0   8   -0.10    0.20
   3   0   8    0.20    0.30
   4   0   8   13.80    0.80
   4   0   8   16.50    1.00
   4   0   8   14.70    0.70
   4   0   8   13.90    0.70
   5   0   8    0.10    0.30
   5   0   8   -0.20    0.40
   5   0   8   -0.20    0.50
   6   0   8    6.70    0.90
   6   0   8    6.70    1.00
   7   0   8    0.90    0.70
   7   0   8   -0.40    0.50
   8   0   8    4.60    1.10
   8  -1  -8    4.90    1.20
   8  -1  -8    1.40    1.00
   8   1  -8    2.30    1.00
   8   1  -8    2.20    1.00
   7  -1  -8    3.70    1.00
   7  -1  -8    5.20    1.10
   7   1  -8    5.20    1.00
   7   1  -8    4.70    1.00
   6  -1  -8    1.70    0.40
   6  -1  -8    1.70    0.60
   6  -1  -8    0.40    0.70
   6   1  -8    0.70    0.60
   5  -1  -8    2.70    0.60
   5  -1  -8    4.10    0.70
   5  -1  -8    4.00    0.50
   5   1  -8    4.70    0.50
   5   1  -8    3.50    0.60
   5   1  -8    4.80    0.70
   4  -1  -8   42.50    1.50
   4  -1  -8   45.60    1.10
   4  -1  -8   42.80    1.30
  -4   1   8   46.10    1.40
   4   1  -8   44.00    1.40
   4   1  -8   43.30    1.20
   4   1  -8   43.50    1.10
   3  -1  -8   52.89    1.50
  -3  -1   8   51.79    1.20
  -3  -1   8   53.99    1.60
   3  -1  -8   52.99    1.10
   3  -1  -8   50.79    1.40
  -3   1   8   53.59    1.30
   3   1  -8   50.99    1.40
   3   1  -8   52.99    1.30
  -3   1   8   55.19    1.40
   2  -1  -8    2.80    0.40
  -2  -1   8    2.20    0.40
  -2  -1   8    3.40    0.40
   2  -1  -8    2.30    0.40
   2  -1  -8    2.50    0.30
   2   1  -8    2.60    0.40
  -2   1   8    3.10    0.40
   2   1  -8    2.40    0.40
  -2   1   8    2.50    0.40
  -1  -1   8  112.29    1.60
   1  -1  -8  112.39    2.20
   1  -1  -8  109.29    1.90
  -1  -1   8  111.09    2.20
  -1  -1   8  111.19    2.10
   1  -1  -8  109.49    2.00
  -1   1   8  111.09    2.10
  -1   1   8  111.49    2.10
  -1   1   8  110.99    2.00
   1   1  -8  109.59    2.10
   1   1  -8  111.69    2.10
   0  -1   8   51.99    1.10
   0  -1   8   50.19    1.30
   0  -1   8   50.79    1.10
   0  -1   8   51.99    1.30
   0  -1  -8   51.79    1.00
   0  -1  -8   49.90    1.30
   0  -1  -8   52.29    1.20
   0   1  -8   49.40    1.30
   0   1   8   52.29    1.20
   0   1  -8   51.39    1.30
   0   1   8   53.39    1.20
   0   1   8   52.69    1.30
   1  -1   8   10.50    0.60
   1  -1   8    8.80    0.60
   1  -1   8    9.70    0.40
   1  -1   8   10.20    0.60
  -1  -1  -8   10.10    0.60
  -1  -1  -8   10.40    0.60
  -1   1  -8   10.20    0.60
   1   1   8   10.40    0.60
  -1   1  -8   11.30    0.60
   1   1   8   10.20    0.60
   1   1   8    9.90    0.50
   2  -1   8   19.90    0.80
   2  -1   8   19.20    0.90
   2  -1   8   17.90    0.60
  -2  -1  -8   18.20    0.70
   2  -1   8   17.20    0.80
  -2   1  -8   18.60    0.90
   2   1   8   18.80    0.80
   2   1   8   17.20    0.90
   2   1   8   18.10    0.60
  -2   1  -8   18.10    0.80
  -3  -1  -8    1.60    0.30
   3  -1   8    1.90    0.40
   3  -1   8    1.90    0.40
   3  -1   8    1.50    0.40
   3  -1   8    1.80    0.30
   3   1   8    1.80    0.30
  -3   1  -8    1.70    0.30
   3   1   8    2.00    0.30
   3   1   8    1.90    0.20
  -3   1  -8    1.90    0.40
   3   1   8    1.90    0.50
   4  -1   8    1.30    0.30
   4  -1   8    1.50    0.40
   4  -1   8    1.10    0.30
   4  -1   8    1.70    0.50
   4   1   8    1.10    0.30
   4   1   8    1.40    0.40
   4   1   8    2.40    0.50
   5  -1   8    6.20    0.60
   5  -1   8    7.30    0.90
   5  -1   8    7.10    0.90
   5   1   8    6.10    0.50
   5   1   8    6.90    0.90
   5   1   8    5.60    0.70
   6  -1   8   25.30    1.50
   6  -1   8   24.90    1.50
   6   1   8   28.20    1.60
   7  -1   8   -0.40    0.60
   7  -1   8    0.40    0.70
   7   1   8    0.40    0.70
   7   1   8   -0.40    0.60
   8   1   8    0.20    0.80
   8   1   8    2.00    1.00
   8  -2  -8    4.50    1.30
   8  -2  -8    4.30    1.10
   8   2  -8    6.90    1.20
   7  -2  -8    0.80    0.60
   7  -2  -8    0.80    0.80
   7   2  -8   -0.40    0.60
   7   2  -8   -0.40    0.60
   6  -2  -8    1.20    0.80
   6  -2  -8    1.30    0.60
   6  -2  -8    0.90    0.50
   6   2  -8    0.90    0.60
   6   2  -8   -0.20    0.50
   5  -2  -8    1.30    0.40
   5  -2  -8    0.40    0.60
   5  -2  -8    0.90    0.40
   5   2  -8    0.70    0.30
   5   2  -8    0.80    0.50
   4  -2  -8    5.70    0.70
   4  -2  -8    7.00    0.70
   4  -2  -8    7.80    0.80
  -4   2   8    7.50    0.70
   4   2  -8    6.90    0.50
   4   2  -8    7.60    0.80
  -3  -2   8  203.68    3.70
  -3  -2   8  203.68    3.30
   3  -2  -8  204.28    3.80
   3  -2  -8  202.08    3.60
   3   2  -8  209.88    3.80
  -3   2   8  207.38    3.60
  -3   2   8  208.18    3.60
   3   2  -8  202.58    3.50
  -2  -2   8   54.69    1.40
  -2  -2   8   53.69    1.50
   2  -2  -8   54.39    1.50
   2  -2  -8   53.99    1.50
  -2  -2   8   51.59    1.40
  -2   2   8   54.89    1.50
  -2   2   8   54.89    1.50
   2   2  -8   54.99    1.50
   2   2  -8   53.29    1.40
  -1  -2   8   93.39    1.40
  -1  -2   8   96.09    2.00
   1  -2  -8   96.39    1.90
   1  -2  -8   92.09    2.00
  -1  -2   8   94.59    2.00
  -1  -2   8   93.89    2.00
   1   2  -8   93.99    2.00
   1   2  -8   93.89    2.00
  -1   2   8   97.89    2.10
  -1   2   8   96.79    2.00
   0  -2   8   66.89    1.50
   0  -2  -8   64.89    1.30
   0  -2   8   67.69    1.60
   0  -2  -8   64.99    1.60
   0  -2   8   65.59    1.30
   0  -2   8   65.49    1.60
   0   2   8   68.99    1.60
   0   2  -8   65.59    1.60
   0   2  -8   65.59    1.60
   0   2   8   64.89    1.60
   0   2   8   67.09    1.30
   1  -2   8  298.77    4.80
  -1  -2  -8  308.17    4.70
   1  -2   8  298.87    4.80
  -1  -2  -8  300.57    4.10
   1  -2   8  301.87    4.60
   1   2   8  304.27    4.20
   1   2   8  294.77    4.70
   1   2   8  295.57    4.70
  -1   2  -8  294.77    4.70
  -1   2  -8  302.57    4.80
   2  -2   8   12.80    0.70
  -2  -2  -8   11.90    0.60
   2  -2   8   11.60    0.80
   2  -2   8   15.20    0.80
   2   2   8   11.60    0.40
  -2   2  -8   11.50    0.70
   2   2   8   12.40    0.70
  -2   2  -8   12.50    0.70
   2   2   8   11.50    0.70
   3  -2   8   15.20    0.80
   3  -2   8   15.80    0.80
   3  -2   8   16.90    1.00
  -3   2  -8   15.80    0.90
  -3   2  -8   14.00    0.80
   3   2   8   15.60    0.80
   3   2   8   15.60    0.60
   3   2   8   15.60    1.00
   4  -2   8    8.20    0.70
   4  -2   8    7.80    0.70
   4  -2   8    8.30    0.90
   4  -2   8    8.80    0.90
   4   2   8    7.10    0.60
  -4   2  -8    7.80    0.80
   4   2   8   10.10    0.90
   5  -2   8    7.30    0.90
   5  -2   8    7.30    0.80
   5  -2   8    7.80    0.70
   5  -2   8    6.80    0.90
   5   2   8    7.40    0.90
   5   2   8    7.10    1.00
   5   2   8    6.60    0.60
   6  -2   8    0.60    0.40
   6  -2   8    0.90    0.50
   6  -2   8    0.40    0.70
   6   2   8    0.50    0.70
   6   2   8    0.30    0.60
   7  -2   8    3.40    1.00
   7  -2   8    4.00    1.00
   7   2   8    2.90    1.00
   7   2   8    2.50    0.90
   8  -2   8    2.70    1.10
   8   2   8    2.00    1.10
   8   2   8    0.90    1.00
   8   3  -8    3.60    1.10
   7  -3  -8    1.90    1.00
   7  -3  -8    2.80    0.80
   7   3  -8    2.70    0.90
   7   3  -8    2.00    1.00
   6  -3  -8    1.30    0.80
   6  -3  -8    0.20    0.50
   6  -3  -8    0.10    0.70
   6   3  -8    0.10    0.60
   5  -3  -8    0.20    0.40
   5  -3  -8    0.90    0.60
   5  -3  -8    1.40    0.50
  -5   3   8    0.10    0.50
   5   3  -8    0.90    0.40
   5   3  -8    0.50    0.50
   4  -3  -8    0.60    0.50
  -4  -3   8    0.30    0.40
   4  -3  -8    0.60    0.50
   4  -3  -8    0.80    0.40
   4   3  -8    0.70    0.50
   4   3  -8    0.00    0.30
  -4   3   8    0.60    0.50
   3  -3  -8    9.40    0.90
  -3  -3   8    9.80    0.80
   3  -3  -8    8.70    0.80
   3  -3  -8    8.00    0.80
  -3   3   8    9.20    0.80
  -3   3   8   11.50    0.90
   3   3  -8    9.60    0.90
   3   3  -8   10.60    0.70
   2  -3  -8   11.20    0.80
   2  -3  -8   14.40    0.90
  -2  -3   8   12.80    0.80
  -2  -3   8   13.90    0.90
   2  -3  -8   15.10    0.80
  -2  -3   8   13.50    0.80
  -2   3   8   13.20    0.40
  -2   3   8   12.60    0.80
  -2   3   8   14.50    0.90
   2   3  -8   13.30    0.80
   2   3  -8   15.30    0.90
  -1  -3   8   33.90    1.20
  -1  -3   8   33.70    1.30
   1  -3  -8   32.40    1.10
  -1  -3   8   34.90    1.20
   1  -3  -8   35.20    1.30
  -1   3   8   32.70    0.90
   1   3  -8   32.80    1.20
  -1   3   8   32.10    1.30
  -1   3   8   31.60    1.20
   1   3  -8   36.10    1.30
   0  -3   8  416.16    6.40
   0  -3  -8  413.66    6.40
   0  -3   8  414.56    6.40
   0  -3   8  407.76    6.20
   0  -3  -8  412.56    5.90
   0   3   8  409.26    6.40
   0   3   8  415.56    6.30
   0   3  -8  407.06    6.40
   0   3  -8  398.96    6.40
   1  -3   8   40.60    1.30
  -1  -3  -8   40.90    1.00
  -1  -3  -8   39.30    1.30
   1  -3   8   40.00    1.40
   1  -3   8   39.20    1.30
  -1   3  -8   39.90    1.30
   1   3   8   40.80    1.30
  -1   3  -8   38.10    1.30
   1   3   8   38.10    1.30
   2  -3   8   37.40    1.30
  -2  -3  -8   39.20    0.90
  -2  -3  -8   40.60    1.30
   2  -3   8   39.60    1.40
   2  -3   8   40.40    1.30
   2   3   8   42.10    1.40
   2   3   8   39.10    1.30
  -2   3  -8   37.80    1.30
  -2   3  -8   41.80    1.40
   3  -3   8    3.80    0.60
   3  -3   8    3.60    0.60
   3  -3   8    3.10    0.50
   3   3   8    3.40    0.60
   3   3   8    3.40    0.50
  -3   3  -8    4.10    0.60
   3   3   8    3.40    0.50
  -3   3  -8    3.00    0.50
   4  -3   8    4.80    0.80
   4  -3   8    4.80    0.60
   4  -3   8    4.40    0.60
   4   3   8    4.70    0.60
   4   3   8    5.80    0.80
  -4   3  -8    4.20    0.60
   4   3   8    5.40    0.80
   5  -3   8    0.10    0.50
   5  -3   8   -0.20    0.50
   5  -3   8   -0.40    0.40
   5   3   8   -0.30    0.60
   5   3   8   -0.20    0.40
   5   3   8   -0.20    0.60
  -5   3  -8    0.20    0.40
   6  -3   8   19.00    1.40
   6  -3   8   19.30    1.40
   6  -3   8   17.50    1.20
   6   3   8   19.20    1.70
   6   3   8   17.60    1.50
   7  -3   8    0.10    0.80
   7  -3   8    0.20    0.80
   7   3   8    1.10    0.80
   7   3   8    0.60    0.90
   7  -4  -8    3.50    1.10
   7  -4  -8    2.20    0.90
   7  -4  -8    3.80    1.20
   7   4  -8    3.30    1.00
   6  -4  -8    2.20    0.70
   6  -4  -8    0.90    0.80
   6  -4  -8   -1.10    0.70
   6   4  -8    1.50    0.90
   5  -4  -8    2.40    0.80
   5  -4  -8    1.30    0.70
   5  -4  -8    1.00    0.70
   5   4  -8    0.70    0.50
   5   4  -8    0.10    0.60
  -5   4   8    1.40    0.60
   4  -4  -8   48.50    1.90
   4  -4  -8   50.49    2.00
  -4  -4   8   47.00    1.70
   4  -4  -8   47.70    1.80
   4   4  -8   50.49    1.60
   4   4  -8   46.40    1.90
  -4   4   8   51.19    1.90
   3  -4  -8   16.20    1.00
   3  -4  -8   17.20    1.10
  -3  -4   8   14.20    1.10
  -3  -4   8   16.60    1.00
   3  -4  -8   15.30    1.10
   3   4  -8   15.30    1.00
  -3   4   8   16.10    1.10
   3   4  -8   15.70    1.10
  -3   4   8   18.20    1.10
   2  -4  -8    3.00    0.60
  -2  -4   8    3.40    0.60
  -2  -4   8    4.00    0.60
  -2  -4   8    2.60    0.60
   2  -4  -8    3.70    0.60
   2  -4  -8    4.20    0.60
  -2   4   8    3.80    0.60
  -2   4   8    3.80    0.60
   2   4  -8    2.60    0.50
   2   4  -8    3.30    0.60
  -1  -4   8    2.10    0.50
  -1  -4   8    1.70    0.50
   1  -4  -8    3.00    0.60
   1  -4  -8    2.50    0.50
   1  -4  -8    2.10    0.40
  -1  -4   8    3.40    0.60
  -1   4   8    1.60    0.50
   1   4  -8    2.40    0.50
   1   4  -8    2.90    0.60
  -1   4   8    2.10    0.40
   1   4  -8    2.30    0.30
  -1   4   8    1.80    0.50
   0  -4   8    0.20    0.40
   0  -4  -8   -0.30    0.20
   0  -4  -8   -0.10    0.20
   0  -4   8    0.40    0.30
   0  -4   8   -0.20    0.30
   0  -4  -8    0.00    0.40
   0   4   8   -0.20    0.30
   0   4  -8    0.10    0.40
   0   4   8   -0.10    0.40
   0   4   8    0.20    0.40
   0   4  -8   -0.30    0.40
  -1  -4  -8   17.90    0.80
   1  -4   8   18.30    1.00
   1  -4   8   16.50    1.00
   1  -4   8   16.80    1.00
  -1  -4  -8   16.20    1.00
   1   4   8   17.40    1.00
   1   4   8   18.10    1.00
  -1   4  -8   16.60    1.00
   1   4   8   17.60    1.10
  -1   4  -8   18.30    1.00
   2  -4   8   12.60    1.00
   2  -4   8   11.00    1.00
   2  -4   8   16.10    1.00
  -2  -4  -8   12.00    0.70
  -2  -4  -8   13.30    0.90
   2   4   8   14.10    1.00
   2   4   8   14.30    1.00
  -2   4  -8   12.80    0.90
   2   4   8   12.40    0.90
  -2   4  -8   13.90    1.00
   3  -4   8    0.40    0.50
   3  -4   8    0.30    0.50
   3  -4   8    0.10    0.40
   3   4   8    0.10    0.50
   3   4   8    0.80    0.50
  -3   4  -8    1.00    0.40
   3   4   8    1.60    0.60
   4  -4   8   11.40    1.10
   4  -4   8   10.50    1.00
   4  -4   8   11.20    1.10
   4   4   8   13.40    1.20
   4   4   8   11.40    0.90
  -4   4  -8   10.50    0.90
   4   4   8   12.90    1.20
   5  -4   8   20.80    1.50
   5  -4   8   23.60    1.50
   5  -4   8   23.90    1.70
   5   4   8   25.00    1.20
   5   4   8   26.00    1.60
   5   4   8   24.90    1.80
   6  -4   8   -1.50    0.70
   6  -4   8    1.70    0.70
   6   4   8    0.60    0.80
   6   4   8    0.40    0.70
   7  -4   8    0.00    0.90
   7   4   8    1.10    0.90
   7   4   8    0.80    1.00
   7  -5  -8    2.80    0.90
   7   5  -8    2.70    1.00
   6  -5  -8    3.90    0.90
   6  -5  -8    2.60    1.00
   6  -5  -8    2.10    1.00
  -6   5   8    5.20    1.10
   6   5  -8    1.70    0.90
   5  -5  -8    6.50    1.20
   5  -5  -8    5.20    1.00
   5  -5  -8    4.70    0.90
  -5   5   8    5.20    1.00
   5   5  -8    6.30    0.90
   5   5  -8    6.40    1.10
   4  -5  -8    1.60    0.60
   4  -5  -8    0.60    0.60
   4  -5  -8   -0.80    0.60
  -4   5   8    0.70    0.60
   4   5  -8   -0.30    0.50
   4   5  -8    0.50    0.60
   3  -5  -8    2.00    0.70
  -3  -5   8    2.50    0.70
  -3  -5   8    2.80    0.60
   3  -5  -8    4.00    0.80
   3  -5  -8    2.00    0.70
  -3   5   8    3.20    0.70
   3   5  -8    3.50    0.80
  -3   5   8    1.90    0.70
   3   5  -8    2.20    0.60
   2  -5  -8   44.30    1.80
   2  -5  -8   46.60    1.70
  -2  -5   8   42.90    1.50
  -2  -5   8   44.20    1.80
  -2  -5   8   42.90    1.70
   2  -5  -8   40.80    1.50
  -2   5   8   44.30    1.80
   2   5  -8   42.30    1.80
  -2   5   8   43.90    1.80
   2   5  -8   44.80    1.70
   1  -5  -8    7.80    0.70
   1  -5  -8    5.90    0.80
  -1  -5   8    5.30    0.70
  -1  -5   8    7.00    0.80
   1  -5  -8    7.00    0.80
  -1  -5   8    7.20    0.80
  -1   5   8    6.90    0.90
   1   5  -8    7.40    0.80
  -1   5   8    7.80    0.90
   1   5  -8    5.00    0.80
   0  -5  -8   19.80    1.00
   0  -5   8   20.30    1.10
   0  -5   8   18.90    1.20
   0  -5  -8   19.80    1.20
   0  -5   8   20.00    1.20
   0   5  -8   19.00    0.90
   0   5   8   18.40    1.00
   0   5  -8   20.00    1.20
   0   5  -8   20.00    1.20
   0   5   8   21.00    1.20
   0   5   8   19.10    1.10
   1  -5   8    0.90    0.60
   1  -5   8    0.60    0.50
   1  -5   8    0.70    0.40
  -1  -5  -8   -0.40    0.40
  -1  -5  -8    0.30    0.40
   1   5   8    0.50    0.50
  -1   5  -8    0.40    0.40
  -1   5  -8    0.00    0.50
   1   5   8    0.60    0.40
   1   5   8    0.30    0.40
   2  -5   8   50.79    1.90
   2  -5   8   51.19    1.90
   2  -5   8   51.09    1.90
  -2   5  -8   49.70    1.80
   2   5   8   47.50    1.80
  -2   5  -8   49.60    1.80
   2   5   8   49.70    1.90
   2   5   8   47.30    1.80
   3  -5   8   10.20    1.10
   3  -5   8    9.00    1.00
   3  -5   8    8.80    1.00
   3   5   8    9.30    1.00
   3   5   8    9.30    1.10
  -3   5  -8    9.80    0.90
   3   5   8    8.90    0.90
   4  -5   8    3.60    0.80
   4  -5   8    4.20    0.80
   4  -5   8    2.60    0.80
   4   5   8    3.30    0.70
   4   5   8    6.30    1.00
   4   5   8    5.10    0.90
   5  -5   8    7.40    1.10
   5  -5   8    6.70    1.20
   5  -5   8    6.80    1.20
   5   5   8    6.20    0.80
   5   5   8    7.40    1.10
   5   5   8    6.80    1.20
   6  -5   8    7.60    1.20
   6  -5   8    8.50    1.20
   6  -5   8    9.90    1.40
   6   5   8    8.70    1.30
   6   5   8    7.60    1.30
   6  -6  -8    1.90    0.80
   6  -6  -8    0.20    0.90
   6  -6  -8    1.10    1.00
  -6   6   8    0.50    0.90
   6   6  -8    2.00    1.00
   5  -6  -8    1.70    0.90
   5  -6  -8    2.80    0.80
   5  -6  -8    1.90    0.80
   5   6  -8    3.50    1.00
  -5   6   8    1.40    0.90
   5   6  -8    4.10    0.80
   4  -6  -8   13.70    1.40
   4  -6  -8   13.30    1.30
  -4  -6   8   13.70    1.40
   4  -6  -8   16.30    1.40
  -4   6   8   13.20    1.40
   4   6  -8   17.00    1.60
   4   6  -8   11.90    1.10
   3  -6  -8    0.10    0.50
   3  -6  -8    0.00    0.60
  -3  -6   8   -0.30    0.60
   3  -6  -8    0.60    0.60
   3   6  -8    1.90    0.70
   3   6  -8    0.50    0.70
  -3   6   8   -0.20    0.70
  -2  -6   8    2.70    0.60
   2  -6  -8    2.30    0.70
  -2  -6   8    2.60    0.70
   2  -6  -8    3.20    0.80
  -2   6   8    3.00    0.80
  -2   6   8    1.60    0.70
   2   6  -8    2.50    0.70
   2   6  -8    1.10    0.70
  -1  -6   8   36.10    1.70
  -1  -6   8   35.50    1.50
   1  -6  -8   38.70    1.80
   1  -6  -8   41.70    1.70
  -1  -6   8   35.50    1.70
   1   6  -8   35.10    1.70
   1   6  -8   35.70    1.70
  -1   6   8   36.60    1.80
  -1   6   8   35.60    1.70
   0  -6  -8   38.80    1.60
   0  -6   8   40.40    1.80
   0  -6   8   40.40    1.70
   0  -6   8   42.20    1.90
   0  -6  -8   38.20    1.80
   0   6   8   38.50    1.50
   0   6  -8   42.00    1.90
   0   6  -8   39.20    1.70
   0   6   8   39.10    1.90
   0   6   8   38.50    1.80
   1  -6   8   11.70    1.10
   1  -6   8   12.10    1.10
  -1  -6  -8   12.20    1.10
   1  -6   8   14.80    1.30
  -1  -6  -8   12.40    1.20
  -1   6  -8   13.00    1.20
   1   6   8   14.40    1.20
   1   6   8   12.30    1.20
  -1   6  -8   13.00    1.10
   1   6   8   11.90    1.20
   2  -6   8    2.40    0.80
   2  -6   8    2.70    0.80
   2  -6   8    1.80    0.70
  -2   6  -8    2.40    0.60
  -2   6  -8    1.40    0.70
   2   6   8    4.30    0.80
   2   6   8    2.80    0.80
   2   6   8    1.60    0.70
   3  -6   8   29.70    1.80
   3  -6   8   26.30    1.70
   3  -6   8   25.90    1.70
   3   6   8   30.60    1.70
   3   6   8   27.40    1.80
   3   6   8   27.60    1.60
   4  -6   8    5.00    1.00
   4  -6   8    3.90    0.90
   4  -6   8    3.60    0.90
   4   6   8    2.80    0.90
   4   6   8    3.20    0.90
   4   6   8    2.30    0.80
   5  -6   8    2.20    1.00
   5  -6   8    3.40    1.10
   5  -6   8    2.60    0.90
   5   6   8    2.30    0.80
   5   6   8    3.00    1.00
   5   6   8    3.50    1.10
   6  -6   8    3.10    1.10
   5  -7  -8   -0.30    0.90
   5  -7  -8    1.10    1.10
   5   7  -8    0.20    0.80
   5   7  -8    0.70    0.90
  -5   7   8   -0.20    0.80
   4  -7  -8    7.30    1.20
   4  -7  -8    8.50    1.30
  -4  -7   8    7.50    1.20
   4   7  -8    7.90    1.10
  -4   7   8    6.80    1.30
   4   7  -8    6.10    1.20
   3  -7  -8   20.60    1.70
   3  -7  -8   24.30    1.80
  -3  -7   8   21.50    1.80
  -3   7   8   26.00    1.90
   3   7  -8   26.70    1.90
   3   7  -8   23.60    1.70
  -2  -7   8   -0.60    0.70
   2  -7  -8    1.10    0.80
   2  -7  -8    0.00    0.40
   2   7  -8    0.50    0.70
  -2   7   8   -0.10    0.70
  -2   7   8    0.60    0.80
   2   7  -8    0.00    0.70
  -1  -7   8   -0.80    0.60
   1  -7  -8    0.40    0.70
   1  -7  -8    0.00    0.50
   1   7  -8    0.60    0.70
   1   7  -8    0.40    0.60
  -1   7   8    0.10    0.50
   0  -7  -8   -0.10    0.50
   0  -7   8    0.50    0.60
   0  -7  -8   -0.70    0.60
   0  -7   8   -0.50    0.60
   0  -7   8   -0.20    0.60
   0   7  -8    0.90    0.70
   0   7   8    0.00    0.80
   0   7  -8    0.50    0.60
   0   7   8    1.40    0.80
   1  -7   8    2.30    0.80
   1  -7   8    1.00    0.80
   1  -7   8    3.10    0.80
   1   7   8    0.70    0.70
   1   7   8    0.60    0.80
  -1   7  -8    1.10    0.90
  -1   7  -8    1.90    0.70
   1   7   8    1.20    0.70
   2  -7   8    2.70    0.90
   2  -7   8    4.20    1.00
   2  -7   8    3.10    0.80
   2   7   8    5.40    1.00
  -2   7  -8    1.40    0.80
   2   7   8    3.50    0.90
   2   7   8    5.00    1.00
   3  -7   8    1.90    0.90
   3  -7   8    3.30    1.00
   3  -7   8    4.00    1.00
   3   7   8    3.50    1.00
   3   7   8    1.60    0.80
   3   7   8    3.60    1.00
   4  -7   8   -0.60    0.80
   4  -7   8   -0.90    0.70
   4  -7   8   -0.90    0.80
   4   7   8    0.40    0.90
   4   7   8    1.10    0.80
   4   7   8   -0.10    0.60
   5  -7   8    7.00    1.30
   3  -8  -8    7.30    1.30
   3  -8  -8    4.70    1.10
  -3  -8   8    5.90    1.20
   3   8  -8    6.50    1.30
   3   8  -8    6.70    1.20
  -3   8   8    4.50    1.20
   2  -8  -8   -0.60    0.70
   2  -8  -8    0.00    0.90
  -2  -8   8   -1.10    0.70
  -2   8   8    1.50    1.00
  -2   8   8   -0.60    0.80
   2   8  -8    0.30    0.80
   2   8  -8    0.20    0.90
   1  -8  -8    0.80    0.90
   1  -8  -8    1.10    0.70
  -1  -8   8    0.10    0.80
  -1   8   8    0.40    0.80
   1   8  -8    0.80    0.80
   1   8  -8    1.50    0.90
  -1   8   8    0.80    0.90
   0  -8   8    0.10    0.60
   0  -8  -8    1.50    0.80
   0  -8   8    1.60    0.90
   0   8  -8    1.00    0.90
   0   8   8    0.30    0.80
   0   8   8    0.60    0.90
   0   8  -8    1.20    0.80
   1  -8   8    7.60    1.30
   1  -8   8   10.40    1.40
  -1   8  -8    9.30    1.30
   1   8   8    8.90    1.30
   1   8   8   11.50    1.50
   2  -8   8    1.50    0.90
   2  -8   8    0.00    0.90
   2  -8   8   -0.60    0.90
   2   8   8    1.20    0.90
   2   8   8    0.70    0.90
   3  -8   8    1.70    0.90
   3  -8   8    0.00    0.90
   3  -8   8   -0.60    0.80
   3   8   8   -0.50    0.80
   3   8   8    0.70    0.90
   2  -9  -8    0.80    0.90
   1  -9  -8    2.30    1.20
   1  -9  -8    2.20    1.00
  -1   9   8    2.20    1.20
   1   9  -8    1.30    1.00
   0   9   8    2.80    1.10
   1  -9   8    0.40    1.10
   1   9   8   -1.50    0.90
  -1   9  -8    0.30    1.10
   8   0  -9   -1.10    0.70
   8   0  -9   -1.10    0.80
   7   0  -9   10.80    1.30
   7   0  -9   12.90    1.40
   6   0  -9    0.10    0.30
   6   0  -9    0.10    0.60
   5   0  -9    2.20    0.60
   5   0  -9    2.80    0.40
   4   0  -9    0.00    0.40
   4   0  -9    0.00    0.30
   4   0  -9   -0.20    0.20
   3   0  -9   15.30    0.90
  -3   0   9   14.70    0.60
   3   0  -9   15.80    0.80
   3   0  -9   15.60    0.70
  -3   0   9   14.90    0.70
  -2   0   9   -0.50    0.20
  -2   0   9    0.00    0.20
   2   0  -9    0.30    0.20
  -2   0   9   -0.20    0.20
   2   0  -9    0.00    0.20
   1   0  -9   25.50    0.90
  -1   0   9   27.30    0.70
  -1   0   9   27.60    0.90
   1   0  -9   26.00    0.80
  -1   0   9   27.00    0.90
   0   0   9    0.10    0.20
   0   0   9    0.00    0.20
   0   0  -9   -0.40    0.20
   0   0  -9   -0.20    0.20
   0   0   9   -0.10    0.20
   1   0   9   43.40    1.20
   1   0   9   44.60    1.20
  -1   0  -9   43.70    1.20
  -1   0  -9   45.20    1.20
   1   0   9   44.90    1.20
   1   0   9   44.60    0.80
   2   0   9    0.00    0.20
  -2   0  -9   -0.50    0.20
   2   0   9    0.00    0.30
  -2   0  -9   -0.30    0.20
   2   0   9   -0.10    0.20
   2   0   9   -0.20    0.10
   3   0   9   88.89    2.20
   3   0   9   89.09    2.00
   3   0   9   89.69    1.50
   3   0   9   88.99    1.90
  -3   0  -9   89.69    1.80
  -3   0  -9   89.09    2.20
   4   0   9   -0.30    0.30
   4   0   9    0.10    0.30
   4   0   9    0.10    0.30
   5   0   9    3.60    0.50
   5   0   9    3.70    0.70
   5   0   9    4.20    0.70
   6   0   9   -0.30    0.50
   6   0   9   -0.50    0.50
   7   0   9    0.30    0.70
   8  -1  -9   -1.00    0.80
   8  -1  -9   -0.20    0.90
   8   1  -9    0.90    0.90
   8   1  -9    0.10    0.80
   7  -1  -9    3.10    0.90
   7  -1  -9    2.10    0.90
   7   1  -9    0.10    0.70
   7   1  -9    2.10    0.80
   6  -1  -9   -0.20    0.40
   6  -1  -9   -0.50    0.40
   6  -1  -9   -0.10    0.40
   6   1  -9    1.00    0.60
   5  -1  -9    0.40    0.30
   5  -1  -9    0.40    0.30
   5   1  -9    0.10    0.30
   5   1  -9   -0.50    0.30
   5   1  -9    0.40    0.30
   4  -1  -9   12.30    0.90
   4  -1  -9   10.60    0.70
  -4   1   9   10.30    0.70
   4   1  -9    9.90    0.70
   4   1  -9   11.10    0.80
   3  -1  -9    8.20    0.40
   3  -1  -9    7.80    0.70
  -3  -1   9    7.20    0.60
  -3  -1   9    7.30    0.50
   3  -1  -9    8.00    0.60
  -3   1   9    7.90    0.60
   3   1  -9    7.70    0.60
   3   1  -9    9.00    0.60
  -3   1   9    8.00    0.60
   2  -1  -9   56.29    1.50
  -2  -1   9   57.69    1.50
   2  -1  -9   53.09    1.40
   2  -1  -9   56.29    1.20
  -2  -1   9   55.49    0.90
  -2  -1   9   54.99    1.40
   2   1  -9   55.59    1.40
   2   1  -9   55.19    1.40
  -2   1   9   57.19    1.30
  -2   1   9   54.89    1.40
   1  -1  -9   66.99    1.40
  -1  -1   9   66.39    1.60
   1  -1  -9   67.19    1.60
   1  -1  -9   65.09    1.40
  -1  -1   9   67.89    1.60
  -1  -1   9   66.39    1.10
  -1   1   9   63.99    1.50
  -1   1   9   65.99    1.40
   1   1  -9   66.59    1.60
  -1   1   9   65.19    1.60
   1   1  -9   63.39    1.50
   0  -1  -9  437.46    5.90
   0  -1   9  440.06    6.10
   0  -1  -9  435.26    6.40
   0  -1   9  432.76    6.40
   0  -1   9  444.16    6.50
   0  -1   9  436.16    6.00
   0  -1  -9  429.56    6.30
   0   1  -9  431.56    6.50
   0   1   9  437.66    6.30
   0   1  -9  432.26    6.40
   0   1   9  441.96    6.50
   0   1   9  447.46    6.20
  -1  -1  -9   24.50    0.90
   1  -1   9   25.90    0.90
   1  -1   9   24.50    0.70
   1  -1   9   25.30    0.90
  -1  -1  -9   24.90    0.90
   1  -1   9   23.80    0.90
  -1   1  -9   24.90    0.90
   1   1   9   24.40    0.90
  -1   1  -9   25.60    1.00
   1   1   9   25.90    0.90
   1   1   9   25.20    0.80
   2  -1   9    1.90    0.30
   2  -1   9    1.30    0.30
  -2  -1  -9    1.10    0.30
   2  -1   9    1.10    0.40
   2  -1   9    1.50    0.30
  -2   1  -9    1.90    0.40
  -2   1  -9    1.40    0.30
   2   1   9    1.60    0.30
   2   1   9    1.40    0.30
   2   1   9    0.70    0.40
   3  -1   9    0.50    0.40
   3  -1   9    1.20    0.30
   3  -1   9    1.00    0.40
   3  -1   9    0.50    0.20
   3   1   9    0.20    0.30
   3   1   9    0.30    0.40
   3   1   9    0.30    0.20
  -3   1  -9    0.50    0.20
  -3   1  -9    0.30    0.30
   4  -1   9    2.90    0.50
   4  -1   9    3.20    0.60
   4  -1   9    3.10    0.60
   4  -1   9    3.00    0.40
  -4   1  -9    2.70    0.50
   4   1   9    2.90    0.40
   4   1   9    3.10    0.40
   4   1   9    3.50    0.60
   5  -1   9    5.10    0.60
   5  -1   9    4.10    0.80
   5  -1   9    4.70    0.80
   5   1   9    4.10    0.50
   5   1   9    5.10    0.80
   5   1   9    4.60    0.70
   6  -1   9    6.90    1.00
   6  -1   9    4.10    0.90
   6   1   9    6.70    1.00
   7  -1   9   -0.30    0.90
   7  -1   9    0.50    0.70
   7   1   9   -0.50    0.60
   7   1   9   -0.40    0.70
   8   1   9    0.70    0.90
   8  -2  -9    1.00    0.90
   8   2  -9    0.70    1.00
   8   2  -9    1.20    0.90
   7  -2  -9    2.10    0.90
   7  -2  -9    0.60    0.80
   7   2  -9    2.50    0.90
   6  -2  -9    1.50    0.70
   6  -2  -9    2.10    0.60
   6  -2  -9    1.20    0.50
   6   2  -9    1.20    0.60
   6   2  -9    0.70    0.60
   5  -2  -9    0.30    0.60
   5  -2  -9    1.40    0.50
   5  -2  -9    1.80    0.60
  -5   2   9    1.40    0.50
   5   2  -9    1.30    0.30
   5   2  -9    1.30    0.50
   4  -2  -9   27.00    1.30
   4  -2  -9   24.30    1.10
  -4   2   9   28.60    1.20
   4   2  -9   26.30    1.00
   4   2  -9   29.90    1.30
   3  -2  -9   42.50    1.50
   3  -2  -9   37.70    1.30
  -3  -2   9   39.50    1.10
  -3  -2   9   39.20    1.40
   3   2  -9   41.70    1.20
  -3   2   9   40.20    1.30
   3   2  -9   39.20    1.40
  -3   2   9   40.50    1.30
   2  -2  -9    0.70    0.30
   2  -2  -9    1.00    0.30
   2  -2  -9    0.80    0.20
  -2  -2   9    1.30    0.40
  -2  -2   9    1.10    0.30
   2   2  -9    1.60    0.40
   2   2  -9    0.60    0.30
  -2   2   9    1.00    0.40
  -2   2   9    1.10    0.40
   1  -2  -9   33.30    1.10
  -1  -2   9   31.20    1.10
   1  -2  -9   32.20    1.00
  -1  -2   9   30.50    1.10
  -1  -2   9   31.10    1.10
   1  -2  -9   32.10    0.90
  -1  -2   9   31.20    0.60
   1   2  -9   31.10    1.10
  -1   2   9   31.80    1.10
  -1   2   9   31.60    1.10
   1   2  -9   29.90    1.10
   0  -2   9   29.00    1.00
   0  -2  -9   29.70    1.00
   0  -2   9   29.30    1.00
   0  -2   9   28.30    1.00
   0  -2  -9   28.20    0.80
   0  -2   9   29.50    0.80
   0   2  -9   30.70    1.10
   0   2   9   29.00    0.80
   0   2  -9   29.30    1.10
   0   2   9   28.60    1.00
   0   2   9   29.80    1.10
   1  -2   9   25.90    0.90
   1  -2   9   27.40    1.10
   1  -2   9   25.50    1.00
  -1  -2  -9   25.90    0.60
  -1  -2  -9   27.90    1.00
   1  -2   9   26.60    0.90
  -1   2  -9   25.20    1.00
   1   2   9   25.70    1.00
  -1   2  -9   26.30    1.00
   1   2   9   26.40    1.00
   1   2   9   25.00    0.70
   2  -2   9  106.09    2.30
   2  -2   9  112.09    2.20
   2  -2   9  107.39    2.40
  -2  -2  -9  108.29    2.20
   2  -2   9  111.79    2.30
   2   2   9  107.79    2.40
  -2   2  -9  109.89    2.40
   2   2   9  108.59    1.80
   2   2   9  107.69    2.30
  -2   2  -9  106.09    2.30
   3  -2   9    1.60    0.40
   3  -2   9    1.20    0.40
   3  -2   9    1.10    0.50
   3  -2   9    1.40    0.40
   3   2   9    0.60    0.30
   3   2   9    1.50    0.30
  -3   2  -9    1.30    0.30
   3   2   9    1.10    0.40
  -3   2  -9    1.30    0.40
   4  -2   9   11.30    1.00
   4  -2   9   12.80    0.80
   4  -2   9   11.10    0.80
   4  -2   9   11.00    1.00
   4   2   9   12.20    0.70
   4   2   9   11.70    1.00
  -4   2  -9   12.60    0.90
   5  -2   9   34.70    1.70
   5  -2   9   33.80    1.60
   5  -2   9   31.90    1.30
   5   2   9   32.00    1.20
   5   2   9   33.60    1.70
   6  -2   9   -0.50    0.60
   6  -2   9    0.90    0.50
   6  -2   9    0.10    0.70
   6   2   9   -0.10    0.60
   6   2   9    0.40    0.70
   7  -2   9    0.90    0.80
   7  -2   9    0.50    0.80
   7   2   9   -1.10    0.60
   7   2   9    1.80    0.90
   8  -2   9    0.80    1.20
   7  -3  -9    3.30    0.70
   7  -3  -9    4.10    1.10
   7  -3  -9    3.30    1.00
   7   3  -9    2.50    0.90
   7   3  -9    3.80    0.90
   6  -3  -9   -0.20    0.50
   6  -3  -9   -0.80    0.60
   6  -3  -9    0.30    0.70
   6   3  -9    1.30    0.60
   5  -3  -9    9.80    1.10
   5  -3  -9    8.50    1.00
   5  -3  -9    8.50    0.90
   5   3  -9    8.70    1.00
   5   3  -9    7.30    0.70
  -5   3   9   10.00    1.00
   4  -3  -9   -0.20    0.40
   4  -3  -9    0.20    0.50
   4  -3  -9    0.10    0.40
  -4  -3   9    0.60    0.40
  -4   3   9    0.20    0.40
   4   3  -9   -1.00    0.40
   4   3  -9    0.30    0.40
  -3  -3   9   49.70    1.60
   3  -3  -9   51.49    1.70
   3  -3  -9   50.19    1.70
   3  -3  -9   50.89    1.70
   3   3  -9   55.79    1.80
  -3   3   9   54.29    1.70
  -3   3   9   52.79    1.70
   3   3  -9   49.80    1.50
  -2  -3   9   19.20    1.00
   2  -3  -9   20.60    1.00
  -2  -3   9   18.80    1.00
   2  -3  -9   19.80    1.00
  -2  -3   9   19.40    0.90
   2   3  -9   21.40    1.00
  -2   3   9   17.90    0.90
  -2   3   9   19.70    0.50
  -2   3   9   20.00    1.00
   2   3  -9   18.40    0.90
   1  -3  -9  128.79    2.50
  -1  -3   9  126.89    2.70
  -1  -3   9  128.19    2.60
   1  -3  -9  124.59    2.70
  -1  -3   9  126.69    2.70
  -1   3   9  123.29    2.60
  -1   3   9  127.79    2.70
   1   3  -9  125.79    2.70
   1   3  -9  126.79    2.70
   0  -3   9    5.10    0.60
   0  -3  -9    5.30    0.60
   0  -3  -9    5.60    0.50
   0  -3   9    5.30    0.60
   0  -3   9    6.30    0.60
   0   3  -9    7.20    0.70
   0   3   9    5.10    0.60
   0   3  -9    6.50    0.70
   0   3   9    6.50    0.70
   1  -3   9   78.49    2.00
  -1  -3  -9   78.69    1.90
   1  -3   9   78.09    1.90
   1  -3   9   75.49    2.00
  -1  -3  -9   76.99    1.50
   1   3   9   75.79    2.00
  -1   3  -9   79.69    2.00
  -1   3  -9   77.79    2.00
   1   3   9   76.59    2.00
   2  -3   9   23.90    1.20
  -2  -3  -9   24.10    0.70
   2  -3   9   25.70    1.10
   2  -3   9   26.10    1.10
  -2  -3  -9   26.10    1.00
  -2   3  -9   26.50    1.10
   2   3   9   23.80    1.20
   2   3   9   24.70    1.10
  -2   3  -9   22.70    1.10
   3  -3   9    3.90    0.60
   3  -3   9    4.10    0.60
   3  -3   9    4.70    0.70
  -3   3  -9    4.50    0.60
   3   3   9    3.40    0.50
   3   3   9    3.40    0.60
  -3   3  -9    4.70    0.60
   4  -3   9    9.90    0.90
   4  -3   9   10.30    0.90
   4  -3   9    8.90    1.00
  -4   3  -9    9.70    0.90
   4   3   9    8.30    1.00
   4   3   9    8.80    0.70
   4   3   9    8.50    1.00
   5  -3   9    8.00    1.00
   5  -3   9    8.10    0.90
   5  -3   9    7.20    1.00
   5  -3   9    6.60    0.90
   5   3   9    7.90    1.10
   5   3   9    8.30    1.00
  -5   3  -9    6.20    0.80
   5   3   9    6.00    0.70
   6  -3   9   11.90    1.30
   6  -3   9   11.60    1.40
   6  -3   9   11.90    1.00
   6   3   9   10.40    1.30
   6   3   9   10.00    1.30
   7  -3   9   -0.20    0.70
   7  -3   9    1.10    0.90
   7   3   9    0.00    0.80
   7   3   9    0.30    0.90
   7  -4  -9    0.80    0.60
   7  -4  -9    1.70    1.00
   7  -4  -9    0.20    0.90
   7   4  -9    0.20    0.80
   6  -4  -9    0.80    0.80
   6  -4  -9    1.10    0.80
   6  -4  -9   -0.10    0.70
   6   4  -9    0.30    0.70
  -6   4   9    0.10    0.70
   5  -4  -9   -0.50    0.60
   5  -4  -9   -0.80    0.60
   5  -4  -9   -0.70    0.40
   5   4  -9    0.40    0.50
   5   4  -9    0.20    0.60
  -5   4   9    0.10    0.60
   4  -4  -9   28.50    1.60
   4  -4  -9   31.40    1.60
  -4  -4   9   31.60    1.40
   4  -4  -9   30.60    1.50
   4   4  -9   31.20    1.40
  -4   4   9   31.70    1.60
   4   4  -9   31.10    1.60
   3  -4  -9    4.90    0.70
  -3  -4   9    5.40    0.80
   3  -4  -9    4.30    0.70
  -3  -4   9    4.00    0.60
   3  -4  -9    6.00    0.80
  -3   4   9    3.50    0.70
   3   4  -9    5.50    0.80
   3   4  -9    4.90    0.70
  -3   4   9    3.60    0.70
  -2  -4   9    9.10    0.80
   2  -4  -9    8.00    0.70
  -2  -4   9    8.40    0.80
   2  -4  -9    7.50    0.80
  -2  -4   9    8.60    0.80
   2  -4  -9    8.10    0.80
   2   4  -9    8.30    0.90
  -2   4   9    8.30    0.80
  -2   4   9    8.60    0.90
   2   4  -9    7.70    0.80
   1  -4  -9  148.09    2.70
  -1  -4   9  149.59    3.10
   1  -4  -9  144.09    3.20
   1  -4  -9  145.99    2.90
  -1  -4   9  146.79    3.10
  -1  -4   9  140.09    3.10
   1   4  -9  140.69    3.10
  -1   4   9  144.39    3.10
   1   4  -9  143.49    3.20
  -1   4   9  144.79    3.20
  -1   4   9  143.49    2.60
   0  -4   9    0.50    0.40
   0  -4  -9    0.20    0.20
   0  -4  -9    0.90    0.40
   0  -4   9    0.30    0.40
   0  -4   9    0.10    0.40
   0  -4  -9   -0.20    0.30
   0   4   9   -0.30    0.20
   0   4   9    0.40    0.40
   0   4  -9    0.60    0.40
   0   4  -9    0.20    0.40
   0   4   9    0.20    0.40
   1  -4   9  136.39    2.90
  -1  -4  -9  134.79    2.50
   1  -4   9  129.09    2.90
   1  -4   9  132.39    3.00
  -1  -4  -9  137.69    2.90
  -1   4  -9  133.59    2.90
   1   4   9  134.09    3.00
   1   4   9  130.49    3.00
   1   4   9  133.39    2.90
  -1   4  -9  137.49    3.00
   2  -4   9   24.20    1.20
   2  -4   9   23.20    1.30
   2  -4   9   27.50    1.30
  -2  -4  -9   25.00    1.10
   2   4   9   24.20    1.30
   2   4   9   25.70    1.20
  -2   4  -9   23.00    1.20
   2   4   9   24.40    1.30
  -2   4  -9   24.50    1.20
   3  -4   9   10.90    1.00
   3  -4   9   11.50    1.00
   3  -4   9   12.00    1.10
   3   4   9   11.90    1.10
   3   4   9   11.20    1.00
   3   4   9   10.90    0.90
  -3   4  -9   13.40    1.00
   4  -4   9    2.40    0.60
   4  -4   9    2.50    0.70
   4  -4   9    1.50    0.70
   4   4   9    2.70    0.80
  -4   4  -9    2.70    0.70
   4   4   9    2.00    0.70
   4   4   9    1.90    0.60
   5  -4   9    0.30    0.70
   5  -4   9    1.20    0.60
   5  -4   9   -0.10    0.70
   5   4   9    0.10    0.50
   5   4   9    0.30    0.80
   5   4   9   -0.60    0.70
   6  -4   9    2.00    0.70
   6  -4   9    2.40    0.90
   6  -4   9    1.10    0.90
   6   4   9    1.40    0.90
   6   4   9    0.80    0.80
   7  -4   9    0.90    0.80
   7   4   9    0.90    0.90
   7   5  -9    2.20    1.00
   6  -5  -9    7.50    1.30
   6  -5  -9    7.40    1.20
   6  -5  -9    5.10    1.20
   6   5  -9    4.50    1.10
  -6   5   9    6.20    1.10
   5  -5  -9    0.90    0.70
   5  -5  -9    0.00    0.70
   5  -5  -9   -0.10    0.70
  -5   5   9   -0.20    0.70
   5   5  -9    0.90    0.80
   5   5  -9    0.40    0.50
   4  -5  -9    2.30    0.70
   4  -5  -9    3.30    0.80
   4  -5  -9    3.10    0.80
  -4   5   9    3.30    0.80
   4   5  -9    3.60    0.90
   4   5  -9    2.70    0.70
  -3  -5   9   10.60    1.00
   3  -5  -9   11.30    1.00
  -3  -5   9    9.20    1.00
   3  -5  -9    8.80    1.00
   3  -5  -9   12.30    1.20
   3   5  -9   11.20    1.20
  -3   5   9   11.40    1.10
  -3   5   9   11.30    1.10
   3   5  -9    8.90    0.90
   2  -5  -9    1.00    0.50
   2  -5  -9    1.50    0.60
   2  -5  -9    0.60    0.50
  -2  -5   9    0.70    0.50
  -2  -5   9    0.60    0.50
  -2   5   9    1.60    0.60
   2   5  -9    1.60    0.60
   2   5  -9    0.10    0.50
  -2   5   9    1.20    0.60
  -1  -5   9   30.70    1.40
  -1  -5   9   29.80    1.50
  -1  -5   9   30.60    1.40
   1  -5  -9   30.10    1.30
   1  -5  -9   30.80    1.50
   1   5  -9   33.40    1.50
  -1   5   9   31.20    1.50
   1   5  -9   28.30    1.40
  -1   5   9   31.70    1.50
   0  -5  -9   43.30    1.70
   0  -5  -9   41.20    1.40
   0  -5   9   42.80    1.70
   0  -5   9   44.90    1.80
   0  -5   9   41.10    1.60
   0   5  -9   40.40    1.70
   0   5  -9   45.00    1.70
   0   5   9   40.70    1.60
   0   5   9   41.70    1.70
   0   5   9   44.90    1.50
  -1  -5  -9   56.79    1.60
   1  -5   9   58.79    2.10
   1  -5   9   58.19    2.00
  -1  -5  -9   60.29    2.00
   1  -5   9   61.19    2.00
   1   5   9   61.49    2.00
   1   5   9   56.29    1.90
  -1   5  -9   58.29    1.90
  -1   5  -9   59.19    2.00
   1   5   9   61.19    1.90
   2  -5   9   -0.10    0.50
   2  -5   9   -0.80    0.50
   2  -5   9    0.00    0.50
   2   5   9   -0.10    0.50
  -2   5  -9    0.50    0.50
  -2   5  -9    0.10    0.40
   2   5   9    0.90    0.60
   2   5   9   -0.80    0.40
   3  -5   9   11.90    1.20
   3  -5   9    8.40    1.00
   3  -5   9    9.00    1.00
  -3   5  -9   10.80    1.00
   3   5   9    9.30    1.10
   3   5   9    9.60    1.10
   3   5   9    8.80    1.00
   4  -5   9    0.60    0.50
   4  -5   9    1.70    0.70
   4  -5   9    0.20    0.60
   4   5   9    0.40    0.70
   4   5   9   -0.40    0.40
   4   5   9    1.40    0.70
   5  -5   9    0.50    0.70
   5  -5   9    0.00    0.70
   5  -5   9    0.40    0.80
   5   5   9    0.20    0.80
   5   5   9    0.80    0.60
   5   5   9    0.30    0.70
   6  -5   9    0.40    1.00
   6  -5   9    1.80    0.90
   6   5   9    2.00    1.00
   6   5   9    1.90    0.90
   6  -6  -9    1.30    1.00
   6   6  -9    0.90    0.90
  -6   6   9    2.70    1.00
   5  -6  -9    0.50    0.70
   5  -6  -9    0.90    0.80
   5  -6  -9    0.10    0.80
  -5   6   9   -0.30    0.80
   5   6  -9    0.30    0.60
   5   6  -9    1.20    0.90
  -4  -6   9    8.10    1.20
   4  -6  -9    5.90    1.10
   4  -6  -9    9.00    1.20
   4  -6  -9    6.30    1.10
   4   6  -9    7.50    1.00
   4   6  -9    7.20    1.20
  -4   6   9    6.70    1.20
   3  -6  -9    2.80    0.80
  -3  -6   9    3.30    0.80
   3  -6  -9    2.80    0.70
   3  -6  -9    4.00    0.90
   3   6  -9    3.50    0.80
  -3   6   9    3.20    0.80
   3   6  -9    2.60    0.90
   2  -6  -9    0.30    0.70
  -2  -6   9    1.50    0.70
   2  -6  -9    1.40    0.60
  -2  -6   9    2.10    0.70
  -2   6   9    1.20    0.70
   2   6  -9    1.30    0.60
   2   6  -9    0.50    0.70
  -2   6   9    1.80    0.70
   1  -6  -9    1.60    0.70
  -1  -6   9    1.70    0.70
  -1  -6   9    0.50    0.50
  -1  -6   9    0.60    0.60
   1  -6  -9    0.40    0.60
   1   6  -9    0.60    0.60
  -1   6   9    0.70    0.50
  -1   6   9    1.00    0.60
   1   6  -9    1.70    0.70
   0  -6   9   25.50    1.40
   0  -6   9   22.60    1.50
   0  -6  -9   23.40    1.30
   0  -6   9   25.00    1.60
   0  -6  -9   22.60    1.50
   0   6   9   22.00    1.50
   0   6  -9   25.60    1.60
   0   6   9   25.40    1.60
   0   6  -9   26.40    1.50
   1  -6   9   58.09    2.10
   1  -6   9   58.09    2.20
   1  -6   9   58.19    2.20
  -1  -6  -9   55.99    2.10
   1   6   9   57.29    2.00
  -1   6  -9   59.39    2.20
  -1   6  -9   56.39    2.00
   1   6   9   55.19    2.20
   1   6   9   57.49    2.20
   2  -6   9   25.90    1.70
   2  -6   9   24.50    1.60
   2  -6   9   24.30    1.60
   2   6   9   23.80    1.60
  -2   6  -9   23.10    1.60
  -2   6  -9   23.20    1.40
   2   6   9   24.80    1.70
   2   6   9   24.90    1.60
   3  -6   9    0.70    0.70
   3  -6   9    0.30    0.70
   3  -6   9   -0.10    0.70
   3   6   9   -0.60    0.70
   3   6   9    0.10    0.70
   3   6   9    1.00    0.70
   4  -6   9    6.80    1.20
   4  -6   9    6.30    1.10
   4  -6   9    5.60    1.00
   4   6   9    5.70    0.90
   4   6   9    8.30    1.20
   4   6   9    6.80    1.20
   5  -6   9   10.00    1.30
   5  -6   9   11.10    1.30
   5  -6   9   12.30    1.50
   5   6   9   10.90    1.40
   5   6   9    8.60    1.10
   5   6   9    9.60    1.40
   6  -6   9    0.90    1.00
   5  -7  -9   -0.50    0.90
   5  -7  -9    2.30    1.00
   5   7  -9    1.70    0.80
   4  -7  -9   -0.60    0.80
   4  -7  -9    0.00    0.80
  -4  -7   9    0.50    0.80
   4   7  -9    0.70    0.70
  -4   7   9   -0.60    0.80
   4   7  -9    0.00    0.80
   3  -7  -9    8.20    1.20
  -3  -7   9    7.40    1.10
   3  -7  -9    6.20    1.20
   3   7  -9    7.50    1.30
   3   7  -9    8.60    1.20
  -3   7   9    7.60    1.20
   2  -7  -9    4.30    1.00
   2  -7  -9    3.10    0.80
  -2  -7   9    4.20    0.90
   2   7  -9    4.70    1.00
   2   7  -9    4.60    1.00
  -2   7   9    4.40    0.90
   1  -7  -9    7.70    1.00
   1  -7  -9    9.80    1.30
  -1  -7   9   11.40    1.30
  -1   7   9    9.80    1.30
   1   7  -9   10.00    1.20
   1   7  -9    9.10    1.20
  -1   7   9    8.70    1.20
   0  -7   9   -0.40    0.70
   0  -7   9   -0.40    0.60
   0  -7  -9    0.70    0.70
   0  -7  -9    0.80    0.70
   0  -7   9   -0.30    0.60
   0   7   9   -0.40    0.60
   0   7  -9    0.50    0.60
   0   7  -9   -0.30    0.70
   0   7   9    2.30    0.80
   1  -7   9   11.40    1.20
   1  -7   9   15.70    1.50
   1  -7   9   13.90    1.40
   1   7   9   13.60    1.40
  -1   7  -9   11.80    1.30
   1   7   9   11.80    1.30
  -1   7  -9   14.50    1.30
   2  -7   9   33.10    2.00
   2  -7   9   30.10    2.00
   2  -7   9   30.70    1.90
   2   7   9   31.50    1.90
   2   7   9   32.00    1.90
   2   7   9   32.70    1.90
  -2   7  -9   32.60    2.00
   3  -7   9    3.10    1.00
   3  -7   9    5.10    1.00
   3  -7   9    3.50    0.80
   3   7   9    4.10    0.90
   3   7   9    3.50    1.00
   3   7   9    3.20    1.00
   4  -7   9    0.20    0.80
   4  -7   9    0.60    0.90
   4  -7   9   -0.30    0.70
   4   7   9    1.20    0.90
   4   7   9    0.70    0.70
   4   7   9    1.30    0.90
   5  -7   9   -0.30    0.90
   5   7   9   -1.00    0.90
   3  -8  -9    0.80    0.90
  -3  -8   9   -0.60    0.80
   3  -8  -9   -0.10    0.80
  -3   8   9   -0.30    0.90
   3   8  -9   -0.20    0.80
   3   8  -9    0.50    0.90
  -2  -8   9   -1.00    0.70
   2  -8  -9    0.20    0.80
   2  -8  -9   -0.50    0.80
   2   8  -9    0.20    0.80
  -2   8   9    0.90    0.90
  -2   8   9   -0.40    0.80
   2   8  -9   -0.40    0.80
   1  -8  -9    2.50    0.90
  -1  -8   9    2.50    1.00
   1  -8  -9    2.70    1.00
   1   8  -9    2.10    1.00
   1   8  -9    4.20    1.00
  -1   8   9    2.30    1.00
  -1   8   9    3.40    1.10
   0  -8   9   26.60    2.00
   0  -8   9   23.00    2.00
   0   8  -9   27.10    2.10
   0   8   9   28.80    2.00
   0   8  -9   23.40    1.80
   1  -8   9    5.60    1.20
   1  -8   9    3.30    1.10
   1  -8   9    3.00    1.00
   1   8   9    5.60    1.20
  -1   8  -9    5.10    1.20
   2  -8   9    0.80    0.90
   2  -8   9    0.90    0.90
   2  -8   9    1.00    0.90
   2   8   9    1.00    0.80
   3  -8   9    3.30    1.10
   3  -8   9    3.40    1.10
   3   8   9    4.10    1.10
   3   8   9    2.20    1.00
   4   8   9    0.40    1.00
   2  -9  -9   -0.60    0.80
   1  -9  -9    3.50    1.30
   1   9  -9    1.60    0.90
   8   0 -10    0.10    0.80
   8   0 -10    0.00    0.90
   7   0 -10   -0.20    0.70
   7   0 -10    0.30    0.70
   6   0 -10    9.50    1.10
   6   0 -10    9.50    0.70
   5   0 -10   -0.50    0.40
   5   0 -10    0.00    0.30
   4   0 -10   86.39    2.00
   4   0 -10   86.89    2.30
   4   0 -10   90.29    2.00
   3   0 -10    0.30    0.30
   3   0 -10    0.00    0.30
  -3   0  10    0.10    0.20
  -3   0  10    0.00    0.20
   3   0 -10   -0.40    0.20
  -2   0  10   13.20    0.80
   2   0 -10   14.10    0.70
  -2   0  10   13.20    0.70
   2   0 -10   13.40    0.70
  -2   0  10   13.60    0.50
   1   0 -10   -0.50    0.20
   1   0 -10   -0.30    0.20
  -1   0  10    0.30    0.30
  -1   0  10    0.60    0.30
  -1   0  10    0.00    0.20
   0   0  10    1.60    0.40
   0   0  10    2.20    0.30
   0   0  10    2.10    0.40
   0   0 -10    1.40    0.40
   0   0 -10    2.70    0.40
   1   0  10    0.30    0.30
  -1   0 -10    0.40    0.30
   1   0  10    0.20    0.30
  -1   0 -10   -0.20    0.20
   1   0  10    0.20    0.20
   2   0  10    9.20    0.60
  -2   0 -10   10.10    0.60
   2   0  10    8.80    0.30
   2   0  10    9.30    0.60
   2   0  10    9.80    0.60
  -2   0 -10    9.40    0.70
   3   0  10    0.10    0.20
   3   0  10   -0.40    0.30
   3   0  10   -0.30    0.20
  -3   0 -10    0.40    0.30
   3   0  10    0.30    0.30
   4   0  10   13.70    0.80
   4   0  10   12.10    1.00
   4   0  10   12.90    0.90
   5   0  10   -0.50    0.30
   5   0  10   -0.30    0.40
   5   0  10    0.10    0.50
   6   0  10    7.10    1.00
   6   0  10    6.80    1.00
   7   0  10   -0.10    0.80
   8  -1 -10    1.30    1.00
   8  -1 -10    0.30    0.90
   8   1 -10   -0.10    0.80
   8   1 -10    0.40    0.80
   7  -1 -10   -0.90    0.60
   7  -1 -10    0.40    0.70
   7   1 -10    0.30    0.80
   7   1 -10   -0.50    0.60
   6  -1 -10   13.10    1.30
   6  -1 -10   11.20    0.90
   6  -1 -10   11.70    1.20
   6   1 -10   11.80    1.20
   5  -1 -10    4.10    0.60
   5  -1 -10    4.30    0.70
   5   1 -10    3.80    0.50
   5   1 -10    3.70    0.60
   5   1 -10    5.40    0.80
   4  -1 -10   33.20    1.40
   4  -1 -10   35.80    1.30
  -4   1  10   34.70    1.20
   4   1 -10   33.90    1.10
   4   1 -10   37.50    1.30
   3  -1 -10   14.70    0.90
   3  -1 -10   13.80    0.60
   3  -1 -10   14.70    0.80
  -3  -1  10   13.30    0.70
  -3  -1  10   15.20    0.90
   3   1 -10   13.90    0.70
   3   1 -10   13.80    0.80
  -3   1  10   12.90    0.70
  -3   1  10   13.20    0.70
   2  -1 -10   43.20    1.30
   2  -1 -10   46.10    1.30
  -2  -1  10   44.40    1.20
   2  -1 -10   44.50    1.10
  -2  -1  10   46.60    1.40
  -2  -1  10   45.40    0.80
   2   1 -10   47.30    1.30
  -2   1  10   45.20    1.20
   2   1 -10   44.60    1.30
  -2   1  10   46.20    1.30
   1  -1 -10  110.29    2.10
  -1  -1  10  112.69    2.30
   1  -1 -10  109.39    2.10
  -1  -1  10  114.09    2.30
   1  -1 -10  113.39    2.30
  -1  -1  10  113.79    1.80
  -1   1  10  108.39    2.30
   1   1 -10  113.19    2.30
  -1   1  10  111.29    2.20
   1   1 -10  108.49    2.20
  -1   1  10  113.49    2.10
   0  -1  10  672.33    9.10
   0  -1 -10  671.43    9.60
   0  -1  10  669.23    9.60
   0  -1 -10  680.23    8.90
   0  -1  10  673.53    9.00
   0  -1 -10  681.73    9.50
   0  -1  10  678.33    9.60
   0   1 -10  679.53    9.60
   0   1 -10  662.83    9.60
   0   1  10  670.53    9.60
   0   1  10  674.63    9.30
   0   1  10  672.73    9.30
  -1  -1 -10   79.09    1.10
   1  -1  10   78.79    1.80
   1  -1  10   80.19    1.70
   1  -1  10   75.59    1.80
  -1  -1 -10   76.89    1.80
  -1  -1 -10   77.99    1.90
   1  -1  10   76.09    1.50
   1   1  10   81.69    1.60
   1   1  10   80.49    1.80
   1   1  10   76.19    1.80
  -1   1 -10   80.19    1.80
  -1   1 -10   84.49    1.90
   2  -1  10  212.18    3.80
   2  -1  10  219.98    3.80
   2  -1  10  217.98    3.80
   2  -1  10  223.78    3.40
  -2  -1 -10  220.58    3.70
  -2   1 -10  220.88    3.70
   2   1  10  218.88    3.50
  -2   1 -10  223.88    4.00
   2   1  10  225.38    3.80
   2   1  10  220.68    3.90
   3  -1  10    0.40    0.30
   3  -1  10    0.50    0.40
   3  -1  10    0.20    0.30
   3  -1  10    0.10    0.20
  -3   1 -10    0.10    0.30
   3   1  10   -0.10    0.40
   3   1  10    0.60    0.30
  -3   1 -10    0.00    0.30
   3   1  10    0.50    0.30
   4  -1  10   10.80    0.70
   4  -1  10   10.40    1.00
   4  -1  10   10.40    0.90
   4   1  10   12.00    0.80
   4   1  10   11.40    1.00
   4   1  10   10.80    0.70
  -4   1 -10   10.40    0.90
   5  -1  10   14.90    0.90
   5  -1  10   16.90    1.30
   5  -1  10   16.00    1.20
   5   1  10   14.70    0.90
   5   1  10   14.90    1.30
   6  -1  10   -0.20    0.60
   6  -1  10    2.10    0.70
   6   1  10    1.30    0.70
   7  -1  10    1.00    0.70
   7  -1  10    1.80    0.80
   7   1  10    1.50    0.80
   7   1  10    1.80    0.80
   8   1  10    0.80    1.00
   8   2 -10   -0.10    0.70
   8   2 -10    0.30    0.90
   7  -2 -10    6.50    1.20
   7  -2 -10    6.50    1.20
   7   2 -10    6.20    1.10
   6  -2 -10    1.50    0.50
   6  -2 -10   -0.30    0.60
   6  -2 -10    0.40    0.60
   6   2 -10    0.70    0.60
   6   2 -10    0.60    0.50
   5  -2 -10    1.00    0.40
   5  -2 -10    0.70    0.50
   5  -2 -10    1.90    0.60
   5   2 -10    1.10    0.50
  -5   2  10    1.80    0.50
   5   2 -10    1.30    0.40
   4  -2 -10   99.89    2.40
   4  -2 -10  105.59    2.70
   4   2 -10  103.89    2.60
   4   2 -10  102.79    2.30
  -4   2  10  104.89    2.40
   3  -2 -10    0.00    0.30
  -3  -2  10   -0.50    0.30
   3  -2 -10   -0.30    0.40
  -3  -2  10   -0.10    0.20
  -3   2  10    0.60    0.30
   3   2 -10   -0.10    0.30
  -3   2  10    0.10    0.30
   3   2 -10    0.10    0.30
   2  -2 -10   25.20    1.00
   2  -2 -10   26.90    1.10
  -2  -2  10   25.70    1.10
  -2  -2  10   26.40    1.00
   2  -2 -10   25.40    0.70
   2   2 -10   27.30    1.10
  -2   2  10   26.90    1.10
   2   2 -10   25.90    1.00
  -2   2  10   23.90    1.00
  -1  -2  10    3.90    0.50
   1  -2 -10    3.40    0.50
  -1  -2  10    4.30    0.50
  -1  -2  10    3.40    0.20
   1  -2 -10    3.70    0.40
  -1  -2  10    4.20    0.50
   1  -2 -10    3.20    0.30
   1   2 -10    2.80    0.40
  -1   2  10    3.40    0.50
   1   2 -10    4.10    0.50
  -1   2  10    3.20    0.50
   0  -2  10  128.49    2.40
   0  -2  10  113.39    2.50
   0  -2 -10  125.39    2.10
   0  -2  10  118.89    2.50
   0  -2  10  124.89    2.10
   0  -2 -10  121.59    2.50
   0   2  10  130.59    2.20
   0   2  10  121.29    2.60
   0   2 -10  126.09    2.60
   0   2 -10  131.29    2.60
   0   2  10  134.09    2.60
   1  -2  10    3.50    0.50
   1  -2  10    4.60    0.50
   1  -2  10    3.90    0.40
   1  -2  10    3.50    0.40
  -1  -2 -10    3.40    0.50
  -1  -2 -10    3.40    0.20
  -1   2 -10    3.10    0.50
  -1   2 -10    3.90    0.50
   1   2  10    2.70    0.50
   1   2  10    4.10    0.40
   1   2  10    2.40    0.40
   2  -2  10   13.90    0.80
  -2  -2 -10   14.40    0.80
   2  -2  10   14.70    0.90
   2  -2  10   14.70    0.70
   2  -2  10   13.80    0.80
  -2   2 -10   16.20    0.80
  -2   2 -10   15.10    0.90
   2   2  10   16.40    0.80
   2   2  10   13.80    0.90
   2   2  10   14.90    0.60
   3  -2  10   22.50    0.90
   3  -2  10   22.20    1.10
   3  -2  10   24.30    1.10
   3  -2  10   24.70    1.20
  -3   2 -10   23.90    1.00
  -3   2 -10   25.70    1.20
   3   2  10   23.80    1.00
   3   2  10   24.70    1.20
   4  -2  10    4.20    0.70
   4  -2  10    4.20    0.60
   4  -2  10    5.10    0.60
   4  -2  10    4.00    0.70
   4   2  10    3.90    0.70
  -4   2 -10    4.40    0.70
   4   2  10    5.90    0.60
   5  -2  10    4.80    0.90
   5  -2  10    5.70    0.90
   5  -2  10    6.20    0.70
   5   2  10    6.00    0.60
   5   2  10    3.10    0.80
   6  -2  10   -1.10    0.60
   6  -2  10    0.30    0.50
   6  -2  10    1.20    0.70
   6   2  10    0.50    0.70
   6   2  10    0.60    0.70
   7  -2  10    2.30    1.00
   7  -2  10    1.60    0.90
   7   2  10    0.80    0.80
   7   2  10    1.20    0.90
   7  -3 -10    0.30    0.60
   7  -3 -10   -1.40    0.70
   7  -3 -10   -0.90    0.80
   7   3 -10    0.20    0.70
   6  -3 -10    3.30    0.70
   6  -3 -10    2.60    0.70
   6  -3 -10    1.90    0.90
   6   3 -10    2.30    0.70
   5  -3 -10    3.50    0.80
   5  -3 -10    3.80    0.70
   5  -3 -10    4.70    0.90
   5   3 -10    4.20    0.80
   5   3 -10    4.90    0.60
  -5   3  10    5.50    0.80
   4  -3 -10   30.10    1.50
   4  -3 -10   29.90    1.40
   4  -3 -10   33.20    1.50
  -4  -3  10   28.80    1.40
   4   3 -10   29.10    1.40
  -4   3  10   28.80    1.40
   4   3 -10   28.40    1.20
   3  -3 -10    1.40    0.50
   3  -3 -10    2.50    0.60
   3  -3 -10    2.20    0.50
  -3  -3  10    1.20    0.50
  -3   3  10    1.70    0.50
  -3   3  10    1.90    0.50
   3   3 -10    1.40    0.50
   3   3 -10    2.00    0.50
  -2  -3  10    1.70    0.40
  -2  -3  10    1.70    0.40
   2  -3 -10    1.70    0.40
  -2  -3  10    0.90    0.30
   2  -3 -10    1.20    0.40
   2   3 -10    1.40    0.40
  -2   3  10    1.20    0.40
  -2   3  10    1.00    0.40
   2   3 -10    1.40    0.50
   1  -3 -10    1.20    0.30
  -1  -3  10    1.70    0.50
  -1  -3  10    1.90    0.40
  -1  -3  10    1.90    0.50
   1  -3 -10    0.90    0.40
  -1  -3  10    1.50    0.20
  -1   3  10    1.80    0.50
   1   3 -10    0.80    0.40
  -1   3  10    2.10    0.50
   1   3 -10    1.50    0.40
   0  -3  10    2.60    0.50
   0  -3 -10    2.90    0.40
   0  -3 -10    3.20    0.50
   0  -3  10    2.40    0.50
   0  -3  10    2.20    0.50
   0   3  10    2.30    0.50
   0   3 -10    2.70    0.50
   0   3  10    1.60    0.40
   0   3 -10    2.40    0.50
  -1  -3 -10  102.39    2.40
  -1  -3 -10  105.09    1.80
   1  -3  10  104.89    2.50
   1  -3  10  100.49    2.30
   1  -3  10  110.19    2.50
   1   3  10  103.99    2.40
   1   3  10  104.69    2.50
  -1   3 -10  104.89    2.40
  -1   3 -10  104.69    2.40
   2  -3  10    2.90    0.50
   2  -3  10    2.60    0.60
  -2  -3 -10    2.60    0.50
   2  -3  10    3.10    0.50
  -2   3 -10    2.40    0.50
   2   3  10    2.30    0.60
   2   3  10    1.90    0.40
  -2   3 -10    2.60    0.50
   3  -3  10    1.30    0.40
   3  -3  10    0.90    0.50
   3  -3  10    1.50    0.50
   3   3  10    0.60    0.40
  -3   3 -10    1.60    0.50
   3   3  10    1.80    0.40
   4  -3  10   31.70    1.60
   4  -3  10   29.60    1.40
   4  -3  10   30.90    1.40
   4  -3  10   31.60    1.60
   4   3  10   34.10    1.60
   4   3  10   33.40    1.30
  -4   3 -10   33.70    1.50
   5  -3  10   13.40    1.10
   5  -3  10   13.60    1.30
   5  -3  10   13.40    1.30
   5   3  10   13.40    1.40
   5   3  10   12.30    0.90
  -5   3 -10   12.50    1.10
   5   3  10   15.80    1.40
   6  -3  10   13.20    1.40
   6  -3  10   15.90    1.30
   6  -3  10   13.80    1.40
   6   3  10   16.70    1.50
   6   3  10   16.50    1.60
   7  -3  10   -0.10    0.80
   7  -3  10    0.30    0.60
   7   3  10   -0.20    0.80
   7   3  10   -0.70    0.80
   7  -4 -10    0.60    0.80
   7  -4 -10    1.70    1.00
   7  -4 -10   -0.20    0.90
   7   4 -10    1.10    0.80
   6  -4 -10    4.10    0.80
   6  -4 -10    4.90    0.80
   6  -4 -10    4.40    1.10
  -6   4  10    6.30    1.00
   6   4 -10    3.90    0.90
   5  -4 -10    0.30    0.50
   5  -4 -10    0.00    0.60
   5  -4 -10    1.00    0.70
  -5   4  10    0.50    0.60
   5   4 -10   -0.10    0.60
   5   4 -10   -0.10    0.50
   4  -4 -10   42.60    1.90
  -4  -4  10   40.10    1.70
   4  -4 -10   42.80    1.80
   4  -4 -10   42.00    1.90
   4   4 -10   42.90    1.70
   4   4 -10   41.00    1.90
  -4   4  10   45.10    1.90
   3  -4 -10    1.50    0.50
  -3  -4  10    0.60    0.50
   3  -4 -10    1.10    0.50
  -3  -4  10    0.50    0.50
   3  -4 -10    1.20    0.60
  -3   4  10    1.70    0.60
   3   4 -10    1.10    0.40
   3   4 -10    0.40    0.50
  -3   4  10    0.90    0.50
  -2  -4  10    2.00    0.60
  -2  -4  10    1.90    0.50
   2  -4 -10    1.90    0.60
   2  -4 -10    1.50    0.50
   2  -4 -10    1.60    0.50
  -2  -4  10    2.20    0.50
   2   4 -10    1.10    0.50
  -2   4  10    1.80    0.60
   2   4 -10    2.20    0.60
  -2   4  10    1.50    0.60
   1  -4 -10    0.30    0.30
  -1  -4  10    0.70    0.40
   1  -4 -10    1.30    0.40
  -1  -4  10    0.80    0.50
  -1  -4  10    0.10    0.40
   1  -4 -10    0.30    0.50
  -1   4  10    0.60    0.50
   1   4 -10    1.10    0.50
  -1   4  10   -0.20    0.40
   1   4 -10    1.10    0.50
  -1   4  10    0.60    0.30
   0  -4 -10   92.89    2.40
   0  -4  10   90.89    2.30
   0  -4 -10   89.79    2.00
   0  -4  10   89.59    2.30
   0  -4  10   90.79    2.40
   0   4  10   91.39    2.10
   0   4 -10   85.19    2.30
   0   4 -10   92.09    2.40
   0   4  10   90.79    2.40
   0   4  10   89.69    2.30
  -1  -4 -10    6.80    0.60
   1  -4  10    7.40    0.80
   1  -4  10    7.30    0.80
  -1  -4 -10    5.50    0.70
   1  -4  10    7.70    0.80
   1   4  10    5.90    0.70
  -1   4 -10    5.30    0.70
   1   4  10    8.20    0.90
  -1   4 -10    6.00    0.80
   1   4  10    7.00    0.80
   2  -4  10   74.99    2.20
   2  -4  10   69.89    2.10
   2  -4  10   73.29    2.10
   2   4  10   71.49    2.10
  -2   4 -10   70.09    2.10
  -2   4 -10   73.69    2.10
   2   4  10   74.49    2.20
   2   4  10   72.29    2.10
   3  -4  10   17.20    1.20
   3  -4  10   16.60    1.30
   3  -4  10   21.90    1.20
   3   4  10   21.10    1.20
   3   4  10   20.00    1.30
   3   4  10   20.00    1.30
  -3   4 -10   20.30    1.20
   4  -4  10   43.30    2.00
   4  -4  10   43.40    1.80
   4  -4  10   44.30    1.80
   4   4  10   47.10    2.10
   4   4  10   43.00    1.60
   4   4  10   39.90    1.90
  -4   4 -10   41.80    1.80
   5  -4  10   11.70    1.40
   5  -4  10   13.20    1.20
   5  -4  10   14.90    1.20
   5   4  10   15.00    1.40
   5   4  10   12.80    1.00
   5   4  10   12.90    1.50
   6  -4  10    1.20    0.80
   6  -4  10    2.60    0.80
   6  -4  10    0.00    0.80
   6   4  10    0.40    0.80
   6   4  10    0.60    0.90
   7  -4  10   -0.20    0.80
   7   4  10   -0.90    0.90
   6  -5 -10   -0.40    0.80
   6  -5 -10   -0.80    0.80
   6  -5 -10    0.90    0.90
  -6   5  10    1.60    0.90
   6   5 -10    0.60    0.90
   5  -5 -10    2.80    0.80
   5  -5 -10    2.20    0.90
   5  -5 -10    2.90    1.00
   5   5 -10    1.60    0.90
   5   5 -10    0.90    0.60
  -5   5  10    2.60    0.90
   4  -5 -10    3.70    0.80
   4  -5 -10    4.00    0.80
  -4  -5  10    2.70    0.70
   4  -5 -10    4.40    0.90
   4   5 -10    4.60    0.80
  -4   5  10    4.00    0.90
   4   5 -10    3.90    0.90
  -3  -5  10   20.70    1.20
   3  -5 -10   22.60    1.30
  -3  -5  10   20.90    1.40
   3  -5 -10   23.40    1.50
   3  -5 -10   21.70    1.40
   3   5 -10   22.30    1.30
   3   5 -10   19.50    1.40
  -3   5  10   21.10    1.40
  -3   5  10   20.30    1.40
   2  -5 -10   41.90    1.60
   2  -5 -10   40.20    1.80
   2  -5 -10   43.00    1.70
  -2  -5  10   42.30    1.60
  -2  -5  10   41.50    1.80
  -2   5  10   42.50    1.80
   2   5 -10   42.10    1.80
  -2   5  10   41.00    1.80
   2   5 -10   45.40    1.80
  -1  -5  10   80.69    2.40
   1  -5 -10   90.79    2.60
  -1  -5  10   89.79    2.60
  -1  -5  10   81.59    2.30
   1  -5 -10   92.59    2.30
  -1   5  10   87.99    2.60
   1   5 -10   85.39    2.50
   1   5 -10   90.19    2.50
  -1   5  10   86.59    2.50
   0  -5 -10    8.20    0.70
   0  -5  10    6.90    0.90
   0  -5  10    8.80    1.00
   0  -5  10    6.50    0.80
   0  -5 -10    8.10    0.90
   0   5  10    7.40    0.90
   0   5 -10    8.50    0.90
   0   5  10    7.20    0.70
   0   5 -10    6.50    0.90
   0   5  10    5.40    0.80
  -1  -5 -10   12.80    1.10
   1  -5  10   11.20    1.00
   1  -5  10   10.60    1.00
   1  -5  10   12.40    1.10
   1   5  10   11.40    1.00
  -1   5 -10   12.60    1.10
   1   5  10   11.00    1.00
   1   5  10   11.40    1.10
  -1   5 -10   12.30    1.00
   2  -5  10    1.20    0.60
   2  -5  10    0.70    0.40
   2  -5  10    0.70    0.50
   2   5  10    0.50    0.50
  -2   5 -10    0.60    0.50
  -2   5 -10    1.10    0.60
   2   5  10    1.70    0.70
   2   5  10    0.90    0.70
   3  -5  10    1.10    0.60
   3  -5  10    0.90    0.60
   3  -5  10    1.40    0.70
   3   5  10    0.60    0.50
   3   5  10    1.20    0.60
  -3   5 -10    0.90    0.50
   3   5  10    1.00    0.70
   4  -5  10    3.30    0.90
   4  -5  10    2.90    0.80
   4  -5  10    3.00    0.80
   4   5  10    3.10    0.90
   4   5  10    1.50    0.60
   4   5  10    2.10    0.80
   5  -5  10    5.10    1.10
   5  -5  10    7.20    1.20
   5  -5  10    4.10    0.90
   5   5  10    6.10    1.20
   5   5  10    5.20    0.80
   5   5  10    5.40    1.00
   6  -5  10    3.10    0.90
   6  -5  10    1.70    1.10
   6   5  10    2.10    1.20
   6   5  10    1.40    1.00
   6  -6 -10    0.10    1.00
   6   6 -10   -0.30    0.60
  -6   6  10    0.30    0.90
   5  -6 -10    0.80    0.80
   5  -6 -10    0.70    0.70
   5  -6 -10   -0.20    0.80
  -5   6  10    0.20    0.80
   5   6 -10    0.40    0.80
   5   6 -10   -0.80    0.60
  -4  -6  10   15.10    1.50
   4  -6 -10   15.00    1.40
   4  -6 -10   13.60    1.40
   4  -6 -10   13.20    1.40
   4   6 -10   15.30    1.60
   4   6 -10   14.70    1.30
  -4   6  10   14.70    1.50
   3  -6 -10   34.10    1.80
   3  -6 -10   34.50    1.90
  -3  -6  10   37.00    1.90
   3   6 -10   34.90    1.90
  -3   6  10   34.70    1.90
   3   6 -10   35.40    1.80
   2  -6 -10    1.50    0.70
   2  -6 -10    1.20    0.70
  -2  -6  10    2.00    0.60
  -2  -6  10    2.30    0.70
  -2   6  10    2.10    0.80
  -2   6  10    0.80    0.50
   2   6 -10    1.90    0.70
   2   6 -10    2.00    0.70
   1  -6 -10   18.50    1.30
  -1  -6  10   18.30    1.40
  -1  -6  10   21.70    1.40
  -1  -6  10   20.90    1.30
   1  -6 -10   18.60    1.50
   1   6 -10   22.90    1.50
  -1   6  10   19.20    1.50
  -1   6  10   21.00    1.50
   1   6 -10   21.60    1.40
   0  -6 -10   27.00    1.30
   0  -6  10   28.00    1.60
   0  -6 -10   24.00    1.60
   0  -6  10   24.60    1.50
   0  -6  10   30.20    1.70
   0   6  10   25.60    1.60
   0   6 -10   28.50    1.60
   0   6 -10   29.10    1.70
   0   6  10   26.30    1.50
   1  -6  10    0.80    0.60
  -1  -6 -10   -0.70    0.60
   1  -6  10    0.70    0.70
   1  -6  10    0.00    0.60
   1   6  10    1.50    0.70
  -1   6 -10    0.80    0.70
   1   6  10    0.80    0.60
  -1   6 -10   -0.90    0.50
   1   6  10    0.10    0.60
   2  -6  10    4.20    0.90
   2  -6  10    4.40    0.90
   2  -6  10    3.90    0.90
  -2   6 -10    2.60    0.70
   2   6  10    4.70    1.00
   2   6  10    4.10    0.90
   2   6  10    3.90    0.90
  -2   6 -10    3.80    0.90
   3  -6  10    0.90    0.70
   3  -6  10    0.80    0.70
   3  -6  10    0.30    0.70
   3   6  10   -0.30    0.60
   3   6  10    1.30    0.80
   3   6  10    0.30    0.70
   4  -6  10    4.10    0.90
   4  -6  10    3.30    1.00
   4  -6  10    4.20    1.00
   4   6  10    2.90    1.00
   4   6  10    4.30    0.80
   4   6  10    2.50    0.90
   5  -6  10    6.30    1.30
   5  -6  10    6.20    1.20
   5  -6  10    6.40    1.10
   5   6  10    4.90    1.10
   5   6  10    6.70    1.40
   5   6  10    7.00    1.00
   6   6  10    1.10    1.10
   5   7 -10    1.20    0.80
   4  -7 -10    4.80    1.20
  -4  -7  10    5.80    1.10
   4  -7 -10    5.20    1.10
   4   7 -10    1.60    0.90
  -4   7  10    4.50    1.20
   4   7 -10    4.00    1.10
  -3  -7  10   -0.10    0.70
   3  -7 -10    0.80    0.80
   3  -7 -10    1.00    0.80
   3   7 -10   -0.20    0.70
  -3   7  10   -0.30    0.70
   3   7 -10   -0.20    0.80
   2  -7 -10    0.30    0.70
   2  -7 -10    0.20    0.70
  -2  -7  10    1.20    0.80
   2   7 -10    0.00    0.70
  -2   7  10    1.70    0.80
   2   7 -10    1.90    0.80
   1  -7 -10    3.80    1.00
  -1  -7  10    3.30    1.00
  -1  -7  10    4.40    0.80
   1  -7 -10    3.50    0.80
  -1   7  10    5.10    1.10
  -1   7  10    3.20    0.90
   1   7 -10    4.00    0.90
   1   7 -10    3.50    0.90
   0  -7 -10    2.70    0.90
   0  -7  10    2.20    0.80
   0  -7  10    2.10    0.90
   0  -7  10    3.30    0.90
   0   7  10    3.30    0.90
   0   7  10    1.00    0.80
   0   7 -10    4.70    0.90
   0   7 -10    4.00    1.00
   1  -7  10    0.90    0.70
   1  -7  10   -0.50    0.70
   1  -7  10    0.20    0.80
  -1   7 -10    0.80    0.80
  -1   7 -10    0.80    0.70
   1   7  10   -0.20    0.70
   1   7  10    0.90    0.80
   2  -7  10    9.70    1.30
   2  -7  10    9.60    1.30
   2  -7  10    8.40    1.30
  -2   7 -10    6.60    1.20
   2   7  10   10.20    1.30
   2   7  10    9.30    1.20
  -2   7 -10    5.80    1.00
   2   7  10    9.10    1.30
   3  -7  10    5.00    1.10
   3  -7  10    3.70    1.00
   3  -7  10    3.80    1.00
   3   7  10    4.40    1.20
   3   7  10    3.10    1.00
   3   7  10    4.20    1.00
   4  -7  10   -0.10    0.80
   4  -7  10    0.90    0.80
   4  -7  10    0.70    0.70
   4   7  10   -0.80    0.80
   4   7  10    1.60    0.90
   4   7  10    0.20    0.70
   5   7  10    0.40    0.90
   3  -8 -10    3.90    1.10
   3  -8 -10    1.60    1.10
  -3  -8  10    3.50    1.10
   3   8 -10    1.00    0.90
  -3   8  10    2.50    1.00
   2  -8 -10   -1.50    0.70
  -2  -8  10    1.00    0.90
   2  -8 -10    1.40    0.90
  -2   8  10    0.50    0.90
   2   8 -10   -0.10    0.80
   2   8 -10   -0.10    0.80
  -2   8  10    1.80    1.00
  -1  -8  10    0.20    0.80
   1  -8 -10    1.60    1.00
   1  -8 -10    1.20    0.80
   1   8 -10    3.30    1.00
  -1   8  10    1.20    0.90
   1   8 -10    2.40    1.10
   0  -8  10    0.10    0.90
   0  -8  10    1.60    1.00
   0   8  10    1.30    0.90
   0   8 -10    0.50    0.90
   0   8 -10    0.70    0.80
   1  -8  10    1.30    0.90
   1  -8  10    1.40    1.00
   1  -8  10    2.80    1.00
  -1   8 -10    3.30    1.10
   1   8  10    0.50    0.90
   1   8  10    2.60    1.00
  -1   8 -10    1.80    1.00
   2  -8  10    0.80    1.10
   2  -8  10   -0.40    0.90
   2  -8  10    0.10    1.00
   2   8  10    0.90    0.90
   2   8  10    0.50    0.80
   3  -8  10    2.50    1.10
   3  -8  10    4.40    1.10
   3   8  10    3.40    1.10
   3   8  10    2.30    1.10
   1  -9 -10    1.00    1.20
   0   9 -10   -0.30    0.90
   8   0 -11   -1.70    0.80
   8   0 -11   -0.60    0.90
   7   0 -11    4.00    1.00
   7   0 -11    5.00    1.10
   6   0 -11    0.40    0.60
   6   0 -11   -0.30    0.30
   5   0 -11    1.70    0.50
   5   0 -11    1.60    0.40
   4   0 -11   -0.10    0.30
   4   0 -11    0.00    0.30
   4   0 -11    0.00    0.40
  -3   0  11   34.40    0.90
  -3   0  11   34.10    1.10
   3   0 -11   36.00    1.30
   3   0 -11   33.40    1.10
   3   0 -11   34.30    1.20
  -2   0  11    0.10    0.20
   2   0 -11   -0.20    0.30
   2   0 -11    0.30    0.20
  -2   0  11    0.30    0.30
  -2   0  11    0.40    0.30
   1   0 -11  149.69    2.90
  -1   0  11  150.48    2.80
  -1   0  11  153.28    2.50
   1   0 -11  150.28    2.80
  -1   0  11  147.89    2.80
   0   0 -11   -0.40    0.30
   0   0  11   -0.20    0.20
   0   0  11   -0.10    0.30
   0   0  11    0.00    0.30
   0   0 -11   -0.10    0.30
   1   0  11    2.10    0.40
   1   0  11    1.90    0.40
   1   0  11    1.70    0.40
  -1   0 -11    1.60    0.40
  -1   0 -11    2.40    0.40
  -2   0 -11   -0.30    0.30
   2   0  11    0.30    0.30
   2   0  11    0.00    0.30
   2   0  11    0.10    0.30
  -2   0 -11    0.20    0.30
   2   0  11   -0.10    0.10
  -3   0 -11    0.60    0.30
   3   0  11   -0.10    0.30
   3   0  11   -0.10    0.30
   3   0  11    0.10    0.30
   4   0  11    0.60    0.30
   4   0  11   -0.40    0.30
   4   0  11    0.20    0.40
   5   0  11   53.59    2.10
   5   0  11   50.69    1.60
   5   0  11   50.99    1.80
   6   0  11   -0.90    0.60
   7   0  11    0.60    0.80
   8   1 -11   -0.10    0.80
   8   1 -11    0.80    0.90
   7  -1 -11   -0.40    0.70
   7  -1 -11    0.30    0.70
   7   1 -11   -0.20    0.70
   6  -1 -11   -0.10    0.70
   6  -1 -11    0.20    0.40
   6  -1 -11    0.10    0.60
   6   1 -11    0.10    0.60
   6   1 -11    0.20    0.40
   5  -1 -11    2.20    0.40
   5  -1 -11    1.10    0.60
   5   1 -11    2.10    0.60
   5   1 -11    2.30    0.60
   5   1 -11    0.90    0.40
   4  -1 -11   60.69    1.70
   4  -1 -11   60.19    2.00
   4   1 -11   61.19    1.70
   4   1 -11   58.09    1.60
  -4   1  11   62.09    1.60
  -3  -1  11    0.50    0.30
  -3  -1  11    0.40    0.30
   3  -1 -11    0.40    0.30
   3  -1 -11    0.50    0.20
   3  -1 -11    0.50    0.30
  -3   1  11    0.50    0.30
   3   1 -11    0.30    0.30
  -3   1  11    0.20    0.30
   3   1 -11    0.40    0.30
   2  -1 -11   14.40    0.80
   2  -1 -11   16.80    0.90
  -2  -1  11   17.70    0.80
   2  -1 -11   16.80    0.70
  -2  -1  11   17.90    0.50
  -2  -1  11   17.00    0.90
  -2   1  11   17.50    0.80
  -2   1  11   17.30    0.80
   2   1 -11   16.90    0.80
   2   1 -11   16.50    0.80
  -1  -1  11  169.18    3.10
  -1  -1  11  172.08    2.60
   1  -1 -11  172.18    3.00
   1  -1 -11  173.08    2.90
   1  -1 -11  172.18    3.20
  -1  -1  11  172.28    3.20
   1   1 -11  172.08    3.20
  -1   1  11  171.28    3.10
  -1   1  11  170.68    2.90
  -1   1  11  176.18    3.20
   1   1 -11  168.08    3.20
   0  -1  11   64.99    1.40
   0  -1  11   66.49    1.70
   0  -1 -11   67.29    1.60
   0  -1 -11   64.99    1.70
   0  -1  11   66.09    1.50
   0  -1 -11   67.29    1.30
   0  -1  11   67.39    1.70
   0   1  11   65.99    1.50
   0   1 -11   64.29    1.70
   0   1  11   68.29    1.70
   0   1  11   67.19    1.60
   0   1 -11   66.59    1.70
   1  -1  11    6.40    0.40
  -1  -1 -11    6.90    0.20
  -1  -1 -11    6.50    0.60
   1  -1  11    6.90    0.50
   1  -1  11    7.00    0.60
   1  -1  11    8.30    0.70
  -1  -1 -11    7.10    0.60
  -1   1 -11    6.60    0.60
  -1   1 -11    6.90    0.60
   1   1  11    7.60    0.60
   1   1  11    6.60    0.60
   1   1  11    7.00    0.50
   2  -1  11   19.50    0.90
   2  -1  11   20.20    0.70
  -2  -1 -11   21.00    0.90
   2  -1  11   20.20    1.00
  -2  -1 -11   19.20    1.00
   2  -1  11   21.00    1.00
  -2   1 -11   19.90    1.00
  -2   1 -11   20.10    0.90
   2   1  11   19.20    0.80
   2   1  11   20.30    1.00
   2   1  11   19.10    0.90
   3  -1  11   12.90    0.90
   3  -1  11   13.10    0.60
   3  -1  11   13.60    0.80
   3  -1  11   12.90    0.80
  -3   1 -11   14.60    1.00
   3   1  11   13.40    0.70
   3   1  11   14.60    1.00
   3   1  11   13.70    0.80
   4  -1  11    3.40    0.70
   4  -1  11    2.90    0.60
   4  -1  11    4.10    0.60
   4   1  11    3.90    0.50
   4   1  11    3.60    0.70
  -4   1 -11    2.70    0.60
   4   1  11    2.80    0.50
   5  -1  11   42.70    1.50
   5  -1  11   38.00    1.80
   5  -1  11   45.80    1.80
   5   1  11   42.40    1.90
   5   1  11   42.20    1.40
   6  -1  11    6.40    0.70
   6  -1  11    6.30    1.00
   6  -1  11    5.10    0.80
   6   1  11    6.90    1.00
   7  -1  11    2.00    0.90
   7  -1  11    1.30    0.80
   7   1  11    2.60    0.90
   7   1  11    2.60    0.90
   8   2 -11    0.60    0.90
   7  -2 -11   -0.30    0.50
   7  -2 -11   -0.10    0.80
   7   2 -11    0.60    0.60
   6  -2 -11    9.30    1.20
   6  -2 -11    8.70    1.20
   6  -2 -11   10.20    0.90
   6   2 -11    7.20    1.10
   6   2 -11    8.10    1.00
   6   2 -11    7.60    0.70
   5  -2 -11    1.20    0.60
   5  -2 -11    1.40    0.50
   5  -2 -11    1.10    0.50
   5   2 -11    1.00    0.50
   5   2 -11    1.70    0.50
  -5   2  11    1.30    0.50
   4  -2 -11    1.40    0.60
   4  -2 -11    0.50    0.40
  -4  -2  11    1.30    0.50
  -4   2  11    1.50    0.50
   4   2 -11    1.50    0.40
   4   2 -11    1.30    0.50
   3  -2 -11   38.00    1.40
  -3  -2  11   33.90    1.40
   3  -2 -11   34.80    1.30
  -3   2  11   37.60    1.30
  -3   2  11   37.70    1.30
   3   2 -11   35.80    1.40
   3   2 -11   36.30    1.30
   2  -2 -11    3.60    0.50
  -2  -2  11    4.20    0.50
   2  -2 -11    4.20    0.40
  -2  -2  11    5.50    0.60
   2  -2 -11    4.20    0.50
   2   2 -11    4.00    0.50
  -2   2  11    3.80    0.50
  -2   2  11    4.90    0.60
   2   2 -11    4.20    0.60
  -1  -2  11   22.70    1.10
  -1  -2  11   23.70    1.00
   1  -2 -11   23.70    0.80
   1  -2 -11   24.10    0.90
  -1  -2  11   24.10    1.00
   1  -2 -11   23.90    1.00
  -1  -2  11   23.20    0.60
   1   2 -11   23.40    1.00
  -1   2  11   24.70    1.10
   1   2 -11   24.80    1.00
  -1   2  11   24.20    1.00
   0  -2  11   21.90    1.00
   0  -2 -11   21.80    1.00
   0  -2 -11   21.00    0.70
   0  -2  11   20.20    1.00
   0  -2  11   21.20    0.90
   0  -2  11   22.70    0.80
   0   2 -11   20.50    1.00
   0   2  11   20.20    1.00
   0   2  11   21.50    1.00
   0   2 -11   22.10    1.00
   0   2  11   21.50    0.80
   1  -2  11   15.20    0.90
   1  -2  11   15.60    0.90
  -1  -2 -11   15.70    0.40
   1  -2  11   17.50    0.80
  -1  -2 -11   16.60    0.90
   1  -2  11   17.00    0.80
  -1   2 -11   16.10    0.90
   1   2  11   16.30    0.60
   1   2  11   15.30    0.90
   1   2  11   15.50    0.90
  -1   2 -11   14.60    0.90
  -2  -2 -11    0.30    0.40
   2  -2  11    0.40    0.30
   2  -2  11   -0.10    0.30
   2  -2  11    0.70    0.40
   2  -2  11    0.40    0.40
   2   2  11    0.20    0.30
  -2   2 -11    0.20    0.30
  -2   2 -11   -0.30    0.30
   2   2  11    0.40    0.40
   2   2  11    0.30    0.20
   3  -2  11  117.19    2.60
   3  -2  11  117.09    2.80
   3  -2  11  117.39    2.70
   3  -2  11  114.49    2.40
  -3   2 -11  120.39    2.80
   3   2  11  114.99    2.50
   3   2  11  117.29    2.80
   4  -2  11   32.30    1.40
   4  -2  11   34.90    1.60
   4  -2  11   29.00    1.40
   4   2  11   32.80    1.60
   4   2  11   31.70    1.30
  -4   2 -11   32.30    1.50
   5  -2  11   18.60    1.30
   5  -2  11   21.80    1.50
   5  -2  11   22.90    1.30
   5   2  11   20.80    1.50
   5   2  11   23.30    1.10
   6  -2  11    1.10    0.70
   6  -2  11    0.90    0.50
   6  -2  11    1.00    0.80
   6   2  11    2.90    0.90
   7  -2  11   -0.10    0.50
   7  -2  11   -0.10    0.80
   7   2  11    0.50    0.80
   7   2  11   -0.80    0.70
   7  -3 -11   -0.10    0.60
   7  -3 -11   -0.80    0.80
   7  -3 -11   -0.70    0.80
   7   3 -11    1.40    0.80
   6  -3 -11    3.10    0.90
   6  -3 -11    2.30    0.90
   6  -3 -11    2.00    0.70
   6   3 -11    1.70    0.70
   6   3 -11    3.20    0.60
   5  -3 -11   14.90    1.30
   5  -3 -11   13.10    1.10
   5  -3 -11   13.00    1.30
   5   3 -11   11.80    0.90
   5   3 -11   11.70    1.10
  -5   3  11   11.80    1.10
   4  -3 -11    3.60    0.70
   4  -3 -11    3.90    0.70
   4  -3 -11    5.70    0.90
  -4  -3  11    4.10    0.70
  -4   3  11    5.60    0.80
   4   3 -11    5.60    0.70
   4   3 -11    4.30    0.70
   3  -3 -11    1.20    0.50
   3  -3 -11    2.00    0.60
  -3  -3  11    1.50    0.50
   3   3 -11    1.80    0.50
  -3   3  11    2.20    0.50
  -3   3  11    2.50    0.50
   3   3 -11    2.30    0.60
   2  -3 -11    4.70    0.60
   2  -3 -11    6.50    0.70
  -2  -3  11    5.10    0.60
  -2  -3  11    5.40    0.70
  -2  -3  11    6.40    0.70
   2   3 -11    5.70    0.70
   2   3 -11    4.70    0.70
  -2   3  11    6.00    0.70
  -2   3  11    5.50    0.70
  -1  -3  11   10.50    0.40
  -1  -3  11   10.30    0.80
   1  -3 -11    9.30    0.80
  -1  -3  11   11.10    0.80
  -1  -3  11   10.00    0.80
   1  -3 -11    9.80    0.70
   1   3 -11   10.40    0.80
  -1   3  11   10.00    0.80
  -1   3  11   10.50    0.80
   1   3 -11   11.70    0.80
   0  -3  11   46.00    1.20
   0  -3 -11   47.20    1.60
   0  -3 -11   46.30    1.20
   0  -3  11   44.20    1.50
   0  -3  11   48.70    1.60
   0  -3  11   47.50    1.50
   0   3 -11   47.30    1.60
   0   3  11   46.60    1.50
   0   3 -11   47.70    1.60
   0   3  11   44.90    1.50
   1  -3  11  111.59    2.30
   1  -3  11  109.79    2.40
  -1  -3 -11  103.09    2.50
  -1  -3 -11  105.99    1.90
   1  -3  11  106.99    2.50
   1  -3  11  107.09    2.60
   1   3  11  114.59    2.60
  -1   3 -11  109.39    2.50
   1   3  11  107.09    2.60
  -1   3 -11  111.29    2.60
   2  -3  11   23.70    1.10
   2  -3  11   23.30    1.10
  -2  -3 -11   22.90    1.00
   2  -3  11   25.30    1.30
   2  -3  11   24.80    1.20
   2   3  11   20.90    1.10
   2   3  11   22.40    1.20
  -2   3 -11   23.90    1.20
  -2   3 -11   23.70    1.10
   3  -3  11    7.50    0.90
   3  -3  11    7.20    0.70
   3  -3  11    6.50    0.80
   3  -3  11    7.10    0.80
  -3   3 -11    6.50    0.80
   3   3  11    6.80    0.80
   3   3  11    5.80    0.70
   4  -3  11   44.40    1.90
   4  -3  11   51.59    2.00
   4  -3  11   49.99    1.80
  -4   3 -11   49.99    1.80
   4   3  11   49.20    1.90
   4   3  11   46.40    1.60
   5  -3  11   27.80    1.50
   5  -3  11   26.80    1.70
   5  -3  11   27.60    1.70
   5   3  11   24.20    1.70
  -5   3 -11   25.90    1.60
   5   3  11   27.90    1.70
   5   3  11   23.80    1.20
   6  -3  11    1.50    0.90
   6  -3  11   -0.80    0.60
   6  -3  11    0.70    0.80
   6   3  11    1.00    0.80
   6   3  11    1.90    0.80
   7  -3  11    0.20    0.90
   7   3  11    1.30    1.00
   7   3  11    0.60    0.90
   7  -4 -11    0.20    0.60
   7  -4 -11    0.50    1.00
   7  -4 -11   -0.50    0.80
   7   4 -11    1.10    0.90
   6  -4 -11   -1.10    0.70
   6  -4 -11   -0.10    0.70
   6  -4 -11    0.30    0.60
   6   4 -11    0.40    0.70
  -6   4  11    0.40    0.70
   6   4 -11   -0.50    0.50
   5  -4 -11    0.20    0.70
   5  -4 -11   -0.20    0.60
   5  -4 -11    1.00    0.70
  -5   4  11    0.50    0.60
   5   4 -11    0.60    0.60
   5   4 -11   -0.30    0.50
  -4  -4  11    2.70    0.70
   4  -4 -11    4.50    0.80
   4  -4 -11    3.40    0.80
   4  -4 -11    2.80    0.70
   4   4 -11    4.20    0.80
   4   4 -11    2.60    0.60
  -4   4  11    2.00    0.70
   3  -4 -11  102.79    2.80
  -3  -4  11  106.89    2.70
   3  -4 -11  110.09    2.80
   3  -4 -11  105.39    2.70
  -3  -4  11   99.49    2.80
   3   4 -11  106.69    2.90
  -3   4  11  107.19    2.80
   3   4 -11  106.19    2.70
  -3   4  11  107.59    2.70
  -2  -4  11   11.20    0.90
  -2  -4  11   10.50    1.00
  -2  -4  11   10.00    0.90
   2  -4 -11   10.50    0.90
   2  -4 -11   10.10    0.90
   2  -4 -11   10.70    1.00
   2   4 -11    9.40    0.90
  -2   4  11   10.20    0.90
  -2   4  11   10.60    1.00
   2   4 -11   11.40    1.00
   1  -4 -11    5.70    0.70
  -1  -4  11    6.20    0.70
   1  -4 -11    5.80    0.60
   1  -4 -11    5.40    0.60
  -1  -4  11    7.20    0.80
  -1  -4  11    5.80    0.70
  -1   4  11    6.90    0.80
   1   4 -11    6.60    0.80
  -1   4  11    6.20    0.80
   1   4 -11    5.20    0.70
  -1   4  11    6.40    0.60
   0  -4  11   17.50    1.10
   0  -4 -11   18.00    0.80
   0  -4 -11   17.60    1.10
   0  -4  11   17.00    1.10
   0  -4  11   17.80    1.10
   0   4  11   16.50    1.10
   0   4 -11   16.40    1.10
   0   4  11   16.10    0.90
   0   4  11   17.00    1.10
   0   4 -11   18.30    1.10
   1  -4  11   31.50    1.40
   1  -4  11   30.80    1.30
  -1  -4 -11   29.60    1.30
   1  -4  11   33.30    1.50
  -1   4 -11   29.60    1.40
  -1   4 -11   31.30    1.40
   1   4  11   29.60    1.40
   1   4  11   31.90    1.30
   1   4  11   31.00    1.40
   2  -4  11   44.00    1.60
   2  -4  11   47.60    1.80
   2  -4  11   47.60    1.80
   2   4  11   45.20    1.80
  -2   4 -11   42.10    1.70
   2   4  11   43.30    1.70
   2   4  11   45.30    1.70
  -2   4 -11   45.30    1.70
   3  -4  11   28.50    1.50
   3  -4  11   27.50    1.50
   3  -4  11   27.70    1.40
   3   4  11   28.20    1.40
   3   4  11   27.40    1.50
  -3   4 -11   27.30    1.50
   3   4  11   27.20    1.50
   4  -4  11    1.30    0.60
   4  -4  11    2.60    0.80
   4  -4  11    1.70    0.80
   4   4  11    2.30    0.60
  -4   4 -11    2.10    0.70
   4   4  11    1.00    0.70
   4   4  11    2.00    0.80
   5  -4  11   49.80    2.30
   5  -4  11   45.60    2.00
   5  -4  11   51.09    2.30
   5   4  11   49.90    2.40
   5   4  11   44.90    2.20
   5   4  11   43.20    1.80
   6  -4  11    0.20    0.80
   6  -4  11   -0.30    0.80
   6  -4  11   -1.60    0.70
   6   4  11    0.30    0.90
   6   4  11    0.50    0.80
   7  -4  11    3.10    1.00
   6  -5 -11    2.40    1.00
   6  -5 -11    0.70    0.90
   6  -5 -11    2.30    1.00
  -6   5  11   -0.10    0.80
   6   5 -11    2.00    0.60
   6   5 -11    2.00    1.10
   5  -5 -11   25.10    1.80
   5  -5 -11   23.00    1.60
   5  -5 -11   22.30    1.70
   5   5 -11   20.30    1.70
   5   5 -11   18.60    1.30
  -5   5  11   19.80    1.60
   4  -5 -11   15.40    1.40
   4  -5 -11   17.10    1.40
  -4  -5  11   15.10    1.20
   4  -5 -11   15.70    1.40
   4   5 -11   15.30    1.40
  -4   5  11   16.30    1.40
   4   5 -11   16.10    1.20
  -3  -5  11    3.10    0.80
   3  -5 -11    2.80    0.70
   3  -5 -11    2.60    0.70
  -3  -5  11    2.40    0.70
   3  -5 -11    2.50    0.80
   3   5 -11    2.90    0.70
   3   5 -11    2.90    0.80
  -3   5  11    4.30    0.90
  -3   5  11    3.10    0.80
  -2  -5  11    2.60    0.60
   2  -5 -11    2.00    0.50
   2  -5 -11    1.50    0.60
   2  -5 -11    3.30    0.80
  -2  -5  11    3.30    0.80
  -2   5  11    3.10    0.70
   2   5 -11    3.00    0.70
   2   5 -11    1.30    0.60
  -2   5  11    2.40    0.70
   1  -5 -11   43.30    1.60
  -1  -5  11   39.20    1.70
  -1  -5  11   43.50    1.70
  -1  -5  11   43.40    1.80
   1  -5 -11   45.40    1.90
  -1   5  11   45.50    1.90
  -1   5  11   40.60    1.70
   1   5 -11   44.00    1.80
   1   5 -11   44.80    1.80
   0  -5  11   59.79    2.10
   0  -5 -11   59.59    1.70
   0  -5  11   61.69    2.10
   0  -5 -11   58.29    2.10
   0  -5  11   60.59    2.10
   0   5 -11   60.99    2.20
   0   5  11   59.69    2.10
   0   5  11   60.99    1.90
   0   5 -11   60.09    2.10
   0   5  11   61.09    2.20
   1  -5  11    0.50    0.50
   1  -5  11    0.10    0.60
  -1  -5 -11   -0.10    0.50
   1  -5  11   -0.20    0.50
  -1   5 -11   -0.50    0.50
   1   5  11    0.90    0.60
   1   5  11   -0.20    0.60
   1   5  11    0.10    0.50
  -1   5 -11    1.30    0.60
   2  -5  11   33.70    1.60
   2  -5  11   30.00    1.50
   2  -5  11   30.60    1.50
   2   5  11   32.30    1.60
   2   5  11   32.60    1.60
   2   5  11   32.60    1.70
  -2   5 -11   32.20    1.60
  -2   5 -11   34.50    1.60
   3  -5  11    3.80    0.80
   3  -5  11    5.60    1.00
   3  -5  11    3.80    0.80
   3   5  11    4.70    0.90
  -3   5 -11    3.90    0.80
   3   5  11    5.30    0.90
   3   5  11    6.10    0.80
   4  -5  11   16.40    1.40
   4  -5  11   18.70    1.60
   4  -5  11   19.20    1.50
   4   5  11   16.70    1.60
   4   5  11   19.30    1.30
   4   5  11   19.20    1.60
   5  -5  11   -1.00    0.60
   5  -5  11   -0.10    0.70
   5  -5  11    1.60    0.90
   5   5  11   -1.00    0.80
   5   5  11   -0.30    0.60
   5   5  11    0.20    0.80
   6  -5  11    4.90    1.20
   6  -5  11    5.50    1.00
   6   5  11    7.10    1.30
   6  -6 -11    0.70    1.00
   6   6 -11    0.00    0.70
  -6   6  11    0.90    1.00
   5  -6 -11    1.20    0.90
   5  -6 -11    0.20    0.80
   5  -6 -11    0.50    0.80
   5   6 -11    0.40    0.70
  -5   6  11    1.30    0.90
   5   6 -11   -0.60    0.80
   4  -6 -11    3.40    0.90
   4  -6 -11    2.60    0.80
   4  -6 -11    2.10    0.90
  -4  -6  11    1.00    0.80
   4   6 -11    2.20    0.70
   4   6 -11    1.90    0.90
  -4   6  11    0.80    0.80
   3  -6 -11    5.30    1.00
   3  -6 -11    4.50    1.00
  -3  -6  11    5.70    1.00
  -3   6  11    5.60    1.00
   3   6 -11    4.90    0.90
   3   6 -11    5.60    0.90
   2  -6 -11    0.20    0.60
  -2  -6  11    0.00    0.50
  -2  -6  11    0.80    0.70
   2  -6 -11   -1.20    0.50
  -2   6  11    0.20    0.70
   2   6 -11   -0.40    0.60
  -2   6  11    0.50    0.70
   2   6 -11   -0.10    0.60
  -1  -6  11    1.00    0.60
   1  -6 -11   -0.10    0.70
  -1  -6  11    0.00    0.60
   1  -6 -11   -0.20    0.50
  -1  -6  11    0.10    0.60
  -1   6  11    0.80    0.70
  -1   6  11    0.10    0.60
   1   6 -11    0.70    0.60
   1   6 -11    1.90    0.70
   0  -6 -11    5.70    1.00
   0  -6  11    5.70    1.00
   0  -6  11    4.90    0.90
   0  -6  11    6.50    1.00
   0   6  11    8.30    1.00
   0   6 -11    6.10    0.90
   0   6  11    6.40    1.00
   0   6 -11    7.70    1.10
   1  -6  11    6.30    1.00
   1  -6  11    3.60    0.90
   1  -6  11    6.00    1.00
  -1   6 -11    5.50    0.90
  -1   6 -11    6.60    1.00
   1   6  11    6.70    1.00
   1   6  11    5.90    0.90
   1   6  11    5.50    0.90
   2  -6  11    4.90    1.00
   2  -6  11    5.10    0.90
   2  -6  11    3.50    0.90
   2   6  11    5.00    0.90
  -2   6 -11    5.00    1.00
   2   6  11    3.70    0.80
  -2   6 -11    4.40    0.80
   2   6  11    4.40    0.90
   3  -6  11    3.60    0.90
   3  -6  11    4.10    0.90
   3  -6  11    3.50    0.90
  -3   6 -11    2.00    0.70
   3   6  11    2.80    0.90
   3   6  11    4.40    0.90
   3   6  11    2.50    0.90
   4  -6  11    2.00    0.80
   4  -6  11    0.10    0.80
   4  -6  11    1.30    0.70
   4   6  11    0.00    0.80
   4   6  11    1.40    0.70
   4   6  11    0.30    0.80
   5  -6  11    5.90    1.10
   5  -6  11    6.60    1.40
   5  -6  11    5.30    1.10
   5   6  11    3.70    1.10
   5   6  11    6.10    1.00
   5   6  11    4.30    1.10
   4  -7 -11    2.90    1.00
  -4  -7  11    3.90    1.10
   4  -7 -11    3.00    0.80
   4   7 -11    1.30    0.90
   4   7 -11    1.40    0.80
  -4   7  11    1.30    1.00
   3  -7 -11    3.10    0.90
   3  -7 -11    2.10    0.90
  -3  -7  11   -0.70    0.70
   3   7 -11    2.20    0.90
   3   7 -11    3.70    1.00
  -3   7  11    1.80    0.70
  -2  -7  11    6.20    1.10
   2  -7 -11    5.70    1.10
   2  -7 -11    4.80    0.90
   2   7 -11    4.40    1.00
  -2   7  11    2.60    0.90
  -2   7  11    4.20    1.00
   2   7 -11    4.20    1.00
   1  -7 -11   10.10    1.30
  -1  -7  11   13.10    1.40
  -1  -7  11   11.50    1.20
   1  -7 -11   10.80    1.30
   1   7 -11   12.00    1.40
  -1   7  11   10.40    1.30
   1   7 -11   12.50    1.30
  -1   7  11   10.30    1.30
   0  -7  11    0.60    0.60
   0  -7  11    0.10    0.80
   0  -7 -11    1.00    0.80
   0  -7  11    0.90    0.90
   0   7  11    1.40    0.90
   0   7 -11   -0.40    0.70
   0   7 -11    0.90    0.80
   0   7  11    0.70    0.80
   1  -7  11    2.90    1.00
   1  -7  11    2.90    0.90
   1  -7  11    2.90    0.90
   1   7  11    4.20    1.00
  -1   7 -11    4.10    0.90
  -1   7 -11    3.60    1.00
   1   7  11    3.80    1.00
   2  -7  11   15.20    1.50
   2  -7  11   17.00    1.60
   2  -7  11   15.60    1.60
   2   7  11   16.20    1.50
  -2   7 -11   16.60    1.50
   2   7  11   19.50    1.60
   2   7  11   13.80    1.50
  -2   7 -11   18.10    1.60
   3  -7  11    2.90    1.00
   3  -7  11    1.50    1.00
   3  -7  11    3.80    1.10
   3   7  11    2.40    0.80
   3   7  11    4.00    1.10
   3   7  11    3.80    1.00
   4  -7  11    1.00    0.90
   4  -7  11    0.10    0.90
   4   7  11   -0.10    0.90
   4   7  11    3.10    1.10
   4   7  11   -0.50    0.70
   3  -8 -11    3.80    1.10
   2  -8 -11    0.80    0.80
  -2  -8  11    0.40    0.80
   2  -8 -11   -0.30    0.90
   2   8 -11    1.50    1.10
  -2   8  11    2.20    1.00
   2   8 -11   -0.20    0.80
  -2   8  11   -1.90    0.80
  -1  -8  11   -0.50    0.80
   1  -8 -11   -0.90    0.80
  -1   8  11   -0.50    0.80
   1   8 -11    0.40    0.90
   1   8 -11   -0.90    0.70
   0  -8  11    0.90    1.00
   0  -8  11    2.50    1.10
   0   8  11    3.80    1.10
   0   8  11    2.10    1.00
   0   8 -11    1.30    0.90
   0   8 -11    2.00    1.10
   1  -8  11    0.40    0.90
   1  -8  11    0.70    0.80
   1  -8  11    0.80    1.00
   1   8  11    1.40    1.00
  -1   8 -11    0.50    1.00
  -1   8 -11    0.00    0.70
   1   8  11    0.70    0.90
   2  -8  11    0.00    0.80
   2  -8  11   -1.00    0.80
   2  -8  11    1.10    1.00
   2   8  11    0.80    0.90
   3  -8  11   -0.40    0.90
   3   8  11    0.50    1.20
   3   8  11    0.20    0.90
   0   9 -11    3.50    1.10
   8   0 -12    0.30    0.90
   7   0 -12    0.60    0.80
   7   0 -12    0.30    0.70
   6   0 -12    7.50    1.10
   6   0 -12    7.90    0.80
   5   0 -12   -0.20    0.40
   5   0 -12    0.10    0.50
   4   0 -12    5.30    0.60
   4   0 -12    6.40    0.60
   4   0 -12    5.10    0.70
  -3   0  12   -0.30    0.30
   3   0 -12   -0.30    0.30
   3   0 -12   -0.20    0.30
  -3   0  12   -0.10    0.20
  -3   0  12   -0.30    0.20
   3   0 -12    0.20    0.30
  -2   0  12    2.50    0.40
   2   0 -12    3.40    0.50
   2   0 -12    3.90    0.50
  -2   0  12    2.80    0.30
  -2   0  12    2.10    0.50
   1   0 -12   -0.40    0.30
  -1   0  12    0.10    0.30
  -1   0  12   -0.50    0.30
  -1   0  12   -0.30    0.20
   1   0 -12   -0.60    0.30
   0   0 -12  468.45    7.40
   0   0  12  513.85    7.10
   0   0 -12  499.85    7.50
   0   0  12  511.65    7.40
   0   0  12  501.95    7.50
  -1   0 -12   -0.20    0.30
  -1   0 -12   -0.30    0.30
   1   0  12   -0.40    0.30
   1   0  12   -0.10    0.30
   1   0  12    0.30    0.30
  -2   0 -12   70.49    1.90
   2   0  12   70.39    1.90
   2   0  12   71.69    1.80
  -2   0 -12   69.99    1.80
   2   0  12   65.59    1.80
   3   0  12    0.30    0.40
  -3   0 -12    0.40    0.40
   3   0  12    0.60    0.30
   3   0  12    0.20    0.40
   4   0  12   -0.20    0.50
   4   0  12    0.00    0.40
   4   0  12    0.10    0.40
   5   0  12   -0.80    0.50
   5   0  12    0.00    0.30
   5   0  12    0.00    0.60
   6   0  12    1.90    0.80
   7   0  12    0.60    0.80
   8   1 -12   -0.70    0.80
   7  -1 -12   -0.20    0.80
   7  -1 -12    2.40    0.90
   7   1 -12    0.30    0.70
   6  -1 -12    1.30    0.70
   6  -1 -12    2.00    0.60
   6   1 -12    1.30    0.70
   6   1 -12    2.40    0.50
   5  -1 -12    0.40    0.50
   5  -1 -12    0.00    0.40
   5   1 -12   -0.20    0.40
   5   1 -12    0.20    0.40
   5   1 -12    0.30    0.50
   4  -1 -12    5.70    0.80
   4  -1 -12    4.40    0.60
  -4   1  12    5.80    0.60
   4   1 -12    5.00    0.60
   4   1 -12    6.00    0.60
   3  -1 -12   41.10    1.10
   3  -1 -12   43.60    1.40
  -3  -1  12   43.30    1.50
   3  -1 -12   43.20    1.50
  -3  -1  12   42.50    1.30
   3   1 -12   41.90    1.40
  -3   1  12   40.30    1.20
   3   1 -12   42.10    1.40
  -3   1  12   40.60    1.30
  -2  -1  12    1.10    0.20
   2  -1 -12    0.90    0.40
   2  -1 -12    0.90    0.30
   2  -1 -12    0.60    0.30
  -2  -1  12    0.80    0.40
  -2  -1  12    0.80    0.30
  -2   1  12    0.90    0.40
  -2   1  12    1.30    0.40
   2   1 -12    1.10    0.40
  -2   1  12    1.10    0.40
   2   1 -12    1.10    0.40
  -1  -1  12   24.20    0.70
   1  -1 -12   25.50    0.90
   1  -1 -12   21.50    1.00
  -1  -1  12   25.20    1.10
   1  -1 -12   23.90    0.90
  -1  -1  12   23.90    1.10
  -1   1  12   23.70    0.90
   1   1 -12   23.60    1.00
  -1   1  12   20.70    0.90
   1   1 -12   23.30    1.00
  -1   1  12   24.70    1.00
   0  -1  12  237.38    3.80
   0  -1  12  241.78    4.20
   0  -1 -12  241.58    4.10
   0  -1  12  236.48    3.70
   0  -1  12  242.58    4.20
   0  -1 -12  245.88    3.60
   0  -1 -12  252.37    4.20
   0   1 -12  239.58    4.20
   0   1  12  235.58    3.90
   0   1  12  234.38    4.10
   0   1 -12  236.48    4.10
   0   1  12  234.08    3.90
  -1  -1 -12   16.30    0.80
   1  -1  12   14.40    0.80
  -1  -1 -12   15.90    0.40
   1  -1  12   15.90    0.60
   1  -1  12   15.50    0.80
  -1  -1 -12   16.00    0.80
   1  -1  12   16.80    0.90
  -1   1 -12   15.70    0.90
  -1   1 -12   16.40    0.90
   1   1  12   16.30    0.70
   1   1  12   15.00    0.80
   1   1  12   15.50    0.80
   2  -1  12    8.40    0.70
   2  -1  12    8.20    0.50
   2  -1  12    8.80    0.70
   2  -1  12    7.70    0.70
  -2  -1 -12    9.10    0.80
  -2  -1 -12    7.90    0.60
   2   1  12    7.70    0.60
   2   1  12    7.00    0.70
   2   1  12    8.00    0.80
  -2   1 -12    8.80    0.70
  -2   1 -12    7.00    0.70
   3  -1  12   14.40    0.90
   3  -1  12   15.50    1.00
   3  -1  12   13.10    0.90
   3   1  12   14.90    1.00
   3   1  12   12.00    0.80
   3   1  12   13.90    0.80
  -3   1 -12   13.90    1.00
   4  -1  12   49.99    1.60
   4  -1  12   53.89    1.90
   4  -1  12   51.59    1.80
   4   1  12   50.19    1.60
   4   1  12   47.90    1.60
   4   1  12   52.69    1.90
  -4   1 -12   50.79    1.90
   5  -1  12    7.90    0.80
   5  -1  12    6.30    1.00
   5  -1  12    5.60    0.80
   5   1  12    7.10    1.00
   5   1  12    6.80    0.70
   6  -1  12    4.80    1.00
   6  -1  12    5.40    0.90
   6  -1  12    3.90    0.70
   6   1  12    2.70    0.80
   7  -1  12    1.30    0.90
   7   1  12    0.30    0.80
   8   2 -12    4.60    1.20
   7  -2 -12   -0.10    0.80
   7  -2 -12   -0.50    0.70
   7   2 -12    0.60    0.80
   6  -2 -12    0.20    0.70
   6  -2 -12   -1.00    0.60
   6  -2 -12    0.80    0.50
   6   2 -12    0.40    0.40
   6   2 -12   -0.30    0.60
   5  -2 -12   10.10    1.10
   5  -2 -12    8.50    0.80
   5   2 -12   10.00    0.90
   5   2 -12   10.20    1.10
  -5   2  12    9.60    0.90
   4  -2 -12    5.60    0.70
   4  -2 -12    6.50    0.80
  -4  -2  12    5.20    0.70
  -4   2  12    5.40    0.70
   4   2 -12    5.40    0.70
   4   2 -12    5.10    0.60
   3  -2 -12   17.60    1.10
   3  -2 -12   17.80    1.00
  -3  -2  12   17.30    1.10
  -3   2  12   16.30    0.90
   3   2 -12   17.80    1.00
  -3   2  12   14.40    0.90
   3   2 -12   18.70    1.10
   2  -2 -12   25.30    1.10
  -2  -2  12   27.30    1.20
  -2  -2  12   26.50    1.10
   2  -2 -12   27.60    1.10
   2  -2 -12   28.50    0.90
   2   2 -12   26.90    1.10
  -2   2  12   26.60    1.10
   2   2 -12   26.20    1.20
  -2   2  12   28.20    1.20
  -1  -2  12  182.18    3.50
  -1  -2  12  181.28    2.70
   1  -2 -12  185.88    3.20
   1  -2 -12  185.78    3.20
  -1  -2  12  181.78    3.40
  -1  -2  12  182.48    3.50
   1  -2 -12  186.58    3.60
  -1   2  12  180.78    3.50
   1   2 -12  181.98    3.50
  -1   2  12  180.28    3.40
   1   2 -12  184.78    3.50
   0  -2  12   28.50    1.20
   0  -2 -12   28.70    1.20
   0  -2  12   28.00    1.00
   0  -2 -12   27.60    0.80
   0  -2  12   28.70    0.90
   0  -2 -12   29.20    1.10
   0  -2  12   27.90    1.20
   0   2  12   27.90    0.90
   0   2 -12   30.10    1.20
   0   2  12   28.80    1.20
   0   2  12   28.00    1.10
   0   2 -12   29.00    1.20
  -1  -2 -12    7.40    0.30
  -1  -2 -12    8.10    0.70
   1  -2  12    7.20    0.60
   1  -2  12    7.50    0.60
   1  -2  12    7.20    0.70
   1  -2  12    7.50    0.70
   1   2  12    7.40    0.70
  -1   2 -12    8.80    0.80
   1   2  12    8.10    0.70
  -1   2 -12    7.80    0.80
   1   2  12    7.00    0.50
   2  -2  12   59.59    1.50
   2  -2  12   62.99    1.90
  -2  -2 -12   63.39    1.70
   2  -2  12   61.79    1.70
   2  -2  12   63.99    1.80
   2   2  12   63.09    1.80
   2   2  12   63.29    1.40
  -2   2 -12   62.89    1.80
   2   2  12   62.79    1.90
  -2   2 -12   61.99    1.90
   3  -2  12   -0.30    0.30
   3  -2  12    0.20    0.30
   3  -2  12   -0.20    0.40
   3  -2  12   -0.10    0.40
  -3   2 -12   -0.20    0.40
   3   2  12   -0.40    0.30
   3   2  12    0.20    0.50
   4  -2  12   30.20    1.50
   4  -2  12   31.30    1.40
   4  -2  12   31.80    1.60
  -4   2 -12   30.70    1.50
   4   2  12   31.10    1.60
   4   2  12   32.30    1.30
   5  -2  12    5.50    0.90
   5  -2  12    6.40    0.80
   5  -2  12    5.80    0.90
   5   2  12    5.50    0.90
  -5   2 -12    7.00    0.90
   5   2  12    5.20    0.70
   6  -2  12    0.40    0.50
   6  -2  12    0.50    0.70
   6  -2  12    0.10    0.70
   6   2  12    0.10    0.70
   7  -2  12    0.10    0.70
   7  -2  12   -0.60    0.80
   7   2  12    1.30    0.90
   7   2  12   -0.10    0.80
   7  -3 -12    0.10    0.70
   7  -3 -12    0.70    0.90
   7  -3 -12   -0.10    0.90
   7   3 -12    1.90    0.90
   6  -3 -12   -0.50    0.50
   6  -3 -12    0.70    0.70
   6  -3 -12   -1.30    0.70
   6   3 -12   -0.40    0.40
  -6   3  12    0.20    0.60
   6   3 -12    0.30    0.80
   5  -3 -12    7.70    0.90
   5  -3 -12    7.60    1.00
   5  -3 -12   11.20    1.20
   5   3 -12    8.30    0.90
   5   3 -12    6.70    0.90
  -5   3  12   10.30    1.00
   4  -3 -12   23.40    1.40
  -4  -3  12   23.70    1.40
   4  -3 -12   26.10    1.50
   4  -3 -12   24.60    1.30
   4   3 -12   24.80    1.40
   4   3 -12   24.10    1.20
  -4   3  12   27.10    1.40
   3  -3 -12    4.50    0.70
  -3  -3  12    5.00    0.70
   3  -3 -12    4.00    0.70
  -3   3  12    3.60    0.60
   3   3 -12    4.50    0.60
  -3   3  12    3.40    0.60
   3   3 -12    3.00    0.60
   2  -3 -12   12.80    0.90
  -2  -3  12   16.60    1.00
  -2  -3  12   15.50    0.90
   2  -3 -12   15.70    1.00
  -2  -3  12   15.50    1.00
   2   3 -12   13.80    1.00
   2   3 -12   12.60    1.00
  -2   3  12   15.00    1.00
  -2   3  12   14.80    1.00
  -1  -3  12   36.80    1.40
   1  -3 -12   33.10    1.20
  -1  -3  12   33.20    1.30
  -1  -3  12   35.10    1.30
   1  -3 -12   33.70    1.40
   1   3 -12   31.10    1.30
  -1   3  12   34.90    1.40
   1   3 -12   34.70    1.40
  -1   3  12   33.80    1.30
   0  -3 -12   28.00    0.90
   0  -3  12   27.40    1.20
   0  -3  12   26.50    1.30
   0  -3 -12   26.60    1.20
   0  -3  12   26.00    1.20
   0  -3  12   27.70    0.90
   0   3  12   26.90    1.20
   0   3  12   27.80    1.20
   0   3 -12   27.40    1.30
   0   3 -12   26.20    1.20
   1  -3  12    5.60    0.60
   1  -3  12    6.10    0.60
   1  -3  12    5.80    0.70
   1  -3  12    5.90    0.70
  -1  -3 -12    5.60    0.70
   1   3  12    5.90    0.70
   1   3  12    4.20    0.70
  -1   3 -12    6.60    0.70
  -1   3 -12    5.50    0.70
   2  -3  12    4.40    0.70
   2  -3  12    4.20    0.70
  -2  -3 -12    3.60    0.60
   2  -3  12    4.50    0.60
   2  -3  12    3.90    0.50
  -2   3 -12    5.00    0.60
  -2   3 -12    4.70    0.70
   2   3  12    3.80    0.60
   2   3  12    4.50    0.60
   3  -3  12    0.90    0.50
   3  -3  12    1.10    0.50
   3  -3  12    1.00    0.40
   3  -3  12    0.70    0.50
  -3   3 -12    1.60    0.50
   3   3  12    0.10    0.50
   3   3  12    1.10    0.40
   4  -3  12   21.60    1.40
   4  -3  12   23.00    1.50
   4  -3  12   20.30    1.40
   4   3  12   22.50    1.20
   4   3  12   23.10    1.50
  -4   3 -12   24.70    1.40
   5  -3  12    2.10    0.80
   5  -3  12    0.40    0.70
   5  -3  12    0.10    0.50
   5   3  12    0.60    0.70
  -5   3 -12   -0.40    0.50
   5   3  12    0.90    0.50
   5   3  12    0.60    0.70
   6  -3  12    0.10    0.70
   6  -3  12    0.50    0.80
   6  -3  12    0.60    0.80
   6   3  12    0.30    0.70
   6   3  12   -0.10    0.80
   7  -3  12   -0.40    0.90
   7   3  12    0.50    0.80
   7  -4 -12    0.10    0.70
   7   4 -12    1.00    0.90
   6  -4 -12    0.50    0.80
   6  -4 -12   -0.40    0.60
   6  -4 -12   -0.50    0.80
  -6   4  12   -0.50    0.60
   6   4 -12    1.70    0.80
   6   4 -12   -0.30    0.50
   5  -4 -12   -0.60    0.70
   5  -4 -12    1.50    0.60
   5  -4 -12    0.10    0.70
   5   4 -12    1.80    0.60
  -5   4  12    1.80    0.70
   5   4 -12    1.20    0.70
   4  -4 -12   10.00    1.10
   4  -4 -12    9.30    1.00
  -4  -4  12    8.20    1.00
   4  -4 -12    8.40    1.00
   4   4 -12    9.40    0.90
  -4   4  12    8.30    1.00
   4   4 -12    8.80    1.10
   3  -4 -12    8.20    0.90
  -3  -4  12    9.10    1.00
  -3  -4  12    9.50    1.00
   3  -4 -12   11.20    1.10
   3  -4 -12    9.20    1.00
   3   4 -12   11.20    1.10
  -3   4  12    9.50    1.00
  -3   4  12   10.30    1.00
   3   4 -12    9.20    1.00
  -2  -4  12    2.90    0.60
   2  -4 -12    1.80    0.50
  -2  -4  12    2.30    0.60
   2  -4 -12    1.70    0.50
   2  -4 -12    1.70    0.50
  -2  -4  12    3.90    0.70
  -2   4  12    2.40    0.60
  -2   4  12    0.70    0.50
   2   4 -12    2.00    0.60
   2   4 -12    2.10    0.60
   1  -4 -12    5.20    0.60
   1  -4 -12    7.60    0.90
   1  -4 -12    7.10    0.60
  -1  -4  12    6.10    0.80
  -1  -4  12    6.70    0.80
  -1  -4  12    7.10    0.80
   1   4 -12    7.50    0.90
  -1   4  12    7.20    0.90
  -1   4  12    5.60    0.80
   1   4 -12    7.50    0.80
   0  -4  12   36.10    1.50
   0  -4  12   36.10    1.60
   0  -4 -12   35.10    1.20
   0  -4  12   36.00    1.50
   0  -4 -12   34.40    1.50
   0   4 -12   35.70    1.50
   0   4  12   39.50    1.60
   0   4 -12   35.90    1.60
   0   4  12   37.30    1.60
   1  -4  12    0.50    0.50
   1  -4  12   -0.30    0.50
   1  -4  12   -0.70    0.40
  -1  -4 -12    0.80    0.50
   1   4  12    0.00    0.40
  -1   4 -12   -0.10    0.40
   1   4  12    0.30    0.50
  -1   4 -12    0.20    0.50
   2  -4  12   19.90    1.30
   2  -4  12   17.10    1.10
   2  -4  12   19.50    1.20
   2   4  12   17.30    1.10
   2   4  12   19.50    1.30
  -2   4 -12   17.00    1.20
  -2   4 -12   19.40    1.20
   3  -4  12    1.00    0.60
   3  -4  12    1.40    0.60
   3  -4  12    2.10    0.60
   3   4  12    0.90    0.50
   3   4  12    1.30    0.70
   3   4  12    1.20    0.50
  -3   4 -12   -0.20    0.50
   4  -4  12    5.10    0.90
   4  -4  12    3.90    0.90
   4  -4  12    3.80    0.80
   4  -4  12    2.60    0.70
   4   4  12    3.90    0.90
   4   4  12    4.40    0.70
  -4   4 -12    2.80    0.80
   4   4  12    3.00    0.90
   5  -4  12    3.30    0.90
   5  -4  12    4.30    0.90
   5  -4  12    3.70    1.00
   5   4  12    3.10    0.70
   5   4  12    4.10    1.00
   5   4  12    4.70    1.10
   6  -4  12    0.80    0.70
   6  -4  12    0.00    0.80
   6  -4  12   -0.20    0.80
   6   4  12    0.60    0.90
   6   4  12    0.10    0.80
   6  -5 -12    2.80    1.10
   6  -5 -12    0.80    0.90
   6  -5 -12    3.30    1.10
  -6   5  12    0.20    0.90
   6   5 -12    2.90    0.80
   6   5 -12    0.60    0.90
   5  -5 -12    0.30    0.80
   5  -5 -12   -0.70    0.60
   5  -5 -12    1.40    0.60
  -5   5  12   -0.30    0.70
   5   5 -12    0.70    0.80
   5   5 -12    0.20    0.50
   4  -5 -12    2.20    0.80
  -4  -5  12    1.90    0.70
   4  -5 -12    2.30    0.80
   4  -5 -12    1.70    0.70
   4   5 -12    2.40    0.80
  -4   5  12    2.40    0.80
   4   5 -12    1.90    0.70
   3  -5 -12    5.20    0.80
  -3  -5  12    5.00    0.90
   3  -5 -12    6.20    1.00
  -3  -5  12    6.80    0.90
   3  -5 -12    7.10    1.00
  -3   5  12    6.40    1.00
   3   5 -12    5.50    0.90
   3   5 -12    6.40    0.90
   2  -5 -12   18.50    1.20
  -2  -5  12   17.60    1.40
   2  -5 -12   18.50    1.40
  -2  -5  12   17.50    1.20
   2   5 -12   20.40    1.40
  -2   5  12   19.80    1.20
   2   5 -12   16.60    1.30
  -2   5  12   19.40    1.40
  -1  -5  12    1.50    0.60
  -1  -5  12    3.00    0.70
   1  -5 -12    1.10    0.60
   1  -5 -12    0.80    0.60
  -1  -5  12    2.20    0.70
   1   5 -12    0.70    0.60
   1   5 -12    1.70    0.70
  -1   5  12    0.90    0.60
  -1   5  12    0.40    0.60
   0  -5  12   68.49    2.20
   0  -5  12   65.49    2.20
   0  -5  12   66.29    2.30
   0  -5 -12   67.39    2.30
   0   5  12   62.89    2.20
   0   5  12   66.89    2.30
   0   5  12   63.19    1.90
   0   5 -12   63.69    2.20
   0   5 -12   70.39    2.40
   1  -5  12   40.10    1.60
  -1  -5 -12   42.20    1.80
   1  -5  12   37.30    1.70
   1  -5  12   40.50    1.80
   1   5  12   38.20    1.60
   1   5  12   39.50    1.80
   1   5  12   36.00    1.60
  -1   5 -12   41.80    1.80
  -1   5 -12   41.30    1.80
   2  -5  12   25.60    1.50
   2  -5  12   26.20    1.60
   2  -5  12   25.90    1.60
  -2   5 -12   24.40    1.50
   2   5  12   25.10    1.50
   2   5  12   27.10    1.60
   2   5  12   25.80    1.50
  -2   5 -12   25.70    1.50
   3  -5  12    8.80    1.10
   3  -5  12    7.40    1.00
   3  -5  12    6.00    1.00
   3   5  12   10.20    1.20
  -3   5 -12    7.90    1.00
   3   5  12    7.20    1.00
   3   5  12    8.20    1.10
   4  -5  12   12.90    1.40
   4  -5  12   11.60    1.30
   4  -5  12   11.50    1.20
   4   5  12   13.70    1.50
  -4   5 -12   10.60    1.10
   4   5  12   11.20    1.30
   4   5  12   10.20    1.10
   5  -5  12   12.80    1.30
   5  -5  12   11.10    1.40
   5  -5  12   13.20    1.40
   5   5  12   15.30    1.70
   5   5  12   11.00    1.40
   5   5  12   12.20    1.20
   6   5  12    3.10    1.10
   6  -6 -12   -0.40    0.90
   6   6 -12   -0.20    0.80
   5  -6 -12    0.20    0.80
   5  -6 -12   -0.50    0.80
   5  -6 -12   -1.30    0.80
   5   6 -12    0.00    0.80
  -5   6  12   -0.60    0.80
   5   6 -12   -0.30    0.60
   4  -6 -12    3.70    1.00
   4  -6 -12    4.30    1.00
   4  -6 -12    2.50    0.90
  -4   6  12    1.70    0.90
   4   6 -12    3.40    1.00
   4   6 -12    1.80    0.90
  -3  -6  12    2.90    0.70
   3  -6 -12    5.00    1.00
   3  -6 -12    3.00    0.80
  -3  -6  12    3.30    0.90
   3   6 -12    3.00    0.90
   3   6 -12    4.40    0.90
  -3   6  12    4.10    0.80
   2  -6 -12    3.40    0.80
   2  -6 -12    4.60    1.00
  -2  -6  12    3.90    0.80
  -2  -6  12    4.00    0.90
   2   6 -12    3.80    0.90
   2   6 -12    3.00    0.80
  -2   6  12    4.00    0.90
  -2   6  12    3.10    0.90
   1  -6 -12    3.00    0.80
  -1  -6  12    2.70    0.70
  -1  -6  12    2.50    0.80
   1  -6 -12    2.80    0.70
  -1  -6  12    2.60    0.80
   1   6 -12    2.80    0.80
  -1   6  12    2.00    0.80
   1   6 -12    2.90    0.80
  -1   6  12    2.30    0.80
   0  -6 -12    3.70    0.90
   0  -6  12    3.50    0.90
   0  -6  12    4.60    0.90
   0  -6  12    3.30    0.90
   0   6  12    3.40    0.90
   0   6  12    5.30    1.00
   0   6 -12    4.00    0.90
   0   6 -12    4.00    0.90
   1  -6  12    8.50    1.10
   1  -6  12    7.30    1.00
   1  -6  12    8.40    1.20
   1   6  12    7.80    1.10
   1   6  12    8.80    1.00
  -1   6 -12    8.10    1.20
   1   6  12    6.40    1.00
  -1   6 -12    6.50    1.00
   2  -6  12   -0.30    0.60
   2  -6  12    1.20    0.70
   2  -6  12    0.60    0.70
  -2   6 -12   -0.30    0.70
   2   6  12    0.00    0.60
  -2   6 -12    2.00    0.70
   2   6  12    1.00    0.70
   2   6  12    0.40    0.70
   3  -6  12    0.70    0.80
   3  -6  12    1.40    0.80
   3  -6  12    0.90    0.70
   3   6  12    0.30    0.70
  -3   6 -12    0.40    0.60
   3   6  12   -0.10    0.70
   3   6  12   -0.80    0.70
   4  -6  12    1.30    0.70
   4  -6  12    2.40    0.90
   4  -6  12    1.20    0.80
   4   6  12   -0.20    0.60
   4   6  12    0.90    0.80
   4   6  12    1.30    0.80
   5   6  12    7.50    1.40
   5   6  12    8.40    1.40
   5   6  12    5.90    1.00
  -4  -7  12   -0.20    0.90
   4  -7 -12    1.50    0.90
   4  -7 -12   -0.50    0.90
   4   7 -12    1.40    0.80
   4   7 -12   -0.20    0.90
  -4   7  12   -0.60    0.70
  -3  -7  12   -0.30    0.80
   3  -7 -12    0.30    0.80
   3  -7 -12    0.70    0.70
   3   7 -12    0.50    1.00
   3   7 -12    0.00    0.70
  -3   7  12    1.30    0.90
   2  -7 -12   -0.50    0.80
   2  -7 -12   -0.20    0.60
  -2  -7  12    0.30    0.70
   2   7 -12   -0.20    0.70
   2   7 -12   -0.20    0.70
  -2   7  12    0.80    0.80
  -2   7  12    0.10    0.80
  -1  -7  12   33.70    2.10
   1  -7 -12   35.10    2.20
  -1  -7  12   32.50    1.80
  -1   7  12   35.10    2.10
   1   7 -12   36.10    2.20
   1   7 -12   32.00    2.00
  -1   7  12   32.90    2.10
   0  -7 -12   32.10    2.00
   0  -7  12   29.20    1.80
   0  -7  12   33.60    2.10
   0  -7  12   29.20    1.80
   0   7  12   33.00    2.10
   0   7 -12   34.20    2.10
   0   7 -12   34.30    2.00
   0   7  12   29.60    1.80
   1  -7  12    0.00    0.60
   1  -7  12   -0.50    0.70
   1  -7  12    0.60    0.90
  -1   7 -12   -0.60    0.80
  -1   7 -12   -0.10    0.60
   1   7  12    0.30    0.80
   1   7  12    0.10    0.80
   2  -7  12   -0.50    0.80
   2  -7  12    0.10    0.80
   2  -7  12    2.90    1.00
  -2   7 -12    0.00    0.70
   2   7  12    0.20    0.90
   2   7  12   -0.20    0.80
   2   7  12   -0.10    0.80
   3  -7  12    0.90    0.90
   3  -7  12    0.80    0.90
   3  -7  12    2.10    0.90
   3   7  12    0.90    0.80
   3   7  12    1.20    0.90
   3   7  12    1.40    0.90
   4  -7  12    1.60    1.00
   4  -7  12   -0.70    1.00
   4   7  12    0.60    1.00
   4   7  12    2.10    1.20
   3  -8 -12   -0.30    0.80
   2  -8 -12   -0.50    0.80
   2  -8 -12    1.30    1.00
  -2  -8  12    0.90    0.90
   2   8 -12    0.60    0.90
  -2   8  12    0.60    0.80
  -1  -8  12    0.20    0.80
   1  -8 -12    0.80    1.00
   1   8 -12   -0.30    0.90
  -1   8  12   -1.10    0.80
  -1   8  12    0.10    0.90
   1   8 -12   -0.20    0.80
   0  -8  12    0.50    1.00
   0  -8  12    0.50    1.00
   0   8 -12   -0.80    0.70
   0   8  12    0.90    0.90
   0   8 -12    0.80    1.00
   0   8  12   -1.20    0.90
   1  -8  12    5.30    1.30
   1  -8  12    4.40    1.20
   1  -8  12    6.10    1.20
   1   8  12    6.20    1.20
   1   8  12    5.30    1.20
  -1   8 -12    5.60    1.30
  -1   8 -12    5.40    1.10
   2  -8  12    2.20    1.00
   2  -8  12    1.30    1.10
   2  -8  12    1.00    1.00
   2   8  12    1.40    1.00
   3   8  12    0.10    0.90
   7   0 -13    6.70    1.20
   6   0 -13   -0.10    0.50
   6   0 -13   -0.90    0.60
   5   0 -13    0.00    0.50
   5   0 -13    0.30    0.40
   4   0 -13    0.10    0.30
   4   0 -13   -0.20    0.40
   4   0 -13    0.40    0.40
  -3   0  13   61.39    1.90
   3   0 -13   62.39    1.80
  -3   0  13   64.79    1.40
   3   0 -13   66.99    1.90
   3   0 -13   63.59    1.70
  -3   0  13   64.29    1.70
   2   0 -13    0.40    0.30
  -2   0  13    0.40    0.30
   2   0 -13   -0.10    0.30
  -2   0  13    0.20    0.30
   2   0 -13   -0.20    0.30
  -2   0  13    0.20    0.20
  -1   0  13  973.10   13.00
   1   0 -13  976.90   13.70
  -1   0  13  976.00   13.60
  -1   0  13  961.60   13.70
   1   0 -13  993.10   13.60
   1   0  13   54.69    1.50
   1   0  13   54.39    1.60
  -1   0 -13   54.89    1.60
  -1   0 -13   54.39    1.60
   1   0  13   52.09    1.50
   2   0  13   -0.20    0.30
   2   0  13    0.00    0.30
  -2   0 -13    0.10    0.40
   2   0  13   -0.30    0.30
  -2   0 -13   -0.30    0.30
  -3   0 -13   26.40    1.30
   3   0  13   25.00    1.30
   3   0  13   26.40    1.20
   3   0  13   24.80    1.20
   4   0  13    0.40    0.50
   4   0  13   -0.50    0.40
   4   0  13   -0.20    0.50
   5   0  13    1.10    0.50
   5   0  13    1.10    0.60
   5   0  13    1.10    0.60
   6   0  13    0.30    0.70
   7   0  13    0.70    0.80
   7  -1 -13    2.80    1.00
   7  -1 -13    1.30    0.90
   7   1 -13   -1.00    0.70
   6  -1 -13    0.40    0.70
   6  -1 -13    0.40    0.40
   6   1 -13   -0.20    0.50
   6   1 -13    0.80    0.70
   5  -1 -13    1.00    0.50
   5  -1 -13    1.90    0.70
   5   1 -13    0.90    0.40
   5   1 -13    1.70    0.70
   5   1 -13    0.60    0.50
   4  -1 -13   -0.30    0.40
   4  -1 -13   -0.20    0.40
  -4   1  13   -0.40    0.30
   4   1 -13    0.00    0.30
   4   1 -13    0.70    0.40
  -3  -1  13    8.90    0.90
   3  -1 -13    8.80    0.80
   3  -1 -13    8.10    0.80
  -3  -1  13    8.60    0.80
   3  -1 -13    6.70    0.60
  -3   1  13    7.90    0.70
   3   1 -13    7.70    0.70
  -3   1  13    7.80    0.60
   3   1 -13    8.30    0.70
  -2  -1  13   25.70    1.10
   2  -1 -13   24.00    1.00
   2  -1 -13   25.00    0.90
  -2  -1  13   24.70    1.10
  -2  -1  13   24.60    0.60
   2  -1 -13   22.60    1.10
  -2   1  13   23.60    0.90
   2   1 -13   24.60    1.10
   2   1 -13   24.10    1.00
  -2   1  13   24.30    1.10
  -2   1  13   25.20    1.10
   1  -1 -13   12.30    0.70
  -1  -1  13   12.20    0.90
  -1  -1  13   11.50    0.50
   1  -1 -13   11.50    0.70
   1  -1 -13   10.40    0.80
  -1  -1  13   12.30    0.80
  -1   1  13   13.70    0.90
   1   1 -13   12.10    0.80
   1   1 -13   11.70    0.80
  -1   1  13   12.90    0.80
  -1   1  13   10.50    0.70
   0  -1  13   16.60    0.70
   0  -1  13   18.60    0.80
   0  -1 -13   16.60    0.60
   0  -1  13   18.10    0.90
   0  -1 -13   16.10    0.90
   0  -1 -13   16.90    0.90
   0  -1  13   16.20    0.90
   0   1  13   16.30    0.80
   0   1  13   16.90    0.90
   0   1 -13   17.20    0.90
   0   1 -13   16.30    0.90
   0   1  13   17.90    0.90
   1  -1  13    5.00    0.40
   1  -1  13    4.60    0.60
  -1  -1 -13    5.50    0.60
  -1  -1 -13    4.90    0.20
   1  -1  13    4.90    0.60
  -1  -1 -13    6.10    0.60
   1  -1  13    5.00    0.50
   1   1  13    5.00    0.50
   1   1  13    5.30    0.60
  -1   1 -13    4.90    0.60
   1   1  13    5.30    0.60
  -1   1 -13    5.00    0.60
  -2  -1 -13   14.90    1.10
   2  -1  13   13.00    0.90
   2  -1  13   14.60    0.90
   2  -1  13   13.30    0.90
   2  -1  13   13.30    0.60
  -2  -1 -13   15.10    0.90
   2   1  13   14.10    0.90
   2   1  13   13.00    0.90
   2   1  13   15.20    0.80
  -2   1 -13   15.30    0.90
  -2   1 -13   14.40    1.00
   3  -1  13  112.39    2.60
   3  -1  13  110.69    2.70
   3  -1  13  108.89    2.70
  -3   1 -13  111.59    2.80
   3   1  13  112.29    2.80
   3   1  13  112.69    2.40
   3   1  13  111.49    2.60
   4  -1  13    1.10    0.60
   4  -1  13    1.70    0.60
   4  -1  13    2.00    0.50
  -4   1 -13    1.60    0.60
   4   1  13    0.60    0.60
   4   1  13    1.50    0.50
   5  -1  13   29.40    1.70
   5  -1  13   34.40    1.50
   5  -1  13   37.20    1.80
   5   1  13   36.50    1.80
   5   1  13   32.50    1.40
   6  -1  13    2.90    0.80
   6  -1  13    2.10    0.60
   6  -1  13    1.90    0.90
   6   1  13    1.90    0.80
   7  -1  13    0.10    0.60
   7   1  13    0.40    0.90
   7  -2 -13    0.30    0.60
   7  -2 -13    0.20    0.80
   7  -2 -13   -0.10    0.70
   7   2 -13    0.20    0.80
   6  -2 -13    2.30    0.90
   6  -2 -13    3.40    0.80
   6  -2 -13    4.00    1.00
   6   2 -13    3.50    0.70
   6   2 -13    3.60    0.90
   5  -2 -13   14.40    1.00
   5  -2 -13   12.10    1.20
   5   2 -13   14.40    1.00
   5   2 -13   12.70    1.10
  -5   2  13   13.20    1.00
  -4  -2  13   10.60    1.00
   4  -2 -13    9.70    1.00
   4  -2 -13    9.00    0.90
  -4   2  13   10.90    0.90
   4   2 -13   10.90    0.90
   4   2 -13   10.00    0.90
   3  -2 -13   39.40    1.50
  -3  -2  13   41.80    1.60
   3  -2 -13   42.10    1.60
  -3   2  13   40.60    1.50
   3   2 -13   40.60    1.50
   3   2 -13   39.70    1.50
  -3   2  13   40.10    1.50
  -2  -2  13    1.40    0.40
   2  -2 -13    0.90    0.40
   2  -2 -13    1.20    0.30
   2  -2 -13    1.50    0.50
  -2  -2  13    1.60    0.50
  -2   2  13    1.70    0.40
   2   2 -13    1.30    0.50
  -2   2  13    0.70    0.40
   2   2 -13    0.80    0.40
   1  -2 -13  309.57    4.90
  -1  -2  13  310.17    5.10
   1  -2 -13  309.87    5.30
  -1  -2  13  303.27    5.30
  -1  -2  13  312.77    4.40
  -1  -2  13  309.47    5.20
   1  -2 -13  317.97    4.90
  -1   2  13  311.07    5.00
  -1   2  13  322.07    5.30
   1   2 -13  305.97    5.30
   1   2 -13  296.47    5.20
  -1   2  13  307.97    5.10
   0  -2  13  172.68    2.90
   0  -2 -13  170.88    3.20
   0  -2  13  176.38    3.50
   0  -2  13  171.28    3.20
   0  -2 -13  173.68    3.40
   0  -2  13  178.98    3.50
   0  -2 -13  172.08    2.80
   0   2 -13  173.58    3.50
   0   2  13  173.28    3.40
   0   2 -13  171.08    3.50
   0   2  13  177.38    3.40
   0   2  13  175.68    3.10
   1  -2  13   23.80    1.10
   1  -2  13   25.10    1.20
   1  -2  13   22.80    1.00
   1  -2  13   24.80    0.90
  -1  -2 -13   24.70    1.10
   1   2  13   22.30    1.10
   1   2  13   25.20    0.90
  -1   2 -13   26.30    1.20
  -1   2 -13   24.10    1.10
   1   2  13   24.00    1.10
   2  -2  13   61.99    1.50
   2  -2  13   60.59    1.90
  -2  -2 -13   59.19    1.70
   2  -2  13   59.69    1.80
   2  -2  13   61.49    1.80
  -2   2 -13   61.49    1.80
   2   2  13   63.69    1.80
  -2   2 -13   63.99    2.00
   2   2  13   59.89    1.40
   2   2  13   60.59    1.90
   3  -2  13    0.10    0.50
   3  -2  13    0.30    0.40
   3  -2  13    1.30    0.50
  -3   2 -13   -0.40    0.40
   3   2  13   -0.30    0.40
   3   2  13   -0.30    0.40
   4  -2  13    9.80    1.10
   4  -2  13    9.10    1.00
   4  -2  13    9.20    0.90
  -4   2 -13    8.40    1.00
   4   2  13    9.50    1.10
   4   2  13    8.80    0.80
   5  -2  13   12.50    1.10
   5  -2  13   11.60    1.20
   5  -2  13    9.20    1.10
   5   2  13   10.10    1.20
  -5   2 -13   10.00    1.10
   5   2  13   11.00    0.90
   6  -2  13    1.10    0.80
   6  -2  13    1.60    0.60
   6  -2  13    1.60    0.80
   6   2  13    0.20    0.70
   7  -2  13    0.70    0.90
   7   2  13   -0.40    0.80
   7   2  13   -0.50    0.80
   7  -3 -13    0.60    0.90
   7  -3 -13   -1.00    0.60
   7  -3 -13    1.10    0.90
   7   3 -13    0.10    0.80
   6  -3 -13    1.70    0.70
   6  -3 -13    1.20    0.80
   6  -3 -13    0.20    0.80
   6   3 -13    1.60    0.60
   6   3 -13    1.60    0.90
   5  -3 -13    6.90    1.00
   5  -3 -13    5.00    1.00
   5  -3 -13    5.90    0.90
  -5   3  13    5.80    0.80
   5   3 -13    6.80    1.00
   5   3 -13    6.70    0.80
   4  -3 -13   10.70    1.10
  -4  -3  13   11.50    1.10
   4  -3 -13    9.30    1.00
   4   3 -13   11.40    1.00
  -4   3  13    9.20    0.90
   4   3 -13   10.60    1.10
   3  -3 -13  132.69    3.10
  -3  -3  13  137.49    3.20
   3  -3 -13  132.79    3.20
  -3   3  13  134.79    3.10
   3   3 -13  129.59    3.00
  -3   3  13  131.59    3.00
   3   3 -13  130.69    3.20
   2  -3 -13   10.40    0.90
  -2  -3  13    9.50    0.90
  -2  -3  13   11.60    0.90
   2  -3 -13   10.50    0.80
  -2  -3  13   10.20    0.90
  -2   3  13   10.60    0.90
  -2   3  13   11.00    0.90
   2   3 -13    9.40    0.90
   2   3 -13   10.10    0.90
  -1  -3  13    0.50    0.40
  -1  -3  13    1.50    0.50
   1  -3 -13    0.40    0.40
   1  -3 -13    0.40    0.40
  -1  -3  13    1.00    0.50
   1   3 -13    0.80    0.50
   1   3 -13    1.40    0.50
  -1   3  13    0.60    0.50
  -1   3  13    0.50    0.40
   0  -3 -13   30.10    1.00
   0  -3  13   31.60    1.40
   0  -3 -13   30.10    1.30
   0  -3  13   30.90    1.00
   0  -3  13   32.80    1.40
   0  -3  13   32.00    1.30
   0   3  13   31.90    1.30
   0   3 -13   29.30    1.30
   0   3 -13   32.80    1.40
   0   3  13   30.60    1.30
   1  -3  13    9.50    0.90
   1  -3  13    9.10    0.70
   1  -3  13    8.70    0.80
  -1  -3 -13    9.40    0.80
   1  -3  13    9.30    0.80
   1   3  13   10.20    0.90
  -1   3 -13   10.50    0.90
  -1   3 -13   10.70    0.90
   1   3  13    9.60    0.80
   2  -3  13    2.10    0.60
   2  -3  13    1.90    0.50
   2  -3  13    1.50    0.60
   2  -3  13    0.60    0.40
   2   3  13    0.50    0.40
   2   3  13    1.70    0.50
  -2   3 -13    2.00    0.60
  -2   3 -13    1.20    0.50
   3  -3  13   -0.10    0.50
   3  -3  13   -0.40    0.50
   3  -3  13    0.00    0.50
   3  -3  13   -0.70    0.40
   3   3  13   -0.20    0.40
   3   3  13    0.30    0.50
  -3   3 -13    0.70    0.50
   4  -3  13   37.40    1.80
   4  -3  13   36.00    1.80
   4  -3  13   36.10    1.80
  -4   3 -13   36.10    1.70
   4   3  13   34.60    1.80
   4   3  13   33.40    1.50
   5  -3  13    2.80    0.90
   5  -3  13    6.00    1.00
   5  -3  13    4.90    0.80
  -5   3 -13    4.60    0.90
   5   3  13    4.50    0.70
   5   3  13    5.30    1.00
   6  -3  13    0.40    0.70
   6  -3  13    0.50    0.80
   6  -3  13    0.00    0.70
   6   3  13    0.10    0.80
   6   3  13    0.30    0.80
   7  -4 -13   -0.60    0.70
   7   4 -13    0.80    1.10
   6  -4 -13    0.50    0.80
   6  -4 -13    1.50    0.80
   6  -4 -13    0.00    0.80
   6   4 -13    1.60    0.80
   6   4 -13    2.00    0.70
  -6   4  13    1.90    0.80
   5  -4 -13   30.50    1.70
   5  -4 -13   35.30    2.00
   5  -4 -13   30.50    1.90
   5   4 -13   31.50    1.50
  -5   4  13   31.70    1.80
   5   4 -13   32.80    1.90
   4  -4 -13    1.20    0.70
   4  -4 -13    2.10    0.70
   4  -4 -13   -0.20    0.60
  -4  -4  13    0.80    0.60
   4   4 -13    1.00    0.60
   4   4 -13    0.70    0.60
  -4   4  13    1.10    0.70
   3  -4 -13    9.40    1.00
  -3  -4  13    8.20    1.00
   3  -4 -13    7.90    1.00
   3  -4 -13    9.90    1.00
  -3   4  13    6.00    0.90
  -3   4  13    7.80    0.90
   3   4 -13    9.40    1.00
   3   4 -13    7.50    1.00
  -2  -4  13   48.80    1.80
   2  -4 -13   52.89    2.00
  -2  -4  13   50.69    1.90
  -2  -4  13   53.29    1.80
   2  -4 -13   50.19    1.70
   2  -4 -13   50.89    1.80
   2   4 -13   49.10    1.80
  -2   4  13   53.29    1.90
   2   4 -13   50.69    1.90
  -2   4  13   52.89    1.90
  -1  -4  13   34.40    1.50
   1  -4 -13   35.20    1.60
   1  -4 -13   33.90    1.30
  -1  -4  13   35.10    1.50
  -1  -4  13   39.30    1.60
   1   4 -13   36.20    1.60
   1   4 -13   35.10    1.60
  -1   4  13   37.20    1.60
  -1   4  13   36.10    1.60
   0  -4  13    3.30    0.70
   0  -4  13    2.00    0.60
   0  -4  13    2.90    0.60
   0  -4 -13    3.10    0.60
   0   4  13    1.60    0.60
   0   4  13    2.10    0.60
   0   4 -13    2.90    0.70
   0   4 -13    4.10    0.70
   1  -4  13   11.10    1.00
   1  -4  13   10.40    0.90
   1  -4  13   11.50    0.80
  -1  -4 -13   12.00    1.10
   1  -4  13    9.50    1.00
   1   4  13    9.80    0.90
  -1   4 -13    8.60    0.90
  -1   4 -13   10.70    1.00
   1   4  13   10.70    1.00
   2  -4  13    1.90    0.60
   2  -4  13    0.60    0.60
   2  -4  13    1.10    0.60
   2  -4  13    1.30    0.50
   2   4  13    0.50    0.60
  -2   4 -13    1.20    0.60
  -2   4 -13    0.60    0.60
   2   4  13    0.50    0.50
   3  -4  13   16.50    1.40
   3  -4  13   17.70    1.30
   3  -4  13   15.40    1.10
   3  -4  13   16.00    1.20
   3   4  13   14.40    1.10
  -3   4 -13   15.90    1.20
   3   4  13   18.30    1.40
   4  -4  13   59.19    2.30
   4  -4  13   65.39    2.40
   4  -4  13   62.39    2.50
  -4   4 -13   61.19    2.30
   4   4  13   63.19    2.50
   4   4  13   63.49    2.20
   4   4  13   66.79    2.60
   5  -4  13    3.00    0.90
   5  -4  13    5.10    0.90
   5  -4  13    5.00    1.10
   5   4  13    3.40    0.70
   5   4  13    6.00    1.20
   5   4  13    4.10    1.00
   6  -4  13   -0.20    0.80
   6  -4  13    0.80    0.80
   6  -4  13   -0.20    0.60
   6   4  13    0.00    0.90
   6   4  13   -0.60    0.80
   6  -5 -13    3.40    1.10
   6  -5 -13    3.20    1.00
   6  -5 -13    2.00    1.00
  -6   5  13    2.70    1.00
   6   5 -13    2.20    0.90
   6   5 -13    2.00    0.90
   5  -5 -13    0.40    0.70
   5  -5 -13    0.40    0.80
   5  -5 -13    0.40    0.70
  -5   5  13    0.00    0.70
   5   5 -13   -0.70    0.70
   5   5 -13    1.20    0.70
   4  -5 -13    7.20    1.00
   4  -5 -13    7.20    1.10
  -4  -5  13    6.80    0.90
   4  -5 -13    5.80    1.00
   4   5 -13    6.10    1.00
  -4   5  13    5.30    1.00
   4   5 -13    8.60    1.20
   3  -5 -13    8.90    1.00
   3  -5 -13    4.80    0.90
   3  -5 -13    5.30    0.80
  -3  -5  13    5.10    0.80
  -3  -5  13    4.70    0.90
  -3   5  13    6.10    1.00
   3   5 -13    5.60    0.90
   3   5 -13    7.50    1.00
   2  -5 -13    6.10    0.90
   2  -5 -13    4.60    0.80
  -2  -5  13    3.60    0.70
  -2  -5  13    5.40    0.90
   2   5 -13    6.30    0.90
  -2   5  13    3.90    0.70
  -2   5  13    4.40    0.90
   2   5 -13    5.90    0.90
  -1  -5  13   68.89    2.30
  -1  -5  13   68.99    2.30
  -1  -5  13   67.59    2.30
   1  -5 -13   73.39    2.50
   1  -5 -13   63.89    2.00
  -1   5  13   72.79    2.50
   1   5 -13   71.99    2.40
   1   5 -13   71.89    2.40
  -1   5  13   63.69    2.20
   0  -5  13    1.20    0.60
   0  -5  13    0.30    0.60
   0  -5 -13    0.30    0.60
   0  -5  13    0.20    0.60
   0   5 -13    0.40    0.60
   0   5  13    0.30    0.60
   0   5 -13    0.00    0.60
   0   5  13    0.10    0.50
   0   5  13    0.50    0.60
   1  -5  13   17.20    1.40
   1  -5  13   16.40    1.20
  -1  -5 -13   18.60    1.30
   1  -5  13   17.30    1.30
   1   5  13   18.00    1.40
  -1   5 -13   17.30    1.30
   1   5  13   17.90    1.20
   1   5  13   16.70    1.40
  -1   5 -13   16.30    1.40
   2  -5  13   36.90    1.70
   2  -5  13   34.50    1.80
   2  -5  13   32.90    1.80
   2   5  13   34.50    1.80
  -2   5 -13   34.40    1.80
   2   5  13   34.60    1.70
  -2   5 -13   35.60    1.80
   2   5  13   32.90    1.70
   3  -5  13    3.00    0.90
   3  -5  13    2.10    0.70
   3  -5  13    3.50    0.90
  -3   5 -13    2.60    0.70
   3   5  13    3.70    0.90
   3   5  13    3.50    0.90
   3   5  13    2.70    0.70
   4  -5  13    1.20    0.90
   4  -5  13    1.30    0.80
   4  -5  13    0.50    0.70
   4   5  13    0.40    0.90
   4   5  13    0.10    0.80
   4   5  13    1.00    0.60
  -4   5 -13    0.30    0.60
   5  -5  13    1.90    0.90
   5  -5  13    0.90    0.70
   5  -5  13    3.00    1.10
   5   5  13    0.30    0.60
   5   5  13    2.50    1.00
   5   5  13    1.10    1.00
   5  -6 -13    3.50    1.00
   5  -6 -13    4.40    1.10
   5  -6 -13    4.60    1.30
   5   6 -13    5.00    1.00
   5   6 -13    2.90    1.10
  -5   6  13    4.80    1.00
   4  -6 -13    2.80    0.90
   4  -6 -13    2.00    0.90
  -4   6  13    3.80    1.00
   4   6 -13    3.60    1.00
   4   6 -13    2.50    0.90
  -3  -6  13    0.60    0.80
  -3  -6  13   -0.10    0.60
   3  -6 -13    0.00    0.70
   3  -6 -13    1.30    0.70
   3   6 -13   -0.10    0.70
  -3   6  13    0.80    0.60
   3   6 -13    0.30    0.60
   2  -6 -13    0.70    0.60
  -2  -6  13    0.70    0.70
  -2  -6  13    1.00    0.60
   2  -6 -13    0.70    0.80
  -2   6  13    1.60    0.80
   2   6 -13    2.70    0.80
  -2   6  13    2.50    0.80
   2   6 -13    0.10    0.70
  -1  -6  13    1.90    0.80
  -1  -6  13    2.40    0.70
   1  -6 -13    3.30    0.70
  -1  -6  13    3.40    0.80
   1  -6 -13    2.90    0.90
  -1   6  13    3.50    0.90
   1   6 -13    4.90    1.00
   1   6 -13    2.00    0.80
  -1   6  13    2.50    0.70
   0  -6  13   17.80    1.30
   0  -6  13   17.10    1.50
   0  -6  13   17.40    1.50
   0  -6 -13   18.00    1.50
   0   6  13   16.60    1.50
   0   6 -13   17.70    1.40
   0   6  13   17.60    1.50
   0   6 -13   19.40    1.60
   1  -6  13   -0.40    0.60
   1  -6  13    1.20    0.70
   1  -6  13    0.30    0.70
  -1   6 -13    0.20    0.70
   1   6  13    0.10    0.60
   1   6  13    1.10    0.80
  -1   6 -13   -0.20    0.60
   1   6  13    0.70    0.70
   2  -6  13    0.80    0.80
   2  -6  13    0.70    0.80
   2  -6  13   -0.30    0.60
  -2   6 -13    1.00    0.80
   2   6  13    0.40    0.70
  -2   6 -13   -0.70    0.50
   2   6  13   -0.60    0.70
   2   6  13   -0.30    0.70
   3  -6  13    0.00    0.70
   3  -6  13    0.30    0.80
   3  -6  13    0.00    0.60
   3   6  13    0.10    0.80
   3   6  13   -0.80    0.60
  -3   6 -13    0.40    0.60
   3   6  13    0.00    0.80
   4  -6  13    2.30    0.90
   4  -6  13    1.40    0.90
   4  -6  13    0.00    0.80
   4   6  13    1.30    0.90
   4   6  13    2.70    1.00
   4   6  13    0.70    0.80
   5  -6  13    2.50    1.00
   5   6  13    1.40    0.80
   5   6  13    1.90    1.10
   4  -7 -13    6.00    1.30
  -4  -7  13    6.00    1.30
   4   7 -13    3.10    1.00
   4   7 -13    5.60    1.10
  -4   7  13    4.30    1.10
   3  -7 -13    2.40    0.90
   3  -7 -13    1.50    0.90
  -3  -7  13    0.70    0.90
   3   7 -13    2.80    1.00
  -3   7  13    2.80    1.10
   3   7 -13    4.30    1.10
  -2  -7  13    0.30    0.80
   2  -7 -13   -0.60    0.80
   2  -7 -13    1.80    0.90
  -2   7  13   -0.40    0.70
   2   7 -13    0.80    0.80
   2   7 -13   -1.00    0.60
  -2   7  13    0.40    0.90
  -1  -7  13    1.10    0.90
  -1  -7  13    2.80    1.00
   1  -7 -13    3.60    1.10
   1   7 -13    2.40    0.90
   1   7 -13    2.40    1.00
  -1   7  13    1.70    1.00
  -1   7  13    4.20    1.10
   0  -7  13   25.70    1.90
   0  -7  13   27.00    2.00
   0  -7  13   33.00    2.20
   0  -7 -13   30.30    2.00
   0   7  13   33.50    2.10
   0   7 -13   28.50    2.10
   0   7  13   27.90    2.00
   0   7 -13   26.80    1.90
   1  -7  13   -1.20    0.60
   1  -7  13    1.90    0.80
   1  -7  13    0.90    0.80
  -1   7 -13    1.10    0.90
   1   7  13    1.00    0.80
  -1   7 -13    1.20    0.80
   1   7  13   -0.50    0.80
   2  -7  13    2.30    1.00
   2  -7  13    3.20    1.00
   2  -7  13    3.10    0.90
   2   7  13    1.90    0.90
  -2   7 -13    3.10    0.90
   2   7  13    2.90    0.90
   2   7  13    1.80    1.00
   3  -7  13    4.70    1.20
   3  -7  13    3.60    1.00
   3  -7  13    2.90    1.00
   3   7  13    5.20    1.10
   3   7  13    6.00    1.20
   3   7  13    4.00    1.00
   4  -7  13    1.00    1.00
   4   7  13    1.90    1.10
   4   7  13    0.60    1.00
   3  -8 -13   -0.90    0.90
   2  -8 -13    1.60    1.10
   2   8 -13    2.60    1.00
   1  -8 -13    0.90    1.00
  -1  -8  13    1.50    1.00
   1   8 -13    1.40    1.10
   1   8 -13    1.30    1.00
  -1   8  13    1.40    1.00
  -1   8  13    0.70    1.00
   0  -8  13    4.60    1.00
   0  -8  13    5.30    1.30
   0  -8  13    4.00    1.00
   0   8 -13    3.20    1.00
   0   8  13    4.00    1.20
   0   8  13    5.50    1.20
   0   8 -13    3.90    1.10
   1  -8  13    0.00    0.90
   1  -8  13   -0.10    1.00
   1  -8  13   -0.80    0.90
  -1   8 -13    0.50    0.80
  -1   8 -13    0.90    1.00
   1   8  13    0.60    1.00
   2  -8  13   -0.10    0.90
   3   8  13   -0.30    0.90
   7   0 -14   -0.40    0.70
   6   0 -14    0.20    0.60
   6   0 -14    0.10    0.50
   5   0 -14   -0.20    0.40
   5   0 -14    1.60    0.60
   4   0 -14   17.40    1.20
   4   0 -14   18.00    1.10
   4   0 -14   16.80    0.90
  -3   0  14    0.10    0.50
  -3   0  14   -0.40    0.30
   3   0 -14   -0.30    0.30
   3   0 -14   -0.10    0.40
   3   0 -14   -0.10    0.40
   2   0 -14    8.20    0.80
   2   0 -14    7.90    0.70
   2   0 -14    8.80    0.70
  -2   0  14    7.60    0.50
  -2   0  14    7.70    0.80
  -2   0  14    7.20    0.70
  -1   0  14   -0.30    0.20
  -1   0  14    0.70    0.40
   1   0 -14    1.00    0.40
  -1   0  14    0.60    0.40
   0   0  14   89.19    2.20
   0   0  14   89.59    2.10
   0   0 -14   87.19    2.20
   0   0  14   89.49    2.00
   0   0 -14   93.09    2.20
   1   0  14    0.30    0.30
  -1   0 -14   -0.50    0.30
   1   0  14   -0.60    0.30
   1   0  14   -0.10    0.30
  -1   0 -14    0.30    0.40
  -2   0 -14   78.59    2.20
  -2   0 -14   74.19    2.00
   2   0  14   77.69    2.00
   2   0  14   73.89    2.00
   2   0  14   77.49    2.10
   3   0  14   -1.00    0.50
   3   0  14   -0.60    0.50
   3   0  14    0.00    0.40
  -3   0 -14   -0.90    0.50
   4   0  14   44.80    1.70
   4   0  14   44.80    1.60
   4   0  14   46.10    1.90
   5   0  14   -0.60    0.60
   5   0  14    0.20    0.60
   5   0  14   -0.60    0.30
   6   0  14    0.90    0.70
   6   0  14    0.60    0.50
   7  -1 -14    2.00    0.80
   7  -1 -14    3.30    1.00
   7   1 -14    2.50    1.00
   6  -1 -14   15.30    1.40
   6  -1 -14   12.50    1.00
   6   1 -14   16.50    1.50
   6   1 -14   13.10    1.00
   5  -1 -14    1.20    0.50
   5  -1 -14    1.30    0.70
   5   1 -14    2.60    0.60
   5   1 -14    2.40    0.70
   4  -1 -14    0.50    0.40
   4  -1 -14   -0.40    0.40
   4   1 -14   -0.10    0.40
   4   1 -14    0.10    0.40
   3  -1 -14   15.00    1.00
   3  -1 -14   17.50    0.80
  -3  -1  14   17.90    1.10
   3  -1 -14   17.10    1.00
   3   1 -14   16.40    1.00
  -3   1  14   17.50    0.80
   3   1 -14   16.60    1.00
  -3   1  14   17.40    1.00
   2  -1 -14    2.00    0.50
  -2  -1  14    1.20    0.40
  -2  -1  14    1.60    0.50
   2  -1 -14    2.20    0.40
   2  -1 -14    1.90    0.40
  -2   1  14    1.50    0.40
  -2   1  14    0.90    0.40
  -2   1  14    2.30    0.50
   2   1 -14    1.60    0.40
   2   1 -14    1.90    0.40
   1  -1 -14   11.40    0.70
   1  -1 -14    9.90    0.70
  -1  -1  14   12.10    0.90
  -1  -1  14   11.60    0.60
  -1  -1  14   12.60    0.90
   1  -1 -14   12.40    0.90
   1   1 -14   12.20    0.90
   1   1 -14   11.00    0.80
  -1   1  14   11.20    0.70
  -1   1  14   10.60    0.90
  -1   1  14   11.20    0.80
   0  -1  14    5.70    0.70
   0  -1 -14    5.30    0.60
   0  -1  14    6.30    0.60
   0  -1 -14    6.70    0.70
   0  -1  14    5.90    0.50
   0  -1 -14    6.40    0.40
   0   1  14    5.80    0.70
   0   1  14    6.70    0.60
   0   1 -14    6.20    0.60
   0   1  14    6.60    0.60
   0   1 -14    5.90    0.70
  -1  -1 -14    1.40    0.40
   1  -1  14    1.40    0.30
   1  -1  14    1.40    0.50
   1  -1  14    0.80    0.40
  -1  -1 -14    1.50    0.40
   1  -1  14    1.30    0.40
   1   1  14    1.60    0.40
  -1   1 -14    0.70    0.40
  -1   1 -14    1.40    0.40
   1   1  14    1.30    0.40
   1   1  14    1.30    0.50
  -2  -1 -14   18.30    1.00
  -2  -1 -14   19.60    1.10
   2  -1  14   19.70    1.00
   2  -1  14   17.70    1.00
   2  -1  14   18.00    1.00
  -2   1 -14   18.10    1.10
   2   1  14   18.40    0.90
   2   1  14   18.30    1.00
   2   1  14   18.20    1.10
  -2   1 -14   18.60    1.00
   3  -1  14   89.39    2.40
   3  -1  14   90.69    2.40
   3  -1  14   92.89    2.50
   3   1  14   91.69    2.60
   3   1  14   91.09    2.40
   3   1  14   91.29    2.20
  -3   1 -14   90.19    2.60
   4  -1  14    2.00    0.60
   4  -1  14    2.90    0.70
   4  -1  14    4.50    0.80
   4   1  14    2.20    0.50
  -4   1 -14    3.50    0.70
   4   1  14    3.20    0.80
   5  -1  14   11.30    1.00
   5  -1  14   13.70    1.20
   5  -1  14   12.20    1.20
   5   1  14   10.80    0.90
   5   1  14   12.50    1.30
   6  -1  14   -0.30    0.60
   6  -1  14    0.50    0.40
   6  -1  14    0.00    0.70
   6   1  14    0.30    0.70
   7  -2 -14    0.20    0.90
   7  -2 -14   -0.50    0.70
   7  -2 -14    0.90    0.90
   7   2 -14    0.20    0.80
   6  -2 -14    2.30    0.60
   6  -2 -14    3.00    1.00
   6  -2 -14    2.30    0.90
   6   2 -14    3.40    0.90
   6   2 -14    2.30    0.60
   5  -2 -14    3.80    0.80
   5  -2 -14    4.90    0.90
   5   2 -14    5.00    0.90
   5   2 -14    4.10    0.70
  -4  -2  14   25.20    1.50
   4  -2 -14   23.50    1.40
   4  -2 -14   26.50    1.40
   4   2 -14   24.50    1.30
  -4   2  14   26.60    1.20
   4   2 -14   25.70    1.40
   3  -2 -14    0.40    0.40
  -3  -2  14    0.40    0.50
   3  -2 -14    0.30    0.40
   3   2 -14    0.00    0.50
  -3   2  14    0.10    0.40
   3   2 -14    0.70    0.50
  -3   2  14   -0.10    0.50
   2  -2 -14  118.19    2.60
   2  -2 -14  116.69    2.30
  -2  -2  14  111.39    2.70
  -2  -2  14  114.49    2.60
   2  -2 -14  115.49    2.80
   2   2 -14  116.49    2.70
  -2   2  14  117.99    2.60
   2   2 -14  118.99    2.70
  -2   2  14  117.29    2.70
   1  -2 -14    7.30    0.60
   1  -2 -14    7.50    0.80
   1  -2 -14    7.90    0.60
  -1  -2  14    7.40    0.80
  -1  -2  14    7.20    0.70
  -1  -2  14    9.00    0.80
   1   2 -14    6.20    0.70
  -1   2  14    8.00    0.70
  -1   2  14    8.10    0.80
   1   2 -14    7.00    0.80
  -1   2  14    7.40    0.80
   0  -2 -14   21.30    1.10
   0  -2 -14   22.70    1.00
   0  -2  14   22.40    1.00
   0  -2  14   20.80    1.10
   0  -2  14   22.30    0.90
   0  -2  14   22.70    1.20
   0  -2 -14   22.00    0.80
   0   2 -14   24.40    1.20
   0   2  14   23.00    1.10
   0   2  14   22.70    1.10
   0   2 -14   22.50    1.10
   0   2  14   23.50    0.90
   1  -2  14   38.30    1.20
   1  -2  14   36.30    1.40
   1  -2  14   37.60    1.30
  -1  -2 -14   39.10    1.40
   1  -2  14   38.50    1.50
   1   2  14   38.30    1.20
  -1   2 -14   38.10    1.40
   1   2  14   36.70    1.40
  -1   2 -14   35.40    1.50
   1   2  14   38.20    1.50
   2  -2  14    3.80    0.60
   2  -2  14    1.90    0.50
  -2  -2 -14    3.70    0.60
   2  -2  14    2.40    0.60
   2  -2  14    2.30    0.40
   2   2  14    2.10    0.50
   2   2  14    2.10    0.60
  -2   2 -14    2.70    0.60
  -2   2 -14    2.20    0.50
   3  -2  14  127.09    3.10
   3  -2  14  129.19    3.20
   3  -2  14  130.89    3.10
   3   2  14  130.49    3.00
  -3   2 -14  130.79    3.20
   3   2  14  133.19    3.30
   4  -2  14  110.89    2.90
   4  -2  14  111.69    3.00
  -4   2 -14  116.79    3.10
   4   2  14  114.29    2.80
   4   2  14  112.39    3.20
   5  -2  14    1.20    0.70
   5  -2  14    0.20    0.70
   5  -2  14    2.00    0.60
  -5   2 -14    1.80    0.70
   5   2  14    0.20    0.70
   5   2  14    0.70    0.50
   6  -2  14    0.60    0.80
   6  -2  14    0.30    0.60
   6  -2  14    1.10    0.80
   6   2  14   -0.10    0.80
   7  -2  14   -0.20    0.90
   7  -3 -14    1.20    1.00
   7  -3 -14    1.60    1.00
   7  -3 -14    2.30    0.90
   7   3 -14    0.80    0.80
   6  -3 -14    0.90    0.90
   6  -3 -14    1.30    0.60
   6  -3 -14    0.10    0.60
   6   3 -14    2.30    0.70
   6   3 -14    0.60    0.80
   5  -3 -14    0.10    0.70
   5  -3 -14    0.70    0.60
   5  -3 -14    1.90    0.70
   5   3 -14   -0.30    0.40
   5   3 -14    1.20    0.70
  -5   3  14    0.20    0.60
  -4  -3  14   40.60    1.80
   4  -3 -14   38.90    1.80
   4  -3 -14   35.60    1.70
   4   3 -14   41.10    1.70
  -4   3  14   39.00    1.70
   4   3 -14   38.30    1.80
   3  -3 -14    1.30    0.50
   3  -3 -14    1.40    0.60
  -3  -3  14    1.80    0.60
  -3   3  14    1.50    0.60
  -3   3  14    1.50    0.60
   3   3 -14    2.20    0.70
   3   3 -14    1.80    0.60
  -2  -3  14   43.90    1.70
   2  -3 -14   43.60    1.50
   2  -3 -14   47.60    1.80
  -2  -3  14   46.10    1.60
  -2  -3  14   40.60    1.70
  -2   3  14   41.70    1.70
   2   3 -14   43.40    1.70
   2   3 -14   46.00    1.70
  -2   3  14   42.80    1.60
  -1  -3  14    0.80    0.50
  -1  -3  14   -0.10    0.40
   1  -3 -14    1.30    0.50
  -1  -3  14    1.00    0.40
   1  -3 -14    0.60    0.30
   1   3 -14    0.60    0.40
   1   3 -14   -0.20    0.40
  -1   3  14    0.30    0.40
  -1   3  14    0.60    0.50
   0  -3  14   17.10    1.00
   0  -3 -14   15.70    1.10
   0  -3  14   13.20    1.00
   0  -3  14   13.40    1.00
   0  -3  14   14.00    0.70
   0   3  14   14.50    1.00
   0   3 -14   12.60    1.00
   0   3  14   14.50    1.00
   0   3 -14   15.60    1.10
   1  -3  14   23.00    1.10
   1  -3  14   23.90    1.10
  -1  -3 -14   23.80    1.20
   1  -3  14   23.70    1.30
   1  -3  14   24.00    1.20
   1   3  14   21.70    1.20
  -1   3 -14   22.30    1.30
   1   3  14   23.50    1.20
  -1   3 -14   23.20    1.30
   2  -3  14  118.29    2.60
   2  -3  14  114.79    2.90
   2  -3  14  118.89    3.00
   2  -3  14  119.39    2.80
  -2   3 -14  118.79    3.00
   2   3  14  121.19    3.00
   2   3  14  120.79    2.90
  -2   3 -14  127.59    3.00
   3  -3  14    4.20    0.90
   3  -3  14    3.80    0.70
   3  -3  14    6.20    0.80
   3   3  14    2.80    0.60
  -3   3 -14    5.60    0.80
   3   3  14    4.20    0.70
   4  -3  14   19.20    1.40
   4  -3  14   19.20    1.50
   4  -3  14   20.90    1.40
  -4   3 -14   20.40    1.40
   4   3  14   20.50    1.20
   4   3  14   21.40    1.60
   5  -3  14   -0.50    0.60
   5  -3  14    0.10    0.70
   5  -3  14    0.20    0.60
   5   3  14    1.00    0.80
   5   3  14    0.40    0.60
  -5   3 -14    0.30    0.60
   6  -3  14   -0.10    0.70
   6  -3  14    0.70    0.60
   6  -3  14    0.80    0.80
   6   3  14    2.40    0.90
   6   3  14    0.40    0.80
   6  -4 -14    2.40    0.90
   6  -4 -14    1.70    0.90
   6  -4 -14    2.80    1.10
  -6   4  14    2.10    0.90
   6   4 -14    2.20    0.90
   6   4 -14    1.50    0.80
  -5  -4  14    1.80    0.70
   5  -4 -14    4.40    1.00
   5  -4 -14    4.30    1.00
   5  -4 -14    2.70    0.90
   5   4 -14    2.70    0.80
  -5   4  14    2.20    0.90
   5   4 -14    3.70    0.70
   4  -4 -14   -0.10    0.60
   4  -4 -14   -0.20    0.60
   4  -4 -14    0.50    0.60
  -4  -4  14    0.00    0.50
   4   4 -14    0.10    0.60
  -4   4  14    0.00    0.60
   4   4 -14    0.20    0.50
  -3  -4  14    0.40    0.50
   3  -4 -14   -0.30    0.60
   3  -4 -14   -0.10    0.50
   3  -4 -14    0.50    0.50
   3   4 -14   -0.30    0.50
   3   4 -14    0.50    0.60
  -3   4  14   -0.30    0.50
  -3   4  14   -0.80    0.50
  -2  -4  14    1.40    0.60
   2  -4 -14    2.30    0.60
  -2  -4  14    1.00    0.60
  -2  -4  14    1.40    0.60
   2  -4 -14    1.80    0.70
  -2   4  14    0.90    0.60
  -2   4  14    1.40    0.60
   2   4 -14    1.50    0.70
   2   4 -14    1.20    0.60
   1  -4 -14   87.89    2.60
  -1  -4  14   89.09    2.50
  -1  -4  14   87.39    2.50
   1  -4 -14   88.49    2.20
  -1  -4  14   90.89    2.50
   1   4 -14   87.99    2.60
  -1   4  14   88.79    2.60
  -1   4  14   88.29    2.50
   1   4 -14   90.09    2.60
   0  -4  14   23.60    1.40
   0  -4 -14   23.20    1.30
   0  -4  14   21.20    1.10
   0  -4  14   20.50    1.30
   0   4 -14   21.30    1.30
   0   4 -14   25.00    1.40
   0   4  14   23.80    1.40
   0   4  14   21.90    1.30
   1  -4  14    2.70    0.60
   1  -4  14    2.60    0.60
  -1  -4 -14    2.30    0.60
   1  -4  14    2.30    0.70
   1  -4  14    3.80    0.70
   1   4  14    2.60    0.60
  -1   4 -14    1.60    0.60
  -1   4 -14    1.70    0.60
   1   4  14    2.70    0.60
   2  -4  14    3.10    0.70
   2  -4  14    2.70    0.70
   2  -4  14    4.20    0.70
   2  -4  14    1.30    0.60
   2   4  14    2.30    0.60
  -2   4 -14    3.70    0.70
   2   4  14    1.30    0.60
  -2   4 -14    2.50    0.70
   3  -4  14   24.20    1.60
   3  -4  14   21.40    1.40
   3  -4  14   24.00    1.50
   3  -4  14   23.10    1.30
   3   4  14   23.80    1.40
  -3   4 -14   23.40    1.60
   3   4  14   22.10    1.60
   4  -4  14    8.90    1.20
   4  -4  14    7.50    1.00
   4  -4  14    7.60    1.00
   4   4  14    5.90    1.10
   4   4  14    7.30    1.10
   4   4  14    7.50    0.90
  -4   4 -14    6.80    1.00
   5  -4  14    4.20    0.90
   5  -4  14    6.70    1.10
   5  -4  14    2.80    0.90
  -5   4 -14    4.00    0.90
   5   4  14    5.90    1.10
   5   4  14    6.50    1.00
   5   4  14    4.40    1.10
   6  -4  14    0.00    0.80
   6  -4  14    0.30    0.90
   6  -4  14   -0.50    0.60
   6   4  14    0.00    0.80
   6  -5 -14   -0.70    0.90
   6  -5 -14   -0.90    0.90
   6   5 -14   -1.10    0.80
  -6   5  14    0.10    0.80
   6   5 -14   -0.30    0.80
   5  -5 -14    2.30    0.90
   5  -5 -14    1.30    0.80
  -5  -5  14    1.00    0.70
   5  -5 -14    0.50    0.80
  -5   5  14    2.10    0.90
   5   5 -14   -0.70    0.70
   5   5 -14    0.70    0.60
   4  -5 -14    1.30    0.80
  -4  -5  14    1.20    0.70
   4  -5 -14    0.70    0.70
   4  -5 -14    2.00    0.80
  -4   5  14    2.10    0.80
   4   5 -14    0.70    0.70
   4   5 -14    0.80    0.70
  -3  -5  14    0.60    0.60
   3  -5 -14    0.90    0.60
   3  -5 -14    0.70    0.60
   3  -5 -14    1.20    0.70
  -3  -5  14    0.10    0.50
   3   5 -14    1.00    0.60
   3   5 -14    1.70    0.70
  -3   5  14    0.60    0.70
  -2  -5  14    0.80    0.60
   2  -5 -14    1.30    0.50
  -2  -5  14    1.30    0.70
   2  -5 -14    1.50    0.80
   2   5 -14   -0.50    0.60
   2   5 -14    0.70    0.70
  -2   5  14    0.50    0.70
  -2   5  14    1.50    0.70
  -1  -5  14    9.00    1.10
  -1  -5  14    9.50    1.10
  -1  -5  14    9.90    1.10
   1  -5 -14    9.60    1.10
   1  -5 -14    9.00    0.90
   1   5 -14    8.50    1.10
  -1   5  14   11.70    1.20
  -1   5  14    9.70    1.10
   1   5 -14    9.70    1.10
   0  -5 -14    0.50    0.60
   0  -5  14   -0.70    0.60
   0  -5  14    1.90    0.60
   0  -5  14    1.50    0.70
   0   5 -14    1.40    0.60
   0   5  14    0.50    0.60
   0   5  14   -0.40    0.50
   0   5 -14    0.30    0.60
   1  -5  14   10.10    1.10
  -1  -5 -14   10.80    1.10
   1  -5  14   11.10    1.10
   1  -5  14   10.30    1.10
   1   5  14   11.20    1.10
   1   5  14   10.70    1.10
  -1   5 -14   10.40    1.10
   1   5  14   12.00    1.20
  -1   5 -14   12.60    1.20
   2  -5  14   50.09    2.20
   2  -5  14   49.10    2.20
   2  -5  14   46.10    1.90
   2   5  14   51.79    2.10
  -2   5 -14   52.99    2.20
   2   5  14   51.29    2.10
   2   5  14   49.80    2.10
  -2   5 -14   51.19    2.10
   3  -5  14   -0.50    0.60
   3  -5  14   -0.50    0.50
   3  -5  14   -1.20    0.60
   3  -5  14   -0.20    0.60
   3   5  14   -0.10    0.70
  -3   5 -14    0.10    0.60
   3   5  14   -0.70    0.50
   3   5  14   -0.30    0.70
   4  -5  14   11.10    1.30
   4  -5  14   11.90    1.30
   4  -5  14    9.80    1.20
   4   5  14   10.40    1.40
  -4   5 -14   10.00    1.20
   4   5  14   10.50    1.20
   4   5  14   10.00    1.30
   5  -5  14   -0.10    0.80
   5  -5  14    0.30    0.90
   5  -5  14   -0.30    0.80
   5   5  14   -0.30    0.80
   5   5  14    0.30    0.90
   5   5  14    0.50    0.60
   5  -6 -14    2.60    1.00
   5  -6 -14    1.70    1.00
  -5   6  14    1.90    1.10
   5   6 -14    2.70    1.00
   5   6 -14    4.30    1.10
   4  -6 -14   -1.30    0.60
   4  -6 -14    0.70    0.80
   4   6 -14    0.20    0.80
  -4   6  14    0.00    0.70
   4   6 -14   -0.60    0.70
  -3  -6  14    1.20    0.80
  -3  -6  14    1.40    0.70
   3  -6 -14    1.50    0.90
   3  -6 -14    2.90    0.90
   3   6 -14    3.30    1.00
  -3   6  14    1.30    0.90
   3   6 -14    2.80    0.90
  -2  -6  14    4.40    0.90
   2  -6 -14    6.20    1.10
   2  -6 -14    3.70    0.80
  -2  -6  14    5.20    1.00
   2   6 -14    4.80    1.00
  -2   6  14    5.60    1.10
  -2   6  14    4.60    1.00
   2   6 -14    3.90    0.90
  -1  -6  14   26.50    1.70
   1  -6 -14   26.10    1.80
  -1  -6  14   27.80    1.70
  -1  -6  14   26.60    1.70
   1   6 -14   29.90    1.80
  -1   6  14   26.60    1.80
   1   6 -14   24.60    1.70
  -1   6  14   26.40    1.80
   0  -6 -14    0.40    0.70
   0  -6  14    0.20    0.70
   0  -6  14    0.20    0.70
   0  -6  14   -0.80    0.70
   0   6  14   -0.40    0.70
   0   6 -14   -1.30    0.60
   0   6 -14    1.10    0.80
   0   6  14    0.00    0.70
   1  -6  14    4.80    1.00
   1  -6  14    4.70    0.90
   1  -6  14    5.30    1.00
   1   6  14    3.40    0.90
  -1   6 -14    4.90    0.90
   1   6  14    4.90    1.00
   1   6  14    5.90    0.90
  -1   6 -14    4.50    1.00
   2  -6  14    2.00    0.90
   2  -6  14    0.80    0.80
   2  -6  14    0.80    0.70
  -2   6 -14    0.30    0.60
   2   6  14    0.90    0.70
   2   6  14    1.10    0.70
   2   6  14    0.60    0.80
  -2   6 -14   -0.80    0.70
   3  -6  14    1.30    0.80
   3  -6  14    3.70    0.90
   3  -6  14    1.90    1.00
   3   6  14    2.50    1.00
   3   6  14    2.20    0.80
  -3   6 -14    1.90    0.70
   3   6  14    1.80    0.90
   4  -6  14    0.90    0.80
   4  -6  14    1.40    1.00
   4  -6  14   -0.10    0.80
   4   6  14    0.40    0.70
   4   6  14    1.40    0.90
   4   6  14    1.40    0.90
   5  -6  14    6.10    1.20
   4  -7 -14   -0.40    0.90
  -4   7  14    0.80    0.90
   3  -7 -14    0.00    0.80
   3  -7 -14   -0.10    0.80
  -3  -7  14    1.00    0.90
   3   7 -14    0.90    0.90
  -3   7  14    0.30    0.90
   3   7 -14   -0.90    0.70
  -2  -7  14   -1.60    0.80
   2  -7 -14   -2.10    0.70
  -2  -7  14    2.00    0.90
   2   7 -14    0.50    0.80
   2   7 -14    0.40    0.80
  -2   7  14    0.10    0.90
  -2   7  14   -0.70    0.80
  -1  -7  14    3.60    0.90
   1  -7 -14    3.30    1.10
  -1  -7  14    5.90    1.10
  -1   7  14    3.50    1.10
   1   7 -14    3.50    1.00
   1   7 -14    4.10    1.00
  -1   7  14    3.00    1.00
   0  -7 -14    0.40    0.90
   0  -7  14    1.50    0.90
   0  -7  14    2.70    1.00
   0  -7  14    1.10    0.90
   0   7  14    1.60    0.90
   0   7  14    0.80    0.70
   0   7 -14    1.40    0.80
   0   7 -14    0.70    0.90
   1  -7  14    0.90    0.90
   1  -7  14    0.30    0.80
   1  -7  14   -1.60    0.70
  -1   7 -14    1.30    0.90
   1   7  14    0.40    0.80
  -1   7 -14    1.00    0.70
   1   7  14    1.50    0.90
   2  -7  14    1.20    0.80
   2  -7  14    2.00    1.00
   2  -7  14    1.20    0.80
   2   7  14    1.50    0.90
   2   7  14    0.60    0.80
  -2   7 -14    0.30    0.80
   3  -7  14    0.40    0.90
   3  -7  14    1.10    0.90
   3   7  14    0.70    0.80
   3   7  14    0.60    0.90
   3   7  14    2.40    1.00
   4  -7  14    0.20    0.90
   3  -8 -14    1.70    1.20
  -2   8  14    0.00    1.00
   1  -8 -14   -0.50    1.00
   1   8 -14   -1.00    0.70
  -1   8  14    1.80    1.10
   0  -8  14    0.60    0.90
   0  -8  14    0.40    0.90
   0   8 -14   -0.40    0.80
   0   8 -14   -0.40    1.00
   1  -8  14   -0.40    0.90
   1  -8  14    0.60    1.00
   1  -8  14   -0.20    0.90
  -1   8 -14    0.00    1.00
  -1   8 -14   -0.10    0.80
   7   0 -15    1.80    0.90
   6   0 -15   -0.50    0.50
   6   0 -15    0.10    0.70
   5   0 -15    6.00    0.80
   5   0 -15    4.40    0.80
   4   0 -15    0.10    0.40
   4   0 -15   -0.30    0.40
  -3   0  15    2.60    0.50
   3   0 -15    2.70    0.60
  -3   0  15    3.70    0.70
   3   0 -15    2.50    0.50
   3   0 -15    2.50    0.60
  -2   0  15   -0.30    0.20
  -2   0  15    0.00    0.40
  -2   0  15    0.20    0.40
   2   0 -15    0.00    0.30
   2   0 -15    0.00    0.40
   2   0 -15    0.30    0.30
  -1   0  15  303.47    5.20
  -1   0  15  299.87    5.20
   1   0 -15  303.87    5.10
   1   0 -15  303.87    5.30
  -1   0  15  303.47    4.70
   0   0 -15    0.30    0.40
   0   0 -15    1.00    0.40
   0   0  15    0.70    0.40
   0   0  15    0.90    0.40
   0   0  15    0.30    0.30
  -1   0 -15   30.40    1.30
   1   0  15   31.30    1.20
   1   0  15   30.70    1.30
  -1   0 -15   31.90    1.30
   1   0  15   31.00    1.20
  -2   0 -15    0.00    0.40
   2   0  15    0.00    0.40
  -2   0 -15   -0.20    0.40
   2   0  15   -0.50    0.40
   2   0  15   -0.40    0.40
   3   0  15  543.35    8.50
   3   0  15  538.35    8.60
  -3   0 -15  541.75    8.90
   3   0  15  556.24    8.50
   4   0  15   -0.10    0.40
   4   0  15   -0.20    0.50
   4   0  15    0.90    0.50
   5   0  15   13.20    1.10
   5   0  15   16.60    1.30
   6   0  15   -0.50    0.40
   6   0  15    0.70    0.70
   7  -1 -15    6.50    1.20
   7  -1 -15    5.20    1.20
   7   1 -15    8.20    1.30
   6  -1 -15    5.90    1.10
   6  -1 -15    8.20    0.90
   6   1 -15    7.50    1.20
   6   1 -15    7.50    0.90
   5  -1 -15    1.40    0.50
   5  -1 -15    1.50    0.50
   5   1 -15    0.90    0.60
   5   1 -15    1.10    0.50
   4  -1 -15   46.60    1.90
  -4  -1  15   46.30    1.80
   4  -1 -15   46.30    1.70
   4   1 -15   44.60    1.90
   4   1 -15   46.00    1.60
   4   1 -15   45.50    1.70
  -3  -1  15    2.90    0.70
   3  -1 -15    1.10    0.50
   3  -1 -15    3.30    0.50
   3  -1 -15    3.10    0.60
   3   1 -15    2.40    0.60
  -3   1  15    3.20    0.60
  -3   1  15    2.20    0.50
   3   1 -15    2.20    0.50
   2  -1 -15    4.10    0.70
  -2  -1  15    5.00    0.70
  -2  -1  15    4.30    0.60
   2  -1 -15    3.50    0.60
   2  -1 -15    4.90    0.60
  -2   1  15    3.40    0.60
   2   1 -15    4.30    0.60
  -2   1  15    5.00    0.70
   2   1 -15    3.80    0.60
  -2   1  15    5.10    0.60
  -1  -1  15  160.58    3.30
  -1  -1  15  157.08    2.70
   1  -1 -15  164.78    3.40
   1  -1 -15  161.08    2.90
   1  -1 -15  160.68    3.10
  -1  -1  15  158.88    3.30
  -1   1  15  156.48    3.30
   1   1 -15  155.18    3.30
  -1   1  15  163.58    3.10
  -1   1  15  159.38    3.20
   1   1 -15  157.78    3.30
   0  -1  15   23.20    0.90
   0  -1 -15   25.00    1.20
   0  -1  15   23.70    1.20
   0  -1 -15   23.70    0.80
   0  -1 -15   22.70    1.10
   0  -1  15   23.20    1.10
   0   1 -15   23.80    1.20
   0   1 -15   22.50    1.10
   0   1  15   25.40    1.20
   0   1  15   21.70    1.00
   0   1  15   23.10    1.00
   1  -1  15    5.80    0.70
  -1  -1 -15    5.80    0.70
  -1  -1 -15    5.40    0.70
   1  -1  15    5.20    0.60
   1  -1  15    5.60    0.70
   1  -1  15    5.90    0.50
   1   1  15    6.80    0.70
   1   1  15    6.50    0.70
  -1   1 -15    5.40    0.70
   1   1  15    7.90    0.80
  -1   1 -15    5.30    0.70
   2  -1  15    0.80    0.50
   2  -1  15    0.20    0.40
  -2  -1 -15    0.10    0.40
  -2  -1 -15    0.30    0.40
   2  -1  15    0.50    0.40
   2   1  15    0.40    0.40
   2   1  15    1.50    0.50
   2   1  15    0.30    0.40
  -2   1 -15   -0.30    0.40
  -2   1 -15    0.10    0.40
   3  -1  15    6.30    0.80
   3  -1  15    8.20    0.90
   3  -1  15    8.40    1.00
  -3   1 -15    6.80    0.90
   3   1  15    6.80    0.70
   3   1  15    6.10    0.80
   3   1  15    6.80    0.80
   4  -1  15    3.50    0.70
   4  -1  15    5.60    0.90
   4  -1  15    4.60    0.80
  -4   1 -15    4.00    0.80
   4   1  15    4.00    0.70
   4   1  15    4.40    0.90
   5  -1  15    4.70    0.90
   5  -1  15    4.00    0.80
   5  -1  15    4.20    0.90
   5   1  15    4.80    1.00
   5   1  15    4.30    0.80
   6  -1  15    1.00    0.70
   6  -1  15   -0.20    0.60
   6  -1  15    0.80    0.50
   6   1  15   -0.60    0.60
   7  -2 -15    1.90    0.70
   7  -2 -15    2.90    1.10
   7  -2 -15    1.40    1.00
   7   2 -15    5.10    1.20
   6  -2 -15    0.00    0.70
   6  -2 -15    0.00    0.70
   6  -2 -15    1.00    0.70
   6   2 -15    0.60    0.50
   6   2 -15    0.30    0.70
   5  -2 -15    2.60    0.80
   5  -2 -15    1.90    0.70
   5   2 -15    2.70    0.70
   5   2 -15    2.20    0.70
  -4  -2  15    2.00    0.70
   4  -2 -15    2.80    0.70
   4  -2 -15    3.20    0.70
   4   2 -15    3.30    0.70
  -4   2  15    3.00    0.60
   4   2 -15    2.70    0.70
   3  -2 -15   37.60    1.60
   3  -2 -15   38.10    1.60
  -3  -2  15   37.40    1.70
   3   2 -15   37.70    1.60
  -3   2  15   35.70    1.40
   3   2 -15   36.10    1.50
  -3   2  15   38.40    1.50
  -2  -2  15   12.20    1.00
   2  -2 -15   13.40    0.90
  -2  -2  15   12.10    1.10
   2  -2 -15   12.50    0.80
   2  -2 -15   12.10    1.00
  -2   2  15   14.20    0.90
   2   2 -15   15.30    1.10
   2   2 -15   14.60    1.10
  -2   2  15   15.60    1.00
   1  -2 -15   17.60    0.90
  -1  -2  15   20.40    1.20
   1  -2 -15   17.70    1.10
   1  -2 -15   18.90    0.90
  -1  -2  15   18.90    1.10
  -1   2  15   19.20    1.10
   1   2 -15   18.10    1.10
  -1   2  15   19.80    1.00
   1   2 -15   21.30    1.20
  -1   2  15   19.30    1.00
   0  -2  15    7.40    0.60
   0  -2  15    7.90    0.70
   0  -2  15    8.10    0.80
   0  -2 -15    8.60    0.80
   0  -2 -15    7.90    0.80
   0  -2  15    7.70    0.80
   0   2 -15    9.10    0.90
   0   2  15    7.40    0.80
   0   2  15    9.10    0.90
   0   2  15    9.10    0.70
   0   2 -15    8.30    0.80
  -1  -2 -15    1.50    0.50
   1  -2  15    1.30    0.40
   1  -2  15    1.90    0.40
   1  -2  15    2.10    0.60
   1  -2  15    2.20    0.60
   1   2  15    0.80    0.50
   1   2  15    2.40    0.40
   1   2  15    1.60    0.40
  -1   2 -15    1.30    0.50
  -1   2 -15    1.20    0.50
   2  -2  15    1.00    0.50
   2  -2  15    0.60    0.40
   2  -2  15    1.10    0.60
  -2  -2 -15    1.30    0.50
  -2   2 -15    1.00    0.50
   2   2  15    0.70    0.50
  -2   2 -15    0.90    0.50
   2   2  15    0.40    0.40
   3  -2  15  116.39    2.90
   3  -2  15  113.29    3.00
   3  -2  15  115.39    2.90
  -3   2 -15  110.39    3.00
   3   2  15  110.09    3.00
   3   2  15  117.59    2.90
   4  -2  15    4.80    0.90
   4  -2  15    4.40    0.90
   4  -2  15    4.20    0.80
   4   2  15    3.70    0.70
  -4   2 -15    4.30    0.80
   4   2  15    5.70    0.90
   5  -2  15    1.20    0.60
   5  -2  15    2.20    0.80
   5  -2  15    4.90    1.00
   5   2  15    2.30    0.60
   5   2  15    2.40    0.90
  -5   2 -15    2.00    0.70
   6  -2  15   -0.40    0.50
   6  -2  15    0.30    0.80
   6  -2  15    1.20    0.80
   6   2  15   -1.20    0.70
   7  -2  15    2.90    1.10
   7  -3 -15    2.60    0.80
   6  -3 -15   15.80    1.40
   6  -3 -15   15.20    1.60
   6  -3 -15   16.50    1.60
   6   3 -15   13.80    1.40
   6   3 -15   15.30    1.30
   5  -3 -15   -1.30    0.40
   5  -3 -15   -0.60    0.40
   5  -3 -15    0.00    0.60
   5   3 -15    0.30    0.60
  -5   3  15   -0.10    0.60
   5   3 -15    0.00    0.50
   4  -3 -15   10.30    1.10
  -4  -3  15   12.20    1.20
   4  -3 -15   11.80    1.10
  -4   3  15   13.50    1.10
   4   3 -15   11.60    1.10
   4   3 -15   13.60    1.10
   3  -3 -15    9.80    1.00
   3  -3 -15    7.60    0.90
  -3  -3  15    7.80    0.90
   3   3 -15    7.30    0.90
  -3   3  15    7.90    1.00
   3   3 -15    8.20    0.90
  -3   3  15    8.10    0.90
   2  -3 -15   43.90    1.60
  -2  -3  15   44.10    1.80
   2  -3 -15   48.40    1.80
  -2  -3  15   41.80    1.60
  -2   3  15   44.80    1.80
   2   3 -15   45.20    1.80
   2   3 -15   46.30    1.80
  -2   3  15   41.30    1.70
  -1  -3  15    6.60    0.80
  -1  -3  15    5.70    0.70
   1  -3 -15    7.40    0.70
   1  -3 -15    7.20    0.80
  -1  -3  15    7.80    0.90
  -1   3  15    8.00    0.90
  -1   3  15    9.10    0.90
   1   3 -15    7.10    0.80
   1   3 -15    7.70    0.90
   0  -3 -15   14.30    1.10
   0  -3  15   13.40    1.10
   0  -3  15   15.90    1.00
   0  -3  15   14.70    1.10
   0   3  15   19.10    1.20
   0   3 -15   16.70    1.20
   0   3  15   15.10    1.10
   0   3 -15   17.20    1.20
   1  -3  15   29.30    1.50
   1  -3  15   31.30    1.30
   1  -3  15   31.20    1.20
   1  -3  15   30.80    1.50
  -1  -3 -15   30.70    1.40
  -1   3 -15   31.30    1.50
   1   3  15   28.90    1.50
   1   3  15   29.10    1.40
  -1   3 -15   32.40    1.50
   2  -3  15   50.39    1.60
   2  -3  15   48.30    1.70
   2  -3  15   46.40    1.90
   2  -3  15   44.20    1.90
   2   3  15   45.70    1.80
  -2   3 -15   47.00    1.90
   2   3  15   48.40    1.80
  -2   3 -15   45.20    1.80
   3  -3  15   97.69    2.70
   3  -3  15   90.99    2.60
   3  -3  15   93.39    2.80
   3   3  15   93.19    2.60
  -3   3 -15   95.19    2.80
   3   3  15   87.09    2.80
   4  -3  15    0.70    0.60
   4  -3  15    0.30    0.60
   4  -3  15    0.30    0.60
   4   3  15    0.40    0.60
  -4   3 -15    1.40    0.60
   4   3  15    0.80    0.70
   5  -3  15    3.80    0.80
   5  -3  15    4.00    0.90
   5  -3  15    2.90    0.90
   5   3  15    6.10    1.10
  -5   3 -15    4.30    0.90
   5   3  15    5.00    0.80
   6  -3  15    0.30    0.80
   6  -3  15    0.10    0.80
   6  -3  15    0.80    0.90
   6   3  15    1.80    1.00
   6   3  15   -0.40    0.80
   6  -4 -15    0.50    0.90
   6  -4 -15    0.40    0.70
   6  -4 -15    1.20    0.70
   6   4 -15    1.60    0.90
   6   4 -15    1.00    0.60
  -5  -4  15   -1.10    0.60
   5  -4 -15    1.60    0.70
   5  -4 -15   -0.60    0.70
   5  -4 -15    0.30    0.80
   5   4 -15    0.50    0.70
  -5   4  15    0.30    0.80
   5   4 -15    0.70    0.60
   4  -4 -15    3.10    0.80
   4  -4 -15    5.90    1.00
   4  -4 -15    3.60    0.80
  -4  -4  15    4.50    0.90
  -4   4  15    4.70    0.90
   4   4 -15    5.70    0.90
   4   4 -15    5.10    0.90
   3  -4 -15    3.10    0.70
   3  -4 -15    4.40    0.80
   3  -4 -15    4.20    0.80
  -3  -4  15    3.60    0.80
   3   4 -15    3.90    0.80
   3   4 -15    4.00    0.80
  -3   4  15    3.30    0.80
   2  -4 -15   75.49    2.50
  -2  -4  15   73.49    2.40
   2  -4 -15   77.49    2.20
  -2  -4  15   73.49    2.40
  -2  -4  15   71.49    2.30
  -2   4  15   71.89    2.30
   2   4 -15   77.69    2.50
   2   4 -15   71.49    2.40
  -2   4  15   74.39    2.40
   1  -4 -15    3.60    0.70
   1  -4 -15    4.00    0.60
  -1  -4  15    2.80    0.70
  -1  -4  15    3.00    0.70
  -1  -4  15    2.30    0.70
   1   4 -15    3.80    0.80
   1   4 -15    3.70    0.80
  -1   4  15    3.40    0.70
  -1   4  15    2.00    0.70
   0  -4  15    2.10    0.70
   0  -4  15    2.90    0.70
   0  -4  15    2.10    0.60
   0  -4 -15    2.20    0.70
   0   4  15    2.40    0.60
   0   4 -15    1.70    0.70
   0   4  15    2.80    0.70
   0   4 -15    2.20    0.60
   1  -4  15    0.30    0.60
   1  -4  15    1.20    0.50
  -1  -4 -15    1.10    0.60
   1  -4  15    0.30    0.60
   1   4  15    0.70    0.60
   1   4  15    1.20    0.50
  -1   4 -15    1.00    0.50
  -1   4 -15    0.70    0.60
   2  -4  15   11.60    1.20
   2  -4  15   11.10    1.00
   2  -4  15   10.50    1.00
   2  -4  15    9.40    1.10
  -2   4 -15    8.70    1.10
  -2   4 -15   12.10    1.20
   2   4  15   10.80    1.20
   2   4  15   12.90    1.20
   3  -4  15    3.00    0.70
   3  -4  15    2.60    0.70
   3  -4  15    3.30    0.80
  -3   4 -15    4.90    0.90
   3   4  15    3.30    0.70
   3   4  15    2.70    0.70
   4  -4  15   10.40    1.30
   4  -4  15    8.40    1.10
   4  -4  15    9.30    1.20
  -4   4 -15    8.30    1.10
   4   4  15   10.80    1.30
   4   4  15   10.80    1.10
   5  -4  15    1.50    0.90
   5  -4  15    1.40    0.80
   5  -4  15    0.00    0.70
   5   4  15    0.20    0.80
   5   4  15    0.90    0.90
  -5   4 -15    0.90    0.70
   5   4  15    1.10    0.70
   6  -5 -15    1.80    1.00
  -6   5  15    0.40    0.90
   6   5 -15   -0.20    0.80
   6   5 -15    1.90    0.80
   5  -5 -15    0.60    0.80
   5  -5 -15   -0.20    0.70
   5  -5 -15   -0.20    0.80
  -5  -5  15    0.90    0.90
  -5   5  15   -0.40    0.70
   5   5 -15   -0.70    0.70
   5   5 -15    0.80    0.70
   4  -5 -15   -0.40    0.60
  -4  -5  15    0.90    0.70
   4  -5 -15   -0.80    0.60
   4  -5 -15    0.00    0.70
   4   5 -15    0.30    0.70
  -4   5  15   -0.60    0.60
   4   5 -15   -0.70    0.60
   3  -5 -15    5.90    1.00
  -3  -5  15    7.10    1.10
   3  -5 -15    8.00    1.00
   3  -5 -15    7.30    1.00
  -3  -5  15    7.60    1.00
   3   5 -15    6.20    1.00
  -3   5  15    7.00    1.00
   3   5 -15    7.40    1.00
   2  -5 -15   35.30    1.90
  -2  -5  15   32.80    1.80
   2  -5 -15   34.80    1.60
  -2  -5  15   32.40    1.80
   2   5 -15   33.10    1.80
  -2   5  15   36.10    1.90
   2   5 -15   32.80    1.70
  -2   5  15   36.90    1.90
  -1  -5  15    1.20    0.70
   1  -5 -15    1.40    0.70
  -1  -5  15    1.40    0.60
  -1  -5  15    1.60    0.70
   1   5 -15    0.70    0.60
  -1   5  15    1.40    0.70
   1   5 -15    1.40    0.50
  -1   5  15    0.90    0.70
   0  -5  15   11.20    1.20
   0  -5  15   14.80    1.30
   0  -5 -15    9.80    1.10
   0  -5  15   11.20    1.10
   0   5 -15   11.00    1.20
   0   5 -15   11.50    1.20
   0   5  15   12.00    1.20
   0   5  15   12.00    1.30
   1  -5  15    2.20    0.80
   1  -5  15    2.20    0.70
   1   5  15    1.70    0.80
  -1   5 -15    2.20    0.80
  -1   5 -15    3.00    0.80
   1   5  15    2.00    0.60
   1   5  15    2.30    0.80
   2  -5  15    8.80    1.20
   2  -5  15    9.10    1.00
   2  -5  15    8.30    1.10
   2   5  15    8.90    1.10
  -2   5 -15    9.30    1.10
  -2   5 -15    5.60    1.00
   2   5  15    8.60    1.10
   2   5  15    6.70    1.00
   3  -5  15    1.10    0.70
   3  -5  15    0.60    0.60
   3  -5  15    0.90    0.60
   3  -5  15    0.50    0.70
   3   5  15    0.00    0.60
  -3   5 -15    0.30    0.60
   3   5  15   -1.00    0.70
   3   5  15    1.00    0.70
   4  -5  15    5.20    1.10
   4  -5  15    4.20    1.00
   4  -5  15    5.00    1.00
  -4   5 -15    5.20    1.00
   4   5  15    3.40    1.00
   4   5  15    4.90    1.10
   4   5  15    2.90    0.90
   5  -5  15   -0.80    0.70
   5  -5  15    1.20    0.90
   5  -5  15   -0.90    0.80
   5   5  15    0.20    0.70
   5   5  15   -0.50    0.90
   5   5  15    0.30    0.90
   5  -6 -15    3.80    1.10
   5  -6 -15    2.00    1.10
  -5   6  15    2.30    1.00
   5   6 -15    1.60    1.00
   5   6 -15    3.20    0.90
   4  -6 -15    0.00    0.80
   4  -6 -15   -0.30    0.70
   4   6 -15    0.10    0.80
  -4   6  15    0.50    0.80
   4   6 -15   -0.40    0.70
   3  -6 -15    3.00    1.00
  -3  -6  15    4.30    1.00
  -3  -6  15    4.40    0.90
   3  -6 -15    4.50    1.00
   3   6 -15    3.90    1.00
   3   6 -15    4.20    1.00
  -3   6  15    4.90    1.00
   2  -6 -15    1.60    0.80
  -2  -6  15    0.30    0.60
  -2  -6  15   -1.50    0.60
   2  -6 -15   -1.10    0.70
   2   6 -15    0.70    0.80
   2   6 -15    0.10    0.70
  -2   6  15   -1.00    0.70
  -2   6  15    0.60    0.80
  -1  -6  15   25.40    1.70
  -1  -6  15   23.80    1.70
   1  -6 -15   24.00    1.80
  -1  -6  15   22.30    1.70
  -1   6  15   26.90    1.90
  -1   6  15   23.30    1.80
   1   6 -15   25.10    1.80
   1   6 -15   23.60    1.80
   0  -6  15    0.50    0.70
   0  -6 -15    0.60    0.70
   0  -6  15    1.50    0.80
   0  -6  15    2.00    0.80
   0   6 -15    1.90    0.80
   0   6  15    0.20    0.80
   0   6 -15    0.50    0.70
   0   6  15    0.30    0.50
   1  -6  15   -0.10    0.70
   1  -6  15    2.30    0.80
   1  -6  15    0.10    0.80
  -1   6 -15    1.10    0.80
  -1   6 -15    0.40    0.70
   1   6  15   -0.60    0.70
   1   6  15    0.10    0.80
   2  -6  15   13.20    1.40
   2  -6  15   12.30    1.30
   2  -6  15   14.40    1.50
   2   6  15   16.10    1.60
  -2   6 -15   14.40    1.40
   2   6  15   14.60    1.40
   2   6  15   17.20    1.50
   3  -6  15   -0.10    0.80
   3  -6  15    0.30    0.70
   3  -6  15    1.80    0.90
   3   6  15   -1.50    0.70
  -3   6 -15    0.50    0.70
   3   6  15   -0.20    0.80
   3   6  15    1.10    0.70
   4  -6  15    0.50    1.00
   4  -6  15    2.00    0.90
   4   6  15   -0.40    0.90
   4   6  15    0.70    0.80
   4   6  15    1.90    1.00
   4  -7 -15    1.50    1.00
  -3  -7  15    2.30    0.90
   3  -7 -15   -0.50    0.90
   3  -7 -15   -0.30    0.90
   3   7 -15    0.00    0.80
  -3   7  15   -1.00    0.90
   3   7 -15    1.60    0.90
  -2  -7  15    0.50    0.80
   2  -7 -15   -2.20    0.70
  -2  -7  15    0.20    0.70
   2   7 -15    0.80    0.90
   2   7 -15   -0.80    0.80
  -2   7  15    0.60    0.90
  -2   7  15   -0.50    0.80
   1  -7 -15    2.50    1.00
  -1  -7  15   -1.00    0.70
  -1  -7  15    0.20    0.80
  -1   7  15    0.10    0.80
  -1   7  15   -0.30    0.90
   1   7 -15    0.70    0.80
   1   7 -15   -0.70    0.90
   0  -7  15    3.10    1.00
   0  -7  15    3.90    1.10
   0  -7  15    2.60    0.90
   0   7  15    2.80    0.90
   0   7  15    1.30    1.00
   0   7 -15    2.20    0.90
   0   7 -15    0.90    1.00
   1  -7  15    0.80    0.90
   1  -7  15    0.60    0.90
   1  -7  15    0.60    0.80
   1   7  15    1.80    0.90
  -1   7 -15   -0.80    0.80
   1   7  15    0.40    0.80
  -1   7 -15   -0.10    0.80
   2  -7  15   -0.10    0.80
   2  -7  15    0.40    0.90
   2  -7  15    0.10    0.90
  -2   7 -15    1.10    0.80
   2   7  15    1.00    0.80
   2   7  15    0.00    0.80
   3  -7  15    1.60    1.10
   3  -7  15   -0.40    0.80
   3   7  15    0.00    0.90
   3   7  15    1.00    0.90
   1  -8 -15    2.00    1.20
   0  -8  15    0.40    0.90
   0   8 -15    1.20    1.00
   1  -8  15   -0.50    1.00
   1  -8  15    0.60    1.10
  -1   8 -15   -0.60    1.00
  -1   8 -15   -0.30    0.80
   7   0 -16   -1.00    0.80
   6   0 -16    1.30    0.80
   6   0 -16    1.40    0.60
   5   0 -16    0.00    0.40
   5   0 -16    0.20    0.50
   4   0 -16   10.00    0.90
   4   0 -16   10.70    1.10
   3   0 -16   -0.40    0.50
  -3   0  16   -0.30    0.50
   3   0 -16    0.30    0.40
   3   0 -16   -0.10    0.50
  -2   0  16    7.60    0.80
   2   0 -16    7.00    0.80
  -2   0  16    7.00    0.80
   2   0 -16    7.50    0.70
   2   0 -16    7.50    0.70
  -2   0  16    6.90    0.50
   1   0 -16    0.70    0.40
  -1   0  16    1.00    0.50
  -1   0  16    1.20    0.50
   0   0  16   10.30    0.90
   0   0 -16   10.30    0.80
   0   0  16    9.40    0.80
   0   0  16    8.90    0.70
   0   0 -16    9.80    0.90
  -1   0 -16    0.40    0.40
   1   0  16   -0.10    0.40
   1   0  16    0.80    0.40
  -1   0 -16    0.50    0.40
   1   0  16    0.30    0.30
  -2   0 -16   48.90    1.70
  -2   0 -16   47.80    1.80
   2   0  16   51.19    1.70
   2   0  16   54.89    1.80
   2   0  16   51.69    1.80
  -3   0 -16    0.20    0.60
   3   0  16   -2.20    0.60
   3   0  16   -0.30    0.50
   3   0  16   -0.40    0.60
   4   0  16   64.69    2.10
   4   0  16   60.09    2.30
   4   0  16   60.09    2.00
   5   0  16    0.40    0.70
   5   0  16    0.20    0.40
   6   0  16   -0.50    0.50
   6   0  16   -0.80    0.70
   7  -1 -16    0.50    0.90
   7  -1 -16    0.30    0.60
   7   1 -16    0.10    0.90
   6  -1 -16   -0.20    0.50
   6  -1 -16   -0.50    0.70
   6   1 -16   -0.70    0.70
   6   1 -16    0.20    0.50
   5  -1 -16    1.40    0.60
   5  -1 -16    1.20    0.60
   5   1 -16    1.70    0.70
   5   1 -16    1.70    0.60
  -4  -1  16   87.69    2.70
   4  -1 -16   82.39    2.50
   4  -1 -16   87.39    2.60
   4   1 -16   85.19    2.60
   4   1 -16   84.49    2.30
   4   1 -16   88.39    2.40
   3  -1 -16   23.80    1.30
   3  -1 -16   22.90    1.30
  -3  -1  16   23.20    1.40
  -3   1  16   22.40    1.00
  -3   1  16   21.50    1.20
   3   1 -16   22.40    1.20
   3   1 -16   21.70    1.30
   2  -1 -16  183.78    3.50
   2  -1 -16  184.58    3.80
   2  -1 -16  183.68    3.60
  -2  -1  16  187.58    3.90
  -2  -1  16  188.18    3.70
   2   1 -16  185.98    3.70
  -2   1  16  186.88    3.80
  -2   1  16  182.48    3.80
  -2   1  16  185.88    3.40
   2   1 -16  181.48    3.80
  -1  -1  16   42.70    1.60
   1  -1 -16   43.50    1.30
   1  -1 -16   39.10    1.50
   1  -1 -16   43.10    1.40
  -1  -1  16   42.60    1.60
  -1  -1  16   42.30    1.20
   1   1 -16   46.40    1.60
   1   1 -16   42.70    1.60
  -1   1  16   42.20    1.60
  -1   1  16   39.40    1.50
  -1   1  16   41.00    1.40
   0  -1  16    1.10    0.50
   0  -1 -16    0.30    0.40
   0  -1  16    1.30    0.30
   0  -1  16    0.50    0.40
   0  -1 -16    0.20    0.40
   0   1 -16    1.00    0.50
   0   1  16    1.50    0.50
   0   1  16    0.60    0.40
   0   1  16    1.70    0.40
   0   1 -16    0.60    0.40
   1  -1  16   15.60    1.00
   1  -1  16   15.90    1.00
   1  -1  16   16.90    0.80
   1  -1  16   16.60    1.00
  -1  -1 -16   16.30    1.00
  -1  -1 -16   14.90    1.00
   1   1  16   14.60    0.90
  -1   1 -16   17.10    1.10
  -1   1 -16   15.10    1.00
   1   1  16   16.20    1.00
   1   1  16   14.10    1.00
  -2  -1 -16    2.30    0.60
   2  -1  16    1.60    0.50
  -2  -1 -16    2.20    0.60
   2  -1  16    2.00    0.60
   2  -1  16    2.80    0.70
  -2   1 -16    1.30    0.50
   2   1  16    1.10    0.50
  -2   1 -16    1.50    0.60
   2   1  16    1.60    0.50
   2   1  16    3.00    0.70
   3  -1  16    5.90    0.90
   3  -1  16    3.60    0.80
   3  -1  16    6.70    0.80
  -3   1 -16    4.30    0.80
   3   1  16    6.00    0.90
   3   1  16    5.20    0.90
   4  -1  16    8.00    0.90
   4  -1  16    8.00    1.00
   4  -1  16    8.00    1.00
   4   1  16    9.30    0.90
   4   1  16    8.80    1.10
  -4   1 -16   10.10    1.10
   5  -1  16    0.50    0.60
   5  -1  16    1.50    0.80
   5  -1  16   -0.10    0.70
   5   1  16    0.00    0.50
   5   1  16   -1.00    0.60
   6  -1  16    1.10    0.90
   6  -1  16    0.70    0.60
   6   1  16    0.50    0.90
   7  -2 -16    1.00    1.00
   7  -2 -16    0.50    0.80
   6  -2 -16    1.90    0.90
   6  -2 -16    0.90    0.70
   6   2 -16    2.20    0.70
   6   2 -16    1.40    0.60
   5  -2 -16    0.30    0.50
   5  -2 -16   -0.50    0.60
   5   2 -16    0.50    0.50
   5   2 -16   -0.70    0.50
   4  -2 -16    2.60    0.70
  -4  -2  16    2.40    0.70
   4  -2 -16    1.90    0.70
   4   2 -16    3.10    0.70
   4   2 -16    1.40    0.60
   3  -2 -16   46.20    1.80
  -3  -2  16   48.00    1.90
   3  -2 -16   43.80    1.70
  -3   2  16   45.60    1.80
  -3   2  16   47.90    1.70
   3   2 -16   46.10    1.80
   3   2 -16   49.50    1.80
  -2  -2  16    8.30    0.90
   2  -2 -16    8.40    0.90
  -2  -2  16    7.80    0.90
   2  -2 -16    7.80    0.70
   2  -2 -16    7.30    0.70
  -2   2  16    8.40    0.90
  -2   2  16    8.20    0.80
   2   2 -16    8.40    0.90
   2   2 -16    8.30    0.90
   1  -2 -16   73.79    1.80
  -1  -2  16   75.69    2.30
  -1  -2  16   77.19    2.20
   1  -2 -16   78.49    2.00
   1  -2 -16   77.79    2.30
   1   2 -16   78.09    2.30
  -1   2  16   75.49    2.20
  -1   2  16   75.99    2.10
  -1   2  16   76.79    2.10
   1   2 -16   81.09    2.30
   0  -2 -16    0.20    0.30
   0  -2  16    0.50    0.40
   0  -2 -16    0.40    0.40
   0  -2  16    0.20    0.30
   0  -2  16    0.60    0.40
   0  -2  16    1.20    0.50
   0   2  16    0.80    0.50
   0   2 -16    0.40    0.50
   0   2  16    0.20    0.30
   0   2 -16    1.00    0.50
   0   2  16   -0.10    0.40
  -1  -2 -16    0.20    0.40
   1  -2  16    0.70    0.40
   1  -2  16    0.10    0.30
   1  -2  16    0.40    0.30
   1  -2  16    0.60    0.50
   1   2  16    0.30    0.40
  -1   2 -16    0.50    0.50
   1   2  16    0.30    0.40
   1   2  16    0.60    0.40
  -1   2 -16   -0.20    0.40
   2  -2  16   38.60    1.70
   2  -2  16   33.10    1.50
   2  -2  16   34.10    1.60
  -2   2 -16   35.50    1.70
   2   2  16   40.40    1.70
   2   2  16   34.90    1.60
  -2   2 -16   35.80    1.50
   3  -2  16   46.20    1.90
   3  -2  16   45.70    1.80
   3  -2  16   45.60    1.90
   3   2  16   44.30    1.80
   3   2  16   47.40    1.80
  -3   2 -16   46.20    2.00
   4  -2  16    0.50    0.60
   4  -2  16    1.00    0.60
   4  -2  16    0.50    0.60
   4   2  16    0.80    0.70
  -4   2 -16    0.50    0.60
   4   2  16    0.40    0.50
   5  -2  16    0.60    0.60
   5  -2  16    1.20    0.70
   5  -2  16    0.10    0.70
   5   2  16   -0.30    0.70
  -5   2 -16    1.50    0.70
   5   2  16    1.20    0.50
   6  -2  16   -0.10    0.60
   6  -2  16   -0.80    0.70
   6  -2  16   -0.20    0.70
   6   2  16    0.60    0.80
   7  -3 -16    1.20    0.90
   6  -3 -16   10.70    1.40
   6  -3 -16    6.40    1.00
   6  -3 -16    6.20    1.20
   6   3 -16    6.00    0.90
   5  -3 -16    0.20    0.60
   5  -3 -16    0.00    0.60
   5   3 -16   -0.40    0.60
   5   3 -16   -0.80    0.60
   4  -3 -16    7.30    1.00
   4  -3 -16    5.00    0.90
  -4  -3  16    4.50    0.90
  -4   3  16    6.30    0.80
   4   3 -16    8.00    1.00
   4   3 -16    7.60    0.90
   3  -3 -16   35.10    1.60
   3  -3 -16   35.60    1.70
  -3  -3  16   34.20    1.60
   3   3 -16   37.30    1.80
   3   3 -16   36.70    1.70
  -3   3  16   35.70    1.60
   2  -3 -16  119.79    3.10
   2  -3 -16  121.29    2.80
  -2  -3  16  112.99    3.00
  -2  -3  16  113.19    2.90
  -2   3  16  119.39    2.90
   2   3 -16  115.19    3.10
   2   3 -16  121.69    3.10
  -2   3  16  125.99    3.10
   1  -3 -16   19.70    1.00
   1  -3 -16   20.10    1.30
  -1  -3  16   18.90    1.20
  -1  -3  16   19.30    1.30
  -1  -3  16   18.50    1.10
   1   3 -16   19.00    1.30
  -1   3  16   18.30    1.20
   1   3 -16   18.00    1.20
  -1   3  16   19.90    1.20
   0  -3  16   19.80    1.30
   0  -3 -16   18.50    1.20
   0  -3  16   16.80    1.00
   0  -3  16   16.70    1.20
   0   3 -16   18.90    1.30
   0   3  16   18.80    1.20
   0   3  16   17.40    1.20
   0   3 -16   18.60    1.20
   1  -3  16   10.70    1.10
  -1  -3 -16    9.60    0.90
   1  -3  16   11.00    0.80
   1  -3  16   12.40    1.00
   1  -3  16   13.10    1.10
  -1   3 -16   11.40    1.10
   1   3  16   12.80    1.10
  -1   3 -16   10.80    1.10
   1   3  16   12.20    1.00
   2  -3  16  146.29    3.60
   2  -3  16  152.88    3.30
   2  -3  16  150.08    3.20
   2  -3  16  157.98    3.70
   2   3  16  153.78    3.70
  -2   3 -16  149.29    3.50
  -2   3 -16  148.29    3.60
   2   3  16  144.79    3.50
   3  -3  16   20.30    1.30
   3  -3  16   17.70    1.40
   3  -3  16   21.00    1.50
   3   3  16   17.60    1.30
   3   3  16   20.10    1.50
  -3   3 -16   16.90    1.40
   4  -3  16    0.10    0.60
   4  -3  16    0.80    0.70
   4  -3  16    0.60    0.60
   4   3  16    0.40    0.50
  -4   3 -16   -0.50    0.60
   4   3  16    0.40    0.70
   5  -3  16    4.90    1.00
   5  -3  16    4.20    0.90
   5  -3  16    6.10    1.10
  -5   3 -16    3.90    1.00
   5   3  16    4.20    1.00
   5   3  16    5.60    0.80
   6  -3  16    1.30    0.90
   6  -3  16    0.70    0.70
   6  -3  16   -1.10    0.70
   6   3  16    1.10    0.90
   6  -4 -16    0.50    0.70
   6  -4 -16    0.70    0.90
   6  -4 -16    0.50    0.90
   6   4 -16    0.00    0.80
   6   4 -16   -0.40    0.60
  -5  -4  16    1.90    1.00
   5  -4 -16    2.70    0.90
   5  -4 -16    1.20    0.70
   5  -4 -16    2.10    0.90
  -5   4  16    1.80    0.70
   5   4 -16    2.80    0.90
   5   4 -16    1.80    0.80
   4  -4 -16   10.10    1.20
   4  -4 -16   12.60    1.20
  -4  -4  16   10.80    1.20
   4  -4 -16    9.50    1.10
  -4   4  16   10.80    1.10
   4   4 -16   10.40    1.10
   4   4 -16   10.40    1.20
   3  -4 -16    0.00    0.60
  -3  -4  16    0.20    0.60
   3  -4 -16   -0.10    0.50
  -3   4  16    1.30    0.60
   3   4 -16   -0.10    0.60
   3   4 -16    0.10    0.60
   2  -4 -16   17.30    1.20
   2  -4 -16   13.60    1.30
  -2  -4  16   15.80    1.30
  -2  -4  16   14.50    1.30
  -2   4  16   16.60    1.30
   2   4 -16   15.90    1.30
   2   4 -16   14.60    1.30
  -2   4  16   15.00    1.30
  -1  -4  16    2.70    0.70
  -1  -4  16    4.00    0.80
   1  -4 -16    3.90    0.70
  -1  -4  16    3.80    0.80
  -1   4  16    2.40    0.70
   1   4 -16    3.90    0.80
   1   4 -16    2.90    0.70
  -1   4  16    4.70    0.70
   0  -4  16    8.10    0.90
   0  -4  16    5.80    0.90
   0  -4 -16    7.70    0.90
   0  -4  16    6.40    1.00
   0   4  16    7.00    1.00
   0   4 -16    7.60    1.00
   0   4 -16    5.70    0.90
   0   4  16    6.70    0.90
   1  -4  16    1.40    0.60
  -1  -4 -16    0.80    0.60
   1  -4  16    1.20    0.60
   1  -4  16    1.50    0.70
   1   4  16    0.70    0.60
  -1   4 -16    2.20    0.70
   1   4  16    2.20    0.60
  -1   4 -16    2.50    0.70
   2  -4  16   20.50    1.30
   2  -4  16   21.00    1.50
   2  -4  16   22.30    1.30
   2  -4  16   19.60    1.60
   2   4  16   21.30    1.40
   2   4  16   22.30    1.60
  -2   4 -16   19.40    1.40
  -2   4 -16   20.30    1.50
   3  -4  16   10.20    1.20
   3  -4  16   10.80    1.20
   3  -4  16    8.90    1.00
  -3   4 -16    8.80    1.10
   3   4  16    9.40    1.20
   3   4  16   10.50    1.10
   4  -4  16   -0.20    0.80
   4  -4  16    0.90    0.70
   4  -4  16    0.60    0.70
   4   4  16    0.20    0.50
   4   4  16   -0.70    0.70
  -4   4 -16   -0.20    0.70
   5  -4  16    0.60    0.70
   5  -4  16    1.00    0.90
   5  -4  16    0.40    0.80
  -5   4 -16    0.70    0.80
   5   4  16    0.80    0.80
   5   4  16    0.40    0.80
   5   4  16   -0.50    0.70
   6  -5 -16    7.10    1.40
  -6   5  16    5.10    1.40
   6   5 -16    7.70    1.40
   6   5 -16    8.40    1.20
   5  -5 -16    0.00    0.80
   5  -5 -16   -0.30    0.80
  -5  -5  16    0.40    0.80
   5  -5 -16   -1.30    0.70
   5   5 -16    0.00    0.70
   5   5 -16   -0.30    0.70
  -5   5  16   -0.90    0.70
   4  -5 -16    7.20    1.10
  -4  -5  16    5.90    1.00
   4  -5 -16    7.80    1.10
   4  -5 -16    6.10    1.20
   4   5 -16    8.10    1.10
   4   5 -16    7.70    1.20
  -4   5  16    9.10    1.20
  -3  -5  16    0.80    0.70
   3  -5 -16   -0.70    0.50
   3  -5 -16   -0.20    0.60
   3   5 -16   -0.10    0.70
  -3   5  16    0.70    0.70
   3   5 -16   -0.70    0.70
   2  -5 -16    2.10    0.60
  -2  -5  16    2.10    0.80
  -2  -5  16    0.80    0.70
   2  -5 -16    0.30    0.80
  -2   5  16    2.30    0.70
   2   5 -16    1.20    0.80
   2   5 -16    0.70    0.70
  -2   5  16    1.40    0.80
  -1  -5  16   -0.40    0.60
  -1  -5  16    0.10    0.60
   1  -5 -16    0.70    0.70
  -1  -5  16    0.80    0.60
   1   5 -16    0.30    0.60
   1   5 -16    0.50    0.70
  -1   5  16    0.10    0.70
  -1   5  16   -0.80    0.60
   0  -5  16    1.90    0.80
   0  -5  16    0.80    0.70
   0  -5  16    0.40    0.60
   0  -5 -16    0.60    0.70
   0   5 -16    0.90    0.70
   0   5  16    1.90    0.70
   0   5  16    2.10    0.70
   0   5 -16    0.70    0.70
   1  -5  16    2.40    0.80
   1  -5  16    1.40    0.60
   1  -5  16    0.60    0.70
   1   5  16    1.30    0.60
   1   5  16    1.30    0.70
   1   5  16    2.10    0.70
  -1   5 -16    0.70    0.70
  -1   5 -16    1.00    0.70
   2  -5  16    2.80    0.70
   2  -5  16    1.60    0.80
   2  -5  16    1.60    0.70
   2   5  16    2.50    0.80
  -2   5 -16    2.30    0.80
   2   5  16    3.00    0.80
   2   5  16    1.40    0.60
  -2   5 -16    2.40    0.80
   3  -5  16   17.70    1.50
   3  -5  16   18.10    1.60
   3  -5  16   20.00    1.50
   3   5  16   18.70    1.50
   3   5  16   18.40    1.60
  -3   5 -16   20.30    1.50
   3   5  16   17.90    1.70
   4  -5  16    6.40    1.10
   4  -5  16    3.10    1.00
   4  -5  16    5.40    1.00
   4   5  16    7.80    1.30
  -4   5 -16    6.90    1.10
   4   5  16    6.70    1.00
   4   5  16    5.20    1.10
   5  -5  16    0.40    0.80
   5   5  16   -0.70    0.80
   5  -6 -16    0.70    0.90
  -5   6  16    0.90    1.00
   4  -6 -16    2.40    0.90
  -4  -6  16    0.40    0.80
   4  -6 -16    2.10    0.90
  -4   6  16   -0.40    0.80
   4   6 -16   -1.10    0.80
   4   6 -16   -0.50    0.70
  -3  -6  16    3.50    1.00
  -3  -6  16    3.70    0.90
   3  -6 -16    3.70    1.00
   3  -6 -16    2.60    0.90
   3   6 -16    3.80    0.90
  -3   6  16    2.50    0.90
   3   6 -16    4.10    1.10
   2  -6 -16   12.70    1.40
  -2  -6  16   13.20    1.40
  -2  -6  16   11.10    1.20
   2   6 -16   10.90    1.40
  -2   6  16    7.50    1.20
  -2   6  16   10.60    1.30
   2   6 -16    9.20    1.20
   1  -6 -16   17.10    1.60
  -1  -6  16   20.40    1.60
  -1  -6  16   16.20    1.30
  -1  -6  16   18.80    1.70
   1   6 -16   18.00    1.50
   1   6 -16   19.80    1.70
  -1   6  16   17.50    1.60
  -1   6  16   16.20    1.60
   0  -6  16    0.40    0.50
   0  -6 -16   -0.10    0.80
   0  -6  16    1.00    0.70
   0  -6  16    1.50    0.90
   0   6 -16   -1.20    0.60
   0   6  16    0.50    0.70
   0   6  16    1.00    0.80
   0   6 -16    1.60    0.80
   1  -6  16    5.60    1.00
   1  -6  16    6.70    1.00
   1  -6  16    6.50    1.20
  -1   6 -16    7.60    1.10
   1   6  16    5.80    1.10
  -1   6 -16    5.90    1.10
   1   6  16    4.90    1.10
   2  -6  16    0.70    0.80
   2  -6  16    2.10    1.00
   2  -6  16    2.00    0.90
   2   6  16    1.90    0.90
   2   6  16    1.80    0.80
   2   6  16    1.00    0.80
  -2   6 -16    0.60    0.80
   3  -6  16    6.90    1.20
   3  -6  16    4.40    1.00
   3  -6  16    5.80    1.20
   3   6  16    7.20    1.30
  -3   6 -16    5.40    1.00
   3   6  16    4.90    1.20
   3   6  16    5.60    1.10
   4  -6  16    0.30    0.80
   4   6  16   -0.60    0.90
   4   6  16    1.00    1.00
   4  -7 -16   -0.40    1.10
  -3   7  16    1.10    1.00
  -2  -7  16    0.10    0.70
   2  -7 -16    0.20    0.90
  -2  -7  16    0.00    0.80
  -2   7  16   -0.40    0.80
   2   7 -16    2.10    1.00
   2   7 -16    0.30    0.80
  -2   7  16   -0.30    0.90
  -1  -7  16   11.20    1.40
   1  -7 -16   10.80    1.50
  -1  -7  16   10.40    1.40
  -1   7  16   10.90    1.50
   1   7 -16    9.40    1.30
  -1   7  16   11.60    1.50
   1   7 -16   10.50    1.50
   0  -7  16    3.20    1.00
   0  -7  16    2.50    1.00
   0  -7  16    3.50    1.00
   0   7  16    2.40    1.00
   0   7  16    2.30    1.00
   0   7 -16    1.60    1.00
   0   7 -16    1.80    0.90
   1  -7  16   -1.00    0.80
   1  -7  16    1.40    0.90
   1  -7  16    2.70    1.10
  -1   7 -16   -0.50    0.80
   1   7  16    0.70    0.70
  -1   7 -16   -0.10    0.70
   1   7  16    2.00    0.90
   2  -7  16    1.20    1.00
   2  -7  16    1.30    1.00
   2  -7  16    1.70    1.00
  -2   7 -16    1.00    0.90
   2   7  16    0.50    1.00
   3  -7  16    0.90    0.90
   3   7  16    0.30    1.00
   1  -8 -16    7.20    1.50
   0  -8  16    0.60    0.90
   7   0 -17    8.60    1.40
   6   0 -17   -0.20    0.70
   6   0 -17    0.30    0.50
   5   0 -17   13.10    1.20
   5   0 -17   14.80    1.40
   4   0 -17   -0.30    0.50
   4   0 -17   -0.20    0.50
   3   0 -17  193.38    3.80
   3   0 -17  194.18    4.10
  -3   0  17  190.58    4.20
   3   0 -17  199.18    4.00
   2   0 -17   -0.10    0.30
  -2   0  17   -0.10    0.30
   2   0 -17    0.10    0.50
  -2   0  17    0.10    0.40
   2   0 -17   -0.10    0.30
   1   0 -17    8.30    0.80
  -1   0  17    7.80    0.80
   1   0 -17    6.70    0.80
  -1   0  17    7.00    0.80
  -1   0  17    7.70    0.60
   1   0 -17    8.20    0.70
   0   0  17   -0.20    0.40
   0   0 -17   -0.20    0.40
   0   0  17    0.30    0.30
   0   0 -17    0.40    0.50
   0   0  17   -0.70    0.30
  -1   0 -17    6.80    0.80
   1   0  17    7.00    0.80
   1   0  17    7.60    0.80
  -1   0 -17    8.00    0.80
   1   0  17    6.30    0.70
  -2   0 -17   -1.20    0.50
   2   0  17   -0.40    0.50
  -2   0 -17   -0.10    0.60
   2   0  17    0.70    0.50
   2   0  17   -0.20    0.50
  -3   0 -17    5.30    0.90
   3   0  17    6.40    0.80
   3   0  17    6.20    0.80
   3   0  17    5.50    0.90
   4   0  17    0.30    0.50
   4   0  17    0.40    0.50
   4   0  17    0.20    0.60
   5   0  17    3.10    0.70
   5   0  17    3.30    0.90
   6   0  17   -0.70    0.60
   6   0  17   -0.80    0.70
   7  -1 -17    0.40    0.90
   7  -1 -17    1.10    0.70
   7   1 -17    0.60    0.90
   6  -1 -17   -0.90    0.70
   6  -1 -17    0.60    0.80
   6   1 -17   -0.30    0.70
   6   1 -17    0.10    0.60
   5  -1 -17    2.30    0.80
   5  -1 -17    2.30    0.80
   5   1 -17    3.30    0.90
   5   1 -17    3.20    0.80
   4  -1 -17    0.80    0.60
  -4  -1  17    1.90    0.80
   4  -1 -17    1.60    0.70
   4   1 -17    2.40    0.70
   4   1 -17    0.90    0.60
   4   1 -17    1.80    0.60
   3  -1 -17  320.87    5.70
  -3  -1  17  308.87    5.90
   3  -1 -17  308.27    5.70
   3   1 -17  314.97    5.70
   3   1 -17  312.77    5.60
   2  -1 -17    0.00    0.50
  -2  -1  17    0.70    0.50
   2  -1 -17    0.30    0.40
   2  -1 -17    1.30    0.60
  -2  -1  17    0.60    0.40
   2   1 -17    0.30    0.50
  -2   1  17    0.90    0.50
  -2   1  17    0.40    0.50
   2   1 -17    0.90    0.50
  -2   1  17   -0.10    0.40
  -1  -1  17    5.20    0.70
  -1  -1  17    5.00    0.70
   1  -1 -17    5.60    0.60
   1  -1 -17    4.80    0.70
   1  -1 -17    6.60    0.70
  -1   1  17    5.20    0.70
  -1   1  17    5.30    0.70
  -1   1  17    5.10    0.70
   1   1 -17    5.60    0.80
   1   1 -17    5.40    0.70
   0  -1  17    2.10    0.60
   0  -1 -17    1.10    0.40
   0  -1 -17    0.50    0.50
   0  -1  17    1.40    0.40
   0  -1  17    2.60    0.60
   0   1 -17    1.10    0.50
   0   1  17    1.60    0.50
   0   1 -17    2.00    0.50
   0   1  17    1.10    0.50
   0   1  17    2.30    0.50
   1  -1  17   26.50    1.30
  -1  -1 -17   26.90    1.30
   1  -1  17   27.10    1.40
   1  -1  17   26.60    1.20
  -1  -1 -17   27.00    1.30
   1   1  17   26.40    1.30
   1   1  17   27.40    1.20
  -1   1 -17   26.40    1.30
   1   1  17   25.30    1.20
  -1   1 -17   25.70    1.30
   2  -1  17  232.78    4.60
  -2  -1 -17  230.18    4.70
   2  -1  17  233.78    4.60
   2  -1  17  227.88    4.40
   2   1  17  224.48    4.50
   2   1  17  228.88    4.20
   2   1  17  238.58    4.60
  -2   1 -17  226.88    4.70
  -2   1 -17  230.28    4.50
   3  -1  17   16.20    1.20
   3  -1  17   18.30    1.30
   3  -1  17   16.80    1.20
   3   1  17   18.30    1.30
  -3   1 -17   17.30    1.30
   3   1  17   18.50    1.20
   4  -1  17    5.30    0.80
   4  -1  17    5.60    0.90
   4  -1  17    5.70    0.90
   4   1  17    5.70    0.80
  -4   1 -17    4.60    0.90
   4   1  17    7.10    1.00
   5  -1  17    0.50    0.60
   5  -1  17    0.10    0.70
   5  -1  17   -0.50    0.60
   5   1  17   -0.40    0.50
   5   1  17    1.20    0.80
   6  -1  17    3.40    1.00
   6  -1  17    1.80    0.80
   6   1  17    2.00    1.00
   6   1  17    2.10    0.80
   7  -2 -17    3.50    1.00
   6  -2 -17    0.40    0.60
   6  -2 -17   -1.00    0.70
   6   2 -17   -0.20    0.80
   6   2 -17    0.40    0.60
   5  -2 -17    0.00    0.50
   5  -2 -17    0.50    0.70
   5   2 -17    0.40    0.60
   5   2 -17    1.40    0.60
  -4  -2  17    7.70    1.10
   4  -2 -17    8.90    1.00
   4  -2 -17   10.50    1.20
   4   2 -17    8.30    1.00
   4   2 -17    8.30    1.10
   3  -2 -17   -0.10    0.60
  -3  -2  17    0.80    0.60
   3  -2 -17    0.40    0.60
   3   2 -17    0.10    0.50
   3   2 -17    0.00    0.50
  -3   2  17    0.50    0.60
   2  -2 -17   -0.30    0.30
   2  -2 -17   -0.10    0.50
  -2  -2  17    0.60    0.50
  -2  -2  17   -0.20    0.50
   2   2 -17    0.30    0.50
  -2   2  17    0.50    0.40
  -2   2  17    1.40    0.60
   2   2 -17   -0.10    0.50
   1  -2 -17   44.70    1.50
   1  -2 -17   47.90    1.80
  -1  -2  17   48.60    1.80
   1  -2 -17   44.40    1.40
  -1  -2  17   44.40    1.80
   1   2 -17   47.10    1.80
  -1   2  17   45.60    1.80
  -1   2  17   45.30    1.60
  -1   2  17   42.30    1.60
   1   2 -17   43.90    1.80
   0  -2  17    4.00    0.50
   0  -2 -17    4.00    0.60
   0  -2  17    4.10    0.70
   0  -2 -17    4.20    0.60
   0  -2  17    4.20    0.70
   0   2 -17    4.10    0.70
   0   2  17    3.80    0.70
   0   2  17    3.60    0.60
   0   2 -17    5.20    0.80
   0   2  17    3.80    0.60
  -1  -2 -17    3.10    0.60
   1  -2  17    2.50    0.50
  -1  -2 -17    2.70    0.60
   1  -2  17    2.60    0.60
   1  -2  17    2.30    0.50
   1  -2  17    2.30    0.70
   1   2  17    2.70    0.50
  -1   2 -17    2.00    0.60
  -1   2 -17    2.80    0.70
   1   2  17    1.10    0.50
   1   2  17    2.20    0.60
   2  -2  17   17.60    1.30
   2  -2  17   17.90    1.40
   2  -2  17   16.10    1.20
  -2   2 -17   17.70    1.30
   2   2  17   13.60    1.20
   2   2  17   15.80    1.30
  -2   2 -17   15.40    1.30
   3  -2  17    8.30    1.00
   3  -2  17    9.80    1.10
   3  -2  17   12.10    1.20
   3   2  17   11.30    1.00
  -3   2 -17    9.40    1.10
   3   2  17   10.10    1.20
   4  -2  17    5.70    1.00
   4  -2  17    6.00    0.90
   4  -2  17    4.90    0.90
   4   2  17    6.40    0.90
   4   2  17    6.00    1.00
  -4   2 -17    4.40    0.90
   5  -2  17    2.30    0.80
   5  -2  17    3.00    0.70
   5  -2  17    1.60    0.80
   5   2  17    1.20    0.60
   5   2  17    1.20    0.80
  -5   2 -17    1.00    0.70
   6  -2  17    4.00    1.00
   6  -2  17    3.80    0.90
   6  -2  17    4.50    0.90
   6   2  17    3.70    1.10
   6  -3 -17    2.10    0.80
   6  -3 -17    0.40    0.80
   6  -3 -17    1.50    0.90
   6   3 -17    1.10    0.80
   5  -3 -17    0.90    0.70
  -5  -3  17    1.70    0.80
   5  -3 -17    0.90    0.70
   5   3 -17    0.60    0.70
   5   3 -17    0.20    0.60
   4  -3 -17    1.30    0.70
  -4  -3  17    2.30    0.80
   4  -3 -17    0.60    0.60
   4   3 -17    0.50    0.60
  -4   3  17    0.80    0.70
   4   3 -17    1.40    0.70
  -3  -3  17   29.20    1.70
   3  -3 -17   32.90    1.70
   3  -3 -17   29.30    1.50
   3   3 -17   29.00    1.60
   3   3 -17   33.40    1.60
  -3   3  17   28.30    1.50
   2  -3 -17   49.50    1.70
  -2  -3  17   50.19    1.90
  -2  -3  17   50.49    2.00
   2  -3 -17   52.49    2.10
   2   3 -17   55.39    2.10
  -2   3  17   53.49    1.90
  -2   3  17   52.39    2.00
   2   3 -17   50.59    2.00
  -1  -3  17    8.20    0.90
  -1  -3  17    9.90    1.10
   1  -3 -17   10.60    1.10
  -1  -3  17   12.40    1.10
   1   3 -17   10.10    1.00
  -1   3  17   10.90    1.10
  -1   3  17   10.20    1.00
   1   3 -17    9.90    1.00
   0  -3 -17    2.30    0.60
   0  -3  17    1.50    0.50
   0  -3  17    2.10    0.60
   0  -3  17    2.50    0.70
   0   3  17    3.30    0.70
   0   3 -17    2.00    0.70
   0   3  17    2.60    0.70
   0   3 -17    3.00    0.70
   1  -3  17    9.40    1.10
  -1  -3 -17   12.20    1.10
   1  -3  17    9.00    0.90
   1  -3  17    9.40    1.10
   1  -3  17    8.50    0.80
   1   3  17    8.00    0.90
  -1   3 -17    9.30    1.00
  -1   3 -17    9.00    1.00
   1   3  17    9.90    1.10
   2  -3  17   83.09    2.70
   2  -3  17   84.89    2.70
   2  -3  17   82.29    2.40
  -2   3 -17   82.39    2.70
   2   3  17   88.79    2.80
   2   3  17   83.99    2.60
  -2   3 -17   83.19    2.60
   3  -3  17    5.70    1.00
   3  -3  17    6.30    1.00
   3  -3  17    6.30    1.00
   3   3  17    5.00    0.90
   3   3  17    6.60    0.90
  -3   3 -17    5.10    0.90
   4  -3  17   -0.80    0.60
   4  -3  17   -0.50    0.50
   4  -3  17   -0.20    0.60
   4   3  17    0.10    0.60
  -4   3 -17    0.30    0.70
   4   3  17   -0.40    0.70
   5  -3  17    0.10    0.80
   5  -3  17   -0.60    0.70
   5  -3  17    0.10    0.60
   5   3  17    0.10    0.60
   5   3  17    1.10    0.80
  -5   3 -17    0.60    0.70
   6  -3  17   -1.40    0.80
   6  -3  17   -0.60    0.80
   6  -4 -17    2.80    1.10
   6  -4 -17    2.70    1.10
   6   4 -17    1.80    1.10
   6   4 -17    2.70    0.90
   5  -4 -17    0.90    0.70
  -5  -4  17    0.80    0.70
   5  -4 -17    0.80    0.80
   5  -4 -17    0.50    0.80
  -5   4  17    0.60    0.70
   5   4 -17    1.00    0.80
   5   4 -17    1.10    0.80
  -4  -4  17    3.50    0.90
   4  -4 -17    2.70    0.80
   4  -4 -17    3.00    0.90
   4  -4 -17    2.30    0.90
   4   4 -17    3.20    0.90
   4   4 -17    4.30    0.90
  -4   4  17    4.90    0.90
   3  -4 -17    2.00    0.60
  -3  -4  17    3.10    0.80
   3  -4 -17    1.30    0.70
   3   4 -17    0.70    0.60
   3   4 -17    0.20    0.70
  -3   4  17    1.10    0.70
  -2  -4  17    4.30    0.80
   2  -4 -17    4.80    0.80
   2  -4 -17    3.10    0.80
  -2  -4  17    4.20    0.80
  -2   4  17    3.60    0.80
   2   4 -17    4.20    0.90
   2   4 -17    4.10    0.90
  -2   4  17    4.60    0.80
  -1  -4  17    3.00    0.80
   1  -4 -17    4.20    0.80
  -1  -4  17    3.60    0.80
  -1  -4  17    2.60    0.70
   1   4 -17    2.50    0.80
   1   4 -17    2.70    0.80
  -1   4  17    2.00    0.70
  -1   4  17    3.50    0.80
   0  -4  17   -0.60    0.50
   0  -4  17    0.20    0.40
   0  -4  17   -0.50    0.60
   0  -4 -17   -0.50    0.50
   0   4  17    1.00    0.60
   0   4 -17    0.60    0.60
   0   4 -17    0.30    0.60
   0   4  17   -0.20    0.60
  -1  -4 -17   20.90    1.40
   1  -4  17   24.20    1.60
   1  -4  17   22.00    1.60
   1  -4  17   24.30    1.40
   1   4  17   21.60    1.50
   1   4  17   22.80    1.50
  -1   4 -17   24.20    1.60
  -1   4 -17   25.30    1.60
   2  -4  17    8.80    0.90
   2  -4  17   10.30    1.20
   2  -4  17    9.40    1.00
   2  -4  17    8.60    1.20
   2   4  17    8.20    1.20
   2   4  17    8.10    1.00
  -2   4 -17    9.20    1.10
  -2   4 -17   10.60    1.20
   3  -4  17   -0.80    0.60
   3  -4  17   -0.50    0.70
   3  -4  17   -0.40    0.70
  -3   4 -17    1.00    0.60
   3   4  17   -0.30    0.50
   3   4  17   -0.40    0.60
   4  -4  17    0.20    0.80
   4  -4  17   -0.40    0.60
   4  -4  17   -0.30    0.60
  -4   4 -17    0.20    0.70
   4   4  17    0.50    0.60
   4   4  17    0.50    0.80
   5  -4  17    1.40    0.80
   5  -4  17    0.50    0.90
   5  -4  17    0.00    0.80
  -5   4 -17   -0.50    0.90
   5   4  17    2.00    0.80
   5   4  17   -0.10    0.90
   5   4  17   -1.50    0.70
   5  -5 -17    0.50    0.90
  -5  -5  17    0.80    0.80
   5  -5 -17    0.70    0.80
   5  -5 -17    0.90    0.80
   5   5 -17   -0.40    0.70
  -5   5  17   -0.50    0.80
   5   5 -17    0.60    0.90
   4  -5 -17    0.60    0.80
  -4  -5  17    1.00    0.80
   4  -5 -17   -0.10    0.70
   4  -5 -17    1.00    0.80
  -4   5  17   -0.10    0.70
   4   5 -17    1.70    0.80
   4   5 -17    1.20    0.70
  -3  -5  17    1.80    0.80
   3  -5 -17    2.40    0.70
   3  -5 -17    1.90    0.90
   3   5 -17    2.10    0.80
   3   5 -17    4.20    1.00
  -3   5  17    1.60    0.80
  -2  -5  17   17.20    1.50
   2  -5 -17   18.60    1.60
  -2  -5  17   19.60    1.50
   2   5 -17   17.00    1.50
   2   5 -17   22.80    1.60
  -2   5  17   20.20    1.60
  -2   5  17   18.90    1.50
  -1  -5  17    6.90    1.00
  -1  -5  17    7.00    1.10
  -1  -5  17    7.20    1.00
   1  -5 -17    5.50    1.00
   1   5 -17    5.20    0.90
   1   5 -17    6.50    1.10
  -1   5  17    4.50    0.90
  -1   5  17    4.80    1.00
   0  -5  17    3.10    0.80
   0  -5  17    2.10    0.80
   0  -5  17    2.90    0.80
   0  -5 -17    3.50    0.90
   0   5  17    3.80    0.70
   0   5 -17    4.60    0.90
   0   5  17    1.80    0.80
   0   5 -17    2.80    0.80
   1  -5  17    0.10    0.70
   1  -5  17    0.10    0.70
   1  -5  17    0.40    0.60
   1   5  17   -0.20    0.50
   1   5  17   -0.50    0.60
  -1   5 -17    0.20    0.70
   1   5  17    0.10    0.70
  -1   5 -17   -0.30    0.70
   2  -5  17   -0.30    0.70
   2  -5  17    0.50    0.80
   2  -5  17    1.00    0.60
   2   5  17    0.40    0.70
   2   5  17   -0.20    0.70
  -2   5 -17    0.30    0.70
   2   5  17    0.30    0.70
   3  -5  17    0.80    0.80
   3  -5  17    0.30    0.60
   3   5  17    0.70    0.80
  -3   5 -17    0.20    0.70
   3   5  17   -0.60    0.70
   3   5  17   -0.40    0.60
   4  -5  17    2.30    0.90
   4  -5  17    1.60    0.90
   4  -5  17    1.80    0.80
   4   5  17    3.30    1.00
  -4   5 -17    0.60    0.70
   4   5  17    1.50    0.80
   4   5  17    1.50    1.00
   5  -5  17   -0.30    0.80
  -4  -6  17   -0.10    0.80
   4  -6 -17    0.00    0.80
   4   6 -17    0.40    0.80
  -4   6  17    2.00    1.00
   4   6 -17    0.40    0.90
  -3  -6  17    1.70    0.90
  -3  -6  17    1.50    0.80
   3  -6 -17    0.70    0.80
   3   6 -17   -0.70    0.80
  -3   6  17   -0.40    0.80
   3   6 -17    3.30    1.00
  -2  -6  17    0.20    0.70
  -2  -6  17    1.30    0.80
   2  -6 -17    1.20    0.90
  -2   6  17    2.60    0.90
   2   6 -17    2.70    0.90
   2   6 -17    0.20    0.80
  -2   6  17    2.40    0.90
   1  -6 -17    0.60    0.80
  -1  -6  17    0.80    0.80
  -1  -6  17   -0.30    0.70
   1   6 -17   -0.30    0.50
  -1   6  17   -0.50    0.80
   1   6 -17   -0.80    0.70
  -1   6  17   -1.00    0.70
   0  -6 -17    0.90    0.90
   0  -6  17    1.00    0.80
   0  -6  17    1.20    0.90
   0  -6  17    1.70    0.90
   0   6  17   -0.10    0.70
   0   6  17    0.20    0.80
   0   6 -17    1.90    0.90
   0   6 -17    1.10    0.80
   1  -6  17    3.90    1.10
   1  -6  17    3.80    0.90
   1  -6  17    3.60    1.00
  -1   6 -17    3.70    0.90
   1   6  17    5.60    1.10
  -1   6 -17    5.10    1.10
   1   6  17    4.30    1.00
   2  -6  17    7.10    1.10
   2  -6  17    5.70    1.20
   2  -6  17    4.90    1.20
  -2   6 -17    6.00    1.10
   2   6  17    6.50    1.20
   2   6  17    8.90    1.30
   2   6  17    6.00    1.20
   3  -6  17    0.40    0.80
   3  -6  17    0.70    0.90
   3   6  17    0.30    0.90
   3   6  17    1.00    0.80
   3   6  17    1.50    1.00
  -3   6 -17    0.50    0.70
   4  -7 -17    0.30    1.00
  -2  -7  17    0.50    0.80
  -2  -7  17   -1.70    0.70
   2  -7 -17    0.70    1.00
  -2   7  17    0.90    1.00
   2   7 -17    0.60    0.80
  -2   7  17   -0.40    0.80
  -1  -7  17   -0.50    0.80
   1  -7 -17   -0.40    0.90
  -1  -7  17   -0.30    0.80
  -1   7  17    0.80    0.90
  -1   7  17    0.60    0.90
   1   7 -17   -0.60    0.80
   1   7 -17    1.90    1.10
   0  -7  17    1.00    1.00
   0  -7  17    0.70    0.80
   0  -7  17   -0.20    0.80
   0   7 -17    1.40    1.00
   0   7  17    0.20    0.90
   0   7  17   -0.40    0.80
   0   7 -17    0.00    0.80
   1  -7  17   -0.40    0.80
   1  -7  17   -0.50    0.80
   1  -7  17    0.60    1.00
   1   7  17    0.60    0.80
  -1   7 -17   -0.40    0.80
  -1   7 -17   -0.40    0.90
   1   7  17   -0.60    0.90
   2  -7  17    3.80    1.10
  -2   7 -17    3.90    1.30
   3   7  17    0.70    1.00
  -1  -8  17    0.10    1.00
   7   0 -18   -0.70    0.70
   6   0 -18    0.30    0.50
   6   0 -18    0.00    0.60
   5   0 -18    0.10    0.60
   5   0 -18    0.70    0.60
   4   0 -18    4.10    0.80
   4   0 -18    4.40    0.90
   3   0 -18   -0.70    0.50
   3   0 -18   -0.30    0.50
  -3   0  18    0.80    0.70
   3   0 -18    0.50    0.70
  -2   0  18    5.70    0.80
   2   0 -18    6.50    0.80
  -2   0  18    5.80    0.80
   2   0 -18    5.90    0.70
   2   0 -18    5.30    0.80
  -1   0  18    0.10    0.40
  -1   0  18    0.20    0.40
  -1   0  18    0.20    0.30
   1   0 -18    0.30    0.30
   1   0 -18    0.20    0.40
   1   0 -18    0.20    0.40
   0   0  18    0.60    0.40
   0   0  18    1.10    0.50
   0   0 -18    0.90    0.50
   0   0  18    0.80    0.50
   0   0 -18    0.30    0.40
  -1   0 -18   -0.10    0.40
   1   0  18    0.00    0.40
   1   0  18   -0.20    0.40
  -1   0 -18    0.30    0.50
   1   0  18   -0.30    0.40
  -2   0 -18   21.50    1.60
   2   0  18   19.90    1.40
   2   0  18   20.30    1.30
   3   0  18   -0.30    0.50
   3   0  18    0.30    0.50
  -3   0 -18   -0.60    0.60
   3   0  18    0.70    0.50
   4   0  18    9.60    1.00
   4   0  18    9.40    1.20
   5   0  18   -0.30    0.60
   5   0  18   -0.10    0.70
   6   0  18   11.70    1.50
   6   0  18   11.90    1.20
   7  -1 -18    0.90    0.80
   6  -1 -18    0.40    0.80
   6  -1 -18    0.10    0.60
   6   1 -18   -1.10    0.50
   6   1 -18    0.00    0.80
   5  -1 -18    2.50    0.80
   5  -1 -18    2.60    0.80
   5   1 -18    2.40    0.80
   5   1 -18    1.60    0.70
   4  -1 -18    9.90    1.10
   4  -1 -18   11.00    1.10
  -4  -1  18    9.40    1.20
   4   1 -18   10.20    1.00
   4   1 -18    8.50    1.10
   4   1 -18    9.20    1.00
  -3  -1  18   35.90    1.70
   3  -1 -18   34.90    1.60
   3  -1 -18   35.40    1.70
   3   1 -18   34.70    1.90
   3   1 -18   36.50    1.60
   2  -1 -18    8.60    0.90
  -2  -1  18    8.10    0.90
   2  -1 -18    7.90    0.70
   2  -1 -18    8.20    0.80
  -2  -1  18    8.40    1.00
   2   1 -18   10.20    1.00
  -2   1  18    9.30    1.00
   2   1 -18    7.00    0.90
  -2   1  18    7.80    0.70
  -2   1  18    7.90    0.90
   1  -1 -18    1.00    0.50
  -1  -1  18    0.40    0.40
   1  -1 -18    0.50    0.40
   1  -1 -18    0.30    0.40
  -1  -1  18    0.90    0.50
   1   1 -18    1.20    0.50
  -1   1  18    0.50    0.40
   1   1 -18    0.30    0.40
  -1   1  18    0.30    0.40
  -1   1  18    0.50    0.40
   0  -1  18    0.40    0.50
   0  -1 -18    0.20    0.40
   0  -1  18   -0.30    0.30
   0  -1  18   -0.40    0.40
   0  -1 -18   -0.20    0.40
   0   1  18    0.50    0.40
   0   1 -18    0.50    0.50
   0   1  18    0.30    0.40
   0   1  18    0.30    0.50
   0   1 -18    0.70    0.50
   1  -1  18   14.40    1.10
   1  -1  18   11.50    0.90
  -1  -1 -18   13.30    1.10
   1  -1  18   11.70    1.10
  -1  -1 -18   11.50    1.00
   1   1  18   12.00    1.00
  -1   1 -18   14.20    1.10
   1   1  18   12.40    1.00
   1   1  18   11.50    1.10
  -1   1 -18   12.20    1.10
  -2  -1 -18  614.94   10.00
   2  -1  18  616.24    9.80
   2  -1  18  623.74    9.60
   2  -1  18  602.44    9.70
  -2   1 -18  620.14   10.00
   2   1  18  626.84    9.90
  -2   1 -18  625.04    9.70
   2   1  18  628.94    9.80
   2   1  18  627.74    9.40
   3  -1  18    4.60    0.80
   3  -1  18    2.70    0.70
   3  -1  18    3.70    0.70
   3   1  18    4.90    0.80
  -3   1 -18    3.10    0.80
   3   1  18    3.00    0.80
   4  -1  18    1.80    0.60
   4  -1  18    2.20    0.70
   4  -1  18    0.90    0.70
  -4   1 -18    0.50    0.70
   4   1  18    1.10    0.50
   4   1  18    1.60    0.80
   5  -1  18    2.30    0.80
   5  -1  18    1.30    0.70
   5  -1  18    1.20    0.70
   5   1  18    0.80    0.60
   5   1  18    0.60    0.70
   6  -1  18    0.60    0.60
   6  -1  18    1.00    0.90
   6   1  18   -1.00    0.50
   6  -2 -18    0.90    0.70
   6  -2 -18   -0.20    0.80
   6   2 -18    0.20    0.60
   6   2 -18    0.20    0.80
   5  -2 -18    7.10    1.10
   5  -2 -18    8.50    1.10
   5   2 -18    7.60    1.00
  -4  -2  18    8.90    1.20
   4  -2 -18   10.50    1.20
   4  -2 -18    9.10    1.10
   4   2 -18    9.60    1.10
   4   2 -18    8.80    1.00
  -3  -2  18   13.70    1.30
   3  -2 -18   13.50    1.20
   3  -2 -18   15.20    1.20
   3   2 -18   15.00    1.30
   3   2 -18   14.50    1.30
  -3   2  18   14.00    1.10
   2  -2 -18   22.90    1.30
  -2  -2  18   21.40    1.40
  -2  -2  18   23.00    1.30
   2  -2 -18   23.10    1.20
  -2   2  18   22.50    1.40
   2   2 -18   23.60    1.40
  -2   2  18   23.00    1.20
   2   2 -18   23.40    1.40
  -1  -2  18   23.90    1.40
   1  -2 -18   21.00    1.10
  -1  -2  18   22.40    1.40
   1  -2 -18   24.20    1.40
   1   2 -18   25.60    1.40
  -1   2  18   23.50    1.20
   1   2 -18   20.80    1.30
  -1   2  18   24.10    1.20
  -1   2  18   23.90    1.40
   0  -2 -18    1.60    0.60
   0  -2  18    0.70    0.60
   0  -2 -18    1.90    0.60
   0  -2  18    2.10    0.60
   0   2 -18    1.20    0.60
   0   2  18    1.70    0.50
   0   2 -18    2.00    0.60
   0   2  18    1.00    0.60
   0   2  18    1.50    0.60
  -1  -2 -18   12.90    1.10
  -1  -2 -18   14.60    1.10
   1  -2  18   14.10    1.20
   1  -2  18   14.50    1.20
   1  -2  18   15.50    1.00
   1   2  18   13.80    1.20
  -1   2 -18   15.60    1.30
  -1   2 -18   17.30    1.20
   1   2  18   13.30    1.10
   2  -2  18    0.70    0.60
   2  -2  18    0.90    0.50
   2  -2  18    1.20    0.70
   2   2  18    1.30    0.70
  -2   2 -18    0.90    0.70
   2   2  18    0.70    0.60
  -2   2 -18    1.70    0.70
   3  -2  18    1.50    0.60
   3  -2  18    2.10    0.70
   3  -2  18    1.40    0.70
  -3   2 -18    0.20    0.60
   3   2  18    1.10    0.60
   3   2  18    1.60    0.60
   4  -2  18    9.70    1.20
   4  -2  18   10.10    1.20
   4  -2  18   13.90    1.30
   4   2  18   11.00    1.10
  -4   2 -18   13.20    1.30
   4   2  18   11.60    1.30
   5  -2  18    0.10    0.70
   5  -2  18    0.90    0.60
   5  -2  18    2.60    1.00
  -5   2 -18    1.00    0.80
   5   2  18    0.90    0.80
   5   2  18    1.40    0.60
   6  -2  18    2.60    0.90
   6  -2  18    1.90    0.80
   6  -3 -18    0.00    0.80
   6  -3 -18    1.30    0.70
   6  -3 -18    1.60    0.90
   6   3 -18    2.10    0.70
   5  -3 -18   -1.60    0.50
   5  -3 -18    0.60    0.60
  -5  -3  18    0.00    0.70
   5   3 -18   -0.30    0.60
   5   3 -18    0.40    0.60
   4  -3 -18    4.20    0.90
  -4  -3  18    3.80    0.80
   4  -3 -18    3.10    0.80
   4   3 -18    4.70    0.90
   4   3 -18    3.70    0.80
   3  -3 -18   46.60    2.10
  -3  -3  18   44.10    2.10
   3  -3 -18   43.70    1.80
   3   3 -18   46.60    2.00
  -3   3  18   46.60    1.90
   3   3 -18   41.40    1.90
  -2  -3  18   -0.40    0.60
   2  -3 -18    0.00    0.40
  -2  -3  18   -0.40    0.50
   2  -3 -18    0.50    0.60
  -2   3  18    0.10    0.60
   2   3 -18   -0.30    0.60
   2   3 -18    1.00    0.60
  -2   3  18    0.30    0.50
  -1  -3  18    0.10    0.60
   1  -3 -18    0.40    0.60
  -1  -3  18    0.50    0.60
  -1  -3  18    0.10    0.60
   1   3 -18    0.60    0.60
  -1   3  18    0.90    0.50
   1   3 -18    0.80    0.60
  -1   3  18    0.80    0.60
   0  -3  18   -0.10    0.50
   0  -3  18   -0.10    0.40
   0  -3 -18    0.90    0.60
   0  -3  18    0.30    0.60
   0   3 -18    0.00    0.50
   0   3 -18    0.40    0.60
   0   3  18    1.00    0.60
   0   3  18   -0.10    0.50
   1  -3  18   11.90    1.00
   1  -3  18   13.20    1.30
  -1  -3 -18   11.80    1.20
   1  -3  18   13.20    1.20
   1   3  18   14.00    1.20
   1   3  18   12.70    1.20
  -1   3 -18   13.60    1.30
  -1   3 -18   13.90    1.20
   2  -3  18   20.20    1.50
   2  -3  18   19.50    1.50
   2  -3  18   18.70    1.20
   2   3  18   16.20    1.40
   2   3  18   17.20    1.40
  -2   3 -18   17.00    1.40
  -2   3 -18   18.20    1.40
   3  -3  18    0.00    0.60
   3  -3  18    0.70    0.60
   3  -3  18   -0.10    0.60
   3   3  18   -0.50    0.50
  -3   3 -18    0.20    0.60
   3   3  18   -0.40    0.40
   4  -3  18    2.80    0.90
   4  -3  18    3.60    0.80
   4  -3  18    0.60    0.80
   4   3  18    2.60    0.70
   4   3  18    0.70    0.80
  -4   3 -18    2.00    0.80
   5  -3  18    0.60    0.90
   5  -3  18    0.20    0.80
   5  -3  18    0.90    0.70
   5   3  18   -0.30    0.80
   5   3  18    0.00    0.60
  -5   3 -18    0.10    0.70
   6  -4 -18    0.50    1.00
   6  -4 -18    2.40    1.10
   6   4 -18    2.30    1.00
   6   4 -18    1.10    0.90
   5  -4 -18    0.60    0.80
  -5  -4  18    1.10    0.90
   5  -4 -18    0.00    0.70
   5  -4 -18    1.00    0.90
   5   4 -18    0.00    0.80
   5   4 -18    0.20    0.80
  -4  -4  18    0.20    0.70
   4  -4 -18    0.00    0.60
   4  -4 -18    0.00    0.70
   4  -4 -18    0.50    0.70
   4   4 -18    1.10    0.60
  -4   4  18   -0.50    0.60
   4   4 -18   -1.20    0.60
  -3  -4  18   17.70    1.50
   3  -4 -18   18.00    1.30
   3  -4 -18   18.00    1.60
   3   4 -18   18.30    1.50
  -3   4  18   15.80    1.40
   3   4 -18   18.90    1.50
  -2  -4  18    0.70    0.70
   2  -4 -18    1.70    0.70
  -2   4  18    0.80    0.70
  -2   4  18    0.00    0.60
   2   4 -18   -0.40    0.60
   2   4 -18   -0.60    0.60
  -1  -4  18   29.10    1.60
   1  -4 -18   28.90    1.80
  -1  -4  18   27.20    1.50
  -1  -4  18   28.00    1.70
   1   4 -18   26.60    1.60
  -1   4  18   30.80    1.70
  -1   4  18   27.90    1.60
   1   4 -18   27.30    1.50
   0  -4  18    0.90    0.60
   0  -4  18    1.40    0.70
   0  -4  18    1.30    0.70
   0  -4 -18    1.70    0.70
   0   4 -18    2.00    0.70
   0   4  18    2.10    0.80
   0   4 -18    2.20    0.80
   0   4  18    1.20    0.60
   1  -4  18   53.69    2.30
   1  -4  18   48.90    2.30
   1  -4  18   50.19    1.90
  -1   4 -18   51.29    2.20
   1   4  18   51.49    2.20
  -1   4 -18   50.69    2.20
   1   4  18   49.40    2.20
   2  -4  18    3.90    0.90
   2  -4  18    5.10    1.00
   2   4  18    7.20    1.00
  -2   4 -18    6.30    1.00
   2   4  18    5.80    1.10
   3  -4  18    4.80    0.90
   3  -4  18    5.30    1.10
   3  -4  18    5.90    0.90
   3   4  18    4.30    0.90
  -3   4 -18    5.20    1.00
   3   4  18    3.80    1.00
   4  -4  18    0.80    0.80
   4  -4  18    1.30    0.80
   4  -4  18    1.70    0.90
   4   4  18    1.80    0.90
   4   4  18    1.70    0.70
  -4   4 -18    0.20    0.70
   5  -4  18    3.40    1.10
   5  -4  18    4.00    1.00
  -5   4 -18    4.00    1.00
   5   4  18    4.20    0.90
   5  -5 -18   -0.50    0.80
   5  -5 -18   -0.10    0.80
  -5  -5  18    1.50    0.90
   5   5 -18    1.10    1.00
   5   5 -18    2.10    1.00
  -5   5  18    0.50    0.90
  -4  -5  18    1.60    0.80
   4  -5 -18   -0.50    0.80
   4  -5 -18    0.10    0.70
   4   5 -18    1.10    0.80
   4   5 -18    0.70    1.00
  -4   5  18    1.90    0.90
  -3  -5  18   15.90    1.50
   3  -5 -18   16.70    1.60
   3  -5 -18   16.20    1.40
  -3   5  18   18.10    1.60
   3   5 -18   14.40    1.50
   3   5 -18   17.60    1.60
  -2  -5  18    2.20    0.80
  -2  -5  18    5.00    1.00
   2  -5 -18    5.30    1.10
   2   5 -18    2.90    0.90
  -2   5  18    4.80    1.00
   2   5 -18    3.80    0.90
  -2   5  18    3.80    1.00
  -1  -5  18   -0.80    0.60
   1  -5 -18    1.50    0.80
  -1  -5  18    0.40    0.70
  -1  -5  18   -0.50    0.60
  -1   5  18    0.10    0.70
  -1   5  18    0.50    0.70
   1   5 -18   -0.40    0.70
   1   5 -18    1.20    0.70
   0  -5  18    4.40    0.90
   0  -5  18    4.90    1.00
   0  -5  18    5.80    1.10
   0  -5 -18    4.80    1.00
   0   5 -18    5.90    1.00
   0   5  18    5.60    1.00
   0   5 -18    5.90    1.00
   0   5  18    6.10    1.00
   1  -5  18   12.40    1.40
   1  -5  18    9.50    1.30
   1  -5  18   11.40    1.20
   1   5  18    8.90    1.20
   1   5  18   11.40    1.30
  -1   5 -18    9.10    1.20
  -1   5 -18   12.50    1.40
   2  -5  18    4.70    1.10
   2  -5  18    8.40    1.30
   2   5  18    8.00    1.20
   2   5  18    8.70    1.20
  -2   5 -18   11.20    1.30
   2   5  18    8.10    1.30
   3  -5  18    0.50    0.80
   3  -5  18    0.00    0.90
   3   5  18    1.30    0.90
   3   5  18    0.20    0.70
  -3   5 -18    0.60    0.70
   3   5  18    0.80    1.00
   4  -5  18    0.60    0.80
   4  -5  18    1.00    0.90
   4   5  18    0.70    0.90
  -4   5 -18    0.20    0.80
   4   5  18   -1.20    0.80
   4   5  18    0.60    0.90
  -4  -6  18    0.00    0.80
   4  -6 -18    0.00    0.90
  -4   6  18    0.90    0.90
   3  -6 -18    1.70    1.00
  -3  -6  18    1.30    0.90
   3   6 -18    1.20    0.90
  -3   6  18    1.70    0.90
   3   6 -18    2.00    1.00
   2  -6 -18    5.60    1.20
  -2  -6  18    2.50    0.90
  -2  -6  18    4.90    1.00
  -2   6  18    5.70    1.20
  -2   6  18    4.20    1.00
   2   6 -18    5.00    0.90
   2   6 -18    4.70    1.10
   1  -6 -18    6.20    1.20
  -1  -6  18    4.60    1.00
  -1  -6  18    4.90    1.10
  -1   6  18    6.10    1.10
  -1   6  18    4.60    1.10
   1   6 -18    6.40    1.20
   1   6 -18    4.50    1.10
   0  -6  18    4.60    1.10
   0  -6  18    6.00    1.00
   0  -6  18    4.80    1.10
   0  -6 -18    3.20    1.00
   0   6 -18    3.40    1.00
   0   6  18    3.00    1.00
   0   6  18    4.00    1.00
   0   6 -18    5.30    1.10
   1  -6  18    1.30    0.80
   1  -6  18    1.30    0.90
   1  -6  18    0.60    0.80
  -1   6 -18   -0.10    0.80
  -1   6 -18    1.80    1.00
   1   6  18   -0.20    0.80
   1   6  18    0.50    0.80
   2  -6  18    1.10    0.80
   2  -6  18   -0.40    0.90
   2  -6  18    0.50    0.90
   2   6  18    0.00    0.80
   2   6  18    1.20    0.90
   2   6  18   -0.40    0.80
  -2   6 -18   -0.60    0.80
   3  -6  18    1.00    0.80
  -3   6 -18    0.50    0.80
   3   6  18    0.50    1.00
   3   6  18    0.80    0.80
   2  -7 -18    1.10    1.00
  -2  -7  18    1.50    0.90
  -2   7  18    1.10    1.00
  -1  -7  18   -0.40    0.50
   1  -7 -18   -0.40    1.00
  -1  -7  18   -0.90    0.80
  -1   7  18   -1.40    0.80
   1   7 -18    0.40    1.00
   1   7 -18    0.10    0.90
  -1   7  18    0.80    0.90
   0  -7  18    1.70    1.00
   0  -7  18    0.00    0.80
   0  -7  18    1.30    1.00
   0   7  18   -0.30    0.90
   0   7 -18   -0.60    0.80
   0   7  18   -0.60    0.80
   0   7 -18    0.10    1.00
   1  -7  18    0.20    0.90
   1  -7  18    1.50    1.10
   1  -7  18   -0.10    0.90
  -1   7 -18    1.90    1.10
  -1   7 -18    0.90    1.00
   2  -7  18   -0.40    0.80
  -2   7 -18    1.00    0.90
   7   0 -19    1.90    0.90
   6   0 -19    0.40    0.70
   6   0 -19   -0.20    0.60
   5   0 -19    8.40    1.00
   5   0 -19    8.20    1.20
   4   0 -19   -0.40    0.90
   4   0 -19   -0.10    0.80
   3   0 -19   54.99    2.00
  -3   0  19   53.09    2.20
   3   0 -19   49.10    2.10
   3   0 -19   50.89    1.80
   2   0 -19   -0.10    0.40
   2   0 -19   -0.70    0.50
  -2   0  19    0.10    0.50
   2   0 -19   -0.50    0.40
  -2   0  19    0.20    0.50
   1   0 -19    0.70    0.40
  -1   0  19   -0.30    0.40
   1   0 -19    0.00    0.40
  -1   0  19    0.30    0.50
   1   0 -19    0.70    0.50
   0   0  19   -0.20    0.50
   0   0 -19    0.20    0.50
   0   0 -19    0.50    0.50
   0   0  19   -0.70    0.40
   0   0  19   -0.20    0.30
   1   0  19    1.40    0.60
  -1   0 -19    0.70    0.50
   1   0  19    1.40    0.60
  -1   0 -19    0.40    0.50
   1   0  19    0.10    0.50
  -2   0 -19   -0.90    0.60
   2   0  19   -0.70    0.60
   2   0  19   -1.80    0.60
   2   0  19   -0.80    0.50
  -3   0 -19   41.70    2.00
   3   0  19   47.60    2.00
   3   0  19   49.80    2.00
   3   0  19   41.80    1.90
   4   0  19    0.00    0.70
   4   0  19    0.90    0.60
   5   0  19    3.10    0.70
   5   0  19    3.90    1.00
   6   0  19   -0.40    0.60
   6  -1 -19   -0.50    0.80
   6  -1 -19   -0.80    0.50
   6   1 -19    1.30    0.70
   6   1 -19    0.10    0.70
   5  -1 -19    1.80    0.80
   5  -1 -19    1.00    0.70
   5   1 -19    1.70    0.80
   5   1 -19    1.20    0.80
   4  -1 -19    4.00    0.90
  -4  -1  19    5.00    0.90
   4  -1 -19    4.20    0.90
   4   1 -19    4.70    1.00
   4   1 -19    4.10    0.90
  -3  -1  19    0.60    0.50
   3  -1 -19   -0.40    0.60
   3  -1 -19    0.00    0.60
   3   1 -19   -0.10    0.50
   3   1 -19   -0.60    0.60
  -2  -1  19    9.50    1.10
   2  -1 -19   11.10    1.10
  -2  -1  19    8.80    1.00
   2  -1 -19   10.90    0.90
   2  -1 -19    9.90    0.90
   2   1 -19   10.10    1.00
  -2   1  19    9.70    1.00
   2   1 -19   10.00    1.00
  -2   1  19    9.80    1.00
  -1  -1  19    0.10    0.50
   1  -1 -19   -0.40    0.30
  -1  -1  19   -0.10    0.50
   1  -1 -19   -0.10    0.50
  -1   1  19   -0.30    0.40
   1   1 -19   -0.10    0.40
   1   1 -19    0.20    0.50
  -1   1  19   -0.20    0.40
  -1   1  19    0.30    0.50
   0  -1  19    0.70    0.40
   0  -1  19    0.80    0.50
   0  -1  19    0.30    0.50
   0  -1 -19    0.20    0.40
   0  -1 -19    0.40    0.50
   0   1 -19    1.10    0.50
   0   1 -19    0.90    0.40
   0   1  19   -0.40    0.50
   0   1  19    0.90    0.50
   0   1  19    0.60    0.40
  -1  -1 -19    3.80    0.70
  -1  -1 -19    3.70    0.80
   1  -1  19    4.00    0.80
   1  -1  19    4.60    0.70
   1  -1  19    5.70    0.90
   1   1  19    4.50    0.70
   1   1  19    5.00    0.80
   1   1  19    4.80    0.80
  -1   1 -19    4.30    0.80
  -1   1 -19    3.80    0.80
   2  -1  19   19.50    1.50
   2  -1  19   17.30    1.40
   2  -1  19   19.00    1.40
  -2  -1 -19   17.80    1.50
  -2   1 -19   19.80    1.60
   2   1  19   20.80    1.50
   2   1  19   18.20    1.30
   2   1  19   19.20    1.50
   3  -1  19    2.40    0.70
   3  -1  19    3.40    0.80
   3  -1  19    3.10    0.80
   3   1  19    2.50    0.70
   3   1  19    3.10    0.80
  -3   1 -19    1.90    0.70
   4  -1  19    1.90    0.70
   4  -1  19    1.70    0.80
   4  -1  19    0.40    0.70
   4   1  19    0.80    0.70
   4   1  19    0.80    0.70
  -4   1 -19    0.30    0.70
   5  -1  19    1.60    0.90
   5  -1  19    2.60    0.80
   5   1  19    1.20    0.70
   5   1  19    0.60    0.70
   6  -1  19    0.50    0.70
   6   1  19    0.50    0.80
   6  -2 -19    1.60    0.80
   6  -2 -19    0.60    0.80
   6   2 -19   -0.90    0.80
   6   2 -19    0.40    0.70
   5  -2 -19    1.00    0.70
   5  -2 -19    1.10    0.80
   5   2 -19   -0.30    0.60
   5   2 -19    0.80    0.60
   4  -2 -19   46.60    2.10
  -4  -2  19   46.80    2.30
   4  -2 -19   47.70    2.10
   4   2 -19   45.50    2.00
   4   2 -19   43.60    2.00
   3  -2 -19   79.59    2.40
   3  -2 -19   75.79    2.60
  -3  -2  19   81.29    2.70
   3   2 -19   76.19    2.50
   3   2 -19   77.49    2.50
  -2  -2  19   -0.80    0.50
   2  -2 -19   -0.30    0.40
  -2  -2  19    0.50    0.60
   2  -2 -19    1.60    0.70
  -2   2  19    0.10    0.40
   2   2 -19    0.20    0.50
   2   2 -19   -0.30    0.50
  -2   2  19   -0.30    0.50
   1  -2 -19    0.00    0.50
   1  -2 -19    0.50    0.50
  -1  -2  19    0.50    0.50
  -1  -2  19    0.30    0.50
   1   2 -19    0.50    0.50
  -1   2  19   -0.20    0.50
  -1   2  19   -0.20    0.60
   1   2 -19    0.10    0.50
  -1   2  19   -0.30    0.40
   0  -2  19    8.00    1.00
   0  -2  19    7.40    0.90
   0  -2 -19    7.00    0.90
   0  -2 -19    7.50    0.90
   0   2  19    6.10    0.90
   0   2 -19    5.20    0.80
   0   2 -19    7.20    0.90
   0   2  19    5.30    0.70
   0   2  19    5.50    0.80
   1  -2  19   56.69    1.80
  -1  -2 -19   55.29    2.10
   1  -2  19   57.89    2.20
  -1  -2 -19   57.19    2.10
   1  -2  19   57.19    2.20
  -1   2 -19   52.89    2.20
  -1   2 -19   61.09    2.20
   1   2  19   56.49    2.20
   1   2  19   57.09    2.10
   2  -2  19    4.10    0.80
   2  -2  19    4.00    0.70
   2  -2  19    2.70    0.80
  -2   2 -19    3.60    0.80
   2   2  19    3.40    0.80
   2   2  19    2.20    0.80
   3  -2  19   -0.90    0.60
   3  -2  19   -0.60    0.50
   3  -2  19    0.20    0.50
   3   2  19    0.20    0.50
  -3   2 -19    0.70    0.60
   3   2  19    0.70    0.70
   4  -2  19    2.20    0.70
   4  -2  19    1.70    0.80
   4  -2  19    1.20    0.70
   4   2  19    1.20    0.60
  -4   2 -19    2.20    0.80
   4   2  19    1.00    0.60
   5  -2  19   -0.70    0.80
   5  -2  19    0.50    0.70
   5  -2  19   -0.10    0.80
   5   2  19   -0.70    0.50
   5   2  19    0.80    0.70
  -5   2 -19   -0.70    0.70
   6   2  19    2.50    0.90
   6  -3 -19    0.10    0.70
   6  -3 -19    0.10    1.00
   6  -3 -19    0.80    0.80
   6   3 -19    0.80    0.80
   5  -3 -19    3.10    0.90
   5  -3 -19    2.90    0.90
  -5  -3  19    1.80    0.80
   5   3 -19    2.10    0.70
   5   3 -19    1.00    0.90
   4  -3 -19   10.70    1.30
   4  -3 -19    9.70    1.20
  -4  -3  19   11.00    1.30
   4   3 -19    9.60    1.20
   4   3 -19   10.40    1.20
  -3  -3  19    8.00    1.20
   3  -3 -19    8.80    1.00
   3  -3 -19    6.10    1.10
  -3   3  19    7.60    1.00
   3   3 -19    7.10    1.00
   3   3 -19    6.50    1.00
   2  -3 -19    4.20    0.80
  -2  -3  19    3.30    0.80
  -2  -3  19    4.30    0.80
  -2   3  19    3.00    0.80
  -2   3  19    3.50    0.70
   2   3 -19    4.90    0.90
   2   3 -19    3.20    0.80
   1  -3 -19    3.80    0.80
  -1  -3  19    4.10    0.80
  -1  -3  19    1.90    0.70
   1   3 -19    2.20    0.70
  -1   3  19    3.20    0.80
  -1   3  19    3.90    0.80
   1   3 -19    3.10    0.70
   0  -3 -19    0.20    0.60
   0  -3  19    1.40    0.70
   0  -3  19    0.60    0.60
   0  -3  19   -0.10    0.40
   0   3  19    0.10    0.60
   0   3  19    0.70    0.60
   0   3 -19   -0.10    0.40
   0   3 -19    2.30    0.70
   1  -3  19   52.19    2.20
   1  -3  19   52.99    2.20
  -1  -3 -19   53.69    2.10
   1   3  19   51.09    2.10
  -1   3 -19   49.50    2.10
  -1   3 -19   48.80    2.00
   1   3  19   51.69    2.20
   2  -3  19   13.90    1.40
   2  -3  19   10.40    1.20
   2  -3  19   12.80    1.10
   2   3  19   15.00    1.40
  -2   3 -19   13.30    1.30
   2   3  19   12.70    1.20
   3  -3  19    3.30    0.80
   3  -3  19    1.70    0.70
   3  -3  19    1.60    0.80
   3   3  19    2.20    0.70
   3   3  19    2.70    0.90
  -3   3 -19    2.40    0.80
   4  -3  19    2.30    0.90
   4  -3  19    0.30    0.70
   4  -3  19   -0.40    0.60
   4   3  19    1.10    0.70
   4   3  19    1.30    0.80
  -4   3 -19   -1.00    0.60
   5  -3  19    4.30    1.10
   5  -3  19    3.90    1.10
   5  -3  19    4.40    1.00
  -5   3 -19    4.30    1.00
   5   3  19    3.60    1.10
   5   3  19    5.90    1.00
  -5  -4  19    0.60    0.90
   5  -4 -19   -0.30    0.70
   5  -4 -19    0.70    0.80
   5  -4 -19    0.80    0.80
   5   4 -19   -0.30    0.70
   5   4 -19   -0.80    0.80
  -4  -4  19    0.70    0.80
   4  -4 -19    1.30    0.70
   4  -4 -19   -0.40    0.70
  -4   4  19    0.50    0.60
   4   4 -19    0.40    0.80
   4   4 -19    1.70    0.70
  -3  -4  19   12.30    1.40
   3  -4 -19   12.90    1.20
   3  -4 -19   12.80    1.40
   3   4 -19   12.70    1.40
  -3   4  19   11.60    1.30
   3   4 -19   11.20    1.30
  -2  -4  19   12.30    1.30
   2  -4 -19   12.00    1.30
  -2   4  19   11.10    1.20
   2   4 -19   12.70    1.30
   2   4 -19   10.70    1.20
  -2   4  19   13.10    1.30
  -1  -4  19    2.90    0.80
  -1  -4  19    1.50    0.60
   1  -4 -19    1.60    0.80
  -1  -4  19    1.30    0.70
  -1   4  19    1.40    0.80
  -1   4  19    0.80    0.70
   1   4 -19    0.00    0.70
   1   4 -19    0.70    0.70
   0  -4  19    1.90    0.60
   0  -4  19    2.60    0.80
   0  -4  19    4.10    0.90
   0  -4 -19    1.90    0.80
   0   4  19    3.20    0.80
   0   4 -19    3.30    0.90
   0   4  19    3.00    0.90
   0   4 -19    3.40    0.80
   1  -4  19   24.10    1.40
   1  -4  19   27.60    1.80
   1  -4  19   25.80    1.80
  -1   4 -19   24.30    1.70
  -1   4 -19   23.10    1.70
   1   4  19   24.20    1.70
   1   4  19   23.40    1.70
   2  -4  19    0.00    0.70
   2  -4  19    0.00    0.70
   2   4  19    0.70    0.70
   2   4  19   -0.40    0.60
  -2   4 -19    0.50    0.70
   3  -4  19    2.90    1.00
   3  -4  19    2.70    0.80
   3  -4  19    2.50    0.90
   3   4  19    3.10    1.00
   3   4  19    3.70    0.90
  -3   4 -19    2.40    0.80
   4  -4  19    2.00    0.90
   4  -4  19    1.10    0.80
   4  -4  19    1.40    0.90
   4   4  19    2.60    1.00
  -4   4 -19    2.00    0.90
   4   4  19    1.90    0.80
   5  -4  19    1.10    1.00
  -5   4 -19    0.10    0.80
   5  -5 -19    1.40    1.10
   5  -5 -19   -1.10    0.80
  -5  -5  19   -1.10    0.80
   5   5 -19    0.70    1.00
  -4  -5  19    9.20    1.40
   4  -5 -19    7.50    1.20
   4  -5 -19   11.40    1.50
  -4   5  19   10.00    1.30
   4   5 -19    8.50    1.20
   4   5 -19    9.20    1.40
   3  -5 -19    2.00    0.90
  -3  -5  19    1.00    0.80
   3   5 -19    0.80    0.80
  -3   5  19   -0.70    0.70
   3   5 -19    0.60    0.80
   2  -5 -19    7.20    1.20
  -2  -5  19    7.30    1.10
  -2  -5  19    4.90    1.00
   2   5 -19    6.20    1.10
  -2   5  19    2.60    0.90
   2   5 -19    4.10    1.00
  -2   5  19    6.50    1.10
   1  -5 -19    9.20    1.20
  -1  -5  19   10.30    1.20
  -1  -5  19   11.70    1.30
  -1  -5  19   10.90    1.30
   1   5 -19    9.30    1.20
  -1   5  19   10.20    1.30
  -1   5  19    8.80    1.20
   1   5 -19   10.10    1.30
   0  -5 -19   -1.10    0.60
   0  -5  19   -0.40    0.60
   0  -5  19    0.00    0.80
   0  -5  19    0.00    0.80
   0   5 -19   -0.10    0.50
   0   5  19   -0.50    0.70
   0   5 -19   -0.90    0.70
   0   5  19   -0.60    0.70
   1  -5  19    7.10    1.20
   1  -5  19    6.90    1.20
   1  -5  19    6.10    1.00
   1   5  19    7.60    1.10
  -1   5 -19    7.80    1.20
   1   5  19    5.20    1.10
  -1   5 -19    5.70    1.10
   2  -5  19    4.80    1.20
   2  -5  19    4.40    1.00
   2   5  19    4.30    1.00
  -2   5 -19    3.10    0.90
   2   5  19    1.80    0.90
   3  -5  19    2.80    1.00
   3  -5  19    3.60    1.10
   3   5  19    1.70    0.90
   3   5  19    3.30    1.00
  -3   5 -19    2.90    1.00
   3   5  19    4.00    1.00
   4   5  19    0.20    0.90
  -4   5 -19   -0.90    0.70
  -4  -6  19    1.00    0.90
  -4   6  19    0.20    1.00
   3  -6 -19    2.00    1.00
  -3  -6  19   -1.50    0.70
   3   6 -19    1.40    0.90
  -3   6  19   -1.00    0.80
   2  -6 -19    0.90    0.90
  -2  -6  19    2.60    0.90
  -2  -6  19    0.70    0.80
  -2   6  19    0.40    0.90
  -2   6  19    2.30    1.00
   2   6 -19    2.90    1.00
   2   6 -19    2.30    0.90
   1  -6 -19    0.00    0.80
  -1  -6  19    1.10    0.80
  -1  -6  19   -0.20    0.80
  -1   6  19   -0.90    0.70
   1   6 -19   -0.60    0.80
   1   6 -19   -0.50    0.80
  -1   6  19   -0.30    0.80
   0  -6  19    0.40    0.80
   0  -6  19    0.50    0.80
   0  -6  19    1.20    0.90
   0   6  19    0.00    0.80
   0   6  19   -0.10    0.80
   0   6 -19    0.10    0.90
   0   6 -19    0.90    0.90
   1  -6  19    0.60    1.00
   1  -6  19    0.10    0.90
   1  -6  19    0.30    0.90
   1   6  19    0.10    0.80
  -1   6 -19    1.20    1.00
   1   6  19    0.40    0.80
  -1   6 -19   -0.70    0.80
   2  -6  19    4.30    1.20
   2  -6  19    3.10    1.20
   2   6  19    3.60    1.00
   2   6  19    6.00    1.20
  -2   6 -19    3.60    1.00
   3   6  19    3.60    1.20
  -3   6 -19    1.30    0.90
  -3  -7  19    3.50    1.10
  -2  -7  19    0.30    0.80
   1  -7 -19    1.30    1.40
  -1  -7  19    1.00    1.00
  -1  -7  19    1.40    0.90
  -1   7  19    0.20    1.00
   0  -7  19    3.90    1.10
   0  -7  19    2.70    1.20
   0  -7  19    1.60    0.90
   0   7 -19    2.60    1.20
   1  -7  19    4.50    1.20
  -1   7 -19    5.30    1.20
  -1   7 -19    4.00    1.30
   6   0 -20    0.20    0.80
   6   0 -20    1.60    0.90
   5   0 -20    1.00    0.60
   5   0 -20    0.50    0.70
   4   0 -20  268.67    5.50
   4   0 -20  267.37    5.50
   3   0 -20   -0.20    0.60
   3   0 -20   -0.20    0.50
  -3   0  20    0.10    0.70
   3   0 -20   -0.30    0.50
   2   0 -20    4.80    0.70
  -2   0  20    6.30    0.90
   2   0 -20    5.20    0.90
   2   0 -20    5.50    0.80
  -2   0  20    5.40    0.80
   1   0 -20    0.40    0.60
  -1   0  20    0.10    0.50
  -1   0  20    0.60    0.50
   1   0 -20   -0.30    0.40
   0   0 -20   22.10    1.30
   0   0 -20   24.80    1.50
   0   0  20   21.40    1.40
   0   0  20   20.30    1.10
   0   0  20   19.60    1.20
   1   0  20   -0.80    0.50
   1   0  20   -0.70    0.50
   1   0  20   -1.00    0.60
  -1   0 -20   -0.10    0.60
  -1   0 -20   -0.30    0.60
   2   0  20    1.90    0.80
   2   0  20    1.90    0.70
  -2   0 -20    3.80    0.80
   2   0  20    2.20    0.70
  -3   0 -20    0.60    0.70
   3   0  20    0.00    0.60
   3   0  20    0.40    0.60
   3   0  20   -0.70    0.50
   4   0  20   -0.30    0.50
   4   0  20    0.20    0.70
   5   0  20    1.40    0.90
   5   0  20   -0.70    0.50
   6  -1 -20   -0.80    0.60
   6  -1 -20    0.80    0.80
   6   1 -20   -0.20    0.60
   6   1 -20    0.60    0.80
   5  -1 -20    0.50    0.70
   5  -1 -20    0.30    0.80
   5   1 -20   -0.60    0.70
   5   1 -20    0.10    0.60
   4  -1 -20   83.89    2.80
   4  -1 -20   87.49    2.90
  -4  -1  20   85.39    3.00
   4   1 -20   84.39    2.80
   4   1 -20   87.59    2.80
  -3  -1  20    1.60    0.60
   3  -1 -20    2.90    0.70
   3  -1 -20    1.30    0.70
   3   1 -20    0.90    0.60
   3   1 -20    1.40    0.70
   2  -1 -20    4.60    0.70
   2  -1 -20    3.40    0.80
   2  -1 -20    4.70    0.70
  -2  -1  20    4.80    0.80
  -2  -1  20    5.40    0.90
   2   1 -20    4.20    0.80
  -2   1  20    5.10    0.90
   2   1 -20    4.20    0.80
  -2   1  20    5.10    0.90
   1  -1 -20    1.00    0.60
   1  -1 -20    1.90    0.50
  -1  -1  20    2.00    0.70
  -1  -1  20    0.60    0.60
   1   1 -20    2.10    0.70
   1   1 -20    1.40    0.60
  -1   1  20    2.60    0.70
  -1   1  20    1.70    0.60
  -1   1  20    1.00    0.50
   0  -1 -20   14.90    1.10
   0  -1 -20   13.70    1.20
   0  -1  20   14.60    1.20
   0  -1  20   14.90    1.20
   0   1 -20   14.30    1.20
   0   1  20   13.30    1.20
   0   1  20   13.50    1.00
   0   1 -20   15.60    1.30
   0   1  20   16.00    1.20
   1  -1  20    9.40    1.10
   1  -1  20    8.60    1.00
  -1  -1 -20    8.40    1.10
  -1  -1 -20    7.10    1.00
   1  -1  20    6.70    0.80
   1   1  20    7.00    1.00
  -1   1 -20    7.50    1.00
  -1   1 -20    7.50    1.00
   1   1  20    8.60    0.90
   1   1  20   10.20    1.00
  -2  -1 -20   22.30    1.40
   2  -1  20   25.10    1.60
   2  -1  20   21.70    1.50
   2  -1  20   23.70    1.40
  -2   1 -20   24.70    1.60
   2   1  20   24.30    1.50
   2   1  20   23.90    1.50
   3  -1  20    3.40    0.80
   3  -1  20    4.20    0.80
   3  -1  20    4.10    0.80
   3   1  20    3.20    0.80
  -3   1 -20    4.40    0.90
   3   1  20    4.20    0.90
   4  -1  20    6.00    1.00
   4  -1  20    5.50    1.00
   4  -1  20    5.20    0.90
   4   1  20    3.70    0.90
  -4   1 -20    5.30    1.00
   4   1  20    5.10    0.90
   5  -1  20    6.40    1.20
   5  -1  20    6.30    1.00
   5   1  20    6.60    1.20
   5   1  20    8.20    1.10
   6  -2 -20    6.30    1.20
   6  -2 -20    5.80    1.00
   6   2 -20    5.70    1.20
   6   2 -20    5.60    1.00
   5  -2 -20   -0.90    0.60
   5  -2 -20   -0.10    0.70
   5   2 -20    0.50    0.80
   5   2 -20   -0.30    0.70
   4  -2 -20   21.90    1.60
  -4  -2  20   22.00    1.80
   4  -2 -20   23.80    1.80
   4   2 -20   21.70    1.60
   4   2 -20   23.50    1.70
  -3  -2  20   19.80    1.60
   3  -2 -20   20.20    1.60
   3  -2 -20   19.70    1.30
   3   2 -20   22.20    1.60
   3   2 -20   18.80    1.40
   2  -2 -20    0.20    0.50
  -2  -2  20    0.50    0.60
  -2  -2  20    1.90    0.70
   2   2 -20    1.20    0.60
  -2   2  20    2.00    0.70
   2   2 -20    0.00    0.60
  -2   2  20    0.90    0.50
  -1  -2  20    6.90    1.00
   1  -2 -20    5.40    0.70
   1  -2 -20    7.50    1.00
  -1  -2  20    7.20    0.90
  -1   2  20    6.20    0.90
  -1   2  20    6.60    0.80
   1   2 -20    6.30    0.90
  -1   2  20    6.90    0.80
   1   2 -20    7.30    1.00
   0  -2 -20    0.30    0.50
   0  -2  20   -0.20    0.60
   0  -2  20    0.00    0.50
   0  -2 -20   -0.20    0.60
   0   2 -20   -0.50    0.50
   0   2  20   -0.10    0.40
   0   2  20   -0.30    0.50
   0   2 -20    0.00    0.60
   0   2  20    0.30    0.50
  -1  -2 -20   98.79    2.90
   1  -2  20   97.99    3.00
  -1  -2 -20  100.09    3.00
   1  -2  20  103.49    3.10
   1   2  20   98.29    2.90
   1   2  20   99.59    3.00
  -1   2 -20   99.09    2.90
  -1   2 -20   94.99    3.00
   2  -2  20   10.90    1.20
   2  -2  20    9.80    1.20
   2  -2  20   10.00    1.00
   2   2  20   10.80    1.20
   2   2  20   11.00    1.20
  -2   2 -20    9.70    1.20
   3  -2  20   12.60    1.40
   3  -2  20    9.40    1.10
   3  -2  20   12.10    1.30
   3   2  20   13.30    1.30
  -3   2 -20   10.50    1.20
   3   2  20   12.40    1.30
   4  -2  20    0.00    0.70
   4  -2  20    0.50    0.70
   4  -2  20    0.30    0.60
  -4   2 -20   -0.50    0.70
   4   2  20   -0.20    0.70
   4   2  20   -0.20    0.60
   5  -2  20    5.70    1.10
   5  -2  20    5.00    1.10
   5  -2  20    3.80    1.00
   5   2  20    6.20    1.30
   5   2  20    6.30    1.10
  -5   2 -20    6.10    1.20
   6  -3 -20   -0.50    0.80
   6   3 -20    0.50    0.70
  -5  -3  20    3.60    1.10
   5  -3 -20    6.00    1.10
   5  -3 -20    5.60    1.10
   5   3 -20    7.10    1.10
   5   3 -20    7.80    1.20
  -4  -3  20   19.50    1.70
   4  -3 -20   18.90    1.60
   4  -3 -20   18.00    1.50
   4   3 -20   19.30    1.60
   4   3 -20   17.20    1.50
  -3  -3  20    7.40    1.10
   3  -3 -20    6.20    1.00
   3  -3 -20    4.40    1.00
   3   3 -20    6.40    1.00
  -3   3  20    7.00    0.90
   3   3 -20    7.20    1.10
  -2  -3  20    6.50    1.00
   2  -3 -20    8.50    1.10
   2   3 -20    5.10    0.90
  -2   3  20    6.10    1.00
  -2   3  20    8.10    1.00
   2   3 -20    4.20    0.90
  -1  -3  20    6.20    1.00
   1  -3 -20    8.80    1.10
  -1  -3  20    7.10    1.00
  -1   3  20    7.10    1.00
  -1   3  20    7.30    1.00
   1   3 -20    6.30    1.00
   1   3 -20    7.40    1.00
   0  -3  20    0.70    0.70
   0  -3 -20    1.90    0.70
   0  -3  20    2.10    0.80
   0  -3  20    1.80    0.60
   0   3 -20    1.40    0.80
   0   3  20    0.00    0.70
   0   3  20    0.90    0.70
   0   3 -20    1.90    0.70
   1  -3  20   25.70    1.80
   1  -3  20   27.30    1.80
   1   3  20   29.40    1.80
  -1   3 -20   28.90    1.80
  -1   3 -20   29.70    1.80
   1   3  20   26.10    1.70
   2  -3  20    1.20    0.80
   2  -3  20    1.10    0.70
   2   3  20    2.60    0.90
  -2   3 -20    1.50    0.70
   2   3  20    0.60    0.60
   3  -3  20    0.70    0.60
   3  -3  20    1.20    0.80
   3  -3  20   -0.20    0.70
  -3   3 -20    0.60    0.80
   3   3  20    1.20    0.80
   3   3  20   -0.10    0.60
   4  -3  20    1.40    0.80
   4  -3  20    2.70    0.90
   4  -3  20    2.10    0.70
   4   3  20    1.70    0.90
  -4   3 -20    2.40    0.80
   4   3  20    2.40    0.80
   5  -3  20    3.30    1.20
   5  -3  20    5.30    1.20
   5   3  20    4.50    1.00
  -5   3 -20    4.60    1.10
   5  -4 -20    0.80    0.90
   5  -4 -20    0.00    0.80
  -5  -4  20    1.40    0.90
   5   4 -20    0.00    0.80
   5   4 -20    1.20    0.90
  -4  -4  20    0.40    0.80
   4  -4 -20   -0.10    0.70
   4  -4 -20   -1.00    0.60
   4   4 -20    0.30    0.80
   4   4 -20   -1.20    0.90
   3  -4 -20    7.60    1.20
  -3  -4  20    9.60    1.30
   3   4 -20    6.70    1.10
  -3   4  20    7.70    1.10
   3   4 -20    6.50    1.10
   2  -4 -20    2.40    0.90
  -2  -4  20    3.50    0.90
   2   4 -20    3.30    0.90
  -2   4  20    3.00    0.90
  -2   4  20    2.50    0.80
   2   4 -20    4.20    0.90
  -1  -4  20   12.20    1.20
   1  -4 -20   10.60    1.30
  -1  -4  20   12.40    1.30
  -1  -4  20    9.90    1.20
  -1   4  20   12.10    1.30
  -1   4  20   11.60    1.30
   1   4 -20   10.30    1.20
   1   4 -20   13.30    1.40
   0  -4  20    1.40    0.60
   0  -4  20    0.30    0.80
   0  -4 -20    2.20    0.80
   0  -4  20    0.60    0.80
   0   4  20   -0.40    0.70
   0   4  20    1.10    0.80
   0   4 -20    2.60    0.90
   0   4 -20    0.50    0.70
   1  -4  20    5.30    1.10
   1  -4  20    2.80    0.90
   1   4  20    3.20    0.90
  -1   4 -20    3.50    1.00
   1   4  20    3.90    0.90
  -1   4 -20    4.20    1.00
   2  -4  20   -0.40    0.70
   2  -4  20   -0.60    0.70
   2   4  20   -0.70    0.70
   2   4  20    0.20    0.70
  -2   4 -20    1.20    0.70
   3  -4  20    0.10    0.80
   3  -4  20   -0.40    0.70
  -3   4 -20    0.90    0.70
   3   4  20    0.70    0.90
   3   4  20   -0.30    0.60
   4  -4  20    0.80    0.80
   4  -4  20   -0.10    0.80
   4  -4  20    0.30    0.90
  -4   4 -20    1.40    0.80
   4   4  20    1.00    0.90
   4   4  20    1.40    0.80
   5  -5 -20    0.10    1.10
  -5  -5  20    1.10    1.00
  -4  -5  20    1.00    0.90
   4   5 -20    0.70    0.90
   4   5 -20    0.60    0.80
  -4   5  20    0.70    0.90
  -3  -5  20   -0.40    0.70
   3  -5 -20   -0.60    0.80
   3   5 -20   -0.10    0.80
   3   5 -20    0.30    0.80
  -3   5  20    0.70    0.80
  -2  -5  20    2.10    0.80
  -2  -5  20    0.50    0.80
   2  -5 -20    2.10    0.90
  -2   5  20    1.60    0.80
  -2   5  20    1.80    0.90
   2   5 -20    1.90    0.80
   2   5 -20    0.40    0.80
  -1  -5  20    3.00    0.90
  -1  -5  20    2.40    1.00
  -1  -5  20    4.70    1.00
   1  -5 -20    6.00    1.10
   1   5 -20    2.90    1.00
  -1   5  20    5.50    1.10
  -1   5  20    3.00    1.00
   1   5 -20    6.30    1.20
   0  -5  20    0.60    0.80
   0  -5  20   -0.80    0.80
   0  -5  20    0.60    0.70
   0  -5 -20   -0.40    0.60
   0   5  20    0.10    0.80
   0   5  20   -1.00    0.70
   0   5 -20    0.30    0.80
   0   5 -20    0.60    0.90
   1  -5  20   28.20    2.00
   1  -5  20   28.70    2.00
   1   5  20   32.20    2.10
  -1   5 -20   27.60    1.90
   1   5  20   29.70    2.00
  -1   5 -20   25.60    2.00
   2  -5  20    1.40    1.00
   2  -5  20    0.20    0.80
   2   5  20    1.10    0.90
   2   5  20   -0.60    0.70
  -2   5 -20    0.90    0.80
   3  -5  20    0.20    0.80
   3  -5  20    1.20    1.00
   3   5  20    0.10    0.70
   3   5  20    0.90    0.90
   3   5  20    0.30    0.90
  -3   5 -20    0.00    0.80
  -4   5 -20    0.60    0.90
  -4  -6  20    0.70    1.00
  -3  -6  20    0.60    0.80
  -3   6  20    1.60    0.90
   2  -6 -20    1.00    0.90
  -2  -6  20    1.10    0.90
  -2  -6  20    1.00    0.80
  -2   6  20   -0.10    0.80
   2   6 -20    0.20    0.90
  -2   6  20    1.10    1.00
   2   6 -20    2.10    1.00
  -1  -6  20   -1.10    0.70
   1  -6 -20    0.40    0.90
  -1  -6  20   -0.80    0.80
  -1   6  20    0.70    0.90
  -1   6  20   -0.20    0.80
   1   6 -20   -0.20    0.80
   1   6 -20   -0.80    0.80
   0  -6  20    0.80    0.80
   0  -6  20   -0.20    0.90
   0  -6  20    0.50    0.90
   0   6  20    1.80    1.00
   0   6 -20    1.90    1.00
   0   6 -20    0.60    0.90
   0   6  20    1.70    0.90
   1  -6  20    0.50    0.90
   1  -6  20   -0.50    0.90
   1  -6  20    0.60    0.80
  -1   6 -20   -0.30    0.80
   1   6  20   -0.30    0.90
  -1   6 -20    0.80    1.00
   1   6  20    0.40    0.90
  -2   6 -20    0.40    1.00
   3   6  20    0.70    1.00
   1  -7 -20    1.10    1.10
   0  -7  20    0.80    1.10
   1  -7  20    0.60    1.00
   6   0 -21   -0.80    0.60
   6   0 -21    0.10    0.80
   5   0 -21    0.20    0.70
   5   0 -21    0.30    0.70
   4   0 -21    0.00    0.80
   4   0 -21   -0.10    0.80
  -3   0  21   12.00    1.30
   3   0 -21    9.70    1.20
   3   0 -21   10.20    1.10
  -2   0  21   -0.40    0.50
   2   0 -21   -0.30    0.40
   2   0 -21   -0.80    0.50
  -2   0  21    1.00    0.60
   2   0 -21   -0.80    0.60
  -1   0  21    9.20    1.00
  -1   0  21    9.10    1.00
   1   0 -21    9.20    1.00
   1   0 -21    7.60    1.10
   0   0 -21   -0.20    0.50
   0   0  21    0.70    0.60
   0   0 -21    1.20    0.70
   0   0  21    0.50    0.50
   0   0  21    0.50    0.60
   1   0  21  239.58    4.70
   1   0  21  243.78    4.90
  -1   0 -21  244.58    5.10
  -1   0 -21  241.08    5.10
   1   0  21  253.17    5.20
   2   0  21   -0.10    0.60
   2   0  21   -1.10    0.50
  -2   0 -21   -0.10    0.60
   2   0  21    0.50    0.70
   3   0  21    8.90    1.10
   3   0  21    8.80    1.10
  -3   0 -21    6.40    1.10
   4   0  21   -0.40    0.70
   4   0  21   -1.00    0.50
   5   0  21    3.20    1.00
   5   0  21    1.70    0.80
   6  -1 -21    1.50    0.90
   6  -1 -21    0.30    0.80
   6   1 -21    0.20    0.70
   6   1 -21    1.00    0.90
   5  -1 -21    0.90    0.80
   5  -1 -21    0.80    0.70
   5   1 -21    1.80    0.70
   5   1 -21    0.60    0.80
   4  -1 -21    1.10    0.80
   4  -1 -21    2.50    0.90
  -4  -1  21    0.50    0.90
   4   1 -21    2.90    0.90
   4   1 -21    1.40    0.80
   3  -1 -21    3.10    0.80
  -3  -1  21    4.00    0.90
   3  -1 -21    4.20    0.80
   3   1 -21    4.10    0.80
   3   1 -21    3.80    0.80
   3   1 -21    3.70    0.80
  -2  -1  21    0.20    0.50
  -2  -1  21    0.10    0.50
   2  -1 -21    0.40    0.40
   2  -1 -21    1.60    0.70
  -2   1  21    0.70    0.60
   2   1 -21    0.20    0.60
   2   1 -21    1.20    0.60
  -2   1  21    1.70    0.70
  -1  -1  21   -0.40    0.50
   1  -1 -21    0.10    0.50
   1  -1 -21    0.20    0.60
  -1  -1  21    1.30    0.60
   1   1 -21    1.30    0.70
   1   1 -21    0.20    0.60
  -1   1  21    0.90    0.60
  -1   1  21    0.20    0.60
  -1   1  21    0.10    0.50
   0  -1  21    8.10    1.00
   0  -1  21    7.40    1.00
   0  -1 -21    7.50    0.90
   0  -1 -21    6.80    1.00
   0   1 -21    9.20    1.00
   0   1  21    9.20    1.00
   0   1  21    6.60    0.90
   0   1  21    7.50    1.00
   0   1 -21    7.60    1.00
  -1  -1 -21   30.30    1.70
  -1  -1 -21   29.90    1.70
   1  -1  21   27.70    1.40
   1  -1  21   27.90    1.70
   1  -1  21   27.30    1.70
   1   1  21   27.00    1.50
  -1   1 -21   27.70    1.70
   1   1  21   29.50    1.60
   1   1  21   31.10    1.80
  -1   1 -21   27.70    1.70
   2  -1  21    8.50    1.10
   2  -1  21    9.30    1.10
   2  -1  21    9.60    1.10
  -2  -1 -21    9.30    1.10
  -2   1 -21    8.90    1.10
   2   1  21    9.30    1.10
   2   1  21    7.40    1.00
   3  -1  21   -0.10    0.60
   3  -1  21    0.00    0.60
   3  -1  21   -0.70    0.60
  -3   1 -21    0.00    0.60
   3   1  21    1.20    0.60
   3   1  21   -1.20    0.60
   4  -1  21    0.20    0.70
   4  -1  21    0.40    0.60
   4  -1  21    0.40    0.70
   4   1  21   -0.30    0.70
  -4   1 -21    1.20    0.70
   4   1  21    1.50    0.70
   5  -1  21    6.30    1.20
   5  -1  21    3.80    0.90
   5   1  21    6.60    1.30
   5   1  21    5.70    1.00
   6  -2 -21    1.10    0.90
   6   2 -21    0.20    0.90
   5  -2 -21    5.00    1.20
   5  -2 -21    5.40    1.00
   5   2 -21    5.90    1.20
   5   2 -21    6.00    1.10
   4  -2 -21   38.80    2.10
   4  -2 -21   36.20    1.90
  -4  -2  21   40.20    2.20
   4   2 -21   39.00    2.00
   4   2 -21   40.80    2.10
   3  -2 -21    0.80    0.70
   3  -2 -21    2.60    0.70
  -3  -2  21    3.70    0.90
   3   2 -21    2.10    0.80
   3   2 -21    1.50    0.70
  -2  -2  21    0.40    0.60
  -2  -2  21    1.10    0.70
   2  -2 -21    1.00    0.70
   2   2 -21    1.00    0.60
   2   2 -21    0.40    0.60
  -2   2  21   -0.10    0.60
  -1  -2  21   -0.40    0.60
  -1  -2  21    1.40    0.70
   1  -2 -21    0.50    0.60
   1  -2 -21    0.70    0.50
   1   2 -21    0.00    0.60
  -1   2  21    0.90    0.60
  -1   2  21    0.10    0.50
   1   2 -21    0.60    0.60
  -1   2  21   -0.10    0.60
   0  -2 -21   -0.50    0.60
   0  -2  21   -0.80    0.60
   0  -2  21    0.80    0.60
   0  -2 -21    0.40    0.50
   0   2  21   -0.60    0.60
   0   2  21   -0.60    0.50
   0   2  21   -0.50    0.40
   0   2 -21   -0.10    0.60
   0   2 -21   -0.90    0.50
   1  -2  21   72.29    2.60
  -1  -2 -21   71.19    2.50
  -1  -2 -21   74.29    2.50
   1  -2  21   73.99    2.60
  -1   2 -21   67.99    2.60
  -1   2 -21   80.19    2.70
   1   2  21   69.69    2.60
   1   2  21   71.39    2.50
   2  -2  21   11.30    1.30
   2  -2  21   13.40    1.20
   2  -2  21   14.90    1.40
  -2   2 -21   16.30    1.40
   2   2  21   17.10    1.50
   2   2  21   13.90    1.40
   3  -2  21   -0.40    0.60
   3  -2  21    0.80    0.70
   3  -2  21   -0.60    0.70
   3   2  21    1.30    0.70
  -3   2 -21    0.20    0.70
   3   2  21    0.20    0.70
   4  -2  21    5.20    1.00
   4  -2  21    4.90    1.00
   4  -2  21    4.10    0.90
  -4   2 -21    1.40    0.80
   4   2  21    5.20    1.10
   4   2  21    3.80    0.90
   5  -2  21    1.10    0.90
   5  -2  21    0.00    0.90
   5   2  21    1.50    0.80
  -5   2 -21    1.30    0.90
   5  -3 -21    1.80    1.10
   5  -3 -21    2.10    0.90
  -5  -3  21    2.00    1.00
   5   3 -21    3.10    0.90
   5   3 -21    1.40    0.90
  -4  -3  21    4.20    1.10
   4  -3 -21    3.40    1.00
   4  -3 -21    3.70    0.90
   4   3 -21    1.70    0.80
   4   3 -21    4.10    1.00
   3  -3 -21    0.00    0.70
  -3  -3  21   -0.40    0.70
   3   3 -21   -0.20    0.70
   3   3 -21    0.60    0.80
   2  -3 -21    4.30    0.90
  -2  -3  21    5.30    1.00
   2   3 -21    4.60    0.90
  -2   3  21    5.50    0.90
  -2   3  21    4.00    0.90
   2   3 -21    3.90    0.90
  -1  -3  21    5.20    0.90
  -1  -3  21    5.10    1.00
   1  -3 -21    5.70    1.00
  -1   3  21    5.40    0.90
   1   3 -21    5.30    1.00
  -1   3  21    5.00    1.00
   1   3 -21    4.80    1.00
   0  -3  21    7.10    1.10
   0  -3  21    7.10    1.20
   0  -3 -21    5.40    1.00
   0   3 -21    8.60    1.20
   0   3  21    7.70    1.00
   0   3  21    6.20    1.00
   0   3 -21    7.00    1.10
   1  -3  21   28.80    1.90
   1  -3  21   30.70    1.90
  -1   3 -21   31.60    1.80
   1   3  21   30.60    1.80
  -1   3 -21   27.60    1.80
   1   3  21   27.80    1.70
   2  -3  21    2.60    0.80
   2  -3  21    2.10    0.90
  -2   3 -21    1.90    0.80
   2   3  21    2.10    0.90
   2   3  21    2.20    0.80
   3  -3  21    1.80    0.80
   3  -3  21    1.20    0.70
   3  -3  21   -0.30    0.80
  -3   3 -21   -0.10    0.70
   3   3  21   -0.10    0.60
   3   3  21   -0.10    0.70
   4  -3  21    2.20    1.00
   4  -3  21    2.50    0.90
   4  -3  21    2.40    0.90
   4   3  21    5.40    1.20
   4   3  21    3.20    0.90
  -4   3 -21    1.90    0.90
   5  -4 -21   -0.10    0.80
   5  -4 -21   -0.40    0.90
  -5  -4  21    0.70    0.90
   5   4 -21    1.10    0.90
   4  -4 -21    4.80    1.10
  -4  -4  21    4.00    1.10
   4  -4 -21    7.10    1.10
   4   4 -21    4.50    1.10
   4   4 -21    5.10    1.20
  -3  -4  21    5.90    1.20
   3  -4 -21    7.30    1.20
   3   4 -21    5.20    1.00
  -3   4  21    5.70    1.00
   3   4 -21    4.70    1.00
  -2  -4  21   -0.60    0.50
   2  -4 -21   -0.70    0.70
   2   4 -21    0.10    0.70
  -2   4  21    0.20    0.70
  -2   4  21   -0.20    0.80
   2   4 -21    1.20    0.80
  -1  -4  21    1.80    0.80
   1  -4 -21    2.30    0.90
  -1  -4  21    1.20    0.80
  -1  -4  21    2.00    0.70
   1   4 -21    3.10    0.90
  -1   4  21    3.00    0.90
  -1   4  21    2.70    0.90
   1   4 -21    1.80    0.80
   0  -4  21   28.80    1.90
   0  -4  21   27.10    1.90
   0  -4 -21   26.20    1.80
   0   4 -21   26.80    1.90
   0   4  21   25.00    1.70
   0   4  21   27.40    1.90
   0   4 -21   28.50    1.90
   1  -4  21    0.70    0.90
   1  -4  21   -0.30    0.80
   1   4  21   -0.20    0.70
   1   4  21    0.10    0.70
  -1   4 -21    0.60    0.80
  -1   4 -21    0.30    0.80
   2  -4  21    5.60    1.20
   2  -4  21    8.40    1.20
  -2   4 -21    6.40    1.10
   2   4  21    6.60    1.10
   2   4  21    4.90    1.00
   3  -4  21    0.60    0.80
   3  -4  21   -0.50    0.80
   3   4  21    0.30    0.70
  -3   4 -21    0.90    0.80
   3   4  21   -0.60    0.80
   4  -4  21    0.30    1.00
   4  -4  21   -0.20    0.80
  -4   4 -21   -0.10    0.80
  -4  -5  21    1.90    1.00
  -4   5  21   -1.00    1.00
   4   5 -21    0.10    0.90
   3  -5 -21    7.10    1.30
  -3  -5  21    8.70    1.30
   3   5 -21    6.90    1.20
  -3   5  21    7.60    1.20
   3   5 -21    8.10    1.30
  -2  -5  21    0.50    0.80
   2  -5 -21    2.90    1.10
   2   5 -21    1.90    0.90
   2   5 -21    2.40    0.90
  -2   5  21    1.80    1.00
  -2   5  21    0.90    0.80
  -1  -5  21    0.80    0.70
  -1  -5  21    1.60    0.80
   1  -5 -21    2.20    1.00
  -1   5  21    2.70    0.90
  -1   5  21    1.00    0.60
   1   5 -21    0.60    0.90
   1   5 -21    0.60    0.90
   0  -5  21    7.20    1.20
   0  -5  21    6.30    1.00
   0  -5 -21    5.80    1.20
   0  -5  21    8.40    1.30
   0   5 -21    7.70    1.30
   0   5  21    7.20    1.30
   0   5 -21    6.50    1.20
   0   5  21    8.20    1.30
   1  -5  21    0.20    0.90
   1  -5  21    2.40    1.00
  -1   5 -21    1.90    0.90
  -1   5 -21    1.00    0.90
   1   5  21    1.30    0.90
   1   5  21   -0.60    0.80
   2  -5  21    0.90    1.00
   2  -5  21    0.80    0.90
   2   5  21   -0.40    0.70
  -2   5 -21   -0.60    0.80
   2   5  21    0.70    0.90
  -3   5 -21   -1.20    0.70
   3   5  21    0.80    1.00
  -3  -6  21    0.10    0.90
  -3   6  21   -0.50    0.80
  -2  -6  21    0.80    0.90
   2  -6 -21    1.70    1.10
  -2  -6  21   -0.30    0.80
  -2   6  21    2.60    0.80
  -2   6  21    0.20    1.00
  -1  -6  21    1.50    0.90
  -1  -6  21    2.40    0.80
   1  -6 -21    3.40    1.10
  -1   6  21    3.30    1.10
   1   6 -21    4.30    1.10
  -1   6  21    2.60    1.10
   1   6 -21    2.40    1.10
   0  -6  21    0.40    1.00
   0  -6  21    0.40    0.80
   0  -6  21    0.20    0.90
   0   6 -21    1.50    0.90
   0   6  21    0.50    0.90
   0   6  21   -0.50    0.90
   0   6 -21    1.40    1.00
   1  -6  21   -0.60    0.90
   1  -6  21    2.20    1.10
   1   6  21   -0.40    0.90
  -1   6 -21   -0.80    1.00
  -1   6 -21    1.00    0.90
   6   0 -22    0.90    0.90
   5   0 -22    0.10    0.70
   5   0 -22    2.00    0.90
   4   0 -22    0.90    0.80
   4   0 -22    1.30    0.80
  -3   0  22    1.10    0.70
   3   0 -22   -1.60    0.40
   3   0 -22   -0.50    0.60
   2   0 -22    0.90    0.50
  -2   0  22    0.40    0.60
  -2   0  22    0.60    0.60
   2   0 -22    0.70    0.70
   1   0 -22    0.00    0.50
   1   0 -22   -0.90    0.60
  -1   0  22   -0.50    0.50
  -1   0  22    0.30    0.60
   0   0  22    8.00    1.10
   0   0  22    7.60    1.00
   0   0 -22    8.80    1.10
   0   0 -22    5.50    0.90
   1   0  22    1.50    0.80
  -1   0 -22    1.20    0.70
   1   0  22    0.30    0.60
  -1   0 -22    1.40    0.70
   1   0  22    2.20    0.70
   2   0  22   56.89    2.20
   2   0  22   57.09    2.30
   2   0  22   58.19    2.20
  -2   0 -22   53.99    2.30
   3   0  22    0.20    0.60
  -3   0 -22   -1.00    0.60
   3   0  22    0.80    0.70
   4   0  22    6.60    1.10
   4   0  22    4.80    0.90
   5  -1 -22    2.70    0.90
   5  -1 -22    1.80    0.90
   5   1 -22    3.10    0.90
   5   1 -22    1.70    0.90
   4  -1 -22   30.00    1.80
  -4  -1  22   30.50    2.10
   4  -1 -22   31.30    1.90
   4   1 -22   32.30    1.90
   4   1 -22   30.10    1.90
   3  -1 -22    6.00    1.00
  -3  -1  22    3.40    0.90
   3  -1 -22    2.20    0.70
   3   1 -22    4.10    0.90
   3   1 -22    5.30    0.90
   3   1 -22    4.30    0.80
  -2  -1  22    0.60    0.70
  -2  -1  22   -0.50    0.60
   2  -1 -22   -0.60    0.60
  -2   1  22    0.10    0.60
   2   1 -22   -0.40    0.60
  -2   1  22    0.70    0.60
   2   1 -22   -0.30    0.50
   1  -1 -22   10.20    1.20
  -1  -1  22   10.10    1.20
   1  -1 -22    7.70    0.90
  -1  -1  22   10.90    1.20
  -1   1  22    9.40    1.00
   1   1 -22   10.50    1.20
  -1   1  22    9.90    1.10
   1   1 -22    8.20    1.00
   0  -1  22   12.60    1.30
   0  -1  22   14.10    1.30
   0  -1 -22   17.60    1.50
   0  -1 -22   11.90    1.20
   0   1  22   14.30    1.20
   0   1  22   14.20    1.20
   0   1  22   13.90    1.20
   0   1 -22   15.00    1.40
   0   1 -22   15.00    1.30
   1  -1  22    0.20    0.70
  -1  -1 -22    0.40    0.60
  -1  -1 -22   -0.80    0.60
   1  -1  22   -0.50    0.70
  -1   1 -22   -0.30    0.70
   1   1  22   -0.40    0.60
   1   1  22    1.50    0.70
  -1   1 -22   -0.10    0.70
   1   1  22   -0.20    0.50
  -2  -1 -22   20.70    1.60
   2  -1  22   19.90    1.50
   2  -1  22   16.40    1.30
   2  -1  22   18.10    1.50
   2   1  22   18.00    1.50
  -2   1 -22   19.10    1.60
   2   1  22   19.70    1.50
   3  -1  22    0.30    0.60
   3  -1  22   -0.50    0.60
   3  -1  22   -0.70    0.70
  -3   1 -22    1.50    0.80
   3   1  22    0.70    0.70
   3   1  22    0.40    0.70
   4  -1  22   -0.60    0.70
   4  -1  22   -0.20    0.60
  -4   1 -22    0.20    0.70
   4   1  22    0.60    0.70
   4   1  22    0.60    0.80
   5  -2 -22    0.90    0.90
   5  -2 -22    0.80    0.80
   5   2 -22   -0.60    0.70
   5   2 -22    1.20    0.90
   4  -2 -22    0.60    0.80
   4  -2 -22   -1.10    0.70
  -4  -2  22   -0.40    0.60
   4   2 -22    1.60    0.80
   4   2 -22    0.90    0.70
  -3  -2  22    1.10    0.80
   3  -2 -22    1.60    0.80
   3   2 -22    0.70    0.80
   3   2 -22    2.20    0.80
  -2  -2  22    0.20    0.70
   2  -2 -22    0.80    0.70
   2   2 -22   -0.80    0.60
  -2   2  22   -0.50    0.50
   2   2 -22   -0.80    0.60
  -1  -2  22    0.80    0.70
   1  -2 -22    1.50    0.60
   1  -2 -22    0.60    0.70
  -1  -2  22    1.60    0.80
  -1   2  22    1.70    0.60
  -1   2  22    1.00    0.70
   1   2 -22    2.10    0.80
  -1   2  22    1.40    0.60
   1   2 -22    0.40    0.70
   0  -2 -22   38.60    1.80
   0  -2  22   32.20    1.90
   0  -2  22   39.10    2.00
   0  -2 -22   40.00    2.00
   0   2  22   36.10    1.90
   0   2  22   34.30    1.70
   0   2 -22   37.40    2.00
   0   2 -22   35.40    1.90
  -1  -2 -22    4.50    0.90
   1  -2  22    4.50    1.00
   1  -2  22    2.50    0.90
  -1   2 -22    4.20    0.90
   1   2  22    3.10    0.80
   1   2  22    2.90    0.80
  -1   2 -22    5.20    0.90
   2  -2  22    1.00    0.80
   2  -2  22    0.90    0.80
   2   2  22    1.70    0.80
  -2   2 -22    2.00    0.80
   2   2  22    0.30    0.70
   3  -2  22    0.00    0.60
   3  -2  22    0.10    0.80
   3  -2  22    0.70    0.70
  -3   2 -22    0.70    0.70
   3   2  22    1.20    0.70
   3   2  22   -0.60    0.70
   4  -2  22    0.20    0.70
   4  -2  22   -1.30    0.70
   4  -2  22    1.00    0.80
   4   2  22   -0.10    0.80
   4   2  22   -0.70    0.70
  -4   2 -22   -0.80    0.70
   5  -2  22    2.20    1.10
   5  -3 -22    0.10    0.80
  -5  -3  22    0.20    0.90
   4  -3 -22    9.20    1.30
   4  -3 -22    9.50    1.20
  -4  -3  22    9.40    1.40
   4   3 -22    8.40    1.30
   4   3 -22    8.00    1.20
   3  -3 -22   -0.70    0.60
  -3  -3  22    1.00    0.80
   3   3 -22   -0.70    0.70
   3   3 -22    0.30    0.70
  -2  -3  22    0.70    0.80
   2  -3 -22   -0.20    0.70
  -2   3  22    1.40    0.70
   2   3 -22    0.80    0.70
   2   3 -22   -0.10    0.60
  -2   3  22    1.20    0.80
  -1  -3  22   17.10    1.50
  -1  -3  22   18.50    1.50
   1  -3 -22   17.80    1.60
   1   3 -22   20.10    1.60
   1   3 -22   16.20    1.50
  -1   3  22   18.60    1.50
  -1   3  22   18.70    1.60
   0  -3  22    3.60    0.90
   0  -3  22    2.20    0.90
   0  -3 -22    2.90    0.90
   0   3 -22    2.10    0.80
   0   3 -22    3.40    0.90
   0   3  22    3.20    0.80
   0   3  22    3.50    0.90
   1  -3  22    2.50    0.90
   1  -3  22    4.20    1.00
   1   3  22    2.40    0.90
   1   3  22    3.40    0.90
  -1   3 -22    3.20    0.90
  -1   3 -22    3.00    0.90
   2  -3  22   18.00    1.60
   2  -3  22   16.60    1.50
  -2   3 -22   18.50    1.70
   2   3  22   15.90    1.50
   2   3  22   16.40    1.40
   3  -3  22    0.50    0.80
   3  -3  22    2.50    1.00
  -3   3 -22    1.10    0.80
   3   3  22    0.80    0.70
   3   3  22    0.90    0.90
   4  -3  22   -1.00    0.80
   4  -3  22    0.80    0.90
   4   3  22    2.10    0.90
  -4   3 -22    1.80    0.90
   4   3  22    2.60    1.00
   5  -4 -22   16.20    1.80
   5   4 -22   16.70    1.70
   4  -4 -22    2.00    1.00
  -4  -4  22    1.20    0.90
   4   4 -22   -0.40    0.80
   4   4 -22    0.50    0.80
  -3  -4  22    4.70    1.10
   3  -4 -22    4.80    1.10
   3   4 -22    6.60    1.30
   3   4 -22    4.60    1.10
  -3   4  22    5.60    1.00
  -2  -4  22   -0.80    0.60
   2  -4 -22    0.30    0.80
   2   4 -22   -0.50    0.70
   2   4 -22   -0.50    0.70
  -2   4  22    0.60    0.80
  -2   4  22    1.90    0.80
  -1  -4  22    0.30    0.70
   1  -4 -22    0.90    0.80
  -1  -4  22   -0.10    0.70
  -1   4  22    0.50    0.80
   1   4 -22    0.50    0.60
   1   4 -22   -0.70    0.70
  -1   4  22    0.20    0.70
   0  -4 -22    0.70    0.80
   0  -4  22    0.70    0.80
   0  -4  22   -0.30    0.80
   0   4  22    0.50    0.80
   0   4 -22    1.00    0.90
   0   4  22    1.10    0.80
   0   4 -22    0.60    0.80
   1  -4  22    5.00    1.10
   1  -4  22    4.70    1.10
  -1   4 -22    4.00    1.00
  -1   4 -22    4.00    1.10
   1   4  22    6.10    1.10
   1   4  22    5.80    1.10
   2  -4  22    1.90    0.90
   2  -4  22    1.90    1.00
   2   4  22    2.00    1.00
  -2   4 -22    0.70    0.80
   2   4  22    2.40    1.00
   3  -4  22    1.40    0.80
   3  -4  22   -0.50    0.90
  -3   4 -22    0.20    0.80
   3   4  22    0.30    0.90
   3   4  22   -0.20    0.90
   3  -5 -22    2.10    1.00
  -3  -5  22   -0.70    0.70
   3   5 -22   -0.60    0.80
  -3   5  22    1.60    0.90
  -2  -5  22    0.80    0.90
   2  -5 -22   -0.30    0.90
  -2   5  22   -0.70    0.80
   2   5 -22    0.50    0.90
   2   5 -22    0.90    0.90
  -2   5  22   -0.60    0.80
  -1  -5  22    2.10    1.00
  -1  -5  22    1.00    0.70
   1  -5 -22   -0.10    0.90
  -1   5  22   -0.40    0.80
   1   5 -22    0.70    0.90
   1   5 -22    0.70    0.90
  -1   5  22    0.90    0.90
   0  -5  22    5.40    1.20
   0  -5  22    3.50    1.10
   0  -5  22    3.10    1.00
   0   5  22    4.00    1.10
   0   5 -22    2.30    1.10
   0   5  22    4.90    1.20
   0   5 -22    3.20    1.00
   1  -5  22   -0.80    0.80
   1  -5  22    0.60    1.00
  -1   5 -22    1.80    0.90
  -1   5 -22    0.40    0.90
   1   5  22    1.40    0.90
   1   5  22    1.20    0.90
   2  -5  22    2.00    1.00
   2  -5  22    2.60    1.10
  -2   5 -22    1.50    0.90
   2   5  22    3.30    0.90
  -2   6  22   -0.20    0.90
  -1  -6  22    4.80    1.30
   1  -6 -22    3.90    1.30
  -1   6  22    5.00    1.20
  -1   6  22    5.00    1.30
   0  -6  22   11.40    1.50
   0  -6  22   12.40    1.70
   0   6 -22   15.70    1.80
   5   0 -23    9.00    1.40
   5   0 -23   11.40    1.40
   4   0 -23    1.00    0.80
   4   0 -23    0.40    0.70
   3   0 -23    1.20    0.70
   3   0 -23    1.00    0.60
  -3   0  23    0.40    0.80
  -2   0  23   -0.40    0.60
  -2   0  23   -0.10    0.60
   2   0 -23   -1.00    0.60
   2   0 -23   -0.70    0.50
  -1   0  23    7.00    1.00
   1   0 -23    5.00    0.90
   1   0 -23    8.20    1.10
  -1   0  23    7.70    1.10
   0   0 -23    0.10    0.60
   0   0 -23   -0.50    0.60
   0   0  23   -0.40    0.60
   0   0  23   -0.30    0.70
  -1   0 -23   58.89    2.40
   1   0  23   62.89    2.50
  -1   0 -23   61.29    2.40
   1   0  23   60.99    2.30
   1   0  23   63.69    2.20
   2   0  23    0.00    0.70
   2   0  23   -0.60    0.60
  -2   0 -23   -0.10    0.70
   2   0  23   -0.10    0.60
   3   0  23    0.40    0.80
  -3   0 -23    1.10    0.80
   3   0  23    0.80    0.70
   4   0  23   -0.30    0.70
   4   0  23    0.70    0.70
   5  -1 -23   14.20    1.50
   5  -1 -23   11.80    1.40
   5   1 -23   13.20    1.60
  -4  -1  23    9.40    1.40
   4  -1 -23    8.20    1.20
   4  -1 -23    9.90    1.30
   4   1 -23   10.00    1.30
   4   1 -23   11.20    1.30
   3  -1 -23   -0.20    0.60
  -3  -1  23    0.40    0.70
   3   1 -23    0.20    0.60
   3   1 -23    0.40    0.70
   3   1 -23    0.20    0.60
  -2  -1  23    1.70    0.80
  -2  -1  23    0.50    0.70
   2  -1 -23    0.80    0.70
   2   1 -23    0.00    0.60
  -2   1  23    1.40    0.70
   2   1 -23    0.30    0.70
  -2   1  23    1.30    0.70
  -1  -1  23   17.80    1.50
   1  -1 -23   20.00    1.60
   1  -1 -23   18.30    1.30
  -1  -1  23   22.30    1.60
   1   1 -23   22.00    1.70
   1   1 -23   22.00    1.70
  -1   1  23   19.30    1.60
  -1   1  23   20.50    1.40
   0  -1  23   -0.10    0.50
   0  -1 -23    0.30    0.70
   0  -1 -23    0.30    0.60
   0  -1  23    0.40    0.50
   0   1  23    0.40    0.60
   0   1  23    0.60    0.70
   0   1 -23   -1.00    0.60
   0   1 -23    1.40    0.80
   0   1  23    0.30    0.60
   1  -1  23    1.30    0.70
   1  -1  23    1.70    0.80
  -1  -1 -23    0.70    0.60
  -1   1 -23    1.70    0.80
   1   1  23    1.10    0.80
   1   1  23    2.00    0.70
  -1   1 -23    0.80    0.70
   2  -1  23    2.60    0.70
  -2  -1 -23   -0.20    0.70
   2  -1  23    1.00    0.80
   2  -1  23    2.40    0.80
  -2   1 -23    0.50    0.80
   2   1  23    1.30    0.70
   2   1  23    2.10    0.80
   3  -1  23    1.80    0.80
   3  -1  23    1.80    0.80
   3  -1  23    1.20    0.70
  -3   1 -23    2.50    0.90
   3   1  23    1.30    0.80
   3   1  23    2.20    0.80
   4  -1  23    0.60    0.70
   4  -1  23    0.00    0.80
  -4   1 -23   -0.10    0.80
   4   1  23   -0.80    0.70
   4   1  23    0.50    0.70
   5   2 -23   23.00    1.90
   5   2 -23   27.30    2.10
  -4  -2  23    3.20    1.10
   4  -2 -23    6.00    1.10
   4  -2 -23    2.40    0.90
   4   2 -23    2.80    0.90
  -3  -2  23   -0.90    0.70
   3  -2 -23    0.50    0.70
   3   2 -23    0.20    0.70
   3   2 -23    0.60    0.70
   2  -2 -23    0.50    0.70
  -2  -2  23    1.40    0.70
   2   2 -23    0.20    0.70
  -2   2  23   -0.50    0.60
   2   2 -23   -0.60    0.60
   1  -2 -23    0.70    0.70
  -1  -2  23    0.80    0.70
  -1  -2  23    0.20    0.70
  -1   2  23    0.00    0.70
  -1   2  23    0.50    0.70
  -1   2  23    1.80    0.60
   1   2 -23    0.70    0.70
   1   2 -23    0.70    0.70
   0  -2  23    0.40    0.70
   0  -2 -23    0.80    0.60
   0  -2 -23    1.60    0.80
   0  -2  23    0.30    0.70
   0   2 -23    0.90    0.80
   0   2  23    0.70    0.80
   0   2  23    0.90    0.70
   0   2 -23    0.20    0.70
   1  -2  23    2.70    0.90
   1  -2  23    1.30    0.80
  -1  -2 -23    0.30    0.70
   1   2  23    1.10    0.70
   1   2  23    0.80    0.70
  -1   2 -23    1.70    0.80
  -1   2 -23    2.10    0.90
   2  -2  23    7.50    1.10
   2  -2  23    5.50    1.10
  -2   2 -23    5.50    1.10
   2   2  23    6.10    1.00
   2   2  23    6.20    1.10
   3  -2  23    5.00    1.00
   3  -2  23    5.40    1.00
   3  -2  23    3.90    1.00
   3   2  23    3.60    1.00
   3   2  23    5.50    1.10
  -3   2 -23    5.60    1.10
   4  -2  23    6.30    1.20
   4  -2  23    8.50    1.30
   4   2  23    6.40    1.10
   4   2  23    7.30    1.30
  -4   2 -23    6.90    1.30
   5  -3 -23    1.00    0.90
  -4  -3  23    1.40    1.00
   4  -3 -23    3.10    1.20
   4   3 -23    3.40    1.00
   4   3 -23    2.60    1.00
  -3  -3  23    0.00    0.80
   3  -3 -23   -0.30    0.80
   3   3 -23    0.90    0.80
   3   3 -23    1.30    0.80
   2  -3 -23    7.10    1.20
  -2  -3  23    5.80    1.10
  -2   3  23    4.80    1.00
   2   3 -23    4.90    1.00
   2   3 -23    6.30    1.10
  -1  -3  23    1.60    0.80
   1  -3 -23   -0.10    0.70
  -1  -3  23    0.40    0.80
   1   3 -23    1.10    0.90
  -1   3  23    2.20    0.90
  -1   3  23    0.60    0.70
   1   3 -23    2.40    0.90
   0  -3  23    2.20    0.90
   0  -3  23    2.30    0.90
   0  -3 -23    3.10    1.00
   0   3  23    2.70    0.80
   0   3  23    3.10    1.00
   0   3 -23    2.60    0.90
   0   3 -23    2.60    0.90
   1  -3  23    0.10    0.70
   1  -3  23   -0.10    0.80
  -1   3 -23   -0.50    0.60
   1   3  23    0.20    0.80
  -1   3 -23    0.80    0.80
   1   3  23    0.60    0.70
   2  -3  23    7.10    1.20
   2  -3  23    5.90    1.20
   2   3  23    7.20    1.20
  -2   3 -23    6.40    1.20
   2   3  23    5.90    1.10
   3  -3  23    2.30    1.00
   3  -3  23    2.00    0.90
  -3   3 -23    3.70    1.00
   3   3  23    1.70    1.10
   3   3  23    2.50    1.00
   4  -3  23    2.30    1.10
   4  -3  23    2.30    1.00
  -4  -4  23    0.60    0.90
   4   4 -23   -1.80    0.70
   3  -4 -23    1.90    1.00
  -3  -4  23    2.40    1.00
   3   4 -23    1.90    0.90
   3   4 -23    2.30    1.00
  -2  -4  23    2.40    1.00
   2  -4 -23    3.40    1.10
  -2   4  23    1.30    0.90
  -2   4  23    0.70    0.80
   2   4 -23    1.90    0.90
   2   4 -23    3.40    1.00
  -1  -4  23    0.60    0.90
   1  -4 -23    1.30    0.90
  -1  -4  23    1.10    0.90
  -1   4  23    0.40    0.80
  -1   4  23   -0.60    0.70
   1   4 -23   -1.00    0.80
   1   4 -23    0.20    0.80
   0  -4 -23   21.90    1.90
   0  -4  23   23.50    2.00
   0  -4  23   21.80    1.90
   0   4 -23   23.70    1.90
   0   4 -23   19.70    1.80
   0   4  23   22.60    1.90
   0   4  23   22.40    1.80
   1  -4  23    2.60    1.00
   1  -4  23    4.00    1.10
   1   4  23    2.40    1.00
  -1   4 -23    3.10    1.10
  -1   4 -23    1.50    0.90
   1   4  23    2.50    0.90
   2  -4  23    0.70    1.00
   2  -4  23    1.50    0.90
   2   4  23    0.60    0.90
  -2   4 -23    1.20    0.90
   2   4  23    0.10    0.80
  -3   4 -23    0.20    0.90
  -3   5  23   -0.80    0.80
   2  -5 -23   -0.50    0.80
  -2  -5  23    0.10    0.90
  -2   5  23   -1.20    0.70
   2   5 -23   -0.60    0.80
  -1  -5  23    3.40    1.10
  -1  -5  23    3.10    0.90
   1  -5 -23    0.30    0.90
  -1   5  23    1.10    0.90
  -1   5  23    1.40    1.00
   1   5 -23    1.70    1.00
   1   5 -23   -1.00    0.80
   0  -5  23    0.90    1.00
   0  -5  23    1.90    1.10
   0   5 -23    0.30    0.80
   0   5 -23    0.20    0.90
   0   5  23    0.60    0.90
   0   5  23   -0.40    0.90
   1  -5  23    0.80    0.90
   1  -5  23    1.60    1.00
  -1   5 -23   -1.00    0.80
   1   5  23    0.00    0.90
  -1  -6  23    1.70    1.00
   1  -6 -23    2.30    1.20
   0  -6  23    1.40    1.20
   5   0 -24    0.90    0.90
   4   0 -24    1.20    0.80
   4   0 -24   -0.50    0.70
   3   0 -24    0.20    0.70
  -3   0  24   -0.40    0.70
  -2   0  24    3.80    0.90
   2   0 -24    2.10    0.80
   2   0 -24    1.90    0.80
  -2   0  24    3.60    0.90
  -1   0  24    0.80    0.70
   1   0 -24    0.20    0.60
   1   0 -24    0.10    0.70
  -1   0  24    0.30    0.70
   0   0  24    4.30    0.90
   0   0 -24    4.10    0.90
   0   0  24    4.10    1.00
   0   0 -24    3.90    0.90
   1   0  24    0.80    0.70
   1   0  24   -0.40    0.70
  -1   0 -24    0.90    0.70
   2   0  24   13.20    1.30
   2   0  24   14.40    1.40
  -2   0 -24   14.50    1.50
   3   0  24   -0.80    0.60
   3   0  24   -0.60    0.70
  -3   0 -24   -0.10    0.70
   4   0  24    0.70    0.90
   5  -1 -24    1.30    0.90
   5   1 -24    1.80    1.00
   4  -1 -24    0.90    0.80
   4  -1 -24   -0.30    0.70
  -4  -1  24   -0.20    0.80
   4   1 -24    0.20    0.70
   4   1 -24   -0.70    0.70
   3  -1 -24   -0.10    0.70
  -3  -1  24    0.30    0.80
   3   1 -24   -0.50    0.60
   3   1 -24   -1.20    0.50
   3   1 -24    0.10    0.60
  -2  -1  24    3.00    0.80
   2  -1 -24    2.60    0.90
  -2   1  24    3.90    1.00
   2   1 -24    2.80    0.80
  -2   1  24    0.70    0.70
   2   1 -24    0.80    0.80
   1  -1 -24    1.90    0.80
  -1  -1  24    1.70    0.80
  -1  -1  24    1.60    0.70
   1  -1 -24    0.80    0.70
  -1   1  24    1.80    0.80
   1   1 -24    1.60    0.80
  -1   1  24    1.50    0.70
   1   1 -24    1.60    0.90
   0  -1  24    1.40    0.70
   0  -1 -24    2.80    0.80
   0  -1  24    2.80    0.90
   0  -1 -24    2.60    1.00
   0   1  24    2.20    0.80
   0   1 -24    1.70    0.80
   0   1 -24    2.60    0.90
   0   1  24    3.00    0.80
  -1  -1 -24    1.00    0.70
   1  -1  24   -0.40    0.70
   1  -1  24    0.50    0.80
   1   1  24   -1.00    0.60
  -1   1 -24    0.40    0.70
   1   1  24    0.50    0.70
  -1   1 -24    0.20    0.70
  -2  -1 -24    4.20    1.00
   2  -1  24    0.30    0.70
   2  -1  24    1.60    0.80
  -2   1 -24    0.50    0.70
   2   1  24    2.40    0.90
   2   1  24    2.20    0.80
   3  -1  24    3.00    0.90
   3  -1  24    1.80    0.90
   3  -1  24    1.40    0.80
   3   1  24    1.40    0.80
  -3   1 -24    3.00    1.00
   3   1  24    2.90    0.90
   4  -1  24    0.80    0.90
   4   1  24   -0.60    0.90
   5  -2 -24   -0.40    0.80
   5   2 -24    0.90    1.00
  -4  -2  24    6.00    1.30
   4  -2 -24    5.50    1.10
   4   2 -24    5.40    1.10
   4   2 -24    6.40    1.20
  -3  -2  24    1.10    0.80
   3  -2 -24    0.30    0.80
   3   2 -24    2.20    0.80
   3   2 -24    0.60    0.80
  -2  -2  24   -0.20    0.70
   2  -2 -24    0.70    0.80
   2   2 -24    0.40    0.70
  -2   2  24    0.20    0.70
   2   2 -24    0.50    0.80
  -1  -2  24    5.20    1.10
  -1  -2  24    7.00    1.10
   1  -2 -24    6.10    1.10
  -1   2  24    5.80    0.90
  -1   2  24    5.90    1.10
   1   2 -24    8.70    1.20
   1   2 -24    6.80    1.10
   0  -2 -24    7.10    1.00
   0  -2  24    7.10    1.20
   0  -2  24    8.90    1.30
   0  -2 -24    5.20    1.10
   0   2  24    6.60    1.10
   0   2 -24    7.20    1.10
   0   2 -24    8.10    1.20
   0   2  24    6.70    1.00
   1  -2  24   14.80    1.50
   1  -2  24   15.00    1.50
  -1   2 -24   14.40    1.50
   1   2  24   14.70    1.40
  -1   2 -24   14.10    1.50
   1   2  24   15.40    1.50
   2  -2  24    6.60    1.10
   2  -2  24    3.30    1.10
  -2   2 -24    6.50    1.20
   2   2  24    4.00    1.00
   2   2  24    5.00    1.00
   3  -2  24    2.60    0.90
   3  -2  24    0.40    0.90
   3   2  24    0.10    0.80
  -3   2 -24    0.90    0.80
   3   2  24    1.50    0.90
   4  -2  24    0.60    1.20
   4  -2  24    0.10    0.90
  -4  -3  24   14.00    1.70
   4   3 -24   11.80    1.40
  -3  -3  24   -0.20    0.80
   3  -3 -24   -0.80    0.70
   3   3 -24    0.80    0.80
   3   3 -24    1.70    0.90
   2  -3 -24    1.00    0.90
  -2  -3  24    1.50    0.90
   2   3 -24    0.90    0.80
  -2   3  24    1.60    0.90
   2   3 -24    1.00    0.80
  -1  -3  24    6.50    1.10
  -1  -3  24    6.20    1.20
   1  -3 -24    4.80    1.10
  -1   3  24    7.90    1.10
  -1   3  24    5.20    1.10
   1   3 -24    6.30    1.20
   1   3 -24    6.70    1.20
   0  -3  24   -0.20    0.80
   0  -3  24    1.50    0.90
   0  -3 -24   -0.20    0.80
   0   3  24   -0.50    0.70
   0   3 -24   -0.10    0.80
   0   3  24    0.90    0.80
   0   3 -24   -0.30    0.70
   1  -3  24    0.80    0.90
   1  -3  24   -0.30    0.80
   1   3  24    1.30    0.90
   1   3  24   -0.60    0.70
  -1   3 -24    0.50    0.90
  -1   3 -24    0.30    0.80
   2  -3  24    2.90    1.00
   2  -3  24    1.80    1.00
   2   3  24    3.50    1.00
   2   3  24    2.50    0.90
  -2   3 -24    3.20    1.00
   3  -3  24    4.20    1.20
  -3   3 -24    2.40    1.00
   3   3  24    4.50    1.20
   4   4 -24    3.80    1.10
  -3  -4  24    0.60    0.90
   3   4 -24    1.30    0.90
  -2  -4  24    0.30    0.80
   2  -4 -24    1.70    1.00
   2   4 -24    1.40    1.00
  -2   4  24    0.30    0.80
  -2   4  24    0.40    0.90
   2   4 -24    1.40    0.90
  -1  -4  24    0.60    0.80
  -1  -4  24    0.20    0.90
   1  -4 -24    0.50    0.90
   1   4 -24    0.10    0.80
  -1   4  24    0.00    0.90
   1   4 -24    1.20    0.90
  -1   4  24   -0.10    0.90
   0  -4  24    9.00    1.40
   0  -4  24    8.20    1.40
   0   4 -24   10.00    1.50
   0   4 -24    7.60    1.30
   0   4  24    8.90    1.30
   0   4  24    8.40    1.40
   1  -4  24    3.60    1.10
   1  -4  24    3.20    1.10
  -1   4 -24    4.40    1.10
   1   4  24    3.90    1.10
   1   4  24    2.50    1.00
   2  -4  24    1.70    1.10
   2   4  24    3.30    1.10
  -2   4 -24    1.00    0.90
  -2   5  24    0.90    1.10
   1  -5 -24    3.40    1.20
  -1   5  24    2.70    1.20
   1   5 -24    2.80    1.20
  -1   5  24    3.60    1.10
   0  -5  24    0.10    1.00
   0   5  24    1.80    1.00
   0   5 -24    1.10    1.00
   5   0 -25    5.10    1.20
   4   0 -25   -1.10    0.70
   4   0 -25    0.00    0.70
   3   0 -25    0.20    0.70
  -3   0  25    1.40    0.80
   2   0 -25    0.00    0.60
   2   0 -25    0.10    0.70
  -2   0  25    0.40    0.70
  -1   0  25   19.50    1.70
  -1   0  25   21.90    1.70
   1   0 -25   22.80    1.60
   1   0 -25   19.90    1.80
   0   0 -25    1.30    0.80
   0   0  25    0.70    0.80
   0   0 -25   -1.00    0.70
   0   0  25    0.60    0.70
   1   0  25    0.10    0.70
   1   0  25    1.10    0.90
  -1   0 -25   -0.30    0.70
   2   0  25    0.90    0.80
   2   0  25   -1.20    0.70
  -2   0 -25   -0.30    0.70
   3   0  25    0.00    0.80
  -3   0 -25   -0.60    0.80
   3   0  25    1.20    0.80
   4   0  25   -0.40    0.80
   5  -1 -25    1.30    0.90
   5   1 -25    2.10    1.00
  -4  -1  25    3.20    1.10
   4  -1 -25    1.80    0.90
   4   1 -25    4.00    1.00
   4   1 -25    3.10    1.00
   3  -1 -25    1.60    0.90
  -3  -1  25    0.10    0.80
   3   1 -25    1.30    0.80
  -2  -1  25    2.30    0.80
   2  -1 -25    2.70    0.90
  -2   1  25    2.30    0.90
  -2   1  25    0.50    0.80
   2   1 -25    0.50    0.70
   2   1 -25    1.60    0.80
   1  -1 -25   18.00    1.70
  -1  -1  25   20.50    1.70
   1  -1 -25   16.30    1.40
  -1  -1  25   16.10    1.50
  -1   1  25   19.50    1.70
   1   1 -25   17.00    1.50
   1   1 -25   18.10    1.70
  -1   1  25   17.30    1.50
   0  -1  25   -1.10    0.70
   0  -1 -25    0.60    0.80
   0  -1  25    1.20    0.80
   0  -1 -25   -0.20    0.60
   0   1  25    0.20    0.70
   0   1 -25   -0.30    0.70
   0   1 -25    0.80    0.80
   0   1  25   -0.80    0.60
  -1  -1 -25   -0.10    0.70
   1  -1  25    0.10    0.80
   1  -1  25   -0.40    0.70
   1   1  25    0.80    0.70
  -1   1 -25    0.70    0.70
   1   1  25    0.80    0.80
   2  -1  25    1.20    0.70
  -2  -1 -25   -0.50    0.70
   2  -1  25   -0.10    0.80
  -2   1 -25    0.00    0.70
   2   1  25   -0.40    0.70
   2   1  25    0.00    0.70
   3  -1  25    3.90    1.00
   3  -1  25    4.20    0.90
   3   1  25    5.60    1.20
   3   1  25    3.40    1.10
  -3   1 -25    6.10    1.20
   4  -1  25    1.20    1.00
  -4  -2  25    0.50    0.90
   4   2 -25    0.40    0.90
   3  -2 -25    0.20    0.80
  -3  -2  25    2.50    1.00
   3   2 -25    0.70    0.80
   3   2 -25    0.00    0.80
  -2  -2  25    3.90    1.10
   2  -2 -25    5.00    1.10
  -2   2  25    5.00    1.10
   2   2 -25    5.00    1.10
   2   2 -25    2.50    0.90
  -1  -2  25    0.60    0.80
  -1  -2  25    2.50    1.00
   1  -2 -25    1.80    0.90
   1   2 -25    2.70    1.00
  -1   2  25    2.90    1.00
   1   2 -25    3.40    0.90
   0  -2 -25    1.30    0.80
   0  -2  25   -1.30    0.70
   0  -2 -25   -0.30    0.80
   0  -2  25   -0.20    0.70
   0   2 -25   -0.50    0.70
   0   2  25   -0.80    0.70
   0   2  25   -0.40    0.60
   0   2 -25    0.20    0.80
   1  -2  25   20.10    1.80
   1  -2  25   18.00    1.70
   1   2  25   14.20    1.50
   1   2  25   17.80    1.60
  -1   2 -25   13.20    1.50
   2  -2  25   10.70    1.40
   2  -2  25    9.50    1.40
   2   2  25   11.50    1.50
  -2   2 -25   10.00    1.40
   2   2  25   11.40    1.40
   3  -2  25    2.30    1.00
   3   2  25    4.90    1.10
   4  -2  25    1.90    1.00
   4  -2  25   -0.30    1.00
   4   3 -25    0.00    0.90
  -3  -3  25    6.20    1.30
   3  -3 -25    6.60    1.30
   3   3 -25    6.00    1.20
   3   3 -25    3.70    1.10
  -2  -3  25    2.70    1.00
   2  -3 -25    1.20    0.90
   2   3 -25    1.40    0.90
   2   3 -25    0.40    0.90
   1  -3 -25    0.00    0.80
  -1  -3  25    0.40    0.80
  -1  -3  25   -0.10    0.80
   1   3 -25    1.00    0.80
  -1   3  25    0.00    0.80
   1   3 -25    0.40    0.80
  -1   3  25    0.20    0.80
   0  -3  25    2.90    1.00
   0  -3 -25    1.10    0.90
   0  -3  25    3.50    1.10
   0   3 -25    0.90    0.90
   0   3  25    2.10    0.90
   0   3  25    2.00    0.90
   0   3 -25    2.20    1.00
   1  -3  25    6.80    1.20
   1  -3  25    5.70    1.20
   1   3  25    5.60    1.20
  -1   3 -25    4.60    1.10
   1   3  25    3.70    1.10
   2  -3  25   -0.70    0.90
   2  -3  25   -0.10    0.80
   2   3  25    0.30    0.90
  -2   3 -25    0.50    0.80
   3   4 -25    1.20    1.00
   2  -4 -25    1.20    1.00
  -2  -4  25   -1.10    0.80
   2   4 -25    0.00    1.10
   1  -4 -25    3.00    1.10
  -1  -4  25    2.70    1.00
   1   4 -25    3.50    1.10
   1   4 -25    3.40    1.10
  -1   4  25    5.10    1.10
  -1   4  25    3.50    1.10
   0  -4  25    0.90    1.00
   0  -4  25   -0.10    0.90
   0   4 -25    0.30    0.90
   0   4 -25    0.70    0.90
   0   4  25    0.80    0.90
   0   4  25   -0.30    0.80
   1  -4  25    5.90    1.20
   1  -4  25    6.50    1.10
  -1   4 -25    3.40    1.10
   1   4  25    4.50    1.10
  -2   5  25    0.70    0.90
   1  -5 -25    4.30    1.30
  -1   5  25    4.10    1.10
   0  -5  25   -0.50    1.00
   5   0 -26   -0.20    0.80
  -3   0  26    0.00    0.60
   3   0 -26    0.10    0.80
  -2   0  26    1.20    0.90
   2   0 -26    1.10    0.90
   1   0 -26    0.60    0.80
   1   0 -26    0.10    0.70
  -1   0  26   -0.10    0.80
  -1   0  26    0.60    0.70
   0   0 -26    4.20    1.00
   0   0 -26    3.60    1.00
   0   0  26    2.80    1.00
   0   0  26    4.90    1.10
   1   0  26    0.70    0.70
   1   0  26    0.20    0.70
  -1   0 -26    0.00    0.70
   2   0  26    9.00    1.30
  -2   0 -26    7.90    1.30
   3   0  26    0.80    0.90
   4   1 -26    0.50    0.80
   3  -1 -26    2.30    1.00
  -3  -1  26    1.50    0.90
   3   1 -26    1.30    0.90
   2  -1 -26    1.00    0.90
  -2  -1  26    1.10    0.90
  -2   1  26    0.60    0.80
   2   1 -26   -0.40    0.80
   2   1 -26   -0.20    0.70
   1  -1 -26    1.60    1.00
   1  -1 -26    0.60    0.70
  -1  -1  26    1.20    0.90
  -1  -1  26    2.20    0.90
  -1   1  26    0.30    0.80
  -1   1  26    2.30    0.90
   1   1 -26    2.20    1.00
   1   1 -26    1.40    0.80
   0  -1 -26    3.30    1.00
   0  -1 -26    0.50    0.70
   0  -1  26    1.20    0.90
   0  -1  26    0.50    0.80
   0   1 -26    0.50    0.70
   0   1  26    2.40    1.00
   0   1 -26   -0.20    0.80
   1  -1  26    0.50    0.80
  -1  -1 -26    1.20    0.80
   1  -1  26    0.90    0.90
   1   1  26    0.80    0.80
  -1   1 -26    0.40    0.80
   2  -1  26   -1.10    0.70
   2  -1  26    1.60    0.80
  -2  -1 -26   -0.10    0.80
   2   1  26    0.00    0.70
   2   1  26   -0.50    0.80
  -2   1 -26    0.80    0.80
   3   1  26    0.70    1.00
   4   2 -26    0.90    0.90
  -3  -2  26    0.90    1.00
   3  -2 -26    1.50    0.90
   3   2 -26    1.30    0.90
   3   2 -26    1.70    0.90
  -2  -2  26   -1.00    0.80
   2  -2 -26    0.20    0.90
   2   2 -26    0.40    0.80
   2   2 -26    1.90    1.00
   1  -2 -26    2.70    1.00
  -1  -2  26    2.30    1.00
  -1  -2  26    3.60    1.00
   1   2 -26    1.30    0.90
   1   2 -26    2.30    1.10
  -1   2  26    2.50    0.90
   0  -2 -26    2.50    0.80
   0  -2 -26    2.10    1.00
   0  -2  26    1.60    0.90
   0  -2  26    1.20    0.90
   0   2  26    2.90    1.00
   0   2 -26    3.00    1.00
   0   2 -26    3.30    0.90
   1  -2  26   -0.20    0.70
   1  -2  26    0.60    0.90
   1   2  26    0.80    0.90
   1   2  26    0.20    0.80
  -1   2 -26    1.40    0.90
   2  -2  26    0.20    0.90
   2  -2  26    1.60    0.90
   2   2  26    3.60    1.00
  -2   2 -26    1.30    1.00
   3  -2  26    0.70    1.00
   4   3 -26   -0.50    1.00
   3   3 -26    0.10    0.90
  -2  -3  26    2.90    1.10
   2  -3 -26    6.90    1.30
   2   3 -26    6.60    1.20
   2   3 -26    5.20    1.40
   1  -3 -26    1.00    0.90
  -1  -3  26    1.40    0.90
  -1  -3  26    0.00    0.90
   1   3 -26    0.20    0.90
   1   3 -26    0.60    0.90
  -1   3  26    0.70    0.90
   0  -3  26    1.20    1.00
   0  -3  26    0.40    0.80
   0   3 -26    0.30    0.90
   0   3  26    1.30    0.80
   0   3 -26    1.30    0.90
   0   3  26    0.00    0.80
   1  -3  26    2.10    1.10
   1  -3  26    2.40    1.00
  -1   3 -26    2.10    1.10
   1   3  26    2.90    1.00
   1   3  26    2.10    1.00
   2  -3  26    1.80    1.10
   2   3  26    1.10    0.90
   1  -4 -26    0.30    1.00
  -1   4  26    0.90    0.90
  -1   4  26    1.40    1.00
   0  -4  26   -1.50    0.90
   0   4 -26   -1.10    0.90
   0   4  26    1.00    0.90
   1   4  26   -0.90    0.80
  -3   0  27    2.70    1.10
  -2   0  27   -1.30    0.70
   2   0 -27    0.10    0.80
  -1   0  27    2.70    0.90
   1   0 -27    1.60    1.00
  -1   0  27    2.50    1.00
   1   0 -27    1.80    0.90
   0   0 -27    0.10    0.80
   0   0  27   -0.90    0.70
   0   0 -27    0.70    0.80
   0   0  27    0.10    0.80
   1   0  27    1.10    0.90
  -1   0 -27   -0.30    0.80
  -2   0 -27   -0.60    0.90
   3   0  27    5.70    1.20
  -3  -1  27    0.50    0.90
  -2  -1  27    1.00    0.90
   2  -1 -27    1.30    0.90
   2   1 -27    0.20    0.90
   2   1 -27    1.50    0.90
  -2   1  27    1.20    0.90
   1  -1 -27    0.30    0.90
  -1  -1  27    0.10    0.90
  -1  -1  27    0.20    0.90
   1   1 -27   -1.00    0.90
   1   1 -27    1.00    0.90
  -1   1  27    0.00    0.80
  -1   1  27    0.60    0.90
   0  -1 -27   -0.50    0.70
   0  -1 -27    0.50    0.90
   0  -1  27    0.40    0.80
   0  -1  27    0.50    0.80
   0   1 -27    2.10    1.00
   0   1  27    1.40    0.90
   0   1 -27    0.30    0.80
   1  -1  27    2.80    1.00
  -1  -1 -27    2.50    0.90
   1  -1  27    1.60    1.00
  -1   1 -27    1.90    1.10
   1   1  27    1.30    1.00
   2  -1  27    2.10    1.00
  -2  -1 -27    2.90    1.00
   2   1  27    2.30    1.00
   3   2 -27   -0.70    0.80
  -2  -2  27    3.30    1.10
   2  -2 -27    3.50    1.00
   2   2 -27    3.20    1.10
   2   2 -27    3.00    1.00
   1  -2 -27   -0.40    0.90
  -1  -2  27    1.10    0.90
  -1  -2  27   -0.10    0.80
   1   2 -27    1.70    1.00
  -1   2  27   -1.00    0.80
   1   2 -27    0.90    0.90
   0  -2  27    0.30    0.80
   0  -2  27    0.70    0.80
   0   2 -27    1.70    1.00
   0   2  27    1.70    1.00
   0   2 -27    0.60    1.00
   1  -2  27    7.30    1.30
   1  -2  27    7.90    1.40
  -1   2 -27    9.30    1.40
   1   2  27    7.50    1.30
   1   2  27    8.90    1.40
   2  -2  27    2.70    1.30
   2   2  27    4.00    1.30
   2   3 -27    0.90    0.90
   1  -3 -27   -0.10    0.90
  -1   3  27    1.20    1.00
   1   3 -27   -0.70    0.80
   1   3 -27   -0.10    0.90
   0  -3  27   -0.40    0.90
   0  -3  27   -0.40    0.90
   0   3  27    0.20    0.80
   0   3 -27   -0.60    0.90
   0   3  27   -0.60    0.80
   1   3  27    2.60    1.00
   0   4  27    0.60    1.00
   2   0 -28    3.80    1.20
  -2   0  28    4.80    1.30
  -1   0  28   -0.20    0.90
  -1   0  28    0.70    0.90
   1   0 -28   -0.20    0.70
   1   0 -28   -0.80    0.80
   0   0  28    2.40    0.90
   0   0 -28    2.40    1.00
   0   0 -28    1.40    1.00
   0   0  28    0.20    0.90
  -1   0 -28    0.50    0.90
  -2  -1  28    3.50    1.00
  -2   1  28    3.90    1.10
   2   1 -28    1.60    0.90
   1  -1 -28    0.30    0.90
  -1  -1  28   -0.60    0.90
  -1  -1  28   -0.30    0.90
  -1   1  28   -1.30    0.80
   1   1 -28    1.00    0.90
  -1   1  28   -1.20    0.70
   1   1 -28   -1.60    0.90
   0  -1  28   -0.20    0.90
   0  -1 -28    0.60    0.80
   0  -1  28    0.70    0.90
   0   1 -28    2.40    1.10
   0   1 -28    0.40    0.90
   0   1  28    1.80    1.00
  -1  -1 -28    2.30    1.00
   1  -1  28    1.10    0.90
  -1   1 -28    2.10    1.00
   2   2 -28    1.40    0.90
  -1  -2  28   -0.30    1.00
  -1  -2  28    0.20    0.90
   1  -2 -28   -0.20    0.90
  -1   2  28   -0.90    0.80
   1   2 -28    0.80    0.90
   1   2 -28    1.20    1.00
   0  -2  28    0.50    0.90
   0  -2  28    0.40    0.90
   0   2 -28    0.00    1.00
   0   2 -28   -1.00    0.90
   0   2  28    1.10    1.00
   1  -2  28    1.10    1.00
   1  -3 -28    1.10    1.10
   0   3 -28   -0.30    1.00
  -2   0  29    0.20    0.90
   1   0 -29    0.20    0.90
  -1   0  29    2.00    1.10
   1   0 -29    5.20    1.30
  -1   0  29    2.30    1.00
   0   0  29   -0.40    0.90
   0   0 -29    1.10    0.90
  -2   1  29    0.20    0.90
  -1  -1  29    1.60    1.00
   1  -1 -29    0.50    1.00
  -1  -1  29    0.30    1.00
   1   1 -29    1.40    0.90
  -1   1  29    2.90    1.10
   0  -1 -29    0.40    0.90
   0  -1  29   -0.10    0.90
   0   1 -29   -1.20    1.00
   1  -1  29    0.70    1.00
   0   2 -29    0.60    1.10
   0   0   0    0.00    0.00


_computing_structure_solution     'SHELXT 2014/5 (Sheldrick, 2014)'
_computing_structure_solution     'SHELXT 2014/5 (Sheldrick, 2014)'
;
_shelx_hkl_checksum              17198
_olex2_submission_special_instructions 'No special instructions were received'
loop_
_space_group_symop_operation_xyz
'x, y, z'
'-x+1/2, y+1/2, -z+1/2'
'-x, -y, -z'
'x-1/2, -y-1/2, z-1/2'
loop_
_atom_site_label
_atom_site_type_symbol
_atom_site_fract_x
_atom_site_fract_y
_atom_site_fract_z
_atom_site_U_iso_or_equiv
_atom_site_adp_type
_atom_site_occupancy
_atom_site_site_symmetry_order
_atom_site_calc_flag
_atom_site_refinement_flags_posn
N001 N 0.34502(15) 0.71253(16) 0.50068(5) 0.0649(3) Uani 1 1 d .
N002 N -0.15929(18) 0.87852(17) 0.39664(5) 0.0737(3) Uani 1 1 d .
C003 C 0.76687(17) 0.66726(16) 0.68039(5) 0.0508(3) Uani 1 1 d .
C004 C 0.17244(18) 0.77424(16) 0.46881(5) 0.0527(3) Uani 1 1 d .
C005 C 0.58530(18) 0.70925(17) 0.64467(5) 0.0561(3) Uani 1 1 d .
H005 H 0.488917 0.771651 0.663209 0.067 Uiso 1 1 calc R
C006 C 0.36645(18) 0.73054(16) 0.55583(5) 0.0558(3) Uani 1 1 d .
H006 H 0.266470 0.784809 0.575187 0.067 Uiso 1 1 calc R
C007 C 0.54184(18) 0.66888(18) 0.58899(5) 0.0584(3) Uani 1 1 d .
H007 H 0.629623 0.596649 0.570302 0.070 Uiso 1 1 calc R
C008 C 0.92149(18) 0.56931(17) 0.65900(5) 0.0562(3) Uani 1 1 d .
H008 H 0.907838 0.524430 0.621123 0.067 Uiso 1 1 calc R
C009 C 0.7928(2) 0.73106(19) 0.73759(6) 0.0651(4) Uani 1 1 d .
H009 H 0.691738 0.795906 0.753099 0.078 Uiso 1 1 calc R
C00A C -0.01671(19) 0.73728(18) 0.48346(6) 0.0628(4) Uani 1 1 d .
H00A H -0.037211 0.677496 0.518066 0.075 Uiso 1 1 calc R
C00B C 1.09412(19) 0.5379(2) 0.69303(6) 0.0677(4) Uani 1 1 d .
H00B H 1.195892 0.472700 0.678057 0.081 Uiso 1 1 calc R
C00C C 0.1917(2) 0.86646(19) 0.41718(6) 0.0644(4) Uani 1 1 d .
H00C H 0.316234 0.894682 0.405336 0.077 Uiso 1 1 calc R
C00D C 1.1157(2) 0.6035(2) 0.74945(6) 0.0771(4) Uani 1 1 d .
H00D H 1.232000 0.582512 0.772492 0.092 Uiso 1 1 calc R
C00E C 0.0244(2) 0.91557(19) 0.38374(6) 0.0720(4) Uani 1 1 d .
H00E H 0.040502 0.979363 0.349591 0.086 Uiso 1 1 calc R
C00F C -0.1751(2) 0.7897(2) 0.44638(6) 0.0727(4) Uani 1 1 d .
H00F H -0.301369 0.761198 0.456766 0.087 Uiso 1 1 calc R
C00G C 0.9653(2) 0.6996(2) 0.77140(6) 0.0769(4) Uani 1 1 d .
H00G H 0.980109 0.743719 0.809355 0.092 Uiso 1 1 calc R
loop_
_atom_site_aniso_label
_atom_site_aniso_U_11
_atom_site_aniso_U_22
_atom_site_aniso_U_33
_atom_site_aniso_U_23
_atom_site_aniso_U_13
_atom_site_aniso_U_12
N001 0.0599(7) 0.0783(8) 0.0563(6) -0.0013(5) 0.0018(5) 0.0141(6)
N002 0.0767(8) 0.0775(8) 0.0649(7) 0.0021(6) -0.0083(6) 0.0133(6)
C003 0.0564(7) 0.0488(6) 0.0475(6) -0.0005(5) 0.0052(5) -0.0067(5)
C004 0.0571(7) 0.0503(7) 0.0504(6) -0.0045(5) 0.0033(5) 0.0057(5)
C005 0.0566(7) 0.0551(7) 0.0572(7) -0.0052(6) 0.0075(6) 0.0033(6)
C006 0.0550(7) 0.0557(7) 0.0569(7) -0.0023(6) 0.0063(6) 0.0053(6)
C007 0.0547(7) 0.0637(8) 0.0569(7) -0.0028(6) 0.0052(6) 0.0093(6)
C008 0.0593(7) 0.0612(7) 0.0481(6) -0.0012(5) 0.0049(5) -0.0019(6)
C009 0.0727(9) 0.0671(8) 0.0559(7) -0.0128(6) 0.0072(6) -0.0050(7)
C00A 0.0606(8) 0.0704(8) 0.0581(7) 0.0101(6) 0.0081(6) 0.0057(6)
C00B 0.0536(7) 0.0800(9) 0.0693(8) 0.0034(7) 0.0023(6) 0.0003(7)
C00C 0.0671(8) 0.0677(8) 0.0585(7) 0.0045(6) 0.0056(6) -0.0084(7)
C00D 0.0658(9) 0.0927(11) 0.0697(9) 0.0028(8) -0.0148(7) -0.0147(8)
C00E 0.0935(11) 0.0654(9) 0.0560(8) 0.0099(6) -0.0012(7) -0.0011(8)
C00F 0.0575(8) 0.0888(10) 0.0717(9) 0.0042(8) 0.0050(7) 0.0062(7)
C00G 0.0857(11) 0.0894(11) 0.0541(8) -0.0135(7) -0.0055(7) -0.0183(9)
loop_
_atom_type_symbol
_atom_type_description
_atom_type_scat_dispersion_real
_atom_type_scat_dispersion_imag
_atom_type_scat_source
C C 0.0033 0.0016 'International Tables Vol C Tables 4.2.6.8 and 6.1.1.4'
H H 0.0000 0.0000 'International Tables Vol C Tables 4.2.6.8 and 6.1.1.4'
N N 0.0061 0.0033 'International Tables Vol C Tables 4.2.6.8 and 6.1.1.4'
loop_
_geom_angle_atom_site_label_1
_geom_angle_atom_site_label_2
_geom_angle_atom_site_label_3
_geom_angle
C006 N001 C004 120.80(11)
C00E N002 C00F 115.49(12)
C008 C003 C005 122.52(11)
C008 C003 C009 117.60(11)
C009 C003 C005 119.85(12)
C00A C004 N001 124.07(12)
C00A C004 C00C 117.17(12)
C00C C004 N001 118.58(11)
C003 C005 H005 116.2
C007 C005 C003 127.66(12)
C007 C005 H005 116.2
N001 C006 H006 119.2
N001 C006 C007 121.53(12)
C007 C006 H006 119.2
C005 C007 C006 123.69(12)
C005 C007 H007 118.2
C006 C007 H007 118.2
C003 C008 H008 119.4
C00B C008 C003 121.16(12)
C00B C008 H008 119.4
C003 C009 H009 119.5
C00G C009 C003 121.07(13)
C00G C009 H009 119.5
C004 C00A H00A 120.3
C00F C00A C004 119.36(13)
C00F C00A H00A 120.3
C008 C00B H00B 120.1
C008 C00B C00D 119.89(13)
C00D C00B H00B 120.1
C004 C00C H00C 120.5
C00E C00C C004 119.00(13)
C00E C00C H00C 120.5
C00B C00D H00D 120.0
C00G C00D C00B 119.91(13)
C00G C00D H00D 120.0
N002 C00E C00C 124.72(13)
N002 C00E H00E 117.6
C00C C00E H00E 117.6
N002 C00F C00A 124.24(13)
N002 C00F H00F 117.9
C00A C00F H00F 117.9
C009 C00G H00G 119.8
C00D C00G C009 120.38(13)
C00D C00G H00G 119.8
loop_
_geom_bond_atom_site_label_1
_geom_bond_atom_site_label_2
_geom_bond_distance
N001 C004 1.4104(15)
N001 C006 1.2714(15)
N002 C00E 1.3303(18)
N002 C00F 1.3308(18)
C003 C005 1.4618(16)
C003 C008 1.3955(17)
C003 C009 1.3957(17)
C004 C00A 1.3776(18)
C004 C00C 1.3846(17)
C005 H005 0.9300
C005 C007 1.3256(17)
C006 H006 0.9300
C006 C007 1.4391(17)
C007 H007 0.9300
C008 H008 0.9300
C008 C00B 1.3787(17)
C009 H009 0.9300
C009 C00G 1.376(2)
C00A H00A 0.9300
C00A C00F 1.3771(18)
C00B H00B 0.9300
C00B C00D 1.382(2)
C00C H00C 0.9300
C00C C00E 1.372(2)
C00D H00D 0.9300
C00D C00G 1.371(2)
C00E H00E 0.9300
C00F H00F 0.9300
C00G H00G 0.9300
loop_
_geom_torsion_atom_site_label_1
_geom_torsion_atom_site_label_2
_geom_torsion_atom_site_label_3
_geom_torsion_atom_site_label_4
_geom_torsion
N001 C004 C00A C00F -173.91(12)
N001 C004 C00C C00E 175.31(13)
N001 C006 C007 C005 168.92(13)
C003 C005 C007 C006 -173.93(12)
C003 C008 C00B C00D 0.2(2)
C003 C009 C00G C00D -0.3(2)
C004 N001 C006 C007 -179.79(12)
C004 C00A C00F N002 -1.3(2)
C004 C00C C00E N002 -1.2(2)
C005 C003 C008 C00B 177.41(12)
C005 C003 C009 C00G -177.41(12)
C006 N001 C004 C00A -48.73(19)
C006 N001 C004 C00C 136.30(14)
C008 C003 C005 C007 -2.1(2)
C008 C003 C009 C00G 0.5(2)
C008 C00B C00D C00G 0.0(2)
C009 C003 C005 C007 175.71(13)
C009 C003 C008 C00B -0.47(19)
C00A C004 C00C C00E -0.01(19)
C00B C00D C00G C009 0.1(2)
C00C C004 C00A C00F 1.1(2)
C00E N002 C00F C00A 0.2(2)
C00F N002 C00E C00C 1.1(2)
