#------------------------------------------------------------------------------
#$Date: 2017-12-20 01:47:21 +0200 (Wed, 20 Dec 2017) $
#$Revision: 204365 $
#$URL: file:///home/coder/svn-repositories/cod/cif/4/12/68/4126878.cif $
#------------------------------------------------------------------------------
#
# This file is available in the Crystallography Open Database (COD),
# http://www.crystallography.net/
#
# All data on this site have been placed in the public domain by the
# contributors.
#
data_4126878
loop_
_publ_author_name
'Luo, Dong'
'Wang, Xue-Zhi'
'Yang, Chen'
'Zhou, Xiao-Ping'
'Li, Dan'
_publ_section_title
;
 Self-Assembly of Chiral Metal-Organic Tetartoid.
;
_journal_name_full               'Journal of the American Chemical Society'
_journal_paper_doi               10.1021/jacs.7b11285
_journal_year                    2017
_chemical_formula_sum            'C216 H224 Co20 F42 N72 O16 P7'
_chemical_formula_weight         6278.05
_space_group_crystal_system      cubic
_space_group_IT_number           196
_space_group_name_Hall           'F 2 2 3'
_space_group_name_H-M_alt        'F 2 3'
_symmetry_space_group_name_Hall  'F 2 2 3'
_symmetry_space_group_name_H-M   'F 2 3'
_atom_sites_solution_hydrogens   mixed
_audit_creation_method           SHELXL-2014/7
_cell_angle_alpha                90
_cell_angle_beta                 90
_cell_angle_gamma                90
_cell_formula_units_Z            4
_cell_length_a                   32.9732(2)
_cell_length_b                   32.9732(2)
_cell_length_c                   32.9732(2)
_cell_measurement_reflns_used    4288
_cell_measurement_temperature    100(2)
_cell_measurement_theta_max      69.8890
_cell_measurement_theta_min      4.6140
_cell_volume                     35849.5(4)
_computing_structure_refinement  'SHELXL-2014/7 (Sheldrick, 2014)'
_diffrn_ambient_temperature      100(2)
_diffrn_detector_area_resol_mean 10
_diffrn_measured_fraction_theta_full 0.982
_diffrn_measured_fraction_theta_max 0.960
_diffrn_measurement_device_type  'XtaLAB AFC12 (RINC): Kappa single'
_diffrn_measurement_method       '\w scans'
_diffrn_radiation_type           CuK\a
_diffrn_radiation_wavelength     1.54178
_diffrn_reflns_av_R_equivalents  0.0346
_diffrn_reflns_av_unetI/netI     0.0576
_diffrn_reflns_Laue_measured_fraction_full 0.982
_diffrn_reflns_Laue_measured_fraction_max 0.960
_diffrn_reflns_limit_h_max       40
_diffrn_reflns_limit_h_min       -22
_diffrn_reflns_limit_k_max       37
_diffrn_reflns_limit_k_min       -19
_diffrn_reflns_limit_l_max       21
_diffrn_reflns_limit_l_min       -39
_diffrn_reflns_number            10465
_diffrn_reflns_point_group_measured_fraction_full 0.983
_diffrn_reflns_point_group_measured_fraction_max 0.962
_diffrn_reflns_theta_full        67.679
_diffrn_reflns_theta_max         70.567
_diffrn_reflns_theta_min         2.680
_diffrn_source                   'fine-focus sealed X-ray tube'
_exptl_absorpt_coefficient_mu    7.955
_exptl_absorpt_correction_T_max  1
_exptl_absorpt_correction_T_min  0.67659
_exptl_absorpt_correction_type   multi-scan
_exptl_crystal_colour            purple
_exptl_crystal_density_diffrn    1.163
_exptl_crystal_description       polyhedron
_exptl_crystal_F_000             12700
_exptl_crystal_size_max          0.23
_exptl_crystal_size_mid          0.21
_exptl_crystal_size_min          0.18
_refine_diff_density_max         1.214
_refine_diff_density_min         -0.946
_refine_diff_density_rms         0.208
_refine_ls_abs_structure_details
;
 Refined as an inversion twin.
;
_refine_ls_abs_structure_Flack   0.18(2)
_refine_ls_extinction_method     none
_refine_ls_goodness_of_fit_ref   1.793
_refine_ls_hydrogen_treatment    constr
_refine_ls_matrix_type           full
_refine_ls_number_parameters     288
_refine_ls_number_reflns         5060
_refine_ls_number_restraints     0
_refine_ls_restrained_S_all      1.793
_refine_ls_R_factor_all          0.1684
_refine_ls_R_factor_gt           0.1568
_refine_ls_shift/su_max          0.000
_refine_ls_shift/su_mean         0.000
_refine_ls_structure_factor_coef Fsqd
_refine_ls_weighting_details
'w=1/[\s^2^(Fo^2^)+(0.2000P)^2^] where P=(Fo^2^+2Fc^2^)/3'
_refine_ls_weighting_scheme      calc
_refine_ls_wR_factor_gt          0.4104
_refine_ls_wR_factor_ref         0.4236
_reflns_Friedel_coverage         0.898
_reflns_Friedel_fraction_full    0.985
_reflns_Friedel_fraction_max     0.963
_reflns_number_gt                4148
_reflns_number_total             5060
_reflns_threshold_expression     'I > 2\s(I)'
_cod_data_source_file            ja7b11285_si_002.cif
_cod_data_source_block           delta-4
_cod_original_cell_volume        35849.5(7)
_cod_database_code               4126878
_shelx_shelxl_version_number     2014/7
_shelx_space_group_comment
;
The symmetry employed for this shelxl refinement is uniquely defined
by the following loop, which should always be used as a source of
symmetry information in preference to the above space-group names.
They are only intended as comments.
;
_shelx_res_file
;

    6.res created by SHELXL-2014/7

TITL 1 in F23 #196
CELL 1.54178 32.9732 32.9732 32.9732 90 90 90
ZERR 4 0.0002 0.0002 0.0002 0 0 0
LATT -4
SYMM +Z,+X,+Y
SYMM +Y,+Z,+X
SYMM -Y,-Z,+X
SYMM +Z,-X,-Y
SYMM -Y,+Z,-X
SYMM -Z,-X,+Y
SYMM -Z,+X,-Y
SYMM +Y,-Z,-X
SYMM -X,-Y,+Z
SYMM +X,-Y,-Z
SYMM -X,+Y,-Z
SFAC C H N O F P Co
UNIT 864 896 288 64 168 28 80

L.S. 20
PLAN  1
BOND
fmap 2
acta
TWIN -1 0 0 0 -1 0 0 0 -1 2
REM <olex2.extras>
REM <HklSrc "%.\\6.hkl">
REM </olex2.extras>

WGHT    0.200000
BASF   0.17778
FVAR       0.31533
CO1   7    0.891571    0.391571    0.108429    10.33333    0.03453    0.03453 =
         0.03453    0.00219    0.00219   -0.00219
CO2   7    0.969045    0.295878    0.244905    11.00000    0.06392    0.05999 =
         0.05145    0.00553   -0.00002    0.00689
O2    4    0.925330    0.250000    0.250000    10.50000    0.02203    0.02440 =
         0.01517    0.00016    0.00000    0.00000
N2    3    0.915322    0.351739    0.144042    11.00000    0.04099    0.02728 =
         0.02609    0.00866    0.01564    0.00485
N3    3    0.944406    0.311135    0.190132    11.00000    0.04228    0.03029 =
         0.03968   -0.00919    0.00038    0.00395
C16   1    0.917770    0.340932    0.181792    11.00000    0.05063    0.04303 =
         0.05897    0.01438   -0.00621   -0.00445
C17   1    0.961745    0.303399    0.151408    11.00000    0.03406    0.04810 =
         0.04437   -0.01055    0.00146    0.00723
AFIX  43
H17   2    0.981100    0.283681    0.145745    11.00000   -1.20000
AFIX   0
C18   1    0.945397    0.329554    0.123994    11.00000    0.03001    0.04912 =
         0.05006    0.00961    0.00574    0.00316

P1    6    1.000000    0.500000    0.000000    10.08333    0.03773    0.03773 =
         0.03773    0.00000    0.00000    0.00000
F1    5    0.950577    0.500000    0.000000    10.50000    0.05097    0.04775 =
         0.07145    0.00872    0.00000    0.00000
O1    4    1.006860    0.250000    0.250000    10.50000    0.04299    0.05202 =
         0.04771    0.00848    0.00000    0.00000
CO3   7    0.886726    0.386726    0.386726    10.33333    0.04957    0.04957 =
         0.04957   -0.00249   -0.00249   -0.00249
N6    3    0.922935    0.366806    0.342577    11.00000    0.05680    0.03671 =
         0.04951   -0.01192    0.00342    0.00057
C14   1    0.892702    0.297311    0.327356    11.00000    0.06275    0.05530 =
         0.06908   -0.00563    0.02442    0.00834
AFIX 137
H14A  2    0.884653    0.294847    0.355227    11.00000   -1.50000
H14B  2    0.903521    0.271916    0.318097    11.00000   -1.50000
H14C  2    0.869584    0.304487    0.311177    11.00000   -1.50000
AFIX   0
C12   1    0.949565    0.388467    0.328086    11.00000    0.05927    0.04351 =
         0.08816    0.00825    0.01556    0.00049
AFIX  43
H12   2    0.954792    0.415020    0.336033    11.00000   -1.20000
AFIX   0
N5    3    0.951082    0.330243    0.292276    11.00000    0.02884    0.03537 =
         0.04074   -0.00142    0.00473   -0.00287
C15   1    0.888168    0.352944    0.216454    11.00000    0.05986    0.04794 =
         0.05467    0.00257   -0.00013   -0.02313
AFIX 137
H15A  2    0.875691    0.378482    0.210147    11.00000   -1.50000
H15B  2    0.902920    0.355261    0.241448    11.00000   -1.50000
H15C  2    0.867610    0.332509    0.219178    11.00000   -1.50000
AFIX   0
C13   1    0.922320    0.327418    0.323812    11.00000    0.04317    0.05920 =
         0.03695   -0.00349    0.00750    0.00111
C11   1    0.970180    0.368311    0.299001    11.00000    0.05234    0.04742 =
         0.06238   -0.00654    0.01643   -0.00804

P2    6    0.755696    0.500000    0.000000    10.50000    0.08372    0.07298 =
         0.09151    0.00470    0.00000    0.00000
F2    5    0.798992    0.500000    0.000000    10.50000    0.07556    0.17608 =
         0.10550    0.06543    0.00000    0.00000
F4    5    0.751108    0.469510    0.038698    11.00000    0.09762    0.10307 =
         0.08324   -0.00179   -0.00454   -0.00056
F3    5    0.755962    0.539024    0.029909    11.00000    0.19127    0.10516 =
         0.11033    0.04966   -0.06682   -0.04379
O3    4    0.923845    0.423845    0.423845    10.33333    0.08480    0.08480 =
         0.08480   -0.00371   -0.00371   -0.00371
AFIX   7
H3A   2    0.929860    0.448230    0.476962    10.33333   -1.50000
H3B   2    0.973437    0.455078    0.426199    10.33333   -1.50000
AFIX   0
C7    1    1.038841    0.362163    0.177601    11.00000    0.04398    0.04340 =
         0.05167    0.00428   -0.00176   -0.00487
N4    3    1.010920    0.347173    0.241869    11.00000    0.05567    0.07285 =
         0.08286    0.00263    0.03109   -0.00716
C9    1    1.051262    0.353057    0.219521    11.00000    0.05162    0.11023 =
         0.05399   -0.01745    0.02349   -0.02041
AFIX  23
H9A   2    1.066579    0.375357    0.231076    11.00000   -1.20000
H9B   2    1.067603    0.328619    0.220619    11.00000   -1.20000
AFIX   0
C6    1    1.060131    0.346516    0.146103    11.00000    0.05266    0.05523 =
         0.07055    0.00276   -0.00445    0.01707
AFIX  43
H6    2    1.078980    0.326401    0.152068    11.00000   -1.20000
AFIX   0
C10   1    1.007068    0.372683    0.269738    11.00000    0.05573    0.03532 =
         0.03160   -0.00171    0.00093    0.00332
AFIX  43
H10   2    1.025680    0.393640    0.272892    11.00000   -1.20000
AFIX   0
C4    1    1.025885    0.386799    0.094942    11.00000    0.03208    0.08298 =
         0.03804   -0.01264    0.00693   -0.01149
AFIX  43
H4    2    1.020810    0.394555    0.068303    11.00000   -1.20000
AFIX   0
C5    1    1.056244    0.358015    0.105134    11.00000    0.05122    0.07305 =
         0.03622    0.00023    0.00494    0.01775
AFIX  43
H5    2    1.073083    0.347065    0.085334    11.00000   -1.20000
AFIX   0
C3    1    1.002528    0.403860    0.130120    11.00000    0.06736    0.06171 =
         0.03435   -0.00839    0.00870    0.02020
C8    1    1.009992    0.391102    0.168062    11.00000    0.04091    0.04849 =
         0.05475    0.01286    0.01759    0.02184
AFIX  43
H8    2    0.994935    0.402340    0.189098    11.00000   -1.20000
AFIX   0
C2    1    0.972070    0.438454    0.118930    11.00000    0.06308    0.04934 =
         0.05202    0.01412    0.01796   -0.00911
AFIX  23
H2A   2    0.980528    0.463493    0.131849    11.00000   -1.20000
H2B   2    0.972339    0.442687    0.089819    11.00000   -1.20000
AFIX   0
N1    3    0.932864    0.428776    0.131359    11.00000    0.03241    0.03428 =
         0.02075    0.00681    0.00445   -0.00271
C1    1    0.916599    0.452540    0.162500    11.00000    0.04928    0.07255 =
         0.04344    0.01458   -0.01923   -0.02059
AFIX  43
H1    2    0.931809    0.471577    0.176704    11.00000   -1.20000
AFIX   0

F5    5    0.708198    0.500000    0.000000    10.50000    0.07433    0.16830 =
         0.18523    0.00631    0.00000    0.00000
HKLF 4

REM  1 in F23 #196
REM R1 =  0.1568 for    4148 Fo > 4sig(Fo)  and  0.1684 for all    5060 data
REM    288 parameters refined using      0 restraints

END

WGHT      0.2000      0.0000

REM Highest difference peak  1.214,  deepest hole -0.946,  1-sigma level  0.208
Q1    1   0.9673  0.2527  0.2096  11.00000  0.05    1.21
;
_shelx_res_checksum              9978
_shelx_hkl_file
;
   0   2   0  146895     773
   2   2  -2  133697    5575
  -2   2   0  163120    1233
  -1   3   1  163037    2463
   1   1  -3  163791    2461
   1  -1  -3  160751    2176
   1  -3  -1  147632    2175
   3  -3   3  216823    9909
   3   3  -3  220407    9908
   3  -3   1     473     343
   1  -3   3     607     335
  -3   3  -1     750     319
  -3  -1   3     696     319
   0   0   4     181     338
   0   4   0     309     338
   4   2  -2    2653      76
  -4   2   0  103948    2981
   4   0  -2  167453    2980
  -4   0   2  150181    2979
   0   4   2  103939    2981
   0  -2   4  162698    2975
   2   0  -4  102477    2979
  -2   4  -2    3444      86
   2  -2  -4    3634     101
  -2  -2   4    3562      87
   2  -4  -2    3363     102
   4   4  -4   39676    1280
   4  -4   4   41946    1281
   2  -4   4   37971    2086
   4  -4   2   39606    2091
  -4   0   4  532222   21267
  -4   4   0  525244   21267
  -4  -2   4   38107    2073
  -1   1   5    6791     525
   1   1  -5    6452     521
  -1   5   1    6839     524
   1  -5   1    7376     521
   1  -5  -1    4916     406
   1  -1  -5    6204     410
   5  -3   3    9158     764
   5   3  -3    9158     763
  -5   3   1   46690    2044
   5   1  -3   40357    2042
  -1   5   3   49635    2045
   5  -3   1   45769    2043
   1  -5   3   45410    2034
   3  -1  -5   47328    2026
  -1   5  -3   43226    2018
   1  -5  -3   45477    2028
  -5  -1   3   43019    2027
  -3   5  -1   41733    2023
  -3  -3   5    7038     614
   3  -3  -5    6528     623
   3  -5  -3    7382     623
   5  -5   5   80350    4154
   5   5  -5   82176    4152
   3  -5   5   20669     964
   5  -5   3   20780     969
  -5   1   5   25417    1568
  -5   5   1   23859    1568
  -5  -1   5   31965    2013
  -5   5  -1   32370    2013
   0   0   6    3875     136
   0   6   0    3933     134
   2   2  -6   45352    1268
   2  -6   2   46250    1268
   6   2  -2   45318    1277
   6  -2   2   47314    1277
   0   2   6   24494    1967
   0  -2   6   26800    1961
   0   6  -2   32527    1959
   2   0  -6   32921    1964
   6   0  -2   24125    1968
   2  -6   0   24893    1964
   0   6   2   32426    1967
   2  -2  -6   43708    1205
   2  -6  -2   44426    1204
   6  -4   4   22609    1496
   6   4  -4   23045    1495
  -6   2   4   67416    3424
  -6   4   2   57772    3426
   6   2  -4   75240    3422
   6  -4   2   61492    3424
   2   4  -6   83187    3414
  -6   0   4   36199    1546
  -6   4   0   15519    1548
   0   6   4   17155    1549
   4  -6  -2   96155    4204
  -2  -4   6   95410    4194
   2  -4  -6   90412    4205
   4  -2  -6   72094    4204
   2  -6  -4   71980    4204
  -4  -2   6   74753    4200
  -4   6  -2   95857    4200
   4  -4  -6   14530     915
   4  -6  -4   12722     912
   6  -6   6  109450    6996
   6   6  -6  107790    6994
   6  -6   4   25865    1677
   6   6  -4   25629    1677
   4  -6   6   25976    1672
  -6   6   2    3891     132
  -6   6   0   28343    1817
  -6   0   6   22913    1816
  -6  -2   6    3952     117
   7   1  -1   13192    1070
  -1   7   1   13738    1065
  -1   1   7   13954    1066
   1   7  -1   14943    1061
   1   7   1   15403    1124
  -1  -1   7   14702    1119
   7  -3   3    2542     137
   3   3  -7    2668     109
   7   3  -3    2395     137
   3  -7   1   15878    1503
   3   1  -7   33087    1504
  -1   3   7   13157    1509
  -7   1   3   15081    1510
   7  -3   1   31998    1509
   1   7  -3   32481    1497
  -7   3   1   32224    1511
  -1   7   3   30427    1509
   7   1  -3   15482    1509
   3  -1  -7   22326    1010
   1   7   3   20480    1014
   3  -7  -1    9658    1010
  -3  -3   7    3615     145
  -3   7  -3    3645     147
   3  -3  -7    3169     173
   3  -7  -3    3703     173
   7   5  -5   12192     398
   7  -5   5   12484     400
   5   7  -5   11482     389
  -7   5   3   14840     869
   7   3  -5   13068     864
   7  -5   3   15220     865
  -7   3   5   12702     868
   3   7  -5   14279     850
   3   5  -7   14872     852
  -7   1   5   22361    2109
  -7   5   1   24944    2110
   1  -5   7   22626    2094
  -1   7   5   24450    2111
   5  -1  -7   22482    2017
  -7  -1   5   21324    2019
   1   7   5   23095    2022
  -5  -1   7   21854    2016
  -5   7  -1   22013    2016
   3  -7  -5   11256     738
   3  -5  -7   11504     740
   5  -7  -3   11969     738
  -5  -3   7   12603     730
   5  -3  -7   13115     739
   5  -7  -5    9773     324
   5  -5  -7    9937     326
   7  -7   7  170402    7729
   7  -5   7   11044     874
   5  -7   7    9979     863
   7  -7   5   10197     870
   7   7  -5    9904     868
  -7   7   3   77386    5279
  -7   3   7   76797    5278
  -7   7   1   28236    1288
  -7   1   7   27715    1286
  -7   7  -1   24088    1069
  -7  -1   7   22298    1066
   7  -5  -7   11432     912
   7  -7  -5    9874     911
   0   8   0   72969    3699
   0   0   8   70733    3699
   8  -2   2   15568    1318
   2  -8   2   14966    1305
   8   2  -2   14816    1316
   0   8   2   45260    2655
   2  -8   0   35045    2652
   0   2   8   32341    2655
   8   0  -2   34974    2658
   0  -2   8   30464    2649
   2  -8  -2   15909    1364
   8   4  -4   39286    1424
   4   4  -8   39085    1416
   8  -4   4   39208    1425
   2   8  -4    5109     442
   8   2  -4    3602     462
   8  -4   2    5738     464
   2  -8   4    6068     443
  -8   2   4    2881     462
   4   2  -8    6000     452
  -2   4   8    3362     467
  -8   4   2    6288     465
   0   8   4   59710    2852
   0   4   8   55892    2854
  -8   0   4   51471    2853
   8  -4   0   63795    2853
   4   0  -8   63507    2849
   4  -8   0   53779    2848
  -4   8  -2    1361     273
  -4  -2   8    2829     270
  -2   8  -4    2971     260
   4  -2  -8    2554     281
   4  -8  -2    1446     282
  -2  -4   8    1289     261
   4  -4  -8   32907    1109
   4  -8  -4   32698    1109
  -4  -4   8   30806    1096
   6  -6   8    4179     171
   8  -6   6    4270     184
   6   8  -6    3959     167
   8   6  -6    3736     179
   4  -6   8   44624    2969
  -8   6   4   60219    2985
   4   6  -8   45121    2967
   8  -6   4   60083    2979
  -8   4   6   43202    2982
   8   6  -4   58751    2979
  -8   2   6   14388    1480
  -2   8   6   35276    1480
  -8   6   2   34283    1479
   2  -6   8   12895    1458
  -8   6   0    9534     658
   0   8   6    8819     660
  -8   0   6   14674     655
  -6   8   0   15897     653
   6  -2  -8   35131    1526
   2   8   6   33815    1531
  -6   8  -2   15261    1523
  -6  -2   8   30409    1520
   6  -8  -2   13612    1525
   6  -4  -8   63056    3256
   4  -8  -6   62119    3257
   6  -8  -4   51143    3256
   4  -6  -8   49586    3257
   6  -6  -8    6455     303
   6  -8  -6    6711     300
   8  -8   8    4144     147
   8   8  -6   20018     591
   8  -6   8   21381     595
  -8   4   8   37393    2281
  -8   8   4   40535    2283
  -8   8   2   19900    1041
  -8   2   8   19859    1039
  -8   8   0   37240    2316
  -8   0   8   35892    2317
  -8  -2   8   19276    1002
   8  -4  -8   36220    2129
   8  -8  -6   19062     552
   8  -6  -8   19343     556
   8  -8  -8    1521      58
  -1   9   1    1985     131
   1   9  -1    1997     111
   9   1  -1    2014     141
  -1   1   9    2024     129
   1  -1   9    2054     117
  -1  -1   9    4402     289
   1   1   9    4375     296
   1   9   1    4274     295
   3  -9   3     534      82
   9  -3   3     496     128
   3   3  -9     493      93
   9   3  -3     494     114
  -1   3   9   32055    2082
   1  -3   9   32820    2071
   9   1  -3   30327    2082
   3   1  -9   38130    2075
   9  -3   1   37395    2083
   1   9  -3   37029    2069
   3  -9   1   32419    2074
  -1   9   3   39313    2081
   1   3   9   30252    2081
   3  -9  -1   31288    2079
   1   9   3   39275    2082
   3  -1  -9   39021    2080
   9  -1  -3   32317    2083
  -3   9  -3     602      95
   3  -3  -9     582     131
   3  -9  -3     572     134
   9   5  -5    3083     232
   5   9  -5    2875     216
   5   5  -9    2774     219
   9  -5   5    3018     237
  -9   5   3   42512    1771
   9  -5   3   44371    1769
   9   3  -5   32549    1767
   9   5  -3   46633    1770
   5   3  -9   44914    1761
  -9   3   5   30749    1770
   3  -9   5   43336    1753
  -1   5   9   11724     782
   1  -5   9   11244     759
  -9   1   5   12355     783
   5   1  -9   15683     773
   9  -5   1   15251     781
  -1   9   5   15460     782
   5  -9   1   11362     771
  -9   5   1   16010     782
  -5   9  -1   10513     650
   1   9   5   13873     660
   5  -1  -9   13877     653
   1   5   9   10060     663
   5  -9  -1    9982     653
  -1  -5   9    8968     634
  -3  -5   9   24294    1323
   3  -9  -5   35768    1341
   5  -3  -9   32488    1338
  -5   9  -3   24321    1331
  -5  -3   9   34979    1329
   5  -9  -3   23358    1337
   5  -5  -9    3679     278
   5  -9  -5    3013     267
   7  -7   9     351      80
   7   9  -7     356      76
  -7  -7  -9     353      71
   9  -7   7     347      99
  -9   5   7   16145    1793
  -9   7   5   39540    1794
   9  -5   7   19033    1791
   9  -7   5   41290    1787
   5   7  -9   16639    1772
   5  -7   9   15238    1775
   7   9  -5   16173    1780
   9   7  -5   39634    1784
   3  -7   9   18125     999
  -9   3   7   19389    1026
  -9   7   3    7153    1027
   3  -9   7    5187     997
  -1   9   7   48626    3178
  -9   1   7   66932    3174
  -7   9   1   65159    3173
  -7   1   9   46834    3174
  -9   7   1   47247    3175
  -7  -1   9   34715    2489
   1   9   7   36738    2496
   7  -1  -9   35735    2490
  -7   9  -1   52053    2488
  -9  -1   7   53333    2492
  -7  -3   9    2556     672
   7  -3  -9    2395     679
   7  -9  -3   11034     679
   5  -9  -7   46900    2237
   7  -9  -5   23527    2237
   5  -7  -9   21619    2237
   7  -5  -9   49969    2238
   7  -7  -9     345     120
   7  -7  -9     345      59
   7  -9  -7     357     122
   9   9  -7     862      90
  -9   9   7     800     145
   9  -7   9     686      90
  -9  -5  -9    1297     136
  -9   5   9    1441     187
   9   9  -5    1418     162
  -9   9   5    1477     185
  -5  -9  -9    1136     135
  -9  -3  -9    4094     218
  -9   3   9    4744     258
  -9   9   3    4781     263
  -9   9   1    4344     251
  -9   1   9    4003     252
  -9  -1   9    4772     281
  -9   9  -1    4892     280
   9  -5  -9    5204     404
   9  -9  -5    4610     400
   5  -9  -9    5041     363
   9  -9  -7     647      58
   9  -7  -9     495     124
   9  -9  -7     797     126
   7  -9  -9     578      58
  -7   9  -9     620      64
   9  -7  -9     475      62
  -9   9  -9   99901    4709
   9  -9  -9  100438    4710
   0  10   0    7724     564
   0   0  10    8061     566
   2  10  -2    1155     164
  10  -2   2    1154     193
  10   2  -2    1232     191
   0   2  10   19029     606
   2  10   0   16288     598
  10   0  -2   18515     611
   0  10   2    9526     605
   0  -2  10   19123     596
   2  10   2     361     124
  10   4  -4   23986    1078
  10  -4   4   24279    1079
   4 -10   4   23999    1064
   4   4 -10   23381    1065
   2  -4  10   34349    1345
   4 -10   2   33451    1349
  10  -4   2   19874    1361
  10   4  -2   19449    1362
   2  10  -4   18415    1341
  10   2  -4   34810    1358
  -2   4  10   35189    1360
 -10   4   2   19506    1362
 -10   2   4   35455    1363
  10  -4   0   12536     771
   4 -10   0    3814     763
   0   4  10    3319     770
   4   0 -10   12651     763
   0  10   4   12561     771
   2   4  10   30092    1158
  -2  10  -4   15145    1137
   2  10   4   16148    1156
   4 -10  -2   30480    1153
  -4  10  -2   31147    1145
   4  -2 -10   15559    1150
  -4  10  -4   13388     544
   4 -10  -4   12461     561
   4  -4 -10   12812     563
  -4  -4  10   12744     544
  10   6  -6      75     132
   6   6 -10      58     110
  -6  -6 -10      48     103
  10  -6   6      65     140
   6  10  -6      51     105
   4  10  -6   16523     688
  10  -6   4   16367     712
  10  -4   6    5866     715
  10   6  -4   16176     712
 -10   4   6    4809     714
   4 -10   6   16816     691
  10   4  -6    5172     709
   6   4 -10   16782     701
 -10   6   4   16326     719
 -10   2   6    5632     621
   6   2 -10   12784     609
  -2   6  10    5930     624
   2  -6  10    4997     592
 -10   6   2   13438     623
   0  10   6   16345    1370
   0   6  10   23077    1369
   6 -10   0   24978    1364
   6   0 -10   16259    1363
  -6  10   0   23859    1363
   6  -2 -10   14805     735
   2  10   6   14155     742
   2   6  10    6863     744
  -6  10  -2    6831     729
   6 -10  -2    6810     735
  -6  -2  10   15086     731
   6  -4 -10   16087     659
   6 -10  -4    4569     657
   4 -10  -6   14840     662
  -6  -4  10   15425     647
   6  -6 -10     211     185
   6 -10  -6     158     179
  -8  -8 -10   20000     975
  10  -8   8   21077     991
   8  -8  10   20934     985
  10   8  -6    9139     592
   6  -8  10   10089     577
 -10  -6  -8    8958     574
   8  10  -6    9854     584
 -10   6   8   10550     607
  10  -6   8   10245     596
   8  -6  10    9293     591
  -6  -8 -10    9621     573
 -10   8   6    8961     606
   6   8 -10   10186     574
 -10   8   4    4154     948
   4 -10   8    3215     912
  -8  -4 -10    3108     916
  -4  -8 -10   17915     915
 -10   4   8   20191     947
 -10  -4  -8   19856     915
  -8  10   4   19921     945
  10   8  -4    3978     939
 -10   2   8    4922     354
  -8   2  10    3228     354
  -8  -2 -10    2915     321
  -8  10   2    4778     354
 -10   8   2    3190     355
   8   0 -10   38386    2702
 -10   0   8   56059    2706
  -8  10   0   53876    2703
   0  10   8   37798    2710
 -10   8   0   40597    2708
  -8   0  10   39493    2704
   2  10   8    5757     546
  -8  -2  10    5726     529
  -8  10  -2    7864     529
   8 -10  -2    7965     533
   8  -2 -10    5589     536
   8  -4 -10    2174     845
   8  -4 -10    1884     818
  -4   8 -10   18052     819
   4  -8 -10   18151     818
   8 -10  -4   18505     848
  -6   8 -10    8094     481
   6 -10  -8    7766     479
  -8   6 -10    7122     480
   8 -10  -6    8108     479
   6  -8 -10    7885     480
   6 -10  -8    7177     514
   8  -6 -10    7882     516
  10  -8  -6    7403     517
   6  -8 -10    9069     518
   8  -6 -10    6840     479
   8 -10  -6    8508     515
  10  -6  -8    8718     518
   8 -10  -8   19351     997
  -8   8 -10   20453     966
   8  -8 -10   20886     965
   8 -10  -8   19927     965
   8  -8 -10   19989     997
  10  -8  10    2598     217
 -10   8  10    2479     248
 -10  10   8    2733     249
 -10  10   6   18184    1150
 -10   6  10   19378    1152
 -10  -6 -10   20051    1120
  10  -6  10   19732    1141
  10  10  -6   19035    1135
 -10   4  10   14324     956
  -4 -10 -10   13255     926
 -10  -4 -10   14323     926
 -10  10   4   15295     959
  10  10  -4   14741     947
 -10   2  10     766     140
 -10  10   2     850     137
 -10  -2 -10     764      82
 -10   0 -10   23919     688
 -10  10   0   25348     720
 -10   0  10   23731     715
 -10   2 -10     701      76
  10 -10  -4   13672     924
 -10   4 -10   13592     893
   4  10  10   12109     927
  -4  10 -10   13690     894
  10  -4 -10   13975     924
  10 -10  -6   14291     824
   6 -10 -10   14273     824
  10  -6 -10   13954     859
  10 -10  -6   14296     858
  10  -6 -10   14229     825
 -10   6 -10   14135     825
  -6  10 -10   14796     825
  10  -8 -10    1668     197
  10 -10  -8    1445     197
   8 -10 -10    1880     137
  -8  10 -10    1666     140
  10  -8 -10    1780     137
  10 -10  -8    1660     136
 -10  10  -8    1660     135
 -10   8 -10    1539     140
 -10  10 -10   28657    1744
  10 -10 -10   28857    1744
   1  -1  11    5521     322
  11   1  -1    5231     338
   1  11  -1    5680     319
  -1   1  11    5879     329
   1   1  11    4661     273
   1  11   1    4468     267
   3  11  -3   17611     951
  11   3  -3   17869     966
  11  -3   3   17885     968
   1  -3  11    2869     343
  11   3  -1    3717     367
  -1  11   3    3936     362
  11  -3   1    3678     364
  -1   3  11    3024     363
   3  11  -1    3049     352
  11   1  -3    2966     365
  11  -1   3    3245     369
   1  11   3    4502     401
  11  -1  -3    3274     407
   1   3  11    3475     402
  -3  11  -3    9612     499
   3  11   3   10004     519
  -5  -5 -11    2436     143
   5 -11   5    2291     152
  11   5  -5    2250     177
   5   5 -11    2093     148
  11  -5   5    2305     185
   5   3 -11    3514     957
   5 -11   3   23784     954
   3  11  -5    3081     945
  11   5  -3    3269     969
  11  -3   5   23911     970
  11   3  -5   23398     966
 -11   3   5   23713     975
  11  -5   3    3590     970
 -11   5   3    3298     972
  -1  11   5    3989     271
  11  -5   1    4099     274
   5   1 -11    3828     259
  -1   5  11    3922     276
   5 -11   1    3606     256
   1  11   5    4362     296
  -5  11  -1    4306     280
   1   5  11    4714     302
   5 -11  -1    4864     285
   5  -1 -11    4281     293
  -1  11  -5    4095     256
   5  -3 -11    6075    1291
   5 -11  -3   30947    1291
   3   5  11   30288    1296
  -5  11  -3   31263    1281
  -5  -3  11    5995    1281
  -3  -5  11   30660    1274
   3  11   5    6080    1298
   5  -5 -11    1375      94
  -5  -5  11    1404     115
   5  -5 -11    1620     160
   5 -11  -5    1675     152
  -5   5 -11    1544      99
   7  -7  11    1046     116
   7  11  -7     793     109
  11   7  -7    1073     141
  11  -7   7    1039     139
   7   7 -11     856     114
  -7  -7 -11     865     109
  11  -5   7   14928     631
  11  -7   5    9378     630
  11   7  -5    8914     628
   5  -7  11   15153     611
   7   5 -11    8913     618
 -11   5   7   14961     639
 -11  -5  -7   14843     607
  -5  -7 -11   15153     608
 -11   7   5    9482     641
   5 -11   7    8758     608
 -11   3   7   38750    1899
  11   7  -3   25302    1895
 -11   7   3   26140    1901
   3  -7  11   37901    1872
   3  -7  11   37960    1872
   7   3 -11   26479    1887
   7 -11   1   11714     737
  -1   7  11   10972     747
   7   1 -11    8814     734
 -11   1   7   12331     748
  -1  11   7    8674     746
  -7   1  11    9326     743
  -7  -1 -11    7955     716
  -7  11   1   11971     741
   7 -11  -1    5738     400
  -7  11  -1    6247     398
   7  -1 -11    3786     397
   1   7  11    4730     409
   1  11   7    4010     408
  -1   7 -11    5536     373
  -7  -1  11    3794     395
  -7   1 -11    3600     372
   3  11   7   25233    1955
  -7  11  -3   43394    1945
  -3   7 -11   39525    1928
   3   7  11   42502    1958
  -7   3 -11   25688    1928
   7 -11  -3   40690    1949
   7  -3 -11   25298    1927
  -7  -3  11   26902    1944
   7  -3 -11   26280    1949
   5  -7 -11   12546     522
  -5   7 -11   13311     523
   7  -5 -11    8171     557
   7 -11  -5   13178     553
  -7   5 -11    7876     523
   5 -11  -7    7864     556
   7 -11  -7     779     166
  -7   7 -11     750      97
   7  -7 -11     942     164
   7  -7 -11     700      93
   7 -11  -7     749      91
   9  -9  11   16582     808
  -9  -9 -11   16173     797
  -7  -9 -11    7397     342
   7   9 -11    7631     338
  11  -7   9    7821     363
   9  -7  11    7136     356
  11   9  -7    7039     359
 -11  -7  -9    7710     341
 -11   9   7    7490     388
 -11   7   9    7937     384
   9  11  -7    7339     349
   5 -11   9    4456     327
  -9  -5 -11    4456     336
  -9   5  11    4854     374
  11  -5   9    4752     371
 -11   5   9    4748     382
  11   9  -5    4839     360
   9  11  -5    4321     352
 -11   9   5    5071     381
 -11  -5  -9    4745     334
  -5  -9 -11    4609     335
  -9  11   5    4345     373
  -9   3  11   22721    1366
  -9  -3 -11   22343    1340
 -11   3   9   18535    1367
 -11  -3  -9   18847    1339
 -11   9   3   21937    1367
  -3  -9 -11   17582    1339
  -9  11   3   18967    1367
  -9  -1 -11   11887     929
  -1  11   9   12991     962
  -9   1  11   12154     955
 -11   1   9   14887     956
 -11  -1  -9   15198     928
   9   1 -11   12483     950
 -11   9   1   13028     960
  -9  11   1   15073     954
   9 -11  -1   18104    1054
 -11   1  -9   17260    1029
  -9   1 -11   13059    1029
   9  -1 -11   14008    1055
  -9  -1  11   13917    1052
  -1   9 -11   16693    1029
  -9  11  -1   18539    1056
   1  11   9   13713    1061
   9  -3 -11   22130    1337
  -9   3 -11   22039    1312
  -3   9 -11   17611    1312
   9 -11  -3   18426    1340
 -11   3  -9   17681    1311
   3  11   9   21462    1345
   9  -5 -11    5267     410
   9 -11  -5    4926     370
   5  -9 -11    5020     372
 -11   5  -9    5094     373
   9 -11  -5    5428     413
  11  -5  -9    5295     412
   5 -11  -9    5327     372
  -5   9 -11    5300     374
  -9   5 -11    5042     374
  -5  11  -9    5215     373
   9  -7 -11    7329     393
  -9   7 -11    7557     354
   9  -7 -11    7598     352
   7 -11  -9    7550     353
  11  -7  -9    7556     398
   7  -9 -11    7358     396
   9 -11  -7    7201     389
 -11   7  -9    7792     352
   7 -11  -9    7804     401
  -7   9 -11    7604     354
  -7  11  -9    7495     353
   7  -9 -11    8238     353
   9 -11  -7    7655     352
  11  -9  -7    7691     398
  -9   9 -11   14956     711
   9 -11  -9   14802     710
  11  -9  -9   14705     710
  -9  11  -9   14766     709
   9  -9 -11   13989     710
   9  -9 -11   14832     753
   9 -11  -9   15286     754
 -11   9  -9   14569     709
 -11  11   9   10891     632
 -11   9  11    9797     627
  11  -9  11   10898     605
  11  11  -7   87133    5811
  11  -7  11   89428    5816
 -11  11   7   93258    5831
 -11  -7 -11   97457    5798
 -11   7  11   87218    5828
 -11  11   5    8486     545
 -11  -5 -11    8194     502
  11  11  -5    7713     523
  11  -5  11    7814     529
 -11   5  11    7917     539
 -11  -3 -11    4900     187
 -11   3  11    4360     236
 -11  11   3    4876     238
 -11  -1 -11   20183    1061
 -11  11   1   20398    1092
 -11   1  11   19852    1088
 -11  -1  11   18021     999
  11  -1 -11   18229     999
 -11   1 -11   19305     972
   1  11  11   15477    1003
  11  -3 -11    2582     159
  -3  11 -11    2496     103
  11 -11  -3    2476     158
   3  11  11    2035     175
 -11   3 -11    2420     102
  11  -5 -11    8161     554
 -11   5 -11    8368     516
   5  11  11    7407     562
  -5  11 -11    8359     517
  11 -11  -5    8449     515
  11 -11  -5    8491     557
 -11   7 -11   97425    6055
  -7  11 -11   96893    6055
   7 -11 -11   96991    6055
  11  -7 -11   99251    6087
  11 -11  -7   99524    6088
  11  -7 -11   97376    6055
  11 -11  -7   97063    6054
 -11  11  -9   10553     571
  11  -9 -11   10540     617
  11  -9 -11   10111     572
 -11   9 -11   10576     572
  11 -11  -9   10390     572
   9 -11 -11   10285     572
  11 -11  -9    9669     615
  -9  11 -11   10577     571
 -11  11 -11   12784    1074
  11 -11 -11   13357    1075
   0   0  12      38     222
  12  -2   2    2348     199
   2  -2  12    2129     165
   2  12  -2    2143     160
  12   2  -2    1945     194
   2   0  12   78987    2336
   0   2  12   14246    2338
   0  12   2   81936    2339
   2  12   0   13069    2333
  12   0  -2   14317    2344
  12   2   0   82228    2347
   0  -2  12   14489    2331
   2  12   2    1250     139
   2   2  12    1274     145
  12  -4   4    7531     616
   4  12  -4    7369     595
  12   4  -4    7493     615
   4 -12   4    7954     596
  -4  -4 -12    7276     587
  12  -4   2    6034     541
  12   2  -4    8384     537
   4 -12   2    8705     524
  12  -2   4    8459     545
  12   4  -2    5419     544
   2  -4  12    7928     517
   4 -12   0    2762     375
   0   4  12    3181     394
  12  -4   0    4920     391
   0  12   4    5226     388
  -4  12  -2    9419     573
   2   4  12    9053     587
   4 -12  -2    9562     582
  -2  12  -4    6194     564
   2  12   4    6234     586
  -4   4 -12    5222     443
  -4  12  -4    5909     455
  -4  -4  12    5281     454
   4  -4 -12    5148     442
   6 -12   6    7306     469
   6  12  -6    6624     464
  12  -6   6    7236     490
  12   6  -6    6540     484
  -6  -6 -12    7614     463
   6   6 -12    6951     468
 -12   6   4    2547     287
  12  -6   4    2468     271
   4  12  -6    2072     226
   6   4 -12    2603     249
  -6  -4 -12    2276     232
  12  -4   6    2720     273
  12   4  -6    2993     264
   4  12  -6    2089     226
 -12  -4  -6    3214     234
  12   6  -4    2305     267
  -4  -6 -12    3093     234
   6 -12   4    3000     246
 -12   4   6    3435     283
  12   6  -2    6620     273
   6   2 -12    7122     257
   2   6 -12    3140     231
   6 -12   2    3252     251
   6   0 -12    3530     175
   0  12   6    3547     191
  -6   0 -12    2826     130
   6 -12   0    5705     165
  -6  12   0    6184     163
   0   6  12    6001     192
   6  -2 -12    7096     236
  -2   6 -12    3471     239
  -6  12  -2    3196     263
   6  -2 -12    7357     276
  -6  -2  12    7098     262
   2   6  12    3554     291
  -6   2 -12    7331     238
   6 -12  -2    3709     272
   2  12   6    7191     283
  -2  -6  12    2983     235
   6 -12  -4    2598     245
  -6  -4  12    1936     223
  -4   6 -12    2569     206
   6  -4 -12    1884     243
   6  -4 -12    2013     204
  -6   4 -12    1954     208
   4  12   6    1784     250
   6 -12  -6    6019     420
  -6   6 -12    5726     383
   6  -6 -12    5952     420
   8  -8  12    6962     404
  -8  -8 -12    6661     396
  12  -8   8    7244     421
 -12   6   8    4901     260
  -6  -8 -12    4877     208
  12   8  -6    2986     240
   6  -8  12    4731     208
   8  12  -6    4453     214
  12  -6   8    4756     247
   6 -12   8    2796     201
 -12   8   6    2990     257
   8   6 -12    2927     220
  -8  12   4    5145     289
 -12   8   4    5130     286
   4  -8  12    3877     232
  12  -4   8    4490     286
   8 -12   4    4805     262
 -12   4   8    4728     289
   8   4 -12    5337     261
  12   8  -4    4939     275
 -12  -4  -8    4798     242
  -4  -8 -12    4237     242
  -8   2  12   29853    1024
   8   2 -12   28529    1013
 -12   2   8    9884    1032
  -8  -2 -12   28437     997
  -8  12   2    8901    1024
 -12   8   2   29910    1030
  -2  -8 -12    8309     996
 -12  -2  -8    8850     997
   8 -12   2    9343    1016
   8 -12   0    4731     235
  -8   0 -12    2876     203
   8   0 -12    3136     229
   0  12   8    3109     260
  -8  12   0    4723     236
 -12   0  -8    4399     203
  -8   0  12    3301     234
   8   0 -12    3230     200
   0   8  12    4297     247
   8  -2 -12   34127    1197
   8 -12  -2   11155    1198
  -2   8 -12   10894    1172
   2  12   8   32707    1203
  -8  -2  12   34508    1192
   8  -2 -12   32527    1171
   2   8  12    9504    1202
  -8  12  -2   11261    1196
  -8   2 -12   33194    1172
  -4   8 -12    5789     318
   4   8  12    5282     364
   8  -4 -12    6532     315
   8 -12  -4    5926     353
   4  -8 -12    5343     316
   8  -4 -12    6807     355
  -8   4 -12    6841     318
   4  12   8    5898     360
   6 -12  -8    2436     192
  -8   6 -12    2379     197
   6  -8 -12    3674     195
   8 -12  -6    3964     243
  -6  12  -8    2521     194
  -6   8 -12    3816     195
   8 -12  -6    4183     190
   8  -6 -12    2695     248
  -8  12  -8    6793     396
   8  -8 -12    6485     398
   8  -8 -12    7362     446
  -8   8 -12    6483     398
   8 -12  -8    6843     442
   8 -12  -8    6615     396
 -10  12  10    1586     182
 -10  10  12    1494     184
  10   8 -12   13151     592
  12  -8  10    5776     608
 -12  10   8   13349     632
 -10  12   8    6129     632
  10  -8  12   13720     600
 -10   8  12   13521     630
  -8 -10 -12    5593     581
   8  10 -12    4748     576
   8  12 -10   10615     573
 -12   8  10    6314     632
  12  10  -6    1925     152
 -12  -6 -10    1824     121
 -10  12   6    2086     179
  10  -6  12    2015     146
 -12  10   6    1955     175
  10   6 -12    1927     133
  -6 -10 -12    1896     114
  10  12  -6    1758     129
  12  -6  10    1776     158
 -12   6  10    1970     182
 -10   6  12    1864     174
  12  10  -4   11270    1517
 -12  -4 -10   38149    1492
 -10  12   4   40013    1526
 -12  10   4   12033    1525
 -12   4  10   38396    1525
  10   4 -12   11945    1511
  -4 -10 -12   36652    1492
 -10   4  12   13574    1527
 -10  -4 -12   11795    1493
 -12  -2 -10    3481     379
 -12   2  10    3785     423
  10   2 -12    5815     408
 -10   2  12    5925     418
 -12  10   2    5925     423
 -10  12   2    3745     411
  -2 -10 -12    3297     376
 -10  -2 -12    5276     378
 -10   0  12      12     120
   0 -10 -12     240      68
   0  12  10       1     145
  10 -12   0     658     120
 -10  12   0     410     135
 -12   0  10     392     133
  10   0 -12      10     122
 -10   0 -12       4      73
 -12   0 -10     322      71
 -12   2 -10    4912     474
  -2  10 -12    4683     476
   2  12  10    7273     519
 -10  -2  12    7999     507
  10  -2 -12    7397     511
 -10   2 -12    6816     476
  10 -12  -2    5345     511
 -10   4 -12   13580    1695
 -12   4 -10   42637    1695
  12  -4 -10   43346    1726
  10  -4 -12   13919    1694
  10 -12  -4   43963    1725
  10  -4 -12   13997    1724
  -4  10 -12   43221    1695
   4  12  10   11377    1728
  10 -12  -4   43259    1693
  -4  12 -10   14413    1695
   6  12  10    2293     204
 -12   6 -10    2112     123
  10  -6 -12    2232     184
 -10   6 -12    2082     125
  12 -10  -6    2288     186
  10 -12  -6    2154     118
  -6  12 -10    2290     127
  12  -6 -10    2115     185
  -6  10 -12    2238     127
  10 -12  -6    2143     186
   6 -10 -12    2191     124
   6 -12 -10    2289     121
  10 -12  -8    6302     707
  10  -8 -12   13809     707
  12  -8 -10    6460     664
   8 -10 -12    6261     710
   8 -10 -12    5951     664
   8 -12 -10   14293     709
  12 -10  -8   13762     703
   8 -12 -10   13693     663
 -10  12  -8    6074     661
 -10   8 -12   13337     664
  12  -8 -10    6344     706
 -12   8 -10    5997     662
  -8  12 -10   13861     663
  -8  10 -12    6226     664
  12 -10  -8   13468     663
  10  -8 -12   13045     663
  10 -12  -8    6615     663
 -12  10 -10    1677     116
  10 -12 -10    1822     121
  10 -12 -10    1497     182
 -10  10 -12    1785     122
  10 -10 -12    2002     123
 -10  12 -10    1777     120
  10 -10 -12    1733     193
  12 -10 -10    1857     121
 -12  -8 -12   12974     905
 -12  12   8   13378     950
 -12   8  12   13494     950
  12  -8  12   13248     927
  12  -6  12    6731     387
  12  12  -6    6182     378
 -12   6  12    7222     411
 -12  -6 -12    7021     361
 -12  12   6    7095     407
 -12  -4 -12   11154     438
 -12   4  12    9878     476
 -12  12   4    9671     475
  12  12  -4   10436     466
 -12  12   2   59596    2572
 -12  -2 -12   52206    2534
 -12   2  12   55160    2566
  12   0 -12    2268     357
 -12   0 -12    2291     324
 -12   0  12    2474     369
   0  12  12    2061     377
 -12   2 -12   48521    2328
  12 -12  -2   51221    2359
  -2  12 -12   50022    2328
   2  12  12   45522    2362
  12  -2 -12   52830    2359
  12 -12  -4   11352     476
  12 -12  -4   10999     519
 -12   4 -12   11974     480
  -4  12 -12   11705     480
   4  12  12   10522     528
  12  -4 -12   11705     519
  12  -6 -12    7596     425
  12 -12  -6    7980     429
   6  12  12    6996     433
  -6  12 -12    7694     377
  12 -12  -6    7188     374
 -12   6 -12    6678     376
 -12   8 -12   14144     976
  12  -8 -12   14062     976
  12 -12  -8   14237     975
  12 -12  -8   14539    1018
  -8  12 -12   14207     976
  12  -8 -12   14888    1019
   8 -12 -12   14887     976
 -12  12 -10    6845     393
 -12  10 -12    6978     395
  12 -10 -12    7281     396
  10 -12 -12    7731     398
  12 -12 -10    6864     395
 -10  12 -12    6904     397
 -12  12 -12   31873    1895
  12 -12 -12   32025    1895
   1  13  -1    5534     237
   1  -1  13    5706     239
  13   1  -1    5411     258
  -1   1 -13    7706     344
   1   1  13    7765     370
   1  13   1    8182     370
  13  -3   3     259     150
   3  13  -3     212     107
   3   3 -13     188      89
   3  -3  13     209     110
  13   3  -3     254     154
  -3  -3 -13     204      94
   1   3 -13    6355     359
   3  13  -1    6360     377
  -3  -1 -13    2973     360
  13   3  -1    3591     404
   3  -1  13    3475     385
   1  -3  13    6823     374
  13  -3   1    3506     399
  -1   3  13    7022     394
  13  -1   3    6971     405
  13   1  -3    6765     398
   3   1  13    3425     386
  -1   3 -13    6347     354
  -3   1 -13    2822     355
   1   3  13    6697     385
   3  13   1    6923     384
   1  13   3    3465     382
  13  -1  -3    7286     398
   3  -3 -13     296      56
  -3  13  -3     220      77
   3  13   3     227     120
   3   3  13     164     125
  -5  -5 -13    1712     134
   5   5 -13    1706     133
  13   5  -5    1806     182
   5  13  -5    1670     139
  13  -5   5    1847     185
   5 -13   5    1835     143
  13   5  -3   15377     909
   5 -13   3   17657     892
   3   5 -13   17225     879
   3  -5  13   16871     887
  13  -3   5   17637     914
  13  -5   3   15023     906
  13   3  -5   17302     908
  -5  -3 -13   13880     880
  -3  -5 -13   17025     880
   5   3 -13   14510     878
   5 -13   1    3266     184
   1   5 -13    3320     152
  -1  -5 -13    3316     154
  13   5  -1    1844     212
  13  -5   1    2128     213
  -1   5  13    3100     205
  -5  13  -1    2572     149
   1  13   5    1505     180
   5  -1 -13    1518     118
  -1  13  -5    1418     116
   1   5  13    2592     183
   5 -13  -1    2693     153
   5  -3 -13   13280     823
  -5  -3  13   14193     839
   3  13   5   13295     854
   3   5  13   15819     856
  -3  -5  13   15996     831
  -5  13  -3   16485     838
   5 -13  -3   17043     853
  -5   3 -13   14215     825
  -3   5 -13   15611     824
  -5   5 -13     708      87
   5  -5 -13     669      77
  -5  -5  13     640      92
  13   7  -7   27356    1382
   7  13  -7   23855    1359
  -7  -7 -13   25787    1357
   7  -7  13   26732    1368
  13  -7   7   26524    1385
   7 -13   7   26531    1364
  13   7  -5   12980     744
  -7  -5 -13   12320     715
   5  -7  13    7487     719
   7 -13   5    8467     726
   7   5 -13   13401     727
 -13   5   7    9051     754
  13  -5   7    8227     743
 -13   7   5   13617     756
  13  -7   5   13228     746
  -5  -7 -13    7970     715
  13  -3   7    2960     219
 -13   3   7    3152     226
  13   7  -3    4348     213
 -13  -3  -7    3423     176
   7 -13   3    3015     192
  -3  -7 -13    3068     176
   7   3 -13    4329     168
   7   3 -13    4539     170
   3   7 -13    2695     175
   7   3 -13    4618     202
   7   1 -13    5386     374
   1   7 -13    5873     347
   7 -13   1    6447     370
  -1   7  13    6176     385
  -1  -7 -13    6499     347
  -1  13   7    5455     389
 -13  -1  -7    5857     346
  -7  13   1    6712     379
   7   1 -13    5211     344
   7  -1 -13    3447     278
   1   7  13    4101     296
  -7  -1  13    3835     280
   7 -13  -1    4635     289
   1  13   7    3521     295
  -7   1 -13    3543     250
  -7  13  -1    4506     278
   7  -1 -13    3580     247
   7 -13  -3    2871     210
  -7   3 -13    3861     162
   7  -3 -13    4178     204
  -3   7 -13    2874     165
   3   7  13    2733     216
  -7  13  -3    2909     188
   7  -3 -13    4253     157
  -7  -3  13    4037     184
   3  13   7    4020     214
   7 -13  -5    6558     590
  -5   7 -13    5985     593
   7 -13  -5    6377     626
   7  -5 -13   10996     592
  -7   5 -13   10333     593
   5  13   7   10541     633
   7  -5 -13   10818     631
  -7   7 -13   17243     941
   7 -13  -7   17841     978
   7  -7 -13   18332     979
   7 -13  -7   18080     940
  -7  13  -7   18146     940
  -9  -9 -13   26053    1205
   9 -13   9   24771    1211
   9  -9  13   23107    1212
   9  -7  13    1881     254
 -13   7   9    6260     292
 -13   9   7    2176     293
  13   9  -7    1803     266
   9   7 -13    1743     246
  13  -7   9    6678     271
  -7  -9 -13    6031     241
   7 -13   9    1634     232
   9  13  -7    6151     245
   9 -13   7    6695     251
  13   9  -5   12546     783
  -9  13   5   21115     794
 -13   9   5   13067     793
  -5  -9 -13   19808     752
 -13  -5  -9   21156     752
   9   5 -13   13172     769
  -9   5  13   13586     795
  13  -5   9   19561     784
   9  13  -5   20863     770
   9 -13   5   20888     770
 -13   5   9   19844     794
  -9   3  13    1778     180
  -9  -3 -13    1524     141
  13   9  -3    1906     196
 -13   3   9     643     188
 -13   9   3    1729     209
   9 -13   3     719     172
 -13  -3  -9     672     141
   9   3 -13    1720     132
   9   3 -13    1814     169
  -9  13   3     780     190
  -3  -9 -13     587     136
  -1  13   9    3026     186
  -9  -1 -13    2703     121
  -9  13   1    2143     166
   9   1 -13    2956     111
  -1  -9 -13    1911     114
 -13  -1  -9    2034     119
  -9   1  13    2816     170
   9   1 -13    2767     147
  -1   9  13    1976     182
   9 -13   1    2188     154
 -13   1  -9    2839     157
  -9   1 -13    3514     156
  -9  -1  13    3671     198
   1  13   9    3705     215
   1  -9 -13    2914     154
   9  -1 -13    3658     156
   1   9  13    3376     228
  -1   9 -13    2936     161
  -9  13  -1    3413     200
   9  -1 -13    3746     197
   9 -13  -1    3242     202
   3  13   9    1723     203
  -9  -3  13    1856     169
   3   9  13     597     200
 -13   3  -9     632     133
   9  -3 -13    1515     132
  -3   9 -13     667     136
  -9   3 -13    1661     135
   9 -13  -3     744     183
   9  -3 -13    1612     174
   5  13   9    9941     718
  -5  13  -9   10397     674
  -9   5 -13   10031     675
   9  -5 -13   10494     714
   5   9  13   17341     720
   9  -5 -13    9921     674
   9 -13  -5   16822     710
  -5   9 -13   17322     675
   9 -13  -5   16937     672
 -13   5  -9   17104     673
   9 -13  -7    4815     234
  -7  13  -9    1068     175
   9  -7 -13    1011     230
   9 -13  -7    4703     173
  -9  13  -7    4716     170
  13  -7  -9    4180     230
  -9   7 -13    1047     178
  -7   9 -13    4599     178
   7  -9 -13    4590     176
 -13   7  -9    4478     172
   7 -13  -9    1045     172
  13  -9  -7    1003     229
 -13   9  -9   27913    1370
  -9   9 -13   27311    1372
  -9  13  -9   27954    1370
  13  -9  -9   29339    1372
   9 -13  -9   28779    1371
   9  -9 -13   28231    1414
   9  -9 -13   27857    1372
   9 -13  -9   27845    1412
 -11   9  13    3189     369
  13  -9  11    5253     344
 -13  11   9    3282     370
 -11  13   9    5105     370
 -13   9  11    5292     372
 -11   7  13      43     152
 -13  -7 -11    1044      94
 -13   7  11     607     159
 -11  13   7     865     153
  11   7 -13      43     100
 -13  11   7      73     154
  11  13  -7     639      95
  13  11  -7      43     109
  13  -7  11     655     122
  11  -7  13      51     102
  11   5 -13   24911    1032
  11  13  -5   10405    1030
  -5 -11 -13   11775    1013
 -13  11   5   25610    1052
 -11  -5 -13   24673    1013
 -11   5  13   24303    1049
  13  11  -5   23933    1035
 -11  13   5   13123    1053
 -13   5  11   12210    1051
 -13  -5 -11   12453    1013
  13  -5  11   11989    1046
  11   3 -13    5658    1183
  13  11  -3    5551    1193
 -11  -3 -13    5541    1161
 -13   3  11   27544    1198
  -3 -11 -13   25567    1159
 -13  -3 -11   26551    1160
 -11  13   3   26690    1193
 -11   3  13    6023    1196
 -13  11   3    6009    1200
  -1 -11 -13    5271     560
 -13   1  11    5959     599
 -13  -1 -11    6312     561
 -11   1  13   11032     591
  11   1 -13   11930     591
 -11  -1 -13   12402     562
 -11  13   1    5419     592
  11 -13   1    5704     589
   1  13  11    8341     448
 -13   1 -11    3851     397
  11  -1 -13    7910     430
  11 -13  -1    3955     436
 -11   1 -13    8239     398
  -1  11 -13    4345     399
 -11  -1  13    8875     431
   1 -11 -13    2937     393
  -3  13 -11    4711    1109
  11 -13  -3   26353    1106
  11  -3 -13    4909    1140
 -13   3 -11   26124    1109
  11 -13  -3   25662    1142
 -11   3 -13    4818    1109
   3  13  11    4035    1147
  13  -3 -11   27498    1146
  -3  11 -13   26435    1109
  11  -3 -13    4488    1108
 -11   5 -13   24675     997
  13  -5 -11   12207    1038
  11  -5 -13   23210     996
 -13   5 -11   11607     996
  11 -13  -5   11617     994
  -5  13 -11   25912     997
   5  13  11   25530    1045
  13 -11  -5   25828    1037
  11 -13  -5   11538    1032
  -5  11 -13   11430     997
  11  -5 -13   24526    1032
  -7  13 -11      44      79
  13 -11  -7      45      72
 -13   7 -11     972      72
  13  -7 -11     985      77
   7  13  11      45     164
   7 -11 -13    1269      72
  11 -13  -7     926      68
 -11   7 -13      43      80
  13 -11  -7      45     142
  11 -13  -7     909     140
  11  -7 -13      46     151
  13  -7 -11     846     136
  -7  11 -13     778      85
  13 -11  -9    3134     295
  13  -9 -11    4652     297
  11 -13  -9    5211     296
 -11   9 -13    2878     298
  11  -9 -13    3212     297
  11 -13  -9    4745     352
 -11  13  -9    4888     293
  13 -11  -9    2842     352
   9 -11 -13    5107     298
  -9  13 -11    3050     298
 -13   9 -11    4921     295
   9 -13 -11    3070     295
  -9  11 -13    5104     297
  11  -9 -13    2828     351
  13  -9 -11    4310     347
 -11  11 -13    3829     223
  11 -11 -13    3548     222
 -13  11 -11    3584     217
  13 -11 -11    3388     220
  11 -13 -11    3896     221
 -11  13 -11    3755     219
  13  -7  13     483     127
 -13   7  13     586     168
 -13  13   7     605     170
 -13  -7 -13     674     108
  13  13  -5     111     112
 -13  -5 -13      52      82
 -13  13   5     155     145
  13   5 -13     125     116
 -13   5  13      32     139
  13  -5  13      16     125
  13   3 -13     683     125
 -13  13   3    1016     149
 -13   3  13     806     144
 -13  -3 -13     846      97
 -13  -1 -13    2765     453
 -13   1  13    3128     495
  13   1 -13    3577     492
 -13   1 -13    2009     368
   1  13  13    1851     421
  13  -1 -13    2208     411
  -1  13 -13    2114     370
  13 -13  -1    1939     410
  13  -3 -13     436     134
 -13   3 -13     503      82
   3  13  13     544     150
  13 -13  -3     478     137
  -3  13 -13     545      84
  13 -13  -3     563      61
 -13   5 -13    1239     122
  13 -13  -5    1364     113
  -5  13 -13    1314     127
   5  13  13    1325     204
  13  -5 -13    1432     184
  13 -13  -5    1154     181
 -13   7 -13     739     102
  13 -13  -7     668      88
  -7  13 -13     794     103
  -9  13 -13   15843     832
  13  -9 -13   14645     832
  13 -13  -9   15191     831
   9 -13 -13   14593     832
 -13   9 -13   15737     831
  11 -13 -13     174      84
 -13  13 -11     133      77
  13 -13 -11     139      85
 -11  13 -13      90      85
  13 -11 -13     126      91
 -13  11 -13     144      84
  13 -13 -13    5299     249
 -13  13 -13    5575     247
   0   0  14   35584    2880
   0   0 -14   34134    2862
  14   2  -2     134     140
  14  -2   2     136     134
   2   2 -14     137      69
   2  14  -2     135      93
   2  -2  14     150      90
  -2  -2 -14     149      67
   2   0  14    8633     627
   0  -2 -14   16334     605
  -2   0 -14    8142     606
   2  14   0   16624     623
  14   2   0    8669     648
   2   0 -14    8257     605
   0   2 -14   16191     606
   0   2  14   16544     635
  14   0  -2   17425     641
  -2   2 -14     173      69
   2  14   2     147     118
   2   2  14     174     105
   4  -4  14     521      87
  -4  -4 -14     543      76
   4   4 -14     638      68
   4  14  -4     661      74
  14   4  -4     641     132
  14  -4   4     565     130
   2  -4  14    1840     151
  -4  -2 -14    2656     143
   4   2 -14    2595     138
   4  -2  14    2661     180
   2   4 -14    1801     141
  -2  -4 -14    1806     142
   4  14  -2    1957     164
  14  -2   4    1950     198
  14  -4   2    2510     191
  14   4  -2    2295     195
  14   2  -4    1773     194
  14  -4   0     317     133
   0   4 -14      23      78
   0  14   4     396     141
  -4   0 -14     488      80
   4   0  14     384     119
  14   4   0     267     163
   4  14   0      39     121
  14   0   4      12     162
   4   0 -14     357      72
   0  -4 -14      39      80
   0   4  14      34     148
   4  14   2    4294     324
   2   4  14    4039     329
   2  14   4    4878     322
  -2  14  -4    5422     295
   4  -2 -14    5122     287
  -4  14  -2    4361     308
   4   2  14    4848     331
   4  14   4    1699     176
  -4   4 -14    1591     121
   4  -4 -14    1589     115
  -4  14  -4    1886     133
   4   4  14    1717     179
  -4  -4  14    1674     135
   6   6 -14    4904     320
   6  14  -6    4875     323
  14   6  -6    4875     356
   6 -14   6    5754     330
  -6  -6 -14    5211     324
   6  14  -6    4866     322
  14  -6   6    5392     362
  14   6  -4    8924     489
  -4  -6 -14    2162     452
   4   6 -14    1936     450
   4  14  -6    7963     445
   6   4 -14    8899     450
  -6  -4 -14    8930     452
  14  -6   4    9200     487
   6 -14   4    2340     464
   6   4 -14    8979     446
   4  -6  14    2090     457
  14  -4   6    2295     489
  14  -2   6    1424     249
   2   6 -14    1176     195
   6   2 -14    6920     190
  -2  -6 -14    1268     194
   6 -14   2    1291     216
  14   6  -2    6658     244
   6   2 -14    6954     188
 -14  -2  -6    1352     193
   0   6  14   21954     663
   6 -14   0   21404     650
   0  14   6    1463     667
  -6  14   0   22023     652
   0   6 -14   20310     628
 -14   0  -6   19734     626
   0  -6 -14   21696     627
   6   0 -14    1096     626
  -6   2 -14    5954     147
  -2  -6  14     534     139
   6  -2 -14    5813     143
   6 -14  -2     850     183
  -6  -2  14    5238     173
  -6  14  -2     768     168
   2   6  14     650     203
   2  14   6    5330     193
   6  -4 -14    9275     471
  -6   4 -14    8491     473
   4   6  14    2003     509
  -6  -4  14    9245     487
   4  14   6    9003     510
  -4   6 -14    2475     473
  -6   6 -14    5123     347
   6  -6 -14    5817     344
   8  -8  14     118      71
  14  -8   8     199     133
  -8  -8 -14     153      85
   8 -14   8     171      72
 -14   8   6    1544     191
   6  -8  14    1354     119
   6  -8  14    1244     114
   8   6 -14    1401     107
   8 -14   6    1368     131
  -8  -6 -14    1398     126
   8  14  -6    1124     120
  -6  -8 -14    1227     123
   8   6 -14    1452     137
 -14   6   8    1397     192
  14   8  -6    1345     169
  14  -6   8    1458     180
   8   4 -14   30618    1328
   8 -14   4   19289    1347
 -14   4   8   20147    1372
   8   4 -14   32394    1348
 -14   8   4   31546    1372
  14  -4   8   19751    1366
   8   4 -14   30767    1329
  -8  14   4   19755    1365
  -4  -8 -14   20027    1331
 -14  -4  -8   21660    1332
  14   8  -4   29818    1361
  14   8  -2   10782     385
  -8   2  14   11301     382
   8   2 -14   11045     366
  -8  14   2    4016     379
   8 -14   2    3816     363
   2   8 -14    4077     341
   8   2 -14   10450     337
 -14  -2  -8    3803     342
  -2  -8 -14    3530     342
   8   2 -14   10141     337
  -8   0  14    2559     241
  -8   0 -14    2194     200
   8   0 -14    2380     195
   8   0 -14    2788     243
   0  14   8    2894     258
   8 -14   0    2980     237
   0  -8 -14    2767     198
  -8  14   0    2839     237
 -14   0  -8    2783     200
   0   8  14    2924     264
   2  14   8   13761     516
  -8  14  -2    6284     500
   8 -14  -2    5873     502
   8  -2 -14   14197     507
 -14   2  -8    5691     470
  -2   8 -14    5521     472
  -8   2 -14   12951     472
  -8  -2  14   13906     492
   2   8  14    5430     514
   2  -8 -14    5183     469
   8  -2 -14   14031     469
 -14   4  -8   19945    1440
   4  14   8   30808    1478
  -4   8 -14   19495    1442
   4   8  14   17200    1475
   8  -4 -14   31243    1471
   8 -14  -4   19385    1438
   8 -14  -4   19895    1471
  -8   4 -14   31433    1442
  -8  -4  14   32592    1461
   8  -4 -14   31381    1441
   8 -14  -6    1459     175
   8  -6 -14    1290     186
   8  -6 -14     934     106
   6  14   8     897     187
  -6   8 -14    1231     114
   8 -14  -6    1304     100
   6   8  14    1378     197
 -14   6  -8    1163     102
  -8   6 -14     896     111
  -6  14  -8    1022     109
  -8  14  -6    1303     101
   8 -14  -8      13      67
  -8  14  -8      11      67
  -8   8 -14      50      83
 -10   8  14   23458    1194
 -14   8  10   22765    1191
 -14  10   8   23288    1195
 -10  14   8   23937    1194
  14  -8  10   23484    1176
  -8 -10 -14   22253    1148
  10   6 -14    7945     359
 -14  10   6    8174     398
  10 -14   6    5804     362
  14  -6  10    5169     378
  10  14  -6    5038     354
 -10  14   6    5090     387
  14  10  -6    7201     368
 -14   6  10    5379     392
  -6 -10 -14    5639     345
 -10   6  14    7737     394
  10  -6  14    7129     366
  10   4 -14    9533    1124
  14  10  -4    9459    1156
 -14  10   4   10489    1169
  10 -14   4   32356    1150
  10   4 -14    9162    1146
  -4 -10 -14   30550    1127
 -14   4  10   30168    1169
 -10  14   4   30857    1164
 -10  -4 -14    8899    1127
 -14  -4 -10   30375    1127
  14  -4  10   30027    1162
 -10   4  14   11104    1167
  10 -14   2   10634     564
  14  10  -2    4974     574
  10   2 -14    4751     532
 -14  -2 -10   10149     537
  10   2 -14    4886     533
 -10  14   2    9996     576
  10   2 -14    4627     560
 -10   2  14    4719     574
 -10  -2 -14    4144     537
  -2 -10 -14    9504     535
  10   0 -14   24162    1218
  10   0 -14   23941    1190
 -14   0 -10   15333    1192
   0  10 -14   13592    1192
   0  14  10   23201    1229
  10 -14   0   14008    1216
 -10  14   0   14813    1222
   0  10  14   13342    1230
 -10   0 -14   27003    1193
 -10   0  14   23563    1217
   0 -10 -14   13965    1191
   2  14  10    5214     639
 -14   2 -10   10871     594
 -10  -2  14    5954     629
  10 -14  -2   11287     627
 -10   2 -14    5714     594
   2 -10 -14    9748     591
  10  -2 -14    5477     629
   2  10  14   10712     639
  -2  10 -14   11569     596
  10  -2 -14    5694     593
  10 -14  -4   31315    1150
   4  14  10    8700    1190
  -4  10 -14   31391    1154
  10  -4 -14   10079    1152
   4  10  14   29886    1194
  -4  14 -10   10052    1153
 -10   4 -14    9277    1153
 -14   4 -10   30789    1152
  10 -14  -4   31485    1188
  10  -4 -14    9917    1187
  14 -10  -6    8979     435
  10 -14  -6    6038     428
   6  10  14    5734     435
  10  -6 -14    8717     430
 -14   6 -10    5962     381
  -6  10 -14    6213     384
  10 -14  -6    6034     379
  -6  14 -10    8733     382
 -10   6 -14    8775     383
   6  14  10    7949     432
  14  -6 -10    6257     438
  10  -8 -14   20263    1077
  10 -14  -8   20241    1073
 -10  14  -8   21090    1030
   8 -10 -14   21067    1032
  -8  10 -14   21104    1033
   8 -14 -10   19555    1031
 -10   8 -14   20013    1032
  10 -14  -8   20468    1031
 -14   8 -10   20865    1030
  14  -8 -10   21599    1078
  14 -10  -8   19656    1075
  -8  14 -10   20400    1031
 -14  10 -10     924     163
  14 -10 -10    1310     173
 -10  14 -10    1066     166
  10 -14 -10    1112     171
  10 -10 -14     903     173
 -10  10 -14     886     174
  14  -8  12    7273     353
  14  12  -6    8201     394
  14  -6  12     337     395
 -12   6  14    8549     418
 -14  12   6    8314     415
 -12  -6 -14    7218     365
  12  -6  14    7994     393
 -12  14   6     372     413
 -14   6  12     375     415
 -14  -6 -12     526     364
  12   4 -14     926     180
  12   4 -14    1144     219
  14  12  -4    1070     226
  14  -4  12    1944     229
 -12  14   4    1985     237
 -14  -4 -12    2298     189
 -14  12   4    1163     243
 -14   4  12    1931     240
  12 -14   4    2067     218
 -12   4  14    1173     241
 -12  -4 -14    1332     192
  12  14  -4    2203     219
 -12  -2 -14   12047     535
 -12   2  14   11643     574
 -14  -2 -12    6409     534
  12   2 -14   12742     564
  12 -14   2    7084     566
 -12  14   2    6956     579
 -14   2  12    6966     580
  12   2 -14   11570     528
 -12   0 -14   29554    1482
   0  14  12   29469    1524
  12   0 -14   30945    1514
 -12   0  14   30919    1517
   0  12 -14   25648    1483
 -14   0 -12   26399    1482
  12 -14   0   26580    1514
   2  14  12    9702     498
  12 -14  -2    5288     481
  12  -2 -14    9755     443
  -2  12 -14    5905     447
  14  -2 -12    5264     487
 -12   2 -14    9869     445
  12 -14  -2    5385     438
  12  -2 -14   10226     485
  -2  14 -12   10452     446
 -14   2 -12    4837     444
  12 -14  -4    1834     149
  12  -4 -14     782     211
  -4  12 -14    1774     166
  12  -4 -14     792     157
  12 -14  -4    1430     208
  -4  14 -12     725     160
  14  -4 -12    1816     223
 -14   4 -12    1739     160
   4  14  12     707     222
 -12   4 -14     687     161
  14 -12  -4     815     220
   6  14  12    9349     467
  14 -12  -6    9087     458
  -6  14 -12    9695     408
  12  -6 -14    9270     456
 -12   6 -14    8462     405
  14 -12  -6    9429     403
  12 -14  -6     591     454
 -14   6 -12     545     406
  12 -14  -6     620     402
  -6  12 -14     479     407
  14  -6 -12     490     453
 -14   8 -12    6826     301
  -8  12 -14    7045     303
  12  -8 -14    5047     302
  -8  14 -12    6141     300
  14  -8 -12    7421     304
 -12   8 -14    5826     301
  14 -12  -8    6212     299
  12 -14  -8    6728     299
 -14  10 -12    8914     442
  12 -10 -14    4097     445
  14 -12 -10    4447     444
  14 -10 -12    9506     443
  10 -14 -12    3916     442
  10 -12 -14    8682     444
 -10  12 -14    9347     443
  12 -14 -10    9216     442
 -12  14 -10    9027     440
 -10  14 -12    4147     443
 -12  10 -14    3829     444
 -12  12 -14    2793     238
 -14  12 -12    2495     232
  14 -12 -12    2662     237
  12 -14 -12    2711     236
 -12  14 -12    2665     235
  12 -12 -14    2985     243
 -14  -6 -14   12770     655
  14   4 -14   24079    1219
  14  -4  14   22686    1225
 -14  -4 -14   24379    1190
  14   4 -14   24472    1185
 -14   2  14    5704     377
  14   2 -14    5651     363
 -14  -2 -14    5590     326
 -14   0 -14   35024    1895
  14   0 -14   35647    1929
  14 -14   0   35655    1929
   0  14 -14   35733    1895
  14  -2 -14    4202     310
 -14   2 -14    4742     260
  14 -14  -2    4376     252
  14 -14  -2    4459     312
  -2  14 -14    4305     264
  14  -4 -14   22871    1099
 -14   4 -14   23046    1100
  -4  14 -14   22141    1101
  14 -14  -4   22184    1096
  -6  14 -14   13360     661
 -14   6 -14   12572     659
  14 -14  -6   12905     656
  14  -8 -14      95      91
  14 -14  -8     154      76
 -14   8 -14     105      89
  -8  14 -14      58      92
 -10  14 -14   17376     962
  14 -14 -10   17871     961
  14 -10 -14   17552     963
 -14  10 -14   16952     961
 -12  14 -14    9599     579
 -14  14 -12    8940     575
  14 -14 -12    9463     578
  14 -12 -14    9479     580
 -14  12 -14    9296     579
  12 -14 -14    9264     582
 -14  14 -14    3202     115
  14 -14 -14    3402     137
  -1  -1 -15    4083     338
  15   1  -1    5102     391
   1   1 -15    4477     338
   1  -1  15    4668     363
   1  -1 -15    3316     259
  -1   1 -15    3089     260
   1   1  15    3386     291
   1  15   1    3208     285
   3   3 -15    1942     148
   3  -3  15    1944     166
  15  -3   3    2162     205
   3  15  -3    2006     157
  -3  -3 -15    1860     151
  15   3  -3    1941     204
   1   3 -15    5696     383
  15   3  -1    5718     426
  15  -3   1    6195     425
  15   1  -3    5953     424
   3  15  -1    5988     403
  15  -1   3    5809     428
   3  -1  15    6049     407
   3   1 -15    6359     384
  -3  -1 -15    6313     385
  -1  -3 -15    5778     383
   1  -3 -15    5959     381
   3  15   1    5839     408
   1   3  15    5623     413
  -1   3 -15    6093     382
   3   1  15    5998     411
  15   3   1    5943     432
   1  15   3    6406     419
  -3   1 -15    6264     383
   3  -1 -15    5624     380
   3   3  15     857     144
  -3  15  -3     861      84
   3  15   3     875     122
   3  -3 -15     814      68
  -5  -5 -15    7407     364
   5  -5  15    6791     376
  15   5  -5    7664     403
   5  15  -5    6308     366
   5   5 -15    7444     364
  15  -5   5    7420     409
  15   3  -5    2325     263
   5   3 -15    5922     209
  -3  -5 -15    2393     218
   3  -5  15    1999     222
  15  -3   5    2342     263
   5  -3  15    5941     243
  15  -5   3    5849     263
   5   3 -15    6084     212
   3   5 -15    2192     214
   5  15  -3    2043     229
  15   5  -3    5703     259
  -5  -3 -15    6482     217
   5   1 -15    1992     175
   5   1 -15    2123     173
   5  15  -1    2729     204
   1   5 -15    2665     178
  15  -1   5    2819     248
   1  15  -5    1797     169
  -5  -1 -15    1866     178
  15   5  -1    2096     231
   5  -1  15    2024     212
  -1  -5 -15    3028     179
  -1   5 -15    3155     203
   5  -1 -15    2692     201
   1  -5 -15    3213     203
   5  -1 -15    2540     200
   5   1  15    2257     242
  -1  15  -5    2144     199
  -5  15  -1    2979     230
   1   5  15    3193     252
   1  15   5    2596     252
   5  15   1    3024     236
   5  -3 -15    9400     358
   3   5  15    4115     401
   3  -5 -15    4333     359
   5   3  15    9501     401
  -3  -5  15    3687     367
   5  -3 -15    9692     359
  -5   3 -15    9281     361
   5  15   3    3297     391
   3  15   5    9396     403
  -5  -3  15    9119     376
  -5  15  -3    4186     376
   5   5  15    8957     543
  -5  -5  15   10232     514
  -5   5 -15    9816     504
   5  -5 -15   10049     502
   5  15   5    8984     538
   7  -7  15   18515    1199
   7   7 -15   20341    1189
  -7  -7 -15   20131    1192
  15  -7   7   19242    1220
   5   7 -15    7633     514
  -5  -7 -15    7820     516
   7 -15   5    7888     528
   7   5 -15    7505     509
  15  -7   5    7470     549
  15   7  -5    7386     552
   5  -7  15    6463     517
   7  15  -5    6689     522
  -7  -5 -15    8259     517
  15  -5   7    7270     552
   7   5 -15    7626     513
  -3  -7 -15    8398     397
  15   7  -3    4726     432
   7 -15   3    8293     415
   7   3 -15    4888     393
   3   7 -15    7697     398
  15  -3   7    7966     440
   7   3 -15    5124     391
   7   1 -15    1500      73
  15   7  -1    1641     153
   7 -15   1     106     114
   7   1 -15    1349      73
 -15  -1  -7     134      80
  15  -1   7     118     161
  -1  -7 -15     106      86
  -7  15   1     100     124
   1   7 -15     105      83
   1   7  15     296     187
   7 -15  -1     478     167
 -15   1  -7     357     121
   1  -7 -15     359     124
  -7   1 -15    2899     127
   7  -1 -15    2614     121
  -7  15  -1     443     153
   1  15   7    2630     187
  -7  -1  15    2382     154
   7  -1 -15    2591     118
  -3   7 -15   11461     572
  -7   3 -15    8083     572
   7  -3 -15    7853     569
  -7  -3  15    7828     590
   3  15   7    7187     608
  -7  15  -3   11490     590
   7 -15  -3   11570     609
   3  -7 -15   11385     568
 -15   3  -7   11942     569
   3   7  15   10032     608
   5   7  15    7861     641
  -7   5 -15    9742     601
   7  -5 -15    9424     600
  -7  15  -5    8691     597
  -5   7 -15    8536     600
   5  15   7    8356     639
   7  -7 -15   19478    1272
  -7   7 -15   21509    1274
   7  15   7   22940    1319
  -7  15  -7   22605    1271
  -9  -9 -15    3250     225
  -7  -9 -15    2020     130
   9  -7  15     691     128
  15   9  -7     834     154
  -9  15   7    1530     179
  -9  -7 -15     812     130
  15  -7   9    1728     169
 -15   7   9    2128     204
   9   7 -15     774     105
 -15   9   7     807     194
  15  -5   9   10040     445
  -9   5  15    6134     453
   9   5 -15    5473     405
   9   5 -15    5858     427
 -15   9   5    5871     461
  -9  15   5   10451     448
  -5  -9 -15   11342     411
 -15   5   9   10604     459
  15   9  -5    5828     446
   9 -15   5   10898     426
   9  15  -5   10127     423
   5   9 -15   10681     408
   9   5 -15    5728     408
   3   9 -15    2556     176
  -9  15   3    2787     226
   9   3 -15     730     198
   9 -15   3    2871     199
   9   3 -15     739     169
  15  -3   9    2772     230
  -9   3  15     748     218
  15   9  -3     712     226
  -3  -9 -15    2912     174
   9   3 -15     740     170
 -15  -3  -9    2986     177
  -1  -9 -15    5416     269
   9   1 -15    3805     264
  -9   1  15    3631     303
  -9  15   1    5326     311
   9   1 -15    3442     265
   9   1 -15    3714     297
 -15  -1  -9    5254     269
  -9  -1 -15    3659     271
   9 -15   1    5552     302
   1   9  15    3324     263
   9  -1 -15    2638     237
   9 -15  -1    4009     244
  -9   1 -15    2227     200
  -9  15  -1    4113     241
  -9  -1  15    2343     233
   1  -9 -15    3678     196
 -15   1  -9    3492     198
  -1   9 -15    3548     202
   9  -1 -15    2816     195
   1  15   9    2618     266
  -9   3 -15     658     138
   3   9  15    1920     198
   3  15   9     669     197
   9  -3 -15     659     133
   9  -3 -15     658     182
  -3   9 -15    2488     138
   3  -9 -15    1940     127
   9 -15  -3    2115     192
 -15   3  -9    2078     132
  -9  -3  15     657     170
  -5  15  -9    6689     447
   9  -5 -15    6792     445
   5   9  15   10310     493
   5  15   9    5857     493
   9  -5 -15    6821     492
  -5   9 -15   10913     447
 -15   5  -9   11197     444
   9 -15  -5   11525     442
   9 -15  -5   11072     485
  -9   5 -15    6473     447
   9 -15  -7    1734     108
  -7   9 -15    1825     127
  15  -7  -9    1557     183
   9 -15  -7    1812     185
  -9   7 -15     778     125
   7   9  15    1519     202
   7  15   9     953     198
  -7  15  -9     792     115
 -15   7  -9    1759     111
   9  -9 -15    2285     191
  -9  15  -9    3033     183
  -9   9 -15    3145     193
   9 -15  -9    2759     184
  15  -7  11    1292     164
 -11  15   7    1174     175
  15  11  -7     309     141
  -7 -11 -15    1201     117
  11   7 -15     378      98
  15  -5  11    1775     227
  11   5 -15    6144     173
  11 -15   5    1726     204
 -15   5  11    1971     245
 -15  11   5    6025     242
 -11   5  15    5844     236
  11   5 -15    5929     205
  11   5 -15    6006     171
  -5 -11 -15    1502     181
 -11  -5 -15    5789     185
  15  11  -5    5647     219
 -15  -5 -11    1782     182
 -11  15   5    1536     234
  15  11  -3   17614    1047
 -11  -3 -15   19062    1014
 -11   3  15   19223    1054
  11   3 -15   18745    1010
 -11  15   3   17404    1048
  11   3 -15   19153    1037
  11 -15   3   18252    1037
  15  -3  11   16269    1051
  11   3 -15   18241    1009
  -3 -11 -15   18380    1013
 -15  -3 -11   18535    1013
 -11  15   1    7497     519
 -11   1  15    7357     513
  11   1 -15    7803     509
 -15  -1 -11    7475     478
  -1 -11 -15    6773     476
  11   1 -15    7055     472
  11   1 -15    8108     475
  11 -15   1    7297     511
 -11  -1 -15    8133     480
 -15   1 -11    4286     305
   1 -11 -15    4179     299
 -11  -1  15    4590     345
 -11   1 -15    5104     308
  -1  11 -15    4500     307
  11  -1 -15    4389     301
  11  -1 -15    4439     342
   1  15  11    4448     357
   1  11  15    4244     363
  11 -15  -1    4262     342
  11 -15  -3   13747     776
  -3  15 -11   14368     781
  11  -3 -15   14188     779
  11 -15  -3   13157     817
  11  -3 -15   14973     821
  -3  11 -15   13701     782
   3  11  15   11646     822
   3  15  11   14096     828
 -11   3 -15   15322     782
 -15   3 -11   13981     780
  11 -15  -5    1986     237
  -5  15 -11    6270     182
  15  -5 -11    1652     239
  11  -5 -15    5943     234
  -5  11 -15    1917     182
  11  -5 -15    5702     179
  11 -15  -5    1807     172
   5  15  11    5682     251
 -15   5 -11    1788     174
 -11   5 -15    5913     179
  15 -11  -5    6112     240
   5  11  15    1279     251
  11 -15  -7    1191      93
 -15   7 -11    1166     100
  -7  11 -15    1157     105
 -11   7 -15     275     107
  -7  15 -11     375     109
  -9  11 -15    2334     206
   9 -11 -15    2489     209
  11  -9 -15    1233     211
  -9  15 -11    1228     207
  15 -11  -9     989     205
  11 -15  -9    1951     202
  15  -9 -11    2049     206
 -15   9 -11    2215     203
 -11   9 -15    1219     208
 -11  15 -11   28875    1713
 -11  11 -15   28557    1715
  11 -15 -11   27871    1714
  15 -11 -11   28941    1715
  11 -11 -15   28519    1716
 -15  11 -11   27002    1712
 -13  -7 -15    6854     555
  15  -5  13    2617     190
  13  -5  15     907     186
  13   5 -15    1037     141
 -13  -5 -15    1238     156
 -15   3  13    5967     546
  13 -15   3    6415     530
 -13  15   3    6603     548
  13   3 -15    7888     524
 -13   3  15    8033     540
  13   3 -15    8060     488
 -13  -3 -15    8912     498
  15  13  -3    7625     534
 -15  -3 -13    6087     495
  15   1 -13    3898     363
  13   1 -15    6658     361
 -13  -1 -15    7080     325
 -13   1  15    6734     374
 -15  -1 -13    4278     325
  13   1 -15    6649     322
  13 -15   1    4314     363
   1  13 -15    4533     330
  13 -15  -1    4175     354
  -1  13 -15    3756     315
 -13   1 -15    7021     314
 -15   1 -13    3927     315
  13  -1 -15    6633     357
  -1  15 -13    6927     318
  15  -1 -13    3872     359
  13  -1 -15    6534     310
  15  -3 -13    5371     521
 -15   3 -13    5302     474
 -13   3 -15    7758     476
  13 -15  -3    6068     518
  13  -3 -15    7607     472
  -3  13 -15    6071     476
  13 -15  -3    5837     468
  -3  15 -13    8546     475
  13  -3 -15    7928     519
  13  -5 -15     413      96
  -5  15 -13     430     104
  13 -15  -5    1550      87
  -5  13 -15    1606     105
  15 -13  -5     444      85
 -13   5 -15     412     100
 -15   5 -13    1692     101
  -7  13 -15   11966     503
 -13   7 -15    6457     502
  15 -13  -7    6351     499
  13 -15  -7   11101     498
  -7  15 -13    6079     503
 -15   7 -13   11341     501
 -13   9 -15    4991     249
  -9  15 -13    5129     252
  13  -9 -15    5214     254
  15 -13  -9    5157     249
 -15   9 -13    4215     251
  15  -9 -13    4741     255
  -9  13 -15    4173     252
  13 -15  -9    4262     249
 -11  13 -15    1791     220
  13 -11 -15    6053     225
  15 -13 -11    5879     222
  11 -13 -15    1656     225
 -11  15 -13    6338     221
 -13  11 -15    6436     224
  13 -15 -11    1791     220
 -15  11 -13    1597     217
  15 -11 -13    1518     223
 -13  15 -13    1408     102
 -15  13 -13    1356     102
  13 -13 -15    1364     111
 -13  13 -15    1531     114
  15 -13 -13    1312     121
  13 -15 -13    1559     116
 -15  -7 -15    4713     255
 -15  -5 -15    5140     375
  15   5 -15    5849     363
 -15  -3 -15   11108     749
 -15  -1 -15    9037     460
  15   1 -15    8704     496
  15 -15   1    8787     499
   1  15 -15    8908     463
  15  -1 -15   10909     571
  -1  15 -15   11599     576
 -15   1 -15   11201     571
  -3  15 -15   12939     830
 -15   3 -15   12881     829
  15 -15  -3   12449     823
  15  -3 -15   11971     827
  15  -5 -15    6007     379
  -5  15 -15    5573     379
 -15   5 -15    5542     380
  15 -15  -5    5903     373
  15 -15  -7    6758     333
 -15   7 -15    6624     339
  -7  15 -15    7005     341
  15  -9 -15    1395     144
  15 -15  -9    1207     124
  -9  15 -15    1281     137
 -15   9 -15    1293     133
  15 -11 -15    7009     336
 -15  11 -15    6931     332
 -11  15 -15    6643     333
  15 -15 -11    7399     330
 -15  13 -15     326     103
  15 -15 -13     365     106
 -13  15 -15     294     103
  15 -13 -15     330     120
  15 -15 -15    1779     177
 -15  15 -15    1773     164
   0   0 -16   21490     944
  -2  -2 -16    1606     189
   2  -2  16    1655     210
  16  -2   2    1753     245
   2   2 -16    1473     187
  16   2  -2    1552     238
   2  16   0   19605    1035
   2   0 -16   20037    1014
  16   0  -2   18884    1051
   2   0  16   19972    1038
  -2   0 -16   19759    1014
   0   2 -16   18321    1014
   0   2  16   19138    1041
   0  -2 -16   19033    1013
  16   2   0   19445    1052
  -2   2 -16    2184     234
  16   2   2    2129     293
   2   2  16    2023     266
   2  -2 -16    2393     232
   2  16   2    2262     268
  16  -4   4    4324     195
  16   4  -4    4277     189
   4  -4  16    4458     154
   4   4 -16    4585     135
  -4  -4 -16    4910     141
  -2  -4 -16   11114     481
   2   4 -16   11547     482
   4  16  -2   11151     497
  16  -4   2    4940     523
  -4  -2 -16    4101     482
  16   4  -2    5333     528
  16   2  -4   11649     522
   4   2 -16    4644     481
  16  -2   4   11438     528
   4  -2  16    4721     502
   4   2 -16    4674     478
   4   0  16    4416     183
   0   4 -16    4730     146
  16   4   0    4535     212
   4  16   0    4793     177
  -4   0 -16    4910     147
   4   0 -16    4247     143
   4   0 -16    4369     143
  16   0   4    5479     220
   0   4  16    5400     199
   0  -4 -16    4688     146
  -2   4 -16   12058     553
  -2  16  -4    5082     559
   2  -4 -16   13054     552
   4   2  16    5772     590
  16   4   2    5850     606
  -4  16  -2   13519     572
   4  16   2   12359     579
   4  -2 -16    5674     552
   2   4  16   12997     590
   2  16   4    5831     589
   4  -4 -16    5504     163
  -4  -4  16    5354     176
   4   4  16    5794     216
  -4  16  -4    5610     176
   4  16   4    5073     214
   6  -6  16     462     127
   6   6 -16     650     123
  16   6  -6     506     175
  16  -6   6     655     181
  -6  -6 -16     541     127
   6  -4  16    8052     572
  16  -6   4    8420     592
  16  -4   6   10611     591
   6   4 -16    8217     550
   4   6 -16   11033     551
   6   4 -16    8210     547
   4  -6  16   10838     557
  16   6  -4    7820     590
  -4  -6 -16   11631     551
   6  16  -4   10305     559
  -6  -4 -16    8310     553
   6   2 -16    1778      95
  16  -2   6    1095     160
   6  16  -2    1081     127
  -6  -2 -16    1860     110
   6   2 -16    1715     101
  16   6  -2    1584     162
   6  -2  16    1658     145
  -2  -6 -16    1144     106
   2   6 -16    1083     106
   0  -6 -16    3798     293
   6  16   0    3924     319
   0   6  16    3919     341
  -6  16   0    4335     323
   6   0 -16    3922     290
  16   0   6    3986     351
  16   6   0    3882     347
   6   0 -16    3789     290
   0   6 -16    4165     295
  -6  -2  16    1353     119
  -6  16  -2     879     117
   6   2  16    1260     144
 -16   2  -6     902      82
   2   6  16     890     159
   2  -6 -16     967      86
   6  16   2     863     142
  -2  -6  16     770      77
   2  16   6    1402     147
   6  -2 -16    1270      84
   6  -2 -16    1325      79
   6  -4 -16    8746     590
   4  16   6    7951     627
   6   4  16    8289     633
   6  16   4   11780     626
  -6   4 -16    8447     591
   6  -4 -16    8934     587
  -6  -4  16    8901     606
  -4   6 -16   11779     592
   4  -6 -16   12678     588
   4   6  16   11338     631
   6  16   6     819     192
   6  -6 -16     816     131
  -6   6 -16     669     136
   6   6  16     792     202
  16  -8   8   12116     603
   8   8 -16   12627     565
  -8  -8 -16   12434     566
   6   8 -16    1292     172
  16  -6   8    1295     221
   8   6 -16    2720     157
  16   8  -6    2543     207
  -6  -8 -16    1451     170
  -8  -6 -16    2464     174
   8   6 -16    2694     169
  -4  -8 -16    2396     220
   8  16  -4    2532     235
  16  -4   8    2303     263
  -8  16   4    2618     267
   8 -16   4    2732     237
   8   4 -16    3974     210
   8   4 -16    3908     213
   4   8 -16    2705     219
  -8  -4 -16    2964     218
  16   8  -4    3738     264
  -8   2  16    3190     227
   8 -16   2    3393     215
   8   2 -16    3249     178
  16  -2   8    2916     244
   2   8 -16    3203     186
   8   2 -16    3018     180
  -8  16   2    3243     222
 -16  -2  -8    3223     185
  16   8  -2    2760     241
  -2  -8 -16    3053     183
   8 -16   0    3443     287
  -8   0 -16    3813     257
   0   8  16    3473     308
  -8   0  16    3958     286
   8   0 -16    3731     248
   8   0 -16    4030     249
   0  -8 -16    3603     253
  16   8   0    3349     305
 -16   0  -8    3673     251
  -8  16   0    3375     279
  -8  -2  16    2756     186
  -8   2 -16    2677     162
  -8  16  -2    2748     192
 -16   2  -8    2557     155
  -2   8 -16    2407     163
   8  -2 -16    2856     153
   2   8  16    2380     222
   2  -8 -16    2478     153
   2  16   8    2620     220
   8  -2 -16    2705     150
   8 -16  -2    2686     204
   8  -4 -16    3323     186
  -8  -4  16    3306     213
  -4   8 -16    1941     191
 -16   4  -8    1915     182
   4   8  16    1865     244
  -8   4 -16    3383     188
   4  16   8    2960     241
   4  -8 -16    2093     181
  -8   6 -16    3761     227
  -6   8 -16    2097     225
   6   8  16    1705     279
   6  16   8    4122     287
   8  16   6    1899     284
   8  -6 -16    3616     224
  -6  16  -8    4265     222
   8   8  16   10831     570
   8  16   8   11223     572
  -8  16  -8   11681     513
  -8   8 -16   11316     516
 -10 -10 -16     406     116
 -10  -8 -16     590     116
  16  -8  10    1527     146
  -8 -10 -16    1997     115
 -10   6  16    4930     326
  16  10  -6    5140     315
  10   6 -16    5808     270
  -6 -10 -16    2158     282
   6  10 -16    1811     281
  16  -6  10    2066     324
  10   6 -16    5480     275
 -10  16   6    2423     334
  10   4 -16    4238     482
  10 -16   4    8718     481
 -10   4  16    4065     503
  10   4 -16    4004     452
  16  -4  10    7934     501
   4  10 -16    8607     461
  10   4 -16    3834     453
  16  10  -4    3934     494
  -4 -10 -16    8076     456
 -10  16   4    8066     502
  16  10  -2    3542     314
  10   2 -16    3552     256
 -10   2  16    3084     304
  16  -2  10    2487     318
  10   2 -16    3418     292
  10   2 -16    3414     253
 -16  -2 -10    3240     260
  -2 -10 -16    2943     261
 -10  16   2    2943     304
   2  10 -16    2336     265
  10 -16   2    3102     289
 -10  -2 -16    2756     262
   0  10  16    8623     560
   0 -10 -16    8431     508
  10 -16   0    9808     548
  10   0 -16    4762     508
  10   0 -16    4528     506
  10   0 -16    5146     545
 -10  16   0   10330     552
 -16   0 -10    8337     510
 -10   0  16    4838     544
 -10   0 -16    4673     513
   2 -10 -16    2422     232
  10  -2 -16    3032     236
  10 -16  -2    2544     280
   2  10  16    2320     300
  -2  10 -16    2986     241
 -16   2 -10    2486     236
 -10  -2  16    3402     274
   2  16  10    2782     300
 -10   2 -16    2770     241
  10  -2 -16    2630     285
  10  -4 -16    3770     472
   4  16  10    3049     475
  10 -16  -4    7476     420
  10 -16  -4    7093     468
  10  -4 -16    3922     427
  -4  16 -10    3838     426
  -4  10 -16    8167     429
 -16   4 -10    6919     424
   4  10  16    6511     477
 -10   4 -16    3603     428
 -10   6 -16    5722     287
  10 -16  -6    2203     343
  10 -16  -6    2284     282
  -6  10 -16    2053     292
   6  16  10    5360     353
 -16   6 -10    2247     284
  10  -6 -16    6221     286
  -6  16 -10    5766     286
  -8  16 -10     584      97
  10 -16  -8    1723      90
 -10   8 -16     600     102
  -8  10 -16    2058     108
 -16   8 -10    1694      85
 -10  10 -16     472     102
 -10  16 -10     580      96
  16 -10 -10     635     103
  10 -10 -16     467     106
  12   8 -16   10397     557
  12   6 -16    7985     364
  16  -6  12    8688     412
  12   6 -16    7934     360
 -12   4  16    3841     206
  16  -4  12    2666     202
 -12  16   4    3043     205
 -12  -4 -16    3524     155
  16  12  -4    3483     194
  12   4 -16    3645     133
  12   4 -16    3750     136
 -16  -4 -12    2741     149
   4  12 -16    3289     150
 -12  16   2    1875     473
  12   2 -16   12187     459
 -12   2  16   11566     466
 -12  -2 -16   11548     425
  12 -16   2    1388     452
  12   2 -16   12080     419
  -2 -12 -16    1465     423
 -16  -2 -12    1559     424
  16  12  -2   11988     476
  12   2 -16   11982     417
 -12   0 -16   11057     443
  12   0 -16   12542     483
  12 -16   0    4371     481
  12   0 -16   12156     438
   0  12 -16    4220     444
 -16   0 -12    4017     442
   0 -12 -16    3618     437
 -12   0  16   13100     490
  12 -16  -2    1889     507
  -2  16 -12   13879     470
  12  -2 -16   13453     467
 -16   2 -12    1779     467
 -12   2 -16   12447     469
  -2  12 -16    1904     469
  12  -2 -16   12615     512
  12 -16  -4    3122     142
 -12   4 -16    3970     155
  12  -4 -16    4286     153
  12 -16  -4    3004     209
  -4  12 -16    3301     158
  -4  16 -12    3896     155
 -16   4 -12    3255     154
  12 -16  -6    8819     384
  -6  12 -16    9258     390
  12  -6 -16    8443     390
 -12   6 -16    7935     391
 -16   6 -12    8541     386
  -6  16 -12    7546     388
  12 -16  -8   11813     567
  -8  12 -16   11515     570
  -8  16 -12   11073     569
  16 -12  -8   10768     568
 -16   8 -12   11062     567
 -12   8 -16   10138     571
  16  -8 -12   11124     570
  16 -12 -10    4807     268
  12 -16 -10    3580     265
 -10  12 -16    3618     274
 -10  16 -12    4511     269
  12 -10 -16    3776     274
 -12  10 -16    4218     274
 -16  10 -12    3871     267
  16 -10 -12    3996     270
 -12  12 -16   22057    1200
  12 -12 -16   21921    1201
  16 -12 -12   23391    1202
 -12  16 -12   21734    1199
  14  10 -16     519      94
 -14  -8 -16    4973     195
  14   8 -16    4959     175
  14   6 -16     991     120
 -14  -6 -16     903     129
  14   6 -16    1126     123
  14   4 -16    4958     479
 -14  -4 -16    5269     483
 -16  -4 -14   10663     483
  14   4 -16    5021     474
 -14  -2 -16    1409     149
 -16  -2 -14    1939     150
  16   2 -14    2195     197
  14   2 -16    1452     136
   2  14 -16    2319     159
  14   0 -16    3355     327
  14   0 -16    3089     279
   0  14 -16    7022     291
 -16   0 -14    6360     286
  14 -16   0    6847     331
   0  16 -14    3597     288
 -14   0 -16    3346     291
  -2  16 -14    2771     200
 -14   2 -16    2390     194
 -16   2 -14    2956     192
  -2  14 -16    3214     195
  14  -2 -16    2678     188
  16 -14  -2    2648     179
  14 -16  -4   11342     467
  14  -4 -16    4875     474
  -4  14 -16   10933     474
  16 -14  -4    4639     467
 -14   4 -16    4221     473
  -4  16 -14    4696     475
 -16   4 -14    9801     472
  16  -4 -14   11966     474
  16 -14  -6     636      98
  -6  16 -14     650     114
  14 -16  -6     194      93
 -14   6 -16     625     112
  14  -6 -16     703     111
 -16   6 -14     214     106
  -6  14 -16     181     109
  16 -14  -8    6035     217
  -8  16 -14    6436     225
  14 -16  -8    2608     216
  -8  14 -16    2549     224
  16  -8 -14    2641     224
 -14   8 -16    6428     217
 -16   8 -14    2822     221
 -16  10 -14     668     106
  16 -14 -10     459     108
 -14  10 -16     427     106
 -10  16 -14     471     109
 -10  14 -16     606     107
  14 -10 -16     438     119
  16 -10 -14     676     116
  14 -16 -10     644     102
  14 -16 -12    3663     197
  16 -14 -12    3512     203
  16 -12 -14    3030     201
 -14  12 -16    3656     202
  14 -12 -16    3183     202
 -12  14 -16    3599     199
 -12  16 -14    3996     197
 -16  12 -14    3769     197
 -14  16 -14    1991     120
  14 -14 -16    1819     143
  16 -14 -14    2052     133
 -14  14 -16    1786     127
  16  10 -16    3289     201
 -16  -6 -16    5846     275
  16   6 -16    5017     260
 -16  -4 -16    2116     151
  16   2 -16    2648     143
   2  16 -16    2208     170
 -16  -2 -16    2241     160
   0  16 -16    1998     152
  16   0 -16    1954     140
  16  -2 -16    1176     112
 -16   2 -16    1278     124
  -2  16 -16    1259     141
  -4  16 -16    1852     145
  16 -16  -4    1924     109
  16  -4 -16    1708     134
 -16   4 -16    1765     127
  16 -16  -6    6072     273
  -6  16 -16    5532     282
 -16   6 -16    6011     279
  -8  16 -16     705     133
  16 -16  -8     640     127
 -16   8 -16     745     137
  16 -16 -10    2262     159
  16 -10 -16    2150     177
 -16  10 -16    2428     165
 -10  16 -16    2176     167
 -12  16 -16    5071     265
  16 -16 -12    5456     268
  16 -12 -16    6204     272
 -16  12 -16    5426     265
 -16  14 -16    1791     129
 -14  16 -16    1863     130
  16 -14 -16    1624     146
  16 -16 -14    1874     141
  -1  -1 -17    2665     210
   1   1 -17    2710     208
  17   1  -1    3324     270
  -1   1 -17    1701     152
   1   1  17    1961     200
   1  -1 -17    1774     150
  17   1   1    1681     217
   3  -3  17    7998     441
   3   3 -17    8043     420
  17   3  -3    7838     466
  17  -3   3    8378     471
  -3  -3 -17    7663     421
  17  -3   1    9606     449
   3  17  -1    4333     418
   3   1 -17    9802     398
  17   3  -1    9116     452
   1   3 -17    4205     399
   3  -1  17    9208     426
  17   1  -3    5150     450
  -3  -1 -17    8887     399
  -1  -3 -17    4204     398
  17  -1   3    4704     448
   3  -1 -17    7685     322
  -1   3 -17    2859     324
   1  -3 -17    3664     322
   3   1  17    7706     355
  17   3   1    7781     382
   3  17   1    3376     351
  -3   1 -17    7613     325
   1   3  17    3616     368
  -3   3 -17    4782     238
   3   3  17    4175     277
  17   3   3    4268     298
  -3  17  -3    4555     246
   3  17   3    4541     275
   3  -3 -17    4526     232
  17  -5   5     547     141
   5  -5  17     566      94
  17   5  -5     595     137
   5   5 -17     551      82
  -5  -5 -17     593      94
   5  17  -3    1772     127
  17  -3   5    2135     194
  -5  -3 -17     805     121
  17   5  -3     904     182
   5  -3  17     866     144
   3   5 -17    1864     121
  -3  -5 -17    1984     116
  17  -5   3     929     179
   5   3 -17     746     113
   5   3 -17     890     107
   5   1 -17   14914     646
   5  17  -1    7522     665
  -1  -5 -17    8662     647
  -5  -1 -17   14262     649
   5  -1  17   15254     676
  17   5  -1   14262     690
  17  -1   5    8888     695
   1   5 -17    8695     647
   5   1 -17   15214     645
   1  17   5   15495     691
  -1   5 -17    8496     653
   5   1  17   14821     684
  -5  17  -1    9035     674
   5  17   1    8125     677
   1   5  17    8651     690
   5  -1 -17   15591     650
  17   5   1   15303     703
  -1  17  -5   13851     650
  17   1   5    9055     707
   1  -5 -17    8947     650
   5  -1 -17   14841     650
  -5  -3  17    1197     149
  -5  17  -3    2167     140
   3  -5 -17    2218     123
   3   5  17    1905     185
   5  17   3    1999     168
   5   3  17     992     189
  -3  -5  17    2271     133
   3  17   5     913     176
   5  -3 -17     996     122
  -5  -5  17     716      86
  -5   5 -17     812     100
   5  -5 -17     657      74
   5   5  17     765     149
   5  17   5     808     138
  17  -7   7     875     197
   7   7 -17     884     142
  -7  -7 -17     845     150
  17  -5   7    5088     268
  17   7  -5    4250     259
   7   5 -17    4587     205
   5   7 -17    5114     215
   7   5 -17    4636     212
  -5  -7 -17    5107     218
  -7  -5 -17    4798     219
   7  -3  17    4315     295
  -7  17   3    6333     309
   7   3 -17    4743     263
   7   3 -17    4857     266
  17  -3   7    5866     319
  -7  -3 -17    4908     268
  17   7  -3    4265     315
  -3  -7 -17    6564     268
   3   7 -17    5927     270
   7  17  -3    5427     281
  -1  -7 -17    8976     744
  -7   1  17   13532     777
  17  -1   7    8133     791
   7  17  -1    7300     763
   7   1 -17   13195     742
   1   7 -17    9328     744
  -7  17   1    8915     772
  17   7  -1   12541     788
   7   1 -17   13421     742
   7  -1 -17   17721     939
   7  -1 -17   16930     938
   7  17   1    9734     965
 -17   1  -7   11880     939
   1  17   7   16715     981
  -7  -1  17   16705     967
  -7  17  -1   11881     964
  17   7   1   16518     990
   1  -7 -17   11883     939
   1   7  17   10639     979
   3  -7 -17    6729     280
 -17   3  -7    6658     278
   3  17   7    4952     337
   7  17   3    6489     324
  -7   3 -17    4575     284
   7   3  17    4310     324
   7  -3 -17    5173     281
  -7  17  -3    6937     303
   3   7  17    5756     328
  -7  -3  17    4734     304
   7  -3 -17    5032     276
   7  -5 -17    5875     251
   7   5  17    5610     315
   7  17   5    5800     308
  -5   7 -17    6165     255
   5   7  17    5976     310
   5  17   7    4959     305
  -7   5 -17    5171     255
  -7  17  -7    1273     152
   7  -7 -17     961     158
  -7   7 -17    1208     165
   7   7  17    1156     230
   7  17   7     945     222
   9   9 -17    3571     186
  -9  -9 -17    3773     192
   9   7 -17    2102     114
  -9  -7 -17    2277     146
  -7  -9 -17     482     137
   7   9 -17     366     134
   9   7 -17    1967     131
  17  -7   9     278     179
   9   5 -17     137      85
  17  -5   9     290     151
  -9   5  17     105     153
   9   5 -17     133      96
  17   9  -5     255     156
   5   9 -17     308      98
  -9  17   5     255     149
  -5  -9 -17     322      96
  -9  17   3     876     158
   9   3 -17    1351      93
   3   9 -17     952     115
  -9   3  17    1342     159
  17   9  -3    1320     161
   9   3 -17    1408      96
   9 -17   3    1116     134
  -3  -9 -17    1177     106
  17  -3   9     994     164
   9   1 -17    5505     300
   9 -17   1    1859     338
  17   9  -1    5334     360
   9   1 -17    5708     303
   1   9 -17    1579     307
  -9   1  17    5349     343
  -1  -9 -17    1940     305
  17  -1   9    1669     362
 -17  -1  -9    2243     306
  -9  -1 -17    5301     309
  -9  17   1    2121     344
  -9  17  -1    2205     364
  -9  -1  17    6213     365
   9  -1 -17    6202     326
   1   9  17    1967     387
   1  17   9    5596     380
  -9   1 -17    5853     334
   1  -9 -17    2152     331
 -17   1  -9    2295     330
   9  -1 -17    5867     329
   9 -17  -1    2437     371
   3  -9 -17    1565     109
 -17   3  -9    1548     110
   3   9  17    1414     180
   9  -3 -17    1734     114
  -3   9 -17    1450     128
  -9  -3  17    1477     143
   3  17   9    1509     186
  -9   3 -17    1600     125
  -5  17  -9      74      91
   5  17   9      38     159
  -9   5 -17      41      92
   9  -5 -17      56      88
  -5   9 -17     192     102
 -17   5  -9      97      77
  -7   9 -17     220     123
  -9   7 -17    1691     115
  -7  17  -9    1953     111
   9  -7 -17    1473     111
  -9  17  -9    4056     201
  -9   9 -17    4536     210
   9  11 -17    1234     170
 -11  -9 -17    1705     175
  11   9 -17    1724     158
  -7 -11 -17   13097     527
  11   7 -17    6109     519
  17  -7  11   12829     569
  11   7 -17    6140     524
   7  11 -17   13872     528
  17  -5  11    3313     223
  17  11  -5    3615     224
  -5 -11 -17    4114     181
  11   5 -17    3865     169
   5  11 -17    4413     188
  11   5 -17    3715     166
 -11   3  17    6807     518
  17  11  -3    6323     515
 -11  17   3    5135     515
  11   3 -17    7467     470
  11   3 -17    7322     469
 -17  -3 -11    5792     476
  -3 -11 -17    5492     475
   3  11 -17    5708     476
 -11  -3 -17    7207     477
  17  -3  11    4854     521
 -11  17   1    6633     492
  11   1 -17   12209     489
  17  11  -1   12212     508
 -11   1  17   11704     490
  11 -17   1    6680     486
  11   1 -17   12048     445
  11   1 -17   11492     443
  -1 -11 -17    6290     448
 -11  -1 -17   10111     448
 -17  -1 -11    6320     449
   1 -11 -17    6590     483
  11  -1 -17   12746     529
 -17   1 -11    7290     486
  11 -17  -1    7088     523
 -11  -1  17   13274     528
  -1  11 -17    7207     491
 -11   1 -17   12169     491
  11  -1 -17   12606     485
  11  -3 -17    6484     496
  11  -3 -17    7020     449
 -17   3 -11    5431     448
  -3  11 -17    5286     453
  11 -17  -3    4689     490
 -11   3 -17    6645     452
  -3  17 -11    6781     450
  11 -17  -5    6606     254
  -5  17 -11    5945     264
  11  -5 -17    5289     259
  -5  11 -17    6490     266
 -17   5 -11    6353     261
 -11   5 -17    5986     267
  11  -7 -17    6428     544
  -7  11 -17   13110     544
  11 -17  -7   13868     539
  -7  17 -11    6496     542
 -17   7 -11   13260     539
 -11   7 -17    6799     544
 -11   9 -17    1250     136
  -9  11 -17     764     143
  -9  17 -11    1114     128
  17 -11  -9    1266     128
  17  -9 -11     728     129
 -11  17 -11    2323     156
  17 -11 -11    2459     164
  11 -11 -17    2468     167
 -11  11 -17    2265     164
  13   9 -17    4111     228
  13   9 -17    4129     220
   7  13 -17      62     112
  13   7 -17     108      92
  13   7 -17     103     104
  13   5 -17    3681     216
  13   5 -17    3788     215
 -13  -5 -17    2803     227
   5  13 -17    1755     232
  13   3 -17    3234     245
  13   3 -17    3358     248
 -17  -3 -13    2383     255
 -13  -3 -17    3562     262
  13   1 -17    1455     134
 -17  -1 -13    1440     147
   1  13 -17    1082     152
 -13  -1 -17    1406     145
 -13   1 -17    1349     149
  -1  13 -17     883     143
  13  -1 -17    1397     130
  -1  17 -13    1245     140
 -17   1 -13     912     137
  13  -3 -17    2642     202
  -3  13 -17    1417     211
  -3  17 -13    3075     211
 -13   3 -17    2393     212
 -17   3 -13    1478     205
 -17   5 -13    1237     200
  13  -5 -17    3345     208
  17 -13  -5    3595     200
  -5  13 -17    1362     208
  -5  17 -13    3327     210
  13 -17  -5    1446     194
 -13   5 -17    3604     208
  17  -7 -13     156     105
 -13   7 -17     103     106
  13 -17  -7      86      86
  -7  13 -17      63      94
  13  -7 -17     133     108
  17 -13  -7      90      94
  -7  17 -13      89     105
 -17   7 -13      62      97
  17  -9 -13    3763     228
  13 -17  -9    4511     217
  -9  13 -17    4859     224
 -13   9 -17    3920     226
  17 -13  -9    4131     222
 -17   9 -13    3962     218
  -9  17 -13    4645     226
 -11  13 -17    3526     199
 -11  17 -13    1174     194
  17 -13 -11    1276     202
  17 -11 -13    4004     201
  13 -11 -17    1142     209
 -17  11 -13    3607     189
 -13  11 -17    1136     202
 -13  13 -17    1194     135
  17 -13 -13    1124     141
 -13  17 -13    1198     127
  15   9 -17    1655     142
  15   9 -17    1605     130
 -15  -7 -17    3469     259
  15   7 -17    3402     246
  15   7 -17    3319     241
  15   5 -17    2386     202
 -17  -5 -15    5269     216
 -15  -5 -17    2661     220
  15   5 -17    2335     200
  15   3 -17    6906     409
 -15  -3 -17    6026     420
 -17  -3 -15    6621     418
   1  17 -15    1414     187
   1  15 -17    2690     188
  15   1 -17    1057     167
 -15  -1 -17    1236     187
 -17  -1 -15    2425     182
  15  -1 -17    1929     205
  -1  15 -17    3638     214
  17 -15  -1    1549     191
 -17   1 -15    3604     206
  -1  17 -15    1853     219
 -15   1 -17    1324     208
 -17   3 -15    5059     379
  -3  15 -17    5738     383
  17  -3 -15    5253     381
  15  -3 -17    6183     378
 -15   3 -17    5938     380
  17 -15  -3    6266     371
  15 -17  -5    4573     168
  15  -5 -17    1584     182
  17 -15  -5    2031     171
  -5  15 -17    3940     191
 -15   5 -17    1668     181
  -5  17 -15    1929     190
  17  -5 -15    4975     184
 -17   5 -15    4314     179
  17 -15  -7    4771     333
  -7  17 -15    5101     341
  15 -17  -7    4927     333
 -15   7 -17    4699     339
 -17   7 -15    5022     337
  -7  15 -17    4741     344
 -17   9 -15     468     120
  15 -17  -9     550     116
  -9  15 -17     555     135
  -9  17 -15    1333     125
  17 -15  -9    1027     116
  17  -9 -15     339     137
 -15   9 -17    1161     123
  15 -11 -17    7627     247
 -11  17 -15    7326     247
  17 -11 -15    2216     246
  17 -15 -11    6802     240
  15 -17 -11    2388     235
 -17  11 -15    2522     240
 -11  15 -17    2692     249
 -15  11 -17    6738     244
 -17  13 -15      18     104
 -13  15 -17       6     120
 -13  17 -15     673     113
  15 -13 -17     374     130
  17 -13 -15      19     128
 -15  13 -17     609     109
  17 -15 -13     388     114
 -15  15 -17      33     115
  17 -15 -15     107     124
  17  11 -17    1448     133
  17   9 -17    1478     124
  17   9 -17    1875     118
  17   7 -17    4089     191
  17   7 -17    4424     192
  17   5 -17     867     106
 -17  -5 -17     683     132
  17   3 -17    5430     330
 -17  -3 -17    4874     334
   3  17 -17    5121     343
  17   1 -17    1575     165
 -17  -1 -17    2034     172
   1  17 -17    1837     177
  -1  17 -17    2807     228
  17  -1 -17    2521     216
  17  -3 -17    5342     337
  -3  17 -17    5276     345
 -17   3 -17    5256     337
  17  -5 -17     891     125
  -5  17 -17    1038     127
 -17   5 -17    1067     114
  17 -17  -5     947      91
  17 -17  -7    4270     178
 -17   7 -17    4083     191
  -7  17 -17    3708     194
  17 -17  -9    1113     114
  -9  17 -17    1070     126
 -17   9 -17    1218     118
  17 -17 -11    3428     175
  17 -11 -17    3176     194
 -11  17 -17    3253     187
 -17  11 -17    3282     182
 -13  17 -17    2486     245
  17 -17 -13    2692     247
  17 -13 -17    2638     259
 -17  13 -17    2615     243
 -17  15 -17    1874     165
 -15  17 -17    1686     164
   0   0 -18      35      81
  18   0   0      69     150
   2   2 -18    5402     302
  18   2  -2    4666     352
  18  -2   2    4804     353
  -2  -2 -18    4980     303
  18   2   0    2075     407
   2   0  18    1696     381
   0  -2 -18    8586     349
  18   0  -2    8286     404
   0   2 -18    8501     349
   2   0 -18    1913     349
  -2   0 -18    1641     349
  -2   2 -18    3868     227
   2  -2 -18    3788     224
   2   2  18    3367     267
  18   2   2    3045     282
   4   4 -18     569      89
  18   4  -4     657     145
  18  -4   4     441     148
  -4  -4 -18     642      90
   4  -4  18     482     101
  18  -2   4    3498     281
   4   2 -18    3908     221
  18  -4   2    3400     281
   2   4 -18    3348     223
   4  -2  18    3388     250
  18   4  -2    3162     278
  -4  -2 -18    3056     226
  -2  -4 -18    3748     227
   4  18   0   36786    2789
  -4   0 -18   58351    2768
  18   4   0   54710    2808
  18   0   4   37713    2808
   0  -4 -18   39868    2768
   4   0  18   52019    2791
   4   0 -18   56466    2767
   0   4 -18   39850    2768
   4  -2 -18    3697     225
   2  18   4    3512     275
   4  18   2    3542     264
  18   4   2    3417     298
   4   2  18    3367     270
  -4   2 -18    3338     232
  -4  18  -2    3913     248
   2   4  18    3822     279
  -2   4 -18    4020     235
   2  -4 -18    3710     226
   4   4  18    1493     174
   4  -4 -18    1623     111
  18   4   4    1706     194
   4  18   4    1453     161
  -6  -6 -18    4238     242
  18  -6   6    4455     298
   6   6 -18    4234     240
  -6  -4 -18    4856     247
   6   4 -18    5249     238
  18   6  -4    5218     299
   6   4 -18    5663     242
   4   6 -18    3060     245
  18  -4   6    2958     301
  -4  -6 -18    3656     246
   6   2 -18    6278     420
  18  -2   6    7839     472
   6  -2  18    5935     450
   6   2 -18    6273     421
   2   6 -18    8260     423
  -6  18   2    8452     460
  -2  -6 -18    8069     424
  -6  -2 -18    5853     425
  18   6  -2    6437     478
   6   0  18     120     137
  -6   0  18      60     122
   6   0 -18     142      80
  18   0   6      86     156
   0   6 -18     123      96
   6  18   0     132     120
   6   0 -18     165      80
  18   6   0     211     165
  -6  18   0     174     121
   0  -6 -18     137      87
   2   6  18    8042     487
   6  -2 -18    6643     436
   6   2  18    5815     479
   6  -2 -18    6629     434
  18   2   6    8605     502
  -6  18  -2    8132     456
   6  18   2    7930     471
  -6  -2  18    6282     461
  18   6   2    6211     498
   2  -6 -18    8567     437
   2  18   6    6199     481
   6   4  18    7190     399
   4  18   6    7410     398
   4  -6 -18    5657     346
   6  18   4    4604     392
   4   6  18    4399     394
  -6   4 -18    6926     351
   6  -4 -18    7738     344
  -6   6 -18    7097     375
   6   6  18    6092     422
   6  18   6    6178     421
   8   8 -18    9769     507
  -8  -8 -18    8631     511
  -6  -8 -18    4081     368
   8   6 -18    7916     356
  -8  18   6    3724     413
   8   6 -18    7741     365
   6   8 -18    4194     366
  -8  -6 -18    7520     367
  18   8  -6    7686     411
  -4  -8 -18    7461     289
  -8  18   4    7919     334
   8   4 -18    2592     283
  18  -4   8    7220     340
   4   8 -18    8250     288
  18   8  -4    2432     336
  -8  -4 -18    3160     292
   8   4 -18    2949     279
  18   8  -2    6775     554
  -8   2  18    7678     549
   2   8 -18    8458     510
  18  -2   8    7563     553
   8   2 -18    8180     506
  -8  18   2    9225     548
  -2  -8 -18    8783     508
   8  -2  18    7450     542
   8   2 -18    8075     507
   8   0  18    9637     595
  18   8   0    9961     610
   8   0 -18   10376     552
   8  18   0   18066     587
  -8   0  18   11246     592
  -8  18   0   18522     585
   0   8 -18   17719     557
   0  -8 -18   19326     556
   8   0 -18   11021     553
   8  18   2    6447     461
   8   2  18    5728     472
   2   8  18    6161     478
   8  -2 -18    5876     428
  -8  -2  18    6095     455
  -8   2 -18    7046     432
   8  -2 -18    6514     423
 -18   2  -8    7768     425
   2  18   8    6059     481
   2  -8 -18    7594     427
   4  -8 -18    9086     323
   8  -4 -18    3438     326
   8   4  18    2985     380
   8  18   4    8697     377
  -4   8 -18    8558     328
  -8   4 -18    3503     328
   4  18   8    3113     380
   8  -6 -18    8921     411
  -6  18  -8    9190     408
  -6   8 -18    3914     412
   8  18   6    3640     459
  -8   6 -18    9573     413
  -8  18  -8    8949     483
  -8   8 -18    8744     492
 -10 -10 -18    4865     409
  10  10 -18    5360     406
   8  10 -18    2269     183
 -10  -8 -18    3764     182
  10   8 -18    3463     179
  -8 -10 -18    1967     182
  -6 -10 -18    2670     221
   6  10 -18    2632     220
  10   6 -18    6526     209
  10   6 -18    7122     219
 -10  -6 -18    5675     225
  18  10  -4    7503     364
  10   4 -18    8045     308
  -4 -10 -18    3133     314
   4  10 -18    3019     316
 -10  18   4    3052     363
  10   4 -18    7830     310
  10   2 -18    3394     240
 -10  18   2    5650     293
  10   2 -18    3376     238
 -10   2  18    3321     296
   2  10 -18    5308     251
  -2 -10 -18    5530     245
   0 -10 -18   29256    1663
 -10   0  18   29000    1696
  10   0 -18   31353    1663
 -10  18   0   29548    1699
  10   0 -18   28313    1660
  10 -18   0   29302    1697
 -10   0 -18   32177    1667
 -18   0 -10   29233    1663
  10  -2 -18    4037     275
  -2  10 -18    6109     281
   2 -10 -18    5842     272
 -18   2 -10    5740     275
 -10   2 -18    3352     280
  10  -4 -18   10200     411
  -4  10 -18    4074     415
  10  18   4    3773     462
  -4  18 -10   10643     412
 -10   4 -18   10297     412
 -18   4 -10    4597     408
 -10   6 -18    7328     238
  -6  18 -10    7034     235
 -18   6 -10    2962     228
  -6  10 -18    2685     241
  10  -6 -18    7129     239
  -8  10 -18    1934     177
  10  -8 -18    3136     167
  -8  18 -10    3534     160
 -10   8 -18    3059     162
 -10  10 -18    8678     592
 -10  18 -10    8547     589
  18 -10 -10    7619     592
  12  12 -18     218     125
  12  10 -18    3304     332
  10  12 -18    6764     331
  12   8 -18     479     110
   8  12 -18    1025     130
  12   8 -18     361      88
  12   6 -18    1573     140
   6  12 -18     851     166
  12   6 -18    1762     150
 -12  -4 -18    7867     604
   4  12 -18   14270     603
  12   4 -18    8803     596
  12   4 -18    7891     595
  -4 -12 -18   13886     598
 -12  -2 -18    8306     463
  12   2 -18    9539     457
  12   2 -18    9494     454
  -2 -12 -18    5197     460
 -18  -2 -12    5139     463
   0 -12 -18    7444     274
  12   0 -18    1142     271
 -18   0 -12    7059     278
 -12   0 -18    1154     284
  -2  18 -12    9377     440
  12  -2 -18    9284     436
  -2  12 -18    4206     442
 -18   2 -12    4500     437
 -12   2 -18    9219     443
  12  -4 -18    6752     511
  -4  12 -18   12376     517
 -18   4 -12   12227     512
  -4  18 -12    7196     514
 -12   4 -18    6311     515
  -6  12 -18    1206     165
  -6  18 -12    1768     162
 -18   6 -12    1268     154
  12  -6 -18    1620     163
 -12   6 -18    1706     167
  18 -12  -8     304      96
  -8  18 -12     297     100
  18  -8 -12     748     106
 -12   8 -18     327     111
  -8  12 -18     950     116
 -18   8 -12     708      86
  18 -10 -12    7056     334
 -10  12 -18    6121     328
 -10  18 -12    3630     329
  18 -12 -10    3586     328
 -12  10 -18    3705     330
 -12  12 -18      56     116
  18 -12 -12      32     118
  14  14 -18    1193     160
  12  14 -18    1200     180
  14  12 -18    2944     172
  10  14 -18    5027     320
  14  10 -18    5670     323
   8  14 -18    9598     762
  14   8 -18   10658     755
  14   8 -18   10915     759
  14   6 -18    3692     201
  14   6 -18    3497     195
 -14  -6 -18    3727     212
   6  14 -18    3985     218
  14   4 -18   15109     774
  14   4 -18   13640     772
 -14  -4 -18   14696     781
 -18  -2 -14    8545     404
  14   2 -18    3638     396
  14   0 -18    1602     200
   0  14 -18    3264     213
   0  18 -14    1616     207
 -18   0 -14    2549     204
 -14   0 -18    1621     208
  -2  18 -14    2093     303
  14  -2 -18    1704     297
 -18   2 -14    5657     293
 -14   2 -18    1918     304
 -18   4 -14    9912     649
  14  -4 -18   11539     652
  -4  18 -14   13347     656
  18 -14  -4   12669     647
  -4  14 -18    9513     655
 -14   4 -18   11195     654
  14  -6 -18    4106     231
  14 -18  -6    4393     214
  -6  14 -18    4443     239
  -6  18 -14    4100     223
  18 -14  -6    4195     221
 -18   6 -14    4532     224
 -14   6 -18    4693     232
 -18   8 -14    8226     712
  14 -18  -8    8795     709
 -14   8 -18   10896     716
  -8  14 -18    8189     716
  -8  18 -14   10537     714
  18 -14  -8   10420     712
  18  -8 -14    8548     714
 -10  14 -18    6885     405
 -10  18 -14    7965     398
  18 -10 -14    6297     400
 -18  10 -14    6396     394
 -14  10 -18    7034     398
  18 -14 -10    7331     395
 -12  18 -14    3750     173
  18 -14 -12    3663     177
  14 -12 -18    3060     189
 -14  12 -18    3524     175
 -12  14 -18    1584     176
  18 -12 -14    1712     181
 -14  14 -18    3298     230
  18 -14 -14    3003     234
  16  16 -18     593     170
  16  14 -18    1405     156
  16  12 -18     542     142
  10  16 -18     887     181
  16  10 -18    1223     134
  16  10 -18    1325     153
  18   8 -16    2460     149
  16   8 -18    1029     147
   8  16 -18    2352     180
  16   8 -18     782     151
   6  16 -18       3     150
 -16  -6 -18     572     130
  16   6 -18     424     100
  16   6 -18     530     106
   4  18 -16    1659     162
 -16  -4 -18    1361     160
  16   4 -18    1488     137
 -18  -4 -16    1524     158
   2  16 -18    1542     209
  16   2 -18    2350     175
 -18  -2 -16    1514     195
 -16  -2 -18    3023     193
   2  18 -16    2889     208
   0  16 -18    2586     184
 -18   0 -16    2284     168
  16   0 -18    2235     157
 -16   0 -18    2617     172
   0  18 -16    2629     178
  18   0 -16    2254     168
 -16   2 -18    2549     196
  16  -2 -18    2548     187
  18 -16  -2    2882     172
  -2  16 -18    1473     205
  18  -2 -16    1828     190
  -2  18 -16    2815     200
 -18   2 -16    1809     187
  16  -4 -18    2091     160
  18 -16  -4    2093     140
 -18   4 -16    1953     161
  18  -4 -16    1746     164
  -4  16 -18    1874     169
  -4  18 -16    2232     169
 -16   4 -18    1945     164
  16 -18  -6       1      91
 -16   6 -18     576     118
  -6  16 -18       2     118
 -18   6 -16       4     112
  16  -6 -18     624     129
  -6  18 -16     434     118
  18 -16  -6     466     102
  16 -18  -8    3227     178
  18 -16  -8    1585     181
 -16   8 -18    1253     193
  -8  18 -16    1338     188
 -18   8 -16    3098     185
 -16  10 -18    1110     145
 -18  10 -16     598     138
  18 -10 -16     673     154
  16 -18 -10     786     128
 -10  16 -18     577     151
  16 -10 -18     768     156
 -10  18 -16    1165     147
  18 -16 -10    1027     138
  18 -16 -12     683     140
 -16  12 -18     595     140
 -12  16 -18     817     145
  16 -12 -18     469     148
  18 -12 -16     695     151
 -18  12 -16     856     129
 -12  18 -16     686     132
  18 -14 -16    3109     176
 -14  18 -16    2193     161
  18 -16 -14    2320     176
 -16  14 -18    2194     168
 -14  16 -18    2747     163
 -16  16 -18     335     125
  18  18 -18    2511     232
  18  16 -18     134     146
  16  18 -18     300     154
  18  14 -18    2469     207
  14  18 -18    2154     219
  12  18 -18    3603     280
  18  12 -18    3282     254
  10  18 -18    1249     191
  18  10 -18    1220     134
  18  10 -18     964     152
  18   8 -18    6333     289
  18   8 -18    5647     287
   8  18 -18    6394     316
  18   6 -18    1053     172
   4  18 -18    1064     160
 -18  -4 -18    1110     148
  18   4 -18     906     123
 -18  -2 -18     642     147
  18   2 -18     718     129
   2  18 -18     492     151
  18   0 -18   32661    1664
   0  18 -18   33895    1669
 -18   0 -18   30245    1664
  -2  18 -18    1001     158
 -18   2 -18    1091     141
  18  -2 -18     713     119
  -4  18 -18    1932     161
  18  -4 -18    2286     142
 -18   4 -18    2452     143
  18 -18  -6     708     139
  18  -6 -18     783     166
  -6  18 -18     694     174
 -18   6 -18     609     156
  18 -18  -8    5868     276
  -8  18 -18    6089     289
 -18   8 -18    5533     281
  18 -18 -10     250     111
 -10  18 -18     149     133
  18 -10 -18     199     139
 -18  10 -18     194     122
 -12  18 -18    2848     223
  18 -12 -18    2492     227
 -18  12 -18    3111     221
 -14  18 -18     814     128
 -18  14 -18     836     127
   1   1 -19    2605     182
  19   1  -1    2823     246
  -1  -1 -19    2747     181
   1  -1 -19    2892     196
  -1   1 -19    3170     196
  19  -1  -1    3101     262
  19   1   1    2962     259
  19   3  -3   14435     881
   3   3 -19   15194     835
  19  -3   3   13765     881
  -3  -3 -19   14236     835
  19  -3   1    7230     527
   3   1 -19    7555     477
  -3  -1 -19    6811     478
  19  -1   3    5182     529
  19   3  -1    7544     533
   1   3 -19    5462     477
   3  -1  19    7100     504
  -1  -3 -19    5988     477
  19   3   1    6136     513
   3  -1 -19    7334     459
  -1   3 -19    5038     463
   3   1  19    6960     497
   1  -3 -19    5747     463
  -3   1 -19    6971     464
  -3   3 -19   15484     890
   3  -3 -19   16483     889
   3   3  19   14458     926
   3  19   3   13951     920
   5   5 -19    1321     109
  -5  -5 -19    1382     112
  19   5  -3    1137     176
  -5  -3 -19    1339     128
   5   3 -19    1565     116
   3   5 -19    2213     124
  -3  -5 -19    2072     119
  -5  19   1    2135     190
   5   1 -19    2995     155
   1   5 -19    2244     158
  -5  -1 -19    2569     158
   5  -1  19    3258     190
  -1  -5 -19    2218     158
  19   5  -1    3060     225
  -5   1 -19    2977     177
  -5  -1  19    3745     209
  -1   5 -19    2459     186
   5   1  19    3489     218
   5  19   1    2744     214
   5  -1 -19    3724     174
   1  -5 -19    2855     179
   5   3  19    1271     176
   5  19   3    2176     166
   3   5  19    2383     183
   5  -3 -19    1327     111
   3  -5 -19    2209     116
   3  19   5    1294     165
   5  19   5     823     154
   5  -5 -19    1107      90
   5   5  19     920     161
   7   7 -19    5081     385
  -7  -7 -19    5805     388
  -5  -7 -19    3144     210
   7   5 -19    2464     200
   5   7 -19    3003     203
  -7  -5 -19    2283     210
   7   3 -19    4020     184
  -7  19   3    1854     238
   7   3 -19    4034     188
   3   7 -19    1697     194
  -3  -7 -19    1869     196
  -7  -3 -19    4374     196
  -7  -1 -19    8749     467
   7   1 -19    8961     461
  -7   1  19    9398     503
   7   1 -19    9672     462
   7  -1  19    8642     497
   1   7 -19    4973     467
  -7  19   1    4756     497
  -1  -7 -19    5305     464
  -1   7 -19    3171     365
   7  -1 -19    7332     360
   7  -1 -19    7630     361
   1  -7 -19    3560     363
   7   1  19    6894     407
   7  -3 -19    3830     178
  -7   3 -19    3770     189
   3  19   7    4002     248
   7   3  19    3902     249
   7  19   3    1811     235
   3  -7 -19    1878     185
   5  -7 -19    3420     214
  -7   5 -19    2438     227
  -5   7 -19    3653     225
   7  19   5    3167     273
  -7   7 -19    4368     332
  -7  19  -7    4567     323
  -9  -9 -19     902     138
   9   9 -19    1001     127
   7   9 -19    4477     324
   9   7 -19    5474     319
  -9  -7 -19    5873     326
  -7  -9 -19    4667     322
   9   5 -19    1389      99
  -5  -9 -19     318      98
   9   5 -19    1364      89
   5   9 -19     269      94
  -9  -5 -19    1470     112
   9   3 -19    2268     165
  -3  -9 -19    2238     169
   9   3 -19    2295     168
  -9   3  19    2408     229
   3   9 -19    2296     175
  -9  19   3    2118     218
   9   1 -19    6974     443
   9   1 -19    6770     440
   1   9 -19    9904     449
  -1  -9 -19   10034     444
  -9   1  19    6708     485
   9  -1 -19    6237     365
   9   1  19    4914     413
   9  -1 -19    5671     361
  -9   1 -19    5235     370
   1  -9 -19    8106     365
  -9   3 -19    1672     150
   9  -3 -19    1846     142
   9  19   3    1867     196
  -3   9 -19    1802     152
 -19   3  -9    1880     138
   3  -9 -19    1786     135
  -5  19  -9    1302      97
   9  -5 -19    1297      92
  -5   9 -19     265     111
  -9   5 -19    1363     111
  -7   9 -19    2828     241
  -7  19  -9    3994     240
  -9   9 -19     676     125
  -9  19  -9     563      97
  11  11 -19    1377     134
 -11  -9 -19    1566     269
  11   9 -19    1151     257
   9  11 -19    4504     268
  -9 -11 -19    4171     270
  -7 -11 -19    3816     195
  11   7 -19    1198     190
  11   7 -19    1303     175
  11   5 -19    6215     348
  11   5 -19    5652     351
   5  11 -19    6690     362
  -3 -11 -19   12829     755
  11   3 -19   12464     753
  11   3 -19   11789     752
   3  11 -19   13365     761
  -1 -11 -19     261      93
  11   1 -19     516      80
  11   1 -19     460      87
 -11  -1 -19     462     116
   1 -11 -19     373      94
  11  -1 -19     625      89
 -11   1 -19     448     102
 -19   1 -11     397      98
  11  -3 -19   10768     667
  -3  19 -11   11161     669
  -3  11 -19   10305     671
 -11   3 -19   11298     670
 -19   3 -11   11187     667
  11  -5 -19    4782     272
  -5  19 -11    4891     275
 -19   5 -11    4736     264
  -5  11 -19    5323     280
 -11   5 -19    4401     272
  -7  19 -11    1200     179
  11  -7 -19    1085     182
 -11   7 -19    1116     180
  -7  11 -19    3872     191
 -11   9 -19    2053     331
  -9  11 -19    6151     336
  -9  19 -11    2038     323
  19 -11  -9    2102     328
  19  -9 -11    6098     333
 -11  11 -19    2266     164
  19 -11 -11    2187     164
  13  13 -19     788     147
  13  11 -19    2067     173
  11  13 -19    1563     174
   9  13 -19    4852     209
  13   9 -19     293     192
   7  13 -19    5437     452
  13   7 -19    9695     440
  13   7 -19    9723     444
  13   5 -19    1708     130
  13   5 -19    1801     131
   5  13 -19    1278     150
 -13  -5 -19    2007     149
 -13  -3 -19    3141     199
  13   3 -19    2905     186
  13   3 -19    2768     179
   3  13 -19    1975     206
  13   1 -19    3742     195
 -19  -1 -13    2635     204
 -13  -1 -19    3663     209
  13  -1 -19    3646     201
  -1  19 -13    3492     202
 -19   1 -13    2639     194
 -13   1 -19    3006     203
 -13   3 -19    1975     165
  13  -3 -19    2293     154
  -3  13 -19    1515     161
 -19   3 -13    1406     143
  -3  19 -13    2007     159
 -13   5 -19    1456     139
 -19   5 -13    1090     123
  -5  13 -19    1019     131
  13  -5 -19    1518     137
  -5  19 -13    1625     128
  13  -7 -19    9980     489
  -7  19 -13   11227     491
  19 -13  -7   11131     485
  19  -7 -13    6335     490
 -19   7 -13    5706     484
  -7  13 -19    6940     493
 -13   7 -19   10433     493
  -9  13 -19    4652     189
  -9  19 -13     220     187
  19 -13  -9     203     189
  19  -9 -13    5073     199
 -13   9 -19     332     192
 -11  13 -19    1677     155
 -13  11 -19    1893     153
 -11  19 -13    1605     143
  19 -13 -11    1445     142
  19 -11 -13    1378     155
 -13  13 -19    1380     151
  19 -13 -13    1352     143
  15  15 -19    3080     214
  13  15 -19     804     152
  15  13 -19     520     138
  11  15 -19     693     157
  15  11 -19    1331     129
   9  15 -19     426     163
  15   9 -19     295     107
  15   9 -19     234     123
 -15  -7 -19    4810     387
  15   7 -19    6036     377
  15   7 -19    6068     380
   7  15 -19    3371     395
 -15  -5 -19    3025     178
   5  15 -19    2862     192
  15   5 -19    3044     157
  15   5 -19    3036     152
  15   3 -19    1249     164
 -15  -3 -19     972     190
   1  19 -15    5150     285
  15   1 -19    4544     266
   1  15 -19    3781     278
 -15  -1 -19    4009     277
 -19  -1 -15    5825     275
  -1  15 -19    3761     251
  15  -1 -19    3497     235
  19 -15  -1    3878     222
 -19   1 -15    3954     231
  -1  19 -15    4392     247
 -15   1 -19    3217     246
  15  -3 -19    1069     170
 -15   3 -19    1115     167
  -3  15 -19    2477     179
  19 -15  -3     970     146
  -3  19 -15    1075     179
  19  -3 -15    2215     172
 -19   3 -15    2467     159
 -15   5 -19    4302     204
  -5  15 -19    3114     213
  19 -15  -5    4324     195
  -5  19 -15    4253     206
  19  -5 -15    2716     206
 -19   5 -15    3466     195
  15  -5 -19    4625     209
 -15   7 -19    5743     406
  15  -7 -19    6290     407
  -7  15 -19    4133     404
  19 -15  -7    6036     397
  -7  19 -15    6610     406
 -19   7 -15    3508     401
 -19   9 -15     200     109
  -9  15 -19     288     118
  -9  19 -15     124     117
  19  -9 -15     167     136
  19 -15  -9     174     115
 -15   9 -19     134     132
  19 -11 -15     957     143
 -15  11 -19    1535     136
  15 -11 -19    1741     143
 -11  15 -19     913     131
 -11  19 -15    1651     128
  19 -15 -11    1713     115
 -15  13 -19     883     130
 -13  19 -15     912     116
  19 -15 -13    1002     135
  19 -13 -15    1113     143
 -13  15 -19    1139     132
  19 -15 -15    2604     183
 -15  15 -19    2587     170
  17  17 -19    1130     175
  15  17 -19    2397     182
  17  15 -19     774     176
  19  13 -17     788     137
  13  17 -19     645     174
  17  13 -19     483     137
  17  11 -19    2960     223
  11  17 -19    2291     256
  19  11 -17    2104     206
  19  11 -17    2195     219
  19   9 -17     440     125
  17   9 -19     972     124
  19   9 -17     328     119
  17   9 -19    1037     114
   9  17 -19     540     171
  17   7 -19    4427     152
  17   7 -19    3967     146
   7  17 -19    2341     197
  19   7 -17    2513     153
  17   5 -19    3152     166
  19   5 -17    1434     158
   5  19 -17    2788     207
 -17  -5 -19    2775     197
  17   3 -19    2281     185
  19   3 -17    3052     188
 -19  -3 -17    2746     203
 -17  -3 -19    2470     204
   3  19 -17    2553     214
 -19  -1 -17    1733     158
  17   1 -19    1276     149
   1  17 -19    1601     158
  19   1 -17    1944     144
 -17  -1 -19    1345     160
   1  19 -17    1571     182
  19  -1 -17    1586     156
 -17   1 -19    1416     162
 -19   1 -17    1954     149
  -1  19 -17    1281     172
  17  -1 -19    1518     155
  -1  17 -19    2062     179
  17  -3 -19    1841     178
  -3  17 -19    2272     187
  19  -3 -17    2732     173
 -19   3 -17    2087     166
  -3  19 -17    1823     182
  19 -17  -3    2161     150
 -17   3 -19    2174     186
  17  -5 -19    3527     190
  19 -17  -5    3127     170
  -5  17 -19    1911     204
  19  -5 -17    1701     189
  -5  19 -17    3230     191
 -17   5 -19    3093     180
 -19   5 -17    1728     179
  17 -19  -7    3368     182
 -17   7 -19    5340     194
  17  -7 -19    5351     208
  19 -17  -7    5773     184
  -7  17 -19    3483     206
  -7  19 -17    5211     201
 -19   7 -17    3452     196
  -9  17 -19     332     131
  -9  19 -17     842     133
  19 -17  -9    1034     120
  19  -9 -17     205     127
 -19   9 -17     317     116
 -17   9 -19     746     107
 -19  11 -17    1057     150
 -11  17 -19    1079     163
  17 -11 -19    1691     176
  19 -17 -11    1708     149
 -11  19 -17    1964     159
 -17  11 -19    1833     157
  19 -11 -17     796     177
 -13  19 -17     288     118
  19 -17 -13     315     128
 -17  13 -19     337     121
  19 -13 -17     717     129
 -13  17 -19     611     125
 -17  15 -19     975     153
 -15  17 -19    2119     153
  19  19 -19     761     189
  19  17 -19      73     151
  17  19 -19      83     172
  15  19 -19    2264     214
  19  15 -19    1939     178
  13  19 -19     113     160
  19  13 -19     121     136
  11  19 -19    3763     263
  19  11 -19    3731     235
  19   9 -19    5248     320
  19   9 -19    5050     320
   9  19 -19    5669     354
  19   7 -19     181     121
  19   5 -19    2826     189
 -19  -3 -19    2266     182
   3  19 -19    2035     176
  19   1 -19    6051     334
   1  19 -19    5292     340
 -19  -1 -19    6306     336
 -19   1 -19    6219     353
  19  -1 -19    6820     358
  -1  19 -19    6189     371
  19  -3 -19    4165     258
  -3  19 -19    5001     267
 -19   3 -19    4555     253
  19  -5 -19    1722     155
 -19   5 -19    1573     148
  -5  19 -19    2056     177
  19 -19  -7     312     110
  -7  19 -19     500     152
  19  -7 -19     303     145
 -19   7 -19     328     133
 -19   9 -19    3915     249
  -9  19 -19    3781     257
  19 -19  -9    3537     242
 -11  19 -19    1153     137
 -19  11 -19    1196     129
  19 -11 -19    1244     154
 -13  19 -19      89     122
  19 -13 -19      15     144
 -19  13 -19      15     114
 -15  19 -19     933     124
   0   0 -20   43894    2726
   2   2 -20   15404     798
  -2  -2 -20   15427     798
  -2   0 -20    1767     143
   2   0 -20    1590     140
   0   2 -20    4574     144
   0  -2 -20    3925     138
   2  -2 -20   10504     545
  -2   2 -20   10542     548
   4   4 -20   16833     819
  -4  -4 -20   16428     820
   2   4 -20    8071     317
   4   2 -20    6333     313
  -4  -2 -20    6073     318
  -2  -4 -20    8811     315
   4   0 -20    8029     633
   0   4 -20    8609     636
   4   0  20    8199     666
  -4   0 -20    8771     634
   0  -4 -20    8979     634
  -2   4 -20   10438     374
   2   4  20    9792     418
   4   2  20    7010     412
   4  -2 -20    7252     368
  -4   2 -20    7130     370
   2  -4 -20    9593     369
   4   4  20   14125     761
   4  20   4   13531     755
   4  -4 -20   15107     715
  -6  -6 -20    2973     286
   6   6 -20    3117     278
   6   4 -20    3944     413
   4   6 -20    8497     413
  -4  -6 -20    8924     415
  -6  -4 -20    3768     417
   6   2 -20    3103     213
   2   6 -20    2948     218
  -2  -6 -20    2650     213
   6   0 -20    4162     383
  -6   0 -20    4164     389
   0  -6 -20   12392     384
   6  -2 -20    2409     174
  -2   6 -20    2574     188
   6   2  20    2197     230
   2  -6 -20    2300     181
   4  -6 -20    7361     363
   6  -4 -20    3641     361
   6  20   4    6451     408
  -6   6 -20    3101     293
  -6  20  -6    3196     280
   8   8 -20    3247     253
  -8  -8 -20    3381     254
   6   8 -20     860     123
  -6  -8 -20     672     121
  -8  -6 -20     242     121
   8   6 -20     285     113
   8   4 -20    7041     285
   8   4 -20    7312     291
   4   8 -20    3454     298
  -4  -8 -20    3272     299
  -8  -4 -20    8029     302
   8   2 -20    4705     180
   8   2 -20    4724     184
  -2  -8 -20    2259     191
   2   8 -20    2174     193
  -8  -2 -20    4323     200
   8   0 -20   12246     662
   0   8 -20    6629     667
   0  -8 -20    5867     665
   8   0 -20   11795     662
   8  -2 -20    4408     160
  -8   2 -20    3986     181
   2  -8 -20    1887     172
  -4   8 -20    3443     314
   4  -8 -20    3753     308
  -8   6 -20     199     115
  -6   8 -20     655     128
  -6  20  -8     126     103
  -8   8 -20    4712     331
  -8  20  -8    4813     324
 -10 -10 -20      25     127
  10  10 -20      31     126
   8  10 -20     365     154
  10   8 -20    2432     142
  -8 -10 -20     432     157
 -10  -8 -20    2265     155
  10   6 -20    3199     245
  10   6 -20    2820     253
   6  10 -20    5084     266
  -6 -10 -20    4851     262
 -10  -6 -20    2905     265
  10   4 -20    2440     218
  10   4 -20    2665     222
   4  10 -20    3377     231
  -4 -10 -20    3124     232
   2  10 -20     200     110
  10   2 -20     173      91
  10   2 -20     129      88
  -2 -10 -20     303     106
  10   0 -20    4122     639
   0 -10 -20   10888     640
 -10   0 -20    4474     644
  10   0 -20    3834     635
   2 -10 -20     733     107
 -10   2 -20     787     125
  10  -2 -20     841     105
 -10   4 -20    2813     227
  -4  10 -20    2930     230
 -20   4 -10    2999     211
  10  -4 -20    2452     217
  -4  20 -10    2493     222
  10  -6 -20    3006     237
  -6  20 -10    2746     232
  -6  10 -20    3768     243
 -10   6 -20    2989     240
 -10   8 -20    3138     163
  -8  20 -10    2756     143
 -10  10 -20     411     142
  20 -10 -10     530     144
  12  12 -20    1050     156
  12  10 -20    3629     229
  10  12 -20    4246     234
  12   8 -20    8251     348
   8  12 -20    5255     357
 -12  -8 -20    7527     354
  12   6 -20    1016     121
  12   6 -20     966     127
   6  12 -20    1578     154
  12   4 -20    7312     320
  12   4 -20    7727     320
   4  12 -20    2689     333
  -4 -12 -20    2783     326
  12   2 -20    2011     164
  12   2 -20    1864     159
   2  12 -20     559     188
  -2 -12 -20     871     172
 -12  -2 -20    1995     187
  12   0 -20    6065     466
 -12   0 -20    5455     475
   0 -12 -20    8429     467
  12  -2 -20    1465     150
  -2  12 -20     556     157
 -20   2 -12     561     147
 -12   2 -20    1586     165
  -2  20 -12    1585     163
  12  -4 -20    6063     282
  -4  12 -20    2142     294
  -4  20 -12    6687     285
 -20   4 -12    2078     280
  12  -6 -20    1174     133
 -20   6 -12    1332     114
  -6  12 -20    1521     148
  -6  20 -12     891     132
 -12   6 -20     869     134
  12  -8 -20    6333     297
  -8  12 -20    4100     303
 -12   8 -20    6930     301
  -8  20 -12    6419     291
  20 -12  -8    6730     292
  20  -8 -12    4591     294
 -10  12 -20    5365     256
 -10  20 -12    3918     235
  20 -12 -10    3740     240
  20 -10 -12    4568     246
 -12  10 -20    4061     249
 -12  12 -20     979     148
  20 -12 -12     883     147
  14  14 -20     812     163
  12  14 -20     461     176
  14  12 -20    3729     165
  14  10 -20    1979     169
  10  14 -20    2129     199
  14   8 -20    1346     119
  14   8 -20    1251     137
   8  14 -20    1601     153
  14   6 -20    1071     138
  14   6 -20     955     135
   6  14 -20    1478     175
 -14  -6 -20    1096     171
  14   4 -20     820     118
 -14  -4 -20     631     150
  14   4 -20     782     114
   4  14 -20    1212     153
  14   2 -20     280     109
 -14  -2 -20     318     139
 -14   0 -20    5279     340
  14   0 -20    5417     328
   0  14 -20    3397     337
 -20   0 -14    4331     330
   0  20 -14    5686     343
  14  -2 -20     292     118
  -2  14 -20     523     135
 -20   2 -14     487     118
  -2  20 -14     360     136
 -14   2 -20     323     137
  14  -4 -20    1733     181
  -4  14 -20    2668     201
  -4  20 -14    1755     189
  20 -14  -4    1913     171
 -14   4 -20    1739     188
 -20   4 -14    2276     174
  14  -6 -20    1408     164
  -6  14 -20    1760     173
  -6  20 -14    1262     162
  20 -14  -6    1163     146
 -20   6 -14    1373     146
 -14   6 -20    1286     174
 -14   8 -20    2123     171
  14  -8 -20    1724     170
  -8  14 -20    2461     169
  20 -14  -8    1773     147
  20  -8 -14    2124     159
 -20   8 -14    2020     138
  -8  20 -14    1400     153
 -14  10 -20    1028     147
 -10  14 -20    1334     142
 -10  20 -14    1034     129
  20 -14 -10    1135     131
  20 -10 -14     975     131
 -12  20 -14    4612     180
  20 -14 -12    4274     190
 -12  14 -20    1157     193
  20 -12 -14    1299     200
 -14  12 -20    4348     198
 -14  14 -20    1461     163
  20 -14 -14    1652     171
  16  16 -20     366     154
  16  14 -20     313     145
  14  16 -20    2151     169
  16  12 -20    4930     245
  20  12 -16    1568     235
  12  16 -20    1793     272
  16  10 -20     652     197
  10  16 -20    4723     216
  20  10 -16    4490     191
  16   8 -20    1354     145
  16   8 -20    1510     149
   8  16 -20     363     185
  16   6 -20    3942     153
  16   6 -20    3659     149
 -16  -6 -20    3747     192
  16   4 -20    8916     438
 -16  -4 -20    7575     442
   4  20 -16    8973     453
 -16  -2 -20    2515     258
  16   2 -20    3002     238
   2  20 -16    2757     269
 -16   0 -20     497     134
  20   0 -16      36     132
 -20   0 -16      25     128
  16   0 -20     163     109
   0  16 -20       4     140
   0  20 -16     267     143
 -16   2 -20    2398     233
 -20   2 -16    2453     225
  16  -2 -20    2348     232
  -2  16 -20    2662     250
  20 -16  -2    2840     219
  20  -2 -16    2501     243
  -2  20 -16    2287     251
 -16   4 -20    7404     363
  16  -4 -20    6103     364
  20  -4 -16    2803     365
  -4  16 -20    2578     360
  20 -16  -4    7089     351
  -4  20 -16    7802     368
 -20   4 -16    2675     355
  20 -16  -6    2865     130
  16  -6 -20    2952     161
  -6  16 -20     496     176
 -16   6 -20    2985     155
  -6  20 -16    2974     150
 -20   6 -16     392     136
  20 -16  -8    1388     140
  -8  20 -16    1405     151
  16  -8 -20     943     166
  -8  16 -20     199     154
 -16   8 -20    1446     147
 -20   8 -16     203     139
  20 -16 -10     256     150
 -10  20 -16     326     158
  20 -10 -16    3628     179
 -16  10 -20     202     167
 -20  10 -16    3261     146
 -10  16 -20    3547     171
 -12  16 -20     938     202
 -12  20 -16    3878     200
  20 -16 -12    4281     202
  20 -12 -16    1031     213
 -16  12 -20    4096     205
 -14  16 -20    2488     146
  20 -16 -14     550     155
  20 -14 -16    2685     162
 -16  14 -20     530     156
 -16  16 -20     888     136
  18  20 -18    1484     183
  20  18 -18    1478     169
  18  18 -20    1555     175
  16  20 -18    1286     185
  20  16 -18     460     149
  16  18 -20     391     179
  18  16 -20     746     155
  14  18 -20     223     173
  18  14 -20     642     144
  14  20 -18     381     175
  20  14 -18     425     141
  12  20 -18    1658     187
  18  12 -20    2304     163
  20  12 -18    1425     161
  12  18 -20    1436     200
  20  10 -18    3962     238
  18  10 -20    1695     239
  20  10 -18    3613     235
  10  20 -18    1652     283
  10  18 -20    4472     269
  18   8 -20    1886     174
  18   8 -20    1707     168
  20   8 -18    1897     179
   8  18 -20    1544     214
  18   6 -20     908     130
  20   6 -18     311     124
 -18  -4 -20    1658     199
  18   4 -20    1474     157
  20   4 -18    1044     171
   4  20 -18    1439     209
 -18  -2 -20    1453     156
  18   2 -20    1492     122
   2  18 -20     412     165
   2  20 -18    1263     146
  20   2 -18     621     139
  20   0 -18     874     134
  18   0 -20       1     133
 -20   0 -18    1227     146
 -18   0 -20      10     147
   0  18 -20     930     170
   0  20 -18      10     164
 -18   2 -20    2482     171
  18  -2 -20    2575     165
  -2  20 -18    2480     175
  20  -2 -18    1295     159
 -20   2 -18    1554     148
  -2  18 -20    1305     180
  18  -4 -20     695     132
  -4  20 -18     816     150
  20  -4 -18     433     144
 -20   4 -18     472     142
 -18   4 -20     836     146
  -4  18 -20     401     166
  20 -18  -6    1312     125
  18  -6 -20    1032     163
  -6  18 -20     603     162
  -6  20 -18     974     153
  20  -6 -18     480     157
 -20   6 -18     536     135
 -18   6 -20    1254     151
  20 -18  -8    1976     169
  18  -8 -20    1196     195
  -8  18 -20    1858     188
  -8  20 -18    1717     181
 -20   8 -18    1829     176
 -18   8 -20    1639     165
 -20  10 -18    3315     213
 -10  18 -20    3095     229
 -10  20 -18    1558     226
  20 -10 -18    3651     234
 -18  10 -20    1522     219
  20 -18 -10    1400     209
 -12  18 -20    1565     166
 -18  12 -20    2667     165
 -12  20 -18    2277     161
  20 -18 -12    2248     158
 -14  18 -20     544     132
 -14  20 -18    1082     123
  20 -14 -18     449     132
 -18  14 -20    1075     123
 -16  18 -20     654     137
  20  20 -20     770     159
  20  18 -20    2380     182
  20  20 -18    2152     188
  18  20 -20    2311     201
  16  20 -20     170     176
  20  16 -20     280     146
  20  14 -20    1066     139
  14  20 -20     969     185
  20  12 -20    2604     158
  12  20 -20    2528     204
  20  10 -20     100     114
  10  20 -20      19     175
  20   8 -20     601     118
   8  20 -20     346     185
  20   6 -20    1538     160
  20   4 -20    1081     152
   4  20 -20     628     188
  20   2 -20    6330     423
   2  20 -20    6088     444
  20   0 -20    2699     237
 -20   0 -20    2328     244
  20  -2 -20    7382     489
  -2  20 -20    7108     497
 -20   2 -20    7371     487
  -4  20 -20     540     156
  20  -4 -20     438     151
 -20   4 -20     313     135
  -6  20 -20    2278     203
  20  -6 -20    2272     196
 -20   6 -20    1756     170
  -8  20 -20     846     139
 -20   8 -20     785     124
 -20  10 -20      52     120
 -10  20 -20      17     129
 -12  20 -20    2731     162
  20 -12 -20    2829     170
 -20  12 -20    2348     153
 -14  20 -20     979     130
   1   1 -21    6983     362
  -1  -1 -21    6834     363
  -1   1 -21    8169     435
   1  -1 -21    8542     436
   3   3 -21     350     101
  -3  -3 -21     185     103
   3   1 -21    5925     472
   1   3 -21   11827     473
  -3  -1 -21    6245     474
  -1  -3 -21   11683     471
  -3   1 -21    5723     411
  -1   3 -21    9559     412
   3  -1 -21    5522     405
   1  -3 -21    9551     405
   3  -3 -21     201      92
  -3   3 -21     265     106
   3   3  21     261     133
   5   5 -21    2324     191
  -5  -5 -21    1861     198
   5   3 -21    6047     366
   3   5 -21    8317     368
  -5  -3 -21    5493     370
  -3  -5 -21    8531     369
   5   1 -21    6515     358
   1   5 -21    5047     362
  -1  -5 -21    5319     361
  -5  -1 -21    6893     363
   5  -1 -21    6883     350
  -1   5 -21    5134     358
   1  -5 -21    5243     354
  -5   1 -21    6037     353
  -3   5 -21    5499     271
   3  -5 -21    6165     265
   5  -3 -21    4099     262
   5  -5 -21    3630     271
   7   7 -21    4878     329
  -7  -7 -21    4804     329
   7   5 -21    3341     257
   5   7 -21    3799     263
  -5  -7 -21    4229     268
  -7  -5 -21    3110     267
  -3  -7 -21   19031     907
  -7  -3 -21   17984     908
   7   3 -21   16623     904
   3   7 -21   19263     906
  -7  -1 -21     565     113
   7   1 -21     353     101
   1   7 -21     494     117
  -1  -7 -21     449     105
   7  -1 -21     203      87
  -1   7 -21     269     117
   1  -7 -21     316      96
   3  -7 -21   17425     772
   7  -3 -21   14010     770
  -7   5 -21    2773     234
  -5   7 -21    3077     239
   5  -7 -21    3246     220
  -7  21  -7    6946     416
  -7   7 -21    6039     423
   9   9 -21    1954     149
  -9  -9 -21    1895     161
   9   7 -21    6408     402
   7   9 -21    7083     406
  -9  -7 -21    6622     408
  -7  -9 -21    5971     403
   9   5 -21    2647     170
   5   9 -21     983     185
  -5  -9 -21    1129     182
  -9  -5 -21    2658     186
  -3  -9 -21    2793     121
  -9  -3 -21     746     130
   9   3 -21     928     109
   3   9 -21    2510     121
   9   1 -21    3979     198
   1   9 -21    2659     204
  -1  -9 -21    2591     207
   9  -1 -21    4169     210
   1  -9 -21    2955     214
  -9   3 -21     249     115
   3  -9 -21    1338      87
  -5   9 -21    1830     239
  -5  21  -9    4285     234
  -9   5 -21    3486     245
  -9   7 -21    5908     366
  -7   9 -21    5988     367
  -7  21  -9    5645     355
  -9   9 -21    4377     249
  11  11 -21    6842     487
   9  11 -21    2229     390
 -11  -9 -21    6575     400
  11   9 -21    7043     389
  11   7 -21    3123     175
  11   7 -21    3101     158
   7  11 -21    1788     192
 -11  -7 -21    2937     199
  -7 -11 -21    1807     194
  11   5 -21    5539     321
  11   5 -21    5430     324
   5  11 -21    2404     339
  -5 -11 -21    2288     332
  11   3 -21    3447     264
   3  11 -21    3962     284
  11   3 -21    3623     264
  -3 -11 -21    3934     272
  11   1 -21    7841     656
  -1 -11 -21   15821     661
   1  11 -21   15200     667
 -11  -1 -21    8441     669
  11   1 -21    8660     659
  11  -1 -21    9531     714
   1 -11 -21   17494     714
  11  -3 -21    4332     307
  -3  21 -11    4439     311
  -3  11 -21    4608     315
 -11   3 -21    3951     315
  11  -5 -21    5271     323
  -5  21 -11    5710     324
 -11   5 -21    5491     327
  -7  11 -21    1257     176
  -7  21 -11    2685     157
 -11   7 -21    2565     169
  -9  11 -21    2805     470
  -9  21 -11    8394     458
  21  -9 -11    2989     462
  21 -11  -9    8443     466
 -11   9 -21    8900     466
 -11  11 -21    5042     385
  21 -11 -11    5000     380
  13  13 -21   10012     462
  13  11 -21    2057     190
  11  13 -21    2735     201
 -13  -9 -21     806     161
  13   9 -21     897     148
   9  13 -21     596     169
  13   7 -21    3370     300
  13   7 -21    3170     305
  13   5 -21    1910     224
  13   5 -21    1556     224
   5  13 -21    3728     246
  13   3 -21    3552     181
  13   3 -21    3324     177
   3  13 -21    2698     214
 -13  -3 -21    2857     207
  13   1 -21    4485     208
 -13  -1 -21    4273     218
  13  -1 -21    4975     241
  -1  13 -21    1487     261
  -1  21 -13    5389     261
  13  -3 -21    3175     181
  -3  13 -21    2062     194
 -21   3 -13    2158     169
  -3  21 -13    3059     190
 -13   3 -21    3088     192
  13  -5 -21    2029     260
  -5  13 -21    3985     267
  -5  21 -13    2059     263
 -21   5 -13    3745     247
 -13   5 -21    2281     268
 -13   7 -21    3190     317
  13  -7 -21    3391     305
  -7  13 -21    6796     317
  -7  21 -13    3400     303
  21 -13  -7    3185     302
  21  -7 -13    6763     309
  21 -13  -9     873     141
  -9  13 -21     609     161
  21  -9 -13     534     140
  -9  21 -13     852     134
 -13   9 -21    1027     149
  21 -13 -11    1461     149
  21 -11 -13    1649     154
 -11  13 -21    1929     159
 -13  11 -21    1740     168
  21 -13 -13   13581     634
 -13  13 -21   14212     636
  15  15 -21    1030     175
  15  13 -21    1700     222
  13  15 -21    2618     238
  15  11 -21    1697     178
  11  15 -21    1734     201
   9  15 -21    2774     182
  15   9 -21     987     152
  15   7 -21    1950     166
  15   7 -21    1816     172
   7  15 -21    1110     204
 -15  -7 -21    1622     202
  15   5 -21    1946     148
  15   5 -21    1675     143
   5  15 -21    1557     195
 -15  -5 -21    1896     186
  15   3 -21    8804     371
 -15  -3 -21    7590     383
  15   1 -21    3426     205
   1  21 -15    3164     230
 -15  -1 -21    2651     219
  15  -1 -21    3075     208
  21 -15  -1    3428     192
 -21   1 -15    3629     206
  -1  21 -15    3334     230
 -15   1 -21    2737     218
  -1  15 -21    3718     232
  15  -3 -21    6741     347
 -15   3 -21    7359     349
  -3  15 -21    6029     358
  21 -15  -3    7912     334
  -3  21 -15    8751     356
 -21   3 -15    5997     341
  21  -3 -15    5600     350
  15  -5 -21    1164     148
  -5  15 -21    1379     171
  21 -15  -5    1274     123
 -21   5 -15    1069     127
  -5  21 -15    1183     149
 -15   5 -21    1320     159
  15  -7 -21    2148     203
  -7  15 -21    1113     208
  21 -15  -7    2341     184
  -7  21 -15    1992     185
 -21   7 -15    1105     181
 -15   7 -21    2422     201
  15  -9 -21    1103     171
  -9  15 -21    3068     174
  21 -15  -9     860     155
  -9  21 -15    1140     157
  21  -9 -15    2586     163
 -15   9 -21    1022     169
 -15  11 -21     409     135
 -11  15 -21     567     149
 -11  21 -15     374     123
  21 -15 -11     525     128
  21 -11 -15     482     141
  21 -15 -13    1289     182
  21 -13 -15    1774     189
 -15  13 -21    1242     182
 -13  15 -21    1789     187
 -15  15 -21    1379     156
  21 -15 -15    1342     162
  17  17 -21    5494     314
  21  17 -17    5391     307
  21  15 -17     388     138
  17  15 -21     164     148
  15  17 -21     759     162
  21  13 -17     569     128
  13  17 -21     477     163
  17  13 -21     189     137
  17  11 -21    1459     175
  21  11 -17    1655     158
  21  11 -17    1378     159
  11  17 -21    1589     192
  21   9 -17    1058     147
   9  17 -21    1194     190
  17   9 -21     397     143
  17   7 -21    2661     200
   7  17 -21    2798     245
  21   7 -17    2783     204
   5  21 -17     273     179
  21   5 -17     450     128
 -17  -5 -21     274     162
  17   5 -21     163     108
  17   3 -21    2486     181
   3  21 -17    2558     218
  21   3 -17    1243     183
 -17  -3 -21    2377     198
  17   1 -21    1583     201
   1  17 -21    3836     234
  21   1 -17    3842     204
   1  21 -17    1908     225
 -17  -1 -21    1504     207
  17  -1 -21    1626     205
  -1  17 -21    4116     232
  21  -1 -17    3543     207
  -1  21 -17    1383     220
 -21   1 -17    3812     199
 -17   1 -21    1584     215
 -17   3 -21    1995     185
  17  -3 -21    2247     187
  21 -17  -3    1965     145
  -3  17 -21    1143     197
  21  -3 -17    1320     184
  -3  21 -17    2111     192
 -21   3 -17    1177     166
  17  -5 -21    1416     172
  21 -17  -5    1462     149
  -5  17 -21    1776     195
  21  -5 -17    1573     172
  -5  21 -17    1395     174
 -21   5 -17    1675     161
 -17   5 -21    1508     175
  17  -7 -21    3787     259
  21 -17  -7    3599     237
  -7  17 -21    3653     259
  -7  21 -17    3867     249
 -17   7 -21    3565     251
 -21   7 -17    3080     239
 -17   9 -21     397     159
  21 -17  -9     565     142
  -9  21 -17     636     153
 -21   9 -17    1125     144
  -9  17 -21    1302     176
  21  -9 -17     896     168
 -11  17 -21     298     130
 -11  21 -17     438     129
  21 -17 -11     696     129
  21 -11 -17     456     140
 -17  11 -21     475     131
 -13  17 -21     906     138
  21 -17 -13     297     125
  21 -13 -17     615     147
 -17  13 -21     292     132
 -15  17 -21     853     127
  21 -15 -17     992     149
 -17  15 -21     375     125
 -17  17 -21    4713     259
  19  19 -21      29     143
  21  19 -19      82     146
  19  21 -19      39     141
  21  19 -17    1165     164
  19  21 -17     626     176
  17  19 -21     409     155
  19  17 -21    1018     160
  21  17 -19     777     154
  17  21 -19    1013     169
  19  15 -21    1485     156
  21  15 -19     948     152
  15  19 -21    1026     167
  15  21 -19    1470     197
  19  13 -21    1730     176
  21  13 -19    1060     166
  13  19 -21    1408     203
  13  21 -19    1694     214
  19  11 -21    1229     161
  11  19 -21    3119     216
  11  21 -19    1452     220
  19   9 -21    3995     222
  21   9 -19    4576     225
   9  19 -21    3564     261
   9  21 -19    3316     267
  19   7 -21    6042     273
  21   7 -19    2022     277
  19   5 -21    1097     154
   5  21 -19     810     178
  19   3 -21    2048     159
 -19  -3 -21    1595     167
   3  19 -21     562     195
  21   3 -19     686     161
   3  21 -19    1913     198
  19   1 -21    1051     153
 -19  -1 -21     712     174
   1  19 -21    1112     192
   1  21 -19     797     194
  21   1 -19    1152     160
 -21   1 -19    2170     188
  19  -1 -21    1703     191
  -1  21 -19    1406     209
  -1  19 -21    2335     216
  21  -1 -19    2216     191
 -19   3 -21    1703     171
  19  -3 -21    1964     169
  -3  19 -21     858     182
 -21   3 -19    1026     162
  -3  21 -19    2025     178
  21  -3 -19     496     170
  19  -5 -21    1275     189
  21  -5 -19    3568     194
  -5  21 -19    1288     184
 -21   5 -19    3530     173
 -19   5 -21    1153     178
  21 -19  -7    7444     334
  19  -7 -21    7443     353
  21  -7 -19    2381     351
  -7  19 -21    2671     355
  -7  21 -19    7808     348
 -21   7 -19    2449     340
 -19   7 -21    7014     345
  21 -19  -9    2764     174
  -9  19 -21    3493     195
  -9  21 -19    2597     198
 -21   9 -19    2848     180
 -19   9 -21    2685     188
 -11  19 -21    2760     177
 -11  21 -19    1490     167
  21 -11 -19    3091     189
 -19  11 -21    1388     168
  21 -13 -19     876     174
 -13  21 -19    1576     149
 -19  13 -21    1402     148
 -13  19 -21     866     156
 -15  19 -21     559     134
  21  21 -21     898     149
  21  21 -19    1143     164
  21  19 -21    1296     159
  19  21 -21    1160     163
  21  21 -17    6168     395
  21  17 -21    6129     384
  17  21 -21    5902     398
  21  15 -21    1675     155
  15  21 -21    2134     196
  21  13 -21    1778     143
  13  21 -21    1972     207
  11  21 -21    3253     263
  21   9 -21     640     126
   9  21 -21     515     199
  21   7 -21     408     125
  21   5 -21    1824     161
  21   3 -21    4858     368
   3  21 -21    4679     393
  21   1 -21    3938     217
   1  21 -21    4287     250
  -1  21 -21    2135     200
 -21   1 -21    1848     166
  21  -3 -21    3893     349
  -3  21 -21    4810     362
 -21   3 -21    4147     340
  21  -5 -21     882     161
  -5  21 -21     935     165
 -21   5 -21     966     149
  21  -7 -21     288     145
  -7  21 -21     240     160
 -21   7 -21     386     133
  -9  21 -21     297     145
 -21   9 -21     188     124
 -11  21 -21    3287     217
 -21  11 -21    2998     206
 -13  21 -21    1708     150
   0   0 -22   27976    2070
   2   2 -22    4185     330
  -2  -2 -22    5070     329
   0  -2 -22    1026     121
  -2   0 -22      12     126
   2   0 -22      16     115
   0   2 -22    1059     114
  -2   2 -22    3907     291
   2  -2 -22    4037     288
   4   4 -22   16794     962
  -4  -4 -22   17952     964
  -2  -4 -22     780     106
  -4  -2 -22     758     112
   4   2 -22     669      97
   2   4 -22     731     116
   0  -4 -22     424     102
  -4   0 -22     290     108
   4   0 -22     647      94
   0   4 -22     295     114
   4  -2 -22     814     102
  -4   2 -22    1000     128
  -2   4 -22     786     116
   2  -4 -22     922     103
  -4   4 -22   11830     691
   4  -4 -22   12474     686
   6   6 -22    4449     247
  -6  -6 -22    4515     256
  -4  -6 -22    5449     246
  -6  -4 -22    2125     258
   6   4 -22    2235     248
   4   6 -22    5289     246
   6   2 -22    2660     184
   2   6 -22     544     187
  -2  -6 -22     787     180
  -6  -2 -22    2917     198
   6   0 -22   13469     440
   0   6 -22    5715     446
   0  -6 -22    5264     442
  -6   0 -22   12488     448
  -2   6 -22     826     179
   2  -6 -22     488     168
  -6   2 -22    2193     175
   6  -2 -22    2408     163
   4  -6 -22    4879     218
   6  -4 -22    1913     217
  -6   6 -22    2574     190
  -6  22  -6    3032     168
   8   8 -22     634     123
  -8  -8 -22     437     134
   8   6 -22    2465     175
   6   8 -22    3271     180
  -6  -8 -22    3222     186
  -8  -6 -22    1931     185
   8   4 -22    3381     351
   4   8 -22    8295     360
  -4  -8 -22    7183     357
  -8  -4 -22    3810     361
   8   2 -22    5333     329
  -8  -2 -22    5644     340
   2   8 -22    3183     333
  -2  -8 -22    3215     328
   0  -8 -22    2362     336
   0   8 -22    2309     340
   8   0 -22    4814     330
   2  -8 -22    4063     381
   8  -2 -22    6229     376
   4  -8 -22    7157     330
  -8   4 -22    3333     343
  -6   8 -22    3441     184
  -6  22  -8    2129     169
  -8   6 -22    2163     188
  -8   8 -22      17     137
  10  10 -22    6690     318
 -10 -10 -22    6519     333
  10   8 -22    5367     232
   8  10 -22    3172     238
  -8 -10 -22    3526     239
 -10  -8 -22    4416     241
  10   6 -22    2322     167
   6  10 -22    1333     181
  -6 -10 -22    1427     182
 -10  -6 -22    2335     190
  10   4 -22    4729     327
   4  10 -22    5989     340
 -10  -4 -22    4329     340
  -4 -10 -22    6704     327
  10   2 -22    2196     178
   2  10 -22    2169     200
  -2 -10 -22    2897     186
  10   0 -22    1192     113
   0  10 -22     928     156
   0 -10 -22     850     126
   2 -10 -22    2267     152
 -10   2 -22    1433     163
  -4  10 -22    6619     374
  -4  22 -10    5533     369
 -10   4 -22    5690     374
  -6  22 -10    2052     153
 -10   6 -22    1821     166
  -8  10 -22    2941     209
  -8  22 -10    4127     191
 -10   8 -22    3806     199
 -10  10 -22    7802     380
  22 -10 -10    7906     377
  12  12 -22     982     157
  12  10 -22    4344     245
  10  12 -22    4421     250
  12   8 -22    1321     155
   8  12 -22    1420     175
 -12  -8 -22    1309     180
  12   6 -22    2605     183
  12   6 -22    2450     194
  12   4 -22    2085     128
  12   4 -22    1952     133
   4  12 -22     699     161
  -4 -12 -22     690     151
  12   2 -22    7043     436
  12   2 -22    7086     434
   2  12 -22    8165     446
  -2 -12 -22    8600     440
 -12  -2 -22    7154     449
  12   0 -22    6516     336
   0 -12 -22    5265     333
 -12   0 -22    6021     340
 -12   2 -22    7035     458
  12  -2 -22    7084     451
  -2  12 -22    9168     462
  -2  22 -12    6995     457
 -12   4 -22    1884     169
  -4  12 -22     562     167
  -4  22 -12    2087     154
  -6  12 -22    3012     213
  -6  22 -12    3058     208
 -12   6 -22    2764     219
  -8  12 -22    1570     192
 -12   8 -22    1824     196
  -8  22 -12    1782     174
  22 -12  -8    1919     175
  22  -8 -12    1692     189
  22 -12 -10    3375     198
  22 -10 -12    3077     201
 -10  12 -22    3666     217
 -12  10 -22    3598     211
 -12  12 -22     791     158
  22 -12 -12     949     146
  14  14 -22    3490     277
  14  12 -22    1867     204
  12  14 -22    1392     205
  14  10 -22    3959     199
  10  14 -22    1296     223
   8  14 -22    1164     174
  14   8 -22     342     130
  14   6 -22    4536     379
  14   6 -22    4247     380
   6  14 -22   10942     399
   4  14 -22    1554     167
  14   4 -22     925     130
  14   4 -22     830     116
 -14  -4 -22     694     160
 -14  -2 -22    2059     177
  14   2 -22    1622     137
  14   0 -22   17814     813
 -14   0 -22   16505     821
  14  -2 -22    2026     167
  -2  14 -22    2022     188
  -2  22 -14    1956     189
 -14   2 -22    2072     177
  14  -4 -22    1424     148
  -4  14 -22    1595     153
  22 -14  -4    1264     132
  -4  22 -14    1025     153
 -14   4 -22     977     158
  -6  22 -14    2941     285
  22 -14  -6    2571     269
  14  -6 -22    2636     284
 -14   6 -22    2594     292
 -14   8 -22     628     172
  -8  14 -22    1586     165
  -8  22 -14     548     145
  22 -14  -8     661     142
  22  -8 -14     921     161
 -10  14 -22    1942     246
 -10  22 -14    4802     228
  22 -14 -10    4665     229
  22 -10 -14    1953     239
 -14  10 -22    4846     241
 -12  14 -22     743     171
  22 -14 -12     979     165
  22 -12 -14    1115     167
 -14  12 -22    1082     173
  22 -14 -14    4640     322
 -14  14 -22    4372     321
  16  16 -22     810     157
  22  14 -16    1260     167
  16  14 -22     884     171
  14  16 -22    1486     189
  22  12 -16     314     130
  22  12 -16     346     122
  16  12 -22     379     142
  12  16 -22     356     169
  16  10 -22     610     130
  10  16 -22     630     168
  16   8 -22    3221     200
  16   8 -22    2875     205
   8  16 -22    3555     247
  16   6 -22    1387     145
 -16  -6 -22    1220     180
   6  16 -22     929     190
   4  22 -16    2602     238
  16   4 -22    2499     192
 -16  -4 -22    2214     213
 -16  -2 -22     794     164
  16   2 -22     695     134
   2  22 -16     971     190
  22   0 -16     418     136
  16   0 -22     110     120
   0  16 -22     616     173
 -16   0 -22     134     148
   0  22 -16      16     150
  22  -2 -16     550     169
  22 -16  -2    1037     129
  16  -2 -22     948     158
  -2  16 -22     710     187
  -2  22 -16    1049     169
 -16   2 -22    1097     177
  16  -4 -22    2153     188
  -4  16 -22    1486     201
  22 -16  -4    1952     157
  -4  22 -16    1837     196
  22  -4 -16    1679     174
 -16   4 -22    1768     189
 -22   4 -16    1398     165
  16  -6 -22    1421     181
  -6  16 -22    1650     194
  22 -16  -6    1535     153
  -6  22 -16    1614     170
 -16   6 -22    1557     171
 -22   6 -16    1539     157
  -8  16 -22    3763     255
  22 -16  -8    3785     236
  -8  22 -16    3873     242
  22  -8 -16    3720     245
 -16   8 -22    3679     244
 -16  10 -22     528     144
  22 -10 -16     915     158
 -10  16 -22    1214     162
 -10  22 -16     950     140
  22 -16 -10     725     123
 -16  12 -22     456     139
 -12  16 -22     236     139
  22 -16 -12     262     131
  22 -12 -16     282     151
 -16  14 -22     784     157
 -14  16 -22    1018     151
  22 -16 -14     878     156
  22 -14 -16     717     159
 -16  16 -22    1621     165
  18  18 -22    6273     418
  22  18 -18    6292     420
  18  22 -18    6342     434
  16  22 -18     510     181
  22  16 -18     455     133
  18  16 -22     455     152
  16  18 -22     506     168
  14  22 -18    2885     209
  14  18 -22     752     183
  18  14 -22    2975     156
  22  14 -18     688     154
  12  22 -18     455     195
  18  12 -22     489     140
  12  18 -22     698     175
  18  10 -22    1947     212
  22  10 -18    3513     213
  10  18 -22    3712     246
  18   8 -22    3392     223
  22   8 -18    1705     231
   8  18 -22    1657     268
   6  22 -18      96     188
  18   6 -22      77     117
   6  18 -22     796     175
  22   6 -18     469     127
  18   4 -22    7147     399
  22   4 -18    5714     402
   4  22 -18    7618     420
 -18  -2 -22     207     165
  18   2 -22     289     131
   2  18 -22     738     175
   2  22 -18     269     177
  22   2 -18     645     141
   0  22 -18    1307     182
  18   0 -22    1739     148
   0  18 -22     570     172
 -18   0 -22    1334     156
  22   0 -18     809     145
 -18   2 -22      63     140
  -2  22 -18      80     165
  18  -2 -22     151     140
  22  -2 -18     234     145
  -2  18 -22     405     166
  18  -4 -22    9543     515
  -4  18 -22    8624     519
  -4  22 -18    9515     520
 -18   4 -22    8891     514
 -22   4 -18    7351     506
  18  -6 -22     740     161
  -6  18 -22    1851     174
  22 -18  -6     542     125
  -6  22 -18     356     162
 -22   6 -18    1602     140
  22  -6 -18    1307     159
 -18   6 -22     305     153
  18  -8 -22    3146     244
  22 -18  -8    3042     220
  -8  18 -22    1775     249
  -8  22 -18    3522     234
 -22   8 -18    1562     221
 -18   8 -22    2846     234
 -10  18 -22    2132     182
  22 -18 -10    1402     168
 -10  22 -18    1350     178
  22 -10 -18    1968     189
 -18  10 -22    1114     176
 -12  18 -22     852     141
 -12  22 -18     467     126
  22 -18 -12     557     118
  22 -12 -18    1001     160
 -18  12 -22     420     136
  22 -14 -18     684     172
 -18  14 -22    3252     149
 -14  18 -22    1016     159
 -16  18 -22     183     119
 -18  16 -22     216     114
  20  22 -20     281     143
  22  20 -20     217     131
  20  20 -22     182     134
  22  20 -18     217     136
  22  18 -20     138     130
  20  18 -22     314     132
  18  22 -20     374     153
  18  20 -22     197     142
  20  22 -18     363     155
  20  16 -22    1644     199
  22  16 -20    2388     196
  16  20 -22    2990     223
  16  22 -20    1932     241
  22  20 -16    1638     212
  20  14 -22    1404     154
  22  14 -20     434     149
  14  20 -22     591     201
  12  20 -22    1570     189
  12  22 -20    1281     195
  22  10 -20     404     121
  10  20 -22     403     184
  10  22 -20     869     198
  20   8 -22     578     129
   8  20 -22    1197     188
  22   8 -20    1283     132
  20   6 -22     730     137
   6  22 -20     762     186
  22   6 -20     742     134
  20   4 -22    4349     202
  22   4 -20    2262     201
   4  22 -20    3467     240
  20   2 -22     688     162
   2  20 -22    1227     205
  22   2 -20    1051     165
   2  22 -20     836     207
  20   0 -22      11     146
   0  20 -22     137     179
 -20   0 -22       0     158
   0  22 -20      45     173
  22   0 -20     246     142
  -2  22 -20     175     175
  20  -2 -22     153     153
  -2  20 -22     233     170
  22  -2 -20     232     154
 -20   2 -22      47     151
  20  -4 -22    3018     190
  22  -4 -20    1803     190
  -4  20 -22    1942     216
 -22   4 -20    1989     182
 -20   4 -22    3845     191
 -22   6 -20     807     133
  20  -6 -22     606     153
  -6  20 -22     628     169
  -6  22 -20     646     159
  22  -6 -20     635     160
 -20   6 -22     832     144
  20  -8 -22     206     152
  -8  20 -22     971     148
  -8  22 -20     313     143
 -22   8 -20    1178     135
 -20   8 -22     303     136
 -10  20 -22     180     138
 -10  22 -20     577     128
 -20  10 -22     526     126
  22 -12 -20     948     157
 -20  12 -22    1258     142
 -12  20 -22    1468     156
 -12  22 -20    1514     146
 -14  20 -22     463     150
  22  22 -22      92     100
  22  22 -20     325     122
  22  20 -22     175     107
  20  22 -22     300     120
  22  18 -22       3     109
  18  22 -22      15     137
  22  22 -18      51     132
  22  22 -16     927     153
  16  22 -22    1066     170
  14  22 -22    2987     260
  12  22 -22    2432     222
  10  22 -22       5     182
  22   8 -22    5765     282
  22   6 -22       3     120
  22   4 -22    3850     193
   4  22 -22    3597     238
  22   2 -22     443     142
   2  22 -22     191     156
  22   0 -22    8927     517
   0  22 -22    9486     524
  22  -2 -22    1145     160
  -2  22 -22    1229     187
  22  -4 -22    3995     220
  -4  22 -22    4083     224
 -22   4 -22    4106     207
  22  -6 -22     137     146
  -6  22 -22     417     156
 -22   6 -22     325     129
  22  -8 -22    6584     348
  -8  22 -22    7349     345
 -22   8 -22    7013     340
 -10  22 -22      84     129
 -22  10 -22     212     114
 -12  22 -22    3031     194
   1   1 -23   14723     851
  -1  -1 -23   14552     852
  -1   1 -23   15238     870
   1  -1 -23   14684     869
   3   3 -23    4374     276
  -3  -3 -23    4753     281
   3   1 -23    3834     178
   1   3 -23    1573     172
  -1  -3 -23    1710     176
  -3  -1 -23    3884     182
   1  -3 -23    1846     171
  -1   3 -23    1560     167
   3  -1 -23    3249     169
  -3   1 -23    3747     181
  -3   3 -23    4549     298
   3  -3 -23    4964     287
   5   5 -23    3038     217
  -5  -5 -23    3224     234
   5   3 -23    1782     240
   3   5 -23    6170     246
  -3  -5 -23    6303     243
  -5  -3 -23    1524     246
   5   1 -23    3332     298
   1   5 -23    5631     310
  -1  -5 -23    5618     303
  -5  -1 -23    2910     307
   5  -1 -23    3488     318
  -1   5 -23    5914     329
   1  -5 -23    5997     318
  -5   1 -23    3330     328
  -3   5 -23    5610     233
   3  -5 -23    5940     229
   5  -3 -23    1823     227
  -5   3 -23    1321     236
   5  -5 -23    3049     211
  -7  -7 -23     102     137
   7   7 -23     226     121
   5   7 -23     649     137
   7   5 -23    1576     139
  -5  -7 -23     734     151
  -7  -5 -23    1396     136
   7   3 -23    2425     177
   3   7 -23    1750     185
  -3  -7 -23    2347     190
  -7  -3 -23    1592     193
   1   7 -23    1563     204
   7   1 -23    2506     189
  -1  -7 -23    1666     195
  -7  -1 -23    2824     210
   7  -1 -23    2450     175
  -1   7 -23    1636     195
   1  -7 -23    1745     182
   3  -7 -23    1289     151
   7  -3 -23    1692     146
   5  -7 -23     597     122
  -5  23  -7    1745     136
  -7   7 -23     510     147
   9   9 -23     168     132
  -9  -9 -23     187     145
   9   7 -23    3085     196
   7   9 -23    1163     203
  -7  -9 -23    1078     201
  -9  -7 -23    2567     198
   9   5 -23      97     111
   5   9 -23     904     135
  -5  -9 -23     871     134
  -9  -5 -23     114     148
   9   3 -23    1639     137
   3   9 -23    1402     156
  -3  -9 -23    1306     138
   9   1 -23    6388     390
   1   9 -23    8348     405
  -1  -9 -23    7950     395
   9  -1 -23    5798     338
  -1   9 -23    6289     359
   1  -9 -23    7174     344
  -9   3 -23    1678     179
   3  -9 -23    1868     151
  -9   5 -23      35     138
  -5   9 -23     812     141
  -5  23  -9      60     114
  -7   9 -23    1617     264
  -7  23  -9    4211     241
  -9   7 -23    3773     257
  -9   9 -23     279     145
  11  11 -23     125     143
  11   9 -23    1662     209
   9  11 -23    3998     223
 -11  -9 -23    2060     231
  11   7 -23    2915     178
   7  11 -23    1696     200
  -7 -11 -23    1761     201
 -11  -7 -23    2623     208
  11   5 -23     531     129
  -5 -11 -23    1442     148
 -11  -5 -23     506     171
   5  11 -23     947     139
  -3 -11 -23    1309     129
  11   3 -23     695     124
   3  11 -23    1299     159
  11   1 -23    1084     119
   1  11 -23    1401     147
  -1 -11 -23    1211     134
 -11   1 -23     659     146
   1 -11 -23    1294     123
 -11   3 -23     892     169
  -3  11 -23    1404     162
  -3  23 -11    1104     139
 -11   5 -23     311     156
  -5  11 -23     561     142
  -5  23 -11     307     126
 -11   7 -23    1918     168
  -7  11 -23     553     169
  -7  23 -11    1763     141
  23 -11  -9    2424     254
  23  -9 -11    4685     256
  -9  11 -23    5230     268
 -11   9 -23    2201     263
 -11  11 -23      34     129
  23 -11 -11      44     137
  13  13 -23    2196     212
  13  11 -23    3913     232
  11  13 -23    3520     241
   9  13 -23     899     158
  13   9 -23    1430     153
  13   7 -23    5702     266
   7  13 -23    2459     283
  13   5 -23    1005     119
   5  13 -23      70     159
  13   3 -23    3580     240
   3  13 -23    4075     268
 -13  -3 -23    3572     256
 -13  -1 -23    1045     194
  13   1 -23    1019     166
  -1  23 -13     604     159
 -13   1 -23     377     151
  -3  13 -23    4733     287
 -13   3 -23    3985     285
  -3  23 -13    4130     284
 -13   5 -23     999     149
  23 -13  -5    1189     123
  -5  13 -23      69     161
  -5  23 -13    1451     143
  -7  13 -23    2587     325
  -7  23 -13    7002     308
  23 -13  -7    6871     307
  23  -7 -13    2969     315
 -13   7 -23    6417     323
 -13   9 -23    1402     166
  -9  13 -23     706     154
  -9  23 -13    1051     133
  23 -13  -9    1214     137
  23  -9 -13     645     154
  23 -13 -11    3377     203
  23 -11 -13    2619     208
 -13  11 -23    3714     220
 -11  13 -23    3320     220
 -13  13 -23    1338     172
  23 -13 -13    1140     158
  15  15 -23     925     163
  15  13 -23    1074     149
  13  15 -23     918     163
  15  11 -23     890     138
  11  15 -23     572     162
  15   9 -23    1945     197
   9  15 -23    1758     214
  15   7 -23     886     128
   7  15 -23     719     170
  15   5 -23    1482     154
   5  15 -23    2535     202
 -15  -5 -23    1526     200
   3  23 -15    1247     201
  15   3 -23    1447     158
   3  15 -23    1420     192
 -15  -3 -23    1466     189
  15   1 -23    1251     136
 -15  -1 -23    1506     182
   1  23 -15    1413     185
  15  -1 -23    1725     158
  -1  23 -15    1332     174
  -1  15 -23    2571     189
  23 -15  -1    1456     136
 -15   1 -23    1164     159
  15  -3 -23    2469     203
  -3  15 -23    2329     212
  23 -15  -3    2099     184
  -3  23 -15    2337     212
  23  -3 -15    1992     206
 -15   3 -23    1733     198
  -5  15 -23    2707     207
  23 -15  -5    2151     181
  -5  23 -15    2315     203
 -15   5 -23    1700     202
  -7  15 -23     818     173
  -7  23 -15     829     145
  23 -15  -7     892     127
 -15   7 -23     742     162
  -9  15 -23    1273     189
  23 -15  -9    1289     170
  -9  23 -15    1426     170
  23  -9 -15    1134     187
 -15   9 -23    1790     186
  23 -11 -15    1334     178
 -15  11 -23    1838     172
  23 -15 -11    2116     161
 -11  15 -23    1160     158
 -15  13 -23    1892     166
 -13  15 -23    1802     165
  23 -15 -13    1799     168
  23 -13 -15    1532     176
 -15  15 -23     743     140
  23 -15 -15     924     141
  17  23 -17    1079     200
  23  17 -17     911     145
  17  17 -23    1093     147
  15  23 -17      55     173
  17  15 -23     129     157
  15  17 -23     627     164
  23  15 -17     792     139
  17  13 -23     145     126
  13  17 -23      89     159
  11  23 -17     431     163
  17  11 -23     700     129
  11  17 -23     262     177
  23  11 -17     369     126
  23   9 -17     388     125
  17   9 -23      65     114
   9  17 -23     287     162
   7  23 -17    2183     206
  23   7 -17    1408     157
  17   7 -23    2223     138
   7  17 -23    1927     191
  17   5 -23    1959     154
  23   5 -17    1876     160
 -17  -5 -23    1789     183
   5  17 -23    1998     198
   5  23 -17    2094     217
  23   3 -17    1002     147
  17   3 -23     852     132
 -17  -3 -23     898     170
   3  23 -17     913     182
  17   1 -23     682     148
   1  17 -23    1718     183
 -17  -1 -23     549     163
   1  23 -17     727     189
  23   1 -17    1634     165
  17  -1 -23     726     157
  -1  17 -23    2009     186
 -17   1 -23     573     167
  -1  23 -17     475     159
  23  -1 -17    1814     160
  -3  23 -17     466     160
  -3  17 -23     625     177
  23 -17  -3     559     111
 -17   3 -23     410     160
  23  -3 -17     419     153
 -17   5 -23    2879     196
  17  -5 -23    3126     202
  -5  17 -23    2521     212
  23 -17  -5    2776     175
  23  -5 -17    2073     198
  -5  23 -17    2524     199
  23 -17  -7    2485     144
  -7  17 -23    1323     186
 -17   7 -23    2391     166
  -9  17 -23     937     161
  -9  23 -17     729     140
  23 -17  -9     758     134
  23  -9 -17     730     162
 -17   9 -23     543     142
 -11  17 -23     229     149
 -11  23 -17     416     121
  23 -17 -11     517     119
  23 -11 -17     272     151
 -17  11 -23     446     136
 -13  17 -23     209     134
  23 -17 -13     123     128
  23 -13 -17     192     145
 -17  13 -23     209     129
 -15  17 -23     940     145
 -17  15 -23     241     144
 -17  17 -23     756     125
  23  19 -19    1273     158
  19  19 -23    1268     161
  19  23 -19    1234     181
  19  23 -17     321     172
  19  17 -23     227     130
  23  17 -19     268     131
  17  19 -23     189     147
  17  23 -19     182     181
  23  19 -17     181     144
  19  15 -23     480     149
  15  19 -23    2285     173
  15  23 -19     489     191
  13  19 -23     394     174
  19  13 -23     755     128
  13  23 -19     546     175
  11  19 -23     104     177
  11  23 -19      22     196
  23   9 -19     725     136
   9  19 -23     437     184
  23   7 -19     463     126
  19   7 -23     375     120
   7  19 -23     294     171
   7  23 -19     300     182
  23   5 -19    2011     193
   5  23 -19    1790     216
  19   3 -23    2310     155
  23   3 -19    2479     170
  19   1 -23    1965     168
  23   1 -19    1220     161
   1  19 -23    1238     191
 -19  -1 -23    1091     183
   1  23 -19    1403     197
  19  -1 -23    2078     181
  23  -1 -19    1670     191
  -1  19 -23    1681     201
  -1  23 -19    2433     201
 -19   1 -23    1683     190
  19  -3 -23    2997     192
  -3  19 -23    2869     209
  23  -3 -19    2353     202
  -3  23 -19    2732     196
 -19   3 -23    2492     179
 -19   5 -23    2097     180
  19  -5 -23    1642     187
  -5  19 -23    1611     190
  -5  23 -19    2012     192
  23 -19  -7     220     110
  -7  19 -23     355     159
  -7  23 -19     182     137
 -19   7 -23     133     139
  23 -19  -9     708     126
  -9  19 -23     517     156
  -9  23 -19     684     142
 -19   9 -23     667     146
 -11  19 -23      71     140
 -11  23 -19      33     124
  23 -11 -19     233     147
 -19  11 -23      22     133
 -13  19 -23     443     137
  23 -13 -19     274     148
 -19  13 -23     979     135
 -15  19 -23    1842     135
 -19  15 -23     360     128
  21  21 -23     150     103
  21  23 -21     385     115
  23  21 -21     213      97
  21  19 -23      89     112
  19  21 -23     164     126
  19  23 -21      58     135
  23  21 -19      54     122
  21  23 -19     143     134
  23  21 -17     101     136
  21  17 -23      17     110
  17  23 -21       9     145
  17  21 -23     155     138
  21  23 -17     169     147
  15  21 -23     152     152
  15  23 -21     481     168
  13  21 -23    1646     209
  13  23 -21    1226     217
  11  21 -23    2359     227
  11  23 -21     643     224
  23   9 -21    1684     187
   9  21 -23    1555     239
  21   7 -23     913     144
  23   7 -21    1477     147
  21   5 -23    1163     148
  23   5 -21    1174     149
   5  23 -21    1167     200
  21   3 -23     959     142
  23   3 -21     602     149
   3  21 -23     338     186
   3  23 -21     912     188
   1  23 -21     803     180
  21   1 -23    1270     164
  23   1 -21    1386     164
 -21   1 -23     470     160
  21  -1 -23     492     153
  -1  21 -23     758     178
  23  -1 -21     891     153
  -1  23 -21     727     185
  21  -3 -23    1258     161
  -3  21 -23    1121     166
  23  -3 -21     954     161
  -3  23 -21     965     170
 -21   3 -23     952     146
  21  -5 -23     445     151
  -5  21 -23     251     161
  23  -5 -21     257     155
  -5  23 -21     480     161
 -21   5 -23     290     136
  21  -7 -23     442     158
  -7  21 -23     852     153
  23  -7 -21     822     167
  -7  23 -21     806     146
 -21   7 -23     475     139
  -9  21 -23    1269     192
  -9  23 -21    1623     184
 -21   9 -23    1452     188
 -21  11 -23     403     152
 -11  23 -21     538     162
 -11  21 -23    1363     158
 -13  21 -23    1423     158
  23  23 -21     392      88
  21  23 -23     426      97
  19  23 -23    1032     125
  23  23 -19    1031     118
  17  23 -23    1522     140
  23  23 -17    1545     145
  15  23 -23    2708     190
  23  23 -15    2242     178
  13  23 -23     684     157
  11  23 -23     105     175
   9  23 -23     734     199
  23   7 -23      14     114
  23   5 -23    3186     227
   5  23 -23    3456     266
   3  23 -23     258     177
  23   3 -23     379     133
  23   1 -23    3103     230
   1  23 -23    3296     265
  23  -1 -23    3961     256
  -1  23 -23    2940     267
  23  -3 -23     242     141
  -3  23 -23     222     156
  23  -5 -23    3612     257
  -5  23 -23    3443     263
  -7  23 -23      55     132
  -9  23 -23     359     137
 -11  23 -23      18     118
   0   0 -24   20893    1019
   2   2 -24    2035     201
  -2  -2 -24    2059     210
   0  -2 -24       0     108
  -2   0 -24     312     101
   2   0 -24     288     109
   0   2 -24       1     119
  -2   2 -24    1281     168
   2  -2 -24    1506     162
   4   4 -24    5604     345
  -4  -4 -24    5109     347
   4   2 -24    7448     237
   2   4 -24    2254     248
  -2  -4 -24    2397     236
  -4  -2 -24    7294     250
   4   0 -24   28043    1407
   0   4 -24   23879    1409
   0  -4 -24   24345    1408
  -4   0 -24   29645    1410
  -2   4 -24    2490     254
   4  -2 -24    7197     241
   2  -4 -24    2775     246
  -4   2 -24    7203     261
  -4   4 -24    6377     413
   4  -4 -24    6621     406
   6   6 -24     193     124
  -6  -6 -24      71     141
  -4  -6 -24    1305     204
   6   4 -24    3154     197
   4   6 -24    1069     197
  -6  -4 -24    3043     206
   6   2 -24    4094     242
   2   6 -24    2721     246
  -2  -6 -24    2520     243
  -6  -2 -24    4072     255
   6   0 -24    2520     164
   0  -6 -24    2295     168
   0   6 -24    2571     192
  -2   6 -24    3108     258
   2  -6 -24    2914     247
  -6   2 -24    4113     266
   6  -2 -24    4001     246
   4  -6 -24    1105     173
   6  -4 -24    2848     172
   8   8 -24    1769     168
  -8  -8 -24    1914     171
   8   6 -24    2846     181
   6   8 -24    1428     198
  -8  -6 -24    3075     203
  -6  -8 -24    1945     195
  -8  -4 -24    3613     267
   8   4 -24    4917     250
   4   8 -24    3017     265
  -4  -8 -24    2841     251
   8   2 -24     733     119
   2   8 -24     779     147
  -2  -8 -24     732     131
  -8  -2 -24    1011     146
   8   0 -24    3608     185
   0  -8 -24    2999     188
   0   8 -24    2839     202
  -8   0 -24    3482     205
  -2   8 -24    1656     173
   2  -8 -24    1514     143
   8  -2 -24    1413     136
   4  -8 -24    3876     315
  -4  24  -8    6378     323
  -6   8 -24    1615     209
  -6  24  -8    3351     191
  -8   6 -24    3341     218
  -8   8 -24    3249     231
  10  10 -24      93     139
 -10 -10 -24     106     156
  10   8 -24     992     137
   8  10 -24    2239     157
  -8 -10 -24    2533     165
 -10  -8 -24     843     171
 -10  -6 -24     968     228
  10   6 -24     987     205
   6  10 -24    3681     219
  -6 -10 -24    3620     220
  10   4 -24     798     135
   4  10 -24    1797     168
  -4 -10 -24    1592     144
 -10  -4 -24     766     166
  10   2 -24     309     109
   2  10 -24     385     147
  -2 -10 -24     553     118
  10   0 -24    4662     175
   0  10 -24     812     206
   0 -10 -24     683     184
 -10   2 -24     208     155
  -2  24 -10     245     127
   2 -10 -24     447     110
 -10   4 -24    1046     172
  -4  24 -10    1076     151
  -6  10 -24    4390     260
  -6  24 -10    1763     246
 -10   6 -24    1760     261
 -10   8 -24     699     148
  -8  10 -24    1851     152
  24 -10 -10     360     135
 -10  10 -24     207     150
  12  12 -24     546     149
  12  10 -24    1679     153
  10  12 -24     374     156
 -12  -8 -24     451     146
  12   8 -24     633     123
   8  12 -24     261     135
  12   6 -24    2495     141
   6  12 -24     252     172
 -12  -6 -24    2743     175
  12   4 -24     977     140
   4  12 -24    1396     168
   2  12 -24     810     185
   0  24 -12    6794     286
 -12   0 -24    5794     288
  -2  24 -12    2758     183
 -12   2 -24    1548     178
 -12   4 -24     438     160
  -4  12 -24     419     168
  -4  24 -12     616     139
  -6  12 -24     496     189
  -6  24 -12    2868     160
 -12   6 -24    2749     165
  24  -8 -12     193     136
  24 -12  -8     525     123
 -12   8 -24     588     156
  -8  12 -24     234     159
  -8  24 -12     566     116
 -12  10 -24    2108     169
 -10  12 -24     840     171
  24 -12 -10    2375     167
  24 -10 -12     652     169
 -12  12 -24     616     144
  24 -12 -12     597     144
  14  14 -24    1615     189
  14  12 -24    1241     159
  12  14 -24    2093     178
  14  10 -24     770     169
  10  14 -24    2864     184
  14   8 -24    1963     155
   8  14 -24    1201     183
  14   6 -24    2244     141
   6  14 -24     775     187
   4  14 -24    3121     186
 -14  -4 -24     289     176
   2  24 -14     305     171
   2  14 -24     204     154
 -14  -2 -24     138     176
 -14   0 -24     240     166
   0  24 -14     465     154
  24 -14  -2     213     118
  -2  14 -24     212     155
  -2  24 -14     251     162
 -14   2 -24     148     155
  -4  14 -24    4132     227
  -4  24 -14    2051     226
  24 -14  -4    1686     203
 -14   4 -24    1641     237
 -14   6 -24    1396     136
  -6  24 -14    1507     141
  -6  14 -24     472     173
  24 -14  -6    1588     121
 -14   8 -24    1795     165
  -8  14 -24     749     171
  24  -8 -14     765     167
  -8  24 -14    1623     143
  24 -14  -8    1538     134
 -10  14 -24    2288     171
  24 -14 -10     549     165
  24 -10 -14    2707     176
 -14  10 -24     827     186
 -14  12 -24     729     166
 -12  14 -24    1634     161
  24 -12 -14    1466     150
  24 -14 -14    2115     196
 -14  14 -24    1832     194
  24  16 -16    1183     140
  16  16 -24    1369     153
  16  14 -24     362     144
  14  16 -24    1158     162
  24  12 -16    1171     147
  16  12 -24    2386     157
  12  16 -24    1052     193
  24  10 -16     976     169
  16  10 -24    1665     158
  10  16 -24     917     204
  16   8 -24    2226     168
   8  16 -24    3694     217
   6  24 -16      79     171
 -16  -6 -24      26     160
   6  16 -24     340     180
   4  24 -16     976     194
   4  16 -24     586     176
 -16  -4 -24     837     163
  24   2 -16    1395     179
 -16  -2 -24    1274     196
   2  24 -16    1633     208
  24   0 -16      27     156
  16   0 -24     844     131
 -16   0 -24    1066     162
   0  16 -24       1     153
   0  24 -16     998     169
  -2  24 -16    1410     170
  24 -16  -2    1721     144
  -2  16 -24    1139     204
  24  -2 -16    1656     172
 -16   2 -24    1530     177
  24 -16  -4    1459     138
  -4  16 -24     778     189
  -4  24 -16    1480     171
 -16   4 -24    1281     157
  24  -4 -16     978     174
  -6  16 -24     334     156
  -6  24 -16      84     142
  24 -16  -6      43     113
 -16   6 -24      71     151
  24 -16  -8    1759     152
  -8  24 -16    1719     159
  -8  16 -24    2533     180
  24  -8 -16    2806     169
 -16   8 -24    1498     163
 -10  16 -24     603     157
 -10  24 -16    1198     141
 -16  10 -24    1184     160
  24 -16 -10    1244     139
  24 -10 -16     648     174
  24 -12 -16    1230     183
 -12  16 -24    1212     172
 -16  12 -24    2457     176
 -14  16 -24     783     141
  24 -16 -14     159     131
  24 -14 -16     691     137
 -16  14 -24     194     131
 -16  16 -24    1147     139
  18  18 -24     122     133
  24  18 -18     121     122
  18  24 -18     156     162
  24  18 -16     598     139
  16  18 -24     873     154
  18  16 -24     557     133
  16  24 -18     575     174
  14  24 -18    1471     227
  18  14 -24    1134     185
  14  18 -24    2552     205
  18  12 -24    3228     205
  12  18 -24     775     228
  12  24 -18    3557     260
  10  18 -24     384     174
  24  10 -18     420     134
  24   8 -18    1127     141
   8  18 -24    1052     184
   8  24 -18     496     200
   6  18 -24     461     178
  24   6 -18     782     129
   6  24 -18      53     185
  18   4 -24     365     124
   4  24 -18     285     170
  24   4 -18     129     134
  18   2 -24    1448     157
  24   2 -18    1656     179
   2  24 -18    1978     207
 -18  -2 -24    1691     192
  18   0 -24    3007     203
  24   0 -18    2385     216
   0  24 -18    2867     233
 -18   0 -24    2235     210
  18  -2 -24    2159     174
  24  -2 -18    1736     188
 -18   2 -24    1882     192
  -2  24 -18    1971     205
  -4  18 -24     157     179
  -4  24 -18     565     160
  24  -4 -18     137     148
 -18   4 -24     313     140
  -6  18 -24      93     157
  24 -18  -6      34     110
  -6  24 -18      48     143
 -18   6 -24      11     137
  24 -18  -8    1093     144
  -8  18 -24    1503     167
  -8  24 -18    1143     158
 -18   8 -24     930     160
 -18  10 -24    1077     152
 -10  18 -24     366     166
  24 -18 -10     995     125
 -10  24 -18     850     133
  24 -10 -18     345     154
  24 -12 -18     753     204
 -18  12 -24    2810     192
 -12  18 -24     836     199
 -18  14 -24    1055     169
 -14  18 -24    2336     174
 -18  16 -24     423     118
 -16  18 -24     568     122
  20  20 -24      64     112
  20  24 -20      65     135
  20  18 -24     389     119
  18  20 -24       5     129
  24  20 -18     189     119
  20  24 -18     357     136
  20  24 -16      90     156
  24  20 -16      41     135
  20  16 -24     176     118
  16  20 -24     119     138
  16  24 -20     253     168
  14  20 -24    1763     178
  14  24 -20     473     187
  12  24 -20     140     174
  12  20 -24     190     168
  24  10 -20     864     122
  10  20 -24     486     182
  24   8 -20    1775     148
   8  20 -24    1771     194
   6  20 -24    2213     204
  20   6 -24    2729     166
  24   6 -20    2703     176
   6  24 -20    2915     224
  20   4 -24    2310     223
  24   4 -20    3997     224
   4  24 -20    2104     273
  20   2 -24    2324     160
   2  20 -24    1477     194
  24   2 -20    1632     171
   2  24 -20    1771     193
  20   0 -24     591     141
   0  20 -24     391     181
  24   0 -20     478     155
   0  24 -20     697     184
 -20   0 -24     531     160
  20  -2 -24    2545     180
  -2  20 -24    2149     209
  -2  24 -20    2523     191
 -20   2 -24    2705     194
  24  -2 -20    1739     189
  20  -4 -24    1507     192
  -4  20 -24    2891     205
  24  -4 -20    2777     193
  -4  24 -20    1447     200
 -20   4 -24    1145     192
  -6  20 -24    2681     206
  24  -6 -20    2544     193
  -6  24 -20    2733     192
 -20   6 -24    2800     182
  -8  20 -24    1063     146
  -8  24 -20     595     146
 -20   8 -24     469     139
 -10  20 -24     855     145
 -10  24 -20     420     130
  24 -10 -20     649     151
 -20  10 -24     330     135
 -12  20 -24     465     134
 -20  12 -24     200     121
 -14  20 -24    1258     132
  20  22 -24     324      93
  20  24 -22      23     109
  22  24 -20     184     102
  18  22 -24    1562     150
  24  22 -18    1744     141
  18  24 -22    1952     159
  22  24 -18    1452     154
  16  22 -24     116     140
  16  24 -22     608     149
  24  22 -16     574     133
  22  24 -16     195     152
  14  22 -24      64     144
  14  24 -22     815     165
  12  22 -24     262     167
  12  24 -22     629     176
  10  22 -24    1806     185
  10  24 -22     792     183
  24   8 -22    1136     144
   8  22 -24    1147     191
  22   6 -24     569     128
  24   6 -22     760     127
   6  24 -22     669     182
  22   4 -24     867     161
  24   4 -22    1572     169
   4  22 -24    1690     213
   4  24 -22    1061     213
  22   2 -24    1308     139
  24   2 -22    1002     147
   2  22 -24     301     190
   2  24 -22     905     179
  22   0 -24     141     135
  24   0 -22      87     148
   0  22 -24      34     181
   0  24 -22      91     175
  22  -2 -24     939     149
  24  -2 -22     505     153
  -2  22 -24     539     173
  -2  24 -22    1117     172
  22  -4 -24     621     159
  24  -4 -22     815     165
  -4  22 -24    1134     183
  -4  24 -22     892     162
  24  -6 -22     757     160
  -6  22 -24     956     167
  -6  24 -22     915     162
 -22   6 -24     680     141
 -22   8 -24    1841     147
  24  -8 -22    1036     167
  -8  22 -24    1029     161
  -8  24 -22    1838     149
 -10  22 -24    1554     147
 -10  24 -22    1040     142
 -22  10 -24     920     132
 -12  22 -24     132     120
  18  24 -24     556     113
  24  24 -18     534     108
  16  24 -24     192     118
  24  24 -16     192     119
  24  24 -14     904     151
  14  24 -24    1004     152
  12  24 -24     105     142
  10  24 -24     415     153
  24   4 -24     926     136
   4  24 -24     914     184
  24   2 -24    1077     127
   2  24 -24     786     180
  24   0 -24    5611     349
   0  24 -24    6095     370
  24  -2 -24     867     138
  -2  24 -24     879     163
  -6  24 -24    1742     185
  -8  24 -24     201     124
 -10  24 -24      86     118
  -1  -1 -25    5016     259
   1   1 -25    4522     257
   1  -1 -25    4494     236
  -1   1 -25    4167     244
   3   3 -25   13022     756
  -3  -3 -25   12694     761
   3   1 -25    2197     204
   1   3 -25    4698     208
  -1  -3 -25    4548     210
  -3  -1 -25    2711     210
  -1   3 -25    4535     211
   1  -3 -25    4193     203
  -3   1 -25    2312     199
   3  -1 -25    2440     192
   3  -3 -25   10661     653
  -3   3 -25   11477     660
   5   5 -25    1850     148
  -5  -5 -25    1325     158
   5   3 -25     569     141
   3   5 -25    1338     147
  -5  -3 -25     743     149
  -3  -5 -25    1523     149
   5   1 -25    6149     372
   1   5 -25    6599     381
  -1  -5 -25    5985     376
  -5  -1 -25    6687     387
  -1   5 -25    7255     436
   1  -5 -25    7271     431
  -5   1 -25    8112     440
   5  -1 -25    6987     426
  -3   5 -25    1859     172
   3  -5 -25    1821     142
   5  -3 -25     822     143
  -5   3 -25     863     169
  -5   5 -25    1846     173
   5  -5 -25    2058     142
   7   7 -25    5606     369
  -7  -7 -25    6121     375
   7   5 -25    3811     204
   5   7 -25    1981     196
  -5  -7 -25    2004     206
  -7  -5 -25    3993     214
   7   3 -25    2537     147
   3   7 -25    1727     161
  -3  -7 -25    1680     161
  -7  -3 -25    2335     177
   7   1 -25    7544     625
  -1  -7 -25   13719     629
  -7  -1 -25    6769     631
  -1   7 -25   14188     630
   1  -7 -25   13844     622
  -7   1 -25    6948     631
   7  -1 -25    7503     619
  -3   7 -25    1411     157
   3  -7 -25    1585     143
   7  -3 -25    2346     136
   5  -7 -25    2175     200
  -5  25  -7    4181     205
  -7   7 -25    5967     387
   9   9 -25     501     145
  -9  -9 -25     935     153
   9   7 -25    1520     175
   7   9 -25    1525     178
  -7  -9 -25    1365     179
  -9  -7 -25    1384     184
   9   5 -25     168     121
   5   9 -25     501     133
  -5  -9 -25     483     139
  -9  -5 -25     207     136
   9   3 -25     453     141
   3   9 -25    1793     176
  -9  -3 -25     447     182
  -3  -9 -25    1662     157
   9   1 -25     393     116
   1   9 -25     936     160
  -1  -9 -25    1020     112
  -9  -1 -25     234     140
   9  -1 -25     491     109
  -1   9 -25     932     162
   1  -9 -25    1135     125
  -3  25  -9     243     145
   3  -9 -25    1297     124
  -9   5 -25     565     157
  -5  25  -9     731     136
  -7   9 -25    1775     223
  -9   7 -25    2270     215
  -9   9 -25    1498     188
  11  11 -25     148     140
  11   9 -25    1219     146
   9  11 -25    1139     171
 -11  -9 -25    1069     180
  11   7 -25    3856     325
   7  11 -25    4999     338
 -11  -7 -25    3238     344
  11   5 -25     429     131
   5  11 -25     493     150
  -5 -11 -25     561     145
 -11  -5 -25     255     155
   3  11 -25    7516     411
  11   3 -25    5618     394
  -3 -11 -25    7829     402
   1  11 -25    1220     188
  -1 -11 -25    1286     167
   1 -11 -25    1205     153
 -11   1 -25    2044     193
  -1  25 -11    2281     170
  -3  25 -11    6329     400
 -11   3 -25    5373     410
 -11   5 -25     729     171
  -5  11 -25     797     172
  -5  25 -11     826     155
  -7  11 -25    5257     379
  -7  25 -11    4530     365
 -11   7 -25    4338     371
  25  -9 -11     409     145
 -11   9 -25     335     156
  -9  11 -25     452     161
  25 -11  -9     419     134
 -11  11 -25     110     142
  25 -11 -11      89     138
  13  13 -25     872     153
  13  11 -25    1688     262
  11  13 -25    6120     278
  13   9 -25      68     125
   9  13 -25     318     162
  13   7 -25     840     124
   7  13 -25     554     167
 -13  -7 -25     617     131
  13   5 -25    1374     134
   5  13 -25     785     160
   3  13 -25     923     175
   1  13 -25    2474     210
 -13  -1 -25    3414     205
   1  25 -13    3171     215
  -1  25 -13    4203     220
 -13   1 -25    3422     224
  -3  13 -25     768     171
  -3  25 -13    1373     147
 -13   3 -25    1232     178
  -5  25 -13    2223     162
  25 -13  -5    2217     150
 -13   5 -25    2016     189
 -13   7 -25    1063     168
  -7  13 -25     556     165
  -7  25 -13    1133     126
  25 -13  -7    1034     119
  25  -7 -13     447     145
 -13   9 -25     357     156
  -9  13 -25     717     157
  25 -13  -9     265     125
  25  -9 -13     567     144
  25 -13 -11    1370     226
  25 -11 -13    4182     220
 -13  11 -25    1490     238
 -11  13 -25    4630     237
 -13  13 -25     714     160
  25 -13 -13     832     139
  15  15 -25    2808     202
  25  13 -15     578     131
  15  13 -25      54     137
  13  15 -25     553     159
  15  11 -25     452     139
  11  15 -25    1055     171
  15   9 -25     200     123
   9  15 -25     522     157
  15   7 -25    2631     175
   7  15 -25    3596     218
   5  25 -15     379     187
   5  15 -25      35     165
   3  25 -15     473     186
   3  15 -25      92     172
 -15  -3 -25     571     166
 -15  -1 -25     849     210
   1  25 -15     994     216
  25  -1 -15    1990     192
  -1  15 -25    1827     203
  25 -15  -1     669     150
  -1  25 -15     893     195
 -15   1 -25     715     194
  25  -3 -15       5     151
  -3  15 -25      46     157
  -3  25 -15     199     140
 -15   3 -25     289     152
  25 -15  -3     303     116
  25 -15  -5     592     119
  -5  15 -25     153     165
  -5  25 -15     524     143
 -15   5 -25     623     158
  -7  15 -25    2119     177
  -7  25 -15    1140     142
  25 -15  -7    1267     130
  25  -7 -15    1420     159
 -15   7 -25    1057     156
  -9  15 -25     163     162
  -9  25 -15     258     125
  25 -15  -9      69     124
  25  -9 -15     528     149
 -15   9 -25      60     148
 -11  15 -25    1919     187
  25 -15 -11    1187     172
  25 -11 -15    1322     179
 -15  11 -25    1142     186
 -15  13 -25     237     146
 -13  15 -25    1326     159
  25 -15 -13     342     147
  25 -13 -15    1262     154
  25 -15 -15    2614     189
 -15  15 -25    2568     192
  17  25 -17     386     180
  17  17 -25     359     137
  15  25 -17    2029     209
  17  15 -25    2103     171
  15  17 -25    1931     181
  25  17 -15    1991     168
  17  13 -25    2088     199
  13  17 -25    3106     213
  13  25 -17    2534     249
  17  11 -25    1131     129
  11  17 -25     353     178
  25  11 -17     238     130
   9  25 -17     208     193
   9  17 -25       6     160
  25   9 -17      33     122
  25   7 -17     561     145
   7  17 -25     460     179
   7  25 -17    1133     211
  25   5 -17    4097     166
   5  17 -25    3987     200
   5  25 -17     959     203
  25   3 -17    2110     166
 -17  -3 -25     916     188
   3  25 -17     965     202
  25   1 -17     144     151
 -17  -1 -25     119     149
   1  25 -17     168     160
  -1  17 -25     143     173
 -17   1 -25      98     156
  -1  25 -17     283     169
  25  -1 -17     122     150
  -3  17 -25    3634     247
  25  -3 -17    3809     223
  -3  25 -17    2373     227
 -17   3 -25    2115     231
  25 -17  -5    1206     147
  25  -5 -17    3421     178
  -5  25 -17    1336     178
  -5  17 -25    4216     199
 -17   5 -25     914     182
  -7  25 -17     812     138
  25 -17  -7     882     120
 -17   7 -25     679     154
  -9  17 -25      77     153
  -9  25 -17     239     131
  25 -17  -9     219     115
  25  -9 -17     118     149
 -17   9 -25     206     150
 -11  17 -25     809     167
  25 -17 -11    1966     147
  25 -11 -17     811     168
 -17  11 -25    1773     164
  25 -17 -13    2475     199
  25 -13 -17    2755     212
 -17  13 -25    2292     203
 -13  17 -25    3096     206
 -15  17 -25    1129     141
 -17  15 -25    1390     140
 -17  17 -25     345     114
  19  19 -25     454     113
  19  25 -19     410     146
  19  17 -25     439     120
  17  19 -25     306     138
  25  19 -17     335     125
  17  25 -19     502     165
  19  25 -17     379     157
  25  19 -15     169     130
  19  15 -25     174     115
  15  19 -25     174     139
  15  25 -19     206     175
  13  19 -25     373     160
  13  25 -19     284     173
  11  19 -25    2207     232
   9  19 -25     514     173
  25   9 -19     384     124
   7  19 -25    1822     192
  25   7 -19    1969     140
   7  25 -19    1192     208
   5  19 -25     745     179
  25   5 -19    1164     134
   5  25 -19     856     194
  25   3 -19    3398     221
   3  25 -19    2527     241
   1  19 -25     368     174
 -19  -1 -25      25     152
  25   1 -19     384     146
   1  25 -19     226     183
 -19   1 -25      82     156
  -1  19 -25     288     182
  -1  25 -19      57     163
  25  -1 -19     163     150
  -3  19 -25    2901     224
  25  -3 -19    2975     200
  -3  25 -19    2243     204
 -19   3 -25    2100     193
  -5  19 -25     732     166
  -5  25 -19    1110     152
  25  -5 -19     820     154
 -19   5 -25     865     151
  25 -19  -7    1586     127
  -7  19 -25    2235     167
  -7  25 -19    1609     162
 -19   7 -25    1443     147
  -9  19 -25     475     154
  -9  25 -19      96     128
 -19   9 -25      95     130
  25 -11 -19    1762     203
 -19  11 -25    2734     196
 -11  19 -25    1865     197
 -13  19 -25     506     137
 -19  13 -25     524     129
 -19  15 -25     240     112
 -15  19 -25     651     114
  21  25 -21    1620     153
  21  25 -19     210     125
  19  21 -25      78     105
  19  25 -21      87     119
  17  21 -25      63     125
  17  25 -21     274     142
  25  21 -17     373     115
  21  25 -17      64     133
  21  25 -15    1149     176
  15  21 -25    1179     164
  25  21 -15    2635     162
  13  21 -25    1258     165
  13  25 -21    1518     186
  11  21 -25    2308     209
  11  25 -21    2203     220
  25   9 -21     520     115
   9  21 -25     229     166
  25   7 -21    3177     256
   7  21 -25    3137     286
   7  25 -21    6011     297
  25   5 -21      84     125
   5  25 -21      76     188
   3  25 -21    1152     179
   3  21 -25     274     178
  25   3 -21     694     137
  25   1 -21    4411     343
   1  21 -25    4231     362
   1  25 -21    7079     355
  25  -1 -21    2900     273
  -1  21 -25    3186     284
  -1  25 -21    5103     283
 -21   3 -25     627     152
  -3  21 -25     442     172
  25  -3 -21     241     145
  -3  25 -21     798     157
  -5  21 -25      22     153
  25  -5 -21      57     143
  -5  25 -21      20     154
 -21   5 -25      41     137
  -7  21 -25    4468     349
  25  -7 -21    4782     347
  -7  25 -21    7997     343
 -21   7 -25    7605     339
  -9  21 -25     847     155
  -9  25 -21    1135     136
 -21   9 -25    1058     136
 -21  11 -25    1243     146
 -11  21 -25    2061     155
 -13  21 -25    1023     129
  19  23 -25     156      86
  19  25 -23     148     102
  23  25 -19     176      97
  17  23 -25     180     117
  17  25 -23     742     121
  25  23 -17     888     111
  23  25 -17     104     118
  15  23 -25     347     131
  15  25 -23     590     134
  25  23 -15     644     120
  23  25 -15     253     132
  13  23 -25    1148     154
  13  25 -23     320     163
  11  23 -25    1961     159
  11  25 -23     655     173
   9  23 -25     507     178
  25   7 -23     315     115
  25   5 -23    1997     167
   5  25 -23    2240     212
  25   3 -23     420     126
   3  23 -25     571     177
   3  25 -23     711     167
  25   1 -23     276     134
   1  23 -25     390     163
   1  25 -23      74     168
  25  -1 -23     178     131
  -1  23 -25     204     156
  -1  25 -23     102     158
  25  -3 -23     302     134
  -3  23 -25     293     156
  25  -5 -23    1320     157
  -5  23 -25    1697     173
  -5  25 -23    1563     171
  -7  23 -25     692     157
  -7  25 -23    1096     140
  -9  23 -25     345     142
  -9  25 -23    1760     134
 -11  23 -25    1470     133
  17  25 -25    1458     119
  15  25 -25     154     115
  25  25 -15      57     109
  25  25 -13     179     127
  13  25 -25     295     127
  11  25 -25    1732     180
   9  25 -25      48     141
   5  25 -25     891     163
   3  25 -25    4869     296
   1  25 -25     326     155
  -1  25 -25     312     157
  -3  25 -25    5953     336
  -5  25 -25     476     132
  -7  25 -25     255     126
  -9  25 -25     196     108
   0   0 -26    2387     161
   2   2 -26    1863     177
  -2  -2 -26    1801     185
   0  -2 -26     136     126
  -2   0 -26     115     130
   2   0 -26     545     113
   0   2 -26     184     132
   2  -2 -26    2785     218
  -2   2 -26    2812     231
   4   4 -26    5276     402
  -4  -4 -26    5265     401
  -4  -2 -26     303     134
   4   2 -26     392     124
   2   4 -26     181     125
  -2  -4 -26     154     141
   0   4 -26    1128     171
   0  -4 -26     952     156
  -4   0 -26    1335     181
   4   0 -26    1710     156
   2  -4 -26     211     121
   4  -2 -26     373     112
  -4   2 -26     530     129
  -2   4 -26     130     141
   4  -4 -26    3560     288
  -4   4 -26    3458     304
   6   6 -26     568     134
  -6  -6 -26     427     146
   6   4 -26    1797     181
   4   6 -26    3881     190
  -4  -6 -26    3210     181
  -6  -4 -26    1436     191
   6   2 -26    1404     164
   2   6 -26    1855     182
  -2  -6 -26    1941     179
  -6  -2 -26    1631     188
  -6   0 -26     174     153
   6   0 -26     215     112
   0   6 -26     531     130
   0  -6 -26     495     124
  -2   6 -26    1355     172
  -6   2 -26    1147     182
   2  -6 -26    1209     148
   6  -2 -26    1412     147
  -4   6 -26    3117     185
   4  -6 -26    3107     157
   6  -4 -26    1426     154
  -6   4 -26    1251     182
  -4  26  -6    1592     159
   8   8 -26    1028     178
  -8  -8 -26    1012     194
   8   6 -26    1663     160
   6   8 -26    1060     169
  -6  -8 -26    1054     160
  -8  -6 -26    1658     172
   8   4 -26    1262     173
   4   8 -26    1702     196
  -4  -8 -26    1854     178
  -8  -4 -26    1181     204
   8   2 -26    4612     183
   2   8 -26    1753     217
  -2  -8 -26    1690     192
  -8  -2 -26    5047     220
   0   8 -26    2515     195
   0  -8 -26    2694     173
  -8   0 -26    2334     194
   8   0 -26    1893     166
  -2   8 -26    1394     191
   2  -8 -26    1295     155
   8  -2 -26    3615     153
   4  -8 -26     811     128
  -4  26  -8     722     150
  -8   6 -26    1480     172
  -8   8 -26      40     162
  10  10 -26    1016     159
  10   8 -26    2065     163
   8  10 -26    1073     180
  -8 -10 -26     993     185
 -10  -8 -26    1869     180
  10   6 -26    3058     212
   6  10 -26    3742     232
  -6 -10 -26    3438     232
 -10  -6 -26    2649     234
  10   4 -26    3317     173
   4  10 -26    2468     207
  -4 -10 -26    2547     192
 -10  -4 -26    3319     210
  10   2 -26     136     110
   2  10 -26     589     155
  -2 -10 -26     614     118
 -10  -2 -26      68     157
   0  10 -26     435     186
   0 -10 -26     436     143
  -2  26 -10      45     138
   2 -10 -26     226     113
  -4  26 -10    3739     207
 -10   4 -26    3980     232
  -6  10 -26    1938     193
  -6  26 -10    2041     167
 -10   6 -26    2188     204
  -8  10 -26     763     174
 -10   8 -26    1914     163
 -10  10 -26     424     159
  26 -10 -10     397     137
  12  12 -26     615     151
  12  10 -26     512     144
  10  12 -26     492     150
  12   8 -26    2352     162
   8  12 -26    1114     189
 -12  -8 -26    2526     182
  12   6 -26    1360     158
   6  12 -26    1530     187
 -12  -6 -26    1412     190
  12   4 -26    1238     161
   4  12 -26    2878     201
   2  12 -26    1027     177
   0  26 -12     410     143
   0  12 -26     698     167
 -12   0 -26     437     148
  -2  26 -12     630     155
 -12   2 -26     733     171
  -4  12 -26    2570     190
  -4  26 -12    1250     172
  -6  12 -26    1662     207
  26  -6 -12    2340     200
  -6  26 -12    1638     182
 -12   6 -26    1979     205
  26 -12  -6    1770     168
 -12   8 -26    1269     161
  -8  12 -26     562     172
  26 -12  -8    1175     142
  26  -8 -12     370     143
 -12  10 -26     307     148
 -10  12 -26     256     162
  26 -10 -12     309     144
  26 -12 -10      95     129
 -12  12 -26    1764     195
  26 -12 -12    1704     183
  14  14 -26    1839     165
  14  12 -26     554     137
  12  14 -26     860     157
  14  10 -26     499     142
  10  14 -26     606     164
  14   8 -26    2585     137
   8  14 -26    1519     170
  14   6 -26    3009     152
   6  14 -26     909     185
   4  14 -26    1364     221
   4  26 -14    2594     230
   2  14 -26     451     170
 -14  -2 -26     489     161
   2  26 -14     733     148
 -14   0 -26     350     180
   0  26 -14     529     173
  26 -14  -2     316     115
  -2  26 -14      84     141
 -14   2 -26     451     170
  -4  14 -26     568     181
  -4  26 -14     877     155
 -14   4 -26     784     171
  26 -14  -4     968     129
  -6  14 -26     683     190
  -6  26 -14    2182     159
  26 -14  -6    2773     143
 -14   6 -26    2908     180
  -8  14 -26    1386     168
  26 -14  -8    3033     146
  -8  26 -14    3200     145
  26  -8 -14    1769     176
 -14   8 -26    2367     168
 -14  10 -26     135     152
 -10  14 -26     465     157
  26 -14 -10     242     139
  26 -10 -14     319     148
 -14  12 -26     760     171
 -12  14 -26    1199     167
  26 -14 -12    1030     146
  26 -12 -14    1402     156
  26 -14 -14    2783     193
 -14  14 -26    2880     193
  16  26 -16     203     182
  16  16 -26     256     129
  14  26 -16     445     190
  16  14 -26     506     133
  14  16 -26     125     138
  16  12 -26     576     128
  12  16 -26     334     156
  26  12 -16     409     129
  26  10 -16     473     135
  10  26 -16     528     206
  16  10 -26     319     125
  10  16 -26     376     172
   8  26 -16    1119     201
  26   8 -16     389     147
   8  16 -26     365     176
   6  26 -16     255     194
  26   6 -16      65     152
   6  16 -26      44     175
  26   4 -16     563     160
   4  16 -26     552     177
 -16  -4 -26     103     162
   4  26 -16     302     188
  26   2 -16     657     159
   2  26 -16     306     177
  26   0 -16    1730     170
   0  26 -16    1782     193
 -16   0 -26    1276     195
  -2  16 -26     710     197
  26 -16  -2     317     117
 -16   2 -26     216     157
  -2  26 -16     518     167
  26  -2 -16     806     160
  -4  16 -26     662     183
  -4  26 -16     442     154
  26 -16  -4     492     125
 -16   4 -26     338     163
  26  -4 -16     806     159
  -6  16 -26      75     155
  -6  26 -16     164     139
  26 -16  -6     154     114
 -16   6 -26     153     150
  -8  16 -26     229     162
  -8  26 -16     783     131
  26 -16  -8     639     123
  26  -8 -16     157     148
 -16   8 -26     632     151
 -10  16 -26     909     171
  26 -16 -10     757     145
  26 -10 -16     884     167
 -16  10 -26     598     163
 -12  16 -26     448     154
  26 -16 -12     927     135
  26 -12 -16     654     153
 -16  12 -26     766     144
 -14  16 -26     169     133
  26 -16 -14     490     124
  26 -14 -16     239     132
 -16  14 -26     552     134
 -16  16 -26     278     123
  18  18 -26     623     118
  18  26 -18     487     152
  18  26 -16     326     167
  18  16 -26     628     123
  16  18 -26     267     128
  16  26 -18     655     162
  26  18 -14    1453     158
  18  14 -26    1498     153
  14  18 -26    1690     177
  14  26 -18    1519     209
  12  18 -26     412     162
  10  18 -26    1466     194
  26  10 -18    1306     154
   8  18 -26     596     166
  26   8 -18     555     135
   8  26 -18     412     205
   6  18 -26    1136     169
  26   6 -18    1157     154
   6  26 -18    1545     213
   4  18 -26    1072     184
   4  26 -18     751     186
  26   4 -18    1520     153
 -18  -2 -26      56     155
   2  26 -18      59     179
  26   2 -18      79     148
   0  18 -26     905     194
 -18   0 -26     513     184
   0  26 -18     750     194
  26   0 -18     867     177
  -2  18 -26      62     162
  -2  26 -18      13     164
 -18   2 -26      59     151
  26  -2 -18     322     153
 -18   4 -26     621     156
  -4  18 -26    1011     180
  -4  26 -18     619     162
  26  -4 -18    1007     153
  -6  18 -26     730     163
  26 -18  -6     684     115
  -6  26 -18     893     143
 -18   6 -26     729     147
  -8  18 -26     619     159
  26 -18  -8     730     123
  -8  26 -18     613     140
 -18   8 -26     606     144
  26 -18 -10    1872     152
  26 -10 -18    1161     172
 -18  10 -26    1713     172
 -10  18 -26    1571     187
 -12  18 -26     362     149
  26 -12 -18     454     155
 -18  12 -26     708     135
 -18  14 -26    1710     168
 -14  18 -26    1858     164
 -18  16 -26     550     105
 -16  18 -26     313     111
  20  26 -20     304     116
  18  20 -26      91     110
  18  26 -20     169     132
  20  26 -18     113     134
  16  20 -26    1012     133
  16  26 -20     839     155
  20  26 -16     626     159
  26  20 -14     199     126
  14  20 -26      15     128
  14  26 -20     153     160
  12  20 -26     185     150
  12  26 -20     694     175
  26  10 -20     442     124
  10  20 -26     598     170
   8  20 -26     391     173
  26   8 -20     246     125
   8  26 -20     483     177
  26   6 -20     997     132
   6  20 -26     549     164
   6  26 -20     276     189
  26   4 -20     806     144
   4  26 -20     681     192
  26   2 -20    1069     167
   2  20 -26     800     192
   2  26 -20    1211     197
   0  20 -26     134     184
   0  26 -20    1731     177
  26   0 -20     133     157
  -2  20 -26     725     184
  -2  26 -20    1218     164
  26  -2 -20     597     163
 -20   2 -26     840     158
  -4  20 -26     657     159
  -4  26 -20     671     159
  26  -4 -20     452     149
 -20   4 -26     375     149
  -6  20 -26    1544     162
  -6  26 -20     390     145
  26  -6 -20    1340     160
 -20   6 -26     281     136
  -8  20 -26     191     152
  -8  26 -20     550     126
 -20   8 -26     306     132
 -10  20 -26     347     147
  26 -10 -20     360     147
 -20  10 -26    1672     130
 -12  20 -26     252     127
 -20  12 -26     476     121
 -14  20 -26     183     113
  20  26 -22     475      93
  18  22 -26     246      98
  18  26 -22     447     112
  22  26 -18     226     117
  16  22 -26     149     115
  16  26 -22     266     128
  26  22 -16     200     100
  22  26 -16      96     131
  22  26 -14     285     141
  14  22 -26     247     127
  14  26 -22     548     145
  26  22 -14     404     124
  12  22 -26     718     142
  12  26 -22     328     156
  10  22 -26     875     163
  26   8 -22    1952     178
   8  22 -26    1974     216
   8  26 -22    2672     225
  26   6 -22     632     123
   6  26 -22     223     174
  26   4 -22     582     119
   4  26 -22     177     160
  26   2 -22     394     144
   2  22 -26     300     171
   2  26 -22     247     176
   0  22 -26     194     157
  26   0 -22       3     140
   0  26 -22      16     158
  -2  22 -26     132     162
  26  -2 -22     162     144
  -2  26 -22      42     159
  -4  22 -26     559     145
  26  -4 -22     558     148
  -4  26 -22     136     140
  -6  22 -26    1056     155
  26  -6 -22     933     136
  -6  26 -22     496     140
  -8  26 -22    2926     188
  -8  22 -26    1630     189
 -10  22 -26     809     131
 -12  22 -26     903     116
  18  26 -24     203      86
  16  24 -26     354     103
  16  26 -24     341     108
  24  26 -16     165     101
  14  24 -26     457     124
  14  26 -24     237     126
  26  24 -14     234     115
  24  26 -14     152     122
  12  24 -26     302     129
  12  26 -24     187     129
  10  24 -26      64     136
  10  26 -24      33     143
   8  24 -26     992     158
   6  26 -24     438     151
   4  24 -26     465     155
   4  26 -24     363     144
  26   2 -24     752     133
   2  24 -26     512     166
   2  26 -24     962     151
  26   0 -24     194     120
   0  24 -26       3     146
   0  26 -24     180     141
  -2  24 -26     706     157
  -2  26 -24    1021     143
  -4  24 -26     713     130
  -4  26 -24     260     134
  -6  24 -26     108     123
  -6  26 -24     344     120
  -8  24 -26     214     116
  -8  26 -24      65     110
 -10  24 -26      43     108
  14  26 -26      99      96
  26  26 -12    1536     126
  12  26 -26    1551     135
  10  26 -26     156     122
   6  26 -26     279     129
   4  26 -26     433     140
   2  26 -26    1102     148
   0  26 -26     172     129
  -2  26 -26    1038     126
  -4  26 -26     196     119
  -6  26 -26     442     111
  -8  26 -26     367      95
  -1  -1 -27    1835     160
   1   1 -27    2054     155
   1  -1 -27    1268     140
  -1   1 -27    1642     144
   3   3 -27      26     124
  -3  -3 -27      14     148
  -3  -1 -27    1083     166
   3   1 -27    1354     146
   1   3 -27    1364     145
  -1  -3 -27    1606     150
   1  -3 -27    1029     123
   3  -1 -27     713     109
  -3   1 -27     965     150
  -1   3 -27     991     139
   3  -3 -27      28     124
  -3   3 -27      18     137
   5   5 -27      29     125
  -5  -5 -27      52     139
   5   3 -27    1314     138
   3   5 -27     297     149
  -3  -5 -27     479     155
  -5  -3 -27    1135     159
   1   5 -27    2521     170
   5   1 -27    1246     148
  -1  -5 -27    2710     160
  -5  -1 -27    1013     174
  -5   1 -27     653     162
   5  -1 -27     574     121
  -1   5 -27    1265     155
   1  -5 -27    1259     119
  -5   3 -27    1639     167
  -3   5 -27     551     171
   3  -5 -27     624     150
   5  -3 -27    1868     149
  -5   5 -27      38     157
   5  -5 -27      83     109
   7   7 -27    4200     224
  -7  -7 -27    3264     219
   7   5 -27     139     133
   5   7 -27     199     136
  -5  -7 -27     223     152
  -7  -5 -27     229     159
   7   3 -27    1459     202
   3   7 -27    2180     218
  -3  -7 -27    2124     210
  -7  -3 -27    1301     228
   1   7 -27    1439     174
  -1  -7 -27    1638     160
   7   1 -27    1660     153
  -7  -1 -27    1593     185
  -1   7 -27    2125     199
   1  -7 -27    2280     184
  -7   1 -27    2480     209
   7  -1 -27    2569     179
  -3   7 -27    2164     218
   3  -7 -27    2261     191
  -3  27  -7    1371     199
   7  -3 -27    1200     185
  -7   3 -27    1049     217
   9   9 -27    3815     278
  -9  -9 -27    3940     285
  -9  -7 -27     341     144
   9   7 -27     491     135
   7   9 -27     535     139
  -7  -9 -27     476     152
  -9  -5 -27    1695     170
   9   5 -27    1509     129
   5   9 -27     719     164
  -5  -9 -27     493     147
   9   3 -27      76     116
   3   9 -27     475     161
  -3  -9 -27     457     130
  -9  -3 -27      45     157
   9   1 -27     127     112
   1   9 -27     596     142
  -1  -9 -27     623     121
  -1   9 -27     666     162
   1  -9 -27     535     121
  -3   9 -27     228     159
   3  -9 -27     266     108
  -3  27  -9      28     134
  -9   5 -27     825     170
  -5  27  -9    1261     130
  -9   7 -27     249     157
  -7   9 -27     596     156
  27  -9  -9    2644     206
  -9   9 -27    2031     216
  11  11 -27    1602     145
  11   9 -27     871     138
   9  11 -27     567     153
  11   7 -27     938     135
   7  11 -27    1233     159
 -11  -7 -27     818     172
  11   5 -27     149     120
   5  11 -27     879     163
 -11  -5 -27      80     168
  11   3 -27     514     118
   3  11 -27     832     179
 -11  -3 -27     190     162
   1  27 -11    1282     154
   1  11 -27     919     172
  -1  11 -27     999     185
  -1  27 -11    2105     177
  -3  27 -11     722     152
 -11   3 -27     720     159
 -11   5 -27      87     152
  -5  11 -27     764     172
  -5  27 -11     123     133
 -11   7 -27     641     174
  27 -11  -7     784     137
  27  -7 -11     953     165
  -7  11 -27    1340     169
 -11   9 -27    1227     188
  -9  11 -27    1016     180
  27 -11  -9    1417     162
  27  -9 -11    1107     174
 -11  11 -27    1334     176
  27 -11 -11    1801     157
  13  13 -27     135     141
  13  11 -27     153     129
  11  13 -27     191     154
  13   9 -27     837     140
   9  13 -27     704     173
  13   7 -27     394     120
   7  13 -27      63     163
 -13  -7 -27     432     169
  13   5 -27    3699     176
   5  13 -27    1923     219
   3  27 -13      23     175
   3  13 -27     142     174
   1  13 -27     905     175
   1  27 -13     224     169
 -13   1 -27     128     164
  -1  27 -13     260     160
  27 -13  -3      34     119
  -3  27 -13      67     146
 -13   3 -27      41     160
  -5  13 -27    2618     229
  -5  27 -13    4003     207
  27 -13  -5    4090     199
 -13   5 -27    3689     224
  -7  13 -27      53     158
  -7  27 -13     536     120
  27 -13  -7     328     118
  27  -7 -13     162     154
 -13   7 -27     136     162
 -13   9 -27     843     165
  -9  13 -27     572     178
  27 -13  -9     733     136
  27  -9 -13     592     164
 -13  11 -27      36     158
 -11  13 -27     268     156
  27 -13 -11      39     133
  27 -11 -13     148     143
 -13  13 -27     252     135
  27 -13 -13     180     133
  15  15 -27     193     130
  27  13 -15     785     123
  15  13 -27     299     128
  13  15 -27     798     154
  27  11 -15     521     140
  15  11 -27    1364     136
  11  15 -27     438     154
   9  27 -15     447     201
  15   9 -27     861     119
   9  15 -27      70     172
   7  27 -15     130     177
   7  15 -27     489     169
   5  27 -15     176     190
   5  15 -27     383     175
   3  15 -27      90     176
 -15  -3 -27     357     169
   3  27 -15     320     177
  27   1 -15     111     164
 -15  -1 -27     225     170
   1  27 -15     372     159
  27  -1 -15     336     161
 -15   1 -27     602     168
  -1  27 -15     743     165
  27 -15  -1     925     114
  -3  15 -27     229     153
  -3  27 -15     242     147
  27 -15  -3     271     116
 -15   3 -27     321     161
  27  -3 -15     178     144
  -5  15 -27     210     168
  -5  27 -15     167     147
  27 -15  -5     169     122
 -15   5 -27     136     158
  -7  15 -27     495     168
  -7  27 -15     134     132
  27 -15  -7     221     122
  27  -7 -15     523     148
 -15   7 -27     120     162
  -9  15 -27      97     156
  27 -15  -9     910     126
  27  -9 -15      51     149
 -15   9 -27     935     152
 -11  15 -27     467     153
  27 -15 -11    1110     137
  27 -11 -15     392     154
 -15  11 -27     972     153
 -13  15 -27    1224     157
  27 -15 -13     974     150
  27 -13 -15    1519     156
 -15  13 -27     852     145
  27 -15 -15     135     128
 -15  15 -27      97     123
  17  17 -27     460     123
  17  27 -17     230     170
  17  27 -15     299     171
  17  15 -27     276     117
  15  17 -27     317     130
  15  27 -17     289     177
  17  13 -27      69     114
  13  17 -27      57     140
  11  17 -27     734     150
  27  11 -17     618     122
   9  17 -27      23     162
  27   9 -17     245     122
   9  27 -17     282     195
   7  17 -27     195     160
  27   7 -17     244     136
   7  27 -17     270     189
   5  17 -27     622     176
   5  27 -17     521     190
  27   5 -17     796     154
   3  17 -27     549     174
 -17  -3 -27     184     174
   3  27 -17     282     174
  27   3 -17     235     131
 -17  -1 -27     648     169
   1  27 -17    1063     179
  27   1 -17     875     152
  -1  17 -27    1313     141
 -17   1 -27     844     158
  -1  27 -17     818     160
  27  -1 -17     882     158
  -3  17 -27     461     176
  -3  27 -17     453     147
 -17   3 -27     296     162
  27  -3 -17     343     154
  -5  17 -27     635     176
  -5  27 -17     832     151
  27 -17  -5     614     116
 -17   5 -27     482     168
  -7  17 -27      31     147
  -7  27 -17     114     128
  27 -17  -7     123     113
 -17   7 -27     129     140
  -9  17 -27      25     145
  27 -17  -9     142     115
  27  -9 -17     174     149
 -17   9 -27     276     144
 -11  17 -27     920     147
  27 -17 -11     530     126
  27 -11 -17    1205     142
 -17  11 -27     335     146
 -13  17 -27      30     124
  27 -13 -17      17     128
 -17  13 -27     128     126
 -17  15 -27     588     125
 -15  17 -27     456     130
 -17  17 -27     228     102
  19  27 -19     167     127
  17  19 -27     642     117
  17  27 -19     138     141
  19  27 -17     625     142
  19  27 -15     350     164
  15  19 -27     199     124
  15  27 -19     184     157
  27  19 -13     722     123
  13  19 -27      96     145
  13  27 -19     623     166
  11  19 -27    1586     161
   9  19 -27      89     157
  27   9 -19     185     120
   9  27 -19      84     188
   7  19 -27    2222     179
  27   7 -19    1974     133
   7  27 -19    1016     191
   5  19 -27     498     166
  27   5 -19     330     126
   5  27 -19     711     170
  27   3 -19    1012     147
   3  27 -19    1336     183
   1  19 -27     309     187
   1  27 -19    2385     188
  27   1 -19     455     170
  -1  19 -27     216     185
  -1  27 -19    2193     178
 -19   1 -27    1996     172
  27  -1 -19     313     168
  -3  19 -27    1253     169
  -3  27 -19    1018     146
  27  -3 -19    1028     158
 -19   3 -27    1199     153
  -5  19 -27     740     170
  -5  27 -19    1033     146
  27  -5 -19     460     157
 -19   5 -27    1043     149
  -7  19 -27    1374     153
  -7  27 -19     645     136
 -19   7 -27     655     142
  -9  19 -27     530     138
  27  -9 -19     325     139
 -19   9 -27     224     133
 -11  19 -27    1415     144
  27 -11 -19    1323     144
 -19  11 -27     325     139
 -13  19 -27     209     134
 -19  13 -27     871     119
 -19  15 -27     384      98
 -15  19 -27     260     108
  19  27 -21      47      98
  21  27 -19       9     106
  17  21 -27     331     103
  17  27 -21     229     125
  21  27 -17      85     122
  15  21 -27       7     117
  15  27 -21     540     146
  21  27 -15      81     133
  27  21 -13     278     113
  13  21 -27      98     136
  13  27 -21     136     142
  11  21 -27      34     140
  27   9 -21      40     105
   9  21 -27      99     159
   9  27 -21     289     158
   7  27 -21     754     183
  27   7 -21     717     132
   7  21 -27     678     182
  27   5 -21     375     123
   5  27 -21     209     166
  27   3 -21     259     118
   3  27 -21     577     159
   1  21 -27     961     173
  27   1 -21    1139     155
   1  27 -21    1214     175
  -1  21 -27    1289     186
  27  -1 -21     992     154
  -1  27 -21    1278     167
  -3  21 -27     140     151
  27  -3 -21      47     135
  -3  27 -21     245     136
  -5  21 -27     191     146
  27  -5 -21     227     142
  -5  27 -21      82     132
 -21   5 -27     263     128
  -7  21 -27     939     156
  -7  27 -21     984     140
  27  -7 -21     829     147
 -21   7 -27     805     137
  -9  21 -27     120     126
 -21   9 -27     314     119
 -11  21 -27     299     121
 -21  11 -27      31     103
 -13  21 -27      64     104
  17  23 -27      27      82
  17  27 -23      18     100
  23  27 -17      28      99
  15  23 -27     115     105
  15  27 -23      87     122
  23  27 -15     157     113
  23  27 -13     280     130
  13  23 -27     270     120
  13  27 -23     115     129
  27  23 -13     180     108
  11  23 -27     868     130
   9  23 -27      43     141
  27   7 -23     289     104
   7  23 -27     160     143
   7  27 -23      42     155
  27   5 -23     809     114
   5  27 -23     326     153
  27   3 -23     645     122
   3  23 -27     620     154
   3  27 -23     363     149
  27   1 -23     970     129
   1  23 -27    1162     158
   1  27 -23     934     151
  27  -1 -23     788     132
  -1  23 -27     923     144
  -1  27 -23     834     150
  27  -3 -23     535     125
  -3  23 -27     487     134
  -3  27 -23     283     129
  -5  23 -27     631     135
  -5  27 -23     200     121
  -7  23 -27     460     133
  -7  27 -23     222     119
  -9  23 -27      40     116
 -11  23 -27     547     106
  15  25 -27     162      92
  15  27 -25     174      90
  13  25 -27     446      99
  13  27 -25     594     106
  25  27 -13     522     110
  27  25 -11     186     106
  11  25 -27     151     112
  11  27 -25     226     117
   9  25 -27     245     125
   7  27 -25     398     142
   5  25 -27     140     137
   5  27 -25     560     142
   3  25 -27     139     134
   3  27 -25     171     133
   1  25 -27     175     140
   1  27 -25     635     126
  -1  25 -27     490     133
  -1  27 -25     763     127
  -3  25 -27      56     123
  -3  27 -25     122     117
  -5  25 -27     338     118
  -5  27 -25     459     114
  -7  25 -27     361     109
  -7  27 -25     299     104
  -9  25 -27     159      95
  11  27 -27     101      92
   5  27 -27      37     115
   3  27 -27     140     115
   1  27 -27     249     110
  -1  27 -27      10     108
  -3  27 -27      12     106
  -5  27 -27      45      96
  -7  27 -27      72      85
   0   0 -28   28874    1419
   2   2 -28      71     141
  -2  -2 -28      13     135
   0  -2 -28    1204     167
   2   0 -28    1152     160
   0   2 -28    1593     173
  -2   0 -28    1144     174
   2  -2 -28     442     138
  -2   2 -28     560     145
   4   4 -28    8082     391
  -4  -4 -28    6805     392
   4   2 -28    1701     139
   2   4 -28     714     148
  -2  -4 -28     579     141
  -4  -2 -28    1745     157
  -4   0 -28     100     144
   4   0 -28       1     124
   0   4 -28       5     144
   0  -4 -28       0     123
   4  -2 -28    1153     128
  -4   2 -28     952     143
  -2   4 -28     262     146
   2  -4 -28     371     129
   4  -4 -28   11619     589
  -4   4 -28   11743     601
   6   6 -28    1235     161
  -6  -6 -28     886     176
   6   4 -28    3376     198
   4   6 -28    1566     200
  -4  -6 -28    1447     209
  -6  -4 -28    3357     215
   6   2 -28     835     137
   2   6 -28     329     162
  -2  -6 -28     309     139
  -6  -2 -28     670     157
   0   6 -28    1198     185
   0  -6 -28    1323     186
  -6   0 -28    3069     205
   6   0 -28    2923     180
   6  -2 -28     977     135
  -6   2 -28    1091     177
  -2   6 -28     444     162
   2  -6 -28     478     137
   4  -6 -28    2128     221
   6  -4 -28    4297     220
  -6   4 -28    3951     251
  -4   6 -28    2001     253
   8   8 -28    1086     158
  -8  -8 -28    1047     161
   8   6 -28    2862     190
   6   8 -28    2453     208
  -6  -8 -28    2139     204
  -8  -6 -28    2699     215
   8   4 -28     180     126
   4   8 -28     485     156
  -4  -8 -28     325     121
  -8  -4 -28     107     156
   8   2 -28    2555     150
   2   8 -28     646     173
  -2  -8 -28     639     155
  -8  -2 -28    2661     176
   0   8 -28    3524     227
   0  -8 -28    3194     203
   8   0 -28    3191     199
  -8   2 -28    2011     164
  -2  28  -8    1807     143
  -2   8 -28     185     175
   2  -8 -28     252     125
  -4   8 -28     554     150
  -4  28  -8    1067     139
  -8   8 -28     257     173
  10  10 -28      49     135
  10   8 -28    1371     153
   8  10 -28    1120     165
 -10  -8 -28    1239     189
  10   6 -28    1365     142
   6  10 -28    1254     168
 -10  -6 -28    1045     169
  10   4 -28     452     123
   4  10 -28    1257     164
 -10  -4 -28     262     146
  -4 -10 -28    1219     134
  10   2 -28     187     120
   2  10 -28     375     166
  -2 -10 -28     480     131
 -10  -2 -28     165     168
   0  10 -28    1377     199
   0 -10 -28    1733     164
   0  28 -10    2146     184
   2 -10 -28     811     137
  -2  28 -10     576     156
 -10   4 -28     110     166
  -4  28 -10     405     137
 -10   6 -28     599     175
  -6  10 -28     847     173
  28 -10  -8    2445     220
  28  -8 -10    2600     222
 -10   8 -28    2539     245
  -8  10 -28    2281     236
 -10  10 -28     266     171
  28 -10 -10     349     150
  12  12 -28    2807     157
  12  10 -28     226     128
  10  12 -28     151     144
  12   8 -28     515     128
   8  12 -28     219     136
  12   6 -28     271     126
   6  12 -28     468     168
 -12  -6 -28     202     175
   4  12 -28    1919     196
 -12  -4 -28    1959     187
  12   4 -28    2379     143
   2  28 -12     976     170
   2  12 -28     674     179
   0  12 -28    1285     191
   0  28 -12    1358     181
  -2  28 -12    1146     164
 -12   2 -28     705     140
  -4  28 -12    2929     174
  28 -12  -4    2914     172
 -12   4 -28    2237     198
  28  -6 -12    1013     171
  -6  12 -28    1076     179
 -12   6 -28     475     176
  28 -12  -6     531     133
 -12   8 -28     227     153
  -8  12 -28     103     164
  28 -12  -8     216     126
  28  -8 -12     141     155
 -12  10 -28     229     158
 -10  12 -28     169     155
  28 -12 -10     238     137
  28 -10 -12     155     144
 -12  12 -28    2774     174
  28 -12 -12    2770     153
  14  14 -28     367     128
  14  12 -28    1629     149
  12  14 -28     725     148
  14  10 -28    1763     203
  10  14 -28    2594     219
  14   8 -28     736     118
   8  14 -28     696     162
   6  14 -28     431     181
 -14  -6 -28    2008     184
   4  14 -28     911     178
   4  28 -14    1455     195
   2  14 -28     964     186
   2  28 -14    1148     191
  28 -14   0    1778     140
 -14   0 -28    1753     189
   0  28 -14    1507     179
  28  -2 -14     952     173
  -2  28 -14     883     168
 -14   2 -28     547     172
  28 -14  -2    1012     129
  -4  14 -28     608     180
  -4  28 -14     791     149
 -14   4 -28     612     180
  28 -14  -4     795     130
  -6  14 -28     479     196
  28 -14  -6    2967     152
  -6  28 -14    2605     159
  28  -6 -14     721     181
 -14   6 -28    2240     191
  -8  14 -28     992     167
  28 -14  -8    1010     127
  28  -8 -14     664     151
 -14   8 -28     872     152
  28 -14 -10    1213     164
  28 -10 -14    1659     183
 -10  14 -28    1693     196
 -14  10 -28    1061     192
 -12  14 -28    1136     184
  28 -14 -12    1795     161
  28 -12 -14    1537     172
 -14  12 -28    1804     175
  28 -14 -14     280     122
 -14  14 -28     292     125
  16  16 -28     359     118
  16  28 -16     154     161
  16  14 -28      91     120
  14  16 -28     179     124
  12  28 -16      51     176
  16  12 -28     458     113
  12  16 -28     152     148
  28  12 -16     113     120
  10  16 -28     430     158
  28  10 -16     593     144
  10  28 -16    1010     185
  28   8 -16     530     141
   8  16 -28     578     165
   8  28 -16    1394     194
  28   6 -16    1859     160
   6  16 -28    2357     194
   6  28 -16     524     198
  28   4 -16    1063     147
   4  16 -28     980     173
 -16  -4 -28     447     170
   4  28 -16     195     178
   2  16 -28     128     178
 -16  -2 -28     472     149
   2  28 -16     722     166
  28   2 -16     122     149
 -16   0 -28      62     155
   0  28 -16     394     151
  28   0 -16     351     149
  -2  16 -28     294     173
  -2  28 -16     853     157
 -16   2 -28     895     169
  28  -2 -16     222     157
  -4  16 -28     970     179
  -4  28 -16     484     153
  28 -16  -4     415     115
 -16   4 -28     405     159
  28  -4 -16     715     160
  -6  16 -28    1499     168
  -6  28 -16     263     140
  28 -16  -6     412     124
 -16   6 -28     357     169
  -8  16 -28     166     149
  28 -16  -8     575     117
  28  -8 -16     304     137
 -16   8 -28     497     150
 -10  16 -28     323     149
  28 -16 -10     768     126
  28 -10 -16     297     140
 -16  10 -28     778     153
 -12  16 -28     126     146
  28 -16 -12     702     115
  28 -12 -16     107     144
 -16  12 -28     731     121
  28 -14 -16      54     125
 -16  14 -28      51     117
 -14  16 -28      75     126
 -16  16 -28     215     107
  18  28 -18     795     148
  16  18 -28     110     111
  16  28 -18     233     152
  18  28 -16     325     150
  14  18 -28     700     127
  14  28 -18     660     167
  12  18 -28      64     142
  10  18 -28     415     150
  28  10 -18     487     119
  10  28 -18     347     172
   8  18 -28    1650     198
  28   8 -18    1602     164
   8  28 -18    1866     217
   6  18 -28     175     163
  28   6 -18     331     140
   6  28 -18     485     161
   4  18 -28    1845     210
  28   4 -18    1685     177
   4  28 -18    1436     207
  28   2 -18    1406     170
   2  28 -18    2277     196
 -18   0 -28     374     158
   0  28 -18     269     154
  28   0 -18      62     142
  -2  18 -28    1839     213
  28  -2 -18    2132     199
  -2  28 -18    2779     196
 -18   2 -28    2833     205
  28  -4 -18    1188     172
  -4  18 -28    1218     186
  -4  28 -18    1221     165
 -18   4 -28    1218     178
  -6  18 -28     397     152
  -6  28 -18     475     129
 -18   6 -28     526     146
  28 -18  -8    1503     136
  -8  18 -28    1358     172
  28  -8 -18     876     167
 -18   8 -28    1624     161
 -10  18 -28     287     133
  28 -10 -18     373     136
 -18  10 -28     199     130
 -12  18 -28      87     134
  28 -12 -18      90     124
 -18  12 -28    1380     125
 -18  14 -28    1188     134
 -14  18 -28    1205     138
 -18  16 -28     127      94
 -16  18 -28     241      96
  20  28 -20     429      95
  18  28 -20     705     119
  20  28 -18     259     117
  16  20 -28     160     106
  16  28 -20     343     128
  20  28 -16      90     130
  20  28 -14     462     147
  14  20 -28     451     119
  14  28 -20      22     156
  12  20 -28     141     127
  10  20 -28     661     144
  10  28 -20     198     172
   8  20 -28     783     164
  28   8 -20     817     130
   8  28 -20     901     178
   6  20 -28     368     162
  28   6 -20     479     132
   6  28 -20     420     182
  28   4 -20     240     136
   4  28 -20     240     168
  28   2 -20     953     130
   2  28 -20     265     155
   0  20 -28    2772     220
  28   0 -20    2763     196
   0  28 -20    1010     207
  -2  20 -28     701     160
  -2  28 -20     390     151
  28  -2 -20     898     139
  -4  20 -28     109     153
  -4  28 -20      54     134
  28  -4 -20     122     133
 -20   4 -28      42     128
  -6  20 -28     599     150
  -6  28 -20     683     140
  28  -6 -20     685     143
 -20   6 -28     463     135
  -8  20 -28     715     148
 -20   8 -28     945     138
 -10  20 -28     188     123
  28 -10 -20     405     122
 -20  10 -28      82     117
 -12  20 -28     156     120
 -20  12 -28     170     107
 -14  20 -28     443     100
  18  28 -22     257      91
  16  22 -28      60      88
  16  28 -22     114     104
  22  28 -16      19     110
  14  22 -28     364     113
  14  28 -22     231     121
  22  28 -14     427     125
  12  22 -28     470     123
  10  22 -28     883     138
   8  22 -28     586     144
   8  28 -22     231     159
  28   6 -22     616     114
   6  22 -28     530     155
   6  28 -22     592     150
  28   4 -22     867     125
   4  28 -22     474     151
   2  22 -28     166     143
  28   2 -22     146     124
   2  28 -22     350     153
  28   0 -22    3486     189
   0  22 -28    3693     206
   0  28 -22    1432     199
  -2  22 -28     134     151
  28  -2 -22      69     127
  -2  28 -22     178     134
  -4  22 -28     600     143
  28  -4 -22     864     139
  -4  28 -22     396     131
  -6  22 -28     418     131
  28  -6 -22     439     128
  -6  28 -22     516     115
  -8  22 -28     692     126
 -10  22 -28     881     123
 -12  22 -28     170      98
  14  24 -28     422      99
  14  28 -24     264      99
  24  28 -14     244     106
  24  28 -12     306     126
  12  24 -28     392     115
  12  28 -24     937     124
  10  24 -28     588     122
   8  24 -28      23     126
   8  28 -24     129     136
   6  28 -24     158     133
   4  24 -28    2395     180
   4  28 -24    1583     173
   2  24 -28     148     130
   2  28 -24     230     130
   0  24 -28      78     129
   0  28 -24     514     127
  -2  24 -28     426     126
  -2  28 -24     243     129
  -4  24 -28    2139     158
  -4  28 -24    1602     151
  -6  24 -28     213     112
  -6  28 -24     315     107
  -8  24 -28      22     105
 -10  24 -28     467      94
  12  26 -28     141      84
  12  28 -26      61      91
  26  28 -10     140     100
  10  26 -28     332      99
   8  28 -26     370     110
   6  28 -26       9     118
   4  26 -28     172     116
   4  28 -26     634     116
   2  26 -28     174     116
   2  28 -26     138     113
   0  26 -28     245     115
   0  28 -26      98     111
  -2  26 -28     211     107
  -2  28 -26     147     103
  -4  26 -28     135     104
  -4  28 -26     533      99
  -6  26 -28     306      91
  -6  28 -26      54      88
  -8  26 -28     517      84
   6  28 -28     220      88
   4  28 -28     111      90
   2  28 -28     108      87
   0  28 -28    1200     111
  -2  28 -28     173      84
  -1  -1 -29    1585     152
   1   1 -29    1532     151
   1  -1 -29    1130     138
  -1   1 -29    1288     139
   3   3 -29     766     162
  -3  -3 -29     898     169
   3   1 -29    1565     160
   1   3 -29    1392     168
  -1  -3 -29    1244     153
  -3  -1 -29    1897     172
   1  -3 -29    2926     203
   3  -1 -29    3179     201
  -3   1 -29    3176     212
  -1   3 -29    2409     213
  -3   3 -29     461     178
   3  -3 -29     682     140
   5   5 -29    5116     295
  -5  -5 -29    4859     298
   5   3 -29     672     132
   3   5 -29     144     147
  -3  -5 -29     132     147
  -5  -3 -29     669     159
  -1  -5 -29    2354     184
  -5  -1 -29    1877     209
   5   1 -29    1527     188
   1   5 -29    2503     203
   1  -5 -29    2906     188
  -5   1 -29    1749     212
   5  -1 -29    1513     184
  -1   5 -29    2505     206
  -5   3 -29     781     144
  -3   5 -29     123     155
   3  -5 -29     273     129
   5  -3 -29    1181     124
   5  -5 -29    3255     203
  -5   5 -29    3194     237
   7   7 -29   10332     585
  -7  -7 -29    9253     587
   7   5 -29     807     126
   5   7 -29     268     140
  -5  -7 -29     295     146
  -7  -5 -29     751     140
   3   7 -29    2324     210
  -3  -7 -29    2254     195
  -7  -3 -29    2116     217
   7   3 -29    2443     183
   1   7 -29     940     171
  -1  -7 -29    1521     155
  -7  -1 -29    2028     190
   7   1 -29    1859     155
   7  -1 -29    1205     127
  -1   7 -29     686     167
   1  -7 -29     778     129
  -7   1 -29     675     171
   3  -7 -29    2031     169
  -3  29  -7    2476     177
  -3   7 -29    2243     208
  -5   7 -29     506     171
   9   9 -29     734     134
   9   7 -29     231     132
   7   9 -29     847     139
  -7  -9 -29     988     159
  -9  -7 -29     164     146
   9   5 -29    1092     144
   5   9 -29    1203     161
  -5  -9 -29    1701     151
  -9  -5 -29     976     177
   9   3 -29     674     116
   3   9 -29     126     157
  -3  -9 -29      18     132
  -9  -3 -29     651     163
   1   9 -29    2530     233
  -1  -9 -29    2383     205
  -9  -1 -29    3073     231
   9   1 -29    3154     199
  -1   9 -29    2722     247
   1  -9 -29    2924     220
  -1  29  -9    3644     236
  -9   1 -29    3010     251
  -3   9 -29     466     179
  -3  29  -9    1375     139
  -9   7 -29     353     174
  -7   9 -29     683     160
  29  -9  -9    1663     151
  -9   9 -29    1414     159
  11  11 -29    6165     365
  11   9 -29     748     131
   9  11 -29    1004     148
  11   7 -29    2248     160
   7  11 -29    1664     184
 -11  -7 -29    2478     201
 -11  -5 -29     651     163
  11   5 -29     797     117
   5  11 -29      79     161
   3  29 -11    4325     299
   3  11 -29    2478     303
 -11  -3 -29    4436     305
   1  11 -29    1544     192
   1  29 -11    1145     190
  -1  11 -29     476     174
  -1  29 -11     482     157
  -3  29 -11    3840     264
  29 -11  -5     478     137
 -11   5 -29     540     158
 -11   7 -29    2211     187
  29  -7 -11     996     162
  -7  11 -29    1052     182
  29 -11  -7    1964     157
 -11   9 -29     534     170
  -9  11 -29     704     171
  29 -11  -9     649     137
  29  -9 -11    1002     157
  29 -11 -11    5691     352
 -11  11 -29    6062     361
  13  13 -29       7     124
  13  11 -29       6     116
  11  13 -29      13     137
  13   9 -29     508     125
   9  13 -29     551     150
   7  29 -13     523     189
  13   7 -29     710     136
   7  13 -29    1291     181
   5  29 -13     543     182
   5  13 -29     496     164
 -13  -5 -29     588     168
   3  13 -29     729     171
   3  29 -13     261     175
   1  13 -29     382     161
   1  29 -13    1090     166
  29 -13  -1    1468     130
  -1  13 -29     224     171
 -13   1 -29    1512     177
  -1  29 -13    1526     155
  -3  29 -13     274     145
 -13   3 -29     181     169
  29 -13  -3     264     124
  -5  13 -29     528     172
  -5  29 -13     346     126
 -13   5 -29     136     165
  29 -13  -5     316     125
  29  -5 -13     477     155
  -7  13 -29    1417     177
  29 -13  -7     690     149
  29  -7 -13    1327     168
 -13   7 -29     791     182
  -9  13 -29     525     172
  29 -13  -9     566     129
  29  -9 -13     466     135
 -13   9 -29     422     158
 -11  13 -29      12     157
  29 -13 -11       0     127
  29 -11 -13      12     132
 -13  11 -29     180     146
  29 -13 -13      83     117
 -13  13 -29      65     138
  15  15 -29    1282     135
  13  29 -15    1256     200
  15  13 -29    1438     141
  13  15 -29    1190     152
  29  13 -15    1518     139
  11  29 -15     498     196
  15  11 -29     209     109
  11  15 -29     281     141
  29  11 -15     456     127
   9  29 -15     535     187
  29   9 -15     708     139
   9  15 -29     651     147
  29   7 -15     624     153
   7  15 -29     793     169
   7  29 -15    1050     200
  29   5 -15      96     152
   5  15 -29     230     167
   5  29 -15     673     192
  29   3 -15     625     162
   3  15 -29     838     166
   3  29 -15     983     161
  29   1 -15     486     156
   1  15 -29     810     171
 -15  -1 -29     458     159
   1  29 -15     341     166
 -15   1 -29     405     156
  -1  29 -15     263     146
  29  -1 -15     329     161
  -3  15 -29     778     173
  -3  29 -15     868     141
  29 -15  -3     930     114
 -15   3 -29     791     151
  29  -3 -15     490     154
  -5  15 -29     216     166
  -5  29 -15     151     125
  29 -15  -5     456     111
 -15   5 -29     175     159
  -7  15 -29     731     176
  29 -15  -7     929     130
  29  -7 -15     456     150
 -15   7 -29    1062     158
  -9  15 -29     588     159
  29 -15  -9     401     118
  29  -9 -15     618     134
 -15   9 -29     301     153
 -11  15 -29     342     151
  29 -15 -11     298     121
  29 -11 -15     365     129
 -15  11 -29     295     139
  29 -15 -13    1031     128
  29 -13 -15     738     130
 -15  13 -29     916     138
 -13  15 -29     682     133
 -15  15 -29    2173     164
  17  17 -29      63      92
  17  29 -17      14     136
  17  29 -15     616     163
  15  17 -29     813     118
  13  17 -29      69     126
  11  17 -29    1063     163
  29  11 -17     992     134
  11  29 -17    1351     192
   9  17 -29    2130     163
  29   9 -17    1952     133
   7  17 -29     556     158
  29   7 -17     500     124
   7  29 -17     128     177
   5  17 -29     732     174
   5  29 -17     272     178
  29   5 -17     884     137
   3  17 -29    1629     196
  29   3 -17    1526     169
   3  29 -17    1563     203
  29   1 -17    1941     177
 -17  -1 -29    1399     180
   1  29 -17    1623     186
  -1  29 -17    1281     160
 -17   1 -29    1319     167
  29  -1 -17    1225     155
  -3  17 -29     692     162
  -3  29 -17     913     150
 -17   3 -29     739     153
  29  -3 -17     905     159
  -5  17 -29     970     159
  -5  29 -17     450     138
 -17   5 -29     214     151
  -7  17 -29     798     157
  29 -17  -7     299     112
 -17   7 -29     330     152
  -9  17 -29    2171     157
  29 -17  -9     389     119
  29  -9 -17    2229     151
 -17   9 -29     220     140
  29 -11 -17    1581     163
 -17  11 -29    1455     159
 -11  17 -29    1509     168
  29 -13 -17     131     113
 -17  13 -29     108     109
 -13  17 -29      80     115
 -17  15 -29     386     108
 -15  17 -29     922     114
 -17  17 -29     115      89
  19  29 -19      53     100
  17  19 -29     523      86
  17  29 -19     560     124
  19  29 -17     576     121
  15  19 -29     824     116
  15  29 -19     668     156
  19  29 -15     840     152
  13  19 -29     275     123
  11  19 -29     518     136
  11  29 -19    1125     157
   9  19 -29     107     148
  29   9 -19      74     117
   9  29 -19     604     164
   7  19 -29    1093     158
  29   7 -19    1421     137
   7  29 -19     926     181
   5  19 -29     263     167
  29   5 -19     261     135
   5  29 -19    1012     159
  29   3 -19      65     123
   3  29 -19      71     163
   1  29 -19     177     134
  29   1 -19     502     142
  -1  19 -29     743     162
  -1  29 -19     303     141
  29  -1 -19     526     141
  -3  19 -29     319     160
  -3  29 -19     182     136
  29  -3 -19     213     139
 -19   3 -29     332     129
  -5  19 -29     207     158
  -5  29 -19    1061     126
  29  -5 -19     457     140
 -19   5 -29     980     134
  -7  19 -29     872     141
 -19   7 -29     435     134
  -9  19 -29     175     142
  29  -9 -19      47     122
 -19   9 -29     985     121
 -11  19 -29     818     129
 -19  11 -29     574     108
 -19  13 -29     542     100
 -13  19 -29     196     110
 -15  19 -29     806      99
  17  29 -21      63      98
  21  29 -17      19      99
  15  21 -29     380      97
  15  29 -21     338     115
  21  29 -15     362     123
  21  29 -13     214     126
  13  21 -29     127     111
  11  21 -29     946     132
   9  21 -29     100     129
   9  29 -21     284     144
  29   7 -21    1147     147
   7  21 -29    1270     183
   7  29 -21    2810     187
   5  21 -29     224     136
  29   5 -21     498     121
   5  29 -21     199     149
  29   3 -21    1825     157
   3  29 -21    1679     180
   1  21 -29     807     149
  29   1 -21     954     124
   1  29 -21     140     141
  -1  21 -29    1052     145
  29  -1 -21    1277     127
  -1  29 -21      80     134
  -3  21 -29    2224     194
  29  -3 -21    2618     190
  -3  29 -21    2377     189
  -5  21 -29     394     131
  29  -5 -21     417     121
  -5  29 -21     464     120
  29  -7 -21    1108     156
  -7  21 -29    1372     163
  -9  21 -29     169     115
 -11  21 -29     885     113
 -13  21 -29     164      86
  15  29 -23     279      91
  13  23 -29     498      97
  13  29 -23     270     108
  23  29 -13     608     110
  23  29 -11      70     121
  11  23 -29      90     108
   9  23 -29     358     123
   9  29 -23     632     132
   7  23 -29       2     122
   7  29 -23      82     133
   5  29 -23     407     130
  29   3 -23     188     104
   3  23 -29     246     132
   3  29 -23     340     131
  29   1 -23     384     109
   1  23 -29     422     133
   1  29 -23     627     122
  29  -1 -23     238     110
  -1  23 -29     242     127
  -1  29 -23     384     125
  -3  23 -29     134     120
  -3  29 -23     108     110
  -5  23 -29     462     124
  -5  29 -23     426     107
  -7  23 -29      60     107
  -9  23 -29     429     109
 -11  23 -29      88      85
  11  25 -29     902     108
  25  29 -11     566     112
   9  25 -29      24      98
   9  29 -25     249     105
   7  25 -29     419     106
   7  29 -25     218     117
   5  29 -25     158     113
   3  25 -29     481     116
   3  29 -25     244     116
   1  25 -29     527     122
   1  29 -25     940     121
  -1  25 -29     365     116
  -1  29 -25     918     111
  -3  25 -29     126     101
  -3  29 -25     120     102
  -5  25 -29     808     105
  -5  29 -25     292      94
  -7  25 -29     662      99
   7  29 -27       4      81
   5  27 -29     172      88
   5  29 -27     515      89
   3  27 -29      53      93
   3  29 -27     128      88
   1  27 -29       8      88
   1  29 -27       9      89
  -1  27 -29      41      85
  -1  29 -27      30      82
  -3  27 -29      45      80
   0   0 -30     164     140
   2   2 -30     103     152
  -2  -2 -30      33     145
   0  -2 -30    2143     197
  -2   0 -30    1831     207
   2   0 -30    2012     201
   0   2 -30    2187     201
  -2   2 -30     175     153
   2  -2 -30     210     132
   4   4 -30     129     137
  -4  -4 -30     116     145
   4   2 -30     335     144
   2   4 -30    1876     156
  -2  -4 -30    1717     162
  -4  -2 -30     370     161
   0  -4 -30    3799     240
  -4   0 -30    2703     255
   4   0 -30    2747     239
   0   4 -30    3891     248
  -4   2 -30     356     183
  -2   4 -30    1735     180
   2  -4 -30    2212     152
   4  -2 -30     610     147
  -4   4 -30     248     161
   4  -4 -30     115     119
   6   6 -30     512     136
  -6  -6 -30     555     156
   6   4 -30    1213     134
   4   6 -30     383     143
  -4  -6 -30     582     142
  -6  -4 -30    1283     159
   6   2 -30    1714     148
   2   6 -30    1384     163
  -2  -6 -30    1458     150
  -6  -2 -30    1456     173
   6   0 -30     109     124
   0   6 -30    1204     145
   0  -6 -30    1228     127
  -6   0 -30     149     164
  -2   6 -30    1000     164
   2  -6 -30    1308     131
   6  -2 -30    1141     133
  -6   2 -30     790     173
  -2  30  -6    1323     139
  -6   4 -30    1611     177
  -4   6 -30     857     171
   4  -6 -30     811     125
  -6   6 -30     440     183
   8   8 -30    1027     137
  -8  -8 -30    1036     166
   8   6 -30    2616     184
   6   8 -30    1660     199
  -6  -8 -30    1634     195
  -8  -6 -30    2394     202
   4   8 -30    3773     226
  -4  -8 -30    3249     212
  -8  -4 -30    2631     220
   8   4 -30    2572     205
   2   8 -30    1612     171
  -2  -8 -30    1384     165
  -8  -2 -30    1034     189
   8   2 -30     827     157
   8   0 -30     676     125
   0  30  -8     709     153
   0   8 -30    1516     173
   0  -8 -30    1701     132
  -8   0 -30     627     170
  -2   8 -30    1500     185
   2  -8 -30    1295     144
  -2  30  -8     823     160
  -8   2 -30     659     189
  -4   8 -30    2681     209
  -8   8 -30     821     172
  10  10 -30      82     121
  10   8 -30    1012     137
   8  10 -30     458     143
  10   6 -30    2089     145
   6  10 -30     669     165
 -10  -6 -30    2185     184
  10   4 -30    1128     125
   4  10 -30     517     162
 -10  -4 -30    1195     158
   2  10 -30    1445     209
 -10  -2 -30    2263     208
   2  30 -10    3130     211
   0  10 -30    1485     178
   0  30 -10    1833     172
  -2  30 -10    3572     209
  -2  10 -30    1398     227
  30 -10  -6    2508     168
  30  -6 -10     942     188
 -10   6 -30    2119     194
 -10   8 -30     956     162
  30 -10  -8    1097     144
  30  -8 -10     643     149
 -10  10 -30     126     152
  30 -10 -10      90     137
  12  12 -30    2488     215
  12  10 -30     786     136
  10  12 -30     741     153
  12   8 -30     490     127
   8  12 -30     877     151
   6  30 -12     596     167
  12   6 -30     658     115
   6  12 -30     646     155
 -12  -6 -30     504     156
   4  30 -12    1353     176
   4  12 -30     105     155
 -12  -4 -30    1033     157
   2  12 -30      95     164
 -12  -2 -30     824     168
   2  30 -12     985     152
   0  12 -30     158     149
   0  30 -12       9     152
  30 -12  -2    1381     129
  -2  30 -12    1394     154
  -4  30 -12    1453     134
 -12   4 -30     975     144
  30 -12  -4    1450     130
  -6  12 -30     671     165
  30 -12  -6     752     122
 -12   6 -30     881     163
  30  -6 -12     718     155
  -8  12 -30     677     163
  30 -12  -8     645     129
  30  -8 -12     921     145
 -12   8 -30     491     166
 -10  12 -30     749     164
  30 -12 -10     901     150
  30 -10 -12     652     149
 -12  10 -30     754     169
  30 -12 -12    2823     227
 -12  12 -30    2462     231
  14  30 -14     110     180
  14  14 -30       0     110
  30  12 -14     122     115
  12  30 -14     553     166
  14  12 -30     353     112
  12  14 -30      31     123
  10  30 -14     120     175
  30  10 -14     397     127
  14  10 -30      40     109
  10  14 -30      91     127
   8  30 -14     257     180
   8  14 -30     122     138
   6  14 -30     144     139
   6  30 -14      41     170
   4  14 -30    1875     199
   4  30 -14    1034     210
  30   2 -14     436     160
   2  14 -30     505     166
   2  30 -14    1354     166
  30   0 -14     695     168
   0  14 -30     523     165
 -14   0 -30    1041     167
   0  30 -14    1013     163
  -2  30 -14    1689     154
 -14   2 -30    1604     168
  30 -14  -2    1534     130
  30  -2 -14    1136     172
  30 -14  -4     804     144
  -4  30 -14     733     158
 -14   4 -30     616     181
  -4  14 -30    1526     183
  -6  14 -30     232     152
  30 -14  -6      78     110
  30  -6 -14     243     139
 -14   6 -30      30     153
  -8  14 -30     274     159
  30 -14  -8     150     120
  30  -8 -14     495     140
 -14   8 -30     114     147
 -10  14 -30     435     163
  30 -14 -10      30     120
  30 -10 -14     270     131
 -14  10 -30      28     148
  30 -14 -12     200     110
  30 -12 -14     103     120
 -14  12 -30     418     124
 -12  14 -30     118     125
  30 -14 -14       6     108
 -14  14 -30       2     123
  16  16 -30     360      96
  14  16 -30     991     114
  12  16 -30     849     129
  30  12 -16     903     106
  12  30 -16     279     160
  10  16 -30      50     123
  30  10 -16      99     116
  10  30 -16      62     177
   8  16 -30     463     151
  30   8 -16     417     132
   8  30 -16     383     185
   6  16 -30     604     155
   6  30 -16     208     171
  30   6 -16     725     141
   4  16 -30     265     160
   4  30 -16     596     169
  30   4 -16     334     145
   2  16 -30     810     172
 -16  -2 -30     510     153
   2  30 -16     581     154
  30   2 -16     641     146
   0  30 -16    1442     172
 -16   0 -30    1661     188
  -2  30 -16     236     138
 -16   2 -30     115     147
  30  -2 -16     385     139
  -4  16 -30     293     163
  -4  30 -16     382     132
 -16   4 -30     342     152
  -6  16 -30     454     147
  30 -16  -6      51     107
 -16   6 -30      35     138
  -8  16 -30     549     150
  30 -16  -8     600     111
  30  -8 -16     644     139
 -16   8 -30     445     137
 -10  16 -30      45     144
  30 -16 -10     153     103
  30 -10 -16      80     134
 -16  10 -30      38     113
  30 -16 -12     399     104
  30 -12 -16     722     121
 -16  12 -30     309     115
 -12  16 -30     675     124
 -16  14 -30     362     117
 -14  16 -30    1042     117
 -16  16 -30     279     100
  18  30 -18     218     110
  16  18 -30      53      84
  16  30 -18      38     129
  18  30 -16      40     122
  18  30 -14     204     144
  14  18 -30     276     105
  12  18 -30     222     120
  12  30 -18      54     153
  10  18 -30     303     128
  30  10 -18     308     109
  10  30 -18     343     158
   8  18 -30     147     133
  30   8 -18     180     119
   8  30 -18     376     172
   6  18 -30     714     161
  30   6 -18     924     134
   6  30 -18     495     173
   4  18 -30     340     160
  30   4 -18     122     124
   4  30 -18      41     157
   2  18 -30    1358     162
   2  30 -18     858     165
  30   2 -18    1272     150
   0  30 -18      56     139
  30   0 -18     394     148
  -2  18 -30    1602     165
  -2  30 -18     882     149
  30  -2 -18    1739     156
 -18   2 -30     698     155
  -4  18 -30     138     142
  -4  30 -18      85     122
  30  -4 -18     106     127
 -18   4 -30      51     132
  -6  18 -30     763     147
 -18   6 -30     310     121
  -8  18 -30     176     133
  30  -8 -18     103     123
 -18   8 -30     644     122
 -10  18 -30     332     131
  30 -10 -18     328     119
 -18  10 -30     392     123
 -18  12 -30     247     108
 -12  18 -30     180     112
 -18  14 -30     901      98
 -14  18 -30     425     103
  16  30 -20       3     103
  20  30 -16      55     106
  14  20 -30     192      94
  20  30 -14     124     127
  20  30 -12     236     126
  12  20 -30     226     106
  10  20 -30     601     127
  10  30 -20     343     140
   8  20 -30     233     126
  30   8 -20     136      97
   8  30 -20     121     141
   6  20 -30     152     144
  30   6 -20     241     114
   6  30 -20     479     144
   4  20 -30     522     143
  30   4 -20     415     119
   4  30 -20     891     146
  30   2 -20     401     123
   2  30 -20     299     142
   0  20 -30     211     137
  30   0 -20     331     116
   0  30 -20     285     137
  -2  20 -30     274     141
  -2  30 -20     211     126
  30  -2 -20     529     124
  -4  20 -30     427     133
  -4  30 -20     684     116
  30  -4 -20     283     130
  -6  20 -30     180     131
  30  -6 -20     107     114
  -8  20 -30     192     116
 -20   8 -30     578     110
 -10  20 -30     535     120
 -20  10 -30     252     101
 -12  20 -30     258      98
 -14  20 -30     140      83
  14  30 -22     202      97
  22  30 -14     314     105
  22  30 -12      94     109
  12  22 -30      82      95
  10  22 -30     170     110
  10  30 -22     659     130
   8  22 -30     225     114
   8  30 -22       1     122
  30   6 -22     459      92
   6  22 -30     411     128
   6  30 -22     305     131
  30   4 -22     300     113
   4  30 -22     622     134
   2  22 -30    1373     143
  30   2 -22    1234     123
   2  30 -22     405     142
   0  22 -30      57     123
  30   0 -22      88     106
   0  30 -22      19     119
  -2  22 -30    1059     131
  30  -2 -22    1029     122
  -2  30 -22     288     129
  -4  22 -30     631     131
  -4  30 -22     902     115
  -6  22 -30     628     111
  -8  22 -30     135     104
 -10  22 -30     183      99
  24  30 -10     276     106
  10  24 -30     295      92
  10  30 -24     211     100
   8  24 -30      11      99
   8  30 -24      18     101
   6  24 -30     344     102
   6  30 -24      27     110
   4  30 -24     364     112
   2  24 -30     134     115
   2  30 -24     795     113
   0  24 -30     466     113
   0  30 -24     560     111
  -2  24 -30     118     108
  -2  30 -24     426      97
  -4  24 -30     132     101
  -4  30 -24     273      88
  -6  24 -30     291     100
  -8  24 -30      13      77
   6  30 -26      98      88
   4  26 -30     113      89
   4  30 -26     192      85
   2  26 -30     647      91
   2  30 -26     485      91
   0  26 -30     147      93
   0  30 -26     405      85
  -2  26 -30     649      89
   1   1 -31     287     133
  -1  -1 -31     334     132
  -1   1 -31     377     141
   1  -1 -31     334     125
   3   3 -31    1475     148
  -3  -3 -31    1209     157
   3   1 -31     637     164
   1   3 -31    1657     176
  -1  -3 -31    1676     159
  -3  -1 -31     713     180
  -1   3 -31    1664     181
   1  -3 -31    1506     154
   3  -1 -31     608     157
  -3   1 -31     595     180
  -3   3 -31     905     156
   3  -3 -31    1030     127
   5   5 -31     264     129
  -5  -5 -31     193     137
   5   3 -31     201     132
   3   5 -31     348     135
  -3  -5 -31     252     140
  -5  -3 -31     168     146
   5   1 -31     390     142
   1   5 -31     782     155
  -1  -5 -31     844     138
  -5  -1 -31     598     165
  -1   5 -31    1263     171
   1  -5 -31    1345     146
  -5   1 -31     500     176
   5  -1 -31     503     146
  -5   3 -31     311     161
  -3   5 -31     744     165
   3  -5 -31     582     123
   5  -3 -31     284     124
  -5   5 -31     208     167
   7   7 -31     967     148
  -7  -7 -31     842     156
   7   5 -31    1385     140
   5   7 -31    1037     146
  -5  -7 -31    1176     155
  -7  -5 -31    1238     162
   3   7 -31    1520     168
  -3  -7 -31    2018     162
  -7  -3 -31    1118     173
   7   3 -31    1198     153
   7   1 -31    1542     136
   1  31  -7    1368     148
   1   7 -31     864     164
  -1  -7 -31    1079     140
  -7  -1 -31    1235     179
  -1   7 -31     585     153
   1  -7 -31    1050     136
  -7   1 -31    1055     159
   7  -1 -31    1341     125
  -1  31  -7    1585     146
  -7   3 -31    1636     218
  -3   7 -31    3152     208
  -7   5 -31     952     174
  -5   7 -31     722     170
   9   9 -31    2604     178
   9   7 -31     118     121
   7   9 -31      20     136
  -9  -7 -31      64     139
   9   5 -31    1004     140
   5   9 -31    1719     150
  -9  -5 -31     981     167
   3  31  -9     403     171
   9   3 -31     418     134
   3   9 -31    1409     169
  -9  -3 -31     322     170
   1   9 -31     104     155
  -9  -1 -31       5     150
   1  31  -9     193     146
  -1   9 -31     361     166
  -9   1 -31     373     152
  -1  31  -9     432     142
  -3   9 -31    1129     172
  31  -9  -7      63     130
  31  -7  -9       5     156
  31  -9  -9    3157     205
  -9   9 -31    2952     215
  11  11 -31     309     123
  11   9 -31      95     117
   9  11 -31      65     130
   7  11 -31    2911     214
  11   7 -31    2971     197
   5  31 -11     616     166
   5  11 -31     357     155
 -11  -5 -31     332     158
   3  11 -31     340     147
 -11  -3 -31     207     156
   3  31 -11     289     165
   1  11 -31     148     151
 -11  -1 -31      40     140
   1  31 -11      49     142
  -1  11 -31     415     158
  -1  31 -11     312     140
  31 -11  -3     265     122
  -3  11 -31     156     160
  31  -5 -11     336     161
 -11   5 -31     922     159
  31 -11  -5     812     133
  31 -11  -7    4265     236
  31  -7 -11    3713     250
 -11   7 -31    3770     248
  -9  11 -31      61     160
  31 -11  -9      20     113
  31  -9 -11      13     134
 -11   9 -31      21     150
  31 -11 -11     410     130
 -11  11 -31      54     140
  13  31 -13    2116     195
  13  13 -31    2060     142
  31  13 -13    2124     137
  11  31 -13     745     179
  31  11 -13     390     131
  13  11 -31     512     111
  11  13 -31     241     122
   9  31 -13     356     163
  13   9 -31     239     103
   9  13 -31     351     123
   7  13 -31     864     141
   7  31 -13     661     175
   5  13 -31    1199     160
   5  31 -13     396     166
   3  13 -31       1     154
 -13  -3 -31     105     164
   3  31 -13      31     154
  31   1 -13     239     152
   1  13 -31     316     157
   1  31 -13     189     141
  31  -1 -13     210     154
  -1  13 -31      57     148
  -1  31 -13     113     134
  31 -13  -1      81     104
  -3  31 -13      80     122
 -13   3 -31      41     147
  31 -13  -3      86     109
  -5  13 -31     890     157
  31 -13  -5     240     111
 -13   5 -31     138     143
  31  -5 -13    1361     152
  -7  13 -31     748     158
  31 -13  -7     447     117
  31  -7 -13     902     146
 -13   7 -31     323     156
  -9  13 -31     159     148
  31 -13  -9     241     117
  31  -9 -13     423     136
 -13   9 -31     269     144
  31 -13 -11     204     109
  31 -11 -13     183     127
 -13  11 -31     256     133
 -11  13 -31     124     134
  31 -13 -13    1598     132
 -13  13 -31    1766     144
  15  31 -13     194     154
  13  15 -31     299     112
  13  31 -15     404     159
  11  15 -31     441     123
  31  11 -15     644     111
  11  31 -15     344     164
   9  15 -31      10     121
   9  31 -15      74     169
  31   9 -15      12     116
   7  15 -31     723     144
   7  31 -15     537     161
  31   7 -15     853     132
   5  15 -31     579     148
   5  31 -15     108     156
  31   5 -15     625     125
   3  15 -31     299     164
   3  31 -15     251     156
  31   3 -15     270     140
   1  15 -31     768     168
 -15  -1 -31     946     157
   1  31 -15    1010     156
  31   1 -15     654     151
  -1  31 -15     860     143
 -15   1 -31     678     158
  31  -1 -15     463     143
  -3  31 -15     236     128
 -15   3 -31     228     149
  31  -3 -15     177     148
  -5  15 -31     801     151
  31 -15  -5     123     107
 -15   5 -31      57     146
  -7  15 -31     744     148
  31 -15  -7     896     112
  31  -7 -15     674     144
 -15   7 -31     770     140
  -9  15 -31      69     142
  31 -15  -9     490     107
  31  -9 -15     460     135
 -15   9 -31     348     135
  31 -15 -11     338     105
  31 -11 -15     456     113
 -15  11 -31     271     127
 -11  15 -31     331     130
  31 -13 -15      61     101
 -15  13 -31     299     113
 -13  15 -31      22     110
 -15  15 -31      35     102
  17  31 -17     441     116
  15  17 -31     395      88
  13  17 -31      38     101
  13  31 -17     193     144
  11  17 -31     228     118
  11  31 -17     357     157
   9  17 -31      94     125
  31   9 -17      57     113
   9  31 -17     395     149
   7  17 -31     462     150
  31   7 -17     504     138
   7  31 -17    1365     170
   5  17 -31      52     128
  31   5 -17      34     117
   5  31 -17      27     148
   3  17 -31     256     149
   3  31 -17     531     145
  31   3 -17     241     131
   1  17 -31    2733     206
  31   1 -17    2907     191
   1  31 -17    2070     197
  31  -1 -17    2538     171
  -1  31 -17    1873     177
 -17   1 -31    1834     181
  -3  17 -31     210     142
  -3  31 -17    1052     120
  31  -3 -17     377     133
 -17   3 -31     653     141
  -5  17 -31      42     134
 -17   5 -31      37     131
  -7  17 -31      98     142
  31  -7 -17     265     129
 -17   7 -31     746     132
  -9  17 -31     114     136
  31  -9 -17     101     124
 -17   9 -31     463     123
  31 -11 -17     325     112
 -17  11 -31     338     114
 -11  17 -31     311     115
 -17  13 -31     118     100
 -13  17 -31      42     104
 -17  15 -31     370      89
 -15  17 -31     203      91
  17  31 -19      69      91
  19  31 -17      98      93
  19  31 -15       2     111
  13  19 -31     143      91
  13  31 -19     227     123
  19  31 -13     159     130
  11  19 -31     127     108
  11  31 -19     341     137
   9  19 -31     365     124
  31   9 -19     330     105
   9  31 -19    1535     145
   7  19 -31     665     131
  31   7 -19     435     111
   7  31 -19     298     147
   5  19 -31     326     136
  31   5 -19     121     111
   5  31 -19     513     138
   3  19 -31     653     142
  31   3 -19     632     121
   3  31 -19     490     132
   1  31 -19     201     129
  31   1 -19     404     123
  -1  19 -31     438     133
  -1  31 -19     217     126
  31  -1 -19     366     123
  -3  19 -31     565     138
  -3  31 -19     274     115
  31  -3 -19     416     113
  -5  19 -31      69     129
  31  -5 -19      99     118
 -19   5 -31     442     115
  -7  19 -31     572     127
 -19   7 -31     454     113
  -9  19 -31     278     120
  31  -9 -19     294     120
 -19   9 -31    1516     111
 -19  11 -31     190      91
 -11  19 -31     134     105
 -19  13 -31     453      79
 -13  19 -31     417      94
  15  31 -21     130      86
  13  21 -31      45      79
  21  31 -13      41     106
  21  31 -11     476     128
  11  21 -31     327      99
  11  31 -21     802     121
   9  21 -31      78     103
   9  31 -21     138     124
  31   7 -21     453      90
   7  21 -31     480     108
   7  31 -21     219     125
   5  21 -31    1259     149
  31   5 -21    1038     127
   5  31 -21     619     147
  31   3 -21     211     101
   3  31 -21     234     118
  31   1 -21     167     103
   1  31 -21     301     120
  -1  21 -31      11     120
  31  -1 -21     218     104
  -1  31 -21     380     116
  -3  21 -31     248     120
  31  -3 -21     192     110
  -3  31 -21     265      99
  -5  21 -31     939     134
  31  -5 -21     845     130
  -7  21 -31     324     105
  -9  21 -31     148      97
 -11  21 -31     513      95
  11  31 -23     180      89
  23  31 -11      83      94
  23  31  -9     109     103
   9  23 -31     113      87
   9  31 -23      70      96
   7  23 -31     249     100
   7  31 -23     164     108
   5  23 -31     118     100
   5  31 -23      17      98
   3  31 -23     644     108
   1  23 -31      15     110
   1  31 -23      27     101
  -1  23 -31     273     109
  -1  31 -23     105      92
  -3  23 -31     283     106
  -3  31 -23     749      91
  -5  23 -31      34      97
  -7  23 -31     120      88
   5  31 -25      71      83
   3  25 -31     278      87
   3  31 -25     213      82
   1  25 -31     185      91
  -1  25 -31     149      87
  -3  25 -31     165      84
   0   0 -32     138     140
   2   2 -32     198     130
  -2  -2 -32      56     141
   0   2 -32    1133     158
   0  -2 -32    1154     152
  -2   0 -32     933     165
   2   0 -32    1135     140
   2  -2 -32      42     123
  -2   2 -32     116     142
   4   4 -32     228     127
  -4  -4 -32      73     135
   4   2 -32     437     148
   2   4 -32    1917     148
  -2  -4 -32    1992     144
  -4  -2 -32     639     159
   0  -4 -32    3032     328
  -4   0 -32    5936     336
   4   0 -32    6702     327
   0   4 -32    3211     341
  -2   4 -32    2363     174
   2  -4 -32    2042     135
   4  -2 -32     621     133
  -4   2 -32     590     152
  -4   4 -32     980     153
   4  -4 -32     789     126
   6   6 -32    1005     138
  -6  -6 -32     740     141
   6   4 -32      80     141
   4   6 -32     507     149
  -4  -6 -32     512     132
  -6  -4 -32      63     157
   6   2 -32     466     133
   2   6 -32     196     148
  -2  -6 -32     290     133
  -6  -2 -32     480     140
   0   6 -32     127     159
   0  -6 -32     172     127
  -6   0 -32       2     156
   6   0 -32       9     118
   0  32  -6       2     128
  -2   6 -32     551     168
   2  -6 -32     419     120
  -6   2 -32     481     166
  -4   6 -32     516     159
  -6   4 -32      19     159
  -6   6 -32     694     162
   8   8 -32    1086     133
   8   6 -32    1086     139
   6   8 -32    1104     138
  -8  -6 -32    1115     154
   8   4 -32     520     118
   4   8 -32     255     139
  -8  -4 -32     417     154
   2  32  -8    1893     174
  -2  -8 -32    1359     151
   8   2 -32    1628     142
  -8  -2 -32    1493     173
   2   8 -32    1739     176
   0   8 -32     533     151
   0  -8 -32     856     121
  -8   0 -32     656     167
   0  32  -8     467     145
  -2   8 -32     974     171
  -8   2 -32    1114     170
  -4   8 -32     370     164
  -8   4 -32     562     157
  32  -8  -8    2050     167
  10  10 -32    3053     203
  10   8 -32      27     117
   8  10 -32      14     126
   6  32 -10     757     175
  10   6 -32     634     127
   6  10 -32     951     144
 -10  -6 -32     526     143
 -10  -4 -32    1574     199
   4  32 -10    1251     185
   4  10 -32    2223     187
   2  10 -32     440     151
 -10  -2 -32     474     144
   2  32 -10     536     147
   0  10 -32      67     146
 -10   0 -32     150     152
   0  32 -10      69     134
  -2  10 -32     386     155
 -10   2 -32     298     151
  32  -4 -10    2763     196
  32 -10  -4    1536     175
  32 -10  -6    1293     168
  32  -6 -10    1699     172
  -8  10 -32     127     163
  32 -10  -8      28     122
  32  -8 -10      58     140
 -10   8 -32       1     144
  32 -10 -10    3732     234
 -10  10 -32    3570     249
  12  32 -12      10     157
  12  12 -32       1     105
  10  32 -12      17     160
  12  10 -32      22     104
  10  12 -32     164     123
   8  32 -12     394     174
   8  12 -32     485     128
   6  12 -32    1323     147
   6  32 -12    1367     177
   4  12 -32    1338     175
 -12  -4 -32    1563     188
   4  32 -12    1709     190
   2  12 -32    1122     157
 -12  -2 -32     244     168
   2  32 -12     352     157
  32   0 -12    1839     167
   0  12 -32    1429     171
  32 -12   0     639     129
   0  32 -12     481     158
  -2  12 -32     708     167
  -2  32 -12     255     132
  32 -12  -2     447     118
  32 -12  -4    1702     150
  32  -4 -12    1196     168
 -12   4 -32    1210     173
  -6  12 -32    1013     163
  32 -12  -6    1250     128
  32  -6 -12     957     153
 -12   6 -32    1274     165
  -8  12 -32     586     152
  32 -12  -8     408     120
  32  -8 -12     579     139
 -12   8 -32     274     144
  32 -12 -10      70     112
  32 -10 -12     170     123
 -12  10 -32      25     130
 -10  12 -32     140     147
  32 -12 -12      10     109
 -12  12 -32      45     124
  14  32 -14    2387     235
  14  32 -12     238     153
  12  14 -32     313     104
  32  12 -14     367      96
  12  32 -14      78     149
  32  14 -12     213     100
  10  14 -32      75     116
  10  32 -14      71     143
  32  10 -14      88     112
   8  14 -32    3086     199
  32   8 -14    3155     198
   8  32 -14    2280     221
  32   6 -14    1799     145
   6  14 -32    1702     158
   6  32 -14    1191     176
  32   4 -14     169     135
   4  14 -32     176     136
   4  32 -14     288     152
   2  14 -32     220     150
   2  32 -14     456     139
  32   2 -14      88     138
   0  32 -14    2358     218
  32   0 -14    1771     209
   0  14 -32    1982     226
  -2  32 -14     758     126
 -14   2 -32     619     138
  32  -2 -14     182     134
  32 -14  -4     299     107
 -14   4 -32     201     142
  -6  14 -32    2118     176
  32 -14  -6    1783     141
  32  -6 -14    2110     166
 -14   6 -32    1723     168
  32 -14  -8    1520     153
  32  -8 -14    2401     172
 -14   8 -32    1557     180
  -8  14 -32    2457     189
  32 -14 -10      24     100
  32 -10 -14      59     114
 -14  10 -32      88     123
 -10  14 -32      54     128
  32 -14 -12     119     100
  32 -12 -14     150     102
 -14  12 -32      74     112
 -12  14 -32     215     120
 -14  14 -32    2079     191
  14  16 -32     113      82
  14  32 -16      88     131
  16  32 -12     501     150
  12  16 -32     595     110
  12  32 -16     959     147
  10  16 -32     303     113
  32  10 -16     295     103
  10  32 -16     104     146
   8  16 -32      83     120
  32   8 -16     118     112
   8  32 -16     266     140
   6  16 -32     309     126
  32   6 -16     369     111
   6  32 -16     279     141
   4  16 -32     496     128
   4  32 -16      46     149
  32   4 -16     760     130
   2  16 -32     570     151
   2  32 -16     593     144
  32   2 -16     674     139
  32   0 -16    2846     175
   0  32 -16     980     173
 -16   0 -32     817     172
   0  16 -32    3082     187
  -2  32 -16     310     123
 -16   2 -32     362     128
  32  -2 -16     524     143
  -4  16 -32     246     137
 -16   4 -32      48     129
  -6  16 -32     452     139
 -16   6 -32     288     125
  -8  16 -32     238     132
  32 -16  -8     230      88
  32  -8 -16      77     119
 -16   8 -32     319     115
  32 -10 -16     506     114
 -16  10 -32     141     106
 -10  16 -32     554     120
 -16  12 -32     989     111
 -12  16 -32     435     115
 -16  14 -32     322      94
 -14  16 -32     136      92
 -16  16 -32     221      74
  18  32 -16     209      98
  14  32 -18     193     107
  12  18 -32     949     107
  12  32 -18     696     135
  10  18 -32    1547     146
  10  32 -18    1609     170
   8  18 -32       7     108
  32   8 -18      13      92
   8  32 -18      60     126
   6  18 -32     180     123
  32   6 -18     182     109
   6  32 -18     438     132
   4  18 -32    2797     166
  32   4 -18    3058     161
   4  32 -18    1259     174
   2  18 -32     943     141
   2  32 -18     647     141
  32   2 -18     801     129
  32   0 -18    2828     193
   0  32 -18    2722     194
  -2  18 -32     138     124
  -2  32 -18     115     106
  32  -2 -18     392     124
  32  -4 -18    2128     142
 -18   4 -32     944     146
  -4  18 -32    2340     151
  -6  18 -32     232     127
 -18   6 -32     620     111
  -8  18 -32      73     118
  32  -8 -18       4     109
 -18   8 -32     155     100
 -18  10 -32    1193     136
 -10  18 -32    1598     142
 -12  18 -32    1310     115
 -18  12 -32     882     109
 -14  18 -32     189      76
  20  32 -14      55      95
  12  20 -32      50      84
  12  32 -20     329     103
  20  32 -12     127     107
  20  32 -10      10     117
  10  20 -32      11      94
  10  32 -20      24     109
   8  20 -32      87      99
   8  32 -20      43     114
   6  20 -32     781     113
  32   6 -20     791      92
   6  32 -20     221     128
   4  20 -32     714     129
  32   4 -20     751     117
   4  32 -20     670     135
  32   2 -20      45     101
   2  32 -20     104     117
  32   0 -20     712     109
   0  32 -20     307     115
  -2  20 -32     243     120
  -2  32 -20     403      97
  32  -2 -20     242     106
  32  -4 -20     920     130
  -4  20 -32    1143     142
  -6  20 -32     621     110
  32  -6 -20     643     104
  -8  20 -32     107      97
 -10  20 -32       2      87
  10  32 -22     447      93
  22  32 -10     278     101
   8  22 -32     605      89
   8  32 -22     149     101
   6  22 -32     683     103
   6  32 -22     348     109
   4  22 -32     452     106
   4  32 -22     321     106
   2  32 -22     424     100
   0  22 -32     574     110
   0  32 -22     413      98
  -2  22 -32     105     101
  -4  22 -32     328     100
  -6  22 -32     457      95
  -8  22 -32     786      83
   2  24 -32     152      82
   0  24 -32     558      91
  -2  24 -32     169      83
  -1  -1 -33    1480     170
   1   1 -33    1420     165
   1  -1 -33     597     138
  -1   1 -33     772     148
   3   3 -33     123     132
  -3  -3 -33      45     129
   1   3 -33     195     141
  -1  -3 -33     260     127
  -3  -1 -33     821     150
   3   1 -33     792     132
   1  -3 -33     661     133
   3  -1 -33    1344     135
  -3   1 -33    1433     155
  -1   3 -33     802     152
   3  -3 -33      30     112
  -3   3 -33      62     159
   5   5 -33     449     121
  -5  -5 -33     332     130
   5   3 -33     491     141
   3   5 -33    1629     146
  -3  -5 -33    1401     143
  -5  -3 -33     505     154
  -1  -5 -33    1453     162
  -5  -1 -33    2383     181
   5   1 -33    2441     165
   1   5 -33    1999     181
  -1   5 -33    1136     170
   5  -1 -33    1889     139
   1  -5 -33     939     142
  -5   1 -33    2030     168
  -3   5 -33    1484     161
  -5   3 -33     538     170
  -5   5 -33     276     138
   7   7 -33     202     122
   7   5 -33      47     120
   5   7 -33     216     122
  -5  -7 -33     274     120
  -7  -5 -33       8     137
   7   3 -33     591     144
   3  33  -7     770     167
  -3  -7 -33    1579     145
  -7  -3 -33     654     166
   3   7 -33    2002     163
   1   7 -33     236     141
  -1  -7 -33     204     121
  -7  -1 -33     480     141
   7   1 -33     258     108
   1  33  -7     200     134
  -1   7 -33     216     149
   1  -7 -33     245     111
  -7   1 -33     292     145
  -3   7 -33    1528     170
  -7   3 -33     394     166
  -5   7 -33     564     158
  -7   5 -33      38     154
  33  -7  -7      66     130
  -7   7 -33       1     145
   9   9 -33    2930     177
   7  33  -9     325     153
   9   7 -33     380     116
   7   9 -33     334     123
   5  33  -9     904     165
   9   5 -33     703     128
   5   9 -33    1107     143
  -9  -5 -33     691     162
   3   9 -33    1002     152
  -9  -3 -33    1088     151
   3  33  -9     699     146
   1   9 -33     150     141
  -9  -1 -33      92     140
   1  33  -9     131     132
  -1   9 -33      74     150
  -9   1 -33      23     146
  -3   9 -33     872     159
  -9   3 -33    1258     161
  33  -9  -5     997     150
  -5   9 -33    1586     175
  33  -5  -9    1613     165
  33  -9  -7     207     120
  33  -7  -9     262     129
  33  -9  -9    2865     172
  -9   9 -33    2720     192
  11  33 -11     153     155
  11  11 -33      25      96
   9  33 -11     364     149
  11   9 -33     370     101
   9  11 -33     421     111
   7  33 -11    1610     188
   7  11 -33    1555     162
   5  11 -33     157     131
   5  33 -11     123     147
   3  11 -33     150     135
 -11  -3 -33     102     139
   3  33 -11      33     135
  33 -11   1     941     121
   1  11 -33    1186     154
 -11  -1 -33     837     155
   1  33 -11     901     145
  33 -11  -1     726     119
  -1  11 -33    1113     155
 -11   1 -33     567     150
  33  -3 -11      96     137
  -3  11 -33     233     152
  33 -11  -3     210     116
  33 -11  -5     415     118
  33  -5 -11     150     142
  33 -11  -7    1464     152
  33  -7 -11    1563     164
 -11   7 -33    1622     178
  33 -11  -9     539     114
  33  -9 -11     735     121
 -11   9 -33     621     134
  -9  11 -33     721     149
  33 -11 -11      51      98
 -11  11 -33      94     121
  13  33 -13     385     142
  13  33 -11     232     148
  33  13 -11     225     109
  11  13 -33     187      98
  33  11 -13     282     109
  11  33 -13     157     141
  33   9 -13     607     118
   9  13 -33     565     113
   9  33 -13     234     153
  33   7 -13     472     122
   7  13 -33     142     120
   7  33 -13     112     144
  33   5 -13     654     145
   5  13 -33     601     142
   5  33 -13     931     153
  33   3 -13     162     134
   3  13 -33     208     127
   3  33 -13     287     139
   1  13 -33     255     137
   1  33 -13     254     133
  33   1 -13     215     142
  -1  13 -33     499     133
  -1  33 -13     311     115
  33  -1 -13     294     128
  33 -13  -3     227     101
 -13   3 -33     569     136
  33 -13  -5    1619     128
  33  -5 -13     680     141
 -13   5 -33    1743     153
  -7  13 -33     308     143
  33 -13  -7     263     104
  33  -7 -13     394     130
 -13   7 -33     205     129
  33 -13  -9     194     106
  33  -9 -13     552     116
 -13   9 -33     188     131
  -9  13 -33     408     130
  33 -13 -11      63      97
  33 -11 -13      98      97
 -13  11 -33     130     116
 -11  13 -33     227     121
  33 -13 -13      24      88
 -13  13 -33      37     104
  15  33 -15    1041     125
  13  33 -15     236     122
  15  33 -13     182     126
  15  33 -11     688     150
  11  15 -33     681     104
  33  11 -15     772      97
  11  33 -15     672     137
   9  15 -33      53     105
  33   9 -15      71     107
   9  33 -15     526     132
   7  15 -33     641     125
   7  33 -15     914     139
  33   7 -15     607     124
   5  15 -33     215     130
   5  33 -15     432     139
  33   5 -15     299     124
   3  15 -33     249     132
   3  33 -15     330     133
  33   3 -15     390     129
   1  15 -33    1308     130
   1  33 -15     698     134
  33   1 -15    1357     134
  -1  15 -33    1437     136
  -1  33 -15     617     121
 -15   1 -33     530     124
  33  -1 -15     798     135
 -15   3 -33     880     145
  -5  15 -33      99     133
 -15   5 -33     360     127
  -7  15 -33     322     125
  33 -15  -7     394      92
  33  -7 -15     438     121
 -15   7 -33     525     114
  33 -15  -9     229      81
  33  -9 -15      32      98
 -15   9 -33     347     112
  -9  15 -33      35     113
  33 -11 -15    1075     119
 -15  11 -33    1137     123
 -11  15 -33    1021     124
 -15  13 -33     663      98
 -13  15 -33     229      96
 -15  15 -33    1597     109
  15  33 -17     342      99
  13  33 -17     104     106
  17  33 -13      20     107
  17  33 -11       2     128
  11  17 -33      57      87
  11  33 -17      38     115
   9  17 -33     125     102
  33   9 -17     220      85
   9  33 -17     149     127
   7  17 -33     452     119
  33   7 -17     526     114
   7  33 -17     784     136
   5  17 -33     967     125
  33   5 -17     965     114
   5  33 -17     481     130
   3  17 -33     805     133
   3  33 -17    1892     135
  33   3 -17     971     119
   1  17 -33     677     137
   1  33 -17     874     120
  33   1 -17     632     111
  -1  33 -17     818     111
  33  -1 -17     775     114
  -3  17 -33     917     138
  33  -3 -17     947     130
  -5  17 -33     616     123
 -17   5 -33     397     111
  -7  17 -33     634     129
  33  -7 -17     537     124
 -17   7 -33     949     118
  33  -9 -17      91      94
 -17   9 -33      13      99
  -9  17 -33      67     106
 -17  11 -33     114      88
 -11  17 -33      10      95
 -17  13 -33      55      78
 -13  17 -33     445      78
  13  33 -19     236      91
  11  33 -19     646     107
   9  19 -33     245      93
   9  33 -19     292     102
   7  19 -33     147     100
  33   7 -19     191      86
   7  33 -19     259     113
   5  19 -33       0     102
  33   5 -19      90      90
   5  33 -19      44     112
   3  19 -33     459     112
  33   3 -19     539     107
   3  33 -19     626     110
  33   1 -19     109     102
   1  33 -19     326     103
  -1  33 -19     233      96
  33  -1 -19     102     101
  -3  19 -33     537     118
  33  -3 -19     624     114
  -5  19 -33     357     107
  33  -5 -19     407      99
  -7  19 -33     249     101
  -9  19 -33     502      97
 -11  19 -33     889      92
  21  33  -9     139      95
   9  33 -21     112      91
   7  21 -33      71      86
   7  33 -21     212      91
   5  21 -33      22      93
   5  33 -21      27      92
   3  21 -33     333     100
   3  33 -21     374      99
  33   1 -21       6      83
   1  33 -21       7      84
  -1  21 -33      61      97
  -3  21 -33     330     102
  -5  21 -33      38      85
  -7  21 -33     252      84
   1  23 -33      44      79
  -1  23 -33     117      81
   0   0 -34     554     138
  -2  -2 -34     168     119
   2   2 -34      43     121
   0  -2 -34      27     125
  -2   0 -34     574     129
   2   0 -34     333     122
   0   2 -34     197     129
   2  -2 -34      50     113
  -2   2 -34     160     124
   4   4 -34    1357     142
  -4  -4 -34    1340     151
   2   4 -34       3     129
  -2  -4 -34      70     121
  -4  -2 -34     386     125
   4   2 -34     364     112
   0  -4 -34     151     117
  -4   0 -34     409     147
   4   0 -34     419     112
   0   4 -34     130     130
   2  -4 -34     423     114
   4  -2 -34     649     109
  -4   2 -34     699     131
  -2   4 -34     590     138
  -4   4 -34    1393     165
   6   6 -34     669     135
   4  34  -6     176     137
   4   6 -34     535     131
  -4  -6 -34     424     119
  -6  -4 -34     125     129
   6   4 -34      84     110
   2   6 -34     781     141
  -2  -6 -34     661     123
  -6  -2 -34     720     140
   6   2 -34     628     118
   2  34  -6     536     133
   0   6 -34     397     128
   0  -6 -34     316     109
  -6   0 -34     247     135
  -2   6 -34     804     148
  -6   2 -34     609     154
  -6   4 -34     113     147
  -4   6 -34     450     139
  -6   6 -34     748     155
   8   8 -34    1354     123
   6  34  -8     140     146
   8   6 -34     126     107
   6   8 -34     212     122
   4   8 -34     150     132
  -8  -4 -34     192     136
   8   4 -34     257     104
   4  34  -8     365     137
   2   8 -34     113     128
  -8  -2 -34     781     125
   2  34  -8     806     129
   0   8 -34    2051     169
  -8   0 -34     801     159
  -2   8 -34     293     147
  -8   2 -34    1114     141
  -4   8 -34      91     140
  34  -8  -4      13     117
  -8   4 -34      81     142
  -8   6 -34      35     133
  -6   8 -34     134     137
  34  -8  -6      33     124
  34  -6  -8      33     122
  34  -8  -8    1416     133
  10  34 -10     248     139
  10  10 -34     266      97
   8  10 -34     199     111
   8  34 -10     117     141
   6  10 -34     306     125
   6  34 -10     582     149
   4  10 -34     465     133
 -10  -4 -34     714     139
   4  34 -10     849     145
 -10  -2 -34     746     148
   2  34 -10     550     130
  34 -10   0     563     107
   0  10 -34       5     139
 -10   0 -34      21     139
  -2  10 -34      69     137
 -10   2 -34     335     134
  34 -10  -2     366     108
  -4  10 -34     180     143
  34 -10  -4     680     120
  34  -4 -10     414     137
  34 -10  -6     293     106
  34  -6 -10      34     123
  34 -10  -8     246     107
  34  -8 -10      39     115
 -10   8 -34     344     129
  34 -10 -10      57     107
 -10  10 -34      63     124
  34  12 -12     928     109
  12  34 -12     823     139
  34  10 -12     260     106
  12  34 -10     166     137
  10  12 -34     312      98
  10  34 -12       7     132
  34   8 -12    1132     131
   8  12 -34    1051     120
   8  34 -12     567     147
  34   6 -12     623     148
   6  12 -34     506     136
   6  34 -12    2476     152
  34   4 -12     184     131
   4  12 -34      49     121
   4  34 -12     193     129
  34   2 -12     331     134
   2  12 -34     116     133
 -12  -2 -34      77     133
   2  34 -12      87     130
   0  12 -34      62     128
 -12   0 -34     341     128
  34   0 -12      14     124
  -2  12 -34      74     137
  34 -12  -2     213      95
  -4  12 -34      11     126
  34 -12  -4     134      98
  34  -4 -12     120     127
  34 -12  -6    2605     137
  34  -6 -12     801     145
 -12   6 -34    2687     154
  34 -12  -8     681     112
  34  -8 -12    1119     122
 -12   8 -34     670     118
  -8  12 -34     935     133
  34 -12 -10      34      94
  34 -10 -12      85      96
 -12  10 -34      66     115
 -10  12 -34     201     117
  34 -12 -12     679     100
 -12  12 -34     637     113
  14  34 -14      78     107
  12  34 -14     275     119
  14  34 -12     230     116
  14  34 -10      57     130
  34  14 -10     159      94
  10  14 -34     252      94
  34  10 -14     353      90
  10  34 -14      44     127
   8  14 -34      69     101
   8  34 -14     165     127
  34   8 -14     175     104
   6  14 -34     503     112
   6  34 -14     287     133
  34   6 -14     611     113
   4  14 -34     402     115
   4  34 -14     176     124
  34   4 -14     290     116
   2  14 -34    1250     139
   2  34 -14    1277     136
  34   2 -14    1485     137
   0  14 -34     335     130
  34   0 -14     778     130
  -2  14 -34     533     126
 -14   2 -34     503     114
  34  -2 -14     738     117
 -14   4 -34     125     123
  -6  14 -34     855     130
  34 -14  -6     414      91
  34  -6 -14     665     113
 -14   6 -34     276     116
  34 -14  -8     243      82
  34  -8 -14       1     106
 -14   8 -34     178     112
  -8  14 -34     156     113
  34 -14 -10      59      83
  34 -10 -14     213      97
 -14  10 -34     111     104
 -10  14 -34     315     105
 -14  12 -34     257      96
 -12  14 -34     181      94
 -14  14 -34      56      82
  14  34 -16      75      93
  16  34 -14     409      96
  12  34 -16     386     113
  16  34 -12     505     115
  16  34 -10     648     130
  10  16 -34     784      95
  10  34 -16     388     117
   8  16 -34      97      96
  34   8 -16     144      87
   8  34 -16      33     122
   6  16 -34     740     108
  34   6 -16     908     105
   6  34 -16     410     123
   4  16 -34     199     117
   4  34 -16     723     118
  34   4 -16     282     111
   2  16 -34      66     111
   2  34 -16      22     107
  34   2 -16     144     111
   0  16 -34      20     118
  34   0 -16      30     109
  34  -2 -16     100     107
  -4  16 -34     549     133
 -16   4 -34    1065     123
  -6  16 -34    1205     118
  34  -6 -16    1162     111
 -16   6 -34     549     114
  34  -8 -16      74      95
 -16   8 -34      94      95
  -8  16 -34      57     101
 -16  10 -34     390      99
 -10  16 -34     876     105
 -16  12 -34     218      82
 -12  16 -34     515      88
  18  34 -12     175      94
  10  34 -18      38      95
  18  34 -10     241     103
   8  18 -34     559      89
   8  34 -18      68     105
   6  18 -34      59      86
  34   6 -18      55      86
   6  34 -18     142     104
   4  18 -34      43      98
  34   4 -18     119      92
   4  34 -18       7     104
   2  18 -34     160     103
   2  34 -18     259      99
  34   2 -18     102      93
   0  18 -34       2     104
  34   0 -18      26      99
  34  -2 -18     523     103
  -4  18 -34     157     104
  34  -4 -18      63      89
  -6  18 -34     306      98
  -8  18 -34     873      95
 -10  18 -34     189      81
   6  20 -34      92      81
   4  20 -34      50      83
   2  20 -34     149      91
  34   2 -20     176      79
  34   0 -20      74      81
  -2  20 -34     202      92
  -4  20 -34     198      89
  -6  20 -34     102      79
  -1  -1 -35     545     122
   1   1 -35     570     125
   1  -1 -35     325     116
  -1   1 -35     206     128
  -3  -3 -35     916     127
   3   3 -35    1053     134
  -1  -3 -35     511     116
  -3  -1 -35     540     128
   3   1 -35     433     125
   1   3 -35     666     127
   1  -3 -35     520     122
   3  -1 -35     622     115
  -3   1 -35     644     145
  -1   3 -35     535     131
  -3   3 -35     463     136
   5  35  -5     415     131
  -5  -5 -35     430     116
   5   5 -35     327     109
  -3  -5 -35     271     118
  -5  -3 -35     301     125
   5   3 -35     286     110
   3   5 -35     161     112
  -1  -5 -35     199     111
  -5  -1 -35     524     118
   5   1 -35     570     104
   1   5 -35     281     130
   1  -5 -35     106      98
  -5   1 -35     298     124
  -1   5 -35      85     130
  -5   3 -35     213     137
  -3   5 -35     277     133
  -5   5 -35     393     139
   7  35  -7    2121     175
   7   7 -35    1863     151
   5   7 -35     640     123
   7   5 -35     426     109
   5  35  -7     420     137
   3   7 -35     438     123
  -7  -3 -35     251     122
   1   7 -35     283     122
  -7  -1 -35     113     117
  -7   1 -35     198     132
  -1   7 -35     455     127
  -7   3 -35     196     123
  -3   7 -35     168     132
  35  -7  -5     330     120
  35  -5  -7     461     129
  -7   5 -35     317     136
  -5   7 -35     423     130
  35  -7  -7    2761     177
  -7   7 -35    2188     190
   9   9 -35      50      88
   9  35  -9      47     136
   7   9 -35     367     113
   9  35  -7     411     142
   7  35  -9     660     137
   5   9 -35     311     117
   5  35  -9     338     132
   3   9 -35     438     127
  -9  -3 -35     711     130
   3  35  -9     929     124
   1   9 -35     516     125
  35  -9   1     166     108
  -9  -1 -35     129     128
  -1   9 -35     636     137
  35  -9  -1     353     111
  -9   1 -35     213     133
  35  -3  -9     686     134
  -9   3 -35    1068     133
  35  -9  -3    1062     119
  -3   9 -35     503     138
  -9   5 -35     242     126
  35  -9  -5     266     105
  35  -5  -9     204     114
  -5   9 -35     295     135
  35  -9  -7     517     106
  35  -7  -9     412     117
  35  -9  -9      62     100
  35  11 -11    2488     167
  11  35 -11    2076     182
  11  35  -9      81     131
  35   9 -11      65     108
   9  11 -35     109      90
   9  35 -11     105     123
  35   7 -11      34     118
   7  11 -35      11     103
   7  35 -11      68     124
  35   5 -11     249     119
   5  11 -35     386     116
   5  35 -11     805     123
  35   3 -11     527     129
   3  11 -35     673     124
   3  35 -11     622     118
  35   1 -11       3     126
   1  11 -35      30     126
 -11  -1 -35     126     124
  -1  11 -35      24     120
 -11   1 -35      53     115
  35 -11  -1     238      88
  -3  11 -35     606     137
  35 -11  -3     932     109
  35  -3 -11     854     138
  35 -11  -5     913     102
  35  -5 -11     349     117
  -5  11 -35     246     124
  35 -11  -7      71      94
  35  -7 -11      16     110
 -11   7 -35     104     111
  35 -11  -9     283      97
  35  -9 -11     125     100
 -11   9 -35     154     112
  -9  11 -35     107     105
  35 -11 -11    2484     163
 -11  11 -35    2276     172
  13  35 -13      34     103
  35  11 -13      92      74
  11  35 -13     199     111
  13  35 -11     187     119
  13  35  -9     100     121
   9  13 -35      77      84
  35  13  -9     344      98
  35   9 -13     140      96
   9  35 -13     290     121
   7  13 -35     489     104
   7  35 -13     531     124
  35   7 -13     520     110
   5  13 -35     179     107
   5  35 -13      88     113
  35   5 -13     158     107
   3  13 -35     525     114
   3  35 -13     401     110
  35   3 -13     620     117
   1  13 -35     515     128
  35   1 -13     640     122
  -1  13 -35     452     124
  35  -1 -13     600     128
  -3  13 -35     333     122
  35 -13  -5     145      84
  35  -5 -13     248     111
 -13   5 -35     156     103
  35 -13  -7     724      92
  35  -7 -13     498     111
 -13   7 -35     952     111
  -7  13 -35     779     121
  35 -13  -9     182      76
  35  -9 -13     166      91
 -13   9 -35     228      99
  -9  13 -35      92     108
  35 -11 -13     181      82
 -13  11 -35     198      95
 -11  13 -35     143      96
 -13  13 -35      95      86
  15  35 -13     148      93
  11  35 -15       9     101
  15  35 -11     239     106
  15  35  -9      39     111
   9  15 -35     104      80
  35   9 -15      99      77
   9  35 -15     287     106
   7  15 -35     599     109
  35   7 -15     742     108
   7  35 -15     580     119
   5  15 -35      56      95
   5  35 -15     291     104
  35   5 -15     221      99
   3  15 -35     241     110
   3  35 -15     402      99
  35   3 -15     320     103
   1  15 -35     514     116
  35   1 -15     699     105
  -1  15 -35     602     116
  35  -1 -15     576     105
  35  -5 -15     156      94
 -15   5 -35     376      98
  -5  15 -35     238     106
  35  -7 -15     626     107
 -15   7 -35     845     111
  -7  15 -35     645     115
  35  -9 -15     115      84
 -15   9 -35     317      86
  -9  15 -35      99      93
 -15  11 -35      28      78
 -11  15 -35     296      83
   9  35 -17     172      86
  17  35  -9       3     103
  17  35  -7     205     107
   7  17 -35     159      83
   7  35 -17      25      92
   5  17 -35     876     101
  35   5 -17    1008      92
   5  35 -17     480      93
   3  17 -35     750     104
   3  35 -17     400      92
  35   3 -17     844      93
   1  17 -35      54     100
  35   1 -17      32      93
  -1  17 -35      48     103
  35  -1 -17     114      94
  35  -3 -17    1013     102
  -5  17 -35    1131     107
  35  -7 -17     347      82
  -7  17 -35     294      91
  -9  17 -35      17      78
   5  19 -35     112      77
   3  19 -35      75      81
   1  19 -35     273      86
  35   1 -19     172      79
  35  -1 -19     136      77
  -3  19 -35      95      81
  -5  19 -35     192      79
   0   0 -36    7103     331
  -2  -2 -36     276     113
   2   2 -36     252     114
   0  -2 -36      20     107
  -2   0 -36      31     113
   2   0 -36      39     102
   0   2 -36      13     109
   2  -2 -36     317     100
  -2   2 -36     315     117
  -4  -4 -36    1818     147
   4   4 -36    1862     144
  -2  -4 -36     561     109
  -4  -2 -36     601     116
   4   2 -36     647     108
   2   4 -36     425     120
   0  -4 -36     637     103
  -4   0 -36     679     117
   0   4 -36     594     118
  -4   2 -36     441     116
  -2   4 -36     280     120
  -4   4 -36    1987     169
   6  36  -6    1871     163
   6   6 -36    2242     154
   6  36  -4      93     113
   4   6 -36     212     105
  -6  -2 -36      32     114
   2   6 -36     103     110
  -6   0 -36     399     119
   0   6 -36     825     115
  -6   2 -36      25     119
  -2   6 -36      45     120
  36  -6  -4     954     116
  36  -4  -6     453     128
  -6   4 -36     853     124
  -4   6 -36     493     125
  36  -6  -6    1834     148
  -6   6 -36    1758     158
   8  36  -8     301     123
   8  36  -6       0     119
   6  36  -8      50     115
   6   8 -36       4      94
   4   8 -36     588     108
  -8  -2 -36       5     109
   2   8 -36     155     107
  36  -8   0     539     111
  -8   0 -36     517     117
   0   8 -36    1076     120
  36  -2  -8     554     123
  -8   2 -36      36     112
  -2   8 -36     661     118
  36  -8  -2      60     101
  -8   4 -36    1183     126
  36  -8  -4    1336     114
  -4   8 -36     677     129
  36  -4  -8     766     123
  36  -8  -6     119     103
  -8   6 -36     161     113
  36  -6  -8      62     108
  -6   8 -36      85     125
  36  -8  -8     245     103
  36  10 -10     632      94
  10  36 -10     478     114
  36   8 -10     802     111
   8  36 -10     383     124
  10  36  -8     469     127
   8  10 -36     547      91
   6  10 -36     251      97
  10  36  -6     233     123
  36   6 -10     297     113
   6  36 -10     563     115
   4  10 -36     204     101
  36   4 -10     372     119
   2  10 -36     118     110
  36   2 -10      52     122
   0  10 -36     767     127
  36 -10   0    1059     111
 -10   0 -36    1069     132
 -10   2 -36      53     114
  36 -10  -2      67      84
  36  -2 -10      23     112
  -2  10 -36      19     117
 -10   4 -36     573     118
  36 -10  -4     691      99
  36  -4 -10     588     116
  -4  10 -36     333     119
  36 -10  -6     783      99
  36  -6 -10     389     101
  -6  10 -36     330     115
  36 -10  -8     508      99
  36  -8 -10     831     106
  36 -10 -10     462      87
 -10  10 -36     521     103
  12  36 -12     183     101
  36  10 -12     375      85
  10  36 -12     378     101
  12  36 -10     248     106
  36  12 -10     315      83
   8  12 -36      43      81
   8  36 -12     187     108
  36   8 -12     109      95
  12  36  -8      73     113
   6  12 -36     186      88
  12  36  -6     193     115
   6  36 -12     342     104
  36   6 -12     335     103
   4  12 -36    1523     128
  36   4 -12    1649     135
   2  12 -36     773     117
  36   2 -12     827     111
   0  12 -36     309     106
  36   0 -12     288     110
  -2  12 -36     596     116
  36  -4 -12    1353     125
  -4  12 -36    1595     137
  36 -12  -6      91      73
  36  -6 -12     298      98
 -12   6 -36     231     103
  36 -12  -8     118      71
  36  -8 -12      27      90
 -12   8 -36     254      97
  -8  12 -36     135     102
  36 -12 -10     184      69
  36 -10 -12     321      79
 -12  10 -36     283      88
 -10  12 -36     320      90
 -12  12 -36      80      81
  14  36 -10     684     106
  36   8 -14      21      80
   8  36 -14      69      92
  14  36  -8      55     105
   6  14 -36     116      92
  14  36  -6      43     106
   6  36 -14      87      87
  36   6 -14     191      87
  36   4 -14    1058     117
   4  14 -36     992     114
   2  14 -36     409      99
  36   2 -14     446      99
   0  14 -36     588     108
  36   0 -14     649     104
  -2  14 -36     459     103
  36  -4 -14     830     113
 -14   4 -36    1381     118
  36  -6 -14      63      86
 -14   6 -36      31      89
  -6  14 -36      38      92
  36  -8 -14       8      79
 -14   8 -36      85      85
  -8  14 -36      27      89
 -10  14 -36    1181     101
 -14  10 -36     641     101
  16  36  -6     270     100
   4  16 -36     634      84
  36   4 -16     548      82
   2  16 -36     356      94
  36   2 -16     357      85
   0  16 -36      99      91
  36   0 -16      43      87
  36  -2 -16     460      92
  -2  16 -36     389      93
  36  -6 -16     512      84
  -6  16 -36     564      89
  -8  16 -36     459      80
   2  18 -36     150      77
   0  18 -36     225      86
  36  -2 -18     174      71
  -1  -1 -37     852     106
   1   1 -37     856     104
   1  -1 -37    1544     116
  -1   1 -37    1511     129
   3   3 -37     105      91
  -3  -1 -37     111     102
   3   1 -37      85      87
   1   3 -37     137     102
  -3   1 -37     189     103
  -1   3 -37     249     106
  -3   3 -37     147     102
   5   5 -37     612     102
   3   5 -37     463     104
  -5  -1 -37      77     104
   1   5 -37     164     106
  -5   1 -37      43      99
  -1   5 -37      31     105
  37  -5  -3     141     107
  37  -3  -5     468     120
  -5   3 -37     111     115
  -3   5 -37     288     113
  -5   5 -37     687     123
  37  -5  -5     757     119
   5   7 -37      11      89
  37  -7   3     494      88
   3   7 -37     150      97
  37  -7   1      83      90
  -7  -1 -37      72     102
   1   7 -37     406     103
  37  -7  -1       5      91
  37  -1  -7     437     115
  -7   1 -37       4     102
  -1   7 -37     140     106
  -7   3 -37     406     106
  -3   7 -37     224     105
  37  -7  -3     221      95
  37  -3  -7     108     100
  -7   5 -37      94     105
  37  -7  -5      95      97
  -5   7 -37      36     107
  37  -5  -7      10      98
  37  -7  -7    1509     107
  -7   7 -37    1658     117
  37   9  -9     928     100
   9  37  -9     462      96
   7  37  -9     184      97
   9  37  -7     147      96
  37   5  -9     141     102
   5   9 -37     145      84
   9  37  -5     110     102
   9  37  -3     182     101
  37   3  -9      70     108
   3   9 -37     127      91
   1   9 -37     578     102
  -9   1 -37     296     103
  37  -9  -1     354      87
  -1   9 -37     674     104
  37  -1  -9     508     106
  -9   3 -37     521     101
  37  -9  -3     566      84
  37  -3  -9     212      96
  -3   9 -37     157     103
  37  -9  -5     201      81
  -9   5 -37      67      99
  37  -5  -9     176      97
  -5   9 -37      70     101
  37  -9  -7     300      85
  37  -7  -9     268      90
  -9   7 -37     203     100
  -7   9 -37     561     101
  37  -9  -9     737      89
  37   9 -11     321      78
  37   7 -11     436      89
  11  37  -7     148      96
  11  37  -5       7     100
  37   5 -11      93      94
   5  11 -37      39      80
  11  37  -3     709     107
  37   3 -11    1031     104
   3  11 -37     856      97
  37   1 -11     338     105
   1  11 -37     272      98
  -1  11 -37     558     112
 -11   3 -37     297     102
  37  -3 -11    1112     103
  -3  11 -37     886     102
  37  -5 -11      15      91
  -5  11 -37      13      93
  37  -7 -11     650      85
  37  -9 -11     219      76
 -11   9 -37      26      84
  -9  11 -37     117      82
 -11  11 -37      73      75
  13  37  -5      59     100
  37   5 -13     256      86
   5  13 -37     193      77
  37   3 -13     337      86
   3  13 -37     131      84
  37   1 -13     244      92
   1  13 -37     277      87
  37  -1 -13     102      87
  -1  13 -37     118      88
  -3  13 -37     277      91
  37  -5 -13       6      83
  37  -7 -13      35      80
 -13   7 -37     271      79
 -13   9 -37     229      74
  -9  13 -37     117      76
  37   3 -15     314      79
   3  15 -37     219      80
  37   1 -15     176      78
   1  15 -37     287      80
  37  -1 -15     272      80
  -1  15 -37     302      81
  -3  15 -37     482      87
  37  -5 -15     700      78
   0   0 -38     406      85
   2   2 -38     266      80
  -2   0 -38      87      85
   0   2 -38       9      90
  -2   2 -38     354      91
   2   4 -38     208      84
  -4   0 -38      12      91
   0   4 -38      37      87
  38  -4  -2      67     101
  38  -2  -4     210     105
  -4   2 -38     124      92
  -2   4 -38     159      93
  -4   4 -38     831     103
  38  -4  -4     905     101
   4   6 -38      98      72
  38  -6   2     183      77
   2   6 -38      52      85
  38   0  -6      31     103
  -6   0 -38       2      92
   0   6 -38       0      87
  38  -6   0       7      85
  -6   2 -38     179      91
  -2   6 -38      59      90
  38  -6  -2     142      85
  38  -2  -6      74      96
  -6   4 -38     238      91
  -4   6 -38     249      92
  38  -6  -4     290      87
  38  -4  -6     165      94
  -6   6 -38     301      89
  38  -6  -6     250      82
  38   8  -8     465      86
  38   6  -8     392      90
  38   4  -8      43      92
   4   8 -38      90      74
   2   8 -38      91      81
  38   2  -8      77      94
  38  -8   0     124      68
   0   8 -38      81      88
  -8   2 -38       1      87
  38  -8  -2      38      76
  -2   8 -38     105      90
  38  -2  -8      70      92
  -8   4 -38     189      90
  38  -8  -4     139      80
  38  -4  -8      34      83
  -4   8 -38      24      91
  38  -8  -6     187      78
  38  -6  -8     563      83
  -8   6 -38     140      88
  -6   8 -38     431      90
  38  -8  -8     294      74
  -8   8 -38     328      81
  38   6 -10      35      81
  38   4 -10     364      89
  38   2 -10      46      87
   2  10 -38      18      78
   0  10 -38     291      85
  38  -2 -10      32      85
  -2  10 -38      31      81
  38  -4 -10     312      84
 -10   4 -38     128      83
  -4  10 -38     232      85
  38  -6 -10      19      75
 -10   6 -38      56      80
  -6  10 -38      83      78
  38   4 -12     170      79
  38   2 -12      34      79
  38   0 -12     262      81
   0  12 -38     286      77
  -2  12 -38      29      80
  38  -4 -12     259      75
  -4  12 -38     396      78
  -6  12 -38      48      74
  -1   1 -39      84      73
  39  -3  -1     125      90
  39  -1  -3     273      91
  -3   1 -39      74      75
  -1   3 -39     104      77
  -3   3 -39     684      90
  39  -3  -3     938      90
  39   1  -5     605      94
  39  -5   1     175      79
  -1   5 -39     510      79
  39  -5  -1      88      77
  39  -1  -5     641      92
  -5   3 -39      10      74
  -3   5 -39     147      78
  39  -5  -3     107      77
  39  -3  -5     119      82
  -5   5 -39     111      79
  39  -5  -5     129      77
  39   5  -7      40      80
  39   3  -7     285      86
  -1   7 -39      93      80
  39  -1  -7     144      85
  -7   3 -39     107      79
  -3   7 -39      68      79
  39  -3  -7     173      78
  39  -5  -7      33      73
  -7   5 -39      22      74
  -5   7 -39      47      76
  -7   7 -39     195      72
  39   3  -9     169      78
  39  -1  -9     311      81
  39  -3  -9     105      75
  -3   9 -39     108      73
  40   2  -2     190      83
  40   0  -2       3      77
  40   2  -4     101      74
  40   0  -4    1159     100
   0   0   0       1       0

;
_shelx_hkl_checksum              23757
loop_
_space_group_symop_operation_xyz
'x, y, z'
'z, x, y'
'y, z, x'
'-y, -z, x'
'z, -x, -y'
'-y, z, -x'
'-z, -x, y'
'-z, x, -y'
'y, -z, -x'
'-x, -y, z'
'x, -y, -z'
'-x, y, -z'
'x, y+1/2, z+1/2'
'z, x+1/2, y+1/2'
'y, z+1/2, x+1/2'
'-y, -z+1/2, x+1/2'
'z, -x+1/2, -y+1/2'
'-y, z+1/2, -x+1/2'
'-z, -x+1/2, y+1/2'
'-z, x+1/2, -y+1/2'
'y, -z+1/2, -x+1/2'
'-x, -y+1/2, z+1/2'
'x, -y+1/2, -z+1/2'
'-x, y+1/2, -z+1/2'
'x+1/2, y, z+1/2'
'z+1/2, x, y+1/2'
'y+1/2, z, x+1/2'
'-y+1/2, -z, x+1/2'
'z+1/2, -x, -y+1/2'
'-y+1/2, z, -x+1/2'
'-z+1/2, -x, y+1/2'
'-z+1/2, x, -y+1/2'
'y+1/2, -z, -x+1/2'
'-x+1/2, -y, z+1/2'
'x+1/2, -y, -z+1/2'
'-x+1/2, y, -z+1/2'
'x+1/2, y+1/2, z'
'z+1/2, x+1/2, y'
'y+1/2, z+1/2, x'
'-y+1/2, -z+1/2, x'
'z+1/2, -x+1/2, -y'
'-y+1/2, z+1/2, -x'
'-z+1/2, -x+1/2, y'
'-z+1/2, x+1/2, -y'
'y+1/2, -z+1/2, -x'
'-x+1/2, -y+1/2, z'
'x+1/2, -y+1/2, -z'
'-x+1/2, y+1/2, -z'
loop_
_atom_site_label
_atom_site_type_symbol
_atom_site_fract_x
_atom_site_fract_y
_atom_site_fract_z
_atom_site_U_iso_or_equiv
_atom_site_adp_type
_atom_site_occupancy
_atom_site_site_symmetry_order
_atom_site_calc_flag
_atom_site_refinement_flags_posn
_atom_site_refinement_flags_adp
_atom_site_refinement_flags_occupancy
Co1 Co 0.89157(7) 0.39157(7) 0.10843(7) 0.0345(10) Uani 1 3 d S T P
Co2 Co 0.96904(11) 0.29588(11) 0.24490(11) 0.0584(10) Uani 1 1 d . . .
O2 O 0.9253(4) 0.2500 0.2500 0.021(2) Uani 1 2 d S T P
N2 N 0.9153(4) 0.3517(4) 0.1440(4) 0.031(3) Uani 1 1 d . . .
N3 N 0.9444(4) 0.3111(4) 0.1901(4) 0.037(3) Uani 1 1 d . . .
C16 C 0.9178(6) 0.3409(6) 0.1818(7) 0.051(4) Uani 1 1 d . . .
C17 C 0.9617(5) 0.3034(6) 0.1514(5) 0.042(4) Uani 1 1 d . . .
H17 H 0.9811 0.2837 0.1457 0.051 Uiso 1 1 calc R U .
C18 C 0.9454(5) 0.3296(6) 0.1240(6) 0.043(4) Uani 1 1 d . . .
P1 P 1.0000 0.5000 0.0000 0.038(3) Uani 1 12 d S T P
F1 F 0.9506(5) 0.5000 0.0000 0.057(4) Uani 1 2 d S T P
O1 O 1.0069(5) 0.2500 0.2500 0.048(4) Uani 1 2 d S T P
Co3 Co 0.88673(9) 0.38673(9) 0.38673(9) 0.0496(13) Uani 1 3 d S T P
N6 N 0.9229(5) 0.3668(5) 0.3426(5) 0.048(4) Uani 1 1 d . . .
C14 C 0.8927(7) 0.2973(7) 0.3274(7) 0.062(5) Uani 1 1 d . . .
H14A H 0.8847 0.2948 0.3552 0.094 Uiso 1 1 calc R U .
H14B H 0.9035 0.2719 0.3181 0.094 Uiso 1 1 calc R U .
H14C H 0.8696 0.3045 0.3112 0.094 Uiso 1 1 calc R U .
C12 C 0.9496(7) 0.3885(7) 0.3281(8) 0.064(6) Uani 1 1 d . . .
H12 H 0.9548 0.4150 0.3360 0.076 Uiso 1 1 calc R U .
N5 N 0.9511(4) 0.3302(4) 0.2923(4) 0.035(3) Uani 1 1 d . . .
C15 C 0.8882(6) 0.3529(6) 0.2165(6) 0.054(5) Uani 1 1 d . . .
H15A H 0.8757 0.3785 0.2101 0.081 Uiso 1 1 calc R U .
H15B H 0.9029 0.3553 0.2414 0.081 Uiso 1 1 calc R U .
H15C H 0.8676 0.3325 0.2192 0.081 Uiso 1 1 calc R U .
C13 C 0.9223(6) 0.3274(6) 0.3238(5) 0.046(4) Uani 1 1 d . . .
C11 C 0.9702(6) 0.3683(6) 0.2990(7) 0.054(5) Uani 1 1 d . . .
P2 P 0.7557(4) 0.5000 0.0000 0.083(3) Uani 1 2 d S T P
F2 F 0.7990(8) 0.5000 0.0000 0.119(10) Uani 1 2 d S T P
F4 F 0.7511(6) 0.4695(6) 0.0387(5) 0.095(5) Uani 1 1 d . . .
F3 F 0.7560(9) 0.5390(7) 0.0299(7) 0.136(9) Uani 1 1 d . . .
O3 O 0.9238(6) 0.4238(6) 0.4238(6) 0.085(9) Uani 1 3 d S T P
H3A H 0.9299 0.4482 0.4770 0.127 Uiso 0.3333 1 d R U P
H3B H 0.9734 0.4551 0.4262 0.127 Uiso 0.3333 1 d R U P
C7 C 1.0388(6) 0.3622(6) 0.1776(6) 0.046(4) Uani 1 1 d . . .
N4 N 1.0109(6) 0.3472(6) 0.2419(7) 0.070(5) Uani 1 1 d . . .
C9 C 1.0513(7) 0.3531(10) 0.2195(7) 0.072(7) Uani 1 1 d . . .
H9A H 1.0666 0.3754 0.2311 0.086 Uiso 1 1 calc R U .
H9B H 1.0676 0.3286 0.2206 0.086 Uiso 1 1 calc R U .
C6 C 1.0601(6) 0.3465(7) 0.1461(7) 0.059(5) Uani 1 1 d . . .
H6 H 1.0790 0.3264 0.1521 0.071 Uiso 1 1 calc R U .
C10 C 1.0071(6) 0.3727(5) 0.2697(5) 0.041(4) Uani 1 1 d . . .
H10 H 1.0257 0.3936 0.2729 0.049 Uiso 1 1 calc R U .
C4 C 1.0259(5) 0.3868(7) 0.0949(6) 0.051(5) Uani 1 1 d . . .
H4 H 1.0208 0.3946 0.0683 0.061 Uiso 1 1 calc R U .
C5 C 1.0562(6) 0.3580(7) 0.1051(6) 0.053(5) Uani 1 1 d . . .
H5 H 1.0731 0.3471 0.0853 0.064 Uiso 1 1 calc R U .
C3 C 1.0025(7) 0.4039(6) 0.1301(5) 0.054(5) Uani 1 1 d . . .
C8 C 1.0100(5) 0.3911(6) 0.1681(6) 0.048(4) Uani 1 1 d . . .
H8 H 0.9949 0.4023 0.1891 0.058 Uiso 1 1 calc R U .
C2 C 0.9721(7) 0.4385(6) 0.1189(6) 0.055(5) Uani 1 1 d . . .
H2A H 0.9805 0.4635 0.1318 0.066 Uiso 1 1 calc R U .
H2B H 0.9723 0.4427 0.0898 0.066 Uiso 1 1 calc R U .
N1 N 0.9329(4) 0.4288(4) 0.1314(4) 0.029(2) Uani 1 1 d . . .
C1 C 0.9166(6) 0.4525(7) 0.1625(6) 0.055(5) Uani 1 1 d . . .
H1 H 0.9318 0.4716 0.1767 0.066 Uiso 1 1 calc R U .
F5 F 0.7082(9) 0.5000 0.0000 0.143(12) Uani 1 2 d S T P
loop_
_atom_site_aniso_label
_atom_site_aniso_U_11
_atom_site_aniso_U_22
_atom_site_aniso_U_33
_atom_site_aniso_U_23
_atom_site_aniso_U_13
_atom_site_aniso_U_12
Co1 0.0345(10) 0.0345(10) 0.0345(10) 0.0022(10) 0.0022(10) -0.0022(10)
Co2 0.064(2) 0.0600(19) 0.0514(19) 0.0055(16) 0.0000(15) 0.0069(16)
O2 0.022(6) 0.024(6) 0.015(5) 0.000(5) 0.000 0.000
N2 0.041(7) 0.027(6) 0.026(6) 0.009(5) 0.016(5) 0.005(5)
N3 0.042(7) 0.030(6) 0.040(7) -0.009(5) 0.000(6) 0.004(6)
C16 0.051(10) 0.043(10) 0.059(11) 0.014(9) -0.006(9) -0.004(8)
C17 0.034(8) 0.048(9) 0.044(9) -0.011(8) 0.001(7) 0.007(7)
C18 0.030(8) 0.049(10) 0.050(10) 0.010(8) 0.006(7) 0.003(7)
P1 0.038(3) 0.038(3) 0.038(3) 0.000 0.000 0.000
F1 0.051(9) 0.048(8) 0.071(10) 0.009(8) 0.000 0.000
O1 0.043(9) 0.052(9) 0.048(9) 0.008(9) 0.000 0.000
Co3 0.0496(13) 0.0496(13) 0.0496(13) -0.0025(13) -0.0025(13) -0.0025(13)
N6 0.057(9) 0.037(7) 0.050(9) -0.012(7) 0.003(7) 0.001(7)
C14 0.063(12) 0.055(11) 0.069(13) -0.006(10) 0.024(11) 0.008(10)
C12 0.059(12) 0.044(10) 0.088(16) 0.008(11) 0.016(11) 0.000(10)
N5 0.029(6) 0.035(7) 0.041(7) -0.001(6) 0.005(5) -0.003(5)
C15 0.060(11) 0.048(10) 0.055(11) 0.003(8) 0.000(9) -0.023(9)
C13 0.043(9) 0.059(11) 0.037(8) -0.003(8) 0.007(7) 0.001(8)
C11 0.052(11) 0.047(10) 0.062(12) -0.007(9) 0.016(9) -0.008(8)
P2 0.084(7) 0.073(6) 0.092(7) 0.005(5) 0.000 0.000
F2 0.076(14) 0.18(3) 0.105(18) 0.07(2) 0.000 0.000
F4 0.098(11) 0.103(12) 0.083(10) -0.002(9) -0.005(10) -0.001(11)
F3 0.19(2) 0.105(13) 0.110(14) 0.050(12) -0.067(16) -0.044(16)
O3 0.085(9) 0.085(9) 0.085(9) -0.004(10) -0.004(10) -0.004(10)
C7 0.044(9) 0.043(9) 0.052(10) 0.004(8) -0.002(8) -0.005(8)
N4 0.056(10) 0.073(12) 0.083(14) 0.003(11) 0.031(10) -0.007(9)
C9 0.052(12) 0.11(2) 0.054(12) -0.017(13) 0.023(10) -0.020(13)
C6 0.053(11) 0.055(11) 0.071(13) 0.003(11) -0.004(10) 0.017(9)
C10 0.056(10) 0.035(8) 0.032(7) -0.002(7) 0.001(7) 0.003(7)
C4 0.032(8) 0.083(14) 0.038(9) -0.013(9) 0.007(7) -0.011(9)
C5 0.051(10) 0.073(13) 0.036(9) 0.000(9) 0.005(8) 0.018(10)
C3 0.067(12) 0.062(12) 0.034(9) -0.008(8) 0.009(9) 0.020(10)
C8 0.041(9) 0.048(10) 0.055(10) 0.013(9) 0.018(8) 0.022(8)
C2 0.063(12) 0.049(10) 0.052(11) 0.014(9) 0.018(9) -0.009(9)
N1 0.032(6) 0.034(6) 0.021(5) 0.007(5) 0.004(5) -0.003(5)
C1 0.049(10) 0.073(13) 0.043(10) 0.015(9) -0.019(8) -0.021(10)
F5 0.074(16) 0.17(3) 0.19(3) 0.01(3) 0.000 0.000
loop_
_atom_type_symbol
_atom_type_description
_atom_type_scat_dispersion_real
_atom_type_scat_dispersion_imag
_atom_type_scat_source
C C 0.0181 0.0091 'International Tables Vol C Tables 4.2.6.8 and 6.1.1.4'
H H 0.0000 0.0000 'International Tables Vol C Tables 4.2.6.8 and 6.1.1.4'
N N 0.0311 0.0180 'International Tables Vol C Tables 4.2.6.8 and 6.1.1.4'
O O 0.0492 0.0322 'International Tables Vol C Tables 4.2.6.8 and 6.1.1.4'
F F 0.0727 0.0534 'International Tables Vol C Tables 4.2.6.8 and 6.1.1.4'
P P 0.2955 0.4335 'International Tables Vol C Tables 4.2.6.8 and 6.1.1.4'
Co Co -2.3653 3.6143 'International Tables Vol C Tables 4.2.6.8 and 6.1.1.4'
loop_
_geom_angle_atom_site_label_1
_geom_angle_atom_site_label_2
_geom_angle_atom_site_label_3
_geom_angle
_geom_angle_site_symmetry_1
_geom_angle_site_symmetry_3
N2 Co1 N2 96.3(5) . 45_556
N2 Co1 N2 96.3(5) . 20_645
N2 Co1 N2 96.3(5) 45_556 20_645
N2 Co1 N1 84.7(5) . 45_556
N2 Co1 N1 84.8(5) 45_556 45_556
N2 Co1 N1 178.4(6) 20_645 45_556
N2 Co1 N1 178.4(6) . 20_645
N2 Co1 N1 84.7(5) 45_556 20_645
N2 Co1 N1 84.8(5) 20_645 20_645
N1 Co1 N1 94.2(5) 45_556 20_645
N2 Co1 N1 84.9(5) . .
N2 Co1 N1 178.4(6) 45_556 .
N2 Co1 N1 84.7(5) 20_645 .
N1 Co1 N1 94.2(5) 45_556 .
N1 Co1 N1 94.2(5) 20_645 .
O1 Co2 N5 123.5(4) . .
O1 Co2 N3 121.1(4) . .
N5 Co2 N3 115.4(6) . .
O1 Co2 O2 82.8(5) . .
N5 Co2 O2 98.1(4) . .
N3 Co2 O2 88.6(4) . .
O1 Co2 N4 101.5(7) . .
N5 Co2 N4 77.7(7) . .
N3 Co2 N4 91.2(7) . .
O2 Co2 N4 175.2(6) . .
Co2 O2 Co2 93.1(5) . 23
C16 N2 C18 105.4(15) . .
C16 N2 Co1 142.8(13) . .
C18 N2 Co1 110.9(10) . .
C16 N3 C17 102.1(15) . .
C16 N3 Co2 128.3(13) . .
C17 N3 Co2 126.1(11) . .
N2 C16 N3 115.9(19) . .
N2 C16 C15 126.6(18) . .
N3 C16 C15 116.5(17) . .
C18 C17 N3 108.9(15) . .
C17 C18 C1 134.0(18) . 45_556
C17 C18 N2 107.4(15) . .
C1 C18 N2 118.6(17) 45_556 .
F1 P1 F1 180.0 . 10_765
F1 P1 F1 90.000(1) . 14_644
F1 P1 F1 90.000(1) 10_765 14_644
F1 P1 F1 90.000(1) . 39_554
F1 P1 F1 90.000(1) 10_765 39_554
F1 P1 F1 90.0 14_644 39_554
F1 P1 F1 90.000(1) . 17_665
F1 P1 F1 90.000(1) 10_765 17_665
F1 P1 F1 180.0 14_644 17_665
F1 P1 F1 90.0 39_554 17_665
F1 P1 F1 90.000(1) . 42_656
F1 P1 F1 90.000(1) 10_765 42_656
F1 P1 F1 90.0 14_644 42_656
F1 P1 F1 180.0 39_554 42_656
F1 P1 F1 90.0 17_665 42_656
Co2 O1 Co2 101.4(8) 23 .
N6 Co3 N6 113.2(4) 38_545 27_554
N6 Co3 N6 113.2(4) 38_545 .
N6 Co3 N6 113.2(4) 27_554 .
N6 Co3 O3 105.4(5) 38_545 .
N6 Co3 O3 105.4(5) 27_554 .
N6 Co3 O3 105.4(5) . .
C12 N6 C13 111.6(17) . .
C12 N6 Co3 121.4(15) . .
C13 N6 Co3 127.1(13) . .
N6 C12 C11 110(2) . .
C13 N5 C11 104.0(15) . .
C13 N5 Co2 136.9(12) . .
C11 N5 Co2 119.1(12) . .
C14 C13 N5 125.3(17) . .
C14 C13 N6 128.0(17) . .
N5 C13 N6 104.4(15) . .
C12 C11 N5 108.8(17) . .
C12 C11 C10 141.9(18) . .
N5 C11 C10 109.3(15) . .
F2 P2 F5 180.0 . .
F2 P2 F3 89.7(11) . .
F5 P2 F3 90.3(11) . .
F2 P2 F3 89.7(11) . 11_565
F5 P2 F3 90.3(11) . 11_565
F3 P2 F3 179(2) . 11_565
F2 P2 F4 95.3(8) . .
F5 P2 F4 84.7(8) . .
F3 P2 F4 90.8(9) . .
F3 P2 F4 89.3(9) 11_565 .
F2 P2 F4 95.3(8) . 11_565
F5 P2 F4 84.7(8) . 11_565
F3 P2 F4 89.3(9) . 11_565
F3 P2 F4 90.8(9) 11_565 11_565
F4 P2 F4 169.4(16) . 11_565
C6 C7 C8 116.4(18) . .
C6 C7 C9 119.8(19) . .
C8 C7 C9 123(2) . .
C10 N4 C9 110.8(19) . .
C10 N4 Co2 115.0(13) . .
C9 N4 Co2 131.9(17) . .
C7 C9 N4 103.6(19) . .
C7 C6 C5 125.8(19) . .
N4 C10 C11 118.1(17) . .
C5 C4 C3 115.4(17) . .
C6 C5 C4 118.1(17) . .
C8 C3 C4 120.6(18) . .
C8 C3 C2 124.5(16) . .
C4 C3 C2 114.9(17) . .
C3 C8 C7 123.6(17) . .
N1 C2 C3 111.1(15) . .
C1 N1 C2 116.3(15) . .
C1 N1 Co1 111.3(11) . .
C2 N1 Co1 131.8(13) . .
C18 C1 N1 114.5(17) 20_645 .
loop_
_geom_bond_atom_site_label_1
_geom_bond_atom_site_label_2
_geom_bond_distance
_geom_bond_site_symmetry_2
Co1 N2 1.928(12) .
Co1 N2 1.928(12) 45_556
Co1 N2 1.928(12) 20_645
Co1 N1 1.983(13) 45_556
Co1 N1 1.983(13) 20_645
Co1 N1 1.983(13) .
Co2 O1 1.968(11) .
Co2 N5 2.019(14) .
Co2 N3 2.043(15) .
Co2 O2 2.096(9) .
Co2 N4 2.19(2) .
O2 Co2 2.096(9) 23
N2 C16 1.30(2) .
N2 C18 1.40(2) .
N3 C16 1.35(2) .
N3 C17 1.42(2) .
C16 C15 1.55(3) .
C17 C18 1.36(3) .
C18 C1 1.38(3) 45_556
P1 F1 1.630(16) .
P1 F1 1.630(16) 10_765
P1 F1 1.630(16) 14_644
P1 F1 1.630(16) 39_554
P1 F1 1.630(16) 17_665
P1 F1 1.630(16) 42_656
O1 Co2 1.968(11) 23
Co3 N6 1.994(15) 38_545
Co3 N6 1.994(15) 27_554
Co3 N6 1.994(15) .
Co3 O3 2.12(3) .
N6 C12 1.23(3) .
N6 C13 1.44(2) .
C14 C13 1.40(3) .
C12 C11 1.35(3) .
N5 C13 1.41(2) .
N5 C11 1.42(2) .
C11 C10 1.56(3) .
P2 F2 1.43(3) .
P2 F5 1.57(3) .
P2 F3 1.62(3) .
P2 F3 1.62(3) 11_565
P2 F4 1.631(18) .
P2 F4 1.632(18) 11_565
C7 C6 1.36(3) .
C7 C8 1.38(3) .
C7 C9 1.47(3) .
N4 C10 1.25(3) .
N4 C9 1.53(3) .
C6 C5 1.41(3) .
C4 C5 1.42(3) .
C4 C3 1.50(2) .
C3 C8 1.34(3) .
C3 C2 1.56(3) .
C2 N1 1.39(2) .
N1 C1 1.40(3) .
C1 C18 1.38(3) 20_645
loop_
_platon_squeeze_void_nr
_platon_squeeze_void_average_x
_platon_squeeze_void_average_y
_platon_squeeze_void_average_z
_platon_squeeze_void_volume
_platon_squeeze_void_count_electrons
_platon_squeeze_void_content
1 0.000 -0.002 -0.001 13335 3689 ' '
2 0.750 0.250 0.250 357 174 ' '
3 0.250 0.250 0.750 357 174 ' '
4 0.250 0.750 0.250 357 174 ' '
5 0.750 0.750 0.750 357 174 ' '
