#------------------------------------------------------------------------------
#$Date: 2017-09-15 02:03:24 +0300 (Fri, 15 Sep 2017) $
#$Revision: 200898 $
#$URL: file:///home/coder/svn-repositories/cod/cif/4/12/64/4126406.cif $
#------------------------------------------------------------------------------
#
# This file is available in the Crystallography Open Database (COD),
# http://www.crystallography.net/
#
# All data on this site have been placed in the public domain by the
# contributors.
#
data_4126406
loop_
_publ_author_name
'Park, Sarah S.'
'Tulchinsky, Yuri'
'Dinc\(a, Mircea'
_publ_section_title
;
 Single-Ion Li(+), Na(+), and Mg(2+) Solid Electrolytes Supported by a
 Mesoporous Anionic Cu-Azolate Metal-Organic Framework.
;
_journal_name_full               'Journal of the American Chemical Society'
_journal_paper_doi               10.1021/jacs.7b06197
_journal_year                    2017
_chemical_formula_sum            'C4.5 H1.5 Cl0.75 Cu0.75 N2.25 O0.75'
_chemical_formula_weight         173.32
_space_group_crystal_system      trigonal
_space_group_IT_number           166
_space_group_name_Hall           '-R 3 2"'
_space_group_name_H-M_alt        'R -3 m :H'
_symmetry_space_group_name_Hall  '-R 3 2"'
_symmetry_space_group_name_H-M   'R -3 m :H'
_atom_sites_solution_hydrogens   geom
_atom_sites_solution_primary     direct
_atom_sites_solution_secondary   difmap
_audit_creation_method           SHELXL-2016/6
_cell_angle_alpha                90
_cell_angle_beta                 90
_cell_angle_gamma                120
_cell_formula_units_Z            24
_cell_length_a                   38.819(4)
_cell_length_b                   38.819(4)
_cell_length_c                   7.7932(12)
_cell_measurement_reflns_used    660
_cell_measurement_temperature    373(2)
_cell_measurement_theta_max      34.29
_cell_measurement_theta_min      2.28
_cell_volume                     10170(2)
_computing_cell_refinement       'SAINT 7.46A (Bruker-AXS, 2015)'
_computing_data_collection       'APEX2 v2011.4.0 (Bruker-AXS, 2015)'
_computing_data_reduction        'SAINT 7.46A (Bruker-AXS, 2015)'
_computing_molecular_graphics    'Bruker SHELXTL'
_computing_publication_material  'Bruker SHELXTL'
_computing_structure_refinement  'SHELXL-2016/6 (Sheldrick, 2016)'
_computing_structure_solution    'SHELXT 2014/4 (Sheldrick, 2014)'
_diffrn_ambient_temperature      373(2)
_diffrn_detector_area_resol_mean 8.3
_diffrn_measured_fraction_theta_full 0.994
_diffrn_measured_fraction_theta_max 0.994
_diffrn_measurement_device_type  'Bruker Smart APEX2 CCD'
_diffrn_measurement_method       '\f and \w scans'
_diffrn_radiation_type           CuK\a
_diffrn_radiation_wavelength     1.54178
_diffrn_reflns_av_R_equivalents  0.1983
_diffrn_reflns_av_unetI/netI     0.0741
_diffrn_reflns_Laue_measured_fraction_full 0.994
_diffrn_reflns_Laue_measured_fraction_max 0.994
_diffrn_reflns_limit_h_max       28
_diffrn_reflns_limit_h_min       -29
_diffrn_reflns_limit_k_max       30
_diffrn_reflns_limit_k_min       -29
_diffrn_reflns_limit_l_max       5
_diffrn_reflns_limit_l_min       -6
_diffrn_reflns_number            9731
_diffrn_reflns_point_group_measured_fraction_full 0.994
_diffrn_reflns_point_group_measured_fraction_max 0.994
_diffrn_reflns_theta_full        37.333
_diffrn_reflns_theta_max         37.333
_diffrn_reflns_theta_min         2.276
_diffrn_source
'I\mS micro-focus sealed tube, multilayer optics'
_exptl_absorpt_coefficient_mu    2.314
_exptl_absorpt_correction_T_max  0.7503
_exptl_absorpt_correction_T_min  0.5461
_exptl_absorpt_correction_type   multi-scan
_exptl_absorpt_process_details   'SADABS (Sheldrick, 2009)'
_exptl_crystal_colour            yellow
_exptl_crystal_density_diffrn    0.679
_exptl_crystal_density_method    'not measured'
_exptl_crystal_description       needle
_exptl_crystal_F_000             2034
_exptl_crystal_size_max          0.100
_exptl_crystal_size_mid          0.005
_exptl_crystal_size_min          0.002
_refine_diff_density_max         0.168
_refine_diff_density_min         -0.249
_refine_diff_density_rms         0.040
_refine_ls_extinction_method     none
_refine_ls_goodness_of_fit_ref   0.699
_refine_ls_hydrogen_treatment    constr
_refine_ls_matrix_type           full
_refine_ls_number_parameters     100
_refine_ls_number_reflns         622
_refine_ls_number_restraints     228
_refine_ls_restrained_S_all      0.589
_refine_ls_R_factor_all          0.0550
_refine_ls_R_factor_gt           0.0401
_refine_ls_shift/su_max          0.015
_refine_ls_shift/su_mean         0.004
_refine_ls_structure_factor_coef Fsqd
_refine_ls_weighting_details
'w=1/[\s^2^(Fo^2^)+(0.1821P)^2^+15.2817P] where P=(Fo^2^+2Fc^2^)/3'
_refine_ls_weighting_scheme      calc
_refine_ls_wR_factor_gt          0.1405
_refine_ls_wR_factor_ref         0.1586
_reflns_Friedel_coverage         0.000
_reflns_number_gt                439
_reflns_number_total             622
_reflns_threshold_expression     'I > 2\s(I)'
_cod_data_source_file            ja7b06197_si_003.cif
_cod_data_source_block           MIT-20d
_cod_original_cell_volume        10170(3)
_cod_original_formula_sum        'C4.50 H1.50 Cl0.75 Cu0.75 N2.25 O0.75'
_cod_database_code               4126406
_shelx_shelxl_version_number     2016/6
_shelx_space_group_comment
; 
The symmetry employed for this shelxl refinement is uniquely defined 
by the following loop, which should always be used as a source of 
symmetry information in preference to the above space-group names. 
They are only intended as comments. 
;
_shelx_estimated_absorpt_t_min   0.802
_shelx_estimated_absorpt_t_max   0.995
_shelx_res_file
; 
TITL X15015_100C_a.res in R-3m 
    cu100_sq.res 
    created by SHELXL-2016/6 at 13:56:56 on 11-Jan-2017 
REM Old TITL X15015_100C in R-3m 
  
REM SHELXT solution in R-3m 
REM R1 0.174,  Rweak 0.016,  Alpha 0.035,  Orientation as input 
REM Formula found by SHELXT:  C7 N2 O Cl Cu 
  
CELL  1.54178  38.8186  38.8186   7.7932   90.000   90.000  120.000 
ZERR   24.000   0.0041   0.0041   0.0012    0.000    0.000    0.000 
LATT  3 
SYMM -Y, X-Y, Z 
SYMM -X+Y, -X, Z 
SYMM Y, X, -Z 
SYMM X-Y, -Y, -Z 
SYMM -X, -X+Y, -Z 
SFAC C H N O CL CU 
UNIT 108 36 54 18 18 18 
LIST 4 
TEMP 99.830 
SIZE 0.002 0.005 0.10 
  
OMIT  -2   4   0   ! outlier, Fo > Fc 
OMIT  -2   6   1   ! Outlier, Fo > Fc 
OMIT  -3   5   1   ! Outlier, Fo > Fc 
OMIT  -1   4   1   ! Outlier, Fo > Fc 
  
ACTA 
  
L.S. 10 0   42 
BOND $H 
FMAP 2 
PLAN 10 
  
SIMU 
RIGU 
  
ABIN 
WGHT    0.182100   15.281700 
FVAR       0.12721 
CU1   6    0.666667    0.634665    0.833333    10.50000    0.06921    0.06680 = 
         0.05242   -0.00204   -0.00409    0.03460 
CL1   5    0.725122    0.666667    0.666667    10.50000    0.09113    0.13341 = 
         0.07157    0.00125    0.00063    0.06671 
SAME N1 N2B > O1B 
FLAT N1 > O1A 
N1    3    0.642983    0.642983    0.500000    10.50000    0.04955    0.04955 = 
         0.05042    0.00197   -0.00197    0.00954 
PART   1 
N2A   3    0.629471    0.617706    0.633432    10.50000    0.05784    0.03101 = 
         0.05367   -0.00253   -0.00004    0.01223 
C1A   1    0.593598    0.586984    0.587739    10.50000    0.05410    0.04087 = 
         0.04114    0.00091   -0.00482    0.01145 
C2A   1    0.567826    0.553561    0.673901    10.50000    0.06133    0.04671 = 
         0.03841    0.00154   -0.00801    0.00600 
AFIX  43 
H2A   2    0.574374    0.548706    0.782545    10.50000   -1.20000 
AFIX   0 
C3A   1    0.533360    0.527828    0.603638    10.50000    0.05508    0.06613 = 
         0.05223    0.00807   -0.00495   -0.00247 
O1A   4    0.506941    0.493059    0.690416    10.25000    0.07109    0.07109 = 
         0.06883    0.00977   -0.00977   -0.01549 
  
PART   2 
N2B   3    0.633496    0.613683    0.613969    10.50000    0.04605    0.04517 = 
         0.04345    0.00056    0.01412    0.01289 
C1B   1    0.597409    0.583494    0.569680    10.50000    0.05075    0.03977 = 
         0.03213   -0.00471   -0.00016    0.01632 
C2B   1    0.573457    0.547527    0.643326    10.50000    0.05201    0.04262 = 
         0.03459   -0.00549    0.00177    0.01147 
AFIX  43 
H2B   2    0.580650    0.539868    0.743997    10.50000   -1.20000 
AFIX   0 
C3B   1    0.539208    0.523795    0.564402    10.50000    0.06698    0.05778 = 
         0.04034    0.00530   -0.00459   -0.00924 
O1B   4    0.514346    0.485654    0.627475    10.25000    0.07616    0.07616 = 
         0.02735    0.01596   -0.01596   -0.02444 
PART   0 
  
HKLF 4 
  
  
  
  
REM  X15015_100C_a.res in R-3m 
REM R1 =  0.0401 for     439 Fo > 4sig(Fo)  and  0.0550 for all     622 data 
REM    100 parameters refined using    228 restraints 
  
END 
  
WGHT      0.0625      0.0000 
  
REM Highest difference peak  0.168,  deepest hole -0.249,  1-sigma level  0.040 
Q1    1   0.6833  0.6667  0.6667  10.50000  0.05    0.17 
Q2    1   0.6941  0.6167  0.7586  11.00000  0.05    0.15 
Q3    1   0.6705  0.6500  0.6442  11.00000  0.05    0.14 
Q4    1   0.5071  0.4929  0.8766  10.50000  0.05    0.14 
Q5    1   0.5623  0.5782  0.8380  11.00000  0.05    0.13 
Q6    1   0.5964  0.5965  0.5000  10.50000  0.05    0.12 
Q7    1   0.5231  0.4769  0.7824  10.50000  0.05    0.12 
Q8    1   0.6008  0.5509  0.5248  11.00000  0.05    0.11 
Q9    1   0.5746  0.5264  0.7175  11.00000  0.05    0.10 
Q10   1   0.5489  0.5512  0.8371  11.00000  0.05    0.10 
;
_shelx_res_checksum              89406
_shelx_hkl_file
; 
   1  -2   0 5820.32  741.33 
   1  -2   0 5892.11  742.03 
   1   1   0 5788.92  741.73 
  -2   1   0 5810.22  741.13 
  -1   2   0 5468.75  741.33 
  -1  -1   0 6551.74  743.43 
   2  -1   0 5572.94  741.33 
   2  -1   0 6027.20  741.23 
  -1  -1   0 6144.99  741.63 
   0  -3   0 9330.97 1168.58 
   0  -3   0 9411.16 1163.98 
   3   0   0 9120.09 1163.28 
   3   0   0 8996.80 1162.28 
  -3   0   0 9999.00 1163.38 
  -3   0   0 9644.43 1162.28 
   3  -3   0 8805.02 1163.48 
   3  -3   0 8664.23 1162.68 
   0   3   0 9189.08 1162.38 
   2  -4   0  950.60  122.19 
   2  -4   0  817.22  114.39 
  -4   2   0  913.71  113.89 
   2   2   0  881.11  116.99 
   4  -2   0  788.32  114.49 
  -2  -2   0  889.81  117.39 
  -2   4   0  812.72  114.39 
   4  -2   0  909.31  114.39 
  -2  -2   0  978.20  129.39 
   4  -5   0 1328.17  159.18 
   4  -5   0 1352.56  166.28 
   1   4   0 1086.49  155.08 
   4  -5   0 1137.79  154.78 
   4  -5   0 1181.08  155.88 
   1   4   0 1366.06  162.58 
  -1  -4   0 1345.87  183.88 
   5  -1   0 1392.06  158.08 
  -4   5   0 1168.18  155.08 
  -1  -4   0 1186.28  155.78 
  -1  -4   0 1391.96  166.08 
   5  -1   0 1181.38  155.08 
   4   1   0 1399.76  173.58 
   1  -5   0 1215.28  165.48 
   1  -5   0 1404.46  167.58 
   1  -5   0 1390.56  177.88 
   1  -5   0 1346.17  209.98 
  -4  -1   0 1449.15  179.48 
  -1   5   0 1115.99  164.68 
   5  -4   0 1361.66  172.68 
   5  -4   0 1149.08  164.68 
   5  -4   0 1393.86  168.88 
  -4  -1   0 1444.96  169.78 
  -6   3   0 2436.36  294.87 
   3   3   0 2678.63  298.97 
   3  -6   0 2773.82  303.37 
   3  -6   0 2424.76  294.87 
   3  -6   0 2026.80  293.27 
  -3  -3   0 2042.40  292.67 
   6  -3   0 2382.26  297.47 
  -3  -3   0 2681.23  298.97 
  -3  -3   0 2774.72  315.57 
  -3   6   0 1956.30  292.37 
   6  -3   0 2448.75  294.97 
   6  -3   0 2260.07  295.77 
   6  -3   0 2022.90  292.47 
   6   0   0 3253.87  396.16 
   0  -6   0 3263.37  406.06 
   0  -6   0 2808.12  429.36 
  -6   6   0 3080.89  396.46 
   6   0   0 2882.61  398.16 
   0  -6   0 3146.09  397.36 
   0   6   0 3052.39  396.56 
   6  -6   0 3164.98  396.56 
  -6   0   0 3117.79  402.36 
   6  -6   0 3413.86  400.76 
   6  -6   0 3302.97  404.36 
   0   6   0 3187.28  400.56 
   6  -6   0 3186.28  396.46 
   5  -7   0   17.20   23.40 
   2   5   0   -0.10   15.00 
   2   5   0   70.49   51.69 
   5  -7   0  -21.70   64.79 
   5  -7   0    1.60   22.50 
   5  -7   0   52.89   40.80 
   7  -2   0    7.70   13.30 
  -2  -5   0  197.38  106.19 
  -2  -5   0  124.39   57.39 
   7  -2   0   30.40   37.70 
  -5   7   0   20.00   14.40 
  -2  -5   0    7.20   19.80 
   5   2   0  104.09   63.29 
   2  -7   0   20.70   64.79 
   2  -7   0   -5.30   22.10 
   5   2   0   13.10   16.20 
   2  -7   0   -7.30  128.99 
   2  -7   0   64.89   30.90 
   7  -5   0    8.90   16.30 
   7  -5   0   70.29   50.89 
   7  -5   0   62.19   43.50 
  -5  -2   0  169.28   46.90 
  -2   7   0    4.10   16.00 
  -5  -2   0   79.79   15.50 
  -5  -2   0   87.49   77.29 
   1   7   0 1974.00  227.48 
   1   7   0 1739.23  238.18 
   7  -8   0 1867.21  228.38 
   7  -8   0 1849.42  229.28 
   7  -8   0 1683.03  233.78 
   7  -8   0 1318.67  269.57 
   7  -8   0 1331.27  242.18 
  -1  -7   0 2016.30  228.88 
   8  -1   0 1911.11  227.08 
   8  -1   0 1547.55  230.68 
  -1  -7   0 1653.23  275.77 
  -7   8   0 2031.30  227.68 
  -1  -7   0 1410.46  241.68 
   4   4   0  850.81  100.99 
   4  -8   0  601.64  107.59 
   4  -8   0  269.27  160.38 
   4  -8   0  556.34  124.09 
   4  -8   0  751.72  103.29 
   4  -8   0  795.52  103.09 
   4   4   0  734.93  123.39 
  -4  -4   0  441.96  143.09 
  -4  -4   0  925.91  101.39 
   8  -4   0  578.74  107.79 
  -4  -4   0  656.33  118.39 
   8  -4   0  907.61  100.79 
   8  -4   0  750.92  111.49 
  -4   8   0  959.40  100.89 
   1  -8   0 1382.26  244.78 
  -8   7   0 1987.90  225.78 
   7   1   0 1845.92  224.78 
   1  -8   0 1983.10  227.48 
   1  -8   0 1376.66  270.37 
  -7  -1   0 1556.94  244.08 
  -1   8   0 1434.86  231.58 
   8  -7   0 1437.16  238.48 
  -1   8   0 1944.71  225.78 
   8  -7   0 1766.92  232.68 
   8  -7   0 1926.11  225.78 
   8  -7   0 1808.52  225.68 
   6  -9   0    9.10   24.80 
   6  -9   0   30.40   27.10 
   6  -9   0  -24.30   44.50 
   6  -9   0   33.70   75.09 
   3   6   0  127.49   69.79 
   3   6   0   31.50   18.30 
   6  -9   0   37.20  141.99 
   9  -3   0   32.70   17.20 
  -3  -6   0  -37.40  118.69 
  -6   9   0   12.50   17.70 
  -3  -6   0  125.59   64.39 
  -3  -6   0   40.30   22.70 
   9  -3   0  133.79   46.40 
   3  -9   0   61.99   29.10 
   6   3   0   36.30   12.60 
   6   3   0   32.20   19.20 
   3  -9   0   16.30   26.40 
   3  -9   0   -1.50   76.99 
   3  -9   0   55.69   39.80 
   3  -9   0  -93.49  129.29 
   9  -6   0   40.50   88.09 
  -3   9   0   12.30   18.40 
   9  -6   0   56.29   49.10 
   9  -6   0   40.30   53.09 
   9  -6   0   52.79   19.60 
  -6  -3   0   85.49   20.00 
  -6  -3   0   67.69   53.39 
   9  -6   0   24.80   16.60 
  -6  -3   0   66.29   94.49 
   0  -9   0  989.10  173.28 
   9   0   0  767.72   96.29 
  -9   9   0  565.24   86.39 
   0  -9   0  694.33   90.59 
   9   0   0  578.94   84.29 
   9  -9   0  693.73   91.09 
   9  -9   0  990.60  170.98 
   9  -9   0  609.24   87.19 
   9  -9   0  862.81  115.79 
   9  -9   0  852.21  104.69 
   0   9   0  552.84   86.09 
   2   8   0  528.35   64.39 
   8 -10   0  485.25   68.09 
   2   8   0  522.95   95.39 
   8 -10   0  288.77  101.99 
   8 -10   0  416.26   87.29 
   8 -10   0  405.46   70.59 
   8 -10   0  298.67  160.28 
  10  -2   0  473.65   78.49 
  -2  -8   0  504.15   70.39 
  -8  10   0  590.44   66.59 
  -2  -8   0  368.56   99.19 
  -2  -8   0  368.96  158.38 
  10  -2   0  435.56   64.79 
   5 -10   0  579.24  145.09 
   5 -10   0  777.72  123.49 
   5   5   0 1102.89  116.29 
   5 -10   0  836.92  118.89 
   5 -10   0 1035.40  118.99 
   5 -10   0  628.24  202.98 
  -5  10   0 1008.30  115.79 
  -5  -5   0 1012.20  117.59 
  -5  -5   0  658.43  169.78 
  10  -5   0  930.31  115.89 
  -5  -5   0  859.81  136.19 
  10  -5   0  685.83  136.19 
  10  -5   0  863.91  127.79 
  10  -5   0  641.84  122.69 
   2 -10   0  609.64   67.29 
   8   2   0  477.85   62.39 
   2 -10   0  269.27  104.79 
   8   2   0  441.46   58.19 
   2 -10   0  286.67  154.48 
  10  -8   0  278.67   85.29 
  10  -8   0  488.35   62.29 
  10  -8   0  424.96   83.19 
  -8  -2   0  448.26   80.69 
  -2  10   0  521.95   61.69 
  -8  -2   0  291.97  103.29 
  10  -8   0  247.58  126.39 
  10  -8   0  377.86   60.39 
  10 -11   0  244.58   86.49 
   1  10   0   85.29   24.30 
  10 -11   0   81.69   58.49 
  10 -11   0  220.78  145.89 
  10 -11   0   84.49   37.80 
  10 -11   0   56.99   26.20 
  11  -1   0   18.80   26.20 
 -10  11   0   73.39   24.70 
  11  -1   0  101.99   21.80 
  -1 -10   0  300.37  159.28 
  -1 -10   0  115.29   33.70 
  -1 -10   0  250.57   85.89 
  11  -1   0  138.59   53.79 
   4   7   0    0.70   19.90 
   7 -11   0   49.90   28.80 
   7 -11   0   26.20   32.50 
   7 -11   0   11.60  157.68 
   7 -11   0  145.59   87.19 
   7 -11   0   92.79   50.59 
  -4  -7   0    8.30   24.60 
  -4  -7   0  -38.00   75.49 
  11  -4   0   -8.70   19.10 
  -4  -7   0  -15.30  129.29 
  11  -4   0    5.70   57.99 
  -7  11   0   28.30   20.60 
   7   4   0   37.80   11.60 
   4 -11   0    9.70   33.40 
   4 -11   0  103.69  162.48 
   4 -11   0    3.10   37.70 
   4 -11   0   40.70   25.00 
   7   4   0    8.60   16.30 
   4 -11   0   40.20   86.29 
  11  -7   0   42.40   16.80 
  11  -7   0   27.10   21.90 
  -7  -4   0  106.09   22.90 
  -4  11   0   55.79   17.30 
  -7  -4   0    1.40  106.29 
  11  -7   0  100.29   61.59 
  11  -7   0  -15.00   49.50 
  -7  -4   0   59.69   65.99 
  11  -7   0   94.39   56.19 
  11  -7   0   -1.80   83.99 
  10   1   0   23.40   18.10 
 -11  10   0   76.99   23.60 
   1 -11   0   79.09  145.89 
  10   1   0   13.60   30.10 
   1 -11   0  279.27   90.99 
   1 -11   0  155.78   35.40 
  11 -10   0  105.89   36.20 
 -10  -1   0   60.39   18.60 
  11 -10   0  171.58   60.79 
  -1  11   0   54.39   23.80 
  11 -10   0  188.98  129.39 
 -10  -1   0  250.77   67.39 
  11 -10   0   77.89   23.90 
  11 -10   0  207.58   76.19 
   9 -12   0  104.79  161.48 
   9 -12   0  154.08   96.59 
   3   9   0  292.17   41.40 
   9 -12   0  311.27   47.80 
   9 -12   0  301.67   67.19 
   9 -12   0  291.57   52.89 
  -3  -9   0   87.99  133.29 
  -3  -9   0  263.37   46.20 
  12  -3   0  292.27   40.50 
  -9  12   0  251.07   41.60 
  -3  -9   0  206.58   92.59 
  12  -3   0  211.68   67.69 
   6 -12   0  393.56  182.98 
   6 -12   0  535.15   69.79 
   6 -12   0  533.35   69.49 
   6   6   0  451.35   65.29 
   6 -12   0  414.66  112.39 
   6 -12   0  442.86   81.19 
  12  -6   0  494.35   65.79 
  12  -6   0  553.74   90.69 
  -6  -6   0  478.75   67.89 
  -6  -6   0  468.75  138.69 
  12  -6   0  470.85   86.99 
  12  -6   0  360.66   81.89 
  -6  -6   0  495.45   96.89 
  -6  12   0  419.46   63.79 
   3 -12   0  191.08   98.09 
   3 -12   0  212.78   45.00 
   3 -12   0  301.87   42.80 
   9   3   0  225.08   32.20 
   3 -12   0  135.89  154.58 
  12  -9   0  178.98   69.29 
  -9  -3   0  107.49   67.89 
  12  -9   0  140.89  107.49 
  -9  -3   0  181.28   99.89 
  12  -9   0   18.80   42.70 
  -3  12   0  255.87   37.20 
  -9  -3   0  330.97   36.10 
  12  -9   0  217.68   34.60 
  12  -9   0  225.08   68.89 
  12   0   0  -33.60   29.70 
  12   0   0   10.50   17.00 
  12   0   0    5.20   42.20 
   0 -12   0   20.30   84.89 
   0 -12   0   57.79   33.40 
   0 -12   0   61.59  146.49 
 -12  12   0   -0.30   20.60 
  12 -12   0  -21.30   36.90 
  12 -12   0   53.79   62.09 
  12 -12   0   -4.80   20.90 
  12 -12   0   47.10  131.69 
   0  12   0   35.80   21.70 
  12 -12   0   35.40   80.29 
  11 -13   0   66.19   86.99 
  11 -13   0   61.99   38.20 
  11 -13   0  -14.70   55.39 
  11 -13   0    9.50   27.60 
   2  11   0   29.00   21.10 
  11 -13   0   35.10  146.79 
  13  -2   0  -28.50   20.40 
  -2 -11   0   85.19   87.09 
 -11  13   0   27.50   20.30 
  13  -2   0   14.80   47.20 
  13  -2   0   50.29   18.10 
  -2 -11   0   83.19  157.08 
  -2 -11   0   34.90   30.60 
   8 -13   0  170.38  168.98 
   5   8   0  209.98   34.20 
   8 -13   0  135.79   39.30 
   8 -13   0  199.88   58.99 
   8 -13   0  192.78   98.69 
   8 -13   0  126.79   42.80 
  13  -5   0  196.38   33.40 
  -5  -8   0  256.17  136.59 
  13  -5   0  218.08   62.39 
  -5  -8   0  204.98   86.69 
  -5  -8   0  239.68   40.00 
  -8  13   0  186.88   34.30 
   8   5   0  191.78   24.90 
   5 -13   0  128.19  100.89 
   5 -13   0  153.58   43.60 
   5 -13   0  213.68   41.80 
   5 -13   0  155.08   51.79 
   5 -13   0   39.20  174.18 
  13  -8   0  282.57   86.99 
  13  -8   0  208.68   31.10 
  -8  -5   0  146.49   75.99 
  13  -8   0    8.80   38.20 
  -5  13   0  187.58   32.10 
  13  -8   0  109.99   60.79 
  13  -8   0  184.88   64.19 
  13  -8   0  136.39   51.69 
  -8  -5   0  203.78   32.50 
  13  -8   0  171.58   28.00 
  -8  -5   0  269.67  119.59 
  11   2   0   32.70   33.10 
 -13  11   0   20.70   21.00 
   2 -13   0   65.49   33.30 
   2 -13   0   11.40  153.18 
   2 -13   0  -23.30   87.09 
  11   2   0   15.90   13.50 
  13 -11   0  -18.80   64.89 
  13 -11   0   58.99  112.59 
  13 -11   0   44.40   36.90 
  13 -11   0   26.20   59.79 
  13 -11   0  -14.10   18.50 
  -2  13   0   76.19   22.00 
  13 -14   0  -93.99  151.88 
  13 -14   0  -52.69   37.90 
   1  13   0   -4.00   20.60 
  13 -14   0  -39.90   24.90 
  13 -14   0   17.20   60.19 
  13 -14   0   10.00   90.79 
  14  -1   0  -15.40   18.10 
 -13  14   0   -0.60   21.50 
  -1 -13   0  -23.60  144.19 
  14  -1   0   35.80   33.00 
  14  -1   0   48.60   50.79 
  -1 -13   0   49.30   94.39 
  -1 -13   0  -11.60   32.80 
  10 -14   0   98.79   57.89 
  10 -14   0  191.08  168.98 
  10 -14   0  189.58   36.30 
  10 -14   0  270.47   99.29 
  10 -14   0  124.39   47.00 
   4  10   0  163.88   30.40 
  -4 -10   0  180.38   37.40 
  14  -4   0  128.69   37.20 
 -10  14   0  146.49   31.60 
  -4 -10   0  275.17   94.09 
  14  -4   0  157.98   29.70 
  -4 -10   0   67.79  142.29 
  14  -4   0  143.99   58.39 
   7 -14   0  293.67  106.99 
   7   7   0  164.38   33.60 
   7 -14   0  187.68   41.40 
   7 -14   0   54.99  154.18 
   7 -14   0  196.78   45.30 
   7 -14   0  245.98   55.99 
  14  -7   0  207.28   34.70 
  -7  -7   0  228.98   79.09 
  -7  -7   0  205.18   36.40 
  -7  -7   0  340.47  132.59 
  -7  14   0  156.78   33.60 
  14  -7   0  152.78   63.69 
   4 -14   0  126.09   99.89 
   4 -14   0  211.78   44.00 
   4 -14   0  232.08   38.20 
  10   4   0  174.08   25.70 
   4 -14   0   97.29  178.98 
  -4  14   0  180.08   32.40 
  14 -10   0  206.38   67.79 
  14 -10   0  275.27  101.39 
 -10  -4   0  173.18  103.49 
  14 -10   0   87.19   61.89 
  14 -10   0  136.79   28.90 
 -10  -4   0  214.78   31.60 
  14 -10   0  163.58   43.90 
 -10  -4   0  144.59   69.39 
  13   1   0   12.70   33.10 
  13   1   0    0.60   15.00 
 -14  13   0   -2.00   21.20 
   1 -14   0  -62.49   87.09 
   1 -14   0   66.99   34.00 
  13   1   0  -27.70   43.10 
   1 -14   0  -92.99  174.48 
  14 -13   0  -73.79   61.49 
  14 -13   0  -61.89   71.39 
  14 -13   0   53.49   38.50 
  14 -13   0  -17.10  111.89 
  -1  14   0   12.80   21.40 
  14 -13   0    8.20   20.20 
  12 -15   0   75.79  164.18 
  12 -15   0   87.29   59.19 
  12 -15   0  165.38   43.00 
  12 -15   0   43.40   31.90 
  12 -15   0  103.39   98.59 
   3  12   0  106.79   24.10 
  -3 -12   0   73.19   34.80 
  -3 -12   0  167.48  157.88 
  15  -3   0   40.60   20.90 
  15  -3   0  131.19   35.30 
 -12  15   0   40.90   24.20 
  15  -3   0   61.99   51.89 
  -3 -12   0   45.80   91.59 
   6   9   0  537.95   78.59 
   9 -15   0  503.15  203.68 
   9 -15   0  618.44   83.59 
   9 -15   0  644.94  132.99 
   9 -15   0  617.94   85.39 
   9 -15   0  579.24   97.79 
  15  -6   0  548.25   78.09 
  -6  -9   0  754.32  175.48 
  -6  -9   0  833.92  118.69 
  15  -6   0  522.05   82.39 
  15  -6   0  684.23  102.79 
  -6  -9   0  506.65   80.09 
  -9  15   0  520.55   78.49 
   6 -15   0  554.64   83.69 
   6 -15   0  712.23   97.59 
   6 -15   0  531.15  216.18 
   6 -15   0  572.84   84.99 
   6 -15   0  588.94  131.69 
  -9  -6   0  679.63  149.09 
  15  -9   0  632.74   86.49 
  -9  -6   0  501.45   80.29 
  -9  -6   0  733.53  111.89 
  -6  15   0  573.14   80.39 
  15  -9   0  590.14  100.89 
 -15  12   0   42.70   24.70 
   3 -15   0  169.28  167.68 
  12   3   0  140.49   39.90 
   3 -15   0  113.69   96.09 
   3 -15   0   71.69   40.70 
   3 -15   0  100.49   37.30 
  12   3   0  109.49   17.70 
  -3  15   0   91.09   25.70 
  15 -12   0   82.99   64.79 
  15 -12   0  114.39   39.50 
   0 -15   0  -10.80   34.10 
   0 -15   0   59.49   97.49 
 -15  15   0    0.60   21.20 
  15   0   0  -11.30   44.50 
  15   0   0   19.00   34.90 
   0 -15   0 -111.39  168.78 
  15 -15   0  118.29   64.39 
  15 -15   0  -93.89  118.59 
  15 -15   0   59.89   40.30 
   0  15   0   35.40   21.20 
  15 -15   0   -6.90   22.40 
  15 -15   0   31.50   75.49 
  14 -16   0   59.49   26.90 
  14 -16   0 -249.58  151.28 
  14 -16   0   51.99   92.29 
  14 -16   0  133.99   43.30 
  14 -16   0   58.69   61.29 
   2  14   0   89.79   23.30 
  -2 -14   0   58.39   35.60 
  16  -2   0   57.29   55.09 
 -14  16   0   19.00   22.90 
  16  -2   0   32.60   34.80 
  -2 -14   0   65.89  161.58 
  -2 -14   0    0.30   91.69 
  11 -16   0   47.50   52.79 
  11 -16   0  -76.09   97.19 
   5  11   0   28.70   22.00 
  11 -16   0   63.39  179.18 
  11 -16   0  -14.10   32.20 
  11 -16   0    6.30   41.00 
  -5 -11   0   44.60  144.09 
  -5 -11   0  -42.50   28.50 
  16  -5   0   16.20   54.09 
 -11  16   0  -30.10   22.40 
  -5 -11   0   42.60   82.99 
  16  -5   0    3.30   30.90 
   8 -16   0   13.10   51.19 
   8   8   0   22.80   21.20 
   8 -16   0  105.79  169.78 
   8 -16   0  -27.90   31.80 
   8 -16   0  -15.60   36.90 
   8 -16   0  116.09  103.39 
  -8  -8   0  -46.40   75.29 
  -8  -8   0   53.19  129.99 
  16  -8   0   64.99   57.49 
  16  -8   0   55.79   34.70 
  -8  -8   0   31.30   26.20 
  -8  16   0   14.70   21.50 
   5 -16   0  -13.20   38.10 
 -16  11   0   29.60   20.00 
   5 -16   0  -26.40   32.40 
   5 -16   0   80.09  191.28 
   5 -16   0  -43.40   94.09 
  16 -11   0   73.79   62.99 
  -5  16   0   -4.20   21.40 
  16 -11   0    5.20   35.60 
 -16  14   0   36.90   22.90 
   2 -16   0   88.89  100.39 
   2 -16   0  124.19   42.40 
  14   2   0   38.50   40.30 
   2 -16   0 -100.39  157.18 
  16 -14   0    0.10   63.09 
  -2  16   0   47.10   23.70 
  16 -14   0   53.29   39.70 
  16 -17   0   17.60   42.10 
   1  16   0    6.40   17.20 
  16 -17   0   46.40   79.49 
   1  16   0  -46.80   30.40 
  16 -17   0  -21.80   24.40 
  16 -17   0   73.19   65.29 
  17  -1   0  -21.20   49.70 
 -16  17   0   -2.10   20.80 
  -1 -16   0    1.80   34.70 
  17  -1   0   -1.90   35.70 
  -1 -16   0    3.20   93.19 
  13 -17   0  307.47   56.19 
  13 -17   0  241.18   74.49 
  13 -17   0  303.17   51.79 
  13 -17   0  386.16  114.09 
  13 -17   0  345.47  189.28 
   4  13   0  294.97   47.60 
  -4 -13   0  289.17  171.08 
 -13  17   0  305.67   48.80 
  17  -4   0  373.96   75.09 
  17  -4   0  325.07   56.59 
  -4 -13   0  401.06  102.99 
  -4 -13   0  292.47   54.29 
  10 -17   0  580.74   96.69 
  10 -17   0  668.53   95.19 
  10 -17   0  531.85  138.49 
  10 -17   0  666.23  105.09 
   7  10   0  651.73   90.19 
  10 -17   0  537.15  216.58 
  -7 -10   0  752.62  186.68 
  17  -7   0  712.23   96.89 
  17  -7   0  635.94  112.49 
  -7 -10   0  727.53   92.69 
  -7 -10   0  851.01  127.79 
 -10  17   0  624.54   90.59 
   7 -17   0  659.43   93.59 
   7 -17   0  608.04   99.39 
   7 -17   0  835.22  233.18 
   7 -17   0  624.54   93.69 
   7 -17   0  653.33  139.99 
  17 -10   0  609.54   93.69 
 -10  -7   0  619.14   87.39 
  -7  17   0  641.04   87.89 
  17 -10   0  733.63  115.79 
 -17  13   0  234.48   43.00 
   4 -17   0  268.77   55.29 
   4 -17   0  390.26  204.48 
   4 -17   0  237.58  110.69 
   4 -17   0  301.17   52.39 
  -4  17   0  284.57   43.90 
  17 -13   0  264.07   55.39 
  17 -13   0  299.47   77.79 
   1 -17   0   12.70   36.70 
 -17  16   0   -3.30   21.00 
   1 -17   0   -9.30   99.49 
  17 -16   0   77.59   66.19 
  17 -16   0   -9.20   39.30 
  -1  17   0   13.30   21.60 
  15 -18   0  -90.39   94.49 
  15 -18   0   23.20   42.50 
   3  15   0  100.59   35.00 
  15 -18   0   15.00  168.58 
  15 -18   0   65.59   63.49 
   3  15   0  -23.90   20.90 
  15 -18   0   -9.30   29.30 
   3  15   0  102.49   54.89 
  -3 -15   0  -69.49   87.29 
  -3 -15   0   13.50   32.60 
 -15  18   0   -4.50   23.70 
  -3 -15   0   94.39  144.79 
  18  -3   0   34.60   37.80 
  18  -3   0    1.50   54.19 
  12 -18   0  255.27   73.09 
  12 -18   0  260.97   48.70 
   6  12   0  250.77   42.20 
  12 -18   0  220.28  190.98 
  12 -18   0  229.28   56.79 
  12 -18   0  378.66  115.79 
  18  -6   0  193.18   66.29 
  -6 -12   0  245.78  154.88 
  -6 -12   0  328.97   51.19 
  18  -6   0  311.27   52.89 
 -12  18   0  211.88   41.80 
  -6 -12   0  248.68   94.09 
   9 -18   0  671.93  232.28 
   9 -18   0  599.64   87.09 
   9 -18   0  616.54   98.99 
   9 -18   0  529.25  132.99 
   9   9   0  504.45   78.09 
   9 -18   0  492.95   82.99 
  -9  -9   0  515.45   79.49 
  -9  -9   0  690.93  115.19 
  -9  18   0  602.64   78.49 
  18  -9   0  612.04  105.09 
  18  -9   0  585.54   85.89 
   6 -18   0  297.37   58.49 
   6 -18   0  233.68  109.09 
   6 -18   0  241.38   54.49 
  -6  18   0  331.77   46.40 
  18 -12   0  282.97   55.99 
  18 -12   0  235.38   83.79 
   3 -18   0    0.60  104.59 
 -18  15   0   -4.40   21.30 
   3 -18   0   28.00   36.20 
   3 -18   0   11.50   38.50 
  -3  18   0   15.80   22.10 
  18 -15   0  -65.19   36.10 
  18 -15   0  -36.70   65.89 
  18   0   0   30.30   37.80 
   0 -18   0   18.80   36.60 
   0 -18   0   36.00   97.89 
 -18  18   0    6.00   23.40 
   0  18   0    4.30   20.90 
  18 -18   0   43.60   73.39 
   0  18   0  -35.90   32.20 
  18 -18   0  -12.50   42.40 
   0  18   0   -3.20   52.09 
   2  17   0  -86.29   31.80 
  17 -19   0   38.50   29.40 
  17 -19   0   31.20   70.99 
   2  17   0   35.10   22.60 
  17 -19   0   59.59   43.80 
   2  17   0   80.19   54.69 
  -2 -17   0   43.30   41.00 
  -2 -17   0  213.88   98.89 
  19  -2   0  -23.20   39.20 
 -17  19   0   17.70   23.30 
   5  14   0  178.28   59.59 
  14 -19   0    3.70  101.79 
   5  14   0  182.28   41.90 
  14 -19   0   96.69  182.68 
  14 -19   0  162.38   41.40 
   5  14   0  214.98   33.70 
  14 -19   0  140.29   63.69 
  14 -19   0  201.78   49.20 
  19  -5   0   83.69   56.59 
  -5 -14   0   95.49   89.59 
  19  -5   0  112.49   44.50 
  -5 -14   0  119.89   39.60 
  -5 -14   0   50.09  153.18 
 -14  19   0  161.58   33.30 
  11 -19   0  185.08   61.09 
   8  11   0  279.97   47.80 
   8  11   0  291.57   63.79 
  11 -19   0  255.47   53.39 
   8  11   0  214.68   38.60 
  11 -19   0  240.38   46.70 
  11 -19   0  215.58  111.09 
  19  -8   0  211.78   50.69 
  -8 -11   0  180.18   41.60 
  19  -8   0  107.09   71.39 
  -8 -11   0  248.98   91.19 
 -11  19   0  213.28   39.50 
   8 -19   0  268.27   50.69 
   8 -19   0  137.09  107.99 
   8 -19   0  207.48   51.59 
  -8  19   0  227.88   40.70 
  19 -11   0  243.08   52.09 
  19 -11   0  247.48   79.79 
   5 -19   0  179.08   43.50 
 -19  14   0  141.79   31.60 
   5 -19   0    8.10  108.49 
   5 -19   0  117.59   44.90 
  -5  19   0  204.78   33.50 
  19 -14   0  114.69   45.00 
  19 -14   0  173.48   73.99 
   2 -19   0   -4.30   35.70 
   2 -19   0  -21.00   38.90 
   2 -19   0    9.40  102.59 
 -19  17   0  -14.30   20.50 
  17   2   0   13.00   32.60 
  -2  19   0  -16.90   51.09 
  -2  19   0   -0.90   22.00 
  19 -17   0  135.79   70.19 
  -2  19   0   -3.70   30.20 
  19 -17   0  -15.80   38.30 
   1  19   0  -11.50   33.50 
   1  19   0   65.49   62.09 
  19 -20   0   34.40   43.60 
   1  19   0   24.30   21.60 
  -1 -19   0    1.70   35.90 
 -19  20   0    1.40   22.70 
  20  -1   0   25.00   42.20 
  -1 -19   0  160.48   97.29 
  16 -20   0  165.28  107.99 
  16 -20   0   19.40   63.19 
  16 -20   0   70.39   31.90 
   4  16   0   99.39   30.20 
   4  16   0   89.19   62.79 
   4  16   0   76.89   37.90 
  16 -20   0  109.09   49.70 
  -4 -16   0  124.99   89.49 
 -16  20   0  110.09   29.40 
  20  -4   0  154.78   44.30 
  20  -4   0   79.09   59.09 
  -4 -16   0   61.69   37.30 
   7  13   0 1072.59  128.19 
  13 -20   0  674.63  168.38 
   7  13   0  927.41  131.69 
  13 -20   0 1095.39  137.69 
   7  13   0 1142.29  141.89 
  13 -20   0  944.31  131.39 
  13 -20   0  600.84  139.49 
  -7 -13   0  841.02  161.18 
  20  -7   0  722.23  144.59 
  20  -7   0  997.90  135.29 
  -7 -13   0 1058.69  132.09 
 -13  20   0 1106.99  128.79 
  10 -20   0 1779.82  222.08 
  10  10   0 1581.94  227.58 
  10 -20   0 1371.96  253.67 
  10 -20   0 1500.85  225.28 
  10 -20   0 1717.03  220.38 
  10  10   0 1777.92  219.08 
  20 -10   0 1697.43  221.78 
 -10  20   0 1872.31  217.58 
  20 -10   0 1542.55  229.18 
   7 -20   0 1085.89  136.69 
  13   7   0 1007.10  133.39 
 -20  13   0  985.30  129.59 
  13   7   0 1134.69  144.09 
   7 -20   0 1007.30  136.89 
   7 -20   0  793.52  179.08 
  20 -13   0 1094.49  138.79 
  -7  20   0  822.72  130.79 
  -7  20   0 1040.60  131.79 
  20 -13   0  812.52  150.48 
   4 -20   0   26.30   41.20 
 -20  16   0  116.89   29.20 
  16   4   0  100.39   68.89 
  16   4   0  151.28   37.50 
   4 -20   0  109.79   41.40 
   4 -20   0   95.79  110.49 
  -4  20   0  133.19   34.00 
  -4  20   0   70.89   26.20 
  20 -16   0  102.89   46.30 
  -4  20   0   28.00   56.99 
  20 -16   0   94.59   79.09 
   1 -20   0  -15.10   35.80 
 -20  19   0  -13.70   21.30 
  19   1   0   54.49   34.60 
   1 -20   0    5.30   40.70 
   1 -20   0   73.59  102.89 
  20 -19   0   -8.80   41.80 
  -1  20   0    8.90   32.90 
  -1  20   0   -5.10   21.10 
  -1  20   0   33.00   53.09 
  18 -21   0  -18.70   45.10 
   3  18   0    1.40   21.30 
   3  18   0   55.29   35.10 
   3  18   0   81.09   62.79 
 -18  21   0   15.70   24.50 
  -3 -18   0  -32.10   33.60 
  -3 -18   0  116.39   92.99 
  21  -3   0   62.49   44.20 
  15 -21   0   -8.80   44.80 
  15 -21   0   45.90   57.09 
   6  15   0   84.59   62.79 
  15 -21   0   65.79   32.50 
   6  15   0   49.99   25.10 
  15 -21   0   73.89  108.09 
   6  15   0   43.30   36.60 
  21  -6   0   69.09   48.20 
  -6 -15   0   41.00   36.70 
  -6 -15   0   73.49   89.59 
  21  -6   0   20.40   52.49 
 -15  21   0   65.59   25.20 
   9  12   0  533.05   71.19 
   9  12   0  551.24   90.39 
   9  12   0  535.95   67.29 
  12 -21   0  470.85   82.99 
  12 -21   0  328.77  132.39 
  12 -21   0  340.87   92.09 
  12 -21   0  478.95   72.49 
  21  -9   0  447.86   97.09 
  -9 -12   0  424.76   69.99 
  21  -9   0  392.66   75.19 
 -12  21   0  396.26   65.49 
  12   9   0  677.83   91.09 
   9 -21   0  205.18  128.39 
   9 -21   0  395.96   73.99 
  12   9   0  529.05   69.49 
   9 -21   0  406.36   71.59 
  21 -12   0  373.86   97.29 
  -9  21   0  476.35   75.09 
  21 -12   0  453.85   75.59 
  -9  21   0  367.46   64.69 
  -9  21   0  473.15   65.39 
   6 -21   0   68.79   41.00 
   6 -21   0   15.30   38.70 
  15   6   0   -4.70   38.60 
 -21  15   0   67.79   24.00 
  15   6   0   72.49   66.59 
   6 -21   0   86.29  112.79 
  21 -15   0  -11.10   40.60 
  -6  21   0  116.69   27.00 
  21 -15   0  104.29   72.19 
  -6  21   0   37.20   32.30 
 -21  18   0   -0.50   20.20 
   3 -21   0  126.39  107.19 
   3 -21   0   64.89   43.50 
   3 -21   0  -31.60   34.70 
  18   3   0   22.50   37.30 
  -3  21   0    6.20   32.20 
  -3  21   0   66.09   58.29 
  -3  21   0   21.70   22.10 
  21 -18   0    2.40   43.00 
   0 -21   0   42.60   36.90 
 -21  21   0   10.40   21.40 
   0 -21   0   57.29   43.30 
   0  21   0   10.80   21.50 
   0  21   0   81.29   64.49 
  21 -21   0  -15.30   43.40 
   0  21   0  -18.70   34.60 
   2  20   0   17.10   22.00 
  20 -22   0    5.80   45.10 
   2  20   0   81.89   58.99 
   2  20   0  -28.90   35.20 
  22  -2   0  -21.40   42.20 
 -20  22   0   34.50   25.10 
  -2 -20   0   46.20   36.60 
  17 -22   0   48.00   34.40 
   5  17   0   51.29   35.50 
   5  17   0   42.40   58.09 
  17 -22   0    1.90   47.40 
   5  17   0   -7.20   22.10 
 -17  22   0   34.70   23.90 
  -5 -17   0  -26.40   92.29 
  22  -5   0  -13.90   39.90 
  -5 -17   0  -28.20   31.70 
   8  14   0  187.58   37.00 
   8  14   0   78.99   64.09 
  14 -22   0  227.78   69.89 
   8  14   0  225.38   45.90 
  14 -22   0  208.58   56.09 
  14 -22   0  180.98   44.10 
  14 -22   0  115.79  116.79 
 -14  22   0  198.88   39.50 
  22  -8   0  261.17   54.09 
  -8 -14   0  183.38   44.10 
  22  -8   0  135.19   67.19 
  11 -22   0  268.47  123.99 
  11 -22   0  231.88   51.29 
  11  11   0  248.98   68.89 
  11  11   0  308.57   51.59 
  11 -22   0  318.57   60.29 
 -11  22   0  231.48   44.30 
  22 -11   0  159.78   71.19 
 -11  22   0  258.07   44.30 
  22 -11   0  245.18   55.59 
  14   8   0  161.68   68.99 
   8 -22   0  246.08  121.89 
   8 -22   0  178.28   46.50 
 -22  14   0  200.98   35.00 
  14   8   0  238.68   43.40 
   8 -22   0  141.09   50.29 
  -8  22   0  128.59   54.89 
  -8  22   0  209.08   36.30 
  -8  22   0  105.99   39.00 
  22 -14   0   98.59   70.99 
  22 -14   0  198.98   50.69 
   5 -22   0   43.00   38.80 
  17   5   0   71.89   61.59 
   5 -22   0  -51.19   42.70 
   5 -22   0 -124.89  102.29 
  17   5   0  -28.30   37.50 
 -22  17   0    0.50   23.30 
  -5  22   0   11.20   22.20 
  22 -17   0    7.70   40.20 
  -5  22   0  -25.30   30.60 
   2 -22   0   29.20   43.00 
 -22  20   0   13.20   21.60 
   2 -22   0  -25.80   40.60 
  20   2   0   70.99   32.40 
  -2  22   0   12.90   22.70 
  -2  22   0   41.80   33.30 
  -2  22   0  -52.09   59.79 
  22 -20   0   28.90   45.60 
   1  22   0   19.40   35.60 
   1  22   0  -28.70   21.00 
  22 -23   0  -10.20   46.10 
   1  22   0    7.80   57.09 
  -1 -22   0  -26.90   40.60 
  -1 -22   0  -93.19   37.50 
 -22  23   0    4.30   26.60 
   4  19   0  102.49   41.60 
   4  19   0  -15.40   58.89 
  19 -23   0   75.99   49.80 
   4  19   0   49.30   24.90 
  23  -4   0   12.50   49.99 
  -4 -19   0  137.59   99.59 
 -19  23   0   25.10   24.90 
  -4 -19   0  -10.20   37.10 
  16 -23   0  241.38   61.99 
  16 -23   0  197.38   42.30 
   7  16   0  194.18   44.20 
   7  16   0  200.88   36.50 
   7  16   0  146.69   64.89 
  16 -23   0   35.10  111.49 
  23  -7   0  174.88   52.09 
 -16  23   0  166.68   36.10 
  -7 -16   0  185.08   44.60 
  23  -7   0   73.99   70.09 
  10  13   0  816.42  126.39 
  13 -23   0  721.43  140.89 
  13 -23   0 1028.70  134.49 
  10  13   0  979.80  135.59 
  13 -23   0 1021.80  127.99 
  13 -23   0  583.24  173.58 
  23 -10   0  800.22  143.99 
  23 -10   0 1013.60  132.59 
 -13  23   0  996.60  123.39 
  13  10   0  977.00  126.29 
  10 -23   0  961.00  130.89 
  13  10   0  936.41  138.59 
  10 -23   0  618.94  175.48 
  10 -23   0  929.41  132.39 
 -10  23   0 1035.20  122.99 
  23 -13   0 1086.39  132.99 
 -10  23   0  835.92  128.09 
 -10  23   0  747.63  122.99 
  16   7   0  215.68   75.49 
 -23  16   0  189.98   34.70 
  16   7   0  183.68   48.00 
   7 -23   0  129.79   45.40 
   7 -23   0  125.59   49.99 
  23 -16   0  236.28   51.99 
  -7  23   0  143.49   39.80 
  -7  23   0  210.08   36.60 
   4 -23   0   20.20   48.50 
  19   4   0   37.60   33.80 
   4 -23   0   62.49   42.50 
 -23  19   0   35.40   22.20 
  -4  23   0   -9.10   32.00 
  -4  23   0   43.50   51.49 
  -4  23   0   41.30   23.60 
  23 -19   0  -57.39   42.70 
   1 -23   0   40.30   43.10 
 -23  22   0   30.10   25.70 
   1 -23   0  -51.69   33.90 
  -1  23   0   -8.80   37.90 
  -1  23   0  -83.19   60.79 
  -1  23   0    0.40   21.60 
  23 -22   0   -5.40   45.60 
   3  21   0  -18.20   35.90 
  21 -24   0  -78.39   42.90 
   3  21   0   47.90   24.20 
   3  21   0   27.40   66.69 
  -3 -21   0   46.00   36.90 
  24  -3   0   -5.30   44.70 
 -21  24   0    4.90   24.80 
   6  18   0  -41.90   36.20 
   6  18   0   -2.20   60.39 
  18 -24   0   26.90   32.00 
   6  18   0   79.49   26.10 
  18 -24   0  -47.60   52.89 
  -6 -18   0   78.29   37.90 
 -18  24   0   49.80   28.40 
  24  -6   0   41.00   44.30 
  15 -24   0   70.79  114.79 
  15 -24   0  108.79   37.20 
   9  15   0  118.19   28.90 
   9  15   0   72.39   67.59 
   9  15   0   70.99   39.10 
  15 -24   0  154.18   49.99 
  24  -9   0   12.20   48.30 
 -15  24   0   78.19   28.60 
 -24  12   0   36.40   27.60 
  12  12   0  283.87   64.49 
  12  12   0  134.09   41.70 
  12 -24   0  227.28   44.00 
  12 -24   0  192.08   54.39 
 -12  24   0  175.28   53.59 
  24 -12   0  150.08   49.70 
 -12  24   0  174.08   33.30 
   9 -24   0   76.29   38.10 
  15   9   0   99.59   64.19 
  15   9   0   79.29   42.60 
   9 -24   0   11.00   43.10 
 -24  15   0   58.39   25.10 
  -9  24   0   89.59   52.09 
  24 -15   0   10.80   42.00 
  -9  24   0   75.19   27.10 
  -9  24   0   90.69   35.20 
 -24  18   0   69.19   24.70 
  18   6   0   29.90   39.60 
  18   6   0    3.60   68.59 
   6 -24   0   33.30   43.60 
   6 -24   0   18.20   37.20 
  -6  24   0   14.10   31.40 
  -6  24   0   48.80   24.30 
  24 -18   0  -72.69   44.90 
   3 -24   0   35.00   47.60 
   3 -24   0   19.90   36.00 
  21   3   0  -47.70   31.60 
 -24  21   0   -2.10   22.40 
  -3  24   0  -37.30   52.09 
  -3  24   0   35.10   23.10 
  24 -21   0  -45.70   42.20 
  -3  24   0   38.40   34.00 
 -24  24   0   -2.60   26.60 
   0 -24   0   29.20   36.30 
   0 -24   0   99.99   50.39 
   0  24   0   19.80   25.00 
   0  24   0  -30.50   34.70 
   0  24   0    6.60   58.49 
  24 -24   0   17.20   48.00 
   2  23   0   25.10   24.40 
   2  23   0   32.60   35.90 
   2  23   0    2.50   67.49 
  23 -25   0   16.60   46.30 
  -2 -23   0   40.60   43.20 
 -23  25   0  -40.20   23.50 
  -2 -23   0  -22.50   37.40 
   5  20   0   -8.90   23.20 
   5  20   0   15.50   36.90 
  20 -25   0   36.70   48.30 
   5  20   0  -18.90   59.99 
 -20  25   0  -29.80   23.80 
  -5 -20   0  -23.40   31.80 
  25  -5   0  117.39   49.10 
  17 -25   0  -52.49   46.20 
   8  17   0   -4.30   60.79 
   8  17   0   71.69   38.60 
  17 -25   0    9.40   30.80 
   8  17   0    8.50   23.00 
 -17  25   0   18.90   23.50 
  25  -8   0  -12.90   42.10 
  14 -25   0  132.89   53.99 
  14 -25   0  206.68   48.50 
  11  14   0  227.88   45.70 
  11  14   0  205.48   75.39 
  25 -11   0  172.98   52.59 
 -14  25   0  166.48   38.10 
  11 -25   0  133.69   46.40 
  14  11   0  238.58   70.29 
  11 -25   0  217.08   55.79 
 -25  14   0  193.38   36.50 
  14  11   0  167.88   46.50 
  25 -14   0  179.88   52.69 
 -11  25   0  230.18   44.50 
 -11  25   0  172.58   36.90 
 -11  25   0  213.78   59.89 
  17   8   0  -20.80   72.39 
 -25  17   0   13.40   21.40 
  17   8   0  -68.39   35.30 
   8 -25   0   20.10   38.10 
   8 -25   0   51.69   45.50 
  -8  25   0   58.99   31.30 
  25 -17   0    9.50   42.10 
  -8  25   0  -11.80   23.50 
   5 -25   0   50.29   45.20 
 -25  20   0   30.80   22.50 
  20   5   0  -11.90   39.00 
   5 -25   0   31.10   42.40 
  25 -20   0    0.10   43.30 
  -5  25   0   23.20   26.00 
  -5  25   0   11.10   36.10 
 -25  23   0   16.90   23.50 
   2 -25   0  -15.40   40.00 
   2 -25   0  -14.60   42.40 
  -2  25   0    7.80   35.10 
  -2  25   0  -58.99   62.69 
  25 -23   0  -23.10   44.60 
  -2  25   0    9.60   22.60 
   1  25   0   26.30   70.69 
   1  25   0  -35.30   35.10 
  -1 -25   0   28.30   35.50 
   4  22   0    8.20   24.20 
   4  22   0  -19.10   34.00 
  22 -26   0    9.20   51.29 
   4  22   0   74.79   62.19 
  -4 -22   0   95.29   38.40 
 -22  26   0  -54.39   21.50 
  19 -26   0   28.50   54.09 
   7  19   0   48.80   70.39 
   7  19   0   37.00   35.40 
   7  19   0   41.70   25.50 
 -19  26   0   42.10   29.10 
  26  -7   0   10.60   45.90 
  16 -26   0  125.39   55.39 
  10  16   0  231.38   76.19 
  10  16   0  151.48   44.80 
  16 -26   0  122.79   44.70 
  26 -10   0  209.58   54.49 
 -16  26   0  167.38   36.40 
  13 -26   0  455.75   69.99 
  13  13   0  388.36   68.59 
  13 -26   0  365.36   76.39 
  13  13   0  349.77   86.29 
 -13  26   0  334.27   74.79 
 -13  26   0  476.65   62.99 
  26 -13   0  304.77   71.79 
  10 -26   0  176.48   53.39 
 -26  16   0  201.08   35.20 
  16  10   0  122.09   48.00 
  16  10   0   38.00   77.89 
  10 -26   0  219.98   48.70 
  26 -16   0   45.50   48.90 
 -10  26   0  161.88   39.50 
 -10  26   0  177.08   35.70 
 -26  19   0   65.89   25.10 
  19   7   0   24.00   36.40 
  19   7   0   86.09   74.29 
   7 -26   0   -9.10   37.60 
   7 -26   0   38.10   43.30 
  26 -19   0  -18.80   47.80 
  -7  26   0   44.90   25.30 
  -7  26   0   34.70   33.20 
   4 -26   0  -20.20   43.70 
   4 -26   0   -4.40   36.80 
 -26  22   0  -12.70   22.20 
  26 -22   0  -32.70   48.90 
  -4  26   0   16.80   38.00 
  -4  26   0   24.70   23.70 
  -1  26   0   54.89   69.49 
  -1  26   0  -31.20   35.00 
   3  24   0  -25.40   64.09 
   3  24   0   26.80   41.00 
  -3 -24   0   77.19   36.10 
   6  21   0  -28.60   33.60 
   6  21   0  -28.50   22.50 
   6  21   0   75.99   71.99 
  21 -27   0  -42.80   47.40 
  27  -6   0   22.40   53.99 
 -21  27   0  -35.40   23.70 
   9  18   0  -64.09   70.79 
  18 -27   0  111.09   37.30 
   9  18   0   11.10   41.40 
  18 -27   0  -30.60   48.90 
  27  -9   0   97.89   49.20 
 -18  27   0   20.40   26.30 
 -27  12   0   28.00   23.70 
  15 -27   0   53.99   53.69 
  15 -27   0   12.00   34.80 
  12  15   0    9.40   36.20 
  12  15   0  -13.00   63.29 
 -15  27   0   60.79   52.79 
 -15  27   0   19.60   25.90 
  27 -12   0   52.19   49.10 
  12 -27   0   68.49   49.80 
  15  12   0   93.29   75.09 
  12 -27   0   22.20   38.50 
  15  12   0   32.00   42.70 
 -27  15   0    3.80   23.80 
 -12  27   0   58.59   56.49 
 -12  27   0   68.39   27.10 
  27 -15   0   14.50   42.60 
  18   9   0   28.40   68.79 
   9 -27   0   41.80   39.70 
 -27  18   0  106.79   30.10 
   9 -27   0   32.60   47.10 
  18   9   0  104.99   39.80 
  -9  27   0   75.89   30.20 
  27 -18   0  119.69   49.00 
  -9  27   0   31.70   33.20 
  21   6   0  -40.50   39.00 
   6 -27   0   17.50   44.70 
 -27  21   0   23.00   23.20 
   6 -27   0   22.50   39.20 
  -6  27   0   21.60   22.90 
  -6  27   0  -17.30   32.50 
  27 -21   0   18.40   50.19 
  -3  27   0   -4.60   66.69 
  -3  27   0  -31.90   38.10 
   5  23   0   62.99   37.70 
   5  23   0   12.40   65.89 
   8  20   0   14.00   24.60 
   8  20   0  -32.30   36.80 
  20 -28   0  -11.00   53.79 
   8  20   0   34.80   63.49 
  28  -8   0  -42.60   47.20 
 -20  28   0  -39.50   26.90 
  11  17   0  -72.79   64.49 
  17 -28   0  -45.50   47.70 
 -28  11   0   42.30   24.80 
  17 -28   0   30.70   35.30 
  11  17   0   39.10   41.20 
 -17  28   0  134.99   56.89 
 -17  28   0   28.10   29.30 
  28 -11   0  -37.70   45.90 
  14  14   0   19.90   39.10 
  14 -28   0  -18.30   52.29 
  14 -28   0   30.50   36.60 
  14  14   0  -39.00   75.99 
 -28  14   0   35.90   24.60 
  28 -14   0  -13.10   44.60 
 -14  28   0   81.29   57.49 
 -14  28   0   67.29   26.70 
 -28  17   0   15.40   22.00 
  11 -28   0   14.80   46.60 
  17  11   0   48.90   72.49 
  11 -28   0  -21.50   37.10 
  17  11   0   64.69   43.50 
  28 -17   0  -26.70   41.20 
 -11  28   0   27.20   27.40 
  20   8   0 -175.48   66.39 
   8 -28   0   33.90   46.00 
  20   8   0  -71.59   40.00 
   8 -28   0   31.10   38.80 
 -28  20   0  -45.50   20.50 
  -8  28   0  -11.10   32.40 
  28 -20   0   -8.40   49.30 
  -8  28   0    1.20   24.70 
  -5  28   0   75.69   37.00 
   7  22   0   24.90   37.60 
   7  22   0  -14.70   75.69 
  10  19   0    0.70   76.89 
  10  19   0  -29.30   35.90 
  13  16   0   29.80   43.20 
  13  16   0   18.30   69.29 
  16 -29   0  -12.40   38.00 
 -29  13   0   45.00   24.80 
 -16  29   0   21.30   26.80 
 -16  29   0  102.09   62.39 
  13 -29   0   47.50   38.50 
  16  13   0  143.89   79.89 
 -29  16   0   35.60   24.70 
  16  13   0  -36.00   39.00 
 -13  29   0   65.89   27.60 
  19  10   0 -125.39   80.39 
  19  10   0   63.49   39.60 
 -10  29   0   54.39   37.10 
  22   7   0   27.70   37.80 
  -7  29   0   24.00   34.50 
  12  18   0    3.20   43.00 
  12  18   0  -69.89   68.39 
 -18  30   0   39.70   62.29 
  15  15   0  -46.00   80.39 
  15  15   0   -3.70   39.60 
 -15  30   0   78.59   60.29 
  18  12   0  -11.70   38.80 
  18  12   0   37.80   82.39 
   0   1  -1  218.38   88.79 
   1  -1  -1  168.78   66.39 
  -1   0  -1  157.08   68.09 
   0  -1   1  220.48   78.09 
   0  -1   1  266.77   61.09 
   1   0   1  115.29   17.80 
  -1   1   1  125.89   64.19 
  -1   1   1   80.29   17.40 
   0  -1   1   97.49   16.80 
  -1   3  -1   20.30   54.49 
   3  -2  -1   83.99   48.70 
   3  -2  -1   64.59   69.99 
  -2  -1  -1  -17.60   81.49 
  -2  -1  -1   52.69   16.80 
  -1   3  -1   59.29   77.89 
   2   1   1   20.00   13.20 
   1  -3   1   57.49   10.90 
   2   1   1   55.49   76.99 
   1  -3   1   75.19   63.99 
  -3   2   1   29.00   74.19 
   2   0  -1  816.82  109.99 
   0  -2  -1  864.61  118.39 
   0  -2  -1  508.15   66.99 
   2  -2   1  772.32  103.39 
   2  -2   1  422.06   65.09 
  -2   0   1  748.83  102.89 
   0   2   1  414.66   64.99 
   5  -3  -1  413.06   54.59 
   5  -3  -1  623.64   77.89 
  -2   5  -1  348.77   50.39 
   5  -3  -1  476.95   94.09 
  -3  -2  -1  682.33  122.49 
  -3  -2  -1  343.67   53.09 
   5  -3  -1  541.55   62.79 
   2  -5   1  467.85   58.79 
  -5   3   1  456.75  100.19 
   3   2   1  334.67   50.59 
   3   2   1  372.46   51.29 
   2  -5   1  365.76   53.09 
   2  -5   1  345.47   49.90 
   3   2   1  374.66  114.89 
   2  -5   1  339.67   52.79 
   2  -5   1  681.73   92.29 
   2  -3  -1   64.39   83.19 
  -3   1  -1   50.59   72.89 
   1   2  -1   46.40   73.69 
   2  -3  -1   30.50   20.30 
   1   2  -1   87.59   53.39 
  -1  -2   1   42.70   60.09 
   3  -1   1   41.60   13.70 
   3  -1   1   -5.20   62.69 
  -2   3   1   67.79   80.59 
  -1  -2   1  168.28   88.09 
   4  -1  -1   65.09   76.89 
  -1  -3  -1  166.68  100.59 
  -3   4  -1  106.29   85.59 
   4  -1  -1   68.49   20.80 
   4  -1  -1  127.69   32.10 
   4  -1  -1   85.79   59.59 
  -1  -3  -1   82.79   22.10 
   3  -4   1   62.89   17.70 
   3  -4   1   63.49   14.40 
   1   3   1   51.49   13.50 
  -4   1   1   11.90   65.39 
   1   3   1    4.20   84.99 
   3  -4   1  120.99   69.49 
   3  -4   1   25.30   74.79 
   1   3   1   73.19   14.50 
   7  -4  -1  818.92  106.29 
  -3   7  -1  680.13   97.39 
   7  -4  -1  785.92  127.09 
  -3   7  -1 1045.00  118.59 
  -4  -3  -1  705.63   98.19 
   7  -4  -1 1104.59  121.39 
   7  -4  -1  725.03  101.69 
   4   3   1 1130.39  159.78 
   3  -7   1 1026.50  132.79 
   3  -7   1  666.83   96.59 
   3  -7   1  670.83   99.89 
  -7   4   1 1184.38  147.69 
   4   3   1  742.83   96.99 
   3  -7   1  680.93   99.59 
   4   3   1  672.53   97.49 
   3  -7   1  972.70  103.59 
   4  -4  -1 3128.49  383.76 
   4  -4  -1 2797.92  379.66 
   4  -4  -1 2664.73  379.96 
   4  -4  -1 3070.29  382.46 
  -4   0  -1 3036.80  396.96 
   4  -4  -1 3214.58  404.26 
   0   4  -1 3135.09  385.16 
   0  -4   1 3555.14  390.26 
  -4   4   1 3002.80  403.36 
   4   0   1 2611.44  379.06 
   0  -4   1 3336.37  400.86 
   4   0   1 2830.82  380.06 
   4   0   1 2909.21  393.06 
   0  -4   1 3331.57  379.46 
  -4   3  -1  140.19   93.29 
   1  -4  -1   47.20   20.00 
   3   1  -1   72.89   77.29 
   1  -4  -1  173.08  120.69 
   3   1  -1  105.69   22.10 
   3   1  -1  137.79   59.39 
  -3  -1   1   90.59   58.49 
   4  -3   1  117.39   91.99 
   4  -3   1  104.79   17.40 
  -3  -1   1  118.59   80.59 
   4  -3   1  173.28   68.49 
  -1   4   1   82.19   16.80 
  -1   4   1   84.19   16.50 
  -3  -1   1   84.99   21.40 
   6  -2  -1  166.08   39.20 
  -2  -4  -1  240.28   37.50 
   6  -2  -1  267.17   49.10 
   6  -2  -1  277.57   70.09 
  -4   6  -1  264.07   35.90 
   6  -2  -1  184.88   81.29 
  -2  -4  -1  233.98  120.29 
   4  -6   1  242.08   52.29 
   4  -6   1  300.57   39.70 
   4  -6   1  261.97   39.10 
   4  -6   1  244.98   34.20 
   2   4   1  260.87  132.49 
   4  -6   1  137.59   85.99 
   4  -6   1  164.78   89.69 
  -6   2   1  225.58   70.29 
   2   4   1  262.17   34.40 
   2   4   1  245.28   34.80 
   9  -5  -1  269.57   47.90 
  -5  -4  -1  263.07   39.80 
   9  -5  -1  426.36   84.99 
   9  -5  -1  221.38   58.69 
  -4   9  -1  236.58   37.60 
  -4   9  -1  319.67   70.19 
  -5  -4  -1  389.96  135.19 
   9  -5  -1  271.07   80.99 
   4  -9   1  267.27   43.90 
   4  -9   1  189.28   92.99 
   4  -9   1  195.38   43.00 
  -9   5   1  542.55   95.69 
   5   4   1  246.38   37.20 
   4  -9   1  252.77   53.69 
   4  -9   1  274.37   36.50 
   5   4   1  269.47   39.20 
  -1   6  -1 3024.00  382.36 
   6  -5  -1 3156.58  386.06 
   6  -5  -1 3513.65  412.36 
   6  -5  -1 3084.39  383.46 
   6  -5  -1 2574.44  386.86 
  -1   6  -1 3413.16  390.06 
  -5  -1  -1 3258.57  403.96 
  -6   5   1 2940.41  382.46 
   5   1   1 2997.10  382.36 
   1  -6   1 2871.31  383.46 
   1  -6   1 3327.87  383.36 
   5   1   1 2346.17  404.36 
   1  -6   1 3119.09  405.16 
  -6   5   1 2711.23  408.86 
   1  -6   1 3234.48  394.16 
  -5   2  -1  472.15  112.29 
   2   3  -1  525.95   81.69 
   3  -5  -1  543.05  123.39 
   3  -5  -1  445.46   56.49 
   3  -5  -1  692.23   87.59 
   2   3  -1  343.87   53.69 
   3  -5  -1  367.66   56.99 
  -3   5   1  346.47   54.39 
  -2  -3   1  732.23   87.69 
   5  -2   1  438.76   57.19 
  -2  -3   1  757.92  110.09 
   5  -2   1  637.14  104.29 
   5  -2   1  333.17   55.19 
  -3   5   1  478.95  124.09 
   5   0  -1  144.99   27.90 
   5   0  -1  165.18   30.80 
   0  -5  -1   90.29   26.60 
   5   0  -1  140.09   63.79 
   0  -5  -1  121.69  113.19 
   5   0  -1   32.40   72.49 
  -5   5  -1   95.19   18.80 
   0  -5  -1   48.70   68.29 
   5  -5   1  148.99   26.50 
   5  -5   1  100.89   46.20 
   0   5   1  130.29   20.60 
   5  -5   1  137.69   21.20 
   5  -5   1   39.30   93.69 
   5  -5   1  129.09   78.39 
  -5   0   1   12.60   54.19 
  -5   0   1   79.59   27.50 
   5  -5   1  137.89   23.50 
   0   5   1  134.49   19.70 
   0   5   1   33.60  122.29 
  -5   0   1  -50.49   60.69 
   8  -3  -1  144.99   81.49 
   8  -3  -1  217.28   41.50 
  -5   8  -1  263.27   33.60 
  -3  -5  -1  166.48   37.20 
  -5   8  -1  190.58   70.99 
   8  -3  -1  131.99   77.09 
  -3  -5  -1  268.67  140.89 
   8  -3  -1  193.58   49.00 
   3   5   1  239.58   33.00 
   3   5   1  279.47   35.90 
   5  -8   1  258.77   32.90 
   5  -8   1  207.98   40.70 
   5  -8   1  295.17   38.70 
  -8   3   1    9.10   67.29 
   5  -8   1  163.98   89.09 
   5  -8   1  234.38   54.59 
  -6  -5  -1    1.30  137.49 
  -6  -5  -1   37.10   19.40 
  11  -6  -1   19.60   56.59 
  11  -6  -1  -49.99   59.19 
  11  -6  -1  102.49   73.09 
  -5  11  -1   33.90   17.70 
  -5  11  -1  -17.50   51.49 
  11  -6  -1   -5.40   35.20 
   5 -11   1   -5.30   89.09 
   5 -11   1   27.20   28.60 
   5 -11   1    1.00   28.20 
   5 -11   1   86.49   46.60 
   6   5   1   46.40   15.10 
   6   5   1    1.40   18.50 
   5 -11   1   26.40   13.70 
   8  -6  -1   58.69   57.49 
   8  -6  -1   -8.80  103.69 
   8  -6  -1   60.79   30.70 
   8  -6  -1    1.60   23.70 
  -6  -2  -1   43.70   16.60 
  -2   8  -1   44.70   16.00 
  -6  -2  -1  -80.09   96.69 
  -2   8  -1   34.50   59.29 
   8  -6  -1   23.00   47.50 
   2  -8   1   89.09   32.50 
  -8   6   1   14.10   17.50 
   2  -8   1   23.50   80.89 
   2  -8   1   22.00   26.30 
   6   2   1  -11.40  111.49 
   2  -8   1   53.69   11.60 
   6   2   1   -3.50   15.00 
  -8   6   1   86.79  103.89 
   5  -6  -1 2927.61  389.06 
   5  -6  -1 2892.41  384.46 
   5  -6  -1 3007.00  382.06 
   5  -6  -1 3131.59  414.06 
   5  -6  -1 3247.78  385.36 
  -6   1  -1 3174.18  399.36 
   1   5  -1 3036.40  380.56 
   1   5  -1 3308.87  387.86 
   6  -1   1 3010.90  382.26 
  -5   6   1 2243.98  407.66 
  -1  -5   1 3031.10  380.06 
   6  -1   1 2921.01  380.76 
  -1  -5   1 3068.49  405.16 
   6  -1   1 3215.28  400.36 
  -1  -5   1 2957.60  381.36 
  -5   6   1 2967.50  380.76 
  -1  -5   1 3211.58  391.76 
   2  -6  -1  254.87   41.50 
   2  -6  -1  233.68   80.09 
  -6   4  -1  225.98  100.89 
   4   2  -1  172.28   71.29 
   2  -6  -1  315.57  134.59 
   6  -4   1  224.88   36.50 
   6  -4   1  196.68  101.99 
   6  -4   1  197.78   81.99 
  -4  -2   1  265.67   94.59 
  -2   6   1  157.28  114.39 
  -4  -2   1  265.17   66.39 
  -2   6   1  276.07   36.10 
   6  -4   1  333.87   43.00 
  -6   7  -1  384.86   48.60 
  -1  -6  -1  375.86   50.49 
   7  -1  -1  159.68   80.59 
  -1  -6  -1  308.07   88.99 
   7  -1  -1  369.86   52.09 
   7  -1  -1  371.66   58.19 
  -1  -6  -1  124.09  145.09 
   7  -1  -1  307.77   85.59 
   1   6   1  354.16   48.90 
   6  -7   1  390.66   50.39 
   6  -7   1  367.06   69.09 
  -7   1   1  193.78   70.39 
   1   6   1  322.87   46.30 
   6  -7   1  279.17   92.09 
   6  -7   1  426.76   54.09 
   6  -7   1  345.37   48.30 
  10  -4  -1  244.78   89.39 
  10  -4  -1  398.26   67.69 
  -6  10  -1  378.56   51.39 
  10  -4  -1  212.48   79.59 
  10  -4  -1  403.06   58.39 
  -4  -6  -1  257.67   93.69 
  -6  10  -1  313.67   78.29 
  -4  -6  -1  171.88  147.39 
  -4  -6  -1  369.46   52.89 
   6 -10   1  454.65   51.59 
   4   6   1  405.76   52.19 
   6 -10   1  340.97   55.49 
   6 -10   1  196.78   97.29 
   6 -10   1  394.56   70.59 
 -10   4   1  256.07   77.29 
   6 -10   1  431.06   55.29 
   4   6   1  351.76   49.40 
  -6  13  -1  520.55   70.69 
  -6  13  -1  428.66   83.79 
  13  -7  -1  606.34   96.19 
  -7  -6  -1  502.45   71.09 
  13  -7  -1  534.65   79.59 
  -7  -6  -1  448.76  155.18 
  13  -7  -1  375.56  104.89 
   6 -13   1  556.94   69.29 
   6 -13   1  632.24   86.59 
   6 -13   1  443.66  122.49 
   7   6   1  503.05   71.29 
   6 -13   1  454.45   75.29 
   7   6   1  539.55   68.79 
   6 -13   1  545.85   75.29 
  10  -7  -1  642.14   85.09 
  -3  10  -1  743.43   88.69 
  10  -7  -1  635.94   92.39 
  10  -7  -1  402.86   71.89 
  -3  10  -1  432.36   66.69 
  -7  -3  -1  899.41  142.89 
  10  -7  -1  598.24  122.29 
  -7  -3  -1  424.06   65.19 
  10  -7  -1  451.35   67.49 
   3 -10   1  394.16   62.99 
   3 -10   1  657.63  114.39 
   3 -10   1  524.45   70.39 
   7   3   1  706.83  143.39 
   3 -10   1  506.05   68.89 
 -10   7   1  619.84  121.49 
   3 -10   1  606.54   74.89 
   7   3   1  409.46   64.09 
   7  -7  -1 6012.80  750.52 
   0   7  -1 5656.83  725.93 
  -7   0  -1 5815.62  740.73 
   0   7  -1 6073.09  726.13 
   7  -7  -1 5654.53  727.33 
   7  -7  -1 5387.76  729.03 
   7  -7  -1 5630.44  726.93 
   7  -7  -1 5784.52  732.03 
   7  -7  -1 5587.04  729.33 
   0   7  -1 6448.55  731.83 
  -7   7   1 5874.91  726.23 
   7   0   1 5640.54  725.93 
   0  -7   1 5907.91  726.03 
  -7   7   1 4886.61  747.33 
   7   0   1 5702.83  727.33 
   0  -7   1 5880.21  727.13 
   0  -7   1 6024.90  734.93 
   3   4  -1  935.91  121.29 
   4  -7  -1  740.43  100.89 
   3   4  -1  632.04   98.29 
   4  -7  -1  983.70  129.29 
   4  -7  -1  870.71  159.18 
   4  -7  -1  641.84  101.19 
  -7   3  -1 1091.79  151.18 
   7  -3   1  680.43   98.39 
  -3  -4   1 1042.70  147.09 
   7  -3   1  956.20  142.09 
  -3  -4   1 1051.69  124.89 
   7  -3   1 1051.79  132.99 
  -4   7   1  679.83   98.39 
   7  -3   1  744.73  100.89 
  -3  -4   1  744.83   99.99 
  -4   7   1  894.61  166.58 
   6   1  -1  364.26   50.29 
   1  -7  -1  377.86   49.60 
   6   1  -1  359.36   88.49 
   1  -7  -1  323.37  144.09 
   6   1  -1  356.26   50.09 
   1  -7  -1  217.88   89.49 
  -6  -1   1  116.29   80.49 
  -6  -1   1  207.88   64.19 
  -1   7   1  332.57   46.80 
   7  -6   1  348.57  109.19 
   7  -6   1  338.27   46.60 
   7  -6   1  339.77   45.70 
   7  -6   1  391.96   66.99 
   7  -6   1  320.97   50.29 
   7  -6   1  160.38   89.09 
  -1   7   1  327.37   45.10 
  -2  -7  -1   76.79   26.60 
  -2  -7  -1  199.88  138.99 
  -2  -7  -1  174.48   84.19 
   9  -2  -1  137.09   47.00 
   9  -2  -1  198.58   80.49 
   9  -2  -1   84.19   31.90 
  -7   9  -1   83.89   20.00 
   7  -9   1  216.58   51.89 
   7  -9   1  104.69   31.50 
   2   7   1   62.49   17.70 
   7  -9   1  125.99   29.10 
   2   7   1   87.79   22.20 
   7  -9   1   89.79   20.70 
  -9   2   1   50.09   65.09 
   7  -9   1   74.69   86.29 
  -5  -7  -1  348.97  154.18 
  12  -5  -1  514.85   75.49 
  -5  -7  -1  485.55   70.19 
  -5  -7  -1  452.45  107.79 
  12  -5  -1  437.36   78.79 
  12  -5  -1  402.66  110.09 
  -7  12  -1  421.66   83.69 
  -7  12  -1  518.75   67.39 
  12  -5  -1  591.24   85.99 
   7 -12   1  603.84   87.59 
   7 -12   1  528.35   72.29 
   7 -12   1  610.34   72.19 
   7 -12   1  532.55  120.19 
   5   7   1  464.85   64.99 
   5   7   1  466.15   68.79 
   7 -12   1  498.35   65.89 
  15  -8  -1  738.93  111.99 
  15  -8  -1  838.82  103.29 
  -7  15  -1  683.33   91.59 
  -8  -7  -1  631.64   92.59 
  -8  -7  -1  658.93  170.78 
   7 -15   1  602.14  137.29 
   8   7   1  694.33   92.49 
   7 -15   1  630.74  105.09 
   7 -15   1  701.53   96.49 
   7 -15   1  725.43   98.79 
  12  -8  -1  378.96   61.29 
  -4  12  -1  399.26   72.79 
  12  -8  -1  270.67   96.39 
  -8  -4  -1  470.45  131.69 
  -4  12  -1  365.56   50.59 
  12  -8  -1  188.48   77.79 
  -8  -4  -1  372.06   49.99 
  12  -8  -1  432.66   75.89 
   4 -12   1  366.96   57.09 
   4 -12   1  362.36   56.49 
   4 -12   1  468.55  108.49 
   4 -12   1  317.47   48.00 
   8   4   1  357.66   49.99 
   4 -12   1  372.26   64.49 
  -1   9  -1 1700.13  208.18 
   9  -8  -1 1549.94  200.68 
   9  -8  -1 1464.95  213.08 
   9  -8  -1 1622.64  207.88 
   9  -8  -1 1261.47  240.28 
   9  -8  -1 1527.85  202.18 
  -8  -1  -1 1556.54  234.78 
   9  -8  -1 1439.06  207.58 
  -1   9  -1 1576.54  198.18 
   8   1   1 1597.14  198.28 
  -9   8   1 1721.73  198.88 
   1  -9   1 1718.53  201.08 
   8   1   1 1544.35  202.08 
   1  -9   1 1606.44  221.88 
   8   1   1 1150.38  237.78 
   1  -9   1 1530.85  199.68 
  -9   8   1 1320.27  235.98 
   6  -8  -1   32.50   26.70 
   2   6  -1   -8.50   64.49 
   6  -8  -1   48.20   70.29 
   6  -8  -1   17.60   43.60 
  -8   2  -1   77.59   92.69 
   6  -8  -1  -91.19  122.79 
   6  -8  -1    0.70   27.90 
   2   6  -1   33.00   15.70 
  -2  -6   1   52.59   24.80 
  -6   8   1   64.19   18.30 
   8  -2   1   88.09   79.39 
   8  -2   1   53.29   28.60 
  -2  -6   1   85.49   68.29 
   8  -2   1    7.20   16.50 
   3  -8  -1  243.78   39.00 
   3  -8  -1  172.18   83.09 
   3  -8  -1   45.40  125.59 
   5   3  -1  194.08   28.80 
  -8   5  -1  228.38  106.59 
   5   3  -1  293.47   79.99 
   3  -8  -1  195.58   39.10 
   8  -5   1   91.39   97.99 
  -5  -3   1   71.89   87.19 
   8  -5   1  256.87   42.20 
  -3   8   1  277.67   32.30 
   8  -5   1   75.29   54.99 
   8  -5   1   34.10   81.49 
   8  -5   1  207.68   32.50 
  -5  -3   1  141.09   60.39 
   8   0  -1  487.35   65.29 
   0  -8  -1  420.56   60.19 
   0  -8  -1  129.59   94.79 
   0  -8  -1  104.59  153.28 
   8   0  -1  449.46   61.59 
   8   0  -1  301.57  100.09 
  -8   8  -1  435.96   56.49 
   8  -8   1  213.08  100.29 
   8  -8   1  427.46   58.59 
   8  -8   1  452.25   57.69 
   0   8   1  414.06   55.09 
   0   8   1  468.35   57.89 
   8  -8   1  478.65   62.49 
  -8   0   1  224.68   81.19 
   8  -8   1  362.56   81.39 
  -3  -8  -1   17.10  139.59 
  -3  -8  -1   54.39   24.30 
  11  -3  -1   49.99   48.40 
  -3  -8  -1   67.19   82.69 
  11  -3  -1  100.09   33.30 
  -8  11  -1    2.30   17.80 
  -8  11  -1   58.69   60.49 
  11  -3  -1  105.09   82.99 
   8 -11   1  120.09   90.49 
   8 -11   1   -2.30   26.10 
   3   8   1    3.70   12.20 
   8 -11   1   31.30   19.30 
   8 -11   1   50.29   50.09 
   3   8   1   43.60   19.90 
   8 -11   1   31.30   35.50 
  14  -6  -1   96.79   41.20 
  -6  -8  -1   95.19   83.19 
  14  -6  -1  131.29   90.59 
  -6  -8  -1  110.29   28.80 
  -8  14  -1  110.29   24.50 
  -6  -8  -1  297.37  144.59 
  14  -6  -1  165.48   65.49 
   8 -14   1  127.89   58.89 
   8 -14   1  128.69   37.80 
   8 -14   1   97.59   32.10 
   6   8   1   97.49   25.70 
   8 -14   1  100.39   98.89 
   8 -14   1  109.69   22.40 
   6   8   1   96.39   18.50 
  -8  17  -1   16.50   22.90 
  -9  -8  -1   88.09  136.49 
  17  -9  -1   89.59   60.89 
  17  -9  -1  124.49   44.40 
   8 -17   1  188.18   97.89 
   8 -17   1  143.29   53.79 
   8 -17   1  118.79   38.30 
   9   8   1   99.09   25.40 
   8 -17   1   92.29   34.30 
  14  -9  -1   30.50   59.29 
  -5  14  -1  -14.50   18.40 
  14  -9  -1    5.70   39.10 
  -9  -5  -1  -72.29  117.19 
   9   5   1   27.20   13.50 
   5 -14   1   34.80   30.10 
   5 -14   1   34.40   43.50 
   5 -14   1  122.89   90.89 
 -14   9   1   13.40   19.70 
   5 -14   1  -18.80   32.20 
  -2  11  -1   78.19   60.29 
  11  -9  -1    1.00   28.10 
  -9  -2  -1  159.18   99.49 
  11  -9  -1   -9.80   52.49 
  11  -9  -1   89.29   50.09 
  11  -9  -1   84.39   60.09 
  11  -9  -1   18.70   37.00 
  -2  11  -1   18.30   18.10 
  11  -9  -1   19.60  104.09 
   9   2   1   21.20   15.10 
   2 -11   1   32.00   31.70 
   2 -11   1  118.59   89.99 
   2 -11   1    3.00   31.20 
   9   2   1   62.49  108.19 
 -11   9   1   -6.50   20.40 
   1   8  -1 1603.84  204.08 
   8  -9  -1 1396.46  221.78 
  -9   1  -1 1611.04  235.08 
   1   8  -1 1585.74  216.38 
   8  -9  -1 1517.95  205.78 
   8  -9  -1 1504.55  211.58 
   8  -9  -1 1650.43  207.58 
   8  -9  -1 1427.66  250.77 
   1   8  -1 1684.23  203.78 
  -1  -8   1 1652.83  206.18 
  -8   9   1 1654.23  204.38 
  -1  -8   1 1746.63  226.88 
   9  -1   1 1554.14  206.98 
   9  -1   1 1619.34  203.68 
   5  -9  -1  315.07   88.49 
   4   5  -1  254.47   39.00 
   4   5  -1  297.17   83.79 
  -9   4  -1  268.47   97.59 
   5  -9  -1  280.87   45.50 
   5  -9  -1  416.86  154.08 
   5  -9  -1  234.48   45.40 
  -4  -5   1  245.58   42.20 
  -5   9   1  256.97   38.90 
  -4  -5   1  346.97   76.09 
   9  -4   1   64.19   88.89 
   9  -4   1  371.06   85.09 
   9  -4   1  251.67   45.50 
  -4  -5   1  356.36  103.49 
   9  -4   1  256.87   39.30 
   2  -9  -1   74.89   29.40 
   7   2  -1  133.69   28.00 
   7   2  -1   91.79   31.30 
   2  -9  -1  115.99   83.99 
   2  -9  -1   77.29  133.49 
   7   2  -1  228.28   86.19 
  -9   7  -1   20.20   18.20 
  -2   9   1   85.09   21.20 
   9  -7   1   83.89   19.70 
  -2   9   1  104.69   17.70 
   9  -7   1  149.09   56.99 
  -7  -2   1  104.49   51.19 
   9  -7   1   65.99   21.50 
  -7  -2   1 -159.78   68.39 
   9  -7   1  196.98   81.29 
   9  -7   1  137.89   98.69 
   9  -7   1  109.99   32.60 
  -1  -9  -1  125.09   32.70 
  10  -1  -1  -21.80   85.59 
  10  -1  -1  115.19   36.20 
  10  -1  -1  137.49   43.20 
  -1  -9  -1   81.49   89.29 
  -1  -9  -1  -11.10  127.29 
  -9  10  -1  160.68   25.60 
   1   9   1  139.19   27.00 
   9 -10   1  113.39   27.40 
   1   9   1  129.59   21.70 
   9 -10   1   48.10   88.29 
   9 -10   1  165.28   37.70 
 -10   1   1   98.39   56.69 
   9 -10   1  154.48   56.99 
   9 -10   1  152.58   29.90 
  -4  -9  -1   59.19  125.89 
  13  -4  -1   99.09   41.40 
  -9  13  -1  185.98   29.00 
  13  -4  -1  326.17   96.09 
  -4  -9  -1  156.88   32.90 
  13  -4  -1  177.18   59.49 
  -4  -9  -1  188.48   90.89 
   9 -13   1  167.28   28.50 
   4   9   1  137.19   23.00 
   9 -13   1  163.78   99.39 
   9 -13   1  132.49   57.39 
   9 -13   1  185.38   41.80 
   4   9   1  132.59   29.10 
   9 -13   1  122.29   33.50 
  -9  16  -1  284.77   46.30 
  -7  -9  -1  293.77  157.38 
  16  -7  -1  301.37   59.09 
  16  -7  -1  301.37   74.29 
  -7  -9  -1  345.07   49.70 
   9 -16   1  320.27   53.69 
   9 -16   1  368.06   73.49 
   9 -16   1  168.78  102.19 
   7   9   1  307.87   47.10 
   9 -16   1  317.47   56.69 
  -9  19  -1  164.48   28.50 
  -9  19  -1   82.99   34.20 
  19 -10  -1  170.28   47.00 
  19 -10  -1   49.50   62.59 
   9 -19   1   30.40   93.19 
   9 -19   1  121.59   39.20 
  10   9   1   53.99   72.49 
   9 -19   1  116.79   54.09 
 -19  10   1   54.69   26.20 
   9 -19   1  124.69   42.40 
  10   9   1  220.68   38.80 
  16 -10  -1  303.37   58.09 
  16 -10  -1  293.47   74.69 
  -6  16  -1  289.87   45.00 
   6 -16   1  246.48   50.59 
   6 -16   1  287.57   52.69 
   6 -16   1  303.97   58.49 
   6 -16   1  295.77  104.19 
  13 -10  -1  799.82  102.89 
 -10  -3  -1 1066.29  147.69 
  -3  13  -1  828.42  106.19 
  13 -10  -1  738.13   94.19 
  13 -10  -1  596.64   88.79 
  13 -10  -1  740.03  107.79 
  13 -10  -1  759.72  134.09 
  -3  13  -1  464.55   85.09 
 -13  10   1  557.54   86.49 
   3 -13   1  630.84   90.79 
  10   3   1  596.24   84.79 
   3 -13   1  849.41  133.29 
   3 -13   1  655.33   90.59 
   3 -13   1  669.73   90.49 
   0  10  -1 2681.23  330.07 
  10 -10  -1 2519.85  324.87 
 -10   0  -1 2899.31  346.37 
  10 -10  -1 2516.05  333.37 
   0  10  -1 2511.75  321.57 
  10 -10  -1 2804.82  368.46 
  10 -10  -1 2607.94  323.57 
  10 -10  -1 2655.53  328.97 
  10 -10  -1 2124.39  324.27 
 -10  10   1 2413.76  321.87 
   0 -10   1 2966.50  341.37 
   0 -10   1 2496.05  323.67 
  10   0   1 2438.66  321.17 
  10   0   1 2542.35  324.97 
   7 -10  -1  556.34   83.59 
   7 -10  -1  499.15   71.69 
   7 -10  -1  626.74  107.99 
   7 -10  -1  538.25  151.88 
   3   7  -1  433.06   68.59 
 -10   3  -1  813.02  122.19 
   3   7  -1  759.32  102.79 
   7 -10  -1  479.25   73.29 
  10  -3   1  463.95   72.49 
  10  -3   1  816.42  103.79 
  -3  -7   1  791.02  106.89 
  -7  10   1  398.26   68.19 
  -3  -7   1  435.96   70.29 
  10  -3   1  465.75   67.99 
  10  -3   1  379.76  108.49 
   4 -10  -1  389.26   55.09 
   4 -10  -1  399.46   56.49 
   6   4  -1  311.87   95.59 
   4 -10  -1  191.88  164.98 
   6   4  -1  297.47   47.40 
   4 -10  -1  205.18   96.99 
  -4  10   1  421.36   50.29 
  -6  -4   1  411.66   52.19 
  10  -6   1  387.96   57.19 
  10  -6   1  427.16   50.29 
  -6  -4   1  264.17   74.89 
  10  -6   1  193.88  109.89 
  10  -6   1  293.47   92.89 
  10  -6   1  378.66   75.29 
  -6  -4   1  138.09   97.49 
   1 -10  -1   25.20   87.89 
   1 -10  -1  -13.70  135.29 
   9   1  -1  116.79   35.60 
 -10   9  -1  141.49   24.00 
   9   1  -1  -17.10   83.99 
   9   1  -1   55.99   35.10 
   1 -10  -1  165.28   33.80 
  10  -9   1   81.89   64.69 
  10  -9   1  101.19   25.80 
  -1  10   1   99.79   19.70 
  10  -9   1  144.19   37.00 
  -9  -1   1  100.79   42.30 
  10  -9   1   73.29   83.99 
  -9  -1   1  141.39   68.99 
  10  -9   1  119.39   25.30 
  -1  10   1  151.78   25.70 
 -10  12  -1  458.35   66.89 
  -2 -10  -1  532.95   70.69 
  -2 -10  -1  612.64  115.49 
  12  -2  -1  633.84  116.09 
  12  -2  -1  535.45   79.89 
  12  -2  -1  498.45   73.99 
  -2 -10  -1  566.34  171.58 
  10 -12   1  608.84   94.39 
  10 -12   1  501.05   66.79 
   2  10   1  415.36   63.49 
   2  10   1  469.35   67.69 
  10 -12   1  451.25  115.19 
  10 -12   1  510.35   71.59 
  10 -12   1  579.74   74.79 
  -5 -10  -1 1040.00  171.88 
  15  -5  -1 1221.48  176.58 
  15  -5  -1 1162.38  156.18 
  15  -5  -1 1070.79  146.79 
  -5 -10  -1 1133.69  223.18 
  -5 -10  -1  968.30  141.39 
 -10  15  -1 1016.70  140.19 
  10 -15   1 1128.19  143.49 
  10 -15   1 1132.59  152.98 
  10 -15   1 1171.88  146.29 
  10 -15   1 1082.19  139.39 
  10 -15   1 1195.78  179.18 
   5  10   1 1086.09  140.99 
  -8 -10  -1  734.93  187.48 
  18  -8  -1  711.83  121.49 
 -10  18  -1  882.41   99.59 
  18  -8  -1  671.43  106.59 
  10 -18   1  746.03  106.49 
  10 -18   1  484.75  138.89 
   8  10   1  712.13   98.79 
  10 -18   1  573.74  113.49 
  10 -18   1  826.62  107.59 
  21 -11  -1   28.50   43.50 
  21 -11  -1  -47.40   66.89 
 -10  21  -1   32.50   21.50 
 -10  21  -1  -17.70   30.70 
  10 -21   1  -34.70   37.90 
  11  10   1    8.40   64.99 
 -21  11   1  -17.50   20.50 
  10 -21   1   89.19   97.29 
  11  10   1  -71.39   34.90 
  10 -21   1   -2.10   43.20 
  18 -11  -1  248.98   84.09 
  -7  18  -1  294.27   43.50 
  18 -11  -1  290.87   59.39 
   7 -18   1  298.67   54.09 
   7 -18   1  240.58   52.19 
   7 -18   1  191.18  100.19 
  15 -11  -1  227.68   39.70 
  15 -11  -1  277.17   52.79 
  -4  15  -1  216.28   37.30 
  15 -11  -1  220.48   71.39 
 -15  11   1  253.17   39.30 
   4 -15   1  214.28   53.49 
   4 -15   1  228.68   47.30 
   4 -15   1  173.88   96.39 
  11   4   1  237.48   33.70 
   4 -15   1  213.58   45.20 
  12 -11  -1  677.93  148.49 
  12 -11  -1  742.73  112.79 
  12 -11  -1  676.23   97.09 
 -11  -1  -1  810.22  137.19 
  12 -11  -1  704.03  101.09 
  12 -11  -1  759.62  115.69 
  -1  12  -1  952.50  119.39 
  -1  12  -1  634.64   92.89 
   1 -12   1  613.34  129.29 
  11   1   1  718.33  100.09 
   1 -12   1  646.74   97.99 
  11   1   1  696.63   91.59 
 -12  11   1  706.83   93.99 
   9 -11  -1  -20.20   27.50 
   9 -11  -1  156.88   80.59 
   9 -11  -1   57.49   50.99 
 -11   2  -1   95.59   92.59 
   9 -11  -1   64.89  140.59 
   2   9  -1   35.40   18.50 
   9 -11  -1    4.00   28.00 
   2   9  -1  186.98   79.89 
  -9  11   1  -17.30   19.40 
  11  -2   1   -0.80   17.80 
  -2  -9   1  195.48   77.49 
  -2  -9   1   -0.80   28.00 
  11  -2   1   56.29   75.69 
  11  -2   1   22.30   37.90 
   5   6  -1   27.20   18.30 
   6 -11  -1    3.10   29.00 
   6 -11  -1   20.90  137.29 
   6 -11  -1   61.69   85.69 
   5   6  -1   17.80   81.89 
   6 -11  -1  -17.60   30.60 
  -6  11   1   10.00   19.40 
  11  -5   1   12.00   19.60 
  -5  -6   1   24.10   28.30 
  11  -5   1   -3.00   31.20 
  11  -5   1  -26.20   78.79 
  11  -5   1  -68.79   71.49 
  11  -5   1   53.89   53.59 
  -5  -6   1  -15.50   62.49 
   3 -11  -1  -21.40   88.19 
   8   3  -1   82.59   24.80 
 -11   8  -1   -1.60   16.60 
   8   3  -1  -14.50   83.69 
   3 -11  -1   58.79   32.50 
   3 -11  -1   27.80   30.20 
   3 -11  -1  253.17  167.28 
  11  -8   1  101.59   78.09 
  11  -8   1    6.30   20.10 
  -8  -3   1  153.68   51.39 
  11  -8   1  -16.30   57.39 
  11  -8   1   13.20   14.60 
  -3  11   1   24.20   20.50 
  11  -8   1   39.80   34.00 
  -8  -3   1  -10.40   19.40 
  -8  -3   1 -159.08   62.89 
 -11  11  -1   67.09   21.90 
  11   0  -1  129.79   88.39 
  11   0  -1  130.49   40.40 
  11   0  -1  134.09   38.40 
   0 -11  -1   96.89   89.49 
   0 -11  -1  272.67  165.48 
   0 -11  -1   41.40   31.30 
  11 -11   1  114.49   36.70 
  11 -11   1  211.88   66.09 
   0  11   1   94.89   23.80 
   0  11   1   64.29   15.50 
  11 -11   1   77.79   23.40 
  11 -11   1  107.79   26.20 
  11 -11   1   89.79   85.99 
  -3 -11  -1  542.95   82.99 
  -3 -11  -1  560.44  164.28 
  14  -3  -1  649.04   86.99 
 -11  14  -1  561.44   79.09 
  -3 -11  -1  598.04  124.49 
  14  -3  -1  530.05  121.09 
  14  -3  -1  828.32   95.69 
   3  11   1  512.15   79.29 
  11 -14   1  595.74   85.69 
  11 -14   1  438.46  126.39 
  11 -14   1  594.44   84.39 
  11 -14   1  595.44   79.99 
  11 -14   1  641.54  100.09 
  -6 -11  -1  404.46   62.39 
  17  -6  -1  480.65   87.79 
  -6 -11  -1  389.56  107.19 
  -6 -11  -1  284.07  161.58 
  17  -6  -1  381.36   69.29 
 -11  17  -1  466.15   59.59 
  11 -17   1  420.66   64.09 
  11 -17   1  348.37   79.89 
  11 -17   1  222.68  109.79 
  11 -17   1  459.85   69.59 
   6  11   1  392.46   59.49 
  20  -9  -1   69.59   61.39 
 -11  20  -1  128.39   32.40 
  20  -9  -1  114.19   45.10 
 -11  20  -1  116.09   25.50 
  11 -20   1    3.90   96.09 
   9  11   1   42.30   62.99 
  11 -20   1   86.69   43.50 
  11 -20   1   21.80   56.89 
   9  11   1   70.09   26.50 
  11 -20   1   60.59   35.80 
   9  11   1   78.09   36.90 
 -11  23  -1   12.80   20.70 
  23 -12  -1  -77.79   65.39 
 -11  23  -1   61.99   37.50 
  23 -12  -1   -6.60   44.40 
  12  11   1   46.90   68.39 
  12  11   1    6.70   35.10 
 -23  12   1   38.20   23.20 
  11 -23   1   23.80   38.70 
  11 -23   1   61.09   44.40 
  11 -23   1   63.89  105.59 
  20 -12  -1   25.00   44.10 
  -8  20  -1    9.90   21.20 
  20 -12  -1  107.39   74.79 
  -8  20  -1   24.10   30.90 
  12   8   1  112.49   72.19 
   8 -20   1   68.09   35.80 
 -20  12   1   64.49   23.10 
   8 -20   1   83.19   96.39 
  12   8   1   58.39   37.60 
   8 -20   1    6.60   38.10 
  17 -12  -1   20.00   61.59 
  17 -12  -1    2.20   42.90 
  -5  17  -1  -29.40   18.20 
   5 -17   1    7.10   85.29 
   5 -17   1  -25.10   33.90 
   5 -17   1   15.50   32.30 
 -17  12   1   -6.80   20.30 
  -2  14  -1   59.29   21.40 
  14 -12  -1  108.89   98.39 
  14 -12  -1   43.10   29.20 
  14 -12  -1   44.40   58.59 
  -2  14  -1  217.58   66.29 
  14 -12  -1  -56.89   39.50 
  12   2   1   38.50   16.80 
 -14  12   1   25.10   22.30 
   2 -14   1  134.79   87.09 
   2 -14   1   84.69   32.10 
  11 -12  -1  759.52  183.58 
  11 -12  -1  770.22   98.29 
   1  11  -1  691.83   94.49 
  11 -12  -1  708.63  112.69 
 -12   1  -1  763.92  137.29 
  11 -12  -1  760.92  103.09 
   1  11  -1  771.82  118.99 
  11 -12  -1  808.42  127.59 
  12  -1   1  741.53  102.69 
  12  -1   1  653.83   93.79 
 -11  12   1  707.33   95.49 
  -1 -11   1  663.03   99.59 
  -1 -11   1  673.13  128.89 
   4   8  -1  313.97   52.89 
   8 -12  -1  335.77  151.18 
   8 -12  -1  524.55   78.89 
 -12   4  -1  411.86  100.79 
   8 -12  -1  402.46  102.79 
   8 -12  -1  358.86   61.59 
   8 -12  -1  349.07   58.59 
   4   8  -1  548.85   96.59 
  12  -4   1  319.27   60.79 
  12  -4   1  405.46   53.19 
  -4  -8   1  376.56   89.69 
  -4  -8   1  357.96   57.09 
  -8  12   1  401.76   54.39 
  12  -4   1  326.17   83.69 
  12  -4   1  423.86   74.99 
   5 -12  -1  587.54  118.39 
   5 -12  -1  575.54   75.49 
   5 -12  -1  276.77  166.08 
   7   5  -1  604.14  111.79 
   7   5  -1  513.35   68.39 
   5 -12  -1  511.65   76.39 
  12  -7   1  461.25  120.19 
  -7  -5   1  450.75   90.99 
  12  -7   1  476.85   69.79 
  12  -7   1  523.15   77.09 
  12  -7   1  545.55   90.89 
  -7  -5   1  563.24   72.89 
  12  -7   1  469.35  101.29 
  -5  12   1  505.35   70.69 
   2 -12  -1  517.15   69.89 
  10   2  -1  665.13  113.29 
   2 -12  -1  444.16  172.28 
   2 -12  -1  498.65  113.59 
  10   2  -1  539.85   72.19 
 -12  10  -1  467.95   64.09 
  10   2  -1  553.44   69.29 
  -2  12   1  493.95   65.19 
 -10  -2   1  412.16  100.49 
  12 -10   1  397.26  103.09 
 -10  -2   1  343.77   63.39 
  12 -10   1  538.45   65.89 
  -2  12   1  403.86   60.89 
  12 -10   1  482.45   71.69 
  12 -10   1  485.25   63.79 
  12 -10   1  483.85   88.49 
  -1 -12  -1    0.50   29.20 
  13  -1  -1   44.70   36.00 
 -12  13  -1   20.40   18.20 
  13  -1  -1  -33.40   37.20 
  -1 -12  -1  -73.99   90.89 
  13  -1  -1   94.09   99.99 
  -1 -12  -1  131.49  140.69 
  12 -13   1    1.30   23.00 
  12 -13   1  -44.70   35.10 
  12 -13   1    5.50   89.19 
   1  12   1   21.10   19.80 
  12 -13   1   25.40   22.20 
  12 -13   1   18.70   59.29 
  16  -4  -1   33.90   37.40 
  16  -4  -1   90.99   97.59 
  -4 -12  -1  -49.30  141.19 
 -12  16  -1   55.19   22.70 
  -4 -12  -1   49.99   29.30 
  -4 -12  -1  288.97   95.99 
  16  -4  -1  109.09   52.99 
  12 -16   1   36.70   38.70 
   4  12   1   56.39   22.30 
  12 -16   1  -32.80   66.59 
  12 -16   1  -31.60   91.39 
  12 -16   1   67.39   20.30 
  12 -16   1   35.10   28.30 
  -7 -12  -1  -97.09   85.59 
  19  -7  -1   89.19   65.19 
  19  -7  -1   19.10   41.10 
 -12  19  -1   70.99   25.00 
  -7 -12  -1   43.10   29.40 
  -7 -12  -1   31.00  141.99 
  12 -19   1   24.80   32.40 
   7  12   1   91.39   62.39 
  12 -19   1   57.29   39.90 
   7  12   1   41.40   31.90 
   7  12   1   46.30   23.20 
  12 -19   1   83.79   62.59 
  12 -19   1  -33.10   89.29 
 -12  22  -1   14.70   30.10 
  22 -10  -1    8.20   45.00 
  22 -10  -1   -4.60   68.09 
 -12  22  -1   38.60   22.50 
  12 -22   1   -1.10   96.09 
  10  12   1   35.30   66.49 
  10  12   1   -2.20   35.10 
  12 -22   1  -48.30   31.40 
 -22  10   1  -17.30   21.40 
  12 -22   1   44.80   47.50 
 -12  25  -1  148.49   32.10 
 -12  25  -1  169.68   40.60 
  25 -13  -1  158.78   57.59 
  13  12   1  165.38   76.09 
  12 -25   1  159.18   56.89 
  12 -25   1  124.39   45.70 
 -25  13   1  141.29   32.30 
  13  12   1  100.19   45.50 
  22 -13  -1   34.60   69.89 
  22 -13  -1   88.09   45.50 
  -9  22  -1   27.70   21.30 
  -9  22  -1   16.20   32.30 
  13   9   1   46.10   37.80 
   9 -22   1   15.50   99.09 
   9 -22   1   -0.20   35.80 
 -22  13   1  -13.10   22.00 
   9 -22   1   18.10   39.80 
  13   9   1   11.40   66.19 
  19 -13  -1  187.68   79.79 
  -6  19  -1  292.97   52.19 
  -6  19  -1  313.37   47.00 
  19 -13  -1  300.47   62.39 
  13   6   1  209.08   75.89 
  13   6   1  355.56   56.29 
   6 -19   1  356.06   56.89 
   6 -19   1  266.87   55.79 
 -19  13   1  338.97   48.00 
   6 -19   1  148.59  103.59 
  -3  16  -1  264.47   39.60 
  16 -13  -1  272.47   54.19 
  16 -13  -1  175.28   40.30 
  16 -13  -1  254.57   71.99 
   3 -16   1  232.68   96.09 
   3 -16   1  164.28  153.68 
   3 -16   1  288.57   49.60 
 -16  13   1  210.48   39.90 
   3 -16   1  288.07   48.50 
  13   3   1  252.47   35.40 
  13 -13  -1 1548.84  202.78 
  13 -13  -1 1577.04  208.48 
  13 -13  -1 1526.15  196.18 
   0  13  -1 1461.75  189.98 
  13 -13  -1 1487.05  192.78 
   0  13  -1 1655.23  206.78 
  13 -13  -1 1543.95  252.87 
  13   0   1 1361.26  189.58 
 -13  13   1 1397.36  190.58 
  13   0   1 1552.44  196.18 
   0 -13   1 1425.76  193.28 
   0 -13   1 1639.14  218.88 
  10 -13  -1  983.50  194.88 
  10 -13  -1  655.63   94.79 
  10 -13  -1 1031.80  133.09 
   3  10  -1  536.15   87.29 
  10 -13  -1  665.83   92.29 
   3  10  -1 1122.29  127.99 
  10 -13  -1  707.43  107.79 
  13  -3   1  591.34   93.79 
 -10  13   1  526.15   88.39 
  13  -3   1  888.71  111.49 
  13  -3   1  827.52  107.89 
  -3 -10   1  602.04   91.39 
  13  -3   1  569.14   87.49 
  -3 -10   1  972.30  124.29 
   7 -13  -1  430.76  192.28 
   6   7  -1  635.84  110.49 
   7 -13  -1  484.15   76.59 
   7 -13  -1  558.54   79.19 
   6   7  -1  554.44   72.29 
   7 -13  -1  525.55  118.39 
  13  -6   1  594.64   79.29 
  -7  13   1  496.75   72.79 
  13  -6   1  467.65   92.69 
  13  -6   1  533.15   72.89 
  -6  -7   1  513.55   75.09 
  -6  -7   1  511.65   97.89 
  13  -6   1  537.05   96.99 
   9   4  -1  139.79   88.69 
   4 -13  -1   50.09   97.29 
   4 -13  -1  311.77  167.58 
   4 -13  -1  166.28   39.30 
   4 -13  -1  135.29   43.10 
  13  -9   1  153.58   43.80 
  -4  13   1  126.19   30.60 
  13  -9   1  184.28   31.10 
  13  -9   1  237.18   74.69 
  -9  -4   1  169.98   32.80 
  13  -9   1  137.19   65.69 
  -9  -4   1  177.18   94.69 
  -9  -4   1  137.49   59.69 
  12   1  -1   52.49   33.00 
   1 -13  -1   -6.80   90.09 
   1 -13  -1  -14.80   29.80 
  12   1  -1   57.69   86.59 
  12   1  -1    0.50   35.90 
   1 -13  -1   58.19  152.28 
 -13  12  -1   16.20   18.40 
 -12  -1   1  -59.29   15.50 
  13 -12   1   33.70   18.90 
  13 -12   1    6.70   63.59 
  13 -12   1   20.80   35.70 
  13 -12   1  -12.50   82.39 
  13 -12   1   29.20   20.70 
  -1  13   1   -3.80   20.00 
  -2 -13  -1  606.74  202.58 
  -2 -13  -1  763.42  114.59 
  -2 -13  -1  769.12  151.18 
  15  -2  -1  852.31  156.68 
  15  -2  -1  830.02  118.59 
 -13  15  -1  919.51  110.89 
  15  -2  -1  847.42  119.09 
   2  13   1  850.51  111.29 
  13 -15   1  819.02  111.69 
  13 -15   1  828.82  118.69 
  13 -15   1  682.33  147.89 
  13 -15   1  932.21  111.09 
  13 -15   1  881.21  130.59 
  -5 -13  -1  530.95  141.89 
  -5 -13  -1  642.84  194.38 
  18  -5  -1  756.42  111.69 
  -5 -13  -1  773.12  107.19 
  18  -5  -1  751.42  119.29 
 -13  18  -1  827.92  104.29 
  13 -18   1  846.72  112.89 
  13 -18   1  534.15  143.99 
   5  13   1  767.62  106.79 
  13 -18   1  826.32  107.79 
  13 -18   1  775.62  126.99 
   5  13   1  723.73  119.59 
   5  13   1  892.61  105.49 
  21  -8  -1   82.49   59.69 
 -13  21  -1  116.79   27.10 
 -13  21  -1   36.80   32.40 
  21  -8  -1  160.48   48.00 
  13 -21   1   98.99   37.40 
  13 -21   1  124.29   44.30 
  13 -21   1  -71.29   94.99 
  13 -21   1   40.40   64.49 
   8  13   1   10.20   65.59 
   8  13   1  142.39   29.10 
   8  13   1  118.99   38.00 
 -13  24  -1   38.00   23.70 
  24 -11  -1   78.09   48.00 
 -13  24  -1   49.70   33.20 
  11  13   1   80.29   39.80 
  13 -24   1   51.89   49.00 
  13 -24   1  114.29   37.00 
  11  13   1  224.58   73.19 
 -24  11   1   46.00   27.00 
 -13  27  -1  258.07   43.60 
  27 -14  -1  110.39   56.69 
 -13  27  -1  275.77   49.70 
  14  13   1  188.88   89.99 
  14  13   1  225.98   51.19 
  13 -27   1  158.48   51.09 
 -27  14   1  299.07   46.60 
  13 -27   1  242.38   60.59 
 -10  24  -1  218.18   45.80 
  24 -14  -1  174.48   61.59 
 -10  24  -1  220.58   38.20 
  10 -24   1  142.69   52.79 
  14  10   1  155.18   77.09 
  14  10   1  246.48   50.59 
  10 -24   1  168.98   49.20 
 -24  14   1  270.37   41.30 
  -7  21  -1  -25.30   31.70 
  21 -14  -1  -19.50   70.89 
  21 -14  -1  -12.20   42.60 
  -7  21  -1   11.00   20.10 
   7 -21   1   10.00   38.20 
   7 -21   1  -65.79   92.89 
  14   7   1   52.69   38.30 
  14   7   1  -51.79   62.79 
 -21  14   1   -3.00   22.00 
   7 -21   1   13.20   34.10 
  18 -14  -1  151.28   78.59 
  18 -14  -1  180.88   51.49 
  -4  18  -1  173.58   42.50 
  -4  18  -1  195.28   35.10 
   4 -18   1  150.58   43.50 
  14   4   1  261.67   46.40 
   4 -18   1  129.89   94.39 
   4 -18   1  217.18   50.99 
 -18  14   1  220.68   36.60 
  15 -14  -1  217.08   78.49 
  -1  15  -1  408.16   82.59 
  15 -14  -1  330.07   52.79 
  -1  15  -1  284.17   47.90 
  15 -14  -1  362.76   61.79 
  14   1   1  364.96   46.90 
   1 -15   1   35.80  163.58 
   1 -15   1  319.37   55.49 
 -15  14   1  342.77   49.30 
   1 -15   1  160.58   94.39 
  12 -14  -1  166.48   87.79 
   2  12  -1   18.00   20.30 
  12 -14  -1  121.19   54.99 
  12 -14  -1   -0.80   28.40 
   2  12  -1  211.38   78.29 
  12 -14  -1   81.39   41.50 
  12 -14  -1  241.78  150.28 
  -2 -12   1  166.68   79.29 
  -2 -12   1    4.20   30.00 
 -12  14   1   -2.70   21.30 
  14  -2   1  103.39   40.00 
  14  -2   1   25.00   19.20 
  14  -2   1  112.59   50.39 
   5   9  -1   15.60   22.90 
   9 -14  -1   27.60   88.99 
   9 -14  -1   -0.40   31.40 
   9 -14  -1  -48.50   60.59 
   5   9  -1   23.80   76.99 
   9 -14  -1   27.30   37.70 
   9 -14  -1  -67.19  144.69 
  -5  -9   1   62.49   67.09 
  -9  14   1    5.40   21.40 
  14  -5   1   89.19   63.19 
  14  -5   1   33.10   20.80 
  -5  -9   1    5.20   26.70 
  14  -5   1   -4.90   35.80 
   8   6  -1  115.99   85.79 
   6 -14  -1  111.99   39.30 
   6 -14  -1  111.99   35.00 
   6 -14  -1   21.90   92.59 
   6 -14  -1   65.19  162.68 
  14  -8   1   70.39   61.69 
  -6  14   1   61.89   24.30 
  -8  -6   1  114.69   26.90 
  14  -8   1   69.99   24.60 
  -8  -6   1   52.39   59.19 
  14  -8   1   55.49   38.40 
  -8  -6   1   80.19  107.19 
  14  -8   1   97.29   63.29 
   3 -14  -1  402.06  203.28 
   3 -14  -1  623.04   85.89 
  11   3  -1  676.53  124.39 
 -14  11  -1  565.24   78.09 
   3 -14  -1  613.14   84.19 
   3 -14  -1  562.54  128.69 
  14 -11   1  555.64  100.69 
 -11  -3   1  571.44   78.09 
  14 -11   1  619.24   86.29 
  14 -11   1  480.85  106.49 
  14 -11   1  602.74   79.19 
  -3  14   1  601.74   79.29 
  -3  14   1  548.65   74.59 
   0 -14  -1  585.54  134.99 
 -14  14  -1  692.23   91.09 
  14   0  -1  413.86  134.39 
   0 -14  -1  783.42   96.59 
   0 -14  -1  604.14  205.88 
  14   0  -1  760.22   98.89 
   0  14   1  690.73   90.69 
  14 -14   1  695.23   90.39 
  14 -14   1  622.84   89.89 
  14 -14   1  506.55  128.19 
  14 -14   1  675.83   97.29 
  14 -14   1  623.94  114.69 
  -3 -14  -1  539.55  199.58 
  -3 -14  -1  909.01  115.29 
 -14  17  -1  859.01  108.79 
  17  -3  -1  924.11  117.89 
  -3 -14  -1  659.83  147.69 
  14 -17   1  666.83  129.59 
  14 -17   1  430.56  142.39 
  14 -17   1  888.61  118.29 
   3  14   1  831.62  108.79 
  14 -17   1  892.31  112.59 
  -6 -14  -1  441.36   68.19 
 -14  20  -1  404.06   65.69 
 -14  20  -1  495.05   63.69 
  -6 -14  -1  204.38  108.59 
  20  -6  -1  385.96   73.59 
   6  14   1  626.24   88.39 
  14 -20   1  321.07   84.99 
   6  14   1  445.26   66.99 
  14 -20   1  197.88  110.59 
  14 -20   1  441.66   67.69 
   6  14   1  459.95   63.69 
  14 -20   1  459.55   73.89 
 -14  23  -1   58.89   25.10 
  23  -9  -1  182.68   49.20 
 -14  23  -1   19.90   35.50 
  14 -23   1   47.10   45.20 
  14 -23   1  108.59   99.79 
   9  14   1   68.09   37.90 
   9  14   1   86.99   26.90 
  14 -23   1   87.99   39.90 
   9  14   1  144.69   70.59 
  26 -12  -1  -34.00   49.70 
 -14  26  -1   14.00   25.10 
 -14  26  -1   49.99   34.20 
  12  14   1   11.00   37.50 
  14 -26   1  -36.00   49.40 
  12  14   1   12.00   80.29 
 -26  12   1   55.19   25.10 
  14 -26   1    4.80   36.40 
 -14  29  -1  -39.80   40.40 
 -14  29  -1   10.40   22.80 
  15  14   1  -29.70   44.80 
  14 -29   1   -0.10   35.50 
  15  14   1   41.60   85.29 
 -11  26  -1   86.49   37.40 
  26 -15  -1   49.10   51.29 
 -11  26  -1   45.00   23.80 
  11 -26   1   90.89   48.00 
  15  11   1  186.28   83.49 
  11 -26   1   19.30   36.60 
  15  11   1  -79.99   39.30 
 -26  15   1   55.19   25.30 
  -8  23  -1  182.18   32.80 
  -8  23  -1  192.68   42.90 
  23 -15  -1   93.99   51.09 
  15   8   1  155.38   73.99 
   8 -23   1   55.69   43.10 
  15   8   1  231.78   44.50 
 -23  15   1  180.38   34.10 
   8 -23   1   98.19   46.00 
  20 -15  -1  156.98   72.29 
  20 -15  -1  136.29   51.29 
  -5  20  -1  132.09   40.90 
  -5  20  -1  190.78   64.79 
  -5  20  -1  136.49   31.80 
   5 -20   1  155.08   46.30 
   5 -20   1  185.18   46.50 
 -20  15   1  144.19   31.70 
   5 -20   1   46.60   98.29 
  15   5   1  267.67   78.39 
  15   5   1  101.59   43.40 
  17 -15  -1   55.29   26.60 
  17 -15  -1   16.80   43.20 
  -2  17  -1   15.70   20.90 
  17 -15  -1  -34.50   61.49 
  -2  17  -1   -7.20   33.10 
   2 -17   1   53.69   40.60 
   2 -17   1   25.10   34.10 
  15   2   1   -3.70   16.50 
 -17  15   1    5.90   21.90 
   2 -17   1   72.29   89.39 
   1  14  -1  282.37   46.10 
   1  14  -1  219.68   84.09 
  14 -15  -1  354.56   51.79 
  14 -15  -1  206.28   73.79 
  14 -15  -1  273.87  142.29 
  14 -15  -1  257.97   61.39 
  14 -15  -1  274.77   89.19 
 -14  15   1  377.96   48.00 
  15  -1   1  289.87   66.99 
  15  -1   1  398.26   61.79 
  -1 -14   1  265.97   53.19 
  -1 -14   1   11.40  157.58 
  -1 -14   1  171.58   91.19 
  15  -1   1  351.16   45.50 
  11 -15  -1  180.18   49.40 
   4  11  -1  210.58   80.29 
  11 -15  -1  209.88   42.90 
  11 -15  -1  125.79   94.59 
  11 -15  -1  136.09   59.59 
   4  11  -1  236.68   35.40 
  11 -15  -1  115.89  169.28 
  -4 -11   1  129.99   77.69 
  -4 -11   1   65.49  133.49 
  15  -4   1  114.19   61.39 
  15  -4   1  276.67   49.50 
 -11  15   1  227.78   36.80 
  15  -4   1  179.28   34.10 
  -4 -11   1  230.38   45.50 
   8 -15  -1  736.93  102.09 
   7   8  -1  735.83   95.39 
   8 -15  -1  725.33  100.49 
   8 -15  -1  403.46  196.48 
   8 -15  -1  503.55  137.59 
   7   8  -1  849.02  137.79 
  -7  -8   1  697.13   97.39 
  15  -7   1  662.73  113.69 
  15  -7   1  805.92  103.99 
  -7  -8   1  642.54  118.89 
  -8  15   1  771.02   95.99 
  15  -7   1  735.43   95.79 
  -7  -8   1  542.75  156.88 
  10   5  -1 1231.18  173.98 
   5 -15  -1 1010.00  255.17 
   5 -15  -1  984.70  176.38 
   5 -15  -1 1123.29  144.19 
   5 -15  -1 1218.28  145.89 
  15 -10   1 1031.90  139.39 
  15 -10   1  988.00  155.08 
  15 -10   1  967.60  158.28 
 -10  -5   1 1015.90  140.09 
  -5  15   1 1055.39  140.09 
  15 -10   1 1227.78  146.09 
  13   2  -1  816.12  152.18 
 -15  13  -1  917.81  111.99 
   2 -15  -1  753.62  155.58 
   2 -15  -1  549.45  205.78 
   2 -15  -1  868.81  117.79 
   2 -15  -1  915.01  119.19 
  -2  15   1  863.01  112.79 
  15 -13   1  719.33  138.89 
  15 -13   1  861.81  120.69 
  15 -13   1  737.73  130.29 
  15 -13   1  876.11  112.89 
  -1 -15  -1   20.20   33.30 
  -1 -15  -1   -1.70  172.58 
 -15  16  -1   29.40   20.50 
  16  -1  -1   15.30   39.00 
  -1 -15  -1  172.88   98.19 
  15 -16   1 -136.89   83.59 
  15 -16   1   37.00   22.40 
  15 -16   1    6.50   39.10 
   1  15   1  145.69   85.89 
   1  15   1   49.60   22.30 
  15 -16   1   75.59   63.79 
  -4 -15  -1  -12.10   29.90 
  19  -4  -1   62.89   42.50 
  -4 -15  -1  -29.20   91.29 
 -15  19  -1   61.39   23.70 
  15 -19   1   46.40   89.89 
  15 -19   1   24.10   61.39 
   4  15   1   79.49   69.49 
  15 -19   1  -70.39   44.00 
  15 -19   1   15.80   28.40 
   4  15   1    5.90   32.10 
   4  15   1   39.00   23.10 
 -15  22  -1   63.19   35.00 
  22  -7  -1   -0.60   41.80 
  -7 -15  -1  -65.59   91.49 
 -15  22  -1   39.60   23.20 
  15 -22   1   62.29   35.10 
   7  15   1   57.59   24.40 
  15 -22   1   84.19   44.10 
   7  15   1   73.29   66.09 
  15 -22   1  -18.20   90.79 
  15 -22   1   35.70   59.29 
   7  15   1   37.30   35.40 
  25 -10  -1  108.49   50.29 
 -15  25  -1  177.18   38.40 
 -15  25  -1  173.38   32.90 
 -25  10   1   26.50   29.50 
  15 -25   1  262.27   59.29 
  15 -25   1  252.67   45.90 
  10  15   1  199.78   44.50 
  10  15   1  194.38   76.39 
 -15  28  -1  191.38   39.00 
 -15  28  -1  184.38   46.70 
  28 -13  -1  158.48   58.29 
  13  15   1  325.77   91.09 
  13  15   1  260.07   50.59 
 -28  13   1  264.47   44.30 
  15 -28   1  129.49   56.59 
 -12  28  -1  186.98   36.20 
 -12  28  -1  122.29   49.20 
  28 -16  -1  108.69   54.39 
  16  12   1  273.67   82.99 
  12 -28   1  131.49   56.39 
  16  12   1  174.98   48.80 
  12 -28   1  210.38   50.79 
 -28  16   1  207.48   38.40 
  -9  25  -1   60.19   27.20 
  -9  25  -1   43.90   38.40 
  25 -16  -1   12.70   46.10 
 -25  16   1   92.39   27.60 
  16   9   1   74.99   78.39 
   9 -25   1   62.59   43.00 
  16   9   1  106.59   46.70 
   9 -25   1  106.79   41.10 
  22 -16  -1  -25.80   44.60 
  -6  22  -1  -17.50   19.80 
  -6  22  -1   13.70   57.79 
  -6  22  -1  -24.20   34.90 
   6 -22   1  -38.40   35.30 
 -22  16   1  -19.70   21.80 
  16   6   1  -13.00   38.60 
   6 -22   1   -5.50   98.19 
   6 -22   1   37.30   39.50 
  16   6   1  -68.59   74.69 
  19 -16  -1  229.78   51.59 
  19 -16  -1  177.28   72.19 
  -3  19  -1  105.79   41.50 
  -3  19  -1  191.18   32.20 
  -3  19  -1   -2.00   63.39 
   3 -19   1  162.38   43.80 
   3 -19   1  156.08   45.00 
   3 -19   1   99.79   98.19 
 -19  16   1  149.59   35.40 
  16   3   1  206.68   44.20 
   0  16  -1  244.98   36.70 
  16 -16  -1  242.58   70.19 
  16 -16  -1  139.59   42.40 
   0  16  -1  259.67   46.60 
  16 -16  -1  173.18   54.19 
 -16  16   1  209.98   37.00 
  16   0   1  205.78   35.60 
   0 -16   1  194.28   45.40 
  16   0   1  166.38   57.39 
  16   0   1  250.87   52.29 
   0 -16   1  196.98   88.79 
  13 -16  -1  280.77   49.60 
   3  13  -1  423.66   85.49 
  13 -16  -1  233.18   59.09 
  13 -16  -1  442.86  104.29 
  13 -16  -1  244.88   67.69 
   3  13  -1  248.08   42.40 
  13 -16  -1  373.46  168.78 
  -3 -13   1  453.35  152.28 
  16  -3   1  264.67   55.69 
  -3 -13   1  371.16   89.89 
 -13  16   1  235.98   43.80 
  -3 -13   1  258.87   49.99 
  16  -3   1  296.27   72.79 
  16  -3   1  236.98   41.70 
  10 -16  -1  351.46   56.19 
  10 -16  -1  361.96   61.19 
   6  10  -1  350.96   49.80 
  10 -16  -1  271.17   76.99 
  10 -16  -1  342.97  108.39 
   6  10  -1  464.15   95.99 
  10 -16  -1  304.37  169.18 
  16  -6   1  263.17   58.39 
  16  -6   1  316.37   47.70 
  -6 -10   1   72.69  125.19 
  16  -6   1  193.18   71.89 
  -6 -10   1  390.16   90.79 
 -10  16   1  323.87   47.10 
  -6 -10   1  307.57   53.29 
   7 -16  -1  284.27   54.19 
   7 -16  -1  252.17  180.28 
   9   7  -1  385.16   99.69 
   7 -16  -1  276.37  109.29 
   7 -16  -1  320.37   57.99 
  16  -9   1  310.57   47.20 
  16  -9   1  301.57   57.99 
  -7  16   1  293.77   47.80 
  16  -9   1  289.37   75.59 
  -9  -7   1  350.76   50.79 
   4 -16  -1   98.99   42.10 
   4 -16  -1  129.89  193.68 
   4 -16  -1   75.19   35.20 
 -16  12  -1   58.69   21.70 
   4 -16  -1   20.80  100.89 
  12   4  -1  164.78   93.59 
 -12  -4   1  115.59   23.50 
  16 -12   1   17.70   39.70 
  16 -12   1   22.60   24.20 
  16 -12   1  135.59   62.79 
  -4  16   1   45.40   24.00 
   1 -16  -1   18.90   34.90 
   1 -16  -1  -28.70   98.39 
 -16  15  -1   -0.70   19.70 
  15   1  -1   47.00   43.70 
  15   1  -1   97.59  105.69 
  16 -15   1  130.59   76.59 
  16 -15   1   20.50   43.10 
  16 -15   1   73.49   62.79 
  -1  16   1   55.19   22.90 
  16 -15   1   39.40   26.00 
  -2 -16  -1  460.85   67.99 
 -16  18  -1  492.45   61.69 
  18  -2  -1  382.46   69.99 
  -2 -16  -1  293.17  116.89 
  16 -18   1  106.59  100.99 
  16 -18   1  290.17  169.88 
   2  16   1  439.26   63.69 
  16 -18   1  410.66   71.29 
  16 -18   1  414.46   98.09 
   2  16   1  330.07   82.59 
   2  16   1  455.75   60.89 
  -5 -16  -1   54.19  102.29 
  21  -5  -1  282.07   55.59 
  -5 -16  -1  235.98   43.90 
 -16  21  -1  121.49   42.60 
 -16  21  -1  233.98   38.50 
  16 -21   1  157.48   51.49 
   5  16   1  241.08   43.30 
   5  16   1  267.57   70.99 
  16 -21   1  100.89   97.99 
  16 -21   1  121.19   42.70 
  16 -21   1  155.28   70.09 
   5  16   1  259.97   38.80 
 -16  24  -1  -46.00   19.20 
  24  -8  -1  -20.70   44.20 
 -16  24  -1  -12.40   33.20 
   8  16   1   29.50   35.80 
   8  16   1    2.60   24.70 
  16 -24   1   29.80   30.80 
  16 -24   1   16.90   43.90 
   8  16   1  -80.29   67.99 
 -16  27  -1   71.69   28.00 
 -16  27  -1   46.90   38.30 
  27 -11  -1   93.39   49.80 
  16 -27   1   36.00   53.59 
 -27  11   1   36.40   25.10 
  11  16   1   78.29   78.89 
  16 -27   1   27.10   33.10 
  11  16   1   66.59   40.60 
  14  16   1   55.69   86.69 
  14  16   1  123.39   44.90 
 -13  30  -1  225.58   51.89 
  17  13   1  216.28   52.59 
 -10  27  -1  553.54   67.99 
  27 -17  -1  255.97   77.79 
 -10  27  -1  401.06   72.09 
  17  10   1  460.35   73.89 
  10 -27   1  349.57   82.79 
  17  10   1  413.96   98.99 
 -27  17   1  546.45   71.39 
  10 -27   1  470.95   77.19 
  -7  24  -1  524.25   67.69 
  -7  24  -1  384.96   74.49 
  24 -17  -1  468.45   82.39 
 -24  17   1  535.75   69.29 
   7 -24   1  333.07   74.29 
  17   7   1  496.25   74.69 
  17   7   1  424.46   95.99 
   7 -24   1  405.86   77.29 
  21 -17  -1   43.90   48.40 
  -4  21  -1  143.79   30.90 
  -4  21  -1  250.97   67.49 
  -4  21  -1  107.99   40.30 
   4 -21   1  135.19   48.80 
   4 -21   1  125.19   44.20 
  17   4   1  205.48   44.60 
   4 -21   1  133.89   99.99 
 -21  17   1  146.99   32.50 
  18 -17  -1   55.79   64.69 
  -1  18  -1  117.99   36.10 
  18 -17  -1   53.19   44.00 
  18 -17  -1   69.29   31.70 
  -1  18  -1   61.89   24.10 
  -1  18  -1   17.50   55.29 
  17   1   1   51.19   21.60 
   1 -18   1   67.09   43.80 
   1 -18   1  114.49   93.19 
   1 -18   1   46.30   36.20 
 -18  17   1  105.79   26.00 
  17   1   1  108.19   35.80 
  17   1   1  188.08   56.89 
  15 -17  -1   55.29   34.60 
  15 -17  -1  -64.19   78.89 
   2  15  -1   32.80   34.50 
  15 -17  -1   65.29  157.38 
   2  15  -1   20.00   54.59 
   2  15  -1   75.89   75.09 
  15 -17  -1   90.59   63.99 
   2  15  -1   24.30   20.60 
  15 -17  -1   14.80   45.10 
  -2 -15   1   55.39  148.19 
  -2 -15   1    3.70   31.90 
  17  -2   1  -15.70   58.89 
  17  -2   1  -32.80   47.40 
  17  -2   1   24.20   18.60 
  -2 -15   1   68.49   83.79 
 -15  17   1   49.70   23.80 
  12 -17  -1   58.79   96.79 
   5  12  -1  137.19   74.49 
   5  12  -1    7.10   21.20 
  12 -17  -1    2.60   41.10 
  12 -17  -1  -63.29  166.38 
  12 -17  -1   81.69   57.19 
  12 -17  -1  -44.30   30.30 
  17  -5   1   15.80   19.70 
 -12  17   1  -15.40   22.10 
  -5 -12   1   -5.00   32.10 
  17  -5   1   -3.60   61.89 
  -5 -12   1    9.30   73.89 
  17  -5   1  -16.00   37.60 
  -5 -12   1  136.89  134.69 
   9 -17  -1  -12.40  186.38 
   9 -17  -1   63.29   36.20 
   8   9  -1   78.49   81.89 
   8   9  -1   54.29   24.50 
   9 -17  -1   78.49   99.79 
   9 -17  -1   88.39   42.00 
  17  -8   1  100.79   40.00 
  -8  -9   1   34.50   31.30 
  17  -8   1   85.69   24.80 
  -8  -9   1  129.99   69.09 
  -9  17   1   81.29   25.60 
  17  -8   1  124.19   61.99 
   6 -17  -1  415.66  122.59 
  11   6  -1  336.97  106.19 
   6 -17  -1  499.05   69.39 
   6 -17  -1  354.36  192.68 
   6 -17  -1  371.06   69.49 
  -6  17   1  420.86   60.99 
 -11  -6   1  424.06   60.79 
  17 -11   1  390.36   61.19 
  17 -11   1  471.45   87.89 
  17 -11   1  441.56   70.79 
  14   3  -1  805.32  160.28 
 -17  14  -1  861.01  114.49 
   3 -17  -1  549.65  158.28 
   3 -17  -1  837.32  122.69 
   3 -17  -1  864.41  121.59 
  17 -14   1  799.02  140.79 
  17 -14   1  783.82  121.79 
  -3  17   1  910.31  115.59 
  17 -14   1 1052.99  116.19 
   0 -17  -1  386.66   66.09 
   0 -17  -1  383.96  117.29 
 -17  17  -1  378.36   54.59 
  17   0  -1  424.66   68.29 
   0  17   1  387.86   83.19 
  17 -17   1  360.26   65.89 
   0  17   1  349.57   55.29 
  17 -17   1  279.97   86.79 
   0  17   1  383.86   60.89 
  -3 -17  -1  596.64   82.29 
  20  -3  -1  598.74   87.59 
  -3 -17  -1  309.77  127.79 
 -17  20  -1  566.14   78.19 
  17 -20   1  378.46  119.59 
   3  17   1  572.74   76.69 
  17 -20   1  529.35   85.79 
   3  17   1  552.64   78.89 
  17 -20   1  427.46  100.49 
   3  17   1  555.74  103.29 
   3  17   1  539.55   81.09 
 -17  23  -1  260.07   41.40 
  -6 -17  -1  -24.80   94.59 
  23  -6  -1  244.48   59.49 
  -6 -17  -1  246.48   47.50 
   6  17   1  217.28   84.49 
   6  17   1  212.68   48.30 
   6  17   1  289.27   45.10 
  17 -23   1  247.48   62.19 
  17 -23   1  278.67  114.19 
 -17  26  -1  148.29   34.00 
  26  -9  -1  121.39   53.49 
   9  17   1   74.99   81.39 
  17 -26   1  144.79   57.79 
   9  17   1  123.49   46.30 
   9  17   1  143.99   33.30 
 -17  29  -1  118.19   28.60 
  12  17   1   10.40   83.49 
  12  17   1   -6.10   40.00 
 -11  29  -1   57.69   27.80 
 -11  29  -1   62.99   39.60 
  18  11   1  148.39   46.00 
  -8  26  -1  210.18   51.79 
  -8  26  -1  254.07   43.20 
  26 -18  -1  241.78   62.39 
   8 -26   1  165.78   57.79 
 -26  18   1  330.07   47.70 
  18   8   1  213.48   54.49 
   8 -26   1  278.67   57.09 
  23 -18  -1  474.75   81.59 
  -5  23  -1  374.76   82.19 
  -5  23  -1  359.26   71.39 
  -5  23  -1  544.55   66.89 
   5 -23   1  498.65   76.89 
  18   5   1  502.95   73.09 
   5 -23   1  391.46   75.79 
 -23  18   1  422.46   66.59 
  -2  20  -1  338.07   49.40 
  -2  20  -1  344.77   59.49 
  -2  20  -1  384.56   79.19 
  20 -18  -1  432.46   67.49 
   2 -20   1  256.17   59.59 
   2 -20   1  351.96   61.49 
   2 -20   1   89.99  102.29 
  18   2   1  317.87   55.69 
 -20  18   1  276.57   49.80 
  17 -18  -1  158.28   37.00 
   1  17  -1  126.89   28.10 
  17 -18  -1  154.18   51.29 
   1  17  -1  -26.30   62.69 
   1  17  -1    6.70   34.00 
  17 -18  -1  104.99   63.19 
  -1 -17   1    0.20   87.49 
  18  -1   1   75.99   31.60 
  18  -1   1   44.80   60.79 
  18  -1   1   49.40   44.20 
 -17  18   1   71.89   26.40 
  -1 -17   1   34.90   35.00 
  18  -1   1   90.49   22.60 
   4  14  -1  237.38   47.30 
  14 -18  -1  202.38   49.50 
   4  14  -1  213.18   65.09 
  14 -18  -1  272.47  185.08 
  14 -18  -1  202.48   65.39 
   4  14  -1  238.18   38.80 
  14 -18  -1  287.37   56.49 
   4  14  -1   91.19   84.89 
  14 -18  -1   89.39  102.39 
  18  -4   1  221.58   53.99 
  -4 -14   1   42.70  133.79 
  -4 -14   1  217.28   44.50 
 -14  18   1  264.47   42.00 
  18  -4   1  262.47   39.30 
  18  -4   1  236.28   66.29 
  -4 -14   1  116.39   83.69 
  11 -18  -1  372.46   62.49 
  11 -18  -1  259.17  201.98 
  11 -18  -1  274.97  113.29 
  11 -18  -1  169.88   70.59 
  11 -18  -1  315.97   54.99 
   7  11  -1  190.68   90.79 
   7  11  -1  366.66   46.90 
  18  -7   1  347.87   58.49 
  18  -7   1  244.38   45.30 
  -7 -11   1  326.97   86.39 
 -11  18   1  307.47   47.50 
  -7 -11   1  231.68   51.49 
  18  -7   1  238.38   80.09 
   8 -18  -1  811.32  104.19 
  10   8  -1  691.83  136.59 
   8 -18  -1  742.03  104.69 
   8 -18  -1  569.64  144.89 
  18 -10   1  724.93   97.59 
  18 -10   1  612.04  103.29 
  -8  18   1  797.12   98.19 
  18 -10   1  596.04  120.19 
 -10  -8   1  704.93   99.19 
  13   5  -1  701.23  150.68 
   5 -18  -1  750.92  111.39 
 -18  13  -1  777.42  103.19 
   5 -18  -1  602.34  150.88 
   5 -18  -1  762.32  111.29 
  18 -13   1  701.83  110.89 
  18 -13   1  856.01  104.89 
  18 -13   1  704.93  128.89 
  -5  18   1  844.72  104.39 
   2 -18  -1  421.16   69.39 
   2 -18  -1  391.16   71.69 
   2 -18  -1  252.57  122.39 
 -18  16  -1  423.06   60.19 
  -2  18   1  463.95   72.79 
  -2  18   1  497.35   62.09 
  18 -16   1  310.57   87.89 
  -2  18   1  355.16   64.09 
  18 -16   1  438.06   60.79 
  18 -16   1  368.36   70.49 
  19  -1  -1  138.39   48.60 
  -1 -18  -1   30.70   38.60 
 -18  19  -1   25.80   21.00 
  -1 -18  -1  113.79  100.19 
  18 -19   1  116.89   77.39 
   1  18   1   -8.20   61.89 
   1  18   1   80.19   33.40 
  18 -19   1   22.50   38.90 
   1  18   1    4.50   21.70 
   1  18   1    0.30   34.00 
  22  -4  -1  103.79   51.29 
  -4 -18  -1   91.09   38.60 
  -4 -18  -1    8.70   95.59 
 -18  22  -1   34.30   23.00 
   4  18   1   60.19   33.60 
   4  18   1   32.80   23.30 
   4  18   1   77.49   75.59 
  18 -22   1   77.09   44.30 
 -18  25  -1  167.78   35.90 
  25  -7  -1  231.68   57.09 
   7  18   1  153.78   36.60 
   7  18   1  167.78   76.09 
  18 -25   1  153.38   53.79 
   7  18   1  314.57   46.40 
 -18  28  -1  248.38   36.60 
  28 -10  -1  197.88   59.39 
  10  18   1  227.38   86.29 
  10  18   1  157.48   44.50 
  18 -28   1  152.78   54.99 
 -28  10   1   44.20   30.60 
  -9  28  -1   47.80   25.80 
  -9  28  -1   52.89   38.90 
  19   9   1   73.09   42.20 
 -28  19   1   52.19   26.40 
   9 -28   1   52.09   40.50 
   9 -28   1  -50.79   48.70 
  -6  25  -1  -14.80   20.60 
  25 -19  -1  -11.90   45.60 
  -6  25  -1   28.00   41.50 
  19   6   1   -3.60   38.80 
   6 -25   1   53.29   40.60 
   6 -25   1  -10.60   41.40 
 -25  19   1   13.50   22.90 
  -3  22  -1  -27.50   56.09 
  22 -19  -1   62.99   48.60 
  -3  22  -1   64.49   38.40 
  -3  22  -1   93.69   26.70 
   3 -22   1   49.60   39.20 
  19   3   1  101.19   38.40 
   3 -22   1  101.39   43.30 
 -22  19   1   77.89   26.60 
  19 -19  -1  611.64   90.09 
   0  19  -1  530.65   92.59 
   0  19  -1  524.45   80.29 
   0  19  -1  649.43   76.19 
 -19  19   1  640.84   77.89 
  19   0   1  558.54   79.49 
  19   0   1  333.27   92.99 
   0 -19   1  234.98  116.99 
   0 -19   1  447.76   82.29 
   3  16  -1  134.89   42.20 
  16 -19  -1  197.68   40.40 
   3  16  -1  230.38   35.80 
  16 -19  -1  255.07   56.49 
  16 -19  -1  137.79   63.39 
   3  16  -1   84.19   67.69 
   3  16  -1  126.79   79.29 
  -3 -16   1  137.69   41.00 
  19  -3   1   78.49   29.80 
  19  -3   1   99.39   36.50 
 -16  19   1  247.78   35.80 
  -3 -16   1   12.60   83.29 
  19  -3   1  137.09   50.79 
  19  -3   1  248.28   67.09 
  13 -19  -1  325.97   55.29 
  13 -19  -1  304.37   77.59 
   6  13  -1  301.57   47.10 
  13 -19  -1  176.88  114.89 
   6  13  -1  246.08   70.09 
  13 -19  -1  312.27   63.09 
   6  13  -1  204.98   91.69 
   6  13  -1  369.06   53.69 
  -6 -13   1  308.27   53.99 
  -6 -13   1  128.09   85.39 
  19  -6   1  302.77   48.20 
  19  -6   1  233.08   72.99 
  19  -6   1  303.37   60.09 
 -13  19   1  320.07   48.10 
   9  10  -1  229.28   93.09 
  10 -19  -1  121.49  108.49 
  10 -19  -1  136.69   47.20 
   9  10  -1  119.89   60.89 
  10 -19  -1  185.08   42.80 
  19  -9   1   90.39   30.90 
  19  -9   1  108.09   45.40 
  19  -9   1  121.59   72.59 
  -9 -10   1  196.18   38.30 
 -10  19   1  281.37   58.49 
 -10  19   1  138.89   32.20 
   7 -19  -1  -30.40  104.09 
   7 -19  -1   48.90   39.20 
   7 -19  -1   81.29   37.30 
 -19  12  -1   19.90   18.80 
  12   7  -1 -127.99   91.79 
  19 -12   1   17.30   23.40 
  19 -12   1  -26.30   59.79 
  19 -12   1  -15.20   38.30 
  -7  19   1    9.00   43.90 
  -7  19   1   38.00   23.70 
   4 -19  -1   52.49   37.70 
   4 -19  -1   84.69  104.59 
   4 -19  -1   52.89   43.20 
 -19  15  -1   26.30   20.30 
  -4  19   1   49.70   40.60 
  19 -15   1   12.60   24.70 
  -4  19   1   18.60   23.50 
  -4  19   1   39.40   30.20 
  19 -15   1   62.29   66.09 
  19 -15   1   44.30   40.90 
   1 -19  -1    4.60   41.50 
 -19  18  -1   66.79   22.30 
   1 -19  -1  121.39   44.00 
   1 -19  -1  148.59  105.49 
  -1  19   1  -12.80   31.20 
  19 -18   1   -5.60   40.20 
  -1  19   1   34.70   23.50 
  19 -18   1   -6.50   65.19 
  -1  19   1   31.20   39.30 
  -1  19   1   78.79   67.69 
  -2 -19  -1  115.29   40.10 
 -19  21  -1  106.39   29.40 
  21  -2  -1   55.09   51.59 
  -2 -19  -1   -4.50   99.79 
  19 -21   1  108.79   49.80 
   2  19   1   57.69   66.89 
   2  19   1  161.28   37.50 
   2  19   1  171.48   30.50 
  -5 -19  -1  -11.40   29.30 
 -19  24  -1  -19.80   20.60 
  24  -5  -1   39.00   45.50 
   5  19   1  -44.30   74.29 
   5  19   1    0.70   22.80 
  19 -24   1    4.10   43.00 
   5  19   1   15.10   34.60 
  27  -8  -1  -22.10   48.20 
 -19  27  -1   26.00   25.30 
   8  19   1   57.39   80.69 
   8  19   1   33.60   24.70 
  19 -27   1   16.70   45.70 
   8  19   1    3.20   34.80 
  27 -20  -1  144.39   58.49 
  -7  27  -1  236.38   40.00 
  -7  27  -1  175.38   49.20 
 -27  20   1  289.67   43.40 
   7 -27   1  203.48   52.59 
   7 -27   1   89.89   53.39 
  20   7   1  267.37   50.29 
  -4  24  -1   67.79   41.00 
  -4  24  -1  154.98   66.29 
  -4  24  -1  115.39   30.40 
  24 -20  -1  177.48   53.69 
  20   4   1   72.29   38.20 
   4 -24   1   73.89   50.19 
 -24  20   1  127.49   30.30 
   4 -24   1  112.09   44.70 
  21 -20  -1  -13.40   44.00 
  -1  21  -1   40.40   35.20 
  -1  21  -1   -4.60   19.90 
  -1  21  -1 -120.29   55.09 
 -21  20   1   -9.70   22.10 
   1 -21   1   -4.80   37.30 
  20   1   1  -16.80   31.80 
   1 -21   1  -14.30   38.30 
  18 -20  -1  392.46   58.89 
   2  18  -1  395.56   53.79 
  18 -20  -1  410.36   72.39 
   2  18  -1  300.37   58.69 
   2  18  -1  285.17   76.19 
  20  -2   1  331.27   51.49 
  20  -2   1  255.17   77.89 
  -2 -18   1  123.09   96.79 
 -18  20   1  375.16   55.69 
  20  -2   1  432.56   70.29 
  20  -2   1  333.87   56.09 
  -2 -18   1  361.46   61.59 
   5  15  -1  114.09   92.39 
   5  15  -1  125.89   61.09 
   5  15  -1  157.98   41.40 
  15 -20  -1   53.49   65.99 
   5  15  -1  185.38   34.20 
  15 -20  -1    0.50  101.09 
  15 -20  -1  157.18   39.80 
  15 -20  -1  235.68   53.89 
  20  -5   1  119.79   46.70 
  20  -5   1   98.69   35.20 
  20  -5   1   94.49   67.59 
  20  -5   1  113.79   28.70 
  -5 -15   1  105.99   87.09 
  -5 -15   1  153.98   38.70 
 -15  20   1  151.48   32.70 
  12 -20  -1   23.50   46.40 
   8  12  -1   62.19   57.79 
   8  12  -1    3.80   34.50 
  12 -20  -1  123.39  106.59 
   8  12  -1   31.70   23.80 
   8  12  -1   91.09   85.29 
  12 -20  -1   31.10   34.90 
  20  -8   1  -31.60   39.40 
  20  -8   1  113.89   63.49 
  20  -8   1   62.59   24.80 
 -12  20   1   59.39   25.70 
  -8 -12   1   98.49   30.40 
 -20  11  -1   32.80   22.80 
  11   9  -1  223.28   66.69 
  11   9  -1  168.98   97.09 
   9 -20  -1  143.49   41.90 
  11   9  -1  154.68   37.90 
   9 -20  -1  106.09  111.89 
   9 -20  -1  136.49   45.70 
 -11  -9   1  115.79   31.30 
  20 -11   1   68.29   63.99 
  -9  20   1   61.69   28.00 
  20 -11   1   97.99   27.70 
  -9  20   1  155.38   55.19 
  20 -11   1   73.99   42.60 
  14   6  -1  465.75   70.89 
  14   6  -1  512.55   84.29 
   6 -20  -1  498.45   78.49 
 -20  14  -1  484.25   68.29 
   6 -20  -1  508.45   80.49 
   6 -20  -1  369.36  132.09 
  20 -14   1  465.65   78.59 
  -6  20   1  524.15   70.09 
  -6  20   1  446.26   77.39 
  20 -14   1  467.95   68.79 
  20 -14   1  413.26   93.99 
 -20  17  -1  519.35   74.49 
   3 -20  -1  580.94   84.79 
   3 -20  -1  238.38  131.89 
   3 -20  -1  608.84   87.99 
  -3  20   1  627.74   76.29 
  -3  20   1  467.15   82.69 
  -3  20   1  564.44   76.69 
  20 -17   1  464.85   84.59 
  -3  20   1  580.94   97.59 
  20 -17   1  372.46  100.09 
 -20  20  -1  134.69   30.90 
   0 -20  -1  142.29   50.29 
   0 -20  -1  132.99  108.89 
   0 -20  -1  164.18   47.90 
   0  20   1  127.79   31.50 
  20 -20   1  195.78   49.80 
   0  20   1  163.98   66.59 
   0  20   1  148.99   40.60 
   0  20   1  171.78   39.50 
  23  -3  -1  166.78   51.59 
  -3 -20  -1  108.29   40.00 
 -20  23  -1  121.69   30.90 
   3  20   1  218.98   71.29 
   3  20   1   69.59   38.00 
  20 -23   1  122.69   48.00 
   3  20   1  141.79   31.70 
 -20  26  -1   94.39   30.30 
  26  -6  -1  123.19   52.29 
   6  20   1  156.88   72.09 
  20 -26   1   79.69   50.49 
   6  20   1  114.59   37.80 
   6  20   1  128.19   31.70 
   9  20   1   34.00   41.70 
   9  20   1  -57.49   81.99 
  -8  29  -1   96.69   45.10 
  21   8   1   43.90   39.10 
  -5  26  -1  119.39   64.99 
  -5  26  -1   44.80   40.60 
  -5  26  -1  114.09   29.80 
  26 -21  -1   -9.70   49.90 
 -26  21   1  176.48   34.20 
  21   5   1   58.19   38.40 
   5 -26   1   89.69   44.10 
   5 -26   1  119.29   48.60 
  -2  23  -1   74.59   64.99 
  23 -21  -1   95.49   55.99 
  -2  23  -1   66.19   23.80 
  -2  23  -1   30.60   37.30 
  21   2   1  104.69   35.70 
   2 -23   1   48.30   42.30 
 -23  21   1   43.70   25.30 
   2 -23   1    9.50   39.40 
  20 -21  -1  -44.60   45.40 
   1  20  -1   64.79   59.69 
   1  20  -1   51.09   24.60 
   1  20  -1   40.90   37.80 
  21  -1   1  -49.80   34.20 
 -20  21   1    2.90   24.80 
  -1 -20   1  -53.29   34.30 
  -1 -20   1   18.00   94.49 
  17 -21  -1  106.09   43.10 
   4  17  -1  195.78   34.90 
   4  17  -1  143.09   43.60 
  17 -21  -1  102.99   61.79 
   4  17  -1  261.37   70.89 
  21  -4   1   62.79   60.39 
  -4 -17   1  151.68   42.50 
 -17  21   1  164.48   37.30 
  21  -4   1  197.78   34.70 
  -4 -17   1  306.57   97.99 
  21  -4   1  229.58   60.59 
  21  -4   1  177.28   42.10 
   7  14  -1   98.79   36.50 
  14 -21  -1   43.70   34.40 
   7  14  -1   63.89   58.09 
  14 -21  -1   21.00   59.09 
   7  14  -1   24.30   22.90 
  14 -21  -1   22.70   52.39 
  14 -21  -1  133.69  107.79 
  21  -7   1  -16.80   40.10 
  -7 -14   1   47.80   33.10 
  21  -7   1    5.90   64.39 
  21  -7   1   21.10   22.70 
  21  -7   1    7.10   29.50 
 -14  21   1   15.00   25.10 
  11 -21  -1  -11.20  108.89 
  10  11  -1   11.20   57.09 
  10  11  -1   18.70   35.20 
  11 -21  -1    8.30   35.10 
  11 -21  -1   -9.60   43.50 
 -11  21   1  -20.10   23.30 
  21 -10   1  -84.29   56.29 
  21 -10   1   18.80   22.50 
 -11  21   1  -70.39   45.80 
  21 -10   1  -64.39   38.20 
 -10 -11   1  -34.30   26.50 
   8 -21  -1  104.19   47.50 
  13   8  -1  202.48   38.40 
 -21  13  -1  133.29   27.80 
   8 -21  -1  193.88   44.10 
  13   8  -1  -30.90   62.89 
   8 -21  -1   40.40  114.29 
  21 -13   1   60.29   43.80 
  21 -13   1   85.69   65.79 
  -8  21   1  125.89   53.59 
  21 -13   1  125.89   30.50 
  -8  21   1  114.79   31.00 
   5 -21  -1  186.28   49.60 
 -21  16  -1  219.98   36.90 
  16   5  -1  213.58   64.99 
   5 -21  -1  243.58   55.59 
   5 -21  -1  105.49  111.59 
  -5  21   1  127.49   53.89 
  -5  21   1  242.08   39.30 
  -5  21   1  190.88   40.50 
  21 -16   1  249.97   52.89 
 -21  19  -1   97.69   26.60 
   2 -21  -1  150.48   43.10 
   2 -21  -1   91.99   52.39 
  -2  21   1   87.39   28.50 
  -2  21   1  111.79   34.40 
  -2  21   1  103.09   43.60 
  21 -19   1  220.58   49.00 
  -2  21   1  116.39   70.79 
  -1 -21  -1  -55.09   41.20 
  -1 -21  -1  -11.50   34.60 
 -21  22  -1  -35.80   21.10 
   1  21   1   29.30   70.19 
   1  21   1   -0.60   31.20 
   1  21   1   23.50   22.60 
  21 -22   1   51.99   44.90 
 -21  25  -1   38.70   27.40 
  -4 -21  -1  110.39   39.40 
  25  -4  -1   91.29   51.69 
   4  21   1  152.68   78.69 
   4  21   1   62.49   27.10 
  21 -25   1   96.09   47.90 
   4  21   1   97.09   36.70 
 -21  28  -1   83.79   27.70 
   7  21   1   85.29   74.89 
   7  21   1   70.39   43.50 
  -6  28  -1   25.90   42.90 
  22   6   1  -20.40   39.30 
  25 -22  -1   54.79   51.09 
  -3  25  -1  -80.19   59.69 
  -3  25  -1  -14.50   19.90 
  -3  25  -1   51.09   38.80 
   3 -25   1    1.20   37.90 
 -25  22   1   14.90   24.20 
  22   3   1   -4.00   32.70 
   3 -25   1  -52.59   45.70 
   0  22  -1   15.40   21.60 
  22 -22  -1   37.80   45.40 
   0  22  -1   -7.80   41.00 
   0  22  -1   71.99   59.29 
   0 -22   1   10.80   45.70 
 -22  22   1  -64.89   22.70 
  22   0   1   24.80   32.60 
   0 -22   1   -2.70   37.70 
  19 -22  -1  109.09   34.80 
   3  19  -1  133.59   28.80 
   3  19  -1  124.99   38.10 
   3  19  -1  172.88   69.89 
  19 -22  -1   94.79   52.39 
  -3 -19   1   32.40   93.09 
  22  -3   1   71.99   26.10 
  22  -3   1   19.80   32.90 
  22  -3   1  109.39   50.19 
 -19  22   1   86.79   30.40 
  -3 -19   1   49.10   39.10 
   6  16  -1   36.60   23.00 
   6  16  -1  -16.70   34.00 
   6  16  -1  -47.30   57.69 
  16 -22  -1   56.39   49.90 
  16 -22  -1   -4.40   31.70 
  22  -6   1  -22.60   43.00 
  22  -6   1  -35.90   27.80 
  22  -6   1  -71.89   61.69 
 -16  22   1   14.80   24.90 
  22  -6   1    5.70   23.10 
  -6 -16   1   26.30   34.20 
  13 -22  -1   49.50   47.70 
  13 -22  -1   29.40   35.30 
   9  13  -1   46.60   36.20 
  13 -22  -1   88.69  109.39 
   9  13  -1   31.90   57.29 
  22  -9   1  -43.70   38.40 
  22  -9   1  -22.00   57.89 
 -13  22   1   18.00   23.60 
 -13  22   1  -92.79   52.99 
  22  -9   1   -6.10   22.30 
  -9 -13   1    2.00   29.90 
  10 -22  -1   -7.30   41.40 
  10 -22  -1  -50.59   35.00 
  12  10  -1  -12.10   62.59 
  12  10  -1   16.60   33.30 
  10 -22  -1  -21.60  113.39 
 -22  12  -1   38.10   20.30 
 -10  22   1  -46.60   50.69 
 -10  22   1   -3.50   23.80 
  22 -12   1   28.70   74.49 
  22 -12   1  -12.80   23.20 
  22 -12   1   76.99   41.00 
 -22  15  -1   60.69   21.60 
   7 -22  -1   10.10   37.90 
  15   7  -1   17.20   31.50 
   7 -22  -1   74.89   45.10 
   7 -22  -1  -54.69  109.19 
  15   7  -1  109.29   57.39 
  -7  22   1   33.30   48.40 
  -7  22   1   67.19   25.40 
  22 -15   1   33.40   41.20 
   4 -22  -1   45.00   38.70 
 -22  18  -1   57.29   23.10 
   4 -22  -1   81.79   44.70 
  22 -18   1    9.10   43.00 
  -4  22   1   85.79   31.60 
  -4  22   1   67.29   25.70 
  -4  22   1   79.99   43.30 
   1 -22  -1  -17.90   36.10 
 -22  21  -1   10.70   20.70 
   1 -22  -1   71.79   46.00 
  22 -21   1  -67.69   41.80 
  -1  22   1   -9.40   34.10 
  -1  22   1   -8.00   21.90 
  -1  22   1   91.79   61.99 
  -2 -22  -1   45.50   38.70 
  -2 -22  -1   18.90   44.00 
 -22  24  -1  -21.20   22.80 
   2  22   1   12.90   37.10 
   2  22   1  -22.20   22.90 
  22 -24   1  226.08   49.70 
   2  22   1  -22.50   65.79 
 -22  27  -1  -38.20   21.00 
   5  22   1   22.50   34.50 
   5  22   1   32.10   70.99 
   5  22   1  -20.40   23.20 
  22 -27   1  -26.10   42.50 
  -4  27  -1  138.09   30.90 
  -4  27  -1  -29.40   65.29 
  -4  27  -1  131.19   43.50 
  23   4   1  150.18   40.40 
  -1  24  -1  114.59   63.39 
  -1  24  -1   73.39   42.70 
  24 -23  -1  -62.79   45.00 
  -1  24  -1   49.60   22.80 
  23   1   1  -11.40   35.30 
   1 -24   1   -9.20   38.80 
 -24  23   1  -74.49   26.20 
   1 -24   1   -8.70   46.80 
  21 -23  -1   79.59   48.60 
   2  21  -1   90.79   26.50 
   2  21  -1    4.30   59.69 
   2  21  -1   74.29   37.50 
  23  -2   1   74.19   38.50 
  -2 -21   1   43.90   37.40 
 -21  23   1   61.49   29.50 
  18 -23  -1  503.05   74.09 
  18 -23  -1  621.14   86.79 
   5  18  -1  492.35   94.09 
   5  18  -1  473.15   72.29 
   5  18  -1  532.55   68.59 
  23  -5   1  382.06   65.39 
 -18  23   1  486.75   69.29 
  23  -5   1  492.65   82.99 
  23  -5   1  327.77   69.49 
  -5 -18   1  449.46   74.89 
  15 -23  -1  131.49  113.89 
   8  15  -1  311.47   67.19 
  15 -23  -1  215.98   55.49 
   8  15  -1  160.98   44.00 
   8  15  -1  196.08   37.30 
  15 -23  -1  152.28   48.20 
  -8 -15   1  134.99   43.40 
  23  -8   1  181.08   36.50 
 -15  23   1  211.28   38.60 
  23  -8   1  283.37   61.29 
  11  12  -1   -5.60   57.49 
  11  12  -1   49.00   34.40 
  12 -23  -1  157.58  118.69 
  12 -23  -1   59.09   38.10 
  12 -23  -1   -6.20   46.40 
 -23  11  -1    2.40   19.80 
  23 -11   1   14.60   41.70 
  23 -11   1   34.10   23.60 
 -12  23   1  -42.40   47.00 
 -12  23   1   26.90   25.80 
   9 -23  -1   49.60   45.40 
   9 -23  -1   99.49  120.19 
 -23  14  -1   56.09   25.00 
  14   9  -1   72.59   34.50 
   9 -23  -1   31.10   39.20 
  14   9  -1  -25.20   54.39 
  -9  23   1   91.09   52.59 
  23 -14   1   51.29   40.90 
  -9  23   1  113.89   28.00 
   6 -23  -1  264.67   57.99 
   6 -23  -1  221.78   52.49 
  17   6  -1  234.28   70.89 
 -23  17  -1  235.88   40.00 
  -6  23   1  249.88   56.69 
  -6  23   1  220.38   45.70 
  23 -17   1  187.38   54.69 
  -6  23   1  229.28   41.20 
   3 -23  -1  144.69   49.70 
 -23  20  -1  151.78   29.10 
   3 -23  -1  138.49   44.10 
  -3  23   1  129.79   70.39 
  -3  23   1   98.29   34.90 
  -3  23   1   65.39   40.20 
  23 -20   1  155.88   53.19 
  -3  23   1  120.59   30.60 
 -23  23  -1   16.80   23.30 
   0 -23  -1  -19.60   43.00 
   0 -23  -1  -15.20   34.50 
   0  23   1   20.30   35.40 
  23 -23   1  -18.00   43.80 
   0  23   1   36.00   23.80 
   0  23   1  -23.20   63.79 
 -23  26  -1    3.80   22.70 
  -3 -23  -1   45.50   33.90 
  -3 -23  -1   -0.40   43.40 
   3  23   1   29.90   27.70 
   3  23   1    2.60   37.50 
  23 -26   1  -24.80   43.10 
   3  23   1    3.10   79.49 
  -2  26  -1  -39.10   20.00 
  -2  26  -1  -64.59   56.69 
  -2  26  -1   35.50   38.10 
   2 -26   1  -49.60   51.19 
  24   2   1  -17.30   35.10 
  23 -24  -1  -34.00   46.60 
   1  23  -1   55.49   24.20 
   1  23  -1   87.09   67.99 
   1  23  -1    1.70   38.80 
  -1 -23   1    7.90   47.10 
  24  -1   1   29.30   36.80 
 -23  24   1  -29.60   26.90 
  -1 -23   1  -17.90   42.10 
  20 -24  -1  123.19   54.39 
   4  20  -1   79.39   42.40 
   4  20  -1  178.98   32.20 
   4  20  -1   21.90   60.49 
  24  -4   1  128.39   36.10 
 -20  24   1  129.29   32.40 
  -4 -20   1   78.49   41.00 
  24  -4   1  100.69   51.99 
  17 -24  -1  473.15   89.59 
   7  17  -1  459.45   89.29 
   7  17  -1  540.45   75.89 
   7  17  -1  487.05   70.39 
  17 -24  -1  436.96   77.69 
 -17  24   1  538.35   72.19 
  -7 -17   1  432.66   75.39 
  24  -7   1  396.36   81.79 
  14 -24  -1  199.58  131.79 
  10  14  -1  239.58   47.70 
  14 -24  -1  255.17   50.19 
  10  14  -1  141.19   65.89 
  14 -24  -1  271.47   61.19 
 -14  24   1  178.48   40.20 
  24 -10   1  193.28   54.69 
 -14  24   1  138.89   63.29 
  11 -24  -1   28.60   48.20 
  13  11  -1   83.69   35.60 
  13  11  -1  155.08   58.09 
 -24  13  -1   20.70   21.70 
  11 -24  -1   94.09   41.00 
  24 -13   1   74.19   44.50 
 -11  24   1   90.39   29.10 
 -11  24   1  204.78   50.59 
  16   8  -1  -11.40   60.69 
   8 -24  -1   23.40   37.50 
   8 -24  -1  -15.30   43.10 
  16   8  -1   17.30   35.80 
 -24  16  -1   19.00   20.20 
  -8  24   1   14.70   23.30 
  24 -16   1  -30.50   39.50 
  -8  24   1  -20.10   48.60 
   5 -24  -1  -17.80   37.00 
 -24  19  -1   19.50   20.90 
   5 -24  -1    5.80   48.20 
  -5  24   1   -5.00   23.30 
  -5  24   1  -15.00   32.00 
  -5  24   1   12.90   39.30 
  24 -19   1   -8.30   42.30 
   2 -24  -1  -22.80   48.40 
 -24  22  -1  -43.00   18.90 
   2 -24  -1   56.89   43.50 
  24 -22   1  -52.29   42.20 
  -2  24   1   32.40   30.50 
  -2  24   1   14.00   24.80 
  -2  24   1  -36.40   65.89 
 -24  25  -1  -31.70   22.50 
  -1 -24  -1    6.70   45.00 
  -1 -24  -1   -6.50   35.10 
   1  24   1  -19.40   23.10 
  24 -25   1   58.59   46.90 
   1  24   1  -39.10   35.40 
   1  24   1   30.90   78.19 
   0  25  -1  -62.49   56.89 
   0  25  -1   27.10   23.40 
   0  25  -1   11.40   39.20 
   0 -25   1   12.70   39.80 
  25   0   1   58.49   39.50 
   0 -25   1   23.40   42.70 
   3  22  -1  -59.09   65.79 
  22 -25  -1  -31.30   52.99 
   3  22  -1   -1.30   38.50 
   3  22  -1    5.40   22.70 
  25  -3   1   36.60   35.00 
  -3 -22   1    5.50   41.90 
 -22  25   1   19.30   26.40 
  -3 -22   1   15.70   43.40 
   6  19  -1    0.60   59.59 
   6  19  -1   25.50   23.30 
   6  19  -1  -44.00   37.70 
  19 -25  -1   34.40   37.70 
  19 -25  -1   50.49   51.49 
  25  -6   1    2.30   45.50 
 -19  25   1  -29.10   25.70 
  -6 -19   1  -57.99   36.10 
   9  16  -1   57.29   38.10 
  16 -25  -1  105.49   43.00 
   9  16  -1  105.89   67.19 
  16 -25  -1   92.49   53.79 
  -9 -16   1   10.10   36.00 
  25  -9   1  103.09   48.90 
 -16  25   1   87.89   31.80 
 -16  25   1   70.59   53.99 
  13 -25  -1   76.29   40.20 
  13 -25  -1   64.99   49.80 
  12  13  -1  130.29   38.20 
 -25  12  -1    2.30   21.50 
  12  13  -1  150.98   60.49 
 -13  25   1  102.99   29.40 
  25 -12   1   79.49   46.00 
 -13  25   1   66.49   50.39 
 -25  15  -1  117.19   33.30 
  15  10  -1  284.97   43.90 
  10 -25  -1   86.09   51.49 
  10 -25  -1  198.98   52.89 
  15  10  -1  101.49   65.19 
 -10  25   1  172.78   53.59 
 -10  25   1  212.88   38.10 
  25 -15   1  261.27   58.09 
   7 -25  -1  131.89   51.49 
 -25  18  -1  170.98   32.90 
  18   7  -1  178.28   62.09 
   7 -25  -1  141.99   48.10 
  25 -18   1  119.29   55.09 
  -7  25   1  197.38   36.60 
  -7  25   1   98.69   53.69 
 -25  21  -1   37.90   22.20 
   4 -25  -1   64.69   40.90 
   4 -25  -1  130.49   52.49 
  -4  25   1   32.80   24.70 
  -4  25   1   22.70   34.60 
  -4  25   1  112.99   49.90 
  25 -21   1   14.30   43.80 
   1 -25  -1  -23.80   39.20 
   1 -25  -1   42.00   50.39 
 -25  24  -1  -22.70   25.30 
  -1  25   1  145.19   70.69 
  25 -24   1   23.60   50.69 
  -1  25   1   44.00   31.20 
  -1  25   1  -21.80   25.20 
   2  25   1   39.20   38.30 
   2  25   1   59.49   71.29 
   2  24  -1  -29.60   42.90 
   2  24  -1   59.39   59.79 
   2  24  -1    7.30   25.10 
  -2 -24   1  -11.50   36.80 
  -2 -24   1   44.10   52.69 
  21 -26  -1   57.69   59.69 
   5  21  -1  154.08   31.80 
   5  21  -1   71.09   62.29 
   5  21  -1   99.99   46.90 
  -5 -21   1   97.99   41.60 
 -21  26   1  118.99   33.70 
   8  18  -1  260.27   73.79 
  18 -26  -1  115.39   59.49 
   8  18  -1  205.98   50.39 
 -18  26   1  331.17   70.69 
  26  -8   1  171.38   56.39 
 -18  26   1  254.07   43.20 
  -8 -18   1  213.98   48.80 
  11  15  -1  -34.20   58.69 
  15 -26  -1   52.09   37.70 
  15 -26  -1   62.79   49.90 
 -26  11  -1   22.30   22.00 
  11  15  -1  102.29   36.30 
  26 -11   1  -11.40   50.49 
 -15  26   1   39.50   28.20 
 -15  26   1   47.40   52.09 
  12 -26  -1   46.30   39.80 
  12 -26  -1   72.69   49.30 
 -26  14  -1   32.60   22.30 
  14  12  -1  -40.90   34.00 
  14  12  -1   40.60   57.59 
  26 -14   1   67.19   47.80 
 -12  26   1   86.49   49.90 
 -12  26   1   -6.30   24.90 
  17   9  -1   94.79   65.49 
  17   9  -1   98.19   41.60 
 -26  17  -1  133.69   30.30 
   9 -26  -1  226.88   56.69 
   9 -26  -1  110.89   49.70 
  26 -17   1   49.90   46.50 
  -9  26   1  157.98   54.49 
  -9  26   1  160.48   33.30 
 -26  20  -1  141.49   30.40 
   6 -26  -1  134.39   48.90 
   6 -26  -1  152.68   53.69 
  26 -20   1   65.29   48.00 
  -6  26   1   12.20   46.10 
  -6  26   1   64.79   31.30 
   3 -26  -1   11.30   42.40 
   3 -26  -1   71.59   49.00 
 -26  23  -1   14.10   22.80 
  -3  26   1   72.29   35.70 
  26 -23   1  -35.80   41.80 
  -3  26   1   67.69   28.30 
   0  26   1  -38.20   77.19 
   0  26   1   -9.20   31.20 
   4  23  -1  150.78   34.60 
   4  23  -1   38.40   62.39 
   4  23  -1    6.70   45.60 
  -4 -23   1   62.79   43.90 
   7  20  -1  195.48   51.59 
   7  20  -1  252.47   69.79 
  20 -27  -1  233.28   65.19 
   7  20  -1  283.07   44.80 
 -20  27   1  270.37   46.40 
  27  -7   1  130.69   63.69 
  -7 -20   1  213.58   53.59 
  17 -27  -1  340.47   81.19 
  10  17  -1  351.46   64.89 
  10  17  -1  413.56   87.49 
  17 -27  -1  483.65   73.59 
 -17  27   1  384.56   78.09 
  27 -10   1  294.97   73.69 
 -17  27   1  446.16   64.09 
  14 -27  -1  173.58   51.69 
  14 -27  -1  214.58   62.79 
  13  14  -1  246.98   73.59 
  13  14  -1  276.37   46.30 
 -27  13  -1   73.89   32.50 
 -14  27   1  294.57   59.99 
 -14  27   1  259.47   41.10 
  27 -13   1  126.49   53.59 
  11 -27  -1   95.99   42.90 
 -27  16  -1   60.89   24.20 
  11 -27  -1   12.30   47.90 
  16  11  -1   22.40   69.49 
  16  11  -1    6.30   35.20 
  27 -16   1   41.50   48.60 
 -11  27   1   94.99   29.00 
 -11  27   1   84.49   54.89 
  19   8  -1    7.70   69.79 
 -27  19  -1   50.09   23.40 
   8 -27  -1   50.09   45.40 
   8 -27  -1   56.59   41.50 
  27 -19   1   40.00   42.70 
  -8  27   1   -7.70   24.00 
  -8  27   1   25.80   48.80 
 -27  22  -1   -1.00   21.20 
   5 -27  -1   43.30   41.90 
  -5  27   1   21.10   34.00 
  -5  27   1  -54.89   21.30 
  27 -22   1  -23.60   42.40 
  -2  27   1  -18.00   35.90 
  -2  27   1  -29.50   74.09 
   6  22  -1   61.19   40.70 
   6  22  -1   19.50   69.69 
   9  19  -1  -30.00   66.89 
   9  19  -1   35.50   39.00 
  19 -28  -1   33.80   41.80 
 -19  28   1   41.90   29.30 
 -19  28   1   18.70   61.89 
  28  -9   1   93.39   57.59 
  16 -28  -1  139.99   41.80 
  12  16  -1  190.38   46.20 
 -28  12  -1   30.80   26.60 
  16 -28  -1  179.58   58.29 
  12  16  -1   95.59   72.79 
 -16  28   1  122.49   33.10 
  28 -12   1   87.79   55.29 
 -16  28   1  151.28   62.39 
  13 -28  -1  225.18   53.09 
 -28  15  -1  254.57   41.00 
  13 -28  -1  176.28   63.89 
  15  13  -1  216.68   75.49 
  15  13  -1  175.98   48.20 
 -13  28   1   67.19   61.39 
  28 -15   1  151.58   55.19 
 -13  28   1  204.48   42.30 
  10 -28  -1  309.37   62.09 
 -28  18  -1  293.57   44.10 
  18  10  -1  245.68   49.40 
  10 -28  -1  144.59   59.69 
  18  10  -1  188.78   79.19 
  28 -18   1  129.19   58.99 
 -10  28   1  169.48   61.99 
 -10  28   1  275.37   45.20 
  -7  28   1   74.79   52.09 
   8  21  -1  166.18   74.39 
   8  21  -1   76.89   45.30 
 -21  29   1  -16.40   64.69 
  11  18  -1   55.49   44.80 
  11  18  -1  126.79   65.99 
  18 -29  -1  119.19   49.00 
 -18  29   1   29.20   60.39 
  14  15  -1  -19.30   61.39 
  14  15  -1   -3.00   40.20 
  15 -29  -1   11.00   45.70 
 -15  29   1   71.79   59.19 
  17  12  -1   75.19   39.10 
  17  12  -1  116.29   65.09 
 -12  29   1   45.40   54.89 
  20   9  -1  141.09   73.09 
  -9  29   1   49.00   50.89 
  13  17  -1  380.76   82.79 
  13  17  -1  224.38   52.19 
 -17  30   1  196.48   71.69 
  16  14  -1  226.38   77.89 
  16  14  -1  164.08   47.80 
 -14  30   1  131.99   62.19 
   0  -1  -2   88.09  107.79 
  -1   1  -2  -44.60  112.79 
   1   0  -2    9.70   86.79 
   1   0  -2   68.59  113.89 
   1  -1   2   49.10   19.00 
  -1   0   2  113.59   19.30 
   0   1   2   36.80   18.80 
   2  -2  -2  -33.20  104.29 
   0   2  -2  -19.30   86.49 
  -2   0  -2  147.49  114.69 
   0   2  -2   50.39  130.89 
  -2   2   2   58.89   19.60 
   0  -2   2   46.40   17.70 
   2   0   2   51.49   18.90 
   0  -2   2   22.10   90.59 
   3  -1  -2  -39.10   79.89 
  -1  -2  -2   74.59  127.79 
  -2   3  -2  -32.40  112.69 
   3  -1  -2   40.60  121.29 
  -3   1   2   35.20   17.70 
   2  -3   2  111.89   90.79 
   2  -3   2   36.20   18.40 
   1   2   2   32.00   18.00 
   4  -3  -2  137.69   23.10 
  -1   4  -2  -55.29   89.09 
   4  -3  -2  150.18   79.79 
   4  -3  -2   70.29  116.89 
  -1   4  -2  107.19  113.89 
  -3  -1  -2  -50.39  108.19 
   1  -4   2  166.38   21.10 
   3   1   2  123.99   23.50 
   1  -4   2   81.69   95.99 
  -4   3   2  180.28   23.80 
  -4   3   2   59.69   16.10 
  -3   2  -2   12.20  117.49 
   1  -3  -2   25.50   16.40 
   2   1  -2   -9.60   88.99 
   2   1  -2   44.30  130.09 
   1  -3  -2   36.90  110.49 
  -2  -1   2   19.90   89.59 
   3  -2   2   51.19   90.59 
   3  -2   2   33.20   18.30 
  -2  -1   2   63.29   15.90 
  -1   3   2   33.30   18.40 
   5  -2  -2   43.60   78.59 
   5  -2  -2   48.50   18.90 
  -3   5  -2  -31.10  111.29 
   5  -2  -2   78.29  112.69 
  -2  -3  -2    7.60  117.59 
   2   3   2    9.50   12.70 
  -5   2   2   -8.20   18.20 
   3  -5   2   48.60   93.69 
   2   3   2   33.90   18.20 
   3  -5   2   43.60   16.50 
   6  -4  -2  120.69  112.89 
   6  -4  -2  271.07   76.89 
  -2   6  -2  237.28   88.59 
  -4  -2  -2  264.87  119.89 
  -2   6  -2  215.88  125.09 
  -6   4   2   87.19   21.30 
   2  -6   2  172.18   24.50 
   2  -6   2  151.28   23.70 
   2  -6   2  169.98  100.19 
   4   2   2  153.98   26.10 
   1   3  -2   60.79   86.49 
   1   3  -2   98.59  126.79 
  -4   1  -2   96.79  132.69 
   3  -4  -2  142.69   29.40 
   3  -4  -2  123.19  128.79 
  -3   4   2  119.39   29.30 
  -1  -3   2  203.08   27.40 
  -1  -3   2  114.39   93.99 
   4  -1   2  136.69   29.40 
  -3   4   2  232.98   26.50 
   4   0  -2  235.58  128.29 
   0  -4  -2   52.79   20.30 
  -4   4  -2  133.79  131.79 
   4   0  -2  151.18   85.69 
   4   0  -2   57.69   19.40 
   0  -4  -2  122.09  119.99 
   0   4   2   11.10   18.90 
   4  -4   2   47.20   18.90 
   0   4   2   44.90   13.70 
  -4   0   2  159.28   89.29 
   4  -4   2  123.09   97.09 
  -4   0   2   63.19   18.00 
   7  -3  -2  601.44  105.49 
   7  -3  -2  683.63  136.89 
  -4   7  -2  452.35   63.79 
  -3  -4  -2  695.63  148.39 
  -3  -4  -2  545.55   69.69 
  -4   7  -2  889.11  121.89 
   7  -3  -2  477.85   69.39 
   4  -7   2  455.85   66.79 
   4  -7   2  624.44   79.09 
   3   4   2  449.56   65.49 
   4  -7   2  470.95   67.19 
   4  -7   2  475.85   68.59 
   4  -7   2  584.14  121.99 
   3   4   2  447.26   66.59 
   8  -5  -2  104.19  110.29 
   8  -5  -2   77.79   30.30 
   8  -5  -2  109.49   71.39 
  -3   8  -2   82.69   15.50 
  -3   8  -2   57.99   81.59 
  -5  -3  -2  109.79  130.59 
   3  -8   2   49.10  102.49 
   3  -8   2   84.99   18.70 
   3  -8   2   46.90   22.10 
   3  -8   2  122.19   28.50 
   3  -8   2   84.69   42.50 
  -8   5   2   40.00   16.60 
   5   3   2   87.19   21.00 
   5  -5  -2 1201.68  203.48 
   5  -5  -2 1134.49  231.68 
   0   5  -2 1464.45  205.78 
  -5   0  -2 1208.98  231.58 
   0   5  -2 1168.48  228.48 
   0  -5   2 1420.96  214.18 
   0  -5   2 1511.15  181.38 
  -5   5   2 1464.25  180.88 
   5   0   2 1544.15  182.38 
   2  -5  -2  -46.10  118.59 
   2  -5  -2   -1.20   30.10 
   2  -5  -2   -1.90   20.70 
  -5   3  -2  123.19  132.69 
   3   2  -2   16.60  115.19 
   3   2  -2  -52.09   77.59 
  -2   5   2   30.30   18.70 
  -3  -2   2   58.89   14.60 
   5  -3   2  100.19   92.99 
  -3  -2   2   71.09   90.09 
  -2   5   2   57.89   14.40 
   5  -3   2   31.20   20.10 
   5  -3   2   44.80   18.20 
  -1  -5  -2   74.29  124.99 
   6  -1  -2  121.49  124.59 
   6  -1  -2   -0.50   21.90 
  -5   6  -2   29.60   10.80 
  -5   6  -2   76.39  111.39 
  -1  -5  -2   66.59   28.60 
   6  -1  -2  -22.70   82.09 
   5  -6   2   47.10   95.69 
  -6   1   2  -16.10   82.19 
   5  -6   2   41.90   18.30 
   5  -6   2   45.50   17.90 
   1   5   2   24.50   15.60 
   1   5   2   18.80   17.70 
  -4  -5  -2  470.65   61.39 
   9  -4  -2  471.75  103.59 
  -5   9  -2  426.56   99.69 
   9  -4  -2  448.26   61.59 
  -5   9  -2  363.16   53.79 
  -4  -5  -2  293.07  153.48 
   9  -4  -2  270.87  117.89 
   5  -9   2  421.46   57.79 
   4   5   2  350.96   55.39 
   5  -9   2  370.36   54.79 
   4   5   2  492.35   56.69 
   5  -9   2  463.75   61.79 
   5  -9   2  454.65   73.49 
   5  -9   2  429.76  116.49 
  -6  -4  -2  291.47  136.99 
  10  -6  -2  156.68   37.30 
  10  -6  -2  190.48   97.29 
  -6  -4  -2  192.48   33.90 
  10  -6  -2  204.98   86.99 
  -4  10  -2  154.38   79.59 
  -4  10  -2  161.18   26.20 
   4 -10   2  145.39   26.80 
   6   4   2  134.19   27.40 
 -10   6   2  127.99   26.90 
   4 -10   2  221.18  102.99 
   4 -10   2  196.38   39.90 
   4 -10   2  208.78   48.60 
   4 -10   2  234.48   33.40 
   6   4   2  191.48   30.30 
  -1   7  -2  455.05  106.99 
   7  -6  -2   86.89  126.79 
   7  -6  -2  310.47   89.09 
   7  -6  -2  385.06   57.19 
  -1   7  -2  351.16   49.70 
  -6  -1  -2  246.38  135.89 
   1  -7   2  376.06   56.89 
   6   1   2  426.56   54.19 
   1  -7   2  334.67   52.19 
   1  -7   2  408.96   51.39 
  -7   6   2  434.36   51.09 
   1  -7   2  346.17   59.59 
   1  -7   2  315.27  112.69 
   4  -6  -2  175.68   34.80 
   4  -6  -2  105.59  134.99 
   4  -6  -2  182.88   40.00 
   2   4  -2  221.48  127.49 
  -6   2  -2  195.68  119.09 
   2   4  -2  244.68   88.29 
   6  -2   2  166.98   32.90 
   6  -2   2  114.09   30.10 
  -4   6   2  175.68   26.90 
  -2  -4   2  197.38   26.30 
  -2  -4   2  183.98   96.59 
  -4   6   2  177.08   30.00 
   5   1  -2   78.09  108.19 
   1  -6  -2   94.79   31.00 
   5   1  -2   56.59   22.50 
   5   1  -2  165.98   84.79 
  -6   5  -2  -16.80  122.69 
  -6   5  -2   45.10   10.90 
   1  -6  -2   77.89  144.09 
   1  -6  -2   85.99   24.80 
   6  -5   2   41.90   19.80 
  -1   6   2   49.99   16.40 
   6  -5   2   99.49   91.79 
  -1   6   2   14.40   18.10 
  -5  -1   2  -17.40   84.79 
  -5  -1   2  -44.10   13.70 
   6  -5   2   55.19   19.20 
   8  -2  -2  564.04  130.59 
   8  -2  -2  404.66   63.19 
   8  -2  -2  658.63  110.79 
  -6   8  -2  388.06   58.09 
  -2  -6  -2  358.06  149.39 
  -2  -6  -2  452.25   64.69 
   6  -8   2  501.15   63.99 
   6  -8   2  427.66   59.69 
   2   6   2  369.16   60.09 
   2   6   2  439.96   60.49 
   6  -8   2  655.73  120.69 
   6  -8   2  603.24   78.69 
   6  -8   2  479.15   61.79 
  -8   2   2  464.45  100.49 
  -5  -6  -2  326.77   47.30 
  11  -5  -2  322.97   99.29 
  -6  11  -2  475.95   95.79 
  11  -5  -2  282.17   91.99 
  11  -5  -2  334.67   62.19 
  11  -5  -2  301.07   50.49 
  -5  -6  -2  179.78  142.39 
  -6  11  -2  269.57   39.90 
   5   6   2  259.87   41.30 
   5   6   2  268.87   42.40 
   6 -11   2  345.87  109.59 
   6 -11   2  379.26   64.89 
   6 -11   2  330.57   47.60 
   6 -11   2  241.08   40.30 
   6 -11   2  298.87   47.50 
  12  -7  -2    0.80   30.60 
  12  -7  -2  -37.50   69.59 
  12  -7  -2  -42.20   77.19 
  -7  -5  -2  118.69  131.19 
  12  -7  -2   -5.20   46.00 
  -5  12  -2   16.60   14.20 
  -7  -5  -2   57.49   24.40 
  -5  12  -2    4.60   65.49 
   5 -12   2   33.80   14.80 
   7   5   2   13.90   16.80 
   5 -12   2  -26.30   42.00 
   5 -12   2  126.79   97.49 
   5 -12   2   10.40   27.00 
   5 -12   2   13.40   26.10 
 -12   7   2    0.70   15.30 
  -2   9  -2   21.80   14.10 
  -7  -2  -2   74.79  124.39 
   9  -7  -2    6.90  111.89 
   9  -7  -2   39.00   30.40 
   9  -7  -2  103.59   71.29 
  -2   9  -2  158.48   85.39 
  -9   7   2   51.69   15.50 
   7   2   2   19.10   18.90 
   2  -9   2   31.60   97.49 
   2  -9   2   27.50   14.30 
   2  -9   2   16.00   23.00 
   2  -9   2    8.30   33.30 
   2  -9   2    7.50   26.80 
   1   6  -2  149.69   98.29 
   6  -7  -2  344.77   60.09 
   6  -7  -2  443.86   63.09 
   6  -7  -2  313.17  140.89 
   1   6  -2  403.26   53.39 
   6  -7  -2  238.68   87.19 
  -7   1  -2  247.38  140.09 
  -1  -6   2  291.27  108.89 
  -1  -6   2  463.85   53.69 
  -1  -6   2  393.16   57.49 
  -6   7   2  456.35   55.09 
   7  -1   2  373.26   55.39 
   4   3  -2  568.74  138.49 
   4   3  -2  713.53  109.39 
  -7   4  -2  650.53  152.28 
   3  -7  -2  433.56   65.59 
   3  -7  -2  510.25  165.38 
   3  -7  -2  496.25   70.99 
  -3   7   2  467.55   63.69 
   7  -4   2  481.15   64.79 
  -4  -3   2  395.16   61.69 
  -4  -3   2  884.61  116.69 
  -3   7   2  457.45   64.49 
   7  -4   2  455.75   64.09 
   7  -4   2  563.14  117.39 
  -7   7  -2  786.72  107.69 
  -7   7  -2  716.03  180.58 
   0  -7  -2  899.91  115.69 
   7   0  -2  829.22  111.79 
   7   0  -2  956.80  141.49 
   0  -7  -2  878.81  187.48 
   7   0  -2  938.11  160.38 
  -7   0   2  937.21  140.79 
   0   7   2  823.82  109.39 
   7  -7   2  845.02  122.99 
   7  -7   2 1066.49  155.98 
   7  -7   2  840.32  110.99 
   7  -7   2  852.91  111.09 
   0   7   2  785.82  109.09 
   7  -7   2  900.01  109.99 
  -3  -7  -2 2070.69  258.07 
  10  -3  -2 1929.41  274.47 
  -7  10  -2 2285.67  276.97 
  10  -3  -2 1947.01  257.97 
  -7  10  -2 2036.40  255.47 
  -3  -7  -2 1901.31  325.57 
  10  -3  -2 2034.00  288.07 
   3   7   2 1980.50  256.47 
   7 -10   2 1963.60  257.77 
   7 -10   2 2020.00  257.67 
 -10   3   2 1664.73  269.27 
   7 -10   2 2149.88  262.97 
   3   7   2 2012.00  256.37 
   7 -10   2 2102.99  287.67 
   7 -10   2 2180.18  256.57 
  -7  13  -2  662.13  128.69 
  -6  -7  -2  802.72  104.79 
  -7  13  -2  772.32  101.19 
  13  -6  -2  760.12  112.09 
  13  -6  -2  909.61  146.49 
  -6  -7  -2  440.26  177.18 
  13  -6  -2  832.32  110.19 
   6   7   2  727.63  102.99 
   6   7   2  783.92  102.09 
   7 -13   2  813.92  106.09 
   7 -13   2  897.81  118.69 
   7 -13   2  796.82  107.19 
   6   7   2 1063.19  145.39 
   7 -13   2  691.73  148.89 
   7 -13   2  742.83  101.29 
  14  -8  -2  386.76   90.29 
  14  -8  -2  281.27   51.79 
  -6  14  -2  260.37   39.80 
  -8  -6  -2  172.58  133.29 
  14  -8  -2  191.98   58.89 
  -6  14  -2  258.27   82.69 
   8   6   2  301.17   40.90 
 -14   8   2  273.67   41.00 
   6 -14   2  264.97  106.19 
   6 -14   2  267.77   48.70 
   8   6   2  358.36  100.09 
   6 -14   2  261.77   48.00 
  -8  -3  -2  123.49  125.39 
  11  -8  -2  -26.00   30.10 
  -3  11  -2  109.09   81.89 
  11  -8  -2    2.60   56.29 
  11  -8  -2  -50.39   87.19 
  11  -8  -2  -19.20   69.39 
  -3  11  -2   -7.50   14.10 
   3 -11   2  -18.60   26.50 
   3 -11   2  -13.40   95.29 
   3 -11   2   13.70   12.60 
 -11   8   2   15.80   15.10 
   8   3   2  -11.20   19.60 
   3 -11   2  -13.80   25.50 
   8  -8  -2  680.63  135.29 
   0   8  -2  890.61  116.29 
   8  -8  -2  853.31  121.19 
   8  -8  -2  968.60  122.99 
  -8   0  -2  832.32  180.78 
   0   8  -2  917.91  147.99 
   8  -8  -2  541.45  177.78 
  -8   8   2  992.30  117.49 
   0  -8   2  886.51  159.38 
   0  -8   2  938.61  116.49 
   0  -8   2  964.30  121.59 
   8   0   2  933.21  118.39 
   5  -8  -2   90.49   31.00 
   5  -8  -2  105.99   34.40 
   3   5  -2  -98.39   81.29 
  -8   3  -2  -13.20  124.19 
   5  -8  -2   20.20   70.49 
   5  -8  -2  188.98  145.89 
   8  -3   2   71.59   23.30 
  -3  -5   2   59.99   91.29 
   8  -3   2   44.20   94.49 
   8  -3   2   99.89   27.80 
  -3  -5   2   93.19   17.00 
  -5   8   2   98.89   19.90 
   2  -8  -2  475.85   65.39 
   6   2  -2  588.94  107.59 
  -8   6  -2  469.65  145.39 
   6   2  -2  487.25  131.29 
   2  -8  -2  572.54  170.28 
  -8   6  -2  385.86   56.19 
   2  -8  -2  452.05   62.79 
   8  -6   2  575.04  114.09 
  -2   8   2  393.56   58.79 
  -2   8   2  424.86   57.89 
  -6  -2   2  638.14  104.69 
   8  -6   2  419.56   59.79 
   8  -6   2  451.55   58.79 
   8  -6   2  405.46   58.59 
  -6  -2   2  379.06   56.49 
  -1  -8  -2  280.57   49.30 
   9  -1  -2  235.98   93.99 
   9  -1  -2  353.36   49.40 
   9  -1  -2  241.38   97.19 
  -1  -8  -2   74.69  153.08 
  -8   9  -2  280.87   40.80 
   1   8   2  311.17   42.10 
   1   8   2  285.47   42.90 
   8  -9   2  151.28  106.89 
   8  -9   2  392.56   71.79 
   8  -9   2  302.57   42.60 
   8  -9   2  322.87   46.80 
  -9   1   2  158.48   81.19 
   8  -9   2  284.87   46.80 
  12  -4  -2  284.57   53.39 
  -4  -8  -2  283.37   47.50 
  -4  -8  -2  217.28  154.68 
  12  -4  -2  193.08   96.49 
  12  -4  -2  261.67   57.69 
  -8  12  -2  286.67   41.70 
  -8  12  -2  301.27   88.99 
   8 -12   2  204.68  106.49 
   8 -12   2  244.48   66.79 
   8 -12   2  323.27   43.50 
   4   8   2  298.47   42.90 
   4   8   2  322.07   44.30 
   8 -12   2  344.97   49.00 
   8 -12   2  301.17   49.70 
  -7  -8  -2   88.39  140.39 
  15  -7  -2   -8.30   43.80 
  -8  15  -2  -26.60   15.10 
  15  -7  -2   55.29   33.80 
  15  -7  -2  -31.10   89.09 
   7   8   2  -11.90   99.69 
   8 -15   2   22.20   33.40 
   8 -15   2   -8.20   28.40 
   7   8   2   19.80   15.80 
   7   8   2    4.40   20.90 
 -15   7   2  -27.80   16.70 
   8 -15   2   36.40   94.79 
  16  -9  -2   53.49   35.50 
  -7  16  -2  -14.00   36.50 
  -7  16  -2    7.90   17.40 
  -9  -7  -2  -25.30  124.69 
  16  -9  -2  -57.99   49.70 
  16  -9  -2  163.28   74.79 
   7 -16   2   17.50   99.69 
 -16   9   2  -13.20   18.30 
   9   7   2   -3.10   15.50 
   7 -16   2   -3.00   29.70 
   7 -16   2  -70.59   31.90 
   9   7   2  175.18   98.99 
  13  -9  -2   71.49   35.50 
  13  -9  -2    2.00   57.79 
  -9  -4  -2  112.39  122.49 
  -4  13  -2  -21.70   65.29 
  -4  13  -2   45.20   15.00 
  13  -9  -2  -32.30   68.89 
   4 -13   2    3.80   91.09 
 -13   9   2   14.90   17.30 
   9   4   2   34.30   19.80 
   4 -13   2   49.60   30.10 
   4 -13   2   18.90   28.10 
  -1  10  -2  259.57   30.30 
  10  -9  -2  118.29   41.00 
  10  -9  -2   99.69  122.19 
  -1  10  -2   86.79   78.19 
  10  -9  -2   16.60   63.59 
  -9  -1  -2   36.80  115.49 
   1 -10   2  177.38   37.40 
   1 -10   2  235.08   41.20 
   9   1   2  233.98   33.10 
   1 -10   2  107.19   99.29 
 -10   9   2  186.48   30.80 
   7  -9  -2   76.09  139.79 
   2   7  -2   28.80   15.30 
   7  -9  -2   50.79   33.10 
   2   7  -2   19.90   79.69 
  -9   2  -2  100.19  123.89 
   7  -9  -2   69.49   56.79 
   7  -9  -2   34.70   32.70 
  -2  -7   2  108.19   92.09 
  -2  -7   2   70.99   13.50 
  -2  -7   2   31.20   27.10 
   9  -2   2   59.99   21.80 
  -7   9   2   63.09   19.30 
   9  -2   2   51.49   30.10 
   5   4  -2  267.67   98.99 
  -9   5  -2  330.37  134.69 
   4  -9  -2  446.76  149.79 
   4  -9  -2  364.36   57.39 
   4  -9  -2  474.75   62.29 
   9  -5   2  396.76   56.69 
   9  -5   2  253.87  108.39 
  -4   9   2  380.86   53.59 
   9  -5   2  419.36   55.09 
  -5  -4   2  459.65  100.19 
   9  -5   2  376.16   52.89 
  -4   9   2  410.96   53.59 
  -5  -4   2  358.96   51.39 
   8   1  -2  306.07   99.39 
   1  -9  -2  299.87   47.80 
   1  -9  -2   59.59  136.79 
  -9   8  -2  286.17   40.00 
   8   1  -2  300.07   46.40 
   1  -9  -2  243.38   48.80 
   9  -8   2  283.97   46.00 
  -1   9   2  309.87   41.60 
   9  -8   2  225.48  106.59 
  -1   9   2  280.57   41.80 
   9  -8   2  253.07   42.00 
   9  -8   2  388.26   72.49 
   9  -8   2  287.77   42.10 
  -8  -1   2  241.98   81.79 
  11  -2  -2 1224.48  163.48 
  11  -2  -2 1227.48  162.88 
  11  -2  -2 1390.96  192.08 
  -2  -9  -2 1221.98  161.98 
  -2  -9  -2  953.10  236.38 
  -9  11  -2 1264.57  158.58 
   9 -11   2 1375.46  173.88 
   9 -11   2 1205.08  160.68 
   2   9   2 1261.27  159.18 
   9 -11   2 1199.68  196.28 
   9 -11   2 1249.18  159.28 
   9 -11   2 1187.08  161.68 
   2   9   2 1276.97  159.38 
  14  -5  -2  656.13   89.09 
  -5  -9  -2  455.25  175.68 
  14  -5  -2  709.73  133.69 
  -5  -9  -2  552.74   86.29 
  14  -5  -2  552.14   89.99 
  -9  14  -2  622.64   81.59 
   9 -14   2  688.53   89.29 
   5   9   2  570.84   81.29 
   9 -14   2  627.44   86.69 
   5   9   2  897.91  134.99 
   9 -14   2  545.55  134.19 
   5   9   2  671.13   84.49 
   9 -14   2  712.23  102.79 
   9 -14   2  572.64   82.39 
  -8  -9  -2  137.29  137.89 
  -9  17  -2   10.80   19.60 
  -9  17  -2   29.90   34.70 
  17  -8  -2 -167.78   86.09 
  17  -8  -2  -16.30   47.70 
  17  -8  -2   -9.90   34.20 
   8   9   2  -29.50   34.60 
   9 -17   2   31.60   29.80 
   8   9   2    7.50   19.50 
   8   9   2   11.90   33.10 
   8   9   2   15.90   93.89 
   9 -17   2   -4.40  101.49 
 -17   8   2   -1.10   21.10 
   9 -17   2   31.80   32.30 
  18 -10  -2  -38.40   35.70 
  -8  18  -2  -41.10   34.90 
  -8  18  -2   14.20   17.40 
  18 -10  -2  -88.79   49.10 
 -18  10   2   21.00   22.30 
   8 -18   2   40.30   30.90 
   8 -18   2   44.00   33.50 
  10   8   2   36.10   34.90 
   8 -18   2  -10.80   97.99 
  10   8   2   32.50   35.10 
  -5  15  -2   93.59   22.10 
  15 -10  -2   83.49   55.19 
  15 -10  -2  107.69   40.10 
 -10  -5  -2  174.28  133.09 
  -5  15  -2   97.39   72.79 
 -15  10   2  112.89   24.70 
   5 -15   2 -121.09   93.29 
   5 -15   2  145.89   36.30 
  10   5   2   97.09   23.90 
   5 -15   2   66.29   35.30 
 -10  -2  -2   -7.00  114.09 
  12 -10  -2  -32.80   53.29 
  12 -10  -2   13.00   31.90 
  -2  12  -2  128.39   78.99 
  12 -10  -2   49.00   96.69 
  -2  12  -2   -2.90   15.10 
   2 -12   2    0.50   28.90 
   2 -12   2  -78.49   85.49 
 -12  10   2    9.30   16.90 
  10   2   2   28.90   20.70 
   2 -12   2  -43.90   27.70 
 -10   1  -2  102.69  121.29 
   9 -10  -2  104.49   58.79 
   1   9  -2  198.98   89.49 
   1   9  -2  227.98   31.00 
   9 -10  -2  201.88   43.00 
   9 -10  -2   76.59  134.29 
   9 -10  -2  194.88   43.00 
  10  -1   2  210.58   33.90 
  10  -1   2  203.58   40.50 
  -1  -9   2  181.88   97.09 
  -9  10   2  202.78   33.00 
  -1  -9   2  192.88   40.70 
   6 -10  -2  196.28   61.49 
   6 -10  -2  292.07  154.78 
 -10   4  -2  104.29  118.39 
   6 -10  -2  198.78   37.20 
   6 -10  -2  190.88   41.30 
   4   6  -2  214.38   87.29 
  10  -4   2  289.97   98.39 
  -6  10   2  138.69   28.30 
  10  -4   2  145.39   31.40 
  -4  -6   2  208.58   87.19 
  10  -4   2  183.98   35.00 
  -4  -6   2  212.98   37.20 
   3 -10  -2 2065.49  259.47 
   3 -10  -2 2093.59  260.57 
 -10   7  -2 1958.50  307.37 
   7   3  -2 2238.78  283.47 
   3 -10  -2 1741.33  320.57 
  10  -7   2 2051.09  264.97 
  -7  -3   2 1916.01  273.67 
  10  -7   2 2118.39  257.87 
  10  -7   2 1965.50  258.87 
  10  -7   2 2049.70  284.27 
  10  -7   2 1945.21  257.07 
  -3  10   2 1993.40  257.17 
  -7  -3   2 2203.68  256.87 
  -3  10   2 1936.71  257.37 
   0 -10  -2 2081.09  351.46 
   0 -10  -2 2442.16  297.97 
  10   0  -2 2420.36  298.17 
 -10  10  -2 2410.06  294.87 
  10   0  -2 2078.49  313.57 
  10 -10   2 2388.96  295.67 
  10 -10   2 2257.27  296.87 
   0  10   2 2329.07  294.87 
   0  10   2 2268.97  321.87 
  10 -10   2 2387.86  303.47 
   0  10   2 2292.27  295.77 
  10 -10   2 2326.67  295.87 
  10 -10   2 2203.68  321.37 
  -3 -10  -2 2352.46  384.86 
  13  -3  -2 2378.26  339.27 
 -10  13  -2 2713.33  319.17 
  -3 -10  -2 2463.65  320.97 
 -10  13  -2 2175.58  332.47 
  13  -3  -2 2557.04  321.87 
   3  10   2 2500.85  318.67 
  10 -13   2 2555.64  319.47 
  10 -13   2 2552.34  321.37 
  10 -13   2 2415.06  327.67 
   3  10   2 2574.64  319.57 
  10 -13   2 2341.67  346.37 
   3  10   2 2463.65  342.97 
  10 -13   2 2676.83  320.97 
  -6 -10  -2  220.78   45.10 
 -10  16  -2  288.07   39.00 
  16  -6  -2  234.28  107.39 
  16  -6  -2  201.48   49.70 
  -6 -10  -2  -10.40  146.09 
  10 -16   2  277.97   39.20 
  10 -16   2  197.98   45.00 
  10 -16   2  228.38   68.99 
  10 -16   2  268.47   50.39 
   6  10   2  305.67   98.29 
  10 -16   2  132.29  106.59 
   6  10   2  313.97   42.80 
 -10  19  -2   27.20   18.50 
 -10  19  -2   62.99   36.00 
  19  -9  -2   20.00   37.60 
  10 -19   2   75.09   31.30 
 -19   9   2  -20.60   21.60 
  10 -19   2  -38.50   95.89 
  10 -19   2   68.39   35.20 
   9  10   2   20.40   35.20 
   9  10   2  -18.90   33.40 
  20 -11  -2    2.10   37.40 
  -9  20  -2    4.00   19.30 
  -9  20  -2   23.30   35.80 
  20 -11  -2   28.70   56.69 
  11   9   2   18.60   34.40 
 -20  11   2  -25.10   19.60 
   9 -20   2  -15.70   35.50 
   9 -20   2  -22.70   30.10 
  11   9   2  -73.99   37.80 
   9 -20   2   -9.50   96.09 
  -6  17  -2   93.19   34.90 
  17 -11  -2  116.59   58.79 
  -6  17  -2   55.09   22.10 
  17 -11  -2  119.79   40.40 
   6 -17   2  183.08  105.99 
   6 -17   2   65.39   35.50 
 -17  11   2   98.89   23.60 
   6 -17   2   17.60   36.80 
  11   6   2   61.19   19.70 
  11   6   2   55.69   38.40 
  11   6   2  133.39   38.80 
  14 -11  -2   24.00   34.40 
  -3  14  -2  -35.70   14.70 
 -11  -3  -2  -46.70  116.89 
  -3  14  -2   -6.30   74.69 
  14 -11  -2    2.20   61.59 
 -14  11   2    9.80   17.90 
   3 -14   2    2.10   31.40 
  11   3   2  -60.49   16.10 
   3 -14   2  134.19   95.99 
   3 -14   2  -13.80   30.40 
  11 -11  -2  565.74   79.99 
  11 -11  -2  566.54   79.89 
   0  11  -2  377.56  105.39 
   0  11  -2  582.14   71.79 
  11 -11  -2  270.87  145.69 
 -11   0  -2  408.06  146.79 
   0 -11   2  424.86  118.59 
 -11  11   2  535.75   72.49 
   0 -11   2  570.64   78.99 
  11   0   2  547.45   73.49 
   8 -11  -2  -29.00   30.60 
   3   8  -2   77.29   81.19 
   8 -11  -2   -6.00   31.00 
   3   8  -2  -12.80   14.00 
 -11   3  -2   78.99  119.29 
   8 -11  -2   -4.00  136.79 
  -8  11   2    7.50   19.10 
  11  -3   2   19.50   31.00 
  11  -3   2  -23.50   19.30 
  -3  -8   2   71.89   28.50 
  -3  -8   2 -124.69   80.59 
  11  -3   2   -5.80   92.29 
   5 -11  -2  196.58  164.98 
   5 -11  -2  324.47   50.19 
   5 -11  -2  225.98   48.80 
 -11   6  -2  428.26  125.59 
   6   5  -2  296.47   94.39 
  11  -6   2  371.16  102.29 
  -5  11   2  275.37   40.30 
  -5  11   2  226.68   38.60 
  -6  -5   2  204.18   44.60 
  11  -6   2  294.17   46.00 
  -6  -5   2  329.77   85.59 
  11  -6   2  261.07   40.40 
   2 -11  -2 1239.18  161.88 
 -11   9  -2 1208.68  157.38 
   9   2  -2 1360.86  191.88 
   2 -11  -2 1170.98  233.98 
   2 -11  -2 1260.27  162.38 
  -2  11   2 1738.73  202.48 
  -2  11   2 1250.57  157.58 
  -2  11   2 1256.87  158.28 
  11  -9   2 1295.17  171.48 
  -9  -2   2 1039.30  174.08 
  11  -9   2 1208.98  161.18 
  11  -9   2 1153.68  157.68 
  11  -9   2 1273.17  196.08 
  11  -9   2 1269.77  158.68 
  -1 -11  -2  293.27  153.18 
  12  -1  -2  278.57   55.19 
  -1 -11  -2  376.26   54.79 
  12  -1  -2  237.98  108.89 
 -11  12  -2  320.57   47.50 
   1  11   2  321.57   46.40 
  11 -12   2  364.16   51.19 
  11 -12   2  344.97   48.50 
   1  11   2  331.37   48.40 
  11 -12   2  357.46   80.09 
   1  11   2  560.84  135.69 
  11 -12   2  352.86   54.19 
  11 -12   2  202.48  107.29 
  15  -4  -2  113.49   41.20 
  15  -4  -2  166.68   95.49 
  -4 -11  -2  153.68   32.80 
  -4 -11  -2  117.79  152.58 
 -11  15  -2  126.09   23.80 
  11 -15   2   51.79   93.79 
  11 -15   2  108.89   34.30 
   4  11   2  108.59   26.10 
  11 -15   2  135.39   25.30 
  11 -15   2  108.59   38.40 
  11 -15   2   59.79   55.59 
   4  11   2  101.49   20.80 
   4  11   2   57.69  101.69 
 -11  18  -2   85.49   35.40 
  18  -7  -2  -16.00   93.99 
  18  -7  -2    2.50   37.40 
 -11  18  -2   21.10   18.20 
  11 -18   2   29.50   32.50 
  11 -18   2   66.29  105.79 
   7  11   2  131.99   96.19 
   7  11   2  106.99   41.30 
   7  11   2   22.00   32.80 
   7  11   2   49.00   22.00 
  11 -18   2   26.70   32.90 
  21 -10  -2  -27.70   38.60 
 -11  21  -2  -15.30   34.90 
 -11  21  -2  -13.60   17.10 
  10  11   2   72.99   36.70 
 -21  10   2   14.40   20.90 
  11 -21   2  -28.30   30.40 
  10  11   2  -45.10   32.80 
  11 -21   2   41.50   98.99 
  22 -12  -2  -31.70   37.60 
 -10  22  -2   16.90   41.70 
  12  10   2    3.70   36.70 
  12  10   2   -8.20   35.40 
  10 -22   2    6.20   34.20 
 -22  12   2    3.30   21.30 
  19 -12  -2  -31.90   43.10 
  -7  19  -2  -65.79   60.69 
  -7  19  -2   12.60   34.20 
  -7  19  -2   25.90   20.20 
  19 -12  -2   90.79   60.99 
   7 -19   2    3.20   32.20 
  12   7   2    4.20   35.60 
   7 -19   2  -40.50   35.30 
 -19  12   2   28.60   20.10 
   7 -19   2   19.00   95.89 
  -4  16  -2  445.16   66.19 
  -4  16  -2  457.55   60.59 
  16 -12  -2  333.57   70.39 
  16 -12  -2  332.87   80.79 
   4 -16   2  207.78  115.29 
   4 -16   2  458.55   71.29 
   4 -16   2  365.06   67.49 
 -16  12   2  455.75   62.49 
  12   4   2  551.54   67.19 
  12   4   2  428.56   59.69 
  13 -12  -2  248.98   56.29 
  13 -12  -2  224.18   49.00 
  13 -12  -2  189.38  116.29 
  -1  13  -2  113.39   86.49 
  13 -12  -2  180.08   75.39 
  -1  13  -2  279.87   40.30 
   1 -13   2  225.98  104.09 
   1 -13   2  271.87   50.19 
   1 -13   2  278.97   48.60 
  12   1   2  327.07   41.60 
 -13  12   2  293.57   41.90 
  10 -12  -2  -13.70  130.99 
   2  10  -2   21.70   15.50 
  10 -12  -2   17.30   34.00 
 -12   2  -2  -24.00  116.89 
   2  10  -2  -20.90   75.89 
  10 -12  -2   20.30   32.80 
  12  -2   2  -22.40   29.60 
  12  -2   2  -68.59   87.49 
  12  -2   2  -42.60   18.40 
 -10  12   2  -10.30   17.40 
  -2 -10   2  -56.19   28.10 
  -2 -10   2   11.60   85.19 
   5   7  -2    8.00   82.59 
   7 -12  -2   30.90   35.90 
   7 -12  -2   21.20  146.29 
   7 -12  -2   28.50   32.80 
 -12   5  -2   19.50  111.69 
  12  -5   2   41.20   88.49 
  -7  12   2   17.70   18.30 
  -5  -7   2   83.69   74.49 
  12  -5   2   28.00   20.30 
  -5  -7   2   28.80   27.10 
  12  -5   2   69.19   31.70 
   8   4  -2  207.18  100.19 
   4 -12  -2  340.57   53.09 
   4 -12  -2  259.67   53.39 
   4 -12  -2  114.79  150.78 
  -4  12   2  313.87   41.40 
  12  -8   2  296.57   43.70 
  -8  -4   2  297.77   77.19 
  -4  12   2  265.67   42.40 
  12  -8   2  203.88  103.89 
  12  -8   2  279.47   48.50 
  12  -8   2  265.17   70.19 
   1 -12  -2  398.66   60.09 
  11   1  -2  286.97  110.09 
   1 -12  -2  201.08  172.78 
   1 -12  -2  371.16   55.39 
  11   1  -2  273.57   54.59 
 -12  11  -2  315.87   46.70 
  -1  12   2  319.27   46.50 
  12 -11   2  337.27  107.39 
  12 -11   2  352.26   49.80 
  12 -11   2  293.87   76.09 
  -1  12   2  393.16  123.99 
  -1  12   2  370.76   49.10 
  12 -11   2  302.87   54.99 
  14  -2  -2  896.21  161.48 
  -2 -12  -2  525.95  211.18 
  14  -2  -2 1021.50  125.79 
  -2 -12  -2  887.91  123.09 
 -12  14  -2  931.41  118.79 
  12 -14   2  880.71  120.59 
   2  12   2 1231.18  164.38 
  12 -14   2  941.41  121.49 
  12 -14   2  737.33  159.48 
  12 -14   2  867.01  133.89 
   2  12   2  934.51  118.09 
  12 -14   2  855.61  124.29 
   2  12   2  952.40  120.29 
  17  -5  -2   95.09   38.60 
 -12  17  -2  142.89   22.50 
  17  -5  -2   30.90   89.79 
  -5 -12  -2   73.19   31.60 
  12 -17   2   65.09   98.49 
   5  12   2   80.89   23.40 
  12 -17   2   11.10   60.79 
  12 -17   2   76.29   22.80 
   5  12   2   36.90   37.30 
  12 -17   2   43.20   33.90 
   5  12   2  123.79   95.89 
   5  12   2   82.99   32.40 
  12 -17   2   25.60   28.90 
  20  -8  -2   43.70   40.20 
 -12  20  -2   34.10   21.80 
 -12  20  -2   89.09   41.00 
  20  -8  -2  151.38  112.29 
  12 -20   2  -14.40   29.90 
   8  12   2   34.00   21.60 
  12 -20   2   28.90   97.99 
 -20   8   2    0.60   19.40 
   8  12   2   44.40   34.80 
  12 -20   2   12.80   38.90 
   8  12   2   58.69   36.30 
  23 -11  -2    6.70   40.50 
 -12  23  -2   -9.50   35.60 
 -23  11   2    6.20   23.60 
  11  12   2   19.80   38.80 
  11  12   2   21.10   37.00 
  12 -23   2    7.10   38.40 
 -11  24  -2   87.19   39.60 
  24 -13  -2   -8.40   41.40 
  13  11   2   67.19   39.00 
  11 -24   2  -11.90   35.40 
 -24  13   2  -39.60   19.70 
  -8  21  -2    6.20   17.60 
  -8  21  -2   47.70   37.90 
  21 -13  -2  -32.70   58.79 
  -8  21  -2   21.90   54.09 
  21 -13  -2    0.90   44.90 
   8 -21   2   -3.60   99.19 
  13   8   2   37.30   38.60 
   8 -21   2   28.40   32.80 
 -21  13   2    2.00   20.90 
  18 -13  -2   25.40   39.00 
  -5  18  -2    5.50   17.90 
  18 -13  -2  -38.40   50.69 
  -5  18  -2   65.69   62.69 
  -5  18  -2   60.29   35.20 
   5 -18   2   -7.40   31.30 
   5 -18   2    8.00   94.79 
   5 -18   2   21.60   32.30 
  13   5   2   33.40   34.30 
 -18  13   2   -3.20   20.40 
  15 -13  -2  150.88   72.09 
  -2  15  -2  196.38   26.20 
  -2  15  -2   -2.30   68.19 
  15 -13  -2  111.49   42.70 
  -2  15  -2   97.79   37.20 
  13   2   2   59.89   37.70 
  13   2   2  161.98   28.00 
   2 -15   2  -81.29   94.29 
   2 -15   2  120.59   38.00 
 -15  13   2  129.79   27.10 
   2 -15   2   99.89   38.20 
   1  12  -2  190.58   88.69 
  12 -13  -2  276.27   55.09 
  12 -13  -2  289.57  140.89 
  12 -13  -2  263.87   51.69 
   1  12  -2  327.27   43.50 
  13  -1   2  273.27   44.00 
 -12  13   2  309.87   44.30 
  -1 -12   2  155.28   99.89 
  -1 -12   2  312.07   51.99 
   4   9  -2  181.28   95.79 
 -13   4  -2   14.10  102.99 
   9 -13  -2  -13.90  144.09 
   9 -13  -2   61.69   35.90 
   9 -13  -2   67.59   33.90 
   4   9  -2   31.50   15.70 
  -9  13   2   21.80   18.70 
  13  -4   2   24.30   20.70 
  -4  -9   2   50.99   29.60 
  13  -4   2  174.98   85.89 
  13  -4   2   21.30   34.10 
  -4  -9   2  111.79   80.79 
   6 -13  -2  784.92  106.79 
   6 -13  -2  544.25  186.98 
   7   6  -2  919.21  142.09 
   6 -13  -2  791.52  108.59 
  13  -7   2  751.22  117.39 
  -6  13   2  684.83   98.79 
  13  -7   2  746.73  100.79 
  -7  -6   2  783.52  103.59 
  -7  -6   2  683.83  125.49 
  13  -7   2  701.53  139.59 
  -6  13   2  844.72  101.29 
  13  -7   2  774.12  103.29 
 -13  10  -2 2598.44  316.77 
  10   3  -2 2428.76  338.57 
   3 -13  -2 2591.24  320.27 
   3 -13  -2 2311.17  394.66 
   3 -13  -2 2550.24  320.37 
  13 -10   2 2405.66  319.47 
  -3  13   2 2464.05  316.67 
  13 -10   2 2441.16  326.47 
  13 -10   2 2568.94  317.57 
  -3  13   2 2596.04  317.47 
  13 -10   2 2149.19  341.17 
   0 -13  -2 1105.89  278.57 
   0 -13  -2 1552.14  203.38 
 -13  13  -2 1507.55  199.58 
  13   0  -2 1566.04  203.88 
  13   0  -2 1357.56  227.98 
  13 -13   2 1384.06  233.08 
  13 -13   2 1784.62  215.78 
  13 -13   2 1548.65  203.48 
   0  13   2 1695.53  237.48 
   0  13   2 1512.35  198.78 
   0  13   2 1718.63  200.58 
  13 -13   2 1643.14  200.38 
  16  -3  -2  758.72  116.89 
  -3 -13  -2  821.42  115.29 
  16  -3  -2  703.83  158.38 
 -13  16  -2  891.91  109.99 
   3  13   2  845.82  110.69 
  13 -16   2  600.44  151.98 
  13 -16   2  936.21  110.39 
   3  13   2  992.80  167.48 
   3  13   2  858.71  117.19 
  13 -16   2  776.52  116.89 
  13 -16   2  881.31  113.09 
  13 -16   2  638.24  126.79 
  19  -6  -2  161.78   45.00 
  19  -6  -2  -99.09   90.29 
 -13  19  -2  190.78   32.20 
   6  13   2  181.68   33.00 
  13 -19   2  223.28   43.40 
   6  13   2  183.18   43.50 
  13 -19   2  205.48  106.29 
   6  13   2   99.59   39.50 
  13 -19   2  153.28   42.90 
 -13  22  -2  -41.00   35.80 
  22  -9  -2   18.90   44.70 
   9  13   2   33.00   35.30 
  13 -22   2  -11.30   35.30 
   9  13   2   20.70   22.00 
 -22   9   2   22.50   21.20 
   9  13   2   26.00   38.90 
  25 -12  -2  -18.80   41.30 
 -13  25  -2   42.90   37.50 
  13 -25   2  -46.50   35.90 
  12  13   2  -58.59   38.00 
 -25  12   2  -16.80   25.10 
 -12  26  -2  -22.00   39.20 
  26 -14  -2   25.50   48.30 
  12 -26   2  -10.30   35.60 
  14  12   2  -40.10   38.90 
 -26  14   2   10.30   21.80 
  -9  23  -2    3.50   38.70 
  23 -14  -2   27.00   41.30 
  14   9   2   30.60   39.30 
   9 -23   2  -25.10   33.60 
 -23  14   2   20.10   21.40 
  -6  20  -2   72.49   24.10 
  -6  20  -2   73.09   39.50 
  20 -14  -2   -7.30   59.59 
  -6  20  -2   72.59   64.29 
  20 -14  -2  111.19   43.90 
 -20  14   2   83.49   25.40 
   6 -20   2   84.99  101.89 
   6 -20   2   45.50   34.60 
  14   6   2  125.69   40.30 
   6 -20   2  102.79   42.80 
  -3  17  -2  464.65   71.09 
  -3  17  -2  540.05   75.99 
  17 -14  -2  492.55   83.49 
  -3  17  -2  703.23   97.09 
  17 -14  -2  552.54  103.69 
   3 -17   2  430.06   77.19 
  14   3   2  461.65   69.59 
   3 -17   2  542.45  125.89 
 -17  14   2  495.65   71.49 
   3 -17   2  523.25   78.59 
  14   3   2  650.53   76.59 
  14 -14  -2  382.26   65.49 
  14 -14  -2  481.45   74.39 
  14 -14  -2  423.06   86.59 
   0  14  -2  277.47   95.19 
   0  14  -2  417.96   58.69 
  14   0   2  421.76   59.49 
   0 -14   2  434.96   67.39 
   0 -14   2  272.67  108.89 
 -14  14   2  430.16   59.99 
  14   0   2  496.35   65.49 
   3  11  -2   -1.10   17.80 
   3  11  -2    7.40   78.89 
  11 -14  -2    2.30   38.40 
  11 -14  -2  -24.60  138.79 
  11 -14  -2   -8.00   32.40 
  14  -3   2   65.39   75.89 
 -11  14   2   11.50   22.90 
  14  -3   2   38.20   34.50 
  14  -3   2    6.30   19.70 
  -3 -11   2   -6.50   29.70 
  -3 -11   2  -23.80   82.99 
   8 -14  -2  362.56   54.19 
   8 -14  -2  245.98   53.39 
   8 -14  -2  210.68  168.58 
   6   8  -2  398.76  101.69 
  14  -6   2  263.47   91.59 
  14  -6   2  305.07   44.60 
  -6  -8   2  323.87   50.29 
  14  -6   2  262.27   52.49 
  -6  -8   2  174.28   85.89 
  -8  14   2  276.07   44.50 
  14  -6   2  271.97   68.19 
   5 -14  -2  664.23   89.29 
   9   5  -2  633.34  139.79 
   5 -14  -2  679.33   89.49 
   5 -14  -2  195.78  170.18 
  -5  14   2  592.74   81.79 
  -5  14   2  598.94   79.69 
  14  -9   2  593.94   85.39 
  14  -9   2  558.24  102.59 
  -9  -5   2  619.14   84.79 
  14  -9   2  519.65  123.79 
  14  -9   2  641.74   82.69 
 -14  12  -2  939.61  114.99 
  12   2  -2  769.62  155.58 
   2 -14  -2  859.61  121.89 
   2 -14  -2  907.01  120.49 
  -2  14   2 1127.19  166.18 
  14 -12   2  826.92  118.89 
  14 -12   2  594.34  150.08 
  -2  14   2  890.61  113.79 
  14 -12   2  879.21  115.89 
  14 -12   2  783.92  134.49 
  -2  14   2  914.51  115.69 
  15  -1  -2   60.99   38.90 
  -1 -14  -2   62.99   33.50 
 -14  15  -2  115.19   24.40 
  15  -1  -2   59.69  107.39 
   1  14   2  117.29   25.30 
  14 -15   2   89.79   34.00 
   1  14   2   88.69   45.90 
  14 -15   2  112.99   59.39 
  14 -15   2   94.59   91.79 
   1  14   2  176.58  107.59 
  14 -15   2  111.19   26.20 
  18  -4  -2  230.48  108.59 
  -4 -14  -2   77.49   34.00 
 -14  18  -2   73.09   24.00 
  18  -4  -2   62.09   38.30 
   4  14   2   82.69   35.80 
   4  14   2  132.09   99.79 
  14 -18   2   62.79   60.49 
   4  14   2  129.09   26.00 
  14 -18   2   63.49   39.90 
   4  14   2   97.99   39.50 
  14 -18   2   77.59   23.10 
  14 -18   2    0.40  100.29 
 -14  21  -2   77.39   37.00 
 -14  21  -2   12.50   18.80 
  21  -7  -2   31.90   38.10 
  14 -21   2   61.49   96.99 
   7  14   2    8.30   23.30 
   7  14   2   37.50   37.60 
   7  14   2   15.70   35.00 
  14 -21   2    2.70   30.50 
  24 -10  -2   22.40   41.40 
 -14  24  -2   69.39   37.80 
 -24  10   2    7.50   21.40 
  14 -24   2   19.20   36.60 
  10  14   2   33.40   38.00 
  10  14   2   -3.50   39.00 
  27 -13  -2    6.20   47.50 
 -14  27  -2   63.49   39.50 
 -27  13   2    6.10   26.00 
  13  14   2   23.00   40.00 
  14 -27   2    4.00   34.50 
 -13  28  -2   89.29   47.00 
  15  13   2 -100.49   38.70 
 -10  25  -2  -13.70   44.80 
  25 -15  -2   15.90   42.80 
  10 -25   2   -1.30   36.10 
  15  10   2   26.20   40.40 
 -25  15   2   15.80   22.20 
  -7  22  -2  -39.10   62.79 
  -7  22  -2   72.89   39.80 
  22 -15  -2   19.80   42.50 
  15   7   2   42.00   37.50 
 -22  15   2   71.29   24.00 
   7 -22   2   49.70   35.40 
  19 -15  -2   90.59   63.69 
  -4  19  -2  104.39   39.50 
  19 -15  -2  103.39   46.50 
  -4  19  -2   85.49   60.99 
  -4  19  -2  153.88   27.90 
 -19  15   2  117.79   28.20 
  15   4   2   66.99   38.50 
   4 -19   2  155.18  102.09 
   4 -19   2   74.79   39.30 
   4 -19   2  143.69   39.60 
  16 -15  -2  636.84   91.39 
  16 -15  -2  552.24   86.19 
  16 -15  -2  548.65  105.69 
  -1  16  -2  541.15   87.99 
  -1  16  -2  649.64   80.69 
  -1  16  -2  472.25  118.19 
  -1  16  -2  576.84  100.29 
 -16  15   2  612.24   82.09 
   1 -16   2  573.34   86.39 
  15   1   2  721.93   80.99 
   1 -16   2  479.95   86.99 
  15   1   2  586.44   85.49 
   1 -16   2  492.25  127.79 
  13 -15  -2  162.78   45.70 
  13 -15  -2  -37.20  135.49 
   2  13  -2   45.80   80.99 
  13 -15  -2  210.08   40.80 
   2  13  -2  -21.10   61.09 
   2  13  -2  158.48   27.80 
  15  -2   2  100.29   40.70 
  15  -2   2  141.09   28.10 
 -13  15   2  148.49   30.00 
  15  -2   2  170.58   41.70 
  -2 -13   2   -5.40   83.59 
  -2 -13   2  126.39   37.50 
  10 -15  -2   38.30   40.90 
  10 -15  -2  116.39  137.99 
   5  10  -2   46.30   88.89 
  10 -15  -2   86.69   38.50 
   5  10  -2  168.78   25.30 
  15  -5   2  102.99   26.40 
  15  -5   2   96.19   56.99 
  15  -5   2   90.89   36.90 
 -10  15   2  116.99   26.40 
  -5 -10   2  114.69   80.79 
  -5 -10   2  125.69   35.20 
   8   7  -2  -37.60   91.39 
   7 -15  -2   19.30   34.20 
   7 -15  -2  -89.09   32.10 
   7 -15  -2  -34.10  160.28 
   7 -15  -2 -174.48   85.39 
  -7  15   2   10.70   20.00 
  15  -8   2   14.00   21.40 
  15  -8   2    0.60   75.09 
  15  -8   2  -15.80   27.80 
  15  -8   2    4.40   59.99 
  -8  -7   2  -15.50   26.70 
   4 -15  -2  106.79   44.60 
   4 -15  -2   79.19   37.40 
 -15  11  -2  126.59   23.70 
  11   4  -2  180.78   97.79 
   4 -15  -2  144.79   90.99 
  15 -11   2  113.59   70.79 
 -11  -4   2  111.79   33.10 
  -4  15   2  107.99   26.00 
  -4  15   2   96.89   21.60 
  15 -11   2  127.69   27.40 
  15 -11   2  222.18   92.99 
  15 -11   2  114.99   34.40 
   1 -15  -2   85.39   43.70 
 -15  14  -2   86.09   21.40 
  14   1  -2  165.88   96.49 
   1 -15  -2   60.09   34.10 
  15 -14   2   54.29   36.50 
  -1  15   2   53.09   44.80 
  15 -14   2   47.60   89.19 
  -1  15   2   36.60  104.89 
  -1  15   2   87.29   22.80 
  15 -14   2  100.09   24.30 
 -14  -1   2  -60.59   23.70 
  15 -14   2  -17.80   65.59 
  -2 -15  -2  141.99   38.30 
  17  -2  -2   76.49   96.69 
 -15  17  -2  166.58   29.90 
  17  -2  -2  102.19   43.30 
  15 -17   2  190.78   71.99 
  15 -17   2  175.18   33.10 
   2  15   2  196.88   36.60 
  15 -17   2  127.89   97.79 
  15 -17   2  158.28   42.90 
   2  15   2  133.89   44.80 
   2  15   2  127.79   99.09 
   2  15   2  173.58   31.70 
  20  -5  -2   80.19  114.99 
 -15  20  -2  -15.20   20.00 
  20  -5  -2   56.49   40.10 
  -5 -15  -2   55.39   28.20 
  15 -20   2   -4.70   39.10 
  15 -20   2   82.99   68.69 
  15 -20   2   80.29   97.09 
   5  15   2   36.30   36.10 
   5  15   2  -14.60   30.80 
   5  15   2   21.80   21.80 
 -15  23  -2   68.89   37.30 
  23  -8  -2   80.39   43.40 
   8  15   2   10.80   21.50 
 -23   8   2   -6.60   24.00 
   8  15   2   30.40   35.20 
   8  15   2   45.20   36.20 
 -15  26  -2   27.60   36.90 
  26 -11  -2   41.90   43.50 
 -26  11   2   55.29   26.50 
  11  15   2    9.20   41.00 
  11  15   2  -25.80   37.00 
  15 -26   2  -39.90   33.00 
  27 -16  -2   33.60   44.30 
 -11  27  -2  -36.00   41.70 
  11 -27   2   -7.70   38.20 
  16  11   2   60.59   39.40 
 -27  16   2  -21.50   22.10 
  24 -16  -2   91.09   44.50 
  -8  24  -2   60.19   40.40 
   8 -24   2   -5.90   38.50 
 -24  16   2   53.39   24.40 
  16   8   2   -0.10   39.80 
  21 -16  -2   37.70   44.10 
  -5  21  -2  143.69   68.79 
  -5  21  -2   75.49   41.30 
   5 -21   2  135.19   38.10 
  16   5   2   81.39   38.60 
 -21  16   2   29.00   23.20 
  -2  18  -2  324.67   52.29 
  -2  18  -2  270.37   77.89 
  18 -16  -2  399.56   66.79 
  -2  18  -2  416.26   61.79 
  18 -16  -2  362.66   92.89 
   2 -18   2  342.27   62.29 
   2 -18   2  266.67  109.59 
  16   2   2  400.66   59.09 
 -18  16   2  361.76   53.49 
  16   2   2  354.56   51.09 
   2 -18   2  333.97   62.49 
   1  15  -2  686.03   93.89 
   1  15  -2  431.56  126.29 
  15 -16  -2  660.03   98.99 
  15 -16  -2  623.24   94.09 
   1  15  -2  659.33  106.79 
   1  15  -2  648.34   87.89 
  16  -1   2  616.84   87.99 
  -1 -15   2  368.76  127.89 
  16  -1   2  776.32   93.99 
 -15  16   2  711.33   89.79 
  -1 -15   2  726.83   97.89 
  12 -16  -2  566.04   77.09 
   4  12  -2  452.35   61.09 
  12 -16  -2  501.15   71.19 
  12 -16  -2  232.18  165.88 
   4  12  -2  472.05   83.29 
   4  12  -2  481.75  109.49 
 -12  16   2  391.06   76.29 
  16  -4   2  439.16   65.69 
  16  -4   2  322.77   81.39 
  -4 -12   2  430.86   66.79 
 -12  16   2  388.46   59.99 
  16  -4   2  433.96   69.99 
  -4 -12   2  200.68   99.19 
  16  -4   2  399.46   59.59 
   9 -16  -2  -18.90   35.30 
   9 -16  -2  -12.20   86.89 
   9 -16  -2 -245.28  156.38 
   7   9  -2  -51.19   88.79 
   9 -16  -2   13.00   37.80 
  -7  -9   2   13.50   68.09 
  -7  -9   2   35.10   31.70 
  16  -7   2  -35.40   33.10 
  -9  16   2   11.50   19.80 
  16  -7   2   -0.10   20.90 
  16  -7   2 -108.99   54.79 
   6 -16  -2   95.59   96.29 
   6 -16  -2  239.88   49.80 
   6 -16  -2  333.97   55.29 
  10   6  -2  304.57  111.89 
  -6  16   2  207.88   54.69 
  -6  16   2  255.17   40.80 
  16 -10   2  103.69   80.59 
  16 -10   2  208.08   39.70 
  16 -10   2  199.98   69.59 
  16 -10   2  223.78   47.80 
 -10  -6   2  312.97   47.40 
  -6  16   2  246.88   36.10 
   3 -16  -2  443.46  142.39 
   3 -16  -2  866.91  114.99 
  13   3  -2  602.24  147.59 
 -16  13  -2  927.01  106.29 
   3 -16  -2  870.31  115.89 
  -3  16   2  905.61  107.49 
  16 -13   2  752.02  113.49 
  16 -13   2  545.05  125.89 
  16 -13   2  509.85  141.39 
 -13  -3   2  852.21  109.39 
  16 -13   2  834.82  107.69 
  -3  16   2  779.62  112.89 
  16   0  -2  307.77  107.99 
   0 -16  -2  216.98   49.90 
 -16  16  -2  282.37   41.20 
   0 -16  -2  244.88   54.59 
  16   0  -2  278.97   53.89 
  16 -16   2  212.58   76.99 
   0  16   2  351.76   43.90 
  16 -16   2  177.98  100.69 
  16 -16   2  251.97   49.99 
   0  16   2  340.27  114.99 
   0  16   2  217.38   43.70 
  16 -16   2  258.27   42.40 
   0  16   2  265.07   53.89 
  19  -3  -2  120.39   42.60 
  -3 -16  -2  145.39   39.80 
 -16  19  -2  153.78   28.10 
  19  -3  -2   -8.60   97.59 
  16 -19   2  176.58   43.50 
   3  16   2   86.49   46.30 
  16 -19   2   44.70   96.99 
  16 -19   2  178.78   67.99 
   3  16   2  150.08   29.40 
  16 -19   2  110.79   27.50 
   3  16   2   79.59   34.60 
   3  16   2  164.68  117.29 
 -16  22  -2   43.20   39.10 
  22  -6  -2   37.00   41.40 
   6  16   2    7.90   20.90 
   6  16   2    0.60   40.80 
   6  16   2  -39.40   36.30 
  25  -9  -2   11.60   42.80 
 -16  25  -2   -3.20   35.20 
 -25   9   2   -4.70   21.10 
   9  16   2   -9.40   39.30 
   9  16   2    2.40   35.10 
 -16  28  -2   -7.50   38.90 
  12  16   2   18.60   43.10 
  -9  26  -2   20.70   40.60 
  26 -17  -2   31.30   43.50 
  17   9   2   10.30   36.50 
 -26  17   2    6.40   23.20 
   9 -26   2  -16.10   36.40 
  -6  23  -2  341.27   82.99 
  -6  23  -2  398.56   64.39 
  23 -17  -2  255.07   66.79 
  17   6   2  401.76   61.99 
 -23  17   2  315.27   54.39 
   6 -23   2  410.06   66.09 
  -3  20  -2  987.50  124.89 
  20 -17  -2  946.61  135.69 
  -3  20  -2  938.11  131.29 
  -3  20  -2 1024.80  140.99 
  17   3   2  955.90  129.39 
   3 -20   2  649.04  165.38 
   3 -20   2  948.61  130.99 
  17 -17  -2 2447.96  351.96 
  17 -17  -2 2815.92  345.97 
  17 -17  -2 2726.13  344.07 
   0  17  -2 2607.34  342.77 
   0  17  -2 2583.04  350.66 
   0  17  -2 3023.00  341.27 
 -17  17   2 2706.03  341.47 
  17   0   2 2570.14  342.17 
  17   0   2 2766.72  340.77 
   0 -17   2 2713.83  344.17 
   0 -17   2 2135.49  363.76 
   0 -17   2 2681.53  344.67 
   3  14  -2  628.04   81.99 
   3  14  -2  531.85   74.79 
   3  14  -2  725.43  119.29 
  14 -17  -2  575.04   87.59 
  14 -17  -2  485.65   81.39 
   3  14  -2  693.53   96.99 
  17  -3   2  522.55   80.69 
  17  -3   2  496.95   95.39 
  -3 -14   2  564.34   81.99 
  17  -3   2  549.05   75.59 
  17  -3   2  508.35   83.19 
  -3 -14   2  613.14  119.49 
 -14  17   2  469.55   75.99 
  11 -17  -2   59.39   36.50 
   6  11  -2   84.19   97.89 
  11 -17  -2   87.09   42.20 
   6  11  -2  147.49   62.09 
 -11  17   2    9.80   24.80 
  17  -6   2   71.69   24.40 
  -6 -11   2  155.08   76.49 
 -11  17   2  114.29   47.10 
  17  -6   2   68.49   32.90 
  17  -6   2   86.59   40.20 
  17  -6   2   17.60   58.49 
  -6 -11   2   49.20   32.00 
   8 -17  -2    6.50   92.39 
   9   8  -2  -52.69   88.19 
   9   8  -2 -113.69   56.39 
   8 -17  -2  -12.30   37.30 
 -17   9  -2   -3.00   16.00 
   8 -17  -2  -30.20   34.40 
  17  -9   2   -7.40   21.60 
  -9  -8   2  -21.80   26.30 
  -8  17   2  -84.49   42.20 
  -8  17   2   26.30   20.90 
  17  -9   2  -10.00   34.30 
  -8  17   2   31.70   15.00 
  17  -9   2   -6.50   58.69 
  12   5  -2   90.79   96.39 
   5 -17  -2   22.90   37.50 
   5 -17  -2   16.70   96.99 
 -17  12  -2   59.79   21.00 
   5 -17  -2   93.89   40.90 
  -5  17   2    9.00   43.10 
  -5  17   2  120.79   19.90 
  -5  17   2   87.49   26.70 
  17 -12   2  136.19   26.80 
  17 -12   2   27.70   62.79 
  17 -12   2  101.39   37.60 
 -12  -5   2   66.09   28.60 
 -17  15  -2  193.88   28.60 
  15   2  -2   88.89   96.19 
   2 -17  -2  142.59   41.10 
   2 -17  -2   74.39   45.60 
  -2  17   2   32.90   44.10 
  -2  17   2  117.49  107.79 
  17 -15   2   88.19   88.09 
  17 -15   2  160.78   30.20 
  17 -15   2  182.68   64.39 
  -2  17   2  131.49   30.10 
  17 -15   2  159.28   42.90 
 -17  18  -2   -9.50   20.60 
  18  -1  -2  -37.00   35.90 
  18  -1  -2   94.19   98.59 
  -1 -17  -2   55.69   33.00 
   1  17   2  -46.30   36.90 
  17 -18   2   82.29   97.59 
  17 -18   2   25.40   21.40 
   1  17   2  -30.20  108.59 
   1  17   2   -2.80   19.90 
  17 -18   2   83.29   62.19 
   1  17   2  -58.59   27.10 
  17 -18   2  -29.20   31.30 
  -4 -17  -2   -2.20   31.50 
 -17  21  -2  -37.10   19.60 
  21  -4  -2   11.10   38.90 
   4  17   2  -30.70   35.70 
   4  17   2   -8.10   20.30 
   4  17   2  -58.49   30.40 
  17 -21   2   78.29   92.99 
 -17  24  -2   20.00   40.80 
  24  -7  -2  131.99   45.50 
   7  17   2   54.19   33.80 
   7  17   2   50.39   27.20 
   7  17   2   52.59   39.90 
 -17  27  -2   64.49   43.20 
  27 -10  -2  183.78   55.79 
 -27  10   2   40.50   25.10 
  10  17   2  103.59   38.40 
  10  17   2   83.09   41.70 
 -10  28  -2    8.40   45.20 
  18  10   2   29.30   39.60 
  25 -18  -2   85.19   46.70 
  -7  25  -2  -28.30   42.70 
  -7  25  -2   21.60   60.49 
   7 -25   2  -87.69   36.10 
 -25  18   2   -2.30   22.00 
  18   7   2    4.10   37.40 
  -4  22  -2  243.78   74.49 
  22 -18  -2  268.47   63.69 
  -4  22  -2  372.36   59.89 
  18   4   2  382.56   56.19 
   4 -22   2  256.77   57.59 
 -22  18   2  271.07   48.60 
  -1  19  -2  684.53  103.79 
  -1  19  -2  755.52   89.79 
  19 -18  -2  426.96   93.59 
  -1  19  -2  587.84   81.99 
   1 -19   2  278.27  122.89 
   1 -19   2  595.14   89.49 
   1 -19   2  528.25   89.09 
  18   1   2  563.54   80.99 
 -19  18   2  642.84   83.09 
  18   1   2  695.23   86.99 
   2  16  -2  426.96   65.29 
   2  16  -2  396.16   57.39 
   2  16  -2  533.85  107.69 
  16 -18  -2  365.56   63.79 
   2  16  -2  586.64   90.19 
  16 -18  -2  360.96   70.79 
  18  -2   2  416.76   83.49 
  18  -2   2  378.76   63.59 
  18  -2   2  436.36   57.79 
 -16  18   2  298.37   57.09 
  -2 -16   2  313.57   63.89 
  -2 -16   2  358.16  104.79 
   5  13  -2   26.00   59.99 
   5  13  -2    6.20   20.80 
  13 -18  -2   22.20   34.40 
  13 -18  -2   -3.60   44.40 
   5  13  -2   49.10   36.30 
   5  13  -2  -60.29   76.59 
 -13  18   2   31.50   22.00 
  18  -5   2   25.50   21.50 
  -5 -13   2   22.00   31.20 
  18  -5   2    4.20   32.20 
 -13  18   2   -2.00   46.30 
  -5 -13   2   63.29   74.19 
  18  -5   2    5.90   35.80 
  18  -5   2  -39.10   62.49 
   8  10  -2    3.10   34.80 
  10 -18  -2  -40.10   91.29 
   8  10  -2  119.99   90.69 
   8  10  -2  -41.60   58.59 
  10 -18  -2    4.40   36.70 
  10 -18  -2    4.90   42.10 
  -8 -10   2   -9.90   27.40 
  18  -8   2  -13.50   21.30 
 -10  18   2   24.00   21.60 
 -10  18   2  -28.80   42.70 
  18  -8   2   -8.30   35.20 
  18  -8   2   16.30   61.09 
 -18  11  -2   44.50   20.50 
  11   7  -2   47.00   90.59 
   7 -18  -2   66.29   96.29 
   7 -18  -2   -7.20   39.20 
   7 -18  -2   78.89   37.80 
  11   7  -2   76.09   62.79 
  18 -11   2   31.60   62.99 
  -7  18   2    6.40   43.60 
  18 -11   2   31.00   35.20 
  -7  18   2   56.89   17.40 
  18 -11   2   46.30   23.90 
  -7  18   2   52.19   23.10 
 -11  -7   2   75.79   27.40 
  14   4  -2   20.30  104.29 
   4 -18  -2  125.49   43.80 
 -18  14  -2  121.39   26.50 
   4 -18  -2  -14.00   95.89 
  14   4  -2  250.57   64.49 
   4 -18  -2  122.39   40.70 
  18 -14   2   88.69   27.90 
  18 -14   2   98.39   36.50 
  -4  18   2   85.89   26.40 
  18 -14   2  209.08   66.19 
 -14  -4   2  109.09   31.70 
  -4  18   2  102.69   49.70 
   1 -18  -2    9.10   41.10 
   1 -18  -2    1.80   33.20 
  17   1  -2   91.69   95.39 
 -18  17  -2   -2.30   17.20 
  -1  18   2    3.50   29.00 
  -1  18   2    9.50   38.90 
  -1  18   2  -66.29  101.09 
  -1  18   2  -33.60   18.80 
  18 -17   2   75.09   63.89 
  18 -17   2   14.80   22.60 
  18 -17   2   -1.60   34.00 
  -2 -18  -2   44.50   32.40 
  20  -2  -2   14.90   38.30 
 -18  20  -2  -11.90   21.70 
  20  -2  -2  -29.90  107.19 
  18 -20   2  -17.20   20.40 
  18 -20   2    0.80   34.90 
   2  18   2   17.90   41.90 
   2  18   2   44.20   29.60 
   2  18   2   42.20   21.70 
 -18  23  -2  -58.49   36.90 
  23  -5  -2  -11.00   41.50 
   5  18   2   26.10   22.30 
   5  18   2  -40.50   40.00 
   5  18   2   25.90   32.70 
  26  -8  -2  -12.00   43.20 
 -18  26  -2   34.30   41.10 
   8  18   2   11.80   40.30 
   8  18   2  -15.20   35.60 
 -26   8   2   63.49   24.30 
   8  18   2   36.10   24.10 
  -8  27  -2   -6.80   43.30 
 -27  19   2   17.90   23.60 
  19   8   2   57.29   43.30 
  -5  24  -2   95.79   45.30 
  -5  24  -2  -47.80   70.19 
  24 -19  -2  136.99   48.80 
  19   5   2  103.69   41.20 
 -24  19   2   91.19   29.00 
   5 -24   2  148.79   47.00 
  21 -19  -2  103.89   49.90 
  -2  21  -2  185.88   73.69 
  -2  21  -2  238.68   49.00 
  19   2   2  170.08   42.20 
 -21  19   2  137.19   31.90 
   2 -21   2   88.89   41.40 
  18 -19  -2  508.85   91.19 
   1  18  -2  677.53   93.69 
   1  18  -2  768.92   87.79 
  18 -19  -2  693.43  103.99 
   1  18  -2  720.13  113.19 
  -1 -18   2  594.54   95.69 
 -18  19   2  681.73   91.29 
  -1 -18   2  331.17  124.29 
  -1 -18   2  586.14   94.59 
  19  -1   2  656.43   92.49 
  19  -1   2  643.44   86.79 
  15 -19  -2   97.09   37.80 
   4  15  -2   82.19   25.50 
   4  15  -2  178.08   92.49 
   4  15  -2  170.98   63.19 
   4  15  -2   61.89   38.70 
  15 -19  -2   69.59   48.60 
 -15  19   2  116.19   49.50 
  19  -4   2   62.89   37.80 
  -4 -15   2   68.79   37.10 
  -4 -15   2  -52.49   73.19 
  19  -4   2  114.99   67.19 
  19  -4   2   71.19   44.20 
 -15  19   2   97.59   26.90 
  19  -4   2   78.89   25.40 
  12 -19  -2   26.60   36.20 
   7  12  -2  -71.19   90.09 
  12 -19  -2  -40.30   90.39 
   7  12  -2  -65.89   64.19 
  12 -19  -2   16.30   48.30 
   7  12  -2    8.30   34.00 
  -7 -12   2  -17.80   29.80 
 -12  19   2   -1.70   21.40 
  19  -7   2   18.20   30.70 
  19  -7   2  -29.40   33.00 
 -12  19   2   -9.60   44.40 
  19  -7   2  169.78   64.69 
  19  -7   2    6.40   21.50 
  10   9  -2   16.40   98.29 
   9 -19  -2   10.30   37.10 
  10   9  -2   68.69   36.50 
   9 -19  -2  -40.20   39.00 
 -19  10  -2   32.10   19.50 
   9 -19  -2  -20.60   93.89 
  10   9  -2  188.58   63.79 
  -9  19   2   -2.90   22.30 
  19 -10   2   12.80   62.09 
  -9  19   2   59.39   15.70 
  19 -10   2  -23.30   35.80 
  19 -10   2   90.39   24.60 
 -10  -9   2   17.70   27.60 
  -9  19   2  -22.60   42.80 
  13   6  -2  207.08   98.99 
   6 -19  -2  139.49   44.60 
  13   6  -2   85.29   64.59 
   6 -19  -2    2.40   99.79 
   6 -19  -2  165.88   47.40 
 -19  13  -2  185.68   29.40 
  19 -13   2  113.69   42.20 
 -13  -6   2  120.69   34.80 
  -6  19   2  148.89   31.20 
  -6  19   2  239.48   53.39 
  19 -13   2  148.69   32.30 
  19 -13   2  136.29   74.69 
  16   3  -2  140.59  100.69 
   3 -19  -2  173.78   47.20 
   3 -19  -2  153.58   47.10 
 -19  16  -2  138.29   27.90 
   3 -19  -2  -93.19  101.19 
  19 -16   2   57.59   40.70 
  -3  19   2  122.99   49.70 
  -3  19   2  155.88   29.60 
  -3  19   2   98.79  107.29 
  19 -16   2  106.19   29.60 
  19 -16   2  146.89   68.39 
   0 -19  -2  -57.79   45.20 
 -19  19  -2   -6.80   18.60 
   0 -19  -2   59.59   35.30 
  19   0  -2 -108.09  114.79 
  19 -19   2   -1.40   23.80 
   0  19   2   39.10   97.19 
   0  19   2  -24.20   18.90 
   0  19   2  -48.50   37.00 
   0  19   2  -10.90   27.00 
  19 -19   2   50.79   36.20 
  -3 -19  -2   59.59   35.20 
  22  -3  -2   62.09   42.80 
   3  19   2  -99.09   40.10 
   3  19   2  -29.80   30.30 
   3  19   2   -6.10   21.30 
 -19  25  -2   25.40   39.20 
  25  -6  -2  -24.70   47.90 
   6  19   2   20.80   25.00 
   6  19   2  -88.59   31.30 
   6  19   2   36.00   41.10 
 -19  28  -2   -7.90   40.30 
   9  19   2   42.90   36.80 
  -6  26  -2  176.58   51.29 
  -6  26  -2  104.89   67.39 
  26 -20  -2   64.99   50.29 
 -26  20   2  142.29   33.60 
  20   6   2  214.98   45.90 
   6 -26   2  162.18   52.19 
  -3  23  -2 1016.10  131.69 
  23 -20  -2 1098.29  136.69 
  -3  23  -2  918.21  143.09 
  20   3   2  904.91  126.89 
   3 -23   2  912.41  131.49 
 -23  20   2  812.62  123.19 
   0  20  -2 1748.23  212.88 
   0  20  -2 1370.76  221.38 
  20 -20  -2 1596.94  213.88 
   0 -20   2 1590.64  210.98 
 -20  20   2 1649.93  207.18 
  20   0   2 1539.45  208.68 
   3  17  -2 1271.67  155.88 
  17 -20  -2 1004.50  142.59 
   3  17  -2 1097.79  136.09 
   3  17  -2 1072.49  140.99 
  17 -20  -2 1219.18  148.09 
  -3 -17   2 1027.00  141.29 
 -17  20   2  994.30  136.39 
  -3 -17   2  651.93  165.98 
  20  -3   2  942.41  135.99 
  20  -3   2 1059.29  139.99 
   6  14  -2  123.59   26.90 
  14 -20  -2   95.09   50.79 
   6  14  -2   39.70   80.79 
   6  14  -2  116.09   37.50 
  14 -20  -2   76.39   38.40 
   6  14  -2   71.29   62.59 
  -6 -14   2   -3.00   33.60 
  20  -6   2   63.59   25.80 
 -14  20   2   73.79   26.00 
  20  -6   2   60.49   38.80 
 -14  20   2  227.48   52.89 
  20  -6   2  100.69   34.50 
  11 -20  -2   30.10   46.60 
  11 -20  -2  -14.30   36.40 
  11 -20  -2 -132.79   89.89 
   9  11  -2  -21.40   31.80 
   9  11  -2    8.40   66.09 
   9  11  -2  101.09   98.49 
  20  -9   2  -13.40   57.59 
  20  -9   2  -16.80   21.80 
  -9 -11   2  -56.19   31.10 
 -11  20   2    1.60   21.80 
  20  -9   2  -50.49   31.80 
 -11  20   2    1.50   50.29 
  12   8  -2   -9.70   88.89 
  12   8  -2   72.59   56.79 
   8 -20  -2  -85.09   97.39 
   8 -20  -2   58.99   47.80 
 -20  12  -2   90.19   22.60 
   8 -20  -2   59.89   39.40 
  -8  20   2    4.00   49.10 
  -8  20   2   52.49   26.20 
 -12  -8   2   30.10   29.70 
  20 -12   2   48.40   23.40 
  20 -12   2   39.00   37.10 
 -20  15  -2   56.39   20.00 
   5 -20  -2   32.20   37.30 
  15   5  -2   78.89   98.39 
  15   5  -2  -37.10   56.19 
   5 -20  -2   19.80   46.50 
   5 -20  -2   43.90  105.39 
  -5  20   2   22.50   47.70 
  20 -15   2   24.10   37.70 
  20 -15   2   70.49   24.50 
  -5  20   2   30.80   24.40 
   2 -20  -2   39.60   42.80 
 -20  18  -2   18.20   20.60 
  18   2  -2   15.70  116.69 
   2 -20  -2   24.30   36.30 
  -2  20   2   87.09   45.80 
  20 -18   2   10.00   22.20 
  -2  20   2    8.00   20.70 
  -2  20   2 -118.49   95.19 
  20 -18   2   27.40   37.50 
  -1 -20  -2    8.80   33.50 
  -1 -20  -2   61.49   44.70 
   1  20   2   67.29   42.90 
   1  20   2   -9.10   32.50 
   1  20   2    1.70   19.90 
  24  -4  -2   22.20   42.90 
 -20  24  -2   26.10   35.30 
   4  20   2  110.09   43.20 
   4  20   2   72.39   27.80 
   4  20   2   47.30   37.50 
 -20  27  -2   88.19   38.90 
   7  20   2   86.19   41.40 
  25 -21  -2   83.09   49.50 
  -4  25  -2  109.69   46.70 
  -4  25  -2   63.79   71.79 
   4 -25   2   27.80   48.40 
  21   4   2   80.59   41.40 
 -25  21   2   93.79   29.10 
  22 -21  -2  234.98   78.29 
  -1  22  -2  537.65   70.59 
  -1  22  -2  307.17   85.59 
 -22  21   2  417.06   63.09 
   1 -22   2  417.06   71.39 
  21   1   2  411.16   67.39 
   2  19  -2  160.98   45.20 
   2  19  -2  105.49   68.29 
  19 -21  -2  137.49   38.60 
  19 -21  -2  175.08   60.19 
  -2 -19   2   78.69   38.90 
  21  -2   2  116.69   29.30 
 -19  21   2   92.89   32.00 
  21  -2   2  164.28   43.20 
   5  16  -2   21.00   64.29 
   5  16  -2  120.59   87.99 
   5  16  -2   69.09   23.70 
  16 -21  -2   27.60   40.10 
  16 -21  -2  124.99   54.29 
   5  16  -2  108.49   38.60 
  -5 -16   2   76.99   37.20 
  21  -5   2  129.79   36.60 
  21  -5   2   60.99   24.30 
 -16  21   2   75.49   27.20 
  21  -5   2   48.10   44.40 
 -16  21   2   92.09   57.59 
   8  13  -2  -10.50   80.09 
  13 -21  -2  -16.10   35.60 
   8  13  -2  -32.30   67.49 
   8  13  -2   33.00   32.20 
  13 -21  -2   83.29   47.80 
  13 -21  -2 -172.98   90.99 
 -13  21   2  -11.40   21.30 
 -13  21   2  -23.40   46.10 
  21  -8   2   -8.30   22.10 
  -8 -13   2  -58.09   28.60 
  21  -8   2   22.00   31.00 
  21  -8   2   25.90   35.60 
  11  10  -2  -12.60   31.50 
  11  10  -2  -29.20   57.89 
  11  10  -2   54.09   95.89 
  10 -21  -2  -25.60   36.90 
 -21  11  -2   30.10   20.40 
  10 -21  -2   69.49   46.90 
  10 -21  -2 -169.28   97.49 
  21 -11   2   -3.20   20.50 
 -10  21   2    3.30   45.00 
 -11 -10   2  -21.00   26.90 
  21 -11   2   48.80   34.50 
 -10  21   2    1.90   21.40 
   7 -21  -2  -68.49   40.70 
   7 -21  -2  -23.70   35.90 
 -21  14  -2   -5.30   19.00 
  14   7  -2   15.00   60.99 
   7 -21  -2   34.70  106.09 
  14   7  -2   53.79   90.99 
  21 -14   2    6.20   32.00 
  -7  21   2   15.60   20.50 
  -7  21   2  101.29   43.70 
  21 -14   2    9.60   23.00 
   4 -21  -2  -20.70   35.40 
   4 -21  -2  -15.60   42.30 
  17   4  -2  -21.50  103.09 
 -21  17  -2    5.40   20.10 
  -4  21   2   38.30   45.80 
  21 -17   2    3.50   37.80 
  21 -17   2    4.60   22.40 
  -4  21   2   97.39  116.39 
  -4  21   2   10.80   20.70 
   1 -21  -2   16.70   35.00 
 -21  20  -2  -17.00   18.60 
   1 -21  -2    1.20   42.10 
  -1  21   2    3.80   28.20 
  -1  21   2    5.70   98.59 
  -1  21   2   23.70   23.30 
  -1  21   2  -50.69   43.40 
  21 -20   2   30.10   23.40 
  -2 -21  -2 -109.19   40.70 
  -2 -21  -2   -2.40   33.80 
   2  21   2  -20.30   30.00 
   2  21   2   18.10   22.40 
   2  21   2  113.29   42.90 
  26  -5  -2   12.60   45.40 
 -21  26  -2   61.09   40.70 
   5  21   2   33.40   38.10 
   5  21   2   36.00   26.70 
   5  21   2   -3.70   41.40 
  -5  27  -2 -111.99   66.49 
  -5  27  -2   82.99   46.40 
  22   5   2   35.30   41.80 
  -2  24  -2  186.38   52.39 
  24 -22  -2  144.19   57.29 
  -2  24  -2  245.48   78.19 
  22   2   2  249.78   49.10 
   2 -24   2  233.98   56.19 
 -24  22   2  174.98   40.90 
  21 -22  -2  453.05   78.59 
   1  21  -2  219.78   82.69 
   1  21  -2  421.06   66.69 
 -21  22   2  412.86   60.49 
  22  -1   2  399.36   64.99 
  -1 -21   2  290.47   65.49 
  18 -22  -2  335.97   59.59 
  18 -22  -2  315.97   74.79 
   4  18  -2  326.67   59.49 
   4  18  -2  345.87   88.19 
   4  18  -2  372.96   51.79 
 -18  22   2  275.47   51.29 
  22  -4   2  350.96   49.70 
  22  -4   2  323.37   60.49 
 -18  22   2  238.98   68.09 
  -4 -18   2  254.17   57.99 
  15 -22  -2   78.79   50.89 
   7  15  -2   26.90   64.69 
   7  15  -2   93.39   37.70 
   7  15  -2 -106.29   89.99 
  15 -22  -2    5.00   36.20 
  22  -7   2  118.89   40.20 
  22  -7   2   40.80   24.80 
  22  -7   2   10.80   32.40 
 -15  22   2   57.09   48.50 
  -7 -15   2   20.90   35.90 
 -15  22   2   74.49   27.50 
  10  12  -2   -3.50   33.70 
  10  12  -2  -95.79   66.19 
 -22  10  -2  -18.50   16.30 
  12 -22  -2  -66.09  100.49 
  12 -22  -2  -64.49   44.40 
  12 -22  -2    2.30   37.30 
  10  12  -2   -8.00   85.29 
 -12  22   2   25.40   46.40 
  22 -10   2   -1.20   22.00 
 -10 -12   2    5.20   29.00 
 -12  22   2   10.40   23.40 
  22 -10   2  -51.09   33.80 
  13   9  -2   42.30   90.19 
   9 -22  -2   -1.20   35.40 
   9 -22  -2  -30.90   43.00 
  13   9  -2  -32.70   56.39 
 -22  13  -2   -1.60   20.10 
  -9  22   2   32.90   25.20 
  22 -13   2  -17.10   36.10 
  22 -13   2  -41.70   21.60 
  -9  22   2   39.60   51.19 
 -22  16  -2  -18.70   17.40 
   6 -22  -2   19.80   37.30 
  16   6  -2  -18.50   59.29 
  16   6  -2  -37.00   99.89 
   6 -22  -2  -12.00   42.60 
  22 -16   2   14.80   37.50 
  -6  22   2   26.20   42.70 
  22 -16   2   23.20   22.80 
  -6  22   2  -11.50   23.20 
   3 -22  -2   -2.80   36.50 
   3 -22  -2   65.39   44.50 
 -22  19  -2  -33.60   19.80 
  22 -19   2  -15.10   41.90 
  -3  22   2   35.00  100.49 
  22 -19   2  -23.80   21.00 
  -3  22   2   10.30   23.50 
  -3  22   2    4.20   44.90 
   0 -22  -2   89.79   38.60 
   0 -22  -2    2.80   49.70 
   0  22   2   10.20   21.40 
   0  22   2  -22.40   32.50 
   0  22   2   76.69   45.50 
 -22  25  -2   81.39   35.20 
  -3 -22  -2   52.09   52.89 
   3  22   2   30.60   40.10 
   3  22   2   -5.10   25.20 
   3  22   2   21.80   37.00 
  -3  26  -2  197.08   88.39 
  -3  26  -2  379.06   67.69 
  23   3   2  405.96   64.89 
   0  23  -2 1144.99  161.78 
   0  23  -2 1092.99  148.19 
   0 -23   2 1042.00  150.08 
  23   0   2 1032.70  145.99 
  20 -23  -2  807.12  126.09 
   3  20  -2  872.31  131.39 
   3  20  -2  864.21  119.29 
 -20  23   2  874.81  114.29 
  -3 -20   2  824.62  122.29 
  23  -3   2  854.71  117.89 
 -20  23   2  692.23  125.49 
  17 -23  -2  403.46   75.39 
  17 -23  -2  307.37   61.39 
   6  17  -2  469.35   83.09 
   6  17  -2   24.10  101.49 
   6  17  -2  456.35   61.99 
  23  -6   2  412.56   54.39 
  23  -6   2  206.78   64.79 
 -17  23   2  331.87   53.89 
  -6 -17   2  386.06   61.79 
 -17  23   2  195.18   68.29 
  23  -6   2  314.47   56.59 
   9  14  -2   24.80   71.49 
  14 -23  -2   60.79   37.30 
   9  14  -2  -67.39   39.20 
   9  14  -2   94.09   96.19 
  14 -23  -2  -40.80   51.49 
 -14  23   2   14.90   23.50 
  23  -9   2   89.59   39.50 
  -9 -14   2    9.70   34.90 
 -14  23   2   61.29   49.70 
  23  -9   2    4.50   23.10 
  12  11  -2  -91.19   98.39 
  12  11  -2  -24.60   59.19 
  12  11  -2  -60.59   35.90 
  11 -23  -2   19.50   49.40 
  11 -23  -2  -52.19   36.00 
 -23  12  -2   34.00   21.20 
  23 -12   2  -34.50   37.40 
 -11  23   2  -14.90   22.20 
  23 -12   2   -5.30   23.70 
 -11  23   2   12.30   51.79 
   8 -23  -2   -4.30   44.00 
  15   8  -2    4.00   64.09 
 -23  15  -2   21.50   20.60 
   8 -23  -2  -18.80   42.80 
  15   8  -2   24.70  103.39 
  23 -15   2   60.29   39.60 
  23 -15   2  -29.70   24.90 
  -8  23   2   42.80   22.90 
  -8  23   2   -1.90   43.20 
   5 -23  -2   86.89   45.50 
   5 -23  -2   51.89   44.20 
 -23  18  -2    9.00   21.10 
  -5  23   2   -3.20   22.10 
  23 -18   2   23.50   26.90 
  23 -18   2   15.30   35.60 
  -5  23   2  -78.09   38.60 
  -5  23   2   66.49  113.79 
   2 -23  -2   18.90   38.90 
   2 -23  -2  -11.50   49.50 
  -2  23   2   19.10   44.60 
  -2  23   2   -8.50   23.20 
  -1 -23  -2   17.00   51.99 
  -1 -23  -2   53.79   38.20 
   1  23   2   71.09   43.90 
   1  23   2   54.39   25.10 
   1  23   2   40.10   32.60 
  -1  25  -2  -64.29   70.29 
  -1  25  -2  109.79   47.10 
  24   1   2   79.09   42.90 
  22 -24  -2  122.69   57.59 
   2  22  -2  141.99   80.19 
   2  22  -2  186.08   50.09 
 -22  24   2  140.69   60.59 
  -2 -22   2  197.08   51.29 
 -22  24   2  210.28   39.90 
  24  -2   2  186.08   47.10 
  19 -24  -2   78.19   60.39 
   5  19  -2  127.39   46.20 
   5  19  -2   97.89   68.99 
  19 -24  -2   78.99   41.80 
  24  -5   2   46.00   26.80 
 -19  24   2  137.19   33.30 
  -5 -19   2  127.79   44.40 
 -19  24   2  142.19   60.59 
  24  -5   2  137.39   43.40 
   8  16  -2  -15.10   64.09 
  16 -24  -2   30.30   41.00 
   8  16  -2  -84.79   86.89 
   8  16  -2   73.19   39.30 
  16 -24  -2  131.79   56.39 
 -16  24   2   38.40   50.39 
  -8 -16   2   68.39   34.40 
  24  -8   2   38.40   27.40 
 -16  24   2   14.40   27.80 
  24  -8   2   35.30   46.80 
  11  13  -2   45.30   70.19 
 -24  11  -2   18.40   21.30 
  13 -24  -2   64.89   50.79 
  11  13  -2 -120.29   91.59 
  11  13  -2   60.29   39.50 
  13 -24  -2   19.40   38.90 
 -13  24   2    1.90   23.80 
 -11 -13   2  -33.70   28.30 
  24 -11   2   -2.50   37.30 
 -13  24   2  -38.80   45.70 
  24 -11   2    3.70   26.70 
 -24  14  -2   27.60   19.70 
  10 -24  -2  -13.10   46.40 
  14  10  -2 -210.28  106.59 
  10 -24  -2   42.30   41.40 
  14  10  -2  187.98   66.29 
  24 -14   2  -25.90   23.00 
 -10  24   2    5.90   22.40 
  24 -14   2   39.80   40.90 
 -10  24   2   -0.60   45.90 
   7 -24  -2   18.40   44.10 
  17   7  -2   16.20   62.99 
   7 -24  -2   75.19   44.40 
 -24  17  -2   40.20   24.20 
  24 -17   2   92.29   38.50 
  24 -17   2   72.19   27.20 
  -7  24   2   52.49   25.90 
  -7  24   2  111.89   45.80 
   4 -24  -2   39.20   50.19 
   4 -24  -2   38.20   40.50 
  -4  24   2   43.80   41.20 
  -4  24   2   60.29   24.40 
  -4  24   2  -22.80  101.09 
   1 -24  -2  -71.79   43.00 
   1 -24  -2   42.90   39.60 
  -1  24   2   -5.80   43.00 
  -1  24   2   -1.80   30.10 
  -1  24   2  -11.90   23.50 
   1  24  -2  207.58   81.99 
   1  24  -2  200.58   51.49 
  25  -1   2  195.58   49.00 
 -24  25   2  156.18   63.49 
   4  21  -2   89.29   46.60 
  21 -25  -2  -18.10   51.29 
   4  21  -2  125.19   67.49 
  25  -4   2  115.69   38.40 
 -21  25   2  102.29   59.69 
  -4 -21   2   30.90   39.40 
 -21  25   2   45.30   28.60 
   7  18  -2  -67.69   73.29 
  18 -25  -2   31.20   41.30 
   7  18  -2  -41.50   37.40 
  18 -25  -2  -52.69   51.09 
 -18  25   2   38.30   52.59 
  -7 -18   2   41.40   33.90 
  25  -7   2   58.39   48.60 
 -18  25   2    1.60   24.60 
  25  -7   2   47.20   33.10 
  25  -7   2   41.30   26.80 
  15 -25  -2   13.70   38.50 
  15 -25  -2   56.79   53.09 
  10  15  -2  -34.90   62.39 
  10  15  -2 -253.27  103.09 
  10  15  -2  -42.30   39.20 
 -25  10  -2  -17.20   17.80 
 -10 -15   2   18.70   35.40 
  25 -10   2   -1.30   26.10 
 -15  25   2  -46.50   54.09 
  25 -10   2  -27.80   37.40 
 -15  25   2  -19.00   23.70 
  12 -25  -2    7.00   45.80 
  13  12  -2   -6.80   67.09 
  13  12  -2   19.00  102.09 
 -25  13  -2   21.60   20.30 
  12 -25  -2   72.69   57.29 
  13  12  -2   15.30   33.90 
  25 -13   2    6.80   40.10 
 -12  25   2   -2.90   23.00 
 -12  25   2   87.09   55.09 
  25 -13   2  -43.10   22.00 
  16   9  -2   28.70   57.39 
 -25  16  -2   -8.60   21.00 
   9 -25  -2   59.09   43.90 
   9 -25  -2  -35.70   45.90 
  25 -16   2   -8.00   27.40 
  -9  25   2   -6.50   24.50 
  -9  25   2   15.30   44.40 
  25 -16   2   60.29   42.40 
   6 -25  -2   92.79   44.70 
   6 -25  -2   17.00   51.79 
  -6  25   2   26.30   23.30 
  -6  25   2  -41.70  114.79 
  -6  25   2   -7.20   41.20 
   3 -25  -2   28.40   51.19 
   3 -25  -2   55.19   46.60 
  -3  25   2    6.30   44.70 
  -3  25   2    6.90   21.70 
   0  25   2   12.60   31.90 
   0  25   2   34.50   38.40 
   3  23  -2  310.37   82.99 
   3  23  -2  347.57   62.69 
  26  -3   2  367.86   61.69 
 -23  26   2  190.78   77.99 
  20 -26  -2  123.99   46.90 
   6  20  -2  169.08   80.19 
  20 -26  -2  139.09   62.19 
   6  20  -2  233.48   51.59 
  26  -6   2  180.88   35.10 
 -20  26   2  122.69   62.89 
  26  -6   2  178.18   45.70 
  -6 -20   2  145.99   49.60 
 -20  26   2  174.48   39.40 
   9  17  -2  163.78   75.59 
  17 -26  -2  -34.40   52.39 
   9  17  -2  -23.70   35.00 
  17 -26  -2   46.30   42.50 
 -17  26   2   40.20   57.29 
  -9 -17   2  -25.60   35.50 
  26  -9   2  -22.40   40.90 
  26  -9   2   36.20   23.40 
 -17  26   2  -20.00   28.30 
 -26  12  -2   65.59   22.50 
  14 -26  -2   83.79   40.10 
  12  14  -2  -22.90   34.60 
  12  14  -2   30.80   63.89 
  14 -26  -2   54.79   52.39 
  26 -12   2   -0.70   37.90 
  26 -12   2    5.20   23.80 
 -14  26   2  -80.09   52.49 
 -14  26   2   -3.70   27.20 
  11 -26  -2  -10.00   46.20 
  11 -26  -2    3.70   51.19 
  15  11  -2   -0.40   66.29 
 -26  15  -2   53.19   21.60 
 -11  26   2   82.89   47.40 
  26 -15   2   27.00   38.30 
 -11  26   2   48.30   24.90 
  26 -15   2   34.70   25.70 
   8 -26  -2  -20.70   45.80 
   8 -26  -2   95.59   44.50 
  18   8  -2   72.69   62.09 
  -8  26   2   15.30   47.70 
  -8  26   2  -13.60   21.40 
   5 -26  -2   50.99   51.29 
  -5  26   2  -17.30   40.30 
  -5  26   2    3.70   25.10 
  -5  26   2    5.10  102.79 
   5  22  -2   64.09   46.20 
   5  22  -2   51.19   76.19 
 -22  27   2   30.20   54.59 
  27  -5   2   30.50   39.50 
   8  19  -2   -1.30   66.69 
   8  19  -2   86.09   39.70 
  19 -27  -2   -2.30   36.90 
  27  -8   2   15.30   23.50 
  -8 -19   2  -48.50   37.50 
  27  -8   2  -22.30   40.50 
 -19  27   2   65.09   53.19 
  11  16  -2   87.19   70.39 
  16 -27  -2  -45.90   35.90 
  16 -27  -2  -60.09   58.69 
  11  16  -2  -35.20   35.50 
 -27  11  -2   10.70   20.20 
 -16  27   2   44.10   26.60 
  27 -11   2  -25.30   23.30 
 -16  27   2   41.00   57.19 
  27 -11   2   14.20   39.70 
  13 -27  -2   22.10   52.19 
  14  13  -2   22.00   34.20 
 -27  14  -2   40.80   22.30 
  13 -27  -2   55.79   42.20 
  14  13  -2   93.19   61.99 
 -13  27   2   70.59   25.80 
  27 -14   2    1.10   27.30 
 -13  27   2   -3.70   47.40 
  27 -14   2    4.80   44.00 
  17  10  -2  123.89   67.89 
  10 -27  -2   26.70   52.39 
  10 -27  -2  113.49   47.10 
 -10  27   2   79.09   27.80 
 -10  27   2  104.29   52.59 
  -7  27   2   99.29  116.19 
  -7  27   2  -11.10   46.90 
  10  18  -2   30.00   70.99 
  10  18  -2  -58.09   40.50 
 -18  28   2  -66.59   56.89 
 -28  13  -2    3.80   20.80 
  13  15  -2  -75.09   69.99 
  13  15  -2   53.19   39.40 
 -15  28   2   30.40   56.29 
  16  12  -2    7.40   63.19 
 -12  28   2   48.00   53.89 
  -9  28   2  -24.90   48.30 
  -9  28   2   45.00  107.09 
   0   0  -3  -53.49  145.99 
   0   0   3  -78.99  104.19 
   0   0   3   23.90   19.50 
  -1   2  -3 -100.69  141.29 
  -1  -1  -3  153.08  135.09 
  -1   2  -3  120.39   97.09 
   2  -1  -3  -47.30   91.39 
   2  -1  -3   44.30  141.99 
   1  -2   3   -4.90   18.10 
   1   1   3  -17.10   19.00 
   1  -2   3  130.69  103.49 
  -2   1   3  -24.00   18.20 
   1  -2  -3   -0.20  145.29 
   1   1  -3  -42.10   91.09 
  -2   1  -3   -9.20  133.29 
   1   1  -3   60.49  147.09 
   2  -1   3   54.59  106.89 
   2  -1   3  -49.60   17.30 
  -1   2   3  -38.20   18.60 
  -1  -1   3   -2.20   18.70 
  -1  -1   3  103.19  105.29 
  -2   4  -3  709.53  172.58 
   4  -2  -3  796.92  176.18 
   4  -2  -3  892.21  144.09 
  -2  -2  -3  609.24  180.78 
  -2   4  -3  887.01  149.59 
  -4   2   3  776.02  103.59 
   2   2   3  803.82  103.99 
   2   2   3  651.03  146.89 
   2  -4   3  787.92  103.19 
   2  -4   3  934.51  151.98 
   3  -3  -3  920.41  149.09 
   0   3  -3  898.71  188.78 
   0   3  -3  885.51  150.58 
  -3   0  -3  769.62  199.78 
   3  -3  -3 1047.70  201.58 
   0  -3   3  802.52  107.49 
   3   0   3  742.83  107.69 
   0  -3   3  940.01  156.78 
   3   0   3 1009.00  152.48 
  -3   3   3  795.32  107.99 
   3   0  -3  682.23  120.19 
  -3   3  -3  589.94  167.38 
   3   0  -3  612.84  155.18 
   0  -3  -3  628.44  157.88 
   0   3   3  421.66  125.29 
   3  -3   3  402.16   64.29 
   3  -3   3  650.53  127.39 
   0   3   3  405.76   64.99 
  -3   0   3  663.43  128.99 
  -3   0   3  493.65   65.59 
   6  -3  -3 1006.10  176.78 
  -3  -3  -3  981.30  215.58 
  -3   6  -3 1156.58  182.58 
   6  -3  -3 1012.70  216.48 
  -3   6  -3 1093.69  216.18 
   3   3   3 1205.38  146.69 
  -6   3   3 1130.29  146.79 
   3  -6   3 1138.49  145.99 
   3   3   3 1467.15  189.38 
   3  -6   3  982.00  185.48 
  -1   5  -3  133.09   99.49 
  -4  -1  -3  125.39  137.09 
   5  -4  -3  148.19  143.19 
   5  -4  -3  142.29   88.39 
  -1   5  -3   99.39  136.39 
   1  -5   3  122.69   22.00 
   4   1   3   45.40  100.69 
  -5   4   3   67.99   23.90 
   4   1   3   73.39   23.60 
   1  -5   3   96.29  103.99 
   2   2  -3  643.34  168.08 
   2   2  -3  814.02  145.99 
  -4   2  -3  760.02  185.18 
   2  -4  -3  702.63  191.78 
  -2   4   3  844.32  104.09 
   4  -2   3  762.22  154.58 
  -2  -2   3  820.12  150.88 
  -2   4   3 1030.20  159.88 
  -2  -2   3  802.42  103.29 
   4  -2   3  728.43  103.49 
   5  -1  -3  -22.00  134.99 
  -4   5  -3 -175.78  126.49 
  -1  -4  -3   79.89  148.69 
   5  -1  -3   78.59   91.09 
   4  -5   3   44.00  101.09 
  -5   1   3  -33.50   17.90 
   1   4   3   12.80   19.80 
   1   4   3  123.19  115.89 
   4  -5   3  -37.10   19.50 
  -5   1   3  -23.60   99.49 
   8  -4  -3 -129.59  126.89 
  -4   8  -3   90.99  102.19 
  -4  -4  -3  -57.89  126.99 
   8  -4  -3 -103.69   80.69 
   4   4   3  -43.80  106.19 
  -8   4   3  -28.00   17.70 
   4  -8   3   -5.50   22.90 
   4  -8   3   14.30   18.60 
   4  -8   3    7.30   98.79 
   4   4   3   20.30   19.10 
   7  -5  -3  524.55  123.09 
  -2   7  -3  422.26  130.89 
  -5  -2  -3  488.65  177.28 
   7  -5  -3  295.37  155.48 
  -2   7  -3  534.65  158.68 
  -7   5   3  621.44   80.39 
   2  -7   3  645.44  135.89 
   5   2   3  588.74   79.99 
   5   2   3  684.03  137.69 
   2  -7   3  651.43   79.39 
  -5   1  -3  174.28  137.59 
   4  -5  -3  163.38  100.39 
   1   4  -3  -18.00  114.79 
   4  -5  -3  237.78  146.09 
   1   4  -3  101.59   94.79 
  -4   5   3  268.37  115.99 
  -1  -4   3   79.19  100.99 
  -1  -4   3  111.99   24.90 
   5  -1   3   96.89   25.30 
  -4   5   3  126.29   26.30 
   1  -5  -3   34.10  148.89 
  -5   4  -3   -0.30  121.39 
   4   1  -3  -81.19   98.19 
   4   1  -3 -178.88  121.39 
  -1   5   3   -2.90  120.09 
   5  -4   3   16.80   98.09 
  -1   5   3    6.20   19.40 
  -4  -1   3   23.80   17.80 
  -4  -1   3   67.39   97.59 
   5  -4   3   -2.00   18.50 
   7  -2  -3  645.94  174.58 
  -5   7  -3  847.02  141.79 
  -2  -5  -3  578.64  177.58 
  -5   7  -3  563.44  181.48 
   7  -2  -3  619.44  135.29 
   5  -7   3  751.82   96.89 
   2   5   3  752.82   97.39 
   5  -7   3  775.22  145.99 
   2   5   3  786.72  154.18 
  -7   2   3  764.32   97.49 
  -7   2   3  708.43  141.69 
  -5  10  -3  829.82  156.78 
  -5  -5  -3  685.43  204.58 
  10  -5  -3  614.04  148.59 
  10  -5  -3  767.22  176.08 
   5 -10   3  952.60  121.09 
 -10   5   3  972.90  121.49 
   5   5   3 1028.80  121.49 
   5   5   3  914.71  166.88 
   5 -10   3  751.42  167.28 
   5 -10   3 1014.00  123.79 
  -6  -3  -3  565.64  183.68 
  -3   9  -3  625.84  143.09 
   9  -6  -3  438.76  165.68 
   9  -6  -3  465.35  125.19 
   3  -9   3  777.82   93.89 
   6   3   3  766.92   94.99 
  -9   6   3  707.83   94.69 
   3  -9   3  816.82   97.99 
  -9   6   3  602.04  145.99 
   6   3   3  667.53  143.39 
   3  -9   3  562.74  144.69 
   6  -6  -3  879.21  140.49 
   0   6  -3  696.83  187.98 
   0   6  -3  863.71  149.49 
  -6   0  -3  832.22  200.98 
   6  -6  -3  664.13  172.38 
   0  -6   3  795.72  106.29 
   0  -6   3  910.61  156.68 
  -6   6   3  791.32  107.59 
   6   0   3  849.91  106.59 
  -6   6   3  883.51  155.98 
  -6   3  -3 1082.59  220.38 
   3   3  -3 1102.79  187.78 
   3   3  -3 1046.10  217.88 
   3  -6  -3 1125.89  231.58 
  -3  -3   3 1191.78  192.58 
  -3   6   3 1269.07  155.18 
  -3  -3   3 1211.68  154.18 
   6  -3   3 1198.98  155.08 
   6  -3   3 1213.58  197.48 
  -3   6   3 1347.27  197.28 
   0  -6  -3  210.48  155.68 
   6   0  -3  199.68  129.39 
   6   0  -3  316.67  101.39 
  -6   6  -3  345.47  129.69 
  -6   0   3  240.18   37.60 
  -6   0   3  218.98  101.19 
   6  -6   3  258.27   37.80 
   0   6   3  345.17  124.89 
   6  -6   3  188.38  105.19 
   0   6   3  200.78   38.20 
   9  -3  -3  357.36  150.58 
   9  -3  -3  487.25  127.59 
  -6   9  -3  500.05  122.79 
  -3  -6  -3  568.84  181.88 
   6  -9   3  559.64   78.29 
  -9   3   3  565.54   77.49 
   3   6   3  506.85  140.49 
   6  -9   3  582.44   79.99 
  -9   3   3  455.95  121.99 
   6  -9   3  536.65  131.99 
   6  -9   3  609.84   91.39 
   3   6   3  698.03   79.29 
  -6  12  -3  113.69   96.29 
  12  -6  -3    6.20   84.19 
   6   6   3   95.39  111.49 
   6 -12   3   62.59  101.49 
   6   6   3  145.09   40.50 
   6 -12   3   93.99   32.00 
   6   6   3  109.69   25.20 
   6 -12   3  125.19   24.00 
  11  -7  -3  274.37  120.79 
  -7  -4  -3   74.19  143.69 
  11  -7  -3   14.20   76.29 
  -4  11  -3  151.08   89.49 
   7   4   3  189.48   31.50 
   4 -11   3  179.38   28.80 
   7   4   3  180.98  107.49 
 -11   7   3   56.19   94.39 
   4 -11   3   82.09  103.19 
   4 -11   3  195.48   38.70 
   8  -7  -3   30.50  122.89 
  -7  -1  -3   44.60  147.49 
  -1   8  -3   86.69   99.59 
   8  -7  -3   50.19   86.79 
   1  -8   3   79.39   28.60 
  -8   7   3  -39.30  105.99 
   1  -8   3   76.29   99.19 
   1  -8   3   72.49   19.60 
   7   1   3   62.99   22.80 
  -8   7   3   94.09   23.30 
   2   5  -3  575.64  159.08 
   2   5  -3  693.43  132.39 
  -7   2  -3  550.74  182.18 
   5  -7  -3  447.26  157.78 
   5  -7  -3  640.44  123.39 
  -5   7   3  514.75  142.49 
   7  -2   3  661.33   86.49 
  -2  -5   3  570.14  136.99 
  -2  -5   3  666.43   84.09 
  -5   7   3  686.93   86.29 
   7  -2   3  518.75  141.59 
   2  -7  -3  554.64  173.18 
   5   2  -3  696.83  139.49 
   5   2  -3  549.65  164.88 
  -7   5  -3  586.54  165.08 
   7  -5   3  722.13   97.79 
  -5  -2   3  825.82   97.39 
   7  -5   3  751.52  145.99 
  -2   7   3  869.31  165.88 
  -5  -2   3  650.53  144.49 
  -2   7   3  769.52   97.79 
  -1  -7  -3   17.50  146.89 
   8  -1  -3 -102.29   81.79 
   8  -1  -3   73.79  118.99 
  -7   8  -3   78.99  125.39 
  -8   1   3   33.30   18.50 
   1   7   3  -71.59  115.29 
   7  -8   3   34.40   95.49 
  -8   1   3  -23.30   88.99 
   1   7   3  -12.90   19.20 
   7  -8   3   52.49   24.90 
   7  -8   3   14.00   19.20 
  11  -4  -3  215.38   92.69 
  -7  11  -3  172.18   97.69 
   4   7   3  425.56  120.49 
   7 -11   3  178.58   36.60 
   7 -11   3  164.88  105.19 
   7 -11   3  176.98   31.10 
   4   7   3  156.48   30.70 
  -7  14  -3  438.36   83.69 
  14  -7  -3  160.48   98.79 
  -7  14  -3  287.77  106.19 
   7 -14   3  445.86   62.89 
   7   7   3  394.86   61.49 
   7   7   3  431.76   56.89 
   7   7   3  389.76   65.09 
   7 -14   3  279.47  121.59 
   7   7   3  383.66  124.59 
  -5  13  -3  470.15  124.79 
  -5  13  -3  623.84  105.59 
  13  -8  -3  487.15  123.89 
   5 -13   3  325.17  134.99 
   5 -13   3  727.83   90.59 
   8   5   3  639.34   85.49 
   8   5   3  566.44   88.59 
   8   5   3  664.73   83.09 
   8   5   3  566.54  138.59 
  10  -8  -3  298.17  144.09 
  10  -8  -3  383.36  108.99 
  -2  10  -3  621.04  127.09 
  -8  -2  -3  440.36  159.08 
   2 -10   3  511.05   76.99 
 -10   8   3  481.15  125.29 
   2 -10   3  362.96  127.99 
   8   2   3  697.93   74.39 
   7  -8  -3   58.09   85.09 
   7  -8  -3  172.88  138.19 
   1   7  -3   77.89   92.59 
  -8   1  -3   34.40  129.89 
  -1  -7   3   23.70   99.29 
  -1  -7   3   56.59   17.10 
  -7   8   3   80.99   22.90 
  -7   8   3  -25.20  109.69 
   8  -1   3   66.19   23.40 
   4   4  -3  -47.80   91.09 
  -8   4  -3  -19.20  120.09 
   4  -8  -3  -29.70  137.29 
   4   4  -3   -9.90  126.49 
   8  -4   3    5.20   20.30 
  -4  -4   3   96.79  100.59 
  -4  -4   3   50.89   17.20 
  -4   8   3  -49.00  110.29 
  -4   8   3   -6.10   19.10 
   8  -4   3   99.59   99.59 
  -8   7  -3  133.39  129.99 
   7   1  -3   87.19   89.39 
   1  -8  -3  -37.60  125.99 
   7   1  -3   25.00  111.29 
   8  -7   3   -6.10   19.50 
  -1   8   3  -64.29  126.99 
  -7  -1   3   49.30   18.70 
  -1   8   3   40.50   19.90 
  -7  -1   3    9.20   91.89 
   8  -7   3   89.19   99.69 
   8  -7   3  -14.80   17.40 
  10  -2  -3  430.56  115.99 
  -8  10  -3  435.86  115.19 
  -2  -8  -3  289.27  158.68 
   8 -10   3  548.55   88.89 
   8 -10   3  371.46  123.39 
   8 -10   3  582.14   75.49 
   2   8   3  485.65   70.59 
   2   8   3  688.23  145.39 
 -10   2   3  554.34   71.59 
   8 -10   3  510.65   70.69 
  13  -5  -3  408.36  117.39 
  -8  13  -3  421.76  118.39 
   8 -13   3  558.74   75.49 
   5   8   3  623.24   82.99 
   8 -13   3  593.04   81.89 
   8 -13   3  384.86  130.49 
   5   8   3  388.76  137.09 
   5   8   3  581.84   75.09 
  16  -8  -3  598.34  138.69 
  -8  16  -3  670.53  109.39 
   8 -16   3  380.46  137.99 
   8   8   3  577.04  140.79 
   8   8   3  786.22   93.79 
   8   8   3  588.44   95.69 
   8   8   3  685.83   88.99 
   8 -16   3  716.03   94.89 
  -6  15  -3    9.30   34.80 
  -6  15  -3   87.39   73.29 
  -6  15  -3   26.10   87.79 
   9   6   3   25.00   18.70 
   9   6   3  -35.00   35.10 
   6 -15   3    4.60   99.29 
   9   6   3  -38.80   29.80 
   6 -15   3   -6.90   28.10 
  12  -9  -3  146.89   72.89 
  -3  12  -3    2.90   86.89 
  -3  12  -3   66.99   39.90 
  -3  12  -3   73.19   75.49 
  -9  -3  -3   43.30  140.39 
   9   3   3   89.19   37.80 
   3 -12   3   30.70  100.29 
   9   3   3  132.89   37.30 
   9   3   3   92.69   25.50 
   3 -12   3  186.58   35.80 
 -12   9   3  116.09   94.39 
  -9   0  -3  475.15  180.38 
   9  -9  -3  520.05  114.69 
   0   9  -3  529.75  132.79 
   9  -9  -3  322.57  161.28 
  -9   9   3  779.02   90.59 
   0  -9   3  640.44  141.69 
   9   0   3  733.73   91.99 
   0  -9   3  732.53   94.49 
  -9   9   3  650.43  139.09 
  -9   3  -3  435.96  165.38 
   6  -9  -3  683.83  181.58 
   6  -9  -3  557.34  125.19 
   3   6  -3  592.44  138.69 
  -6   9   3  751.72   93.09 
   9  -3   3  582.74  145.69 
  -6   9   3  397.36  145.79 
  -3  -6   3  737.43   90.79 
  -3  -6   3  655.93  142.29 
   9  -3   3  766.02   93.19 
   6   3  -3  306.57  150.58 
   6   3  -3  564.24  136.09 
  -9   6  -3  451.35  149.29 
   3  -9  -3  426.86  170.88 
  -6  -3   3  437.06  126.19 
   9  -6   3  600.24  131.09 
   9  -6   3  617.04   79.59 
  -3   9   3  549.25   78.49 
  -3   9   3  634.84  141.89 
  -6  -3   3  660.83   76.59 
   0  -9  -3   -4.80   30.80 
   9   0  -3   55.79   99.89 
   9   0  -3   64.39   90.09 
   0   9   3   96.09  128.19 
   9  -9   3   17.80   46.20 
   9  -9   3  -30.90   17.40 
   9  -9   3   -4.80   18.60 
  -9   0   3   -3.20   16.00 
   0   9   3   36.60   19.00 
   9  -9   3    9.80   95.89 
  12  -3  -3   25.00   86.89 
  -9  12  -3   22.70   81.29 
  -3  -9  -3   32.70   28.00 
   3   9   3  152.38  118.99 
   9 -12   3  -30.60   50.39 
   9 -12   3   -3.20   26.90 
   9 -12   3  -93.59   95.09 
   3   9   3   20.00   17.40 
   3   9   3   62.79   43.40 
   9 -12   3   26.90   17.80 
  15  -6  -3  -76.39   85.89 
  -9  15  -3   57.39   67.89 
   6   9   3  -90.49  106.49 
   6   9   3    9.00   19.10 
   9 -15   3  -34.40   24.70 
   6   9   3   -9.80   27.80 
   9 -15   3   95.09  102.09 
   6   9   3   76.19   37.00 
  -9  18  -3  215.78   45.80 
  -9  18  -3  179.18   65.59 
   9   9   3  158.88   45.20 
   9   9   3  168.78   38.80 
   9 -18   3   30.00  105.49 
   9 -18   3  130.69   39.70 
   9   9   3  221.68  104.89 
  -7  17  -3  692.73   99.69 
  -7  17  -3  745.13  114.29 
  10   7   3  680.63   96.79 
  10   7   3  689.33   93.09 
  10   7   3  726.23   99.99 
   7 -17   3  518.55  150.88 
   7 -17   3  748.53  102.19 
  -4  14  -3  202.78   78.59 
  -4  14  -3  246.18   44.60 
  -4  14  -3  132.69   96.99 
  10   4   3  175.88   42.90 
   4 -14   3  133.39   40.30 
  10   4   3  220.58   45.50 
  10   4   3  180.28   33.20 
   4 -14   3  230.28  110.29 
  -1  11  -3  -12.70   87.29 
  -1  11  -3  -67.49   65.89 
 -10  -1  -3   81.39  137.69 
  11 -10  -3   29.30  125.19 
   1 -11   3    9.70   29.00 
   1 -11   3   43.70   99.49 
  10   1   3   15.70   34.30 
  10   1   3    3.70   22.80 
 -10   2  -3  403.86  152.68 
   2   8  -3  577.94  122.89 
   8 -10  -3  173.38  136.59 
   8 -10  -3  327.77   96.09 
  -2  -8   3  497.45  130.59 
  -8  10   3  627.64   70.69 
  10  -2   3  448.26  132.59 
  10  -2   3  539.25   71.69 
  -8  10   3  416.26  127.79 
  -2  -8   3  545.95   75.39 
   5   5  -3  928.21  160.58 
 -10   5  -3  698.53  188.58 
   5 -10  -3  748.23  146.99 
   5 -10  -3  762.22  201.58 
  -5  10   3  923.01  172.58 
  10  -5   3 1056.69  120.89 
  -5  -5   3  870.81  163.98 
  -5  10   3  985.70  119.99 
  10  -5   3  674.33  161.58 
   8   2  -3  638.94  123.69 
   2 -10  -3  571.94   80.29 
 -10   8  -3  369.96  146.19 
  10  -8   3  382.96  126.49 
  10  -8   3  497.15   73.89 
  -8  -2   3  679.03   72.79 
  -2  10   3  749.42  145.89 
  -8  -2   3  345.37  115.89 
  10  -8   3  419.26   88.39 
  -2  10   3  506.65   72.99 
  -1 -10  -3   96.39   39.20 
  11  -1  -3  148.09  107.19 
   1  10   3  172.68   44.90 
  10 -11   3  133.99   27.30 
 -11   1   3   93.79   26.30 
  10 -11   3  178.68  105.99 
   1  10   3  100.89  130.79 
  10 -11   3  165.98   29.80 
   1  10   3  172.98   29.10 
  10 -11   3  127.79   59.09 
 -10  14  -3  346.17   79.99 
  14  -4  -3  260.57  104.99 
  -4 -10  -3  477.15   62.09 
 -10  14  -3  175.98  102.09 
   4  10   3  403.46   53.79 
  10 -14   3  395.16   58.69 
   4  10   3  310.47   62.89 
  10 -14   3  167.78  112.79 
   4  10   3  406.26  129.99 
   4  10   3  310.27   55.99 
  10 -14   3  433.96   54.49 
  17  -7  -3  846.02  159.18 
 -10  17  -3  832.32  126.99 
  10 -17   3  875.31  118.29 
  10 -17   3  514.25  155.48 
   7  10   3  901.31  111.89 
   7  10   3  826.32  116.69 
   7  10   3  871.11  159.88 
   7  10   3  875.81  119.59 
 -10  20  -3   72.29   72.39 
 -10  20  -3  150.48   48.80 
  10 -20   3  217.58   44.40 
  10  10   3  261.57   49.10 
  10  10   3  184.58   40.70 
  -8  19  -3  -30.80   36.90 
  -8  19  -3  -48.40   64.69 
  11   8   3   32.90   40.20 
  11   8   3  -13.30   31.60 
   8 -19   3    9.00   30.90 
  -5  16  -3  229.88   50.19 
  -5  16  -3  154.48   74.09 
   5 -16   3  197.28   48.10 
  11   5   3  301.87   53.09 
  11   5   3  335.57   48.50 
   5 -16   3  286.97  115.89 
  11   5   3  255.17   41.70 
  -2  13  -3  123.39   96.89 
 -11  -2  -3  181.18  154.78 
  -2  13  -3   57.29   39.30 
  -2  13  -3  -31.80   74.89 
   2 -13   3  -79.39   96.89 
  11   2   3  -12.30   20.50 
   2 -13   3   15.00   30.20 
  11   2   3  117.69   36.00 
   1  10  -3  172.88   69.59 
 -11   1  -3   36.70  135.89 
  10 -11  -3  -47.40  123.79 
   1  10  -3   57.29   90.29 
  11  -1   3   33.20  106.59 
 -10  11   3   18.60   19.50 
  -1 -10   3   28.00   28.30 
  11  -1   3   26.30   20.80 
  11  -1   3   20.60   36.00 
  -1 -10   3  116.79  101.69 
 -11   4  -3   36.60  130.69 
   4   7  -3  161.68   97.09 
   7 -11  -3   72.79  139.39 
  -7  11   3  247.58  117.59 
  11  -4   3  184.78   33.30 
  11  -4   3   56.39  103.99 
  -4  -7   3  182.18   37.90 
  -4  -7   3  124.49   98.39 
  -7  11   3  202.48   32.00 
   4 -11  -3  141.49   41.20 
   7   4  -3  149.49   96.59 
 -11   7  -3  183.78  132.29 
  -4  11   3  195.28   32.50 
  -4  11   3  327.67  127.09 
  11  -7   3  181.58   32.10 
  -7  -4   3   78.79   92.49 
  11  -7   3   85.99  100.89 
  10   1  -3  135.49   99.89 
   1 -11  -3   99.99   38.00 
  -1  11   3  183.38   44.60 
  -1  11   3   64.29  120.49 
  -1  11   3  140.79   28.60 
  11 -10   3  111.19   57.39 
 -10  -1   3  156.78   25.20 
  11 -10   3   87.89  100.69 
  11 -10   3  132.29   28.10 
 -11  13  -3   10.30   92.49 
  13  -2  -3   87.39  103.29 
  -2 -11  -3   84.29   33.00 
  11 -13   3   81.79   56.79 
  11 -13   3   97.09  100.49 
  11 -13   3   96.79   27.20 
   2  11   3  137.69   41.10 
  11 -13   3   74.09   23.00 
   2  11   3  190.18  123.69 
   2  11   3  107.09   22.50 
 -11  16  -3  468.35   80.09 
  16  -5  -3  150.38  119.59 
   5  11   3  402.46  124.99 
   5  11   3  419.36   66.89 
  11 -16   3  270.37  118.59 
  11 -16   3  461.45   65.19 
   5  11   3  447.26   57.49 
   5  11   3  324.07   60.69 
 -11  19  -3  -26.70   37.90 
   8  11   3  161.48  101.89 
   8  11   3   45.20   40.20 
  11 -19   3   35.20   30.10 
   8  11   3   37.60   30.50 
 -11  22  -3  -33.90   40.10 
  11  11   3   25.40   31.20 
  11 -22   3   22.30   31.80 
  11  11   3   12.20   45.60 
  -9  21  -3   70.59   42.10 
  -9  21  -3   47.90   68.59 
   9 -21   3  -14.40   31.00 
  12   9   3   75.29   33.30 
  -6  18  -3  271.37   56.19 
  -6  18  -3  302.67   79.09 
   6 -18   3  276.37   56.19 
  12   6   3  372.66   47.80 
  12   6   3  266.17   52.99 
  -3  15  -3  -14.10   67.09 
  -3  15  -3  -58.49   75.59 
  -3  15  -3  -29.10   35.10 
  12   3   3   26.80   19.90 
  12   3   3   64.49   35.70 
   3 -15   3   55.49  101.59 
   3 -15   3  -11.40   28.90 
   0  12  -3   71.89   86.79 
   0  12  -3   68.19   67.19 
 -12   0  -3  -15.10  128.99 
   0  12  -3   12.30   32.90 
   0 -12   3  -26.00   98.49 
   0 -12   3   59.09   31.40 
  12   0   3   57.99   37.20 
  12   0   3   31.30   22.00 
   9 -12  -3   89.59  129.39 
 -12   3  -3   17.30  131.49 
   3   9  -3   58.19   92.99 
   3   9  -3  112.59   68.89 
  -9  12   3  123.19   25.90 
  12  -3   3  116.49   29.40 
  12  -3   3  127.49   38.90 
  -3  -9   3  145.09   35.40 
  -3  -9   3   32.90   98.69 
  12  -3   3   34.80  101.99 
   6 -12  -3  168.88   40.20 
 -12   6  -3   38.30  124.79 
   6   6  -3   14.40   98.69 
  12  -6   3  -34.60   96.89 
  12  -6   3  143.39   29.40 
  -6  12   3  160.78   27.10 
  -6  -6   3  161.68   93.39 
  -6  12   3  -93.09  107.69 
  -6  -6   3  114.59   34.70 
   9   3  -3  205.18  109.49 
   3 -12  -3   86.69   33.90 
  -3  12   3  -76.49   38.00 
  -3  12   3  -25.50  121.29 
  12  -9   3   54.99   97.39 
  12  -9   3   18.60   20.00 
  12  -9   3   51.89   60.29 
  -3  12   3   -4.40   17.20 
   0 -12  -3  161.38   37.70 
  12   0  -3  126.19  109.79 
  12 -12   3  181.68   63.89 
 -12   0   3  108.69   25.60 
   0  12   3  122.99   44.70 
  12 -12   3  126.19  100.79 
   0  12   3  141.99   26.80 
  12 -12   3  153.28   28.40 
   0  12   3  183.68  131.99 
  15  -3  -3  188.88   99.79 
 -12  15  -3   -3.90   67.49 
  -3 -12  -3   80.99   31.90 
   3  12   3   68.79   29.50 
  12 -15   3   68.39   24.00 
   3  12   3  106.69   41.60 
   3  12   3   68.39  118.39 
   3  12   3   73.29   20.30 
  12 -15   3  225.38  107.29 
  18  -6  -3  350.66  113.09 
   6  12   3  246.58   50.59 
  12 -18   3  220.48   46.20 
   6  12   3  174.18   43.00 
  12 -18   3  273.47  111.69 
   6  12   3  329.37  112.69 
 -12  21  -3   50.99   40.20 
   9  12   3   62.79   31.50 
  12 -21   3  -22.60   29.90 
   9  12   3   82.69   40.20 
 -12  24  -3   24.70   40.50 
  12 -24   3  -47.10   37.00 
  12  12   3   44.40   33.60 
 -10  23  -3  136.29   47.50 
  10 -23   3   23.10   38.60 
  13  10   3   53.89   35.20 
  -7  20  -3  249.68   49.60 
  -7  20  -3  242.48   70.39 
  13   7   3  185.88   44.70 
   7 -20   3  185.98   47.10 
  -4  17  -3  331.97   86.59 
  -4  17  -3  424.56   64.69 
   4 -17   3  359.46   64.09 
  13   4   3  422.96   63.69 
  13   4   3  377.06   54.99 
   4 -17   3  253.27  121.79 
  -1  14  -3 -102.89   66.39 
  -1  14  -3    4.60   81.79 
  -1  14  -3  -27.10   34.20 
   1 -14   3  -15.60   29.40 
 -14  13   3   33.60   46.50 
  13   1   3   33.40   20.60 
  13   1   3   10.60   37.00 
   1 -14   3   42.60   98.69 
   2  11  -3   32.00   91.19 
   2  11  -3   53.59   33.40 
   2  11  -3   46.10   67.49 
 -11  13   3   13.50   40.40 
  13  -2   3  144.99  104.49 
  13  -2   3   53.39   37.40 
  -2 -11   3   84.49   97.69 
  -2 -11   3    5.00   29.50 
  13  -2   3   49.20   22.60 
   5   8  -3  348.47  127.19 
   8 -13  -3  626.34   87.59 
   5   8  -3  668.63  101.99 
 -13   5  -3  383.26  152.38 
  -8  13   3  648.14   78.69 
  -8  13   3  595.54   87.89 
  -8  13   3  529.55  139.59 
  13  -5   3  524.85  131.19 
  -5  -8   3  325.07  120.29 
  13  -5   3  596.64   80.19 
  -5  -8   3  594.24   83.99 
   5 -13  -3  585.14   86.89 
   8   5  -3  519.75  130.19 
 -13   8  -3  277.37  156.18 
  -5  13   3  698.93   90.59 
  -5  13   3  604.04   78.79 
  13  -8   3  394.56  131.19 
  -5  13   3  469.65  140.49 
  13  -8   3  662.63   80.39 
  13  -8   3  507.85   96.39 
  11   2  -3  167.28  100.89 
   2 -13  -3  135.19   41.60 
  13 -11   3  130.39   29.90 
  -2  13   3   99.79   26.40 
  -2  13   3  176.58   45.00 
  -2  13   3   -5.00  117.29 
  13 -11   3  122.69   63.49 
  13 -11   3   43.50   97.59 
  -1 -13  -3  199.58   44.80 
  14  -1  -3  401.56  112.19 
  13 -14   3  230.18   36.50 
  13 -14   3  173.88  104.29 
   1  13   3  357.06  135.19 
   1  13   3  235.18   50.79 
   1  13   3  179.88   34.40 
  13 -14   3  306.87   70.09 
  17  -4  -3  544.15  141.39 
  -4 -13  -3  813.12  101.99 
   4  13   3  805.62  104.39 
   4  13   3  853.31  152.18 
  13 -17   3  396.36  140.69 
   4  13   3  679.43   99.09 
  13 -17   3  754.12   96.99 
 -13  20  -3  319.57   53.59 
   7  13   3  237.58  109.09 
   7  13   3  246.98   54.79 
   7  13   3  226.38   47.00 
 -13  23  -3  107.99   47.70 
  10  13   3   69.29   36.10 
  10  13   3  126.89   45.40 
 -13  26  -3   32.80   46.80 
  13  13   3   14.50   34.00 
 -11  25  -3    2.70   42.00 
  14  11   3   38.70   33.50 
  11 -25   3  -91.29   36.60 
  -8  22  -3   -9.40   38.90 
  -8  22  -3   41.40   71.79 
  14   8   3  -78.19   32.20 
   8 -22   3  -29.00   30.70 
  -5  19  -3  -39.00   37.90 
  -5  19  -3  144.79   75.99 
  14   5   3    8.00   38.90 
   5 -19   3   -7.80   32.70 
  14   5   3  -17.70   18.10 
  -2  16  -3   -6.90   68.19 
  -2  16  -3  -17.40   34.70 
  -2  16  -3  103.59   84.19 
  14   2   3   36.00   37.70 
  14   2   3  -11.00   18.60 
 -16  14   3    9.90   48.00 
   2 -16   3   36.70  105.59 
   2 -16   3   14.70   31.50 
   1  13  -3   73.29   32.80 
   1  13  -3    4.20   66.09 
   1  13  -3 -108.59   86.89 
  14  -1   3   17.70   20.10 
  -1 -13   3  -19.90   29.00 
  14  -1   3   -0.60   37.30 
 -13  14   3   32.40   47.10 
  14  -1   3  195.08  108.39 
  -1 -13   3  -15.90   98.09 
  10 -14  -3  217.48   46.40 
   4  10  -3  156.78   71.69 
   4  10  -3  254.97  101.79 
 -10  14   3  230.48   55.79 
  14  -4   3  228.48   36.50 
  14  -4   3   78.99  101.99 
  -4 -10   3  225.38   46.20 
  -4 -10   3   88.49   94.09 
  14  -4   3  188.08   43.10 
 -10  14   3  145.19   31.60 
   7   7  -3  314.67  115.59 
   7   7  -3  330.07   84.19 
   7 -14  -3  464.35   66.59 
 -14   7  -3  174.48  141.89 
  14  -7   3  337.97  115.39 
  -7  14   3  447.66  125.49 
  -7  14   3  401.56   55.89 
  -7  14   3  410.36   68.79 
  -7  -7   3  450.25   64.49 
  14  -7   3  394.16   57.59 
  14  -7   3  304.37   78.19 
   4 -14  -3  438.86   64.69 
   4 -14  -3  544.35   69.59 
  10   4  -3  413.96   79.19 
  10   4  -3  234.78  112.29 
  -4  14   3  418.06   55.19 
  14 -10   3  323.47   56.09 
  14 -10   3  254.67   79.69 
  14 -10   3  197.78  109.29 
  -4  14   3  435.26  139.39 
  -4  14   3  429.16   67.69 
   1 -14  -3  204.68   49.10 
  13   1  -3  118.79  106.09 
   1 -14  -3  208.08   46.30 
  14 -13   3  270.07   74.19 
  14 -13   3  261.37   39.10 
  -1  14   3  207.08   36.20 
  -1  14   3  241.38  120.59 
  -1  14   3  229.18   50.59 
  14 -13   3  142.49  101.79 
  -2 -14  -3   24.40   41.80 
  16  -2  -3  -61.89   95.79 
  -2 -14  -3   54.19   30.50 
   2  14   3  -16.30   28.60 
  14 -16   3   92.59   97.39 
   2  14   3   33.00   40.50 
   2  14   3   59.99  117.39 
  14 -16   3   29.60   22.60 
  19  -5  -3   90.99  105.89 
   5  14   3  222.28  122.09 
   5  14   3   54.69   41.00 
   5  14   3   17.40   33.40 
 -14  22  -3   61.49   40.20 
   8  14   3   68.39   40.90 
   8  14   3   11.70   32.10 
 -14  25  -3  -41.20   43.80 
  11  14   3   82.49   42.60 
  11  14   3  -10.30   33.50 
  -9  24  -3   57.79   66.49 
  -9  24  -3   33.00   43.80 
   9 -24   3   73.89   38.90 
  15   9   3  156.58   42.50 
  -6  21  -3  199.68   53.49 
  -6  21  -3  156.48   78.99 
   6 -21   3  157.88   48.20 
  15   6   3  181.98   44.30 
  -3  18  -3  407.86   60.79 
  -3  18  -3  444.66   93.09 
 -18  15   3  340.27   64.89 
   3 -18   3  320.77   60.89 
  15   3   3  350.76   60.79 
  15   3   3  285.07   49.60 
   0  15  -3   25.40   35.50 
   0  15  -3   35.60   96.29 
   0  15  -3  -19.30   69.29 
 -15  15   3   -5.90   49.10 
  15   0   3   67.09   21.90 
  15   0   3   99.09   40.10 
   0 -15   3   25.70   31.20 
   0 -15   3   60.19  103.39 
   3  12  -3  -28.00   90.59 
   3  12  -3   45.60   65.89 
   3  12  -3    6.00   33.70 
 -12  15   3    2.80   42.60 
  15  -3   3  122.89   36.90 
  15  -3   3   50.79   25.00 
  -3 -12   3   -4.20   94.29 
  -3 -12   3   62.29   33.20 
   6   9  -3   94.19   65.69 
   9 -15  -3   59.39   40.00 
   6   9  -3  -50.89   96.29 
   9 -15  -3   52.79   36.10 
  -6  -9   3   18.80   31.20 
  -9  15   3   20.70   20.60 
  15  -6   3   45.00   22.70 
  15  -6   3 -130.79   88.89 
  -9  15   3  -44.30   48.40 
   6 -15  -3   -6.60   35.80 
   9   6  -3   15.90   95.79 
   9   6  -3   17.30   68.69 
   6 -15  -3   23.00   34.70 
  -6  15   3  -54.99   40.70 
  15  -9   3   71.09   58.19 
  -6  15   3   -1.20   16.10 
  -9  -6   3   -8.30   26.70 
  15  -9   3  -71.89   93.69 
  15  -9   3   12.90   20.80 
  -6  15   3  -29.50  115.19 
  12   3  -3   66.19   57.69 
  12   3  -3   10.40  101.59 
   3 -15  -3   93.29   38.10 
   3 -15  -3   51.89   36.10 
  -3  15   3   67.09   19.40 
  -3  15   3  103.79   43.50 
  15 -12   3   50.19   23.50 
  15 -12   3   78.79   92.89 
  15 -12   3   77.29   64.09 
  -3  15   3  135.49  122.09 
   0 -15  -3  372.96   57.79 
   0 -15  -3  328.17   58.69 
  15   0  -3  236.28  110.49 
  15 -15   3  211.98   75.49 
   0  15   3  333.87   63.99 
  15 -15   3  256.07  110.69 
  15 -15   3  301.47   48.80 
   0  15   3  682.83  141.09 
  -3 -15  -3  492.55   75.29 
  18  -3  -3  394.76  120.99 
  -3 -15  -3  417.76   69.39 
   3  15   3  474.35   75.59 
  15 -18   3  316.27  124.49 
   3  15   3  379.06   65.09 
   3  15   3  408.66  130.29 
  15 -18   3  468.05   63.29 
  21  -6  -3  110.39   97.99 
   6  15   3  112.89   34.10 
   6  15   3   93.69  103.79 
   6  15   3   87.79   48.30 
 -15  24  -3   -4.50   43.20 
   9  15   3   12.80   33.60 
   9  15   3  -16.50   43.70 
 -10  26  -3   53.29   47.20 
  16  10   3  124.49   40.30 
  -7  23  -3  216.18   51.99 
  -7  23  -3  199.68   78.59 
   7 -23   3  132.39   45.80 
  16   7   3  215.98   44.70 
  -4  20  -3  183.58   46.60 
  -4  20  -3  207.98   76.69 
  16   4   3  119.79   44.40 
 -20  16   3   54.79   55.39 
   4 -20   3  132.79   43.20 
  -1  17  -3  -16.90   69.79 
  -1  17  -3   46.10   39.50 
  16   1   3   74.79   41.70 
 -17  16   3  117.59   50.89 
  16   1   3   41.40   21.80 
   1 -17   3   44.50   33.40 
   2  14  -3  -54.09   77.29 
  14 -16  -3   15.30   41.10 
   2  14  -3   -5.80   89.29 
   2  14  -3   68.89   40.40 
 -14  16   3   41.20   50.09 
  16  -2   3  -28.30   20.10 
  -2 -14   3   -7.60   31.60 
  -2 -14   3 -127.89   90.59 
  16  -2   3   15.20   38.80 
  11 -16  -3  225.48   51.09 
  11 -16  -3  201.58   49.20 
   5  11  -3  271.97  102.59 
   5  11  -3  251.07   74.89 
   5  11  -3  305.67   50.49 
 -11  16   3  145.69   53.69 
  -5 -11   3  138.79   98.49 
 -11  16   3  203.88   36.30 
  16  -5   3  246.88   39.90 
  16  -5   3  265.47   48.80 
  -5 -11   3  271.17   48.40 
   8 -16  -3  624.44   92.69 
   8 -16  -3  658.03   93.39 
   8   8  -3  531.85  135.69 
   8   8  -3  615.04  105.99 
  16  -8   3  682.93   85.99 
  16  -8   3  435.86  128.79 
  -8  16   3  622.54   83.69 
  -8  -8   3  635.64   90.19 
  -8  16   3  631.14   84.59 
  -8  16   3  625.94   96.49 
  16  -8   3  582.04  106.89 
  -8  16   3  479.85  139.69 
  11   5  -3  338.67  126.49 
  11   5  -3  312.27   76.29 
   5 -16  -3  352.66   64.19 
   5 -16  -3  419.76   65.49 
  -5  16   3  376.96   53.89 
  -5  16   3  514.75   67.99 
  -5  16   3  401.56   53.39 
  16 -11   3  399.76   55.89 
  16 -11   3  228.68   78.79 
  -5  16   3  338.67  125.39 
 -11  -5   3  353.86   59.79 
  16 -11   3  153.38  109.99 
  14   2  -3  -11.00   95.29 
   2 -16  -3   35.30   35.60 
   2 -16  -3   75.09   34.30 
  16 -14   3    0.80   21.50 
  -2  16   3   -3.90   46.40 
  -2  16   3   54.59  116.79 
  -2  16   3   -8.30   18.60 
  -2  16   3   36.00   20.70 
  16 -14   3   10.80   62.59 
 -14  -2   3   97.79   28.40 
  16 -14   3   30.40   92.99 
  -1 -16  -3  264.27   53.69 
  17  -1  -3  268.47  119.99 
  -1 -16  -3  329.17   59.69 
  16 -17   3  299.27   45.10 
   1  16   3  534.65  144.89 
  16 -17   3  204.78  107.09 
   1  16   3  194.18   57.29 
  20  -4  -3   96.79   96.29 
   4  16   3  190.18  125.09 
   4  16   3  157.48   46.70 
   4  16   3  153.88   39.60 
 -16  23  -3  101.69   39.80 
   7  16   3   87.99   42.90 
   7  16   3   89.59   39.10 
 -16  26  -3   52.29   42.00 
  10  16   3    2.80   39.20 
  10  16   3   69.59   42.70 
  -8  25  -3   -0.40   74.09 
  -8  25  -3   -3.00   44.70 
  17   8   3   30.10   37.20 
  -5  22  -3  -20.70   76.39 
  -5  22  -3  -33.40   42.60 
  17   5   3   45.40   43.40 
   5 -22   3  -54.99   37.50 
  -2  19  -3  -42.30   68.99 
  -2  19  -3   50.79   40.80 
  17   2   3   52.59   39.80 
   2 -19   3   -3.60   35.60 
  17   2   3  100.99   24.00 
 -19  17   3   40.50   46.60 
   1  16  -3  113.29   40.60 
   1  16  -3  143.69   72.79 
  16 -17  -3   11.00   39.40 
   1  16  -3   85.79   98.59 
  17  -1   3   47.60   46.60 
  17  -1   3   54.19   23.10 
  -1 -16   3   65.79   35.60 
 -16  17   3   27.90   48.30 
  -1 -16   3  173.58  105.19 
   4  13  -3  399.36   84.49 
  13 -17  -3  358.56   63.49 
   4  13  -3  401.16   60.19 
  13 -17  -3  363.66   62.69 
   4  13  -3  324.57  108.89 
  -4 -13   3  284.77  111.69 
  -4 -13   3  315.97   59.79 
  17  -4   3  384.26   60.69 
 -13  17   3  386.96   66.69 
  17  -4   3  308.97   51.79 
 -13  17   3  316.07   50.29 
  10 -17  -3  604.84   98.79 
   7  10  -3  799.12  116.79 
   7  10  -3  674.23  150.98 
  10 -17  -3  670.43  100.99 
 -10  17   3  644.04   91.39 
 -10  17   3  680.73   90.89 
  -7 -10   3  695.23   97.79 
 -10  17   3  747.53  100.99 
  17  -7   3  667.53   92.19 
   7 -17  -3  885.11  121.39 
   7 -17  -3  876.01  123.79 
  10   7  -3  788.72  129.09 
  10   7  -3  782.02  161.78 
  -7  17   3  894.91  113.09 
  17 -10   3  624.74  135.39 
  17 -10   3  910.61  114.79 
  -7  17   3  720.63  169.08 
  -7  17   3  879.81  120.89 
 -10  -7   3  912.71  118.19 
  -7  17   3  843.12  113.69 
   4 -17  -3  821.42  112.29 
   4 -17  -3  795.22  110.09 
  13   4  -3  700.63  119.59 
  13   4  -3  472.75  146.39 
 -13  -4   3  773.02  107.99 
  17 -13   3  555.34  144.99 
  17 -13   3  858.21  105.19 
  -4  17   3  789.12  173.78 
  -4  17   3  834.42  112.09 
  -4  17   3  764.22  101.49 
  -4  17   3  762.52  102.89 
   1 -17  -3  336.77   56.29 
  16   1  -3  336.57  122.49 
   1 -17  -3  153.58   56.19 
  17 -16   3  286.37  111.19 
  17 -16   3  316.67   48.50 
  -1  17   3  266.57  132.59 
  -1  17   3  287.57   46.00 
 -16  -1   3  336.77   50.79 
  -1  17   3  303.97   60.39 
  -2 -17  -3   79.79   36.60 
  19  -2  -3   51.99   99.19 
  -2 -17  -3   60.29   40.80 
  17 -19   3   37.90   24.00 
   2  17   3  119.19  114.09 
   2  17   3   11.30   45.80 
  22  -5  -3  -70.19  108.79 
   5  17   3   13.00   45.00 
   5  17   3    1.50   31.10 
 -17  25  -3   33.80   39.80 
   8  17   3  111.79   46.90 
   8  17   3   -3.70   37.50 
  -6  24  -3   50.39   43.10 
  -6  24  -3   11.40   67.29 
   6 -24   3  -40.60   39.20 
  18   6   3   -0.70   44.00 
  -3  21  -3    3.00   69.29 
  -3  21  -3   46.90   49.10 
  18   3   3   90.39   41.10 
   3 -21   3  100.99   39.60 
 -21  18   3   27.10   52.09 
   0  18  -3  106.29   45.70 
   0  18  -3  201.18   74.19 
 -18  18   3  177.68   55.99 
  18   0   3  169.48   45.90 
  18   0   3  118.79   28.30 
   0 -18   3  148.29   42.60 
  15 -18  -3  318.97   67.29 
   3  15  -3  351.76   85.39 
   3  15  -3  381.46   60.19 
   3  15  -3  233.68  106.39 
 -15  18   3  307.47   49.30 
  -3 -15   3  281.67  109.19 
  18  -3   3  316.87   50.09 
  18  -3   3  346.97   60.79 
  -3 -15   3  354.36   60.19 
 -15  18   3  333.27   65.19 
   6  12  -3  266.67   78.89 
  12 -18  -3  209.28   53.19 
  12 -18  -3  322.87   57.89 
   6  12  -3  257.57  107.49 
   6  12  -3  271.17   50.09 
  -6 -12   3  254.57   51.29 
  18  -6   3  245.08   42.80 
 -12  18   3  286.67   59.59 
 -12  18   3  275.87   40.20 
 -12  18   3  236.98   41.90 
   9   9  -3   81.89  101.89 
   9 -18  -3  203.88   45.80 
   9 -18  -3  163.88   49.80 
   9   9  -3  105.39   68.19 
  18  -9   3  146.29   32.00 
  -9  18   3  136.39   30.20 
  -9  18   3  142.49   50.09 
  -9  18   3  156.78   28.30 
  -9  -9   3  169.18   43.10 
  12   6  -3  249.08   75.99 
  12   6  -3  458.55  118.89 
   6 -18  -3  274.27   55.49 
   6 -18  -3  252.77   58.29 
  -6  18   3  232.68   55.79 
 -12  -6   3  284.57   50.29 
  -6  18   3  271.67   42.80 
  -6  18   3  238.28  124.89 
  -6  18   3  262.37   40.50 
  18 -12   3  277.77   44.70 
   3 -18  -3  462.45   71.99 
   3 -18  -3  427.26   71.09 
  15   3  -3  266.77  120.29 
  -3  18   3  406.76  135.19 
  -3  18   3  432.56   61.79 
  -3  18   3  397.36   71.99 
 -15  -3   3  424.16   66.09 
  18 -15   3  468.55   63.59 
   0 -18  -3  592.54   95.29 
  18   0  -3  359.76  135.29 
   0 -18  -3  587.64   97.69 
   0  18   3  652.53   86.69 
  18 -18   3  762.72   89.69 
   0  18   3  665.53   97.89 
   0  18   3  460.25  162.88 
  21  -3  -3  -94.79  107.09 
   3  18   3   98.79   33.90 
   3  18   3  146.39   49.50 
   3  18   3  207.68  124.99 
 -18  24  -3  -18.40   42.80 
   6  18   3  -63.79   31.30 
   6  18   3    8.20   44.50 
  -4  23  -3   86.19   45.20 
  -4  23  -3   69.89   71.59 
 -23  19   3  -34.60   55.59 
  19   4   3   25.80   41.50 
   4 -23   3   18.10   41.60 
  -1  20  -3  -18.80   47.30 
  -1  20  -3   17.80   69.79 
  19   1   3   12.30   41.40 
  19   1   3   24.00   19.80 
 -20  19   3  -28.60   53.69 
   1 -20   3  -30.50   34.10 
   2  17  -3   32.70   40.50 
  17 -19  -3   71.89   42.30 
   2  17  -3  109.89   72.09 
   2  17  -3   31.30   98.79 
 -17  19   3    6.30   46.20 
  19  -2   3   11.60   21.50 
  19  -2   3   47.80   42.40 
  -2 -17   3   40.00   35.00 
   5  14  -3  130.29  108.59 
  14 -19  -3   10.90   41.90 
   5  14  -3   63.39   37.70 
  14 -19  -3  -15.70   35.50 
   5  14  -3  117.39   71.59 
 -14  19   3 -101.99   42.60 
 -14  19   3   -3.10   20.10 
  19  -5   3   -2.10   37.80 
  19  -5   3  -41.60   20.50 
 -14  19   3   38.80   17.40 
  -5 -14   3  -10.00   35.30 
   8  11  -3  -39.80   72.29 
  11 -19  -3   -2.40   43.00 
   8  11  -3   75.09  105.79 
  11 -19  -3   -1.70   34.60 
 -11  19   3   27.30   17.00 
  19  -8   3   -9.10   24.60 
 -11  19   3   42.50   45.50 
  -8 -11   3   64.39   32.90 
 -11  19   3    9.30   18.90 
  11   8  -3  123.89  101.89 
   8 -19  -3   91.99   42.00 
   8 -19  -3   66.69   39.10 
  11   8  -3  -38.30   61.49 
  -8  19   3   42.80   22.40 
  -8  19   3  -16.80   48.60 
  -8  19   3  147.09  118.49 
 -11  -8   3   53.79   31.90 
  -8  19   3   38.50   18.80 
  19 -11   3   43.60   24.30 
   5 -19  -3    9.00   41.60 
   5 -19  -3   14.90   35.50 
  14   5  -3 -109.99  101.69 
  14   5  -3    2.90   58.19 
 -14  -5   3   -1.80   30.60 
  -5  19   3   16.10   20.60 
  -5  19   3 -110.39  113.19 
  -5  19   3  -62.79   41.10 
  19 -14   3  -10.30   24.80 
  17   2  -3   71.39  102.49 
   2 -19  -3   68.69   37.80 
   2 -19  -3  122.49   46.00 
  19 -17   3   87.29   25.70 
  -2  19   3   56.89   21.70 
  -2  19   3 -128.59  110.49 
  -2  19   3   15.50   43.40 
  -1 -19  -3  115.29   40.80 
  -1 -19  -3  109.19   47.70 
  20  -1  -3  -48.80   99.29 
   1  19   3   85.69   49.60 
  19 -20   3  126.29   28.30 
   1  19   3   25.00  116.19 
  23  -4  -3  -39.60  127.19 
   4  19   3   56.79   40.50 
   4  19   3   61.89   33.40 
  -5  25  -3 -191.18   76.39 
  -5  25  -3  -13.80   47.50 
 -25  20   3  -89.79   56.69 
  20   5   3   68.09   47.60 
  -2  22  -3   24.50   77.79 
  -2  22  -3   51.09   46.30 
  20   2   3  -45.30   45.40 
 -22  20   3   -6.60   56.89 
   2 -22   3  -38.10   35.40 
   1  19  -3   49.00   85.59 
   1  19  -3  -24.60   42.40 
  20  -1   3   21.70   23.40 
  -1 -19   3 -124.09   35.50 
 -19  20   3   62.59   48.20 
  20  -1   3  -56.09   40.80 
  16 -20  -3  158.58   57.19 
   4  16  -3  284.67   85.09 
   4  16  -3  184.68   46.90 
   4  16  -3  117.99  106.99 
 -16  20   3  204.58   53.99 
  20  -4   3  200.28   34.80 
  -4 -16   3  161.28   45.30 
  20  -4   3  164.48   45.40 
 -16  20   3  142.39   32.30 
   7  13  -3  187.58   44.60 
   7  13  -3  153.68   82.79 
  13 -20  -3  128.89   54.99 
   7  13  -3  152.88  100.19 
  13 -20  -3  125.69   44.90 
 -13  20   3  138.29   27.50 
 -13  20   3  150.08   32.10 
 -13  20   3  228.68   56.29 
  20  -7   3  151.18   32.90 
  -7 -13   3  141.69   44.00 
  10 -20  -3  231.88   51.39 
  10  10  -3  251.57   73.09 
  10 -20  -3  224.98   56.19 
  10  10  -3  241.78  108.19 
 -10 -10   3  182.58   44.60 
 -10  20   3  200.78   34.50 
 -10  20   3  307.77   60.79 
  20 -10   3  167.88   37.30 
 -10  20   3  185.38   34.80 
   7 -20  -3  171.08   49.99 
  13   7  -3  288.37  110.19 
  13   7  -3  271.57   73.19 
   7 -20  -3  273.77   58.49 
  -7  20   3  202.08   53.49 
  -7  20   3  325.77  124.79 
  20 -13   3  240.28   40.80 
  -7  20   3  194.18   37.70 
 -13  -7   3  247.98   49.80 
   4 -20  -3  162.48   46.10 
  16   4  -3   89.59  104.49 
   4 -20  -3  154.48   47.90 
  -4  20   3  219.68   55.29 
  -4  20   3  172.38  122.99 
  20 -16   3  158.18   34.10 
  -4  20   3  189.78   33.80 
   1 -20  -3   18.30   46.70 
   1 -20  -3   78.29   38.90 
  19   1  -3   70.49  103.69 
  -1  20   3  130.89  120.39 
  20 -19   3  126.99   29.70 
  -1  20   3  108.89   48.20 
  -1  20   3  101.59   25.40 
  22  -2  -3  -82.29  120.59 
   2  20   3  -47.80   44.10 
   2  20   3  -24.30  106.39 
 -20  25  -3  125.59   42.10 
   5  20   3   65.39   47.10 
   5  20   3   96.79   40.40 
  -3  24  -3    7.60   79.99 
  -3  24  -3  -10.90   48.20 
 -24  21   3   61.49   60.89 
  21   3   3  -32.70   47.30 
   0  21  -3  -15.20   45.00 
   0  21  -3  -71.49   70.99 
   0 -21   3   -5.90   40.00 
 -21  21   3   -8.80   49.20 
  21   0   3   66.19   43.40 
  18 -21  -3   55.99   55.89 
   3  18  -3   92.29   84.19 
   3  18  -3  112.59   43.80 
  -3 -18   3  -12.70   37.60 
  21  -3   3  112.09   27.30 
 -18  21   3  155.38   56.99 
  21  -3   3   97.29   42.00 
  15 -21  -3  293.37   61.29 
   6  15  -3  220.28  111.19 
  15 -21  -3  170.88   48.20 
   6  15  -3  221.98   46.30 
   6  15  -3  124.49   84.49 
  -6 -15   3  153.18   44.80 
  21  -6   3  229.08   38.80 
 -15  21   3  160.98   31.30 
 -15  21   3  194.78   55.59 
 -15  21   3  156.98   34.60 
  12 -21  -3   23.50   39.00 
  12 -21  -3  149.59   53.39 
   9  12  -3   30.10   96.09 
   9  12  -3  237.08   78.39 
 -12  21   3   73.09   24.40 
  -9 -12   3   90.19   35.00 
 -12  21   3   31.30   18.40 
 -12  21   3   82.69   46.80 
  21  -9   3   52.89   26.10 
   9 -21  -3   81.99   41.30 
  12   9  -3  -24.20   61.59 
  12   9  -3   38.20  109.29 
   9 -21  -3   30.50   50.39 
 -12  -9   3  155.58   38.70 
  -9  21   3  132.99  131.39 
  21 -12   3   43.60   26.20 
  -9  21   3   34.90   45.20 
  -9  21   3   58.39   22.30 
   6 -21  -3   53.69   43.10 
   6 -21  -3   32.50   40.60 
  15   6  -3   25.90   65.39 
  15   6  -3  162.78  105.49 
  21 -15   3   83.99   27.40 
  -6  21   3  116.09   25.30 
  -6  21   3  124.89   45.70 
  -6  21   3  171.28  133.29 
   3 -21  -3  144.09   48.40 
   3 -21  -3  168.48   46.70 
  18   3  -3  170.48  116.29 
  -3  21   3  247.38  117.09 
  -3  21   3  101.09   53.19 
  -3  21   3  169.48   33.40 
  21 -18   3  178.18   34.20 
   0 -21  -3   38.50   35.80 
  21   0  -3  -49.20  105.89 
   0  21   3    3.70  115.09 
   0  21   3  -19.70   44.00 
  21 -21   3   20.20   21.70 
 -21  24  -3    4.00   35.30 
   3  21   3  -31.40   35.50 
   3  21   3   -3.90   44.90 
  -1  23  -3   -2.10   84.99 
  -1  23  -3  -92.89   49.90 
  22   1   3   -7.10   41.30 
 -23  22   3   45.20   59.09 
   2  20  -3  -20.30   39.10 
   2  20  -3  -82.79   80.79 
  22  -2   3   12.80   41.50 
  22  -2   3  -14.90   20.90 
  -2 -20   3   44.00   39.80 
 -20  22   3  -16.80   49.10 
  17 -22  -3  -40.50   50.49 
   5  17  -3   41.50   37.80 
   5  17  -3   24.80  101.79 
   5  17  -3  -49.40   71.09 
  -5 -17   3   -3.30   35.10 
 -17  22   3    0.70   50.29 
  22  -5   3  -18.30   38.00 
  22  -5   3    5.50   22.90 
 -17  22   3   -0.30   20.50 
   8  14  -3   41.90   96.99 
  14 -22  -3    0.00   37.00 
   8  14  -3   47.40   69.89 
   8  14  -3  -29.30   34.70 
  14 -22  -3  -89.59   44.10 
  -8 -14   3  -31.20   32.40 
  22  -8   3    2.50   23.70 
 -14  22   3    9.40   17.00 
 -14  22   3   12.90   23.10 
 -14  22   3   16.60   46.40 
  11  11  -3   70.69  110.59 
  11  11  -3  -97.59   70.29 
  11 -22  -3    4.60   37.10 
  11 -22  -3   35.40   51.69 
  22 -11   3   -6.10   23.30 
 -11  22   3  163.78   48.10 
 -11  22   3   -8.00   18.80 
 -11 -11   3  -45.10   33.10 
  14   8  -3   23.70   70.19 
  14   8  -3  -54.99   98.39 
   8 -22  -3   28.80   47.70 
   8 -22  -3   52.79   41.00 
  -8  22   3   10.40   22.00 
  -8  22   3   24.30   49.30 
  -8  22   3   26.20  116.79 
  22 -14   3   42.70   24.80 
  17   5  -3   -1.20  112.09 
   5 -22  -3  -34.50   39.90 
   5 -22  -3   13.20   37.20 
  22 -17   3  -15.90   22.00 
  -5  22   3  -37.70   45.40 
  -5  22   3   -0.30   19.00 
  -5  22   3  151.08  133.09 
  20   2  -3 -249.78   98.19 
   2 -22  -3  -49.80   39.30 
   2 -22  -3   60.99   37.80 
  22 -20   3   39.90   26.70 
  -2  22   3    6.50   47.90 
  -2  22   3  186.28  134.79 
   1  22   3   14.60   43.60 
   1  22  -3   42.00   49.99 
   1  22  -3 -209.58   81.09 
  23  -1   3   -8.50   41.30 
 -22  23   3  -75.09   56.19 
   4  19  -3  -16.20   82.89 
   4  19  -3  -47.10   44.70 
  23  -4   3   42.30   26.60 
 -19  23   3   47.10   49.80 
  -4 -19   3   20.60   42.00 
  23  -4   3  -34.80   43.10 
   7  16  -3   -1.10  106.59 
   7  16  -3  181.68   46.00 
   7  16  -3   73.79   76.29 
  16 -23  -3  194.38   48.70 
  16 -23  -3  237.88   63.29 
 -16  23   3  224.38   32.60 
  -7 -16   3  170.78   49.10 
  23  -7   3  186.18   37.40 
 -16  23   3  227.98   62.29 
 -16  23   3  158.68   37.20 
  10  13  -3  152.28   75.39 
  13 -23  -3  145.19   52.09 
  13 -23  -3   89.19   43.90 
  10  13  -3   25.00   97.09 
 -10 -13   3   69.99   36.40 
 -13  23   3   72.39   47.90 
 -13  23   3   46.10   20.00 
 -13  23   3  100.39   25.30 
  23 -10   3  140.69   30.40 
  10 -23  -3  166.68   56.99 
  13  10  -3   30.10  111.49 
  13  10  -3  146.59   76.49 
  10 -23  -3   44.90   44.70 
 -10  23   3   73.99  118.49 
 -13 -10   3  134.99   41.80 
 -10  23   3  103.79   28.80 
 -10  23   3  147.49   53.39 
  23 -13   3  151.88   32.00 
   7 -23  -3  165.68   47.30 
  16   7  -3   24.90   70.79 
  16   7  -3   15.10  104.89 
   7 -23  -3   59.09   50.29 
  -7  23   3  124.59   46.20 
  23 -16   3  141.29   31.10 
  -7  23   3   93.09   27.70 
  -7  23   3   25.60  132.19 
   4 -23  -3   80.19   42.40 
   4 -23  -3   82.09   44.90 
  -4  23   3   67.99  110.59 
  -4  23   3   40.50   49.50 
  23 -19   3  162.88   33.10 
  -4  23   3   59.29   24.30 
  -1  23   3 -190.48  123.89 
  -1  23   3   23.70   46.40 
   3  21  -3   39.10   74.69 
   3  21  -3   -3.90   42.40 
 -21  24   3   26.40   52.09 
  24  -3   3   34.60   40.20 
   6  18  -3  -43.20   74.19 
   6  18  -3   79.19   40.20 
 -18  24   3   77.99   20.90 
  -6 -18   3   12.00   37.20 
  24  -6   3  -12.90   22.30 
 -18  24   3   28.10   54.39 
  15 -24  -3   60.69   42.40 
  15 -24  -3  124.49   60.29 
   9  15  -3   27.30   72.89 
   9  15  -3   15.20  101.99 
   9  15  -3   61.39   42.60 
 -15  24   3  107.59   55.49 
 -15  24   3   69.59   27.80 
  -9 -15   3   79.89   40.60 
 -15  24   3  102.29   22.80 
  24  -9   3   98.89   31.00 
  12  12  -3  150.78  112.79 
  12 -24  -3   10.80   42.10 
  12  12  -3  -96.59   65.19 
  12 -24  -3   28.90   48.10 
 -12 -12   3   26.10   33.90 
 -12  24   3   21.00   51.19 
  24 -12   3   22.90   23.50 
 -12  24   3   68.19   24.80 
   9 -24  -3   81.99   50.79 
  15   9  -3   86.29   69.69 
   9 -24  -3   75.89   48.30 
  15   9  -3  -61.29   99.89 
  -9  24   3  -57.89   47.20 
  -9  24   3   20.60   20.50 
  -9  24   3   32.10  114.69 
  24 -15   3    7.00   26.70 
   6 -24  -3   10.40   39.80 
   6 -24  -3   22.70   48.60 
  -6  24   3   11.70   42.10 
  -6  24   3   14.40   20.60 
  24 -18   3   37.00   25.50 
  -6  24   3   96.69  128.99 
  -3  24   3   38.70   47.40 
  -3  24   3   72.49  134.09 
   5  20  -3  -12.40   40.40 
   5  20  -3  133.59   85.69 
 -20  25   3   59.99   58.89 
   8  17  -3 -115.49   70.79 
   8  17  -3   37.00   39.20 
 -17  25   3  -13.00   54.39 
 -17  25   3   55.69   18.00 
  -8 -17   3   38.50   45.30 
  11  14  -3  -17.60   68.59 
  14 -25  -3   16.90   55.59 
  14 -25  -3   12.30   45.00 
 -14  25   3    4.40   20.90 
  25 -11   3   -8.80   23.20 
 -11 -14   3  -62.29   36.50 
 -14  25   3  -73.99   51.09 
  11 -25  -3   -4.30   49.80 
  14  11  -3 -126.79   69.49 
  11 -25  -3  -18.50   53.49 
 -11  25   3 -123.89  110.39 
 -11  25   3   13.30   21.60 
  25 -14   3  -34.00   28.20 
 -11  25   3    0.70   43.40 
   8 -25  -3  -59.69   51.19 
  -8  25   3   57.59   23.10 
  -8  25   3   16.90   43.20 
  -8  25   3  169.18  122.09 
  -5  25   3  114.79   46.10 
  -5  25   3  122.69  111.99 
  10  16  -3  167.28   74.99 
 -16  26   3   62.79   55.79 
  13  13  -3  -32.80   66.19 
 -13  26   3  -92.09  115.79 
 -13  26   3   12.30   46.00 
  16  10  -3  -10.00   66.69 
 -10  26   3   75.69   49.99 
 -10  26   3  -75.89  116.79 
   1  -1  -4  124.29  102.09 
  -1   0  -4   31.80  103.29 
  -1   0  -4  205.78   97.29 
   0   1  -4  104.09   96.59 
   1  -1  -4   60.99   84.79 
   0   1  -4  156.18  113.79 
  -1   1   4   65.79  116.69 
   0  -1   4   28.70  108.29 
  -1   1   4    4.60  107.79 
   0  -1   4   80.89   23.60 
   1   0   4  110.29  115.29 
  -1   1   4   52.49   24.10 
   1   0   4   62.59   23.90 
   3  -2  -4  -22.60   78.99 
  -1   3  -4   46.70   82.09 
  -2  -1  -4  -12.40   83.79 
   3  -2  -4  -37.20  106.69 
  -1   3  -4  -10.60  100.89 
  -3   2   4   12.70   22.60 
   1  -3   4   -1.20   19.30 
   2   1   4 -151.68  117.59 
   2   1   4  -20.40   20.30 
  -3   2   4 -108.39  114.29 
   2   1   4  -40.10  112.09 
   1  -3   4  -18.30  105.69 
  -3   2   4   14.70  103.79 
   2   0  -4  225.88  110.09 
   2   0  -4  364.46   94.89 
   0  -2  -4  353.46   96.99 
  -2   2  -4  349.67  106.49 
   0  -2  -4  506.05  131.09 
  -2   2  -4  221.48  112.89 
  -2   0   4  188.68  109.19 
   2  -2   4  312.47   47.90 
   0   2   4  303.37   48.40 
  -2   0   4   66.89  116.19 
   2  -2   4  318.47  120.89 
   0   2   4  391.16  141.89 
  -2   0   4  365.86   48.90 
  -2   5  -4    2.00   96.09 
   5  -3  -4   -4.60   94.69 
  -2   5  -4  -45.90   92.29 
   5  -3  -4  116.59   77.99 
  -5   3   4   56.69   25.60 
   3   2   4  242.48  121.99 
  -5   3   4   95.49  112.39 
   3   2   4   30.30   22.00 
  -5   3   4   39.30  104.69 
   2  -5   4  124.19  104.89 
   2  -5   4   33.40   19.90 
   2  -3  -4  183.68  101.59 
  -3   1  -4  -76.09   84.09 
   1   2  -4  -12.40   94.49 
   2  -3  -4   77.29   89.89 
   1   2  -4   70.69   92.49 
  -1  -2   4   -5.20   20.20 
   3  -1   4 -109.49  114.09 
   3  -1   4   14.40   23.30 
  -2   3   4  -49.90  113.49 
  -2   3   4  -26.40   20.50 
  -1  -2   4  156.88  107.89 
   4  -1  -4  257.67   92.39 
  -1  -3  -4  115.89   90.59 
  -3   4  -4  134.29  101.49 
  -3   4  -4  185.88   87.69 
   4  -1  -4  186.58  102.89 
   3  -4   4  121.09   29.60 
   1   3   4  -53.59  120.49 
   1   3   4  162.48   30.30 
   3  -4   4  116.29  109.19 
  -4   1   4  156.98  111.29 
  -4   1   4   32.80  111.49 
  -4   1   4  120.39   29.20 
  -3   7  -4  242.48  117.09 
   7  -4  -4  260.47  109.49 
  -3   7  -4  348.37  101.39 
   3  -7   4  475.95   63.89 
  -7   4   4  484.45   64.99 
   4   3   4  534.85   71.19 
   4   3   4  312.97  137.49 
   4   3   4  488.35   64.89 
  -7   4   4  425.96  137.79 
  -7   4   4  404.16  129.49 
   3  -7   4  352.76  124.69 
  -4   0  -4  118.49   86.89 
   0   4  -4   11.90   96.59 
   4  -4  -4  115.79   80.29 
   4  -4  -4   56.59   96.39 
   0   4  -4  168.48   82.39 
   4   0   4    1.40  120.09 
  -4   4   4   71.49   25.80 
   4   0   4   92.19   25.40 
   0  -4   4   96.19   25.20 
  -4   4   4   41.30  126.29 
   0  -4   4   84.79  103.59 
  -4   3  -4  154.38   98.29 
   3   1  -4  156.08  101.09 
   1  -4  -4   91.09   86.29 
   3   1  -4  338.07   94.89 
   1  -4  -4  -42.50  115.19 
   4  -3   4  -23.60  105.79 
  -3  -1   4  -14.80  103.29 
  -1   4   4  144.99   28.90 
  -1   4   4  240.58  118.79 
  -3  -1   4  112.99   27.40 
   4  -3   4  116.59   27.10 
   6  -2  -4   -6.10   82.59 
   6  -2  -4  134.29   96.79 
  -4   6  -4  215.78   82.49 
  -4   6  -4   24.00   98.39 
   4  -6   4  145.39   27.20 
  -6   2   4  156.78  106.29 
   2   4   4   67.19  122.99 
   2   4   4  123.89   39.10 
  -6   2   4  141.79   28.30 
   4  -6   4   94.89  105.09 
   2   4   4   82.29   27.30 
   9  -5  -4   -2.20   91.29 
  -4   9  -4  213.28   93.69 
  -4   9  -4    5.50   95.19 
   5   4   4  235.78   49.60 
   4  -9   4  172.98   30.80 
   4  -9   4  159.48   36.00 
   5   4   4  126.69   36.70 
   4  -9   4    0.80  100.09 
   5   4   4  242.08  128.69 
  -9   5   4  175.28   32.40 
   5   4   4  202.78   32.60 
  -1   6  -4  -27.60   94.79 
   6  -5  -4   65.59   90.29 
  -1   6  -4   99.89   80.39 
   1  -6   4   -0.70  103.99 
   5   1   4   80.89   40.30 
   5   1   4   78.19   24.10 
  -6   5   4   65.09   24.30 
  -6   5   4   53.49  111.49 
   1  -6   4   72.09   23.30 
   2   3  -4   92.39  108.09 
   2   3  -4   66.19   80.79 
   3  -5  -4  125.49   97.29 
  -5   2  -4   90.49   96.69 
   3  -5  -4   91.49   80.59 
  -3   5   4   39.90  122.49 
   5  -2   4   46.50  113.39 
   5  -2   4   31.40   21.90 
  -2  -3   4   22.90  100.99 
  -2  -3   4   61.49   21.80 
  -3   5   4   16.60   22.90 
  -5   5  -4   -6.60  101.39 
   5   0  -4  148.79   97.99 
   5   0  -4   88.69   74.69 
  -5   5  -4   -9.60   83.49 
   0   5   4  137.39  124.69 
   5  -5   4   19.90   20.30 
  -5   0   4   21.70  103.09 
   5  -5   4    8.50  102.69 
   0   5   4   41.30   22.90 
  -5   0   4   38.40   22.10 
   8  -3  -4   28.80   68.19 
   8  -3  -4  -21.20   90.69 
  -5   8  -4  -21.00  103.39 
  -5   8  -4  102.29   80.49 
  -8   3   4  107.89  103.29 
   3   5   4  -21.90   41.60 
  -8   3   4    2.80   19.50 
   3   5   4   -0.40   19.90 
   5  -8   4   15.70   18.50 
   3   5   4  -97.39  123.89 
   5  -8   4    8.10   23.80 
   5  -8   4   99.69  104.89 
  11  -6  -4   13.70   94.69 
  -5  11  -4  162.08   93.59 
  -5  11  -4   -6.40   72.99 
   5 -11   4   11.30  102.39 
   6   5   4   60.19   39.60 
   6   5   4   77.79   22.70 
 -11   6   4   65.59   22.40 
   5 -11   4   79.39   29.70 
   6   5   4  100.89  123.99 
   6   5   4   79.99   32.90 
  -2   8  -4   62.99   97.59 
   8  -6  -4  110.99   94.09 
  -2   8  -4  301.37   94.89 
   6   2   4  260.87   40.30 
  -8   6   4  -95.69  109.89 
   6   2   4  336.07   49.99 
   2  -8   4  207.98   38.40 
   6   2   4  257.07   47.60 
   2  -8   4  187.78  110.59 
   2  -8   4  304.07   46.80 
  -8   6   4  244.48   41.80 
   1   5  -4  119.99   78.19 
   5  -6  -4   96.79   78.39 
  -6   1  -4  -55.69   88.49 
   1   5  -4   56.79   97.19 
   5  -6  -4  106.49   95.99 
  -5   6   4   46.60   23.10 
  -1  -5   4  199.88  106.99 
   6  -1   4   40.10   22.50 
  -1  -5   4   63.09   20.30 
  -5   6   4  -36.20  118.19 
   6  -1   4  100.79  123.39 
   4   2  -4  103.19   78.89 
  -6   4  -4  -20.50   86.49 
   2  -6  -4   94.39   95.79 
   4   2  -4  143.29   98.29 
   2  -6  -4   33.70   98.09 
  -2   6   4  205.48  129.09 
  -4  -2   4   40.30  101.79 
  -2   6   4  149.99   30.00 
   6  -4   4  149.88   28.60 
   6  -4   4   42.00  109.99 
  -4  -2   4  121.39   29.10 
  -6   7  -4  107.59   83.19 
   7  -1  -4   24.10   76.59 
   7  -1  -4  -45.40   92.89 
  -6   7  -4   22.50   98.19 
   1   6   4   91.69   42.50 
   6  -7   4   49.00   23.80 
  -7   1   4  118.59   26.70 
   1   6   4   59.59   24.40 
   6  -7   4   -3.90  100.89 
  -7   1   4  131.29  103.49 
   1   6   4  -88.79  122.49 
  -6  10  -4  172.88   98.39 
  -6  10  -4  253.57   84.39 
  10  -4  -4  133.79  105.99 
   6 -10   4  184.68   39.70 
 -10   4   4  238.48   37.40 
   4   6   4   29.20  121.79 
   6 -10   4  214.48   35.40 
   4   6   4  247.08   53.89 
   4   6   4  230.78   37.40 
   6 -10   4  253.97  109.79 
  -6  13  -4  230.88   80.99 
  13  -7  -4  147.19   96.09 
  -6  13  -4  248.58  109.19 
   7   6   4  289.47   58.89 
   6 -13   4  283.77   48.30 
 -13   7   4  309.57   43.90 
   7   6   4  257.17   48.30 
   7   6   4  225.18   41.80 
  -3  10  -4  489.25  143.49 
  10  -7  -4  528.45  140.59 
  -3  10  -4  875.61  132.09 
 -10   7   4  874.81  106.89 
   7   3   4  823.22  110.99 
   7   3   4  957.70  107.69 
   3 -10   4  860.01  109.89 
 -10   7   4  659.63  168.08 
   7   3   4  730.63  109.99 
   3 -10   4  500.15  155.48 
   0   7  -4  655.73  135.69 
   0   7  -4  783.62  118.69 
   7  -7  -4  264.97  130.69 
  -7   7   4  757.92   91.59 
   7   0   4  532.05  159.08 
   7   0   4  753.12   90.59 
  -7   7   4  594.74  146.89 
   0  -7   4  486.25  141.89 
   0  -7   4  632.64   88.49 
  -7   3  -4  669.43  120.39 
   3   4  -4  633.94  102.19 
   3   4  -4  247.38  114.39 
   4  -7  -4  473.25  119.59 
   4  -7  -4  559.44  106.39 
  -3  -4   4  187.88  118.29 
   7  -3   4  351.76  133.39 
   7  -3   4  419.36   64.79 
  -3  -4   4  446.86   64.29 
  -4   7   4  430.56  143.09 
  -4   7   4  549.35   66.79 
   6   1  -4  -63.29   67.69 
   6   1  -4  178.68  109.59 
  -7   6  -4  122.99   85.59 
  -1   7   4   52.19   23.60 
  -6  -1   4   61.39   22.00 
  -1   7   4   38.90   41.60 
   7  -6   4   23.60   21.20 
  -1   7   4   51.49  130.69 
  -6  -1   4  106.19   97.59 
   7  -6   4  101.19  107.89 
  -7   9  -4   69.39  104.39 
  -7   9  -4   86.39   81.99 
   9  -2  -4  139.09  105.59 
   2   7   4   34.80   21.00 
   7  -9   4   85.69  103.59 
   7  -9   4   50.79   24.40 
   2   7   4   24.10  122.69 
   7  -9   4   37.40   21.30 
   2   7   4   48.90   42.70 
  -9   2   4   36.90   20.80 
  12  -5  -4  115.19  102.49 
  -7  12  -4  -37.10   95.59 
  -7  12  -4  122.39   74.39 
   7 -12   4   51.79   21.40 
   5   7   4   69.99   41.50 
   7 -12   4   28.40  101.59 
 -12   5   4   64.29   22.00 
   5   7   4   25.60  120.89 
   5   7   4   66.19   22.30 
   7 -12   4   56.39   31.70 
   5   7   4   62.39   35.00 
  -7  15  -4   84.99   67.39 
  -7  15  -4   52.09   93.69 
   7 -15   4   30.80   28.40 
   8   7   4  -14.20   38.90 
   8   7   4   34.30   31.00 
 -15   8   4   66.09   21.00 
   8   7   4   36.90   21.40 
  12  -8  -4  112.79   91.69 
  -4  12  -4   50.79   91.59 
  -4  12  -4  277.97   87.29 
   4 -12   4  242.98   40.80 
   8   4   4  150.38   33.60 
   8   4   4  190.68   49.60 
 -12   8   4  203.88   33.40 
   8   4   4  164.58   44.80 
   4 -12   4  -49.90  104.99 
  -1   9  -4  207.58   41.40 
   9  -8  -4  205.28   99.09 
  -1   9  -4  167.68  109.49 
  -1   9  -4  214.78   80.29 
  -9   8   4   18.80  115.79 
   1  -9   4   80.29  109.19 
   1  -9   4  156.38   39.70 
   8   1   4  300.47   44.10 
   8   1   4  201.68   36.40 
  -9   8   4  206.28   35.40 
  -8   2  -4  324.17   95.49 
   6  -8  -4  212.08  105.29 
   2   6  -4  186.08  106.39 
   2   6  -4  296.27   81.89 
   8  -2   4  175.68  124.39 
  -2  -6   4  245.68   37.80 
  -6   8   4  219.28   40.20 
  -2  -6   4  169.38  109.09 
   8  -2   4  255.67   40.80 
  -6   8   4  417.26  132.39 
   3  -8  -4  -34.90  105.19 
   5   3  -4    0.60   80.39 
   5   3  -4   -2.30   97.19 
  -8   5  -4  -10.80   83.69 
  -5  -3   4  -17.80  100.29 
  -3   8   4   -6.60   35.90 
   8  -5   4   -7.50  105.09 
  -3   8   4  -11.20   20.10 
  -3   8   4   10.80  127.89 
  -5  -3   4   13.80   18.80 
   8  -5   4  -29.10   20.00 
   8   0  -4 -167.68   88.39 
  -8   8  -4   82.19  101.29 
   8   0  -4   72.29   71.79 
  -8   8  -4  232.68   84.59 
   0   8   4   33.20  122.39 
   8  -8   4  159.08  106.39 
  -8   0   4   38.70   21.90 
   8  -8   4   27.50   22.00 
   0   8   4   -2.90   20.80 
   8  -8   4  -23.90   19.20 
   0   8   4   36.00   38.70 
  -8  11  -4 -135.69   85.09 
  11  -3  -4   84.99   89.99 
  -8  11  -4  -12.00   99.19 
   8 -11   4  -26.80   17.10 
   3   8   4 -135.79  118.19 
   3   8   4  -12.70   19.40 
   3   8   4  -70.19   44.10 
   8 -11   4  -77.49   97.89 
 -11   3   4   18.80   19.40 
   8 -11   4    7.40   24.80 
  14  -6  -4  -88.39   93.89 
  -8  14  -4  -70.59   87.59 
  -8  14  -4   23.50   77.89 
 -14   6   4    7.50   18.80 
   6   8   4   42.10   29.30 
   8 -14   4   16.70   28.90 
   6   8   4    0.20   40.90 
   6   8   4   67.59  117.49 
   6   8   4   16.50   20.10 
  -8  17  -4   31.30   75.89 
  -8  17  -4  -75.29   40.00 
   9   8   4  -27.60   17.80 
   9   8   4   30.60   45.60 
   8 -17   4  -64.99   29.40 
   9   8   4  -24.80   34.30 
 -17   9   4   35.20   18.20 
  -5  14  -4   79.29   71.59 
  -5  14  -4   48.10   41.60 
  -5  14  -4   99.29   99.09 
 -14   9   4   90.59   23.40 
   9   5   4   56.99   25.60 
   5 -14   4   55.99   33.70 
   9   5   4   68.99   34.90 
   9   5   4   74.09   44.10 
  -2  11  -4  244.68   48.90 
  -2  11  -4  265.27   81.79 
  -2  11  -4  -51.99   95.49 
 -11   9   4  274.97   42.80 
   2 -11   4  246.78  115.09 
   9   2   4  376.96   51.69 
 -11   9   4  216.18  117.09 
   9   2   4  287.37   43.30 
   2 -11   4  246.88   48.00 
   8  -9  -4  168.58   87.09 
   1   8  -4  214.88  114.89 
   1   8  -4  272.57   79.99 
  -1  -8   4  212.18  112.29 
  -8   9   4  231.88   35.80 
   9  -1   4  117.09  122.49 
   9  -1   4  175.88   34.70 
  -1  -8   4  172.48   39.30 
  -8   9   4   78.49  124.49 
  -9   4  -4   99.69   90.69 
   4   5  -4  272.07   77.79 
   5  -9  -4  149.39   89.69 
   5  -9  -4   69.69   91.49 
   4   5  -4   48.40   96.19 
   9  -4   4  162.08  117.09 
  -4  -5   4  189.98  106.69 
  -5   9   4  217.48   48.60 
  -5   9   4  181.08   33.30 
   9  -4   4  165.38   34.30 
  -5   9   4  170.78  132.29 
  -9   7  -4   90.39   94.59 
   7   2  -4  -47.60   71.69 
   7   2  -4  109.89   94.79 
   9  -7   4   70.49   23.60 
  -2   9   4   52.69   44.50 
  -2   9   4  111.09  131.89 
  -2   9   4   34.60   22.90 
  -7  -2   4   64.59   23.00 
   9  -7   4    3.10  103.39 
  10  -1  -4   41.00  102.69 
  -9  10  -4 -120.29   86.49 
  -9  10  -4   18.50   91.69 
   1   9   4  146.29  129.29 
   1   9   4  -27.90   21.80 
   1   9   4   -3.40   39.00 
 -10   1   4   16.80   19.20 
   9 -10   4    4.60   19.00 
   9 -10   4   17.40  101.49 
  13  -4  -4  139.89  105.19 
  -9  13  -4    6.20   70.69 
  -9  13  -4   19.40   91.99 
   4   9   4  117.59  126.49 
   9 -13   4    2.40   18.90 
   4   9   4   20.00   45.80 
   9 -13   4   33.80   29.30 
 -13   4   4   15.20   18.50 
   4   9   4    7.20   19.00 
  -9  16  -4  -13.50   63.99 
   7   9   4   40.50  133.99 
 -16   7   4   52.29   20.00 
   9 -16   4   77.49   33.20 
   7   9   4   -1.60   28.30 
   7   9   4  -43.50   39.70 
   7   9   4    2.50   21.40 
  -9  19  -4   25.20   38.40 
  -9  19  -4   20.00   70.89 
 -19  10   4   48.00   19.30 
  10   9   4   44.50   44.50 
  10   9   4   27.00   32.00 
   9 -19   4  -49.20   29.30 
  -6  16  -4  115.39   97.39 
  -6  16  -4   99.39   40.30 
  -6  16  -4   15.30   68.99 
  10   6   4   44.00   35.10 
 -16  10   4   91.69   23.00 
   6 -16   4   99.69   34.10 
  10   6   4   65.49   25.50 
  -3  13  -4  878.61  133.49 
  -3  13  -4  350.96  138.09 
  -3  13  -4  864.81  111.59 
   3 -13   4  765.02  106.69 
  10   3   4  749.73  107.39 
 -13  10   4  764.72  102.29 
  10   3   4  806.42  102.69 
   0  10  -4 1240.68  161.88 
   0  10  -4  871.51  180.58 
   0  10  -4 1035.20  138.99 
  10   0   4 1090.49  140.29 
   0 -10   4 1013.50  140.49 
  10   0   4 1159.48  136.79 
 -10  10   4 1156.68  136.49 
 -10  10   4  747.73  173.38 
   0 -10   4  655.73  180.58 
  10   0   4  705.33  191.38 
   3   7  -4  525.95  147.49 
   3   7  -4  908.71  129.19 
 -10   3  -4  876.31  140.39 
  10  -3   4  645.34  164.58 
  -3  -7   4  582.44  154.38 
  10  -3   4  905.11  106.89 
  -7  10   4  682.33  164.48 
  -7  10   4  826.92  112.49 
  -7  10   4  787.32  106.09 
 -10   6  -4  295.67   91.29 
   6   4  -4  221.08  116.39 
   4 -10  -4  194.38  102.79 
   6   4  -4  181.58   78.29 
  -4  10   4  180.18   34.90 
  10  -6   4   85.19  109.79 
  -4  10   4   36.30  134.29 
  -6  -4   4  192.48  104.69 
  -4  10   4  194.28   52.49 
  10  -6   4  216.38   35.70 
   9   1  -4   88.59   68.79 
   9   1  -4    1.90   93.09 
 -10   9  -4   59.59   79.79 
  -9  -1   4   19.10   20.90 
  10  -9   4   14.70   20.10 
  -1  10   4    9.40   23.00 
  -1  10   4 -183.88  130.09 
  10  -9   4  -28.50  100.19 
  -1  10   4   71.99   45.60 
 -10  12  -4  -61.79   96.79 
 -10  12  -4   35.90   72.09 
  12  -2  -4  -18.60  103.69 
   2  10   4    4.00   18.30 
   2  10   4  -10.30  125.59 
 -12   2   4   21.80   20.90 
  10 -12   4  -70.89   99.19 
   2  10   4  -17.50   39.50 
  10 -12   4  -11.00   17.10 
  15  -5  -4   31.80  102.39 
 -10  15  -4   17.80   90.49 
 -10  15  -4   -1.10   73.59 
   5  10   4   25.30   41.80 
 -15   5   4   33.30   21.00 
   5  10   4   15.30   19.40 
   5  10   4   10.10  119.49 
 -10  18  -4   -1.80   38.40 
 -10  18  -4   61.69   72.99 
 -18   8   4   31.50   18.00 
   8  10   4  -15.80   31.60 
   8  10   4  -10.60   40.20 
  10 -18   4  -14.80   28.90 
 -10  21  -4   55.29   73.59 
 -10  21  -4  -12.30   40.80 
 -21  11   4   38.20   20.60 
  10 -21   4  -27.10   31.10 
  11  10   4    8.10   32.30 
  -7  18  -4    8.00   38.30 
  -7  18  -4  153.78   74.89 
  11   7   4   15.40   32.50 
  11   7   4  -26.50   20.70 
   7 -18   4   12.20   30.50 
 -18  11   4  -15.30   18.50 
  -4  15  -4  127.79   75.99 
  -4  15  -4  209.98   43.90 
  -4  15  -4   81.29   98.59 
   4 -15   4  154.78   37.70 
  11   4   4  124.69   29.90 
 -15  11   4  115.99   28.00 
  11   4   4  183.08   41.80 
  -1  12  -4  357.46   54.09 
  -1  12  -4  123.69  101.89 
  -1  12  -4  166.48   80.59 
  11   1   4  284.47  135.19 
 -12  11   4  280.17   43.20 
 -12  11   4  -34.90  103.99 
   1 -12   4  212.48   48.60 
   1 -12   4  245.48  114.99 
  11   1   4  346.37   52.49 
  11   1   4  306.27   44.30 
   2   9  -4  308.47  110.79 
   2   9  -4  344.97   82.39 
  11  -2   4  187.78  127.09 
  -9  11   4  213.18  128.29 
  -2  -9   4  315.97   51.89 
  11  -2   4  337.97   47.40 
  -9  11   4  271.27   58.59 
  -2  -9   4   83.79  108.49 
  -9  11   4  288.67   45.70 
   5   6  -4  -57.89   90.69 
 -11   5  -4  200.08   88.69 
   5   6  -4   -4.90   69.69 
  -5  -6   4  -13.10   97.19 
  -6  11   4   90.49  144.69 
  -6  11   4  103.09   24.60 
  11  -5   4   62.29   24.40 
  11  -5   4  -99.19  102.79 
  -6  11   4  110.79   44.00 
   8   3  -4   34.50   66.79 
   8   3  -4  -63.09   88.59 
 -11   8  -4   51.19   92.89 
  -3  11   4   32.10   44.50 
  -3  11   4    2.20   19.90 
  11  -8   4   28.10   22.90 
  -3  11   4  144.69  133.99 
  11  -8   4  -44.00   44.50 
  11  -8   4   66.99  100.29 
 -11  11  -4   11.10   95.89 
  11   0  -4  -25.90   97.79 
 -11  11  -4   -6.60   81.69 
   0  11   4    6.80   19.60 
  11 -11   4    1.30   98.89 
   0  11   4   58.89   41.60 
   0  11   4 -200.58  117.49 
  11 -11   4   -7.80   18.50 
  14  -3  -4   40.60  106.99 
 -11  14  -4   37.10   90.79 
 -11  14  -4    5.00   67.19 
  11 -14   4    5.70   20.00 
 -14   3   4  -11.80   19.40 
   3  11   4   -4.50   41.40 
   3  11   4  -33.40  121.79 
   3  11   4   -7.10   20.00 
  17  -6  -4   68.59  109.29 
 -11  17  -4   56.19   70.39 
   6  11   4  113.69  122.89 
   6  11   4   36.70   29.30 
   6  11   4  113.89   48.10 
   6  11   4   27.10   20.60 
 -17   6   4   91.09   23.00 
 -11  20  -4   26.60   71.39 
 -11  20  -4    7.80   38.30 
   9  11   4   -7.20   29.70 
 -20   9   4   35.90   20.10 
   9  11   4  -87.39   42.90 
 -11  23  -4   73.99   68.99 
 -11  23  -4   -9.70   46.30 
  12  11   4   65.89   34.70 
  -8  20  -4  -99.19   70.89 
  -8  20  -4 -132.79   37.80 
  12   8   4   16.50   34.40 
 -20  12   4   52.69   21.90 
   8 -20   4  -27.60   30.90 
  -5  17  -4 -130.49   66.69 
  -5  17  -4  -28.40   41.80 
  12   5   4   16.10   20.40 
  12   5   4   41.00   36.10 
 -17  12   4   50.39   19.80 
   5 -17   4   16.00   31.40 
  -2  14  -4  162.28   40.70 
  -2  14  -4  126.09   75.69 
  -2  14  -4  117.79   92.09 
 -14  12   4  134.89   28.30 
  12   2   4  168.58   41.50 
   2 -14   4  135.39   37.00 
  12   2   4  103.89   29.30 
 -14  12   4  107.29  112.89 
   1  11  -4  165.68   99.49 
   1  11  -4  355.06   83.99 
   1  11  -4  297.17   47.90 
  12  -1   4  251.17   48.90 
 -11  12   4  213.28   37.50 
 -11  12   4  106.29  107.89 
  -1 -11   4  264.57  113.19 
  12  -1   4  327.17  128.89 
  12  -1   4  185.58   38.30 
  -1 -11   4  191.28   44.90 
   4   8  -4  168.48  105.19 
   4   8  -4  198.18   79.29 
 -12   4  -4   86.69   94.29 
  -4  -8   4  188.08   42.60 
  12  -4   4  201.18   38.00 
  -4  -8   4  137.39  106.79 
  -8  12   4  159.28  128.19 
  -8  12   4  239.48   53.59 
  12  -4   4  203.68  115.19 
  -8  12   4  284.27   38.10 
 -12   7  -4   78.79   97.59 
   7   5  -4  -28.00   73.79 
   7   5  -4  143.49   99.99 
  -5  12   4   54.39   22.70 
  12  -7   4   76.99   26.60 
  -5  12   4   57.99   40.90 
  -5  12   4   69.89  129.39 
  12  -7   4   63.09  107.09 
  10   2  -4 -112.09   64.49 
 -12  10  -4  211.08   88.99 
  10   2  -4  -33.70   96.89 
  -2  12   4 -103.79  125.69 
  -2  12   4    0.80   21.60 
  12 -10   4   42.60   20.80 
  12 -10   4   65.09  102.99 
  -2  12   4   13.80   41.20 
 -12  13  -4   33.60   76.29 
 -12  13  -4  -85.89   82.49 
  13  -1  -4 -131.99  103.69 
   1  12   4   -2.80   20.10 
   1  12   4  -20.20   40.60 
  12 -13   4  -32.00   18.10 
   1  12   4   92.79  123.39 
  16  -4  -4  210.58  101.99 
 -12  16  -4  107.59   63.39 
   4  12   4   85.09   48.30 
   4  12   4  105.29  121.69 
   4  12   4   45.70   23.40 
 -16   4   4   45.90   19.60 
 -12  19  -4  165.68   71.39 
   7  12   4   49.90   47.30 
 -19   7   4   57.39   22.10 
   7  12   4   79.29  119.29 
   7  12   4   33.00   33.40 
 -12  22  -4  108.79   47.70 
 -22  10   4   36.70   22.20 
  10  12   4   57.09   36.20 
  10  12   4   45.50   44.90 
  -9  22  -4   56.89   66.09 
  -9  22  -4   47.50   46.50 
  13   9   4   42.10   39.60 
  -6  19  -4 -123.59   37.20 
  -6  19  -4  -39.30   69.69 
  13   6   4  -28.00   18.30 
 -19  13   4   17.30   19.60 
  13   6   4  -56.39   33.40 
   6 -19   4   18.70   33.60 
  -3  16  -4  304.07   94.09 
  -3  16  -4  235.48  111.79 
  -3  16  -4  262.77   54.89 
  13   3   4  340.47   48.30 
  13   3   4  344.57   56.39 
 -16  13   4  238.88   45.10 
   3 -16   4  317.37   54.59 
   0  13  -4  778.02  107.99 
   0  13  -4  646.44  153.98 
   0  13  -4  822.82  127.99 
  13   0   4  908.81  109.59 
   0 -13   4  743.53  107.99 
 -13  13   4  639.44  158.48 
 -13  13   4  714.13  102.39 
  13   0   4  780.82  104.79 
   3  10  -4  533.15  150.68 
   3  10  -4  811.52  125.99 
  13  -3   4  448.56  153.08 
  13  -3   4  782.92   97.29 
 -10  13   4  458.75  147.69 
 -10  13   4  856.91  104.99 
  -3 -10   4  745.13  100.79 
 -10  13   4  770.92   96.29 
  -3 -10   4  311.07  139.29 
   6   7  -4  195.58   78.59 
 -13   6  -4  326.87   95.19 
   6   7  -4  219.78  110.89 
  -7  13   4  214.88   41.10 
  -7  13   4  288.97   56.09 
  -6  -7   4  319.57   47.60 
  13  -6   4   49.80  105.19 
  13  -6   4  243.58   41.10 
  -7  13   4   44.80  116.59 
   9   4  -4   -1.10   62.69 
 -13   9  -4  -34.40   89.59 
   9   4  -4  -91.79  108.29 
  13  -9   4    6.50   19.90 
  13  -9   4  -29.30  100.99 
  -4  13   4  162.28  148.69 
  -4  13   4  132.29   47.20 
  -4  13   4   10.00   19.50 
 -13  12  -4   23.00   81.59 
  12   1  -4  -38.80   98.79 
  -1  13   4  -46.80   40.10 
  -1  13   4  -32.20   19.80 
  -1  13   4   44.70  130.09 
  13 -12   4   11.90   22.10 
 -13  15  -4    0.80   62.39 
  15  -2  -4    4.40  109.29 
  13 -15   4  -19.80   20.00 
   2  13   4  -20.30   17.20 
   2  13   4  -12.00  124.39 
   2  13   4   -9.60   45.50 
 -13  18  -4   -9.50   67.09 
  18  -5  -4  121.59  111.09 
   5  13   4  -20.10   46.30 
   5  13   4   77.69  134.79 
 -13  21  -4   -6.30   43.50 
   8  13   4   30.00   41.00 
   8  13   4    9.90   29.70 
  -7  21  -4  126.69   76.39 
  -7  21  -4  -21.90   39.50 
 -21  14   4   26.90   19.50 
  14   7   4   -5.80   39.30 
   7 -21   4  -30.10   33.70 
  -4  18  -4   22.60   43.30 
  -4  18  -4  -37.10   80.69 
  14   4   4  -41.00   36.30 
   4 -18   4   10.70   32.20 
  14   4   4   17.60   20.30 
 -18  14   4   59.89   21.20 
  -1  15  -4   93.89   78.89 
  -1  15  -4  141.59  108.29 
  -1  15  -4  140.69   41.00 
  14   1   4  146.09   46.40 
   1 -15   4   76.39   36.90 
 -15  14   4   18.60  118.49 
  14   1   4  135.89   29.90 
 -15  14   4  147.39   28.50 
   2  12  -4  175.58  113.99 
   2  12  -4   70.69   78.89 
   2  12  -4  165.48   43.10 
  14  -2   4  101.49   30.50 
 -12  14   4  151.28  111.19 
  -2 -12   4  133.69   38.60 
 -12  14   4  163.38   30.20 
 -12  14   4  249.68   50.49 
 -14   5  -4  115.09   89.59 
   5   9  -4   71.09   73.19 
   5   9  -4   77.29  100.99 
  -9  14   4  -18.40  125.69 
  14  -5   4  260.87  115.19 
  -9  14   4  103.99   26.50 
  14  -5   4  149.19   28.90 
  -9  14   4  129.79   43.30 
  -5  -9   4   75.39   33.90 
 -14   8  -4  -47.60   87.49 
   8   6  -4   35.30  111.29 
   8   6  -4  -96.49   75.29 
  14  -8   4   68.59  103.99 
  -6  14   4  -28.50   20.00 
  -6  14   4   37.40   46.00 
  14  -8   4    6.20   19.70 
  -8  -6   4    7.40   30.10 
  -6  14   4  -12.70  113.39 
  11   3  -4    0.10   66.99 
  11   3  -4  -68.39   97.99 
 -14  11  -4 -110.19   83.09 
  -3  14   4   16.60   19.10 
  -3  14   4   80.49   47.90 
  -3  14   4  138.59  132.39 
  14 -11   4  -15.50   22.40 
  14   0  -4  136.59  116.59 
 -14  14  -4  -61.09   69.69 
 -14  14  -4   47.60   99.49 
   0  14   4   68.99   44.10 
   0  14   4   13.00   17.80 
  14 -14   4   13.40   21.50 
   0  14   4  132.19  124.79 
  17  -3  -4  432.26  126.89 
   3  14   4  197.18  130.69 
   3  14   4  243.48   57.29 
   6  14   4  -67.39  116.99 
   6  14   4  185.28   49.30 
  -5  20  -4  -44.40   38.60 
  -5  20  -4   77.99   73.69 
   5 -20   4  -24.70   33.40 
  15   5   4  -53.69   35.70 
 -20  15   4   38.00   22.20 
  -2  17  -4  123.19   47.00 
  -2  17  -4   12.30   76.59 
 -17  15   4   41.30  104.79 
  15   2   4  121.99   30.50 
  15   2   4  104.39   42.60 
   2 -17   4   93.19   39.30 
 -17  15   4  200.08   31.20 
   1  14  -4  182.08   41.20 
   1  14  -4   95.09   79.29 
   1  14  -4  -14.20  103.69 
 -14  15   4  122.19   43.20 
 -14  15   4   37.10  113.09 
  15  -1   4  163.98   43.00 
  -1 -14   4  124.39   40.50 
  15  -1   4   90.89   27.80 
 -14  15   4  122.69   27.50 
   4  11  -4   87.89  101.79 
   4  11  -4  176.68   79.49 
 -11  15   4  103.39  129.59 
 -11  15   4  137.99   47.70 
  15  -4   4  173.38   33.60 
  -4 -11   4   79.59   37.00 
 -11  15   4  172.08   31.10 
   7   8  -4  -29.90   68.29 
 -15   7  -4  175.88   95.19 
   7   8  -4  -67.69   98.79 
  -8  15   4   41.80   22.30 
  -8  15   4   -1.30   44.70 
  -7  -8   4   20.40   29.30 
  -8  15   4  129.39  130.29 
  15  -7   4   -0.30   21.50 
  10   5  -4   81.89  103.99 
  10   5  -4  -70.49   71.89 
 -15  10  -4   15.00   81.99 
  -5  15   4   90.39  132.99 
 -10  -5   4   87.79   30.10 
  -5  15   4   29.20   20.00 
  15 -10   4   33.70   22.50 
  -5  15   4  -22.20   46.70 
  13   2  -4   56.39  100.89 
 -15  13  -4  -54.59   71.49 
  -2  15   4  -65.59   45.80 
  -2  15   4   -6.70   19.50 
  15 -13   4    3.30   20.00 
  -2  15   4  -84.49  122.79 
  16  -1  -4  140.69  107.19 
   1  15   4  116.79   44.10 
   1  15   4   20.90  126.29 
  15 -16   4   54.69   25.90 
  19  -4  -4  107.49  109.39 
   4  15   4  306.97  125.29 
   4  15   4   57.89   49.90 
 -15  22  -4  141.19   46.60 
   7  15   4   36.80   48.40 
   7  15   4  -39.00  111.69 
   7  15   4   62.89   30.50 
  -6  22  -4   17.80   43.30 
  -6  22  -4   90.79   81.79 
  16   6   4   14.70   39.20 
  -3  19  -4   73.69   74.39 
  -3  19  -4   65.59   45.00 
   3 -19   4   33.30   39.40 
  16   3   4    0.00   22.30 
 -19  16   4   72.69   22.60 
  16   3   4   19.90   43.20 
   0  16  -4  470.15   75.09 
   0  16  -4  195.98  126.99 
   0  16  -4  478.65  109.99 
 -16  16   4  547.95   69.29 
 -16  16   4  311.37  140.79 
   0 -16   4  485.45   76.19 
  16   0   4  457.15   74.69 
  16   0   4  484.65   69.59 
   3  13  -4  243.48   58.39 
   3  13  -4  410.16   96.79 
   3  13  -4  102.79  111.69 
 -13  16   4  315.17   47.90 
 -13  16   4  281.87   62.99 
 -13  16   4  216.58  124.39 
  16  -3   4  327.67   49.00 
  -3 -13   4  384.06   60.19 
 -16   6  -4  122.29   88.09 
   6  10  -4  126.99  106.09 
   6  10  -4  149.29   86.39 
  -6 -10   4   79.49   35.70 
 -10  16   4  140.39   26.60 
 -10  16   4   63.29  113.19 
 -10  16   4  116.29   48.60 
  16  -6   4   86.49   28.00 
 -16   9  -4  -61.79   88.29 
   9   7  -4  106.59  105.49 
   9   7  -4  -24.90   67.29 
  -9  -7   4   45.80   32.60 
  -7  16   4   24.70   46.10 
  16  -9   4   37.90   22.40 
  -7  16   4    0.90   18.70 
  -7  16   4   43.10  119.89 
  12   4  -4   -9.90  116.99 
 -16  12  -4   25.10   81.69 
  12   4  -4  159.28   71.69 
  -4  16   4   58.99  135.29 
  16 -12   4   46.70   24.20 
 -12  -4   4   97.39   34.70 
  -4  16   4   60.39   24.10 
  -4  16   4  102.09   49.80 
  15   1  -4  263.57  126.99 
  -1  16   4  272.37  134.99 
  -1  16   4   66.39   23.70 
  -1  16   4   73.89   44.60 
  16 -15   4   77.49   24.40 
  18  -2  -4  353.16  119.09 
   2  16   4   94.79   47.00 
   2  16   4  161.48  122.99 
   5  16   4  141.99  117.89 
   5  16   4   64.69   44.20 
  -4  21  -4  101.29   49.40 
  -4  21  -4   15.50   74.99 
  17   4   4  105.49   46.70 
  -1  18  -4  135.99   77.19 
  -1  18  -4   91.49   46.70 
  17   1   4   79.39   39.90 
 -18  17   4   51.79  118.09 
  17   1   4   11.90   23.20 
   1 -18   4   17.40   33.50 
 -18  17   4   52.79   23.10 
   2  15  -4  226.98   88.09 
   2  15  -4    5.50  111.49 
   2  15  -4  130.59   46.40 
 -15  17   4  116.29   49.99 
 -15  17   4   97.79  115.49 
  17  -2   4  157.28   33.60 
 -15  17   4  156.18   28.90 
  -2 -15   4   82.89   39.50 
  17  -2   4   66.79   43.40 
   5  12  -4  -36.40  101.69 
 -17   5  -4  -11.80   87.29 
   5  12  -4  -70.99   79.49 
  -5 -12   4    3.10   31.40 
 -12  17   4    8.70   18.80 
 -12  17   4  121.89  117.39 
 -12  17   4    7.90   44.40 
  17  -5   4    5.20   22.50 
   8   9  -4  -18.10  102.69 
 -17   8  -4   -5.40   90.79 
   8   9  -4  -22.80   79.09 
  -9  17   4 -214.58  110.99 
  -9  17   4   10.30   46.20 
  -9  17   4   30.20   19.00 
  -8  -9   4   12.10   31.20 
  17  -8   4   -0.90   23.90 
  11   6  -4  154.88   67.09 
  11   6  -4   70.09  118.49 
 -11  -6   4   47.00   32.90 
  -6  17   4  -54.69  118.39 
  -6  17   4   41.10   19.90 
  17 -11   4   54.79   23.80 
  -6  17   4   16.10   42.10 
  14   3  -4   61.79  110.69 
  -3  17   4  198.98   50.79 
  17 -14   4  175.48   33.40 
  -3  17   4  210.08  134.19 
  -3  17   4  144.49   31.50 
 -14  -3   4  165.68   41.30 
  17   0  -4  517.55  156.78 
 -17   0   4  748.23  101.89 
   0  17   4  723.53  109.19 
  17 -17   4  774.22   99.19 
   0  17   4  568.14  165.58 
   3  17   4  506.45   85.69 
   3  17   4  551.94  144.69 
  -2  20  -4  -22.90   41.60 
  -2  20  -4   -8.60   76.49 
  18   2   4   19.10   22.70 
  18   2   4   52.89   40.50 
   1  17  -4  141.59   45.30 
   1  17  -4   84.29   78.29 
   1  17  -4   71.29  110.49 
  -1 -17   4    5.70   38.60 
 -17  18   4 -147.59  105.99 
 -17  18   4   52.89   45.70 
  18  -1   4   39.80   25.20 
 -17  18   4   50.19   21.70 
  18  -1   4   68.69   41.10 
   4  14  -4  158.48   87.49 
   4  14  -4  -36.80   97.39 
 -14  18   4   62.09  130.89 
  -4 -14   4   56.99   38.10 
 -14  18   4   88.09   47.60 
 -14  18   4   -8.00   19.30 
  18  -4   4   28.00   23.50 
   7  11  -4  -16.60  103.09 
   7  11  -4   34.30   81.59 
 -18   7  -4  176.38   97.79 
  18  -7   4    3.80   25.10 
 -11  18   4  -31.90   44.60 
  -7 -11   4   35.60   33.20 
 -11  18   4   15.50   19.70 
 -11  18   4 -135.79  116.89 
  10   8  -4    9.50   68.29 
  10   8  -4  -28.40  104.09 
  -8  18   4   -9.60   17.10 
  -8  18   4   23.80   47.00 
  18 -10   4  -13.10   24.10 
 -10  -8   4   47.70   31.90 
  -8  18   4  -55.29  115.19 
  13   5  -4   47.00   67.59 
  13   5  -4  -22.00  102.59 
  -5  18   4  117.89  135.19 
  18 -13   4  -10.60   22.30 
 -13  -5   4   67.49   30.60 
  -5  18   4   -8.50   20.30 
  -5  18   4  -24.40   40.80 
  16   2  -4  203.28  114.29 
  18 -16   4  142.29   33.50 
  -2  18   4  149.29  131.49 
  -2  18   4  153.28   54.89 
 -16  -2   4  195.68   39.30 
   1  18   4   32.00  138.09 
   1  18   4  124.19   51.89 
   0  19  -4   25.80   86.89 
   0  19  -4    5.60   46.90 
 -19  19   4  -58.19   46.00 
 -19  19   4   26.90  111.29 
  19   0   4   20.20   24.10 
  19   0   4   30.20   43.90 
   3  16  -4   86.19   79.19 
   3  16  -4  157.18  117.19 
   3  16  -4  106.39   45.90 
  -3 -16   4   63.79   36.60 
 -16  19   4   46.80   23.50 
 -16  19   4  -13.00   42.20 
  19  -3   4   89.89   27.50 
 -16  19   4  -21.00  113.99 
 -19   6  -4  -32.50   97.19 
   6  13  -4   55.29   84.69 
   6  13  -4  -10.50  104.99 
 -13  19   4   12.20   20.10 
 -13  19   4   23.00   47.90 
  -6 -13   4   -1.40   31.80 
 -13  19   4 -157.98  134.29 
  19  -6   4  -15.50   21.30 
   9  10  -4   55.49   81.59 
   9  10  -4   67.09  125.29 
  -9 -10   4   72.39   34.90 
 -10  19   4    3.50   46.40 
 -10  19   4  104.19  121.29 
  19  -9   4  -22.00   21.60 
 -10  19   4   38.20   21.40 
  12   7  -4   45.80   66.39 
  12   7  -4   29.20  125.09 
  -7  19   4   50.19   21.20 
  -7  19   4   74.09   43.50 
  19 -12   4   96.79   28.80 
  -7  19   4   76.69  135.09 
 -12  -7   4   84.59   35.60 
  15   4  -4   28.40  107.79 
 -15  -4   4   82.79   34.50 
  -4  19   4    5.60   42.70 
  -4  19   4  231.58  136.89 
  19 -15   4   40.70   24.50 
  -1  19   4   31.70  144.29 
  -1  19   4  170.58   53.99 
  19 -18   4  155.28   35.50 
   2  18  -4   59.19   42.20 
   2  18  -4   81.89   78.89 
 -18  20   4 -211.88  109.79 
  20  -2   4  -26.20   41.10 
 -18  20   4  126.19   52.19 
   5  15  -4  -51.29  101.89 
   5  15  -4   15.90   77.29 
 -20   5  -4 -119.39  104.89 
 -15  20   4   12.10   49.10 
  -5 -15   4  -55.39   35.10 
 -15  20   4  101.39  119.69 
 -15  20   4   18.50   20.60 
  20  -5   4   -2.90   22.00 
   8  12  -4  -25.70   73.79 
   8  12  -4    8.30  109.89 
 -12  20   4   13.60   20.30 
  20  -8   4    0.90   22.80 
 -12  20   4  -60.59   46.80 
  -8 -12   4    5.60   35.70 
 -12  20   4  -69.19  123.99 
  11   9  -4   77.69   69.59 
  11   9  -4   76.99  111.59 
 -11  -9   4   52.09   34.00 
  20 -11   4  -31.50   22.40 
  -9  20   4    0.30   18.70 
  -9  20   4   -1.40   41.90 
  -9  20   4   33.20  119.59 
  14   6  -4   56.09  105.79 
  14   6  -4  119.69   71.09 
  20 -14   4   85.69   28.70 
  -6  20   4  126.89   51.59 
  -6  20   4  266.77  137.09 
 -14  -6   4   89.79   36.30 
  -3  20   4  423.76  146.99 
  -3  20   4  367.36   75.99 
  20 -17   4  463.95   65.59 
   0  20   4  508.15  152.18 
   0  20   4  695.13  101.29 
   4  17  -4   24.40   44.70 
   4  17  -4  -22.40   88.19 
 -17  21   4   61.69  135.19 
 -17  21   4   14.50   49.30 
   7  14  -4   27.40   77.79 
 -14  21   4    7.80   20.20 
 -14  21   4   53.49  127.69 
 -14  21   4   91.69   49.70 
  21  -7   4   -3.10   27.30 
  -7 -14   4  -24.50   36.20 
  10  11  -4  -58.59   71.79 
 -11  21   4  -44.80   46.30 
 -11  21   4   49.30  123.39 
 -11  21   4  -12.10   17.50 
  21 -10   4  -35.90   22.00 
 -10 -11   4    1.20   35.70 
  13   8  -4   -1.50   66.69 
  -8  21   4   45.90  119.89 
  21 -13   4   47.70   27.70 
 -13  -8   4   46.00   36.90 
  -8  21   4  -66.79   46.00 
  -5  21   4  236.38  137.69 
  -5  21   4    5.80   48.00 
   6  16  -4  -93.29   78.19 
 -16  22   4   45.60   50.99 
 -16  22   4 -106.59  135.69 
   9  13  -4   92.49   86.09 
 -13  22   4  -33.30  142.59 
 -13  22   4   44.30   48.30 
  12  10  -4  -38.50   76.59 
 -10  22   4  -30.70   41.30 
 -10  22   4 -111.69  120.69 
  -7  22   4   50.99  133.59 
  -7  22   4   72.69   49.90 
  11  12  -4   41.10   80.99 
 -12  23   4  -31.50   42.40 
 -12  23   4 -143.49  140.09 
   1   0  -5  152.48  104.19 
  -1   1  -5   42.50   89.99 
   0  -1  -5 -116.99   98.99 
  -1   1  -5   51.39  102.89 
   0  -1  -5  126.09  101.99 
   1   0  -5   16.40   88.59 
   0   1   5   63.99   25.50 
   1  -1   5   69.79   26.00 
  -1   0   5   65.19   25.50 
  -2   0  -5  136.39  117.59 
   2  -2  -5  481.35  108.59 
   0   2  -5   10.60  107.09 
  -2   0  -5  275.27  106.49 
   0   2  -5  386.16  112.09 
   2  -2  -5  222.78  123.29 
   2   0   5  422.36   55.59 
  -2   2   5  375.26   56.79 
   0  -2   5  395.46   55.19 
  -2   3  -5  128.29   92.19 
  -2   3  -5  -93.59   96.69 
  -1  -2  -5   60.89  105.39 
   3  -1  -5  106.49   97.79 
  -1  -2  -5   11.00  103.99 
   3  -1  -5  -54.19  104.69 
   1   2   5  -12.80   22.70 
   2  -3   5  -35.50   23.20 
  -3   1   5   13.40   22.30 
  -1   4  -5  -26.50  104.49 
  -3  -1  -5  240.38  116.69 
   4  -3  -5  296.57  120.69 
   4  -3  -5  101.19   99.99 
  -3  -1  -5  -50.39  112.29 
  -1   4  -5  341.47  106.49 
   1  -4   5  341.67   45.70 
   3   1   5  251.07   44.50 
  -4   3   5  119.09  134.89 
  -4   3   5  351.66   46.70 
   1  -3  -5  188.28  104.99 
  -3   2  -5  -50.69  115.99 
  -3   2  -5 -116.29   92.69 
   2   1  -5  146.49   93.89 
   2   1  -5  -52.79   94.49 
   1  -3  -5 -182.98   97.29 
   3  -2   5   11.00   22.20 
  -1   3   5  -25.40   21.40 
  -2  -1   5   13.70   24.50 
  -2  -3  -5  182.08  118.89 
  -3   5  -5   73.19  108.19 
   5  -2  -5  378.26  100.99 
  -3   5  -5  152.38  109.09 
   5  -2  -5   81.69  112.79 
  -2  -3  -5  300.07  106.69 
   2   3   5  353.46   48.50 
  -5   2   5  275.97   47.40 
   3  -5   5  317.67   46.70 
  -4  -2  -5   22.30  112.29 
   6  -4  -5 -131.29   88.59 
  -2   6  -5  -42.80   96.39 
   6  -4  -5  113.09   86.39 
  -2   6  -5  -96.79   83.39 
   4   2   5   12.90   22.60 
   2  -6   5  -15.10   22.80 
  -6   4   5   16.70   22.50 
  -4   1  -5  221.68  121.09 
   1   3  -5  203.28   93.99 
  -4   1  -5  234.48  118.89 
   3  -4  -5  205.98   96.79 
   3  -4  -5  149.49  109.19 
   1   3  -5  136.59  110.59 
  -1  -3   5  364.16   49.90 
   4  -1   5  368.36   51.89 
  -3   4   5  266.37  125.99 
  -3   4   5  337.17   52.59 
   4   0  -5   74.39  115.29 
   0  -4  -5  411.06  115.19 
   0  -4  -5  173.68  114.49 
  -4   4  -5   -8.20  109.89 
  -4   4  -5  385.16  114.09 
   4   0  -5  341.77  101.59 
   0   4   5  319.07   48.40 
   0   4   5  134.99  134.19 
   4  -4   5  319.27   48.10 
  -4   0   5  327.07   48.50 
   7  -3  -5  318.57   95.89 
  -4   7  -5  344.97  116.69 
  -3  -4  -5  217.98  107.89 
  -4   7  -5  395.16  100.09 
   7  -3  -5  142.39  118.09 
   3   4   5  456.75   63.49 
   3   4   5  327.37   50.49 
  -7   3   5  302.77   49.90 
   4  -7   5  277.17   51.79 
   4  -7   5  290.77   48.20 
  -3   8  -5  355.56   95.19 
  -3   8  -5  173.48  122.19 
  -5  -3  -5  262.27  120.79 
   8  -5  -5  141.19  116.69 
   3  -8   5  359.96   57.79 
  -8   5   5  380.86   53.69 
   5   3   5  350.66   53.89 
   0   5  -5  310.07  160.18 
   5  -5  -5  683.33  140.89 
   0   5  -5  614.34  142.39 
  -5   0  -5  818.22  156.08 
  -5   5   5 1043.80  117.59 
  -5   5   5  504.35  178.28 
   0  -5   5  937.01  116.99 
   5   0   5 1024.00  117.39 
   2  -5  -5  166.28  125.69 
  -5   3  -5   40.90  110.59 
   3   2  -5  166.88  111.29 
  -5   3  -5  140.99  116.09 
   3   2  -5  313.57  102.89 
   2  -5  -5  356.56  111.49 
  -2   5   5  342.37   52.69 
   5  -3   5  459.45   54.59 
  -3  -2   5  348.57   52.19 
  -2   5   5  166.18  131.89 
  -1  -5  -5   67.09   95.29 
   6  -1  -5   71.29   81.29 
  -1  -5  -5  -21.70  104.39 
  -5   6  -5  -19.20   91.09 
   6  -1  -5  -30.10   95.29 
  -5   6  -5  -88.69   98.59 
  -6   1   5   33.70   26.90 
   1   5   5  104.39  126.29 
   1   5   5   34.00   23.80 
   5  -6   5   67.29   25.20 
  -5   9  -5   44.80   96.09 
   9  -4  -5 -113.19  101.29 
  -5   9  -5  -32.30   81.99 
  -4  -5  -5  -34.20  110.39 
   5  -9   5   27.80   22.50 
   5  -9   5   30.00   28.20 
   4   5   5   15.00   22.50 
   4   5   5   12.30   41.70 
  -9   4   5  -17.40   23.60 
  -4  10  -5  144.59   88.59 
  -4  10  -5  291.07  116.99 
  10  -6  -5  129.49  101.79 
 -10   6   5  289.17   45.30 
   6   4   5  308.67   46.60 
   4 -10   5  275.27   50.39 
   7  -6  -5  207.38  104.59 
  -1   7  -5  176.18  115.89 
  -1   7  -5  176.38   89.79 
  -6  -1  -5  215.18  109.09 
   6   1   5  357.46   49.00 
  -7   6   5  263.47   47.90 
  -7   6   5  225.38  122.59 
   1  -7   5  310.97   51.29 
  -6   2  -5   64.39  113.99 
   2   4  -5    3.90   80.09 
   2   4  -5  -26.40   96.19 
   4  -6  -5  -81.19   94.89 
  -6   2  -5    8.20   97.79 
   4  -6  -5   29.90   94.59 
  -4   6   5   18.90   23.80 
   6  -2   5    7.40   23.20 
  -2  -4   5   -4.00   23.40 
  -4   6   5   35.80  121.59 
  -6   5  -5    8.00   92.79 
   1  -6  -5  -41.00  113.59 
   1  -6  -5   38.60   93.59 
   5   1  -5   66.19  112.89 
  -6   5  -5   78.79  107.69 
   5   1  -5  -44.50   85.69 
  -1   6   5  -12.30   21.70 
   6  -5   5    0.60   21.90 
  -5  -1   5   37.40   23.10 
  -1   6   5   49.70  129.59 
   8  -2  -5   46.50  109.49 
  -2  -6  -5   -8.40  110.39 
   8  -2  -5  -64.89   72.99 
  -6   8  -5   98.69  101.49 
  -6   8  -5  134.29   89.59 
   2   6   5  179.38   47.90 
  -8   2   5   96.19   29.40 
   6  -8   5  178.58   35.60 
   6  -8   5  168.88   30.00 
   2   6   5   88.99  131.89 
   2   6   5  126.69   30.70 
  11  -5  -5   95.29  104.29 
  -6  11  -5   60.39   78.69 
  -6  11  -5    6.00   91.59 
   5   6   5   13.30   23.30 
 -11   5   5   37.20   24.30 
   5   6   5   35.90   43.80 
   6 -11   5   64.29   29.70 
  -5  12  -5  118.59   78.79 
  -5  12  -5   14.30  102.79 
  -5  12  -5  102.79   39.70 
   7   5   5  167.38   35.00 
 -12   7   5  180.68   33.50 
   5 -12   5  120.89   36.30 
  -2   9  -5   37.60   87.69 
  -7  -2  -5  -42.00  100.99 
   9  -7  -5  203.98  110.19 
  -2   9  -5  159.88   99.19 
  -9   7   5   -3.90   21.90 
   7   2   5  -57.19   20.60 
   2  -9   5   36.20   27.10 
   1   6  -5  230.78  107.79 
  -7   1  -5  261.67  108.69 
   6  -7  -5  317.57  101.79 
   6  -7  -5   31.30  108.09 
   1   6  -5  131.39   87.29 
  -6   7   5  273.67   45.90 
  -6   7   5   76.09  122.49 
   7  -1   5  359.66   46.70 
  -7   4  -5   59.39  119.59 
   4   3  -5   90.59  109.99 
   3  -7  -5  415.06  112.69 
   3  -7  -5  293.07  122.09 
   4   3  -5  257.97   97.59 
  -7   4  -5  361.26  119.49 
  -4  -3   5  369.56   50.69 
  -3   7   5  359.26   51.89 
  -3   7   5  244.48  131.79 
   7  -4   5  322.87   50.89 
   7   0  -5   71.89  101.29 
   0  -7  -5   37.70  109.09 
   7   0  -5  148.59   77.19 
   0  -7  -5  319.87  112.39 
  -7   7  -5   37.30  106.99 
  -7   7  -5  148.39   96.39 
   7  -7   5  257.47   41.40 
   0   7   5  233.78   41.30 
  -7   0   5  309.37   43.60 
   0   7   5  242.78  136.19 
   0   7   5  296.77   56.09 
  10  -3  -5   64.69   97.59 
  -7  10  -5  317.27  105.39 
  -7  10  -5  137.69   86.49 
   3   7   5   85.59  133.59 
   3   7   5  227.08   46.80 
 -10   3   5  140.69   33.20 
   7 -10   5  130.49   31.20 
   3   7   5  112.39   31.60 
  -7  13  -5  137.79   97.69 
  13  -6  -5   99.59  111.89 
  -7  13  -5  136.79   78.49 
 -13   6   5  155.58   31.40 
   6   7   5  218.78   55.19 
   7 -13   5  153.38   40.80 
   6   7   5  121.49   31.90 
  -6  14  -5  120.89   72.19 
  -6  14  -5   75.19  102.79 
  -6  14  -5   29.30   40.40 
 -14   8   5   56.39   25.10 
   8   6   5   76.09   27.40 
   6 -14   5   60.09   31.10 
  -3  11  -5   58.59   33.90 
  -3  11  -5   31.20   74.99 
  -3  11  -5   46.40   95.99 
   8   3   5   23.20   26.20 
 -11   8   5  -23.30   20.00 
   3 -11   5   32.30   29.30 
   0   8  -5  123.49  111.99 
   0   8  -5  221.88   92.69 
  -8   0  -5  379.46  126.19 
  -8   8   5  388.56   55.89 
   0  -8   5  396.36   59.69 
  -8   8   5   57.59  122.59 
   8   0   5  390.86   55.09 
   5  -8  -5  362.66  107.09 
   5  -8  -5  278.07  120.39 
  -8   3  -5  399.76  125.29 
   3   5  -5  196.98  126.59 
   3   5  -5  222.78   88.69 
  -5   8   5  387.36   53.69 
  -5   8   5   32.80  128.59 
   8  -3   5  370.66   52.89 
   2  -8  -5   28.40  103.49 
   2  -8  -5   53.79  100.69 
   6   2  -5  135.29   82.69 
  -8   6  -5  269.27  110.49 
  -8   6  -5   97.49  111.59 
   6   2  -5  177.58  114.89 
  -2   8   5  135.59   32.40 
   8  -6   5  132.19   30.80 
  -2   8   5  200.18  127.49 
  -8   9  -5   28.20  109.29 
  -8   9  -5   86.99   86.09 
  -1  -8  -5   70.29   95.69 
   9  -1  -5   99.39  108.39 
   9  -1  -5   18.20   74.49 
  -9   1   5   40.90   22.50 
   1   8   5  -67.99  131.99 
   1   8   5    7.30   43.20 
   1   8   5    4.30   23.10 
   8  -9   5   12.60   21.30 
  -8  12  -5  -63.69  103.19 
  -8  12  -5  123.69   77.39 
  12  -4  -5   29.10   97.19 
   4   8   5   31.70   41.20 
 -12   4   5   28.40   23.50 
   4   8   5   37.90   23.20 
  -8  15  -5  174.18   85.49 
  -8  15  -5   37.60  101.99 
  -8  15  -5  271.57   53.49 
   7   8   5  187.18   55.39 
 -15   7   5  219.28   39.40 
   7   8   5  247.78   41.40 
  -7  16  -5  140.99   84.19 
  -7  16  -5  143.49   43.10 
   7 -16   5  101.09   37.10 
   9   7   5  144.79   36.90 
  -4  13  -5   -5.90   72.19 
  -4  13  -5  -28.00  102.89 
  -4  13  -5   20.20   35.60 
   9   4   5   49.70   24.70 
 -13   9   5   82.19   24.60 
   4 -13   5  113.99   34.50 
  -1  10  -5  -65.99  105.59 
  -1  10  -5  -66.09   72.29 
  -9  -1  -5 -111.19  113.49 
   1 -10   5  109.99   32.90 
 -10   9   5  138.29  115.49 
 -10   9   5   75.49   28.20 
   9   1   5   95.09   27.50 
   2   7  -5  -89.09   81.89 
  -9   2  -5  -40.60   99.29 
   2   7  -5  101.09  105.19 
  -7   9   5   23.20   26.00 
  -7   9   5 -117.49  131.09 
   9  -2   5  -25.70   21.90 
  -2  -7   5   68.19   33.00 
  -9   5  -5   56.79   96.29 
   5   4  -5    4.50   79.79 
   4  -9  -5  -85.89   98.49 
   5   4  -5  102.69  115.79 
  -4   9   5   69.89  122.29 
  -4   9   5   -1.30   23.50 
   9  -5   5  -11.50   21.50 
   1  -9  -5  -21.60  105.29 
   8   1  -5   61.19   76.49 
   1  -9  -5  163.08  118.19 
  -9   8  -5  117.09  107.79 
   8   1  -5  -11.80   96.09 
  -9   8  -5  228.98  104.39 
  -1   9   5  130.69   45.70 
   9  -8   5    9.20   22.00 
  -1   9   5  160.68  126.39 
  -1   9   5   32.30   23.60 
  11  -2  -5  142.89  111.59 
  -9  11  -5  -48.90   93.89 
  -9  11  -5   95.89   92.59 
 -11   2   5   -0.40   21.20 
   9 -11   5    4.80   19.60 
   2   9   5  -18.60   43.80 
   2   9   5    2.30  132.19 
   2   9   5  -24.30   20.30 
  14  -5  -5  -79.99  105.69 
  -9  14  -5  -57.19   96.69 
  -9  14  -5  181.58   79.99 
 -14   5   5   50.49   23.70 
   5   9   5  -28.70   46.40 
   5   9   5  -25.60   20.30 
  -9  17  -5   82.19   44.10 
  -9  17  -5  -37.50   68.39 
  -5  15  -5  321.17   90.69 
  -5  15  -5  200.18  114.99 
  -5  15  -5  405.96   64.69 
  10   5   5  362.26   60.59 
   5 -15   5  353.56   63.49 
  10   5   5  453.15   59.09 
  -2  12  -5   15.90  105.69 
  -2  12  -5   20.70   85.09 
  10   2   5   82.49   26.50 
   2 -12   5   76.99   35.90 
 -12  10   5   82.19   25.30 
 -10   1  -5   -8.90  114.49 
   1   9  -5  151.78  114.09 
   1   9  -5  170.08   84.49 
  10  -1   5  127.09   30.70 
  -1  -9   5   58.99   31.50 
  -9  10   5   75.89   26.10 
  -9  10   5 -143.09  129.79 
   4   6  -5  169.48  104.69 
   4   6  -5  200.68   84.29 
 -10   4  -5  149.49  116.99 
  -6  10   5  245.88  140.69 
  -6  10   5  259.27   41.10 
  10  -4   5  208.18   40.60 
   3 -10  -5  203.88   99.19 
   7   3  -5  176.38   77.49 
 -10   7  -5  238.58   95.99 
   7   3  -5   27.70   98.79 
 -10   7  -5   21.50  121.89 
  -3  10   5  174.08   50.89 
  -3  10   5  181.68   36.20 
  10  -7   5  227.58   38.20 
  -3  10   5  133.29  128.89 
 -10  10  -5  -51.99   98.89 
 -10  10  -5  -21.20   83.39 
  10   0  -5  120.09  106.39 
   0  10   5   27.80   24.60 
   0  10   5  147.89   47.70 
  10 -10   5  128.69   26.50 
   0  10   5  143.19  137.59 
 -10  13  -5  112.29   96.09 
  13  -3  -5  -62.39   95.29 
 -10  13  -5  -73.79   72.99 
   3  10   5   52.09   48.70 
   3  10   5   64.89   24.00 
   3  10   5  -65.19  136.69 
 -10  16  -5  224.48   82.49 
   6  10   5  209.78   56.19 
 -16   6   5  140.09   32.80 
  -6  17  -5  112.89   45.20 
  -6  17  -5    3.40   72.39 
  11   6   5   40.20   35.90 
  -3  14  -5  151.38   81.39 
  -3  14  -5  192.88   45.70 
  -3  14  -5  117.29  109.09 
   3 -14   5  214.58   44.60 
 -14  11   5  168.08   36.20 
  11   3   5  245.28   40.60 
 -11   0  -5  138.79  104.29 
   0  11  -5 -142.09   91.59 
   0  11  -5 -107.19   82.99 
 -11  11   5   37.20   24.30 
  11   0   5   -4.50   21.70 
   0 -11   5   74.99   34.60 
 -11  11   5  -63.89  110.19 
 -11   3  -5  -81.49   98.99 
   3   8  -5  -30.10   72.19 
   3   8  -5   38.00  109.49 
  11  -3   5   25.80   22.30 
  -3  -8   5   27.60   30.10 
  -8  11   5  -33.50  134.19 
  -8  11   5    1.70   24.80 
   6   5  -5  -18.40   78.79 
   6   5  -5  -37.40   95.89 
 -11   6  -5 -124.29  105.69 
  11  -6   5   20.60   25.40 
  -5  11   5  132.49  142.09 
  -5  11   5   -2.20   22.20 
  -5  11   5  -31.40   42.40 
   2 -11  -5  223.88   94.99 
   9   2  -5   -1.20   71.39 
 -11   9  -5  222.78  125.99 
 -11   9  -5  -36.90   97.19 
   9   2  -5  110.89  104.49 
  11  -9   5   -9.00   20.80 
  -2  11   5    3.60   24.00 
  -2  11   5   50.59   44.60 
  -2  11   5 -109.89  126.69 
  12  -1  -5  103.79  101.89 
 -11  12  -5   34.70   88.49 
 -11  12  -5  -33.60   94.59 
  11 -12   5   11.80   21.40 
   1  11   5    2.60   21.30 
   1  11   5   30.80  131.69 
   1  11   5 -110.99   39.10 
  15  -4  -5   65.19  101.79 
 -11  15  -5  125.59   72.19 
   4  11   5 -149.69  129.69 
   4  11   5   41.60   25.30 
   4  11   5   23.60   43.50 
  -4  16  -5   46.20   39.20 
  -4  16  -5  250.17   77.69 
  -1  13  -5  -45.90   80.49 
  -1  13  -5   68.49  106.69 
 -13  12   5  -29.40   22.00 
   1 -13   5   68.39   32.10 
  12   1   5   -7.30   24.60 
   2  10  -5  107.49   77.19 
   2  10  -5  103.79  102.29 
 -12   2  -5   37.20  102.19 
 -10  12   5   70.39   25.90 
 -10  12   5  134.89  131.79 
  12  -2   5   91.39   28.20 
  -2 -10   5  122.69   35.00 
   5   7  -5   87.79   83.89 
 -12   5  -5   56.09  106.59 
   5   7  -5  102.29  103.19 
  12  -5   5  145.09   32.30 
  -7  12   5  193.18   33.30 
  -7  12   5  135.89  125.49 
  -5  -7   5  124.39   37.20 
   4 -12  -5 -129.19  102.19 
 -12   8  -5   29.50  102.59 
   8   4  -5   29.70   69.29 
   8   4  -5   -1.00  101.89 
  -4  12   5   44.00   23.40 
  12  -8   5   37.40   23.70 
  -4  12   5  -10.80  127.39 
  -4  12   5  -23.20   41.00 
 -12  11  -5  -58.89   91.59 
  11   1  -5  204.58  111.89 
 -12  11  -5   48.30  102.49 
  -1  12   5   46.80  129.69 
  12 -11   5   11.40   19.90 
  -1  12   5   -8.60   19.60 
  -1  12   5  -17.90   39.60 
  14  -2  -5   15.60  115.09 
 -12  14  -5  128.49   83.59 
 -12  14  -5    5.80   99.39 
   2  12   5  -47.20   41.40 
   2  12   5   -2.60   23.00 
   2  12   5   40.40  133.59 
 -12  17  -5  -56.29   69.89 
   5  12   5  -17.40   48.80 
  -2  15  -5  371.56   61.19 
  -2  15  -5  292.57   90.49 
 -13   1  -5  -82.49  111.99 
   1  12  -5  117.19   80.89 
   1  12  -5  -44.80   94.29 
  -1 -12   5  -16.40   33.10 
 -12  13   5   35.90  128.19 
 -12  13   5  -19.10   20.10 
  13  -1   5   28.90   23.10 
   4   9  -5   52.89  106.49 
   4   9  -5  113.69   75.09 
 -13   4  -5  149.19  112.09 
  -9  13   5   27.90  121.39 
  -4  -9   5   73.09   36.40 
  -9  13   5  106.89   26.70 
  13  -4   5   44.30   26.30 
 -13   7  -5  107.79   97.29 
   7   6  -5   96.29   83.29 
   7   6  -5   42.20  108.89 
  -6  13   5  155.38   34.70 
  -6  13   5  159.48   49.99 
  -6  13   5  185.18  127.29 
  -7  -6   5  197.28   40.10 
  13  -7   5  148.69   33.00 
  10   3  -5  -59.29   64.09 
 -13  10  -5 -118.39   95.79 
  10   3  -5   47.40  105.49 
 -13  10  -5   38.40  120.49 
  -3  13   5   97.39   47.00 
  13 -10   5   29.30   21.90 
  -3  13   5   41.60  128.89 
  -3  13   5   45.00   23.80 
 -13  13  -5   63.29  111.19 
 -13  13  -5  -83.89   85.59 
  13 -13   5   26.30   25.00 
   0  13   5   92.59  130.09 
   0  13   5   61.69   25.30 
   0  13   5  131.99   44.60 
 -13  16  -5  110.99   75.59 
   3  13   5  174.58  137.49 
   3  13   5   30.70   51.39 
   0  14  -5  471.05   95.19 
 -14   0  -5  442.36  128.79 
 -14  14   5  128.99  136.39 
   3  11  -5  204.48   91.59 
 -14   3  -5  155.58  105.79 
 -11  14   5  142.59  135.49 
  -3 -11   5  179.48   45.10 
 -11  14   5  208.58   38.20 
  14  -3   5  196.68   37.50 
   6   8  -5   65.19  123.29 
 -14   6  -5  -91.19  102.89 
   6   8  -5  -18.40   81.59 
  -8  14   5   12.10   42.80 
  14  -6   5   69.79   27.60 
  -8  14   5   49.60   23.50 
  -8  14   5  139.49  125.79 
  -6  -8   5   36.00   31.40 
   9   5  -5  115.39  107.79 
 -14   9  -5   97.99  102.29 
   9   5  -5   -8.50   68.19 
  -5  14   5   22.40   22.10 
  -9  -5   5   65.19   30.90 
  14  -9   5   12.60   22.90 
  -5  14   5   39.80   40.20 
  -5  14   5  -66.69  128.19 
 -14  12  -5  -16.60  112.09 
 -14  12  -5  -28.90   91.29 
  -2  14   5   36.20   47.50 
  -2  14   5   35.10  131.19 
  -2  14   5   -6.00   19.50 
  14 -12   5   15.70   21.50 
 -14  15  -5  110.59   80.29 
   1  14   5  -68.29   47.40 
   1  14   5   33.60  130.79 
   2  13  -5  216.48   92.29 
 -15   2  -5  466.25  122.19 
 -13  15   5  591.04  148.29 
 -15   5  -5  510.15  117.79 
   5  10  -5  503.15  105.49 
 -10  15   5   85.99  149.59 
   8   7  -5  425.16   93.19 
 -15   8  -5   70.99  110.69 
  -7  15   5  238.18   56.49 
  -8  -7   5  414.26   58.29 
  -7  15   5  224.18   44.70 
  -7  15   5  -49.20  128.89 
  15  -8   5  252.17   44.70 
 -15  11  -5    0.30   96.59 
  11   4  -5   64.59   75.69 
  -4  15   5  116.59  130.49 
  -4  15   5   33.80   23.60 
  15 -11   5   92.69   31.40 
  -4  15   5  105.09   43.20 
 -15  14  -5  180.78   85.69 
  -1  15   5  -49.90   45.00 
  -1  15   5   25.40  130.69 
 -16   4  -5   96.69  116.39 
   4  12  -5  -11.30   76.59 
 -12  16   5  -72.19  117.69 
 -16   7  -5  140.89  110.29 
   7   9  -5  120.19   78.39 
  -9  16   5  157.68   48.90 
  -9  16   5   67.69  126.99 
  10   6  -5  176.38   75.09 
 -16  10  -5  267.87   92.79 
  -6  16   5  182.18  133.99 
  -6  16   5   97.09   49.10 
 -16  13  -5  -46.20   81.69 
  -3  16   5  134.89  131.59 
  -3  16   5   69.19   48.90 
 -17   6  -5   -7.90  108.69 
   6  11  -5   93.29   78.29 
 -11  17   5    8.10   42.70 
 -11  17   5  264.27  146.59 
 -17   9  -5  -60.99   88.39 
   9   8  -5 -110.09   78.59 
  -8  17   5  -13.30   39.60 
  -8  17   5  151.78  133.19 
  12   5  -5  -57.49   74.59 
 -17  12  -5  325.27   98.29 
  -5  17   5 -176.58  124.49 
  -5  17   5  -14.20   46.20 
   0   0  -6  855.41  156.98 
  -1  -1  -6   75.99  100.99 
   2  -1  -6  282.67   95.59 
  -1   2  -6   92.29   94.59 
   1   1  -6   85.79   99.09 
   1  -2  -6  196.78  108.89 
  -2   1  -6   41.10   99.29 
  -2  -2  -6   60.59  113.99 
  -2   4  -6  227.08  106.89 
   4  -2  -6   19.00   97.09 
  -3   0  -6  451.45  119.69 
   0   3  -6  391.86  114.59 
   3  -3  -6  427.76  115.29 
  -3   3  -6  494.15  136.29 
   3   0  -6  641.94  125.89 
   0  -3  -6  639.14  140.29 
  -3  -3  -6  404.66  119.09 
   6  -3  -6  341.17  100.89 
  -3   6  -6  147.39   96.69 
   5  -4  -6  208.78  100.79 
  -1   5  -6   86.09   89.49 
  -4  -1  -6  236.18  120.49 
   2   2  -6  213.78   97.59 
  -4   2  -6  -70.79  111.39 
   2  -4  -6   59.59  107.39 
  -1  -4  -6  172.78  109.69 
  -4   5  -6   66.99   94.59 
   5  -1  -6  -89.89   88.19 
   1   4  -6   33.10   92.49 
  -5   1  -6  161.58  113.49 
   4  -5  -6   30.10   95.99 
   1  -5  -6   37.50  110.99 
  -5   4  -6    2.10   97.89 
   4   1  -6   32.60   90.09 
  -6   3  -6  190.98  107.39 
   3  -6  -6  165.28  113.29 
   3   3  -6  358.66   97.99 
  
_computing_structure_solution     'SHELXT 2014/4 (Sheldrick, 2014)' 
;
_shelx_hkl_checksum              27974
_shelx_fab_file
; 
   -1    2    0    230.21      0.00 
    0    3    0   -124.27      0.00 
   -1    5    0    206.36      0.00 
   -3    6    0    125.91      0.00 
    0    6    0    -22.75      0.00 
   -2    7    0    -64.19      0.00 
   -4    8    0     -2.59      0.00 
   -1    8    0    -82.75      0.00 
   -3    9    0      4.77      0.00 
    0    9    0     80.19      0.00 
   -5   10    0     78.24      0.00 
   -2   10    0     36.58      0.00 
   -4   11    0      9.69      0.00 
   -1   11    0    -18.80      0.00 
   -6   12    0    -26.88      0.00 
   -3   12    0    -20.59      0.00 
    0   12    0    -23.19      0.00 
   -5   13    0     -2.91      0.00 
   -2   13    0    -13.66      0.00 
   -7   14    0      3.78      0.00 
   -4   14    0     14.40      0.00 
   -1   14    0     -3.99      0.00 
   -6   15    0      8.33      0.00 
   -3   15    0      5.73      0.00 
    0   15    0    -12.00      0.00 
   -8   16    0      7.08      0.00 
   -5   16    0     -4.70      0.00 
   -2   16    0    -15.74      0.00 
   -7   17    0    -13.07      0.00 
   -4   17    0      4.90      0.00 
   -1   17    0      3.94      0.00 
   -9   18    0      2.58      0.00 
   -6   18    0     -7.19      0.00 
   -3   18    0     -8.84      0.00 
    0   18    0     -1.81      0.00 
   -8   19    0     -4.61      0.00 
   -5   19    0      6.46      0.00 
   -2   19    0    -12.63      0.00 
  -10   20    0      2.21      0.00 
   -7   20    0      0.19      0.00 
   -4   20    0     -0.15      0.00 
   -1   20    0      7.52      0.00 
   -9   21    0      2.48      0.00 
   -6   21    0      5.53      0.00 
   -3   21    0     -5.98      0.00 
    0   21    0     23.68      0.00 
  -11   22    0     -2.24      0.00 
   -8   22    0     -4.49      0.00 
   -5   22    0      9.67      0.00 
   -2   22    0     -3.36      0.00 
  -10   23    0      1.36      0.00 
   -7   23    0     -2.02      0.00 
   -4   23    0     -7.01      0.00 
   -1   23    0     -2.42      0.00 
  -12   24    0      2.58      0.00 
   -9   24    0     -2.51      0.00 
   -6   24    0      2.02      0.00 
   -3   24    0      2.79      0.00 
    0   24    0      6.06      0.00 
  -11   25    0     -1.02      0.00 
   -8   25    0      4.11      0.00 
   -5   25    0     -0.24      0.00 
   -2   25    0     17.17      0.00 
  -13   26    0     -4.29      0.00 
  -10   26    0     -3.09      0.00 
   -7   26    0     -1.63      0.00 
   -4   26    0     -5.39      0.00 
   -1   26    0     10.45      0.00 
  -12   27    0     -3.49      0.00 
   -9   27    0     -5.99      0.00 
   -6   27    0    -16.03      0.00 
   -3   27    0    -13.08      0.00 
  -14   28    0     11.77      0.00 
  -11   28    0     -6.69      0.00 
   -8   28    0     -1.36      0.00 
   -5   28    0    -39.70      0.00 
  -13   29    0     15.92      0.00 
  -10   29    0     -3.53      0.00 
   -7   29    0    -12.99      0.00 
  -15   30    0     11.70      0.00 
  -12   30    0      4.47      0.00 
   -1    1    1     54.81      0.00 
    0    2    1     50.98      0.00 
   -2    3    1   -160.64      0.00 
   -4    4    1     53.96      0.00 
    0    5    1    -41.48      0.00 
   -5    6    1    100.38      0.00 
   -7    7    1    -74.47      0.00 
   -4    7    1    -12.80      0.00 
   -1    7    1    -23.51      0.00 
   -6    8    1     -3.00      0.00 
   -3    8    1    -23.02      0.00 
    0    8    1     29.72      0.00 
   -8    9    1      2.05      0.00 
   -5    9    1     17.36      0.00 
   -2    9    1     26.28      0.00 
  -10   10    1     10.25      0.00 
   -7   10    1     39.63      0.00 
   -4   10    1     23.35      0.00 
   -1   10    1     -8.89      0.00 
   -9   11    1      3.11      0.00 
   -6   11    1     -6.11      0.00 
   -3   11    1    -13.49      0.00 
    0   11    1     -8.00      0.00 
  -11   12    1    -22.95      0.00 
   -8   12    1    -28.87      0.00 
   -5   12    1    -12.10      0.00 
   -2   12    1     -3.87      0.00 
  -13   13    1      6.30      0.00 
  -10   13    1    -16.66      0.00 
   -7   13    1      2.59      0.00 
   -4   13    1      7.21      0.00 
   -1   13    1     11.80      0.00 
  -12   14    1      6.99      0.00 
   -9   14    1      7.62      0.00 
   -6   14    1      8.24      0.00 
   -3   14    1     12.93      0.00 
    0   14    1      1.62      0.00 
  -14   15    1      3.42      0.00 
  -11   15    1      0.70      0.00 
   -8   15    1      3.55      0.00 
   -5   15    1      1.06      0.00 
   -2   15    1    -10.00      0.00 
  -16   16    1    -20.37      0.00 
  -13   16    1     -3.12      0.00 
  -10   16    1     -8.16      0.00 
   -7   16    1    -13.10      0.00 
   -4   16    1    -16.84      0.00 
   -1   16    1      1.47      0.00 
  -15   17    1     -7.18      0.00 
  -12   17    1     -0.11      0.00 
   -9   17    1     -5.34      0.00 
   -6   17    1      0.52      0.00 
   -3   17    1      1.52      0.00 
    0   17    1      8.54      0.00 
  -17   18    1      3.92      0.00 
  -14   18    1      0.69      0.00 
  -11   18    1      4.47      0.00 
   -8   18    1     16.04      0.00 
   -5   18    1      7.88      0.00 
   -2   18    1      2.49      0.00 
  -19   19    1      0.25      0.00 
  -16   19    1     -1.42      0.00 
  -13   19    1      9.48      0.00 
  -10   19    1      3.77      0.00 
   -7   19    1     -2.25      0.00 
   -4   19    1      4.89      0.00 
   -1   19    1      6.16      0.00 
  -18   20    1     -1.84      0.00 
  -15   20    1     -5.11      0.00 
  -12   20    1    -10.33      0.00 
   -9   20    1    -13.93      0.00 
   -6   20    1     -4.75      0.00 
   -3   20    1     -2.61      0.00 
    0   20    1     -5.05      0.00 
  -20   21    1    -17.89      0.00 
  -17   21    1     -0.01      0.00 
  -14   21    1      0.81      0.00 
  -11   21    1    -14.80      0.00 
   -8   21    1    -13.87      0.00 
   -5   21    1      0.89      0.00 
   -2   21    1     -0.95      0.00 
  -22   22    1     10.80      0.00 
  -19   22    1     -0.13      0.00 
  -16   22    1      7.42      0.00 
  -13   22    1     -5.64      0.00 
  -10   22    1      0.03      0.00 
   -7   22    1      5.08      0.00 
   -4   22    1     -1.17      0.00 
   -1   22    1    -10.80      0.00 
  -21   23    1      3.72      0.00 
  -18   23    1     11.03      0.00 
  -15   23    1      7.55      0.00 
  -12   23    1      4.50      0.00 
   -9   23    1      1.88      0.00 
   -6   23    1     -2.36      0.00 
   -3   23    1     -4.22      0.00 
    0   23    1      1.04      0.00 
  -23   24    1      7.54      0.00 
  -20   24    1      0.91      0.00 
  -17   24    1     -0.68      0.00 
  -14   24    1      4.23      0.00 
  -11   24    1     -7.64      0.00 
   -8   24    1     -3.14      0.00 
   -5   24    1     -7.71      0.00 
   -2   24    1      2.82      0.00 
  -25   25    1     -7.52      0.00 
  -22   25    1     -8.53      0.00 
  -19   25    1      6.66      0.00 
  -16   25    1     -3.86      0.00 
  -13   25    1     -7.91      0.00 
  -10   25    1     -5.50      0.00 
   -7   25    1    -11.16      0.00 
   -4   25    1      6.85      0.00 
   -1   25    1      8.44      0.00 
  -24   26    1    -12.48      0.00 
  -21   26    1     -0.71      0.00 
  -18   26    1     -0.53      0.00 
  -15   26    1      0.39      0.00 
  -12   26    1     -9.03      0.00 
   -9   26    1      1.74      0.00 
   -6   26    1     -7.12      0.00 
   -3   26    1      5.56      0.00 
    0   26    1     10.97      0.00 
  -23   27    1      1.85      0.00 
  -20   27    1      5.21      0.00 
  -17   27    1      0.54      0.00 
  -14   27    1     -1.52      0.00 
  -11   27    1      0.49      0.00 
   -8   27    1     -3.72      0.00 
   -5   27    1     -4.83      0.00 
   -2   27    1      4.71      0.00 
  -22   28    1     -3.41      0.00 
  -19   28    1      1.16      0.00 
  -16   28    1     -1.02      0.00 
  -13   28    1     -0.59      0.00 
  -10   28    1     -7.61      0.00 
   -7   28    1     -3.46      0.00 
  -21   29    1      3.25      0.00 
  -18   29    1     -0.28      0.00 
  -15   29    1     -0.59      0.00 
  -12   29    1    -13.88      0.00 
   -9   29    1      1.40      0.00 
  -17   30    1     -1.93      0.00 
  -14   30    1     -5.03      0.00 
    0    1    2    -15.62      0.00 
   -2    2    2    -10.30      0.00 
   -1    3    2      9.35      0.00 
   -3    4    2    -16.11      0.00 
    0    4    2     45.05      0.00 
   -5    5    2     24.92      0.00 
   -2    5    2    -25.73      0.00 
   -4    6    2      8.84      0.00 
   -1    6    2     -4.02      0.00 
   -6    7    2    -20.54      0.00 
   -3    7    2      6.32      0.00 
    0    7    2      2.03      0.00 
   -8    8    2     -0.75      0.00 
   -5    8    2     11.24      0.00 
   -2    8    2      7.48      0.00 
   -7    9    2    -15.07      0.00 
   -4    9    2      5.45      0.00 
   -1    9    2     -1.43      0.00 
   -9   10    2     15.13      0.00 
   -6   10    2     -6.05      0.00 
   -3   10    2    -21.73      0.00 
    0   10    2     -5.64      0.00 
  -11   11    2     -8.17      0.00 
   -8   11    2      0.11      0.00 
   -5   11    2    -16.09      0.00 
   -2   11    2     -4.49      0.00 
  -10   12    2     -8.41      0.00 
   -7   12    2      5.92      0.00 
   -4   12    2     13.11      0.00 
   -1   12    2     -0.76      0.00 
  -12   13    2     -1.91      0.00 
   -9   13    2     18.37      0.00 
   -6   13    2      5.91      0.00 
   -3   13    2      2.06      0.00 
    0   13    2      2.07      0.00 
  -14   14    2      9.66      0.00 
  -11   14    2      0.60      0.00 
   -8   14    2     -7.54      0.00 
   -5   14    2     -1.45      0.00 
   -2   14    2     -3.50      0.00 
  -13   15    2      4.09      0.00 
  -10   15    2     -9.48      0.00 
   -7   15    2     -1.66      0.00 
   -4   15    2     -9.20      0.00 
   -1   15    2      4.94      0.00 
  -15   16    2     -7.05      0.00 
  -12   16    2      0.15      0.00 
   -9   16    2     -1.21      0.00 
   -6   16    2     -2.06      0.00 
   -3   16    2      5.96      0.00 
    0   16    2      9.51      0.00 
  -17   17    2     -0.55      0.00 
  -14   17    2     -1.58      0.00 
  -11   17    2     -5.44      0.00 
   -8   17    2     24.50      0.00 
   -5   17    2      5.01      0.00 
   -2   17    2     -1.01      0.00 
  -16   18    2     -9.17      0.00 
  -13   18    2      0.39      0.00 
  -10   18    2     17.67      0.00 
   -7   18    2     -4.74      0.00 
   -4   18    2     -9.49      0.00 
   -1   18    2      6.62      0.00 
  -18   19    2     -1.65      0.00 
  -15   19    2     -0.32      0.00 
  -12   19    2      4.55      0.00 
   -9   19    2    -12.85      0.00 
   -6   19    2      4.38      0.00 
   -3   19    2     -2.47      0.00 
    0   19    2     -0.86      0.00 
  -20   20    2      0.99      0.00 
  -17   20    2     -2.47      0.00 
  -14   20    2     -0.17      0.00 
  -11   20    2     -3.40      0.00 
   -8   20    2     -1.66      0.00 
   -5   20    2      3.70      0.00 
   -2   20    2      4.60      0.00 
  -19   21    2      4.85      0.00 
  -16   21    2      2.48      0.00 
  -13   21    2     -3.11      0.00 
  -10   21    2     -7.36      0.00 
   -7   21    2     23.76      0.00 
   -4   21    2     -0.21      0.00 
   -1   21    2     -2.56      0.00 
  -21   22    2     -0.19      0.00 
  -18   22    2      0.55      0.00 
  -15   22    2     -9.18      0.00 
  -12   22    2     11.22      0.00 
   -9   22    2      4.45      0.00 
   -6   22    2      0.85      0.00 
   -3   22    2      2.02      0.00 
    0   22    2      1.10      0.00 
  -23   23    2      3.25      0.00 
  -20   23    2      2.45      0.00 
  -17   23    2      2.58      0.00 
  -14   23    2     -5.33      0.00 
  -11   23    2     11.63      0.00 
   -8   23    2     -2.13      0.00 
   -5   23    2      3.75      0.00 
   -2   23    2      1.34      0.00 
  -22   24    2     -0.00      0.00 
  -19   24    2     -0.01      0.00 
  -16   24    2      2.77      0.00 
  -13   24    2     15.81      0.00 
  -10   24    2     -7.87      0.00 
   -7   24    2      9.50      0.00 
   -4   24    2      6.52      0.00 
   -1   24    2     -2.37      0.00 
  -24   25    2      1.34      0.00 
  -21   25    2     10.14      0.00 
  -18   25    2      7.25      0.00 
  -15   25    2     -3.13      0.00 
  -12   25    2      7.06      0.00 
   -9   25    2      4.95      0.00 
   -6   25    2     10.22      0.00 
   -3   25    2     -4.31      0.00 
    0   25    2     -6.06      0.00 
  -23   26    2      1.01      0.00 
  -20   26    2      6.81      0.00 
  -17   26    2     -0.26      0.00 
  -14   26    2     -4.85      0.00 
  -11   26    2     -0.74      0.00 
   -8   26    2      5.44      0.00 
   -5   26    2     -4.95      0.00 
  -22   27    2      4.97      0.00 
  -19   27    2      6.55      0.00 
  -16   27    2    -12.16      0.00 
  -13   27    2     -2.35      0.00 
  -10   27    2     -0.03      0.00 
   -7   27    2    -14.63      0.00 
  -18   28    2     -2.60      0.00 
  -15   28    2     -4.70      0.00 
  -12   28    2     -7.73      0.00 
   -9   28    2      2.65      0.00 
    0    0    3     14.25      0.00 
   -1    2    3    -10.03      0.00 
   -3    3    3     -4.99      0.00 
    0    3    3    -15.31      0.00 
   -2    4    3     -3.29      0.00 
   -4    5    3      6.03      0.00 
   -1    5    3     -9.35      0.00 
   -6    6    3      1.55      0.00 
   -3    6    3     -3.30      0.00 
    0    6    3     -3.77      0.00 
   -5    7    3      6.85      0.00 
   -2    7    3     -5.83      0.00 
   -7    8    3    -10.07      0.00 
   -4    8    3      6.57      0.00 
   -1    8    3     -5.75      0.00 
   -9    9    3      5.57      0.00 
   -6    9    3      0.61      0.00 
   -3    9    3      0.47      0.00 
    0    9    3      2.84      0.00 
   -8   10    3      5.95      0.00 
   -5   10    3     -7.93      0.00 
   -2   10    3      5.99      0.00 
  -10   11    3      8.84      0.00 
   -7   11    3     -5.07      0.00 
   -4   11    3      1.85      0.00 
   -1   11    3     -1.80      0.00 
  -12   12    3     -8.84      0.00 
   -9   12    3     -1.03      0.00 
   -6   12    3      4.35      0.00 
   -3   12    3     -5.53      0.00 
    0   12    3     -8.19      0.00 
  -11   13    3     -0.44      0.00 
   -8   13    3     -3.89      0.00 
   -5   13    3      0.28      0.00 
   -2   13    3     -1.19      0.00 
  -13   14    3     -4.70      0.00 
  -10   14    3     -5.56      0.00 
   -7   14    3     -1.95      0.00 
   -4   14    3      0.51      0.00 
   -1   14    3     -0.56      0.00 
  -15   15    3     -4.23      0.00 
  -12   15    3     -2.01      0.00 
   -9   15    3     -0.62      0.00 
   -6   15    3     -0.81      0.00 
   -3   15    3      5.71      0.00 
    0   15    3     -1.21      0.00 
  -14   16    3     -4.38      0.00 
  -11   16    3      2.64      0.00 
   -8   16    3      0.27      0.00 
   -5   16    3     -0.03      0.00 
   -2   16    3     -1.80      0.00 
  -16   17    3     -3.56      0.00 
  -13   17    3      1.72      0.00 
  -10   17    3      1.73      0.00 
   -7   17    3      6.69      0.00 
   -4   17    3     -5.15      0.00 
   -1   17    3     -4.83      0.00 
  -18   18    3      5.98      0.00 
  -15   18    3     -2.71      0.00 
  -12   18    3      7.79      0.00 
   -9   18    3     -3.61      0.00 
   -6   18    3     -4.59      0.00 
   -3   18    3      0.94      0.00 
    0   18    3      0.16      0.00 
  -17   19    3      4.15      0.00 
  -14   19    3     10.31      0.00 
  -11   19    3    -15.21      0.00 
   -8   19    3     -1.89      0.00 
   -5   19    3      4.79      0.00 
   -2   19    3      2.17      0.00 
  -19   20    3     14.71      0.00 
  -16   20    3    -13.49      0.00 
  -13   20    3     -0.33      0.00 
  -10   20    3     -1.78      0.00 
   -7   20    3      0.69      0.00 
   -4   20    3     -0.54      0.00 
   -1   20    3     -3.38      0.00 
  -21   21    3      2.48      0.00 
  -18   21    3      3.24      0.00 
  -15   21    3     -1.81      0.00 
  -12   21    3     -4.64      0.00 
   -9   21    3     -1.94      0.00 
   -6   21    3     -1.44      0.00 
   -3   21    3     -1.64      0.00 
    0   21    3    -18.34      0.00 
  -20   22    3      2.99      0.00 
  -17   22    3    -10.18      0.00 
  -14   22    3     -4.65      0.00 
  -11   22    3     -2.57      0.00 
   -8   22    3      8.12      0.00 
   -5   22    3    -15.32      0.00 
   -2   22    3     -9.94      0.00 
  -22   23    3    -15.24      0.00 
  -19   23    3      3.62      0.00 
  -16   23    3     -2.42      0.00 
  -13   23    3     -6.05      0.00 
  -10   23    3    -15.72      0.00 
   -7   23    3     -1.23      0.00 
   -4   23    3     -1.91      0.00 
   -1   23    3      1.92      0.00 
  -21   24    3    -18.98      0.00 
  -18   24    3      1.74      0.00 
  -15   24    3     -9.75      0.00 
  -12   24    3     -9.64      0.00 
   -9   24    3     -0.76      0.00 
   -6   24    3      0.15      0.00 
   -3   24    3      3.36      0.00 
  -20   25    3     -9.27      0.00 
  -17   25    3     -1.17      0.00 
  -14   25    3      0.57      0.00 
  -11   25    3     -6.22      0.00 
   -8   25    3      5.13      0.00 
   -5   25    3      5.99      0.00 
  -16   26    3     -6.34      0.00 
  -13   26    3     20.18      0.00 
  -10   26    3     -2.19      0.00 
   -1    1    4      7.56      0.00 
    0    2    4      2.58      0.00 
   -2    3    4     -3.58      0.00 
   -4    4    4     16.81      0.00 
   -1    4    4     -4.96      0.00 
   -3    5    4     -0.63      0.00 
    0    5    4     -1.11      0.00 
   -5    6    4     -1.03      0.00 
   -2    6    4     -0.32      0.00 
   -7    7    4     -3.13      0.00 
   -4    7    4      6.09      0.00 
   -1    7    4     -7.37      0.00 
   -6    8    4     -0.40      0.00 
   -3    8    4     10.87      0.00 
    0    8    4     -7.06      0.00 
   -8    9    4      4.17      0.00 
   -5    9    4      2.86      0.00 
   -2    9    4      5.37      0.00 
  -10   10    4     -6.97      0.00 
   -7   10    4     -8.93      0.00 
   -4   10    4      5.04      0.00 
   -1   10    4     -5.74      0.00 
   -9   11    4     -3.51      0.00 
   -6   11    4     -5.57      0.00 
   -3   11    4      0.82      0.00 
    0   11    4      3.62      0.00 
  -11   12    4     -2.54      0.00 
   -8   12    4      2.17      0.00 
   -5   12    4      3.57      0.00 
   -2   12    4      0.78      0.00 
  -13   13    4      8.25      0.00 
  -10   13    4     -4.58      0.00 
   -7   13    4      4.27      0.00 
   -4   13    4     13.51      0.00 
   -1   13    4      5.69      0.00 
  -12   14    4     -4.74      0.00 
   -9   14    4     -5.68      0.00 
   -6   14    4      6.69      0.00 
   -3   14    4      4.05      0.00 
    0   14    4      0.47      0.00 
  -14   15    4      3.85      0.00 
  -11   15    4     -3.03      0.00 
   -8   15    4    -17.66      0.00 
   -5   15    4     14.70      0.00 
   -2   15    4     -3.62      0.00 
  -16   16    4      0.09      0.00 
  -13   16    4     -4.22      0.00 
  -10   16    4     -1.06      0.00 
   -7   16    4     -5.79      0.00 
   -4   16    4      0.48      0.00 
   -1   16    4     -1.50      0.00 
  -15   17    4     -5.98      0.00 
  -12   17    4      2.85      0.00 
   -9   17    4     -7.61      0.00 
   -6   17    4      5.08      0.00 
   -3   17    4     -6.92      0.00 
    0   17    4      8.45      0.00 
  -17   18    4     -5.85      0.00 
  -14   18    4    -18.64      0.00 
  -11   18    4     -4.68      0.00 
   -8   18    4      2.54      0.00 
   -5   18    4     -2.52      0.00 
   -2   18    4     -6.80      0.00 
  -19   19    4     -9.98      0.00 
  -16   19    4     -5.69      0.00 
  -13   19    4    -11.99      0.00 
  -10   19    4     -8.81      0.00 
   -7   19    4    -10.75      0.00 
   -4   19    4     -4.97      0.00 
   -1   19    4     11.58      0.00 
  -18   20    4    -11.01      0.00 
  -15   20    4      5.46      0.00 
  -12   20    4    -16.96      0.00 
   -9   20    4    -12.69      0.00 
   -6   20    4     -7.47      0.00 
   -3   20    4     -4.63      0.00 
    0   20    4     10.35      0.00 
  -17   21    4      6.74      0.00 
  -14   21    4      7.69      0.00 
  -11   21    4    -12.10      0.00 
   -8   21    4    -21.61      0.00 
   -5   21    4      2.09      0.00 
  -16   22    4     11.02      0.00 
  -13   22    4     -6.21      0.00 
  -10   22    4      1.40      0.00 
   -7   22    4    -11.92      0.00 
  -12   23    4      4.05      0.00 
    0    1    5      7.57      0.00 
   -2    2    5     -1.06      0.00 
   -1    3    5    -11.03      0.00 
   -3    4    5      0.92      0.00 
    0    4    5     -5.23      0.00 
   -5    5    5     11.52      0.00 
   -2    5    5      5.42      0.00 
   -4    6    5     20.10      0.00 
   -1    6    5     -4.20      0.00 
   -6    7    5      0.41      0.00 
   -3    7    5      4.08      0.00 
    0    7    5     -3.53      0.00 
   -8    8    5      3.26      0.00 
   -5    8    5      2.55      0.00 
   -2    8    5     -3.66      0.00 
   -7    9    5      8.02      0.00 
   -4    9    5     -2.97      0.00 
   -1    9    5     10.66      0.00 
   -9   10    5      0.65      0.00 
   -6   10    5      0.33      0.00 
   -3   10    5     -6.81      0.00 
    0   10    5     -5.81      0.00 
  -11   11    5    -11.73      0.00 
   -8   11    5      8.87      0.00 
   -5   11    5    -15.84      0.00 
   -2   11    5     -3.44      0.00 
  -10   12    5     -5.88      0.00 
   -7   12    5     -1.17      0.00 
   -4   12    5     -9.77      0.00 
   -1   12    5    -19.42      0.00 
  -12   13    5      3.42      0.00 
   -9   13    5      0.91      0.00 
   -6   13    5     -5.52      0.00 
   -3   13    5     21.94      0.00 
    0   13    5     -7.42      0.00 
  -14   14    5     -1.18      0.00 
  -11   14    5     -5.15      0.00 
   -8   14    5     -1.99      0.00 
   -5   14    5     23.38      0.00 
   -2   14    5      5.52      0.00 
  -13   15    5     -1.11      0.00 
  -10   15    5     -6.68      0.00 
   -7   15    5      3.70      0.00 
   -4   15    5      5.08      0.00 
   -1   15    5      6.27      0.00 
  -12   16    5     -6.22      0.00 
   -9   16    5     -4.89      0.00 
   -6   16    5     -4.74      0.00 
   -3   16    5     -9.54      0.00 
  -11   17    5      5.37      0.00 
   -8   17    5      3.18      0.00 
   -5   17    5    -26.40      0.00 
    0    0    6     23.00      0.00 
   -1    2    6      9.53      0.00 
   -3    3    6    -11.33      0.00 
    0    3    6     15.49      0.00 
   -2    4    6      8.93      0.00 
   -4    5    6    -19.09      0.00 
   -1    5    6     26.11      0.00 
   -3    6    6      8.64      0.00 
   -2    4    0    -27.27      0.00 
    0   27    0      1.97      0.00 
   -2   28    0     -0.58      0.00 
   -9   30    0      5.87      0.00 
   -1    4    1      2.65      0.00 
   -3    5    1     25.84      0.00 
   -2    6    1    -36.94      0.00 
  -26   27    1     -0.16      0.00 
  -25   28    1      0.00      0.00 
   -4   28    1     -4.67      0.00 
   -6   29    1     -0.26      0.00 
  -20   30    1      1.19      0.00 
  -11   30    1     -2.74      0.00 
   -2   26    2     -4.82      0.00 
   -4   27    2      2.87      0.00 
  -21   28    2      2.10      0.00 
   -6   28    2     -4.04      0.00 
  -20   29    2      2.35      0.00 
  -17   29    2      1.18      0.00 
  -14   29    2      0.81      0.00 
  -11   29    2      0.78      0.00 
  -19   26    3     -2.33      0.00 
   -7   26    3      4.28      0.00 
  -18   27    3     -0.83      0.00 
  -15   27    3      7.65      0.00 
  -12   27    3      4.95      0.00 
   -9   27    3      2.46      0.00 
  -20   21    4     -0.66      0.00 
   -2   21    4     -0.67      0.00 
  -19   22    4     -5.53      0.00 
   -4   22    4      1.70      0.00 
  -15   23    4     -0.01      0.00 
   -9   23    4     -2.77      0.00 
   -6   23    4     -2.72      0.00 
  -14   24    4     -0.60      0.00 
  -11   24    4      3.91      0.00 
  -15   16    5      2.30      0.00 
    0   16    5     -3.60      0.00 
  -14   17    5      0.42      0.00 
   -2   17    5      2.92      0.00 
  -13   18    5      2.83      0.00 
  -10   18    5      4.17      0.00 
   -7   18    5     -1.78      0.00 
   -4   18    5     -0.78      0.00 
   -6    6    6     -4.27      0.00 
    0    6    6      6.04      0.00 
   -5    7    6      0.61      0.00 
   -2    7    6      0.47      0.00 
   -7    8    6      4.20      0.00 
   -4    8    6     -1.54      0.00 
   -1    8    6     -0.45      0.00 
   -6    9    6     -1.86      0.00 
   -3    9    6     -0.11      0.00 
    0    0    0      0.00      0.00 
# SQUEEZE RESULTS 
# Note: Data are Listed for all Voids in the P1 Unit Cell 
# i.e. Centre of Gravity, Solvent Accessible Volume, 
# Recovered number of Electrons in the Void and 
# Details about the Squeezed Material 
loop_ 
  _platon_squeeze_void_nr 
  _platon_squeeze_void_average_x 
  _platon_squeeze_void_average_y 
  _platon_squeeze_void_average_z 
  _platon_squeeze_void_volume 
  _platon_squeeze_void_count_electrons 
  _platon_squeeze_void_content 
   1 -0.000 -0.000 -0.016      2472       449 ' ' 
   2  0.333  0.667  0.879      2468       449 ' ' 
   3  0.667  0.333  0.546      2468       449 ' ' 
_platon_squeeze_void_probe_radius                  1.20 
_platon_squeeze_details 
(replace by semicolon in column 1 when used as .sqf) 
TITL cu100     R -3 m :h    R = 0.09 
CELL   38.8190   38.8190    7.7932     90.00     90.00    120.00 
SPGR R-3m 
# Solvent Accessible Volume =    7448.4 
# Electrons Found in S.A.V. =    1341.1 
# Note: Atoms in Void as Cxxx and Qxxx all others 
C101 1.000 0.782 0.004 !       0.87 eA-3 
C102 0.955 0.187 0.831 !       0.79 eA-3 
C103 0.100 0.614 0.841 !       0.78 eA-3 
C104 0.236 0.819 0.490 !       0.71 eA-3 
C105 0.445 0.894 0.687 !       0.68 eA-3 
C106 0.500 0.600 0.909 !       0.67 eA-3 
Q107 0.999 0.758 0.511 !       0.66 eA-3 
C108 0.712 0.290 0.026 !       0.63 eA-3 
C109 0.546 0.728 0.620 !       0.63 eA-3 
C110 1.000 1.000 0.505 !       0.61 eA-3 
C111 0.282 0.641 0.221 !       0.61 eA-3 
C112 0.665 0.134 0.098 !       0.58 eA-3 
C113 0.537 0.099 0.136 !       0.57 eA-3 
C114 0.753 0.873 0.342 !       0.57 eA-3 
C115 0.765 0.233 0.688 !       0.55 eA-3 
C116 0.030 0.016 0.222 !       0.54 eA-3 
C117 0.213 0.632 0.361 !       0.53 eA-3 
C118 0.687 0.139 0.689 !       0.51 eA-3 
C119 0.031 0.016 0.695 !       0.50 eA-3 
(replace by semicolon in column 1 when used as .sqf) 
;
_shelx_fab_checksum              72340
loop_
_space_group_symop_operation_xyz
'x, y, z'
'-y, x-y, z'
'-x+y, -x, z'
'y, x, -z'
'x-y, -y, -z'
'-x, -x+y, -z'
'x+2/3, y+1/3, z+1/3'
'-y+2/3, x-y+1/3, z+1/3'
'-x+y+2/3, -x+1/3, z+1/3'
'y+2/3, x+1/3, -z+1/3'
'x-y+2/3, -y+1/3, -z+1/3'
'-x+2/3, -x+y+1/3, -z+1/3'
'x+1/3, y+2/3, z+2/3'
'-y+1/3, x-y+2/3, z+2/3'
'-x+y+1/3, -x+2/3, z+2/3'
'y+1/3, x+2/3, -z+2/3'
'x-y+1/3, -y+2/3, -z+2/3'
'-x+1/3, -x+y+2/3, -z+2/3'
'-x, -y, -z'
'y, -x+y, -z'
'x-y, x, -z'
'-y, -x, z'
'-x+y, y, z'
'x, x-y, z'
'-x+2/3, -y+1/3, -z+1/3'
'y+2/3, -x+y+1/3, -z+1/3'
'x-y+2/3, x+1/3, -z+1/3'
'-y+2/3, -x+1/3, z+1/3'
'-x+y+2/3, y+1/3, z+1/3'
'x+2/3, x-y+1/3, z+1/3'
'-x+1/3, -y+2/3, -z+2/3'
'y+1/3, -x+y+2/3, -z+2/3'
'x-y+1/3, x+2/3, -z+2/3'
'-y+1/3, -x+2/3, z+2/3'
'-x+y+1/3, y+2/3, z+2/3'
'x+1/3, x-y+2/3, z+2/3'
loop_
_atom_site_label
_atom_site_type_symbol
_atom_site_fract_x
_atom_site_fract_y
_atom_site_fract_z
_atom_site_U_iso_or_equiv
_atom_site_adp_type
_atom_site_occupancy
_atom_site_site_symmetry_order
_atom_site_calc_flag
_atom_site_refinement_flags_posn
_atom_site_refinement_flags_adp
_atom_site_refinement_flags_occupancy
_atom_site_disorder_assembly
_atom_site_disorder_group
Cu1 Cu 0.666667 0.63467(5) 0.833333 0.0625(13) Uani 1 2 d S T P . .
Cl1 Cl 0.72512(10) 0.666667 0.666667 0.0940(19) Uani 1 2 d S T P A .
N1 N 0.6430(3) 0.6430(3) 0.500000 0.057(4) Uani 1 2 d DS TU P . .
N2A N 0.6295(12) 0.6177(10) 0.633(5) 0.052(10) Uani 0.5 1 d D U P A 1
C1A C 0.5936(9) 0.5870(7) 0.588(6) 0.051(10) Uani 0.5 1 d D U P A 1
C2A C 0.5678(11) 0.5536(8) 0.674(6) 0.058(13) Uani 0.5 1 d D U P A 1
H2A H 0.574374 0.548706 0.782545 0.070 Uiso 0.5 1 calc R U P A 1
C3A C 0.5334(12) 0.5278(12) 0.604(7) 0.072(13) Uani 0.5 1 d D U P A 1
O1A O 0.5069(9) 0.4931(9) 0.690(6) 0.093(14) Uani 0.5 2 d DS TU P A 1
N2B N 0.6335(12) 0.6137(11) 0.614(5) 0.049(9) Uani 0.5 1 d D U P A 2
C1B C 0.5974(9) 0.5835(7) 0.570(6) 0.044(8) Uani 0.5 1 d D U P A 2
C2B C 0.5735(11) 0.5475(9) 0.643(6) 0.048(10) Uani 0.5 1 d D U P A 2
H2B H 0.580650 0.539868 0.743997 0.058 Uiso 0.5 1 calc R U P A 2
C3B C 0.5392(13) 0.5238(12) 0.564(7) 0.073(13) Uani 0.5 1 d D U P A 2
O1B O 0.5143(9) 0.4857(9) 0.627(5) 0.088(15) Uani 0.5 2 d DS TU P A 2
loop_
_atom_site_aniso_label
_atom_site_aniso_U_11
_atom_site_aniso_U_22
_atom_site_aniso_U_33
_atom_site_aniso_U_23
_atom_site_aniso_U_13
_atom_site_aniso_U_12
Cu1 0.0692(19) 0.0668(16) 0.0524(18) -0.0020(6) -0.0041(12) 0.0346(9)
Cl1 0.091(3) 0.133(4) 0.072(3) 0.001(3) 0.0006(14) 0.067(2)
N1 0.050(7) 0.050(7) 0.050(8) 0.002(3) -0.002(3) 0.010(7)
N2A 0.058(11) 0.031(12) 0.054(12) -0.003(9) 0.000(9) 0.012(10)
C1A 0.054(12) 0.041(13) 0.041(15) 0.001(11) -0.005(10) 0.011(10)
C2A 0.061(15) 0.047(14) 0.038(18) 0.002(13) -0.008(12) 0.006(12)
C3A 0.055(15) 0.066(14) 0.05(2) 0.008(13) -0.005(13) -0.002(12)
O1A 0.071(13) 0.071(13) 0.07(3) 0.010(12) -0.010(12) -0.015(13)
N2B 0.046(11) 0.045(12) 0.043(10) 0.001(9) 0.014(9) 0.013(9)
C1B 0.051(11) 0.040(11) 0.032(15) -0.005(10) 0.000(9) 0.016(9)
C2B 0.052(14) 0.043(13) 0.035(17) -0.005(11) 0.002(11) 0.011(11)
C3B 0.067(16) 0.058(13) 0.04(2) 0.005(13) -0.005(13) -0.009(13)
O1B 0.076(13) 0.076(13) 0.03(2) 0.016(11) -0.016(11) -0.024(15)
loop_
_atom_type_symbol
_atom_type_description
_atom_type_scat_dispersion_real
_atom_type_scat_dispersion_imag
_atom_type_scat_source
C C 0.0181 0.0091 'International Tables Vol C Tables 4.2.6.8 and 6.1.1.4'
H H 0.0000 0.0000 'International Tables Vol C Tables 4.2.6.8 and 6.1.1.4'
N N 0.0311 0.0180 'International Tables Vol C Tables 4.2.6.8 and 6.1.1.4'
O O 0.0492 0.0322 'International Tables Vol C Tables 4.2.6.8 and 6.1.1.4'
Cl Cl 0.3639 0.7018 'International Tables Vol C Tables 4.2.6.8 and 6.1.1.4'
Cu Cu -1.9646 0.5888 'International Tables Vol C Tables 4.2.6.8 and 6.1.1.4'
loop_
_geom_angle_atom_site_label_1
_geom_angle_atom_site_label_2
_geom_angle_atom_site_label_3
_geom_angle
_geom_angle_site_symmetry_1
_geom_angle_site_symmetry_3
N2A Cu1 N2A 176(3) 18_656 .
N2A Cu1 N2B 9(4) 18_656 18_656
N2A Cu1 N2B 174(2) . 18_656
N2B Cu1 N2B 170(3) . 18_656
N2A Cu1 N1 88.2(15) 18_656 9_565
N2A Cu1 N1 88.2(15) . 9_565
N2B Cu1 N1 94.8(15) . 9_565
N2B Cu1 N1 94.8(15) 18_656 9_565
N2A Cu1 Cl1 84.6(14) 18_656 .
N2A Cu1 Cl1 95.2(13) . .
N2B Cu1 Cl1 89.9(12) . .
N2B Cu1 Cl1 90.6(13) 18_656 .
N1 Cu1 Cl1 87.38(7) 9_565 .
N2A Cu1 Cl1 95.2(13) 18_656 9_565
N2A Cu1 Cl1 84.6(14) . 9_565
N2B Cu1 Cl1 90.6(13) . 9_565
N2B Cu1 Cl1 89.9(12) 18_656 9_565
N1 Cu1 Cl1 87.38(7) 9_565 9_565
Cl1 Cu1 Cl1 174.76(15) . 9_565
Cu1 Cl1 Cu1 91.33(16) 14_654 .
N2A N1 N2A 112(3) . 4_556
N2A N1 N2B 110.1(16) . 4_556
N2A N1 N2B 13(6) 4_556 4_556
N2B N1 N2B 112(3) 4_556 .
N2A N1 Cu1 124.1(14) . 14_654
N2A N1 Cu1 124.1(14) 4_556 14_654
N2B N1 Cu1 124.1(15) 4_556 14_654
N2B N1 Cu1 124.1(15) . 14_654
N1 N2A C1A 107.1(19) . .
N1 N2A Cu1 114.1(18) . .
C1A N2A Cu1 139(2) . .
N2A C1A C2A 131(3) . .
N2A C1A C1A 106.9(18) . 4_556
C2A C1A C1A 122.0(18) . 4_556
C3A C2A C1A 120(2) . .
C3A C2A H2A 119.9 . .
C1A C2A H2A 120.0 . .
C2A C3A O1A 120(2) . .
C2A C3A C3A 117(2) . 4_556
O1A C3A C3A 121(2) . 4_556
C3A O1A C3A 117(4) 22_665 .
N1 N2B C1B 107(2) . .
N1 N2B Cu1 111(2) . .
C1B N2B Cu1 137(2) . .
N2B C1B C2B 132(3) . .
N2B C1B C1B 106.9(18) . 4_556
C2B C1B C1B 120.9(17) . 4_556
C3B C2B C1B 117(2) . .
C3B C2B H2B 121.6 . .
C1B C2B H2B 121.6 . .
C2B C3B O1B 120(2) . .
C2B C3B C3B 121(2) . 4_556
O1B C3B C3B 118.4(19) . 4_556
C3B O1B C3B 123(4) 22_665 .
loop_
_geom_bond_atom_site_label_1
_geom_bond_atom_site_label_2
_geom_bond_distance
_geom_bond_site_symmetry_2
Cu1 N2A 2.00(3) 18_656
Cu1 N2A 2.00(3) .
Cu1 N2B 2.05(3) .
Cu1 N2B 2.05(3) 18_656
Cu1 N1 2.162(12) 9_565
Cu1 Cl1 2.358(3) .
Cu1 Cl1 2.358(3) 9_565
N1 N2A 1.343(17) .
N1 N2A 1.343(17) 4_556
N1 N2B 1.341(17) 4_556
N1 N2B 1.341(17) .
N2A C1A 1.352(18) .
C1A C2A 1.355(18) .
C1A C1A 1.44(10) 4_556
C2A C3A 1.323(17) .
C2A H2A 0.9300 .
C3A O1A 1.395(18) .
C3A C3A 1.66(11) 4_556
N2B C1B 1.347(17) .
C1B C2B 1.358(18) .
C1B C1B 1.43(10) 4_556
C2B C3B 1.330(18) .
C2B H2B 0.9300 .
C3B O1B 1.392(18) .
C3B C3B 1.44(12) 4_556
