#------------------------------------------------------------------------------
#$Date: 2017-07-20 01:38:32 +0300 (Thu, 20 Jul 2017) $
#$Revision: 198807 $
#$URL: file:///home/coder/svn-repositories/cod/cif/4/12/62/4126286.cif $
#------------------------------------------------------------------------------
#
# This file is available in the Crystallography Open Database (COD),
# http://www.crystallography.net/
#
# All data on this site have been placed in the public domain by the
# contributors.
#
data_4126286
loop_
_publ_author_name
'Siegelman, Rebecca L.'
'McDonald, Thomas M.'
'Gonzalez, Miguel I.'
'Martell, Jeffrey'
'Milner, Phillip J.'
'Mason, Jarad A.'
'Berger, Adam H.'
'Bhown, Abhoyjit S.'
'Long, Jeffrey R.'
_publ_section_title
;
 Controlling Cooperative CO2 Adsorption in Diamine-Appended Mg2(dobpdc)
 Metal-Organic Frameworks.
;
_journal_name_full               'Journal of the American Chemical Society'
_journal_paper_doi               10.1021/jacs.7b05858
_journal_year                    2017
_chemical_formula_moiety         'C27 H38 N4 O8 Zn2'
_chemical_formula_sum            'C27 H38 N4 O8 Zn2'
_chemical_formula_weight         677.38
_chemical_name_common            Zn2(dobpdc)(e-2-e-CO2)(e-2-e)
_space_group_crystal_system      trigonal
_space_group_IT_number           154
_space_group_name_Hall           'P 32 2"'
_space_group_name_H-M_alt        'P 32 2 1'
_symmetry_space_group_name_Hall  'P 32 2"'
_symmetry_space_group_name_H-M   'P 32 2 1'
_atom_sites_solution_hydrogens   geom
_atom_sites_solution_primary     'intrinsic phasing'
_atom_sites_solution_secondary   difmap
_audit_creation_date             2016-12-11
_audit_creation_method
;
Olex2 1.2
(compiled Nov 22 2016 11:51:51 for OlexSys, GUI svn.r5269)
;
_cell_angle_alpha                90
_cell_angle_beta                 90
_cell_angle_gamma                120
_cell_formula_units_Z            3
_cell_length_a                   21.6857(8)
_cell_length_b                   21.6857(8)
_cell_length_c                   6.8891(3)
_cell_measurement_reflns_used    9987
_cell_measurement_temperature    195
_cell_measurement_theta_max      25.491
_cell_measurement_theta_min      2.365
_cell_volume                     2805.69(19)
_computing_cell_refinement       'SAINT v8.34A (Bruker, 2013)'
_computing_data_collection       'Bruker APEX3'
_computing_data_reduction        'SAINT v8.34A (Bruker, 2013)'
_computing_molecular_graphics    'Olex2 (Dolomanov et al., 2009)'
_computing_publication_material  'Olex2 (Dolomanov et al., 2009)'
_computing_structure_refinement  'ShelXL (Sheldrick, 2015)'
_computing_structure_solution    'ShelXT (Sheldrick, 2015)'
_diffrn_ambient_temperature      195
_diffrn_detector_area_resol_mean 10.42
_diffrn_measured_fraction_theta_full 0.999
_diffrn_measured_fraction_theta_max 0.999
_diffrn_measurement_device_type  'Bruker D8 with PHOTON 100 detector'
_diffrn_measurement_method       '\f and \w shutterless scans'
_diffrn_radiation_monochromator  'channel-cut Si(111) crystal'
_diffrn_radiation_type           synchrotron
_diffrn_radiation_wavelength     0.7749
_diffrn_reflns_av_R_equivalents  0.0759
_diffrn_reflns_av_unetI/netI     0.0358
_diffrn_reflns_Laue_measured_fraction_full 0.999
_diffrn_reflns_Laue_measured_fraction_max 0.999
_diffrn_reflns_limit_h_max       24
_diffrn_reflns_limit_h_min       -23
_diffrn_reflns_limit_k_max       24
_diffrn_reflns_limit_k_min       -24
_diffrn_reflns_limit_l_max       7
_diffrn_reflns_limit_l_min       -7
_diffrn_reflns_number            28756
_diffrn_reflns_point_group_measured_fraction_full 0.999
_diffrn_reflns_point_group_measured_fraction_max 0.999
_diffrn_reflns_theta_full        25.517
_diffrn_reflns_theta_max         25.517
_diffrn_reflns_theta_min         2.365
_diffrn_source
;
Advanced Light Source, station 11.3.1
;
_exptl_absorpt_coefficient_mu    1.661
_exptl_absorpt_correction_T_max  0.922
_exptl_absorpt_correction_T_min  0.706
_exptl_absorpt_correction_type   multi-scan
_exptl_absorpt_process_details
;
SADABS-2014/2 (Bruker,2014) was used for absorption correction.
wR2(int) was 0.1496 before and 0.0789 after correction.
The Ratio of minimum to maximum transmission is 0.7655.
The \l/2 correction factor is Not present.
;
_exptl_crystal_colour            'pale yellow'
_exptl_crystal_colour_modifier   pale
_exptl_crystal_colour_primary    yellow
_exptl_crystal_density_diffrn    1.025
_exptl_crystal_density_method    'not measured'
_exptl_crystal_description       prism
_exptl_crystal_F_000             882
_exptl_crystal_size_max          0.071
_exptl_crystal_size_mid          0.05
_exptl_crystal_size_min          0.05
_refine_diff_density_max         0.829
_refine_diff_density_min         -0.842
_refine_diff_density_rms         0.107
_refine_ls_abs_structure_details
;
 Refined as an inversion twin.
;
_refine_ls_abs_structure_Flack   0.37(5)
_refine_ls_extinction_method     none
_refine_ls_goodness_of_fit_ref   1.232
_refine_ls_hydrogen_treatment    constr
_refine_ls_matrix_type           full
_refine_ls_number_parameters     200
_refine_ls_number_reflns         2706
_refine_ls_number_restraints     133
_refine_ls_restrained_S_all      1.209
_refine_ls_R_factor_all          0.0680
_refine_ls_R_factor_gt           0.0645
_refine_ls_shift/su_max          0.000
_refine_ls_shift/su_mean         0.000
_refine_ls_structure_factor_coef Fsqd
_refine_ls_weighting_details
'w=1/[\s^2^(Fo^2^)+(0.0602P)^2^+11.4113P] where P=(Fo^2^+2Fc^2^)/3'
_refine_ls_weighting_scheme      calc
_refine_ls_wR_factor_gt          0.1610
_refine_ls_wR_factor_ref         0.1628
_reflns_Friedel_coverage         0.835
_reflns_Friedel_fraction_full    0.999
_reflns_Friedel_fraction_max     0.999
_reflns_number_gt                2572
_reflns_number_total             2706
_reflns_threshold_expression     'I > 2\s(I)'
_cod_data_source_file            ja7b05858_si_012.cif
_cod_data_source_block           gcell079s
_cod_original_cell_volume        2805.7(2)
_cod_database_code               4126286
_shelx_space_group_comment
;
The symmetry employed for this shelxl refinement is uniquely defined
by the following loop, which should always be used as a source of
symmetry information in preference to the above space-group names.
They are only intended as comments.
;
_shelx_estimated_absorpt_t_max   0.922
_shelx_estimated_absorpt_t_min   0.891
_olex2_refinement_description
;
1. Twinned data refinement
 Scales: 0.63(5) 0.37(5)
2. Fixed Uiso
 At 1.2 times of:
  All C(H) groups, All C(H,H) groups, All C(H,H,H,H,H,H) groups, All N(H,H)
  groups
3. Restrained distances
 O4-C8 \\sim O5-C8
 with sigma of 0.02
 N2-C10 \\sim N2-C12
 with sigma of 0.02
 N3-C13 \\sim N3-C12
 with sigma of 0.02
 C14-C13 \\sim C10-C9
 with sigma of 0.02
4. Uiso/Uaniso restraints and constraints
O4 \\sim O5 \\sim N2 \\sim N3 \\sim C8 \\sim C9 \\sim C10 \\sim C11 \\sim C12
\\sim C13 \\sim C14: within 2A with sigma of 0.04 and sigma for terminal atoms
of 0.08
O4: within 2A with sigma of 0.01 and sigma for terminal atoms of 0.02
5. Rigid body (RIGU) restrains
 O4, O5, N2, N3, C8, C9, C10, C11, C12, C13, C14
 with sigma for 1-2 distances of 0.004 and sigma for 1-3 distances of 0.004
6. Others
 Fixed Sof: O5(0.5) C8(0.5) N2(0.5) N3(0.5) H3A(0.5) H3B(0.5) C9(0.5) H9A(0.5)
 H9B(0.5) C10(0.5) H10A(0.25) H10B(0.25) H10C(0.25) H10D(0.25) H10E(0.25)
 H10F(0.25) C11(0.5) H11A(0.5) H11B(0.5) C12(0.5) H12A(0.5) H12B(0.5) C13(0.5)
 H13A(0.5) H13B(0.5) C14(0.5) H14A(0.25) H14B(0.25) H14C(0.25) H14D(0.25)
 H14E(0.25) H14F(0.25)
7.a Secondary CH2 refined with riding coordinates:
 N3(H3A,H3B), C9(H9A,H9B), C11(H11A,H11B), C12(H12A,H12B), C13(H13A,H13B)
7.b Aromatic/amide H refined with riding coordinates:
 C3(H3), C5(H5), C6(H6)
7.c Disordered Me refined with riding coordinates:
 C10(H10A,H10B,H10C,H10D,H10E,H10F), C14(H14A,H14B,H14C,H14D,H14E,H14F)
;
_shelx_res_file
;
TITL gcell079s_a.res in P3(2)21
    gcell079s.res
    created by SHELXL-2016/6 at 17:02:14 on 11-Dec-2016
REM Old TITL GCELL079S in P3(2)21
REM SHELXT solution in P3(2)21
REM R1 0.133, Rweak 0.048, Alpha 0.010, Orientation as input
REM Flack x = 0.406 ( 0.008 ) from Parsons' quotients
REM Formula found by SHELXT: Q20 N C2 Zn
CELL 0.7749 21.6857 21.6857 6.8891 90 90 120
ZERR 3 0.0008 0.0008 0.0003 0 0 0
LATT -1
SYMM -Y,+X-Y,0.667+Z
SYMM +Y-X,-X,0.333+Z
SYMM +Y,+X,-Z
SYMM -Y+X,-Y,0.333-Z
SYMM -X,-X+Y,0.667-Z
SFAC C H N O Zn
DISP C 0.004 0.002 13.6
DISP H 0 0 0.7
DISP N 0.008 0.004 23.9
DISP O 0.014 0.007 40.889
DISP Zn 0.228 1.672 7409.4
UNIT 63 66 6 27 6
EQIV $1 1-Y,1+X-Y,-0.333+Z
EQIV $2 +X,+Y,-1+Z
SADI O4 C8 O5 C8
SADI N2 C10 N2 C12
SADI N3 C13 N3 C12
SADI C14 C13 C10 C9
SIMU O4 O5 N2 N3 C8 C9 > C14
SIMU 0.01 0.02 2 O4
RIGU O4 O5 N2 N3 C8 C9 C10 C11 C12 C13 C14

L.S. 100 0 0
PLAN  20
SIZE 0.05 0.05 0.071
TEMP -78.15
HTAB N3 O3_$1
HTAB N3 O5_$2
HTAB
BOND $H
list 4
MORE -1
CONF
fmap 2 53
acta
TWIN -1 0 0 0 -1 0 0 0 -1 2
REM <olex2.extras>
REM <HklSrc "%./GCELL079S.hkl">
REM </olex2.extras>

WGHT    0.060200   11.411301
BASF   0.37466
FVAR       0.55794
ZN1   5    0.393499    0.721839    0.646463    11.00000    0.03404    0.02671 =
         0.01910   -0.00395   -0.00174    0.01642
O1    4    0.413262    0.652415    0.791845    11.00000    0.03800    0.04767 =
         0.01617   -0.00864   -0.00496    0.03582
O2    4    0.354040    0.639786    0.434539    11.00000    0.02476    0.03306 =
         0.01651   -0.00574   -0.00521    0.02225
O3    4    0.379525    0.587297    0.200111    11.00000    0.04443    0.04578 =
         0.01612   -0.00665   -0.00403    0.03553
O4    4    0.496787    0.784101    0.521353    11.00000    0.05320    0.09811 =
         0.09190   -0.00622    0.01143    0.01435
O5    4    0.577184    0.792479    0.679006    10.50000    0.09479    0.15664 =
         0.06494   -0.01164   -0.02233    0.02321
C1    1    0.442551    0.617755    0.709817    11.00000    0.03884    0.05685 =
         0.01508   -0.00457    0.00033    0.03248
C2    1    0.432720    0.597401    0.505227    11.00000    0.03687    0.04953 =
         0.02421   -0.00404   -0.00645    0.02872
C3    1    0.467274    0.564205    0.432216    11.00000    0.06697    0.06700 =
         0.01647   -0.00823   -0.00853    0.05576
AFIX  43
H3    2    0.461610    0.552261    0.298220    11.00000   -1.20000
AFIX   0
C4    1    0.510438    0.546820    0.543210    11.00000    0.08058    0.06917 =
         0.02356   -0.00650   -0.01079    0.06684
C5    1    0.518641    0.566496    0.736171    11.00000    0.09551    0.10101 =
         0.01112   -0.00513   -0.00984    0.08710
AFIX  43
H5    2    0.548721    0.557054    0.815874    11.00000   -1.20000
AFIX   0
C6    1    0.483756    0.600078    0.817878    11.00000    0.09271    0.09627 =
         0.00888   -0.00519   -0.00181    0.07846
AFIX  43
H6    2    0.489142    0.610738    0.952680    11.00000   -1.20000
AFIX   0
C7    1    0.386473    0.610619    0.371830    11.00000    0.03053    0.02244 =
         0.00986    0.00216   -0.00075    0.01570
C8    1    0.553179    0.786577    0.513699    10.50000    0.05818    0.12664 =
         0.06488    0.00283    0.00734    0.02956
PART -1
N2    3    0.580911    0.778072    0.342891    10.50000    0.06703    0.17319 =
         0.06442   -0.01244   -0.00263    0.05085
N3    3    0.565150    0.862590   -0.102247    10.50000    0.05737    0.17001 =
         0.07940    0.00780   -0.01892    0.01255
AFIX  23
H3A   2    0.517652    0.841439   -0.127045    10.50000   -1.20000
H3B   2    0.583382    0.839563   -0.171104    10.50000   -1.20000
AFIX   0
C9    1    0.649415    0.786925    0.320628    10.50000    0.09045    0.17339 =
         0.11057   -0.04004   -0.00434    0.07280
AFIX  23
H9A   2    0.673764    0.821608    0.214681    10.50000   -1.20000
H9B   2    0.676475    0.808393    0.441396    10.50000   -1.20000
AFIX   0
C10   1    0.653561    0.725636    0.279910    10.50000    0.19534    0.17612 =
         0.24947   -0.06752    0.03080    0.09631
AFIX 123
H10A  2    0.703622    0.738516    0.267723    10.25000   -1.20000
H10B  2    0.631337    0.691182    0.385583    10.25000   -1.20000
H10C  2    0.628615    0.704447    0.158013    10.25000   -1.20000
H10D  2    0.605428    0.684248    0.273156    10.25000   -1.20000
H10E  2    0.677713    0.731581    0.155296    10.25000   -1.20000
H10F  2    0.680434    0.718316    0.382866    10.25000   -1.20000
AFIX   0
C11   1    0.553127    0.785655    0.163946    10.50000    0.08351    0.16239 =
         0.07523   -0.00709   -0.00707    0.04943
AFIX  23
H11A  2    0.500468    0.759641    0.170471    10.50000   -1.20000
H11B  2    0.567416    0.764223    0.058866    10.50000   -1.20000
AFIX   0
C12   1    0.578303    0.859510    0.119024    10.50000    0.08093    0.15827 =
         0.07470   -0.01518   -0.01857    0.04221
AFIX  23
H12A  2    0.629650    0.888942    0.149323    10.50000   -1.20000
H12B  2    0.551882    0.877444    0.195519    10.50000   -1.20000
AFIX   0
C13   1    0.603902    0.944515   -0.161311    10.50000    0.08326    0.17912 =
         0.11126    0.02604   -0.02229   -0.00027
AFIX  23
H13A  2    0.585407    0.969529   -0.080832    10.50000   -1.20000
H13B  2    0.655677    0.966660   -0.137005    10.50000   -1.20000
AFIX   0
C14   1    0.591843    0.951622   -0.361488    10.50000    0.23592    0.18341 =
         0.12245    0.03670   -0.04990    0.02228
AFIX 123
H14A  2    0.615905    1.002204   -0.396233    10.25000   -1.20000
H14B  2    0.610739    0.927340   -0.440921    10.25000   -1.20000
H14C  2    0.540599    0.930205   -0.384853    10.25000   -1.20000
H14D  2    0.562257    0.904296   -0.418439    10.25000   -1.20000
H14E  2    0.567423    0.979159   -0.373750    10.25000   -1.20000
H14F  2    0.637563    0.976294   -0.429819    10.25000   -1.20000
AFIX   0
HKLF 4




REM  gcell079s_a.res in P3(2)21
REM R1 =  0.0645 for    2572 Fo > 4sig(Fo)  and  0.0680 for all    2706 data
REM    200 parameters refined using    133 restraints

END

WGHT      0.0602     11.4182

REM Instructions for potential hydrogen bonds
HTAB N3 O3_$1
HTAB N3 O5_$2
HTAB C14 O4_$2

REM Highest difference peak  0.829,  deepest hole -0.842,  1-sigma level  0.107
Q1    1   0.5211  0.7807  0.3604  11.00000  0.05    0.83
Q2    1   0.6269  0.8441  0.7045  11.00000  0.05    0.47
Q3    1   0.5838  0.8386  0.3002  11.00000  0.05    0.47
Q4    1   0.5868  0.7450  0.0492  11.00000  0.05    0.40
Q5    1   0.5669  0.8054 -0.1653  11.00000  0.05    0.38
Q6    1   0.8975  1.0000  0.6667  10.50000  0.05    0.37
Q7    1   0.5563  0.8415 -0.3269  11.00000  0.05    0.37
Q8    1   0.3968  0.7786  0.6272  11.00000  0.05    0.36
Q9    1   0.5957  0.8329  0.3703  11.00000  0.05    0.36
Q10   1   0.6100  0.8172  0.4995  11.00000  0.05    0.35
Q11   1   0.3395  0.6043  0.6375  11.00000  0.05    0.33
Q12   1   0.3406  0.6988  0.6671  11.00000  0.05    0.32
Q13   1   0.8904  0.9770 -0.0689  11.00000  0.05    0.32
Q14   1   0.5980  0.8077  0.3111  11.00000  0.05    0.31
Q15   1   0.3481  0.6827  0.4342  11.00000  0.05    0.30
Q16   1   0.3574  0.6787  0.3587  11.00000  0.05    0.30
Q17   1   0.5625  0.7412  0.6245  11.00000  0.05    0.30
Q18   1   0.5124  0.6612  1.0560  11.00000  0.05    0.30
Q19   1   0.5543  0.7773  0.7525  11.00000  0.05    0.29
Q20   1   0.8737  0.9600  0.0694  11.00000  0.05    0.29
;
_shelx_res_checksum              31108
_shelx_hkl_file
;
   0  -2   0 2611.44   78.29
   0  -2   0 2633.04   79.89
   0   2   0 2558.74   79.69
   2  -2   0 2502.15   79.09
   2   0   0 2763.02   80.69
  -2   0   0 2498.25   76.89
   0   2   0 2926.41   78.39
   2   0   0 2621.14   78.49
   2  -2   0 2763.32   78.39
   2   1   0 1084.79   34.80
   1   2   0 1085.69   36.20
   2   1   0 1068.89   33.90
   1  -3   0 1059.49   37.50
   2  -3   0 1093.19   33.90
  -3   1   0 1020.20   31.90
  -3   2   0  988.80   31.60
   2   1   0 1078.29   34.90
   2  -3   0 1082.59   33.40
   1   2   0 1026.70   32.70
   2  -3   0 1013.60   31.90
  -3   1   0 1020.90   31.30
   1   2   0  996.10   34.10
   1  -3   0 1049.20   33.00
   2  -3   0 1055.69   35.90
   1  -3   0 1108.29   34.80
   3  -1   0 1033.60   34.50
   3  -2   0 1026.40   34.10
   3  -2   0 1106.09   34.60
   3  -2   0 1031.50   31.90
   3  -1   0 1092.79   35.10
  -2  -1   0 1055.49   35.30
  -1  -2   0 1084.19   34.60
  -2   3   0 1072.29   36.00
  -1  -2   0 1068.89   37.10
   3  -1   0 1021.60   31.90
  -2  -1   0 1032.80   33.20
  -1   3   0 1065.79   37.50
   3  -3   0 1125.29   34.40
  -3   3   0 1174.48   36.70
   3   0   0 1083.59   37.00
   3   0   0 1056.09   34.40
   0   3   0 1172.18   40.60
   0   3   0  938.81   32.60
   0   3   0  939.91   34.90
   0  -3   0 1159.38   37.10
   0  -3   0 1182.08   40.00
   3  -3   0  993.90   34.20
   3   0   0 1043.10   35.90
  -3   0   0 1084.19   33.50
   3  -3   0 1096.79   35.30
   3  -3   0 1067.39   36.00
  -3   0   0 1117.79   35.00
   2  -4   0 3817.82  117.99
   2   2   0 3910.71  115.99
   2  -4   0 3885.81  115.29
   2   2   0 3773.92  117.09
   2  -4   0 3928.01  114.29
   2   2   0 3835.92  114.29
  -2  -2   0 3809.52  114.89
  -2  -2   0 3715.63  117.09
   4  -2   0 3842.72  115.99
   4  -2   0 3925.41  112.19
  -2   4   0 3965.30  118.79
   4  -2   0 3883.01  115.79
  -2   4   0 3715.63  111.89
   3  -4   0  632.14   23.40
   3  -4   0  679.13   25.30
  -4   3   0  660.63   26.10
   3  -4   0  656.73   25.90
   1  -4   0  690.63   24.50
   3   1   0  641.14   28.60
   3  -4   0  627.14   30.10
   3   1   0  716.93   28.20
   1   3   0  667.83   32.60
   1  -4   0  650.53   34.10
   1   3   0  644.14   23.50
   3   1   0  632.94   26.10
  -4   1   0  624.44   21.90
   1  -4   0  645.54   28.60
  -4   1   0  615.04   23.30
   1   3   0  647.44   26.50
   4  -3   0  652.33   26.50
  -1  -3   0  693.73   34.10
  -3  -1   0  673.63   28.60
  -1  -3   0  666.93   28.60
   4  -3   0  693.13   23.50
   4  -1   0  667.33   23.10
  -3   4   0  581.14   30.20
   4  -1   0  677.23   27.20
  -1   4   0  608.64   32.80
  -3  -1   0  690.53   25.60
   4  -1   0  663.23   28.70
  -1   4   0  717.33   22.00
   4  -3   0  662.53   26.10
   0   4   0  703.23   27.20
   0  -4   0  599.24   36.90
   0   4   0  517.45   38.10
   4  -4   0  580.04   28.70
  -4   0   0  591.64   23.30
   4   0   0  597.64   25.30
  -4   4   0  552.34   29.80
   4  -4   0  564.64   25.20
  -4   0   0  635.04   26.60
   0   4   0  658.93   21.50
   4  -4   0  572.44   24.20
   4  -4   0  613.64   25.30
   4   0   0  636.04   27.00
   0  -4   0  541.25   30.40
   4   0   0  589.64   30.20
   2   3   0 3614.54  112.39
  -5   2   0 3713.03  107.69
   3   2   0 3640.84  110.59
   3  -5   0 3674.13  115.39
   2   3   0 3578.44  109.19
   3  -5   0 3738.23  111.29
   3   2   0 3793.82  113.49
   3  -5   0 3667.43  109.89
   2  -5   0 3604.14  109.39
   2  -5   0 3649.93  115.99
   2   3   0 3749.92  115.59
   3   2   0 3704.63  113.59
   2  -5   0 3496.15  111.49
   5  -2   0 3698.03  107.39
  -3  -2   0 3684.93  114.09
   5  -3   0 3476.85  111.19
   5  -3   0 3543.25  107.29
  -2  -3   0 3711.23  116.89
  -2   5   0 3261.07  106.59
  -3  -2   0 3793.12  111.29
   5  -2   0 3610.44  112.59
  -2   5   0 3638.84  117.29
   5  -3   0 3555.14  112.19
  -3   5   0 3773.62  116.59
  -2  -3   0 3732.63  112.29
   5  -2   0 3494.65  111.89
  -5   1   0  786.72   26.90
   4   1   0  737.73   32.70
   4  -5   0  606.94   38.40
   1   4   0  703.13   27.90
   1  -5   0  620.64   36.50
   1   4   0  734.03   33.30
   4  -5   0  754.62   30.80
  -5   4   0  665.73   33.50
   4   1   0  800.32   38.00
   4  -5   0  707.43   32.10
   1  -5   0  648.54   45.50
   1   4   0  824.22   44.40
  -5   1   0  789.62   29.40
   4   1   0  795.12   35.10
   4  -5   0  741.53   28.90
   5  -1   0  797.82   28.40
   5  -4   0  752.42   28.70
  -1  -4   0  639.04   36.10
   5  -1   0  740.93   33.90
  -4   5   0  686.63   39.50
   5  -4   0  784.12   33.20
  -4  -1   0  870.01   37.10
  -4  -1   0  835.12   32.10
   5  -1   0  692.33   37.10
  -1  -4   0  627.14   43.80
   5  -4   0  779.22   32.00
  -1   5   0  636.84   44.70
   5   0   0 2249.07   72.29
   0   5   0 2334.67   71.39
   5  -5   0 2145.89   72.59
   5   0   0 2195.58   69.39
  -5   0   0 2138.99   70.49
   5  -5   0 2294.07   69.29
   0   5   0 2049.70   79.49
   5  -5   0 2116.89   69.29
   0   5   0 2292.37   65.79
   5  -5   0 2120.89   70.39
   0  -5   0 1957.20   78.79
   0  -5   0 2067.79   73.89
  -5   5   0 2172.98   73.09
  -5   0   0 2189.58   67.99
   3   3   0 3211.98   97.19
   3  -6   0 2963.80   91.39
   3  -6   0 3046.60   98.99
   3   3   0 2841.92   91.59
   3  -6   0 3109.39   94.39
  -6   3   0 2979.90   88.69
   3   3   0 2838.52   94.79
  -3  -3   0 3201.68   99.19
  -3   6   0 3186.28  100.39
  -3  -3   0 3235.38   94.59
   6  -3   0 2726.43   93.79
   6  -3   0 3025.10   95.59
   6  -3   0 2848.01   88.19
   6  -3   0 2629.04   87.59
   4  -6   0 2894.01   90.59
   4  -6   0 2754.72   94.39
   2  -6   0 2900.41   97.59
   4  -6   0 2891.51   89.59
  -6   4   0 2877.11   89.39
   2   4   0 2991.50   92.29
  -6   4   0 2645.54   86.09
  -6   2   0 2637.04   86.69
   4   2   0 2963.00   93.99
   2  -6   0 2927.81   88.89
   2  -6   0 2796.52   91.79
   2   4   0 2930.21   88.09
   2   4   0 2791.92   96.49
   4   2   0 3011.60   95.19
  -6   2   0 2723.23   85.59
   4   2   0 2875.71   90.69
   6  -2   0 2931.31   92.49
   6  -4   0 3027.50   86.89
   6  -2   0 2809.32   86.49
   6  -2   0 3140.09   94.59
  -2  -4   0 2818.02   97.99
  -4  -2   0 2739.83   94.09
  -2   6   0 2790.12   97.49
  -4   6   0 2835.72   95.29
  -2  -4   0 2889.01   92.69
   6  -4   0 2943.61   92.29
  -4  -2   0 2818.72   90.79
  -2   6   0 3269.27   85.59
   6  -4   0 2798.62   90.79
   1   5   0  436.06   39.30
  -6   5   0  458.75   29.40
   5   1   0  546.25   29.40
   5   1   0  511.25   27.50
   1  -6   0  378.26   32.40
   1   5   0  505.05   28.40
  -6   1   0  438.06   20.90
   5  -6   0  451.95   25.70
   5  -6   0  471.75   25.50
   5   1   0  456.65   32.80
   5  -6   0  553.24   24.40
  -6   1   0  514.95   24.70
   5  -6   0  465.25   32.20
   1  -6   0  364.36   41.20
   1   5   0  484.25   21.50
   6  -1   0  394.76   32.30
  -1   6   0  428.96   40.00
  -1  -5   0  369.16   31.30
   6  -5   0  499.55   28.30
  -5  -1   0  473.55   26.30
   6  -5   0  518.95   26.30
   6  -1   0  443.76   28.50
  -5  -1   0  497.65   31.60
   6  -5   0  489.25   23.10
   6  -1   0  451.85   22.90
   0   6   0 1146.29   38.30
  -6   6   0 1229.28   48.90
   6  -6   0 1125.59   42.50
  -6   0   0 1255.67   45.80
   0   6   0 1128.09   55.89
   6  -6   0 1217.68   47.00
   6   0   0 1204.98   46.80
   6  -6   0 1248.38   43.10
   0  -6   0 1085.69   55.69
  -6   0   0 1218.88   41.80
   6   0   0 1256.67   43.70
   0   6   0 1232.68   45.80
   6  -6   0 1222.98   44.90
   6   0   0 1222.68   50.89
   0  -6   0 1183.58   49.20
   4   3   0  341.17   23.10
   4  -7   0  370.46   22.40
   3   4   0  334.07   21.60
   3   4   0  374.86   34.50
   4  -7   0  332.67   34.90
   3  -7   0  299.77   36.70
  -7   3   0  354.56   18.80
   4   3   0  416.76   32.30
   3  -7   0  322.67   26.70
   3   4   0  353.46   29.20
   4  -7   0  343.67   25.20
  -7   4   0  350.86   17.80
   4   3   0  378.76   31.40
   3  -7   0  381.66   22.40
  -3   7   0  374.36   37.30
   7  -4   0  313.37   27.50
  -4   7   0  344.57   17.60
  -3  -4   0  324.57   35.90
   7  -3   0  322.67   27.30
   7  -4   0  328.37   25.90
  -3  -4   0  344.27   29.40
   7  -3   0  364.16   17.50
  -4  -3   0  344.67   28.00
  -4  -3   0  362.66   34.60
   7  -4   0  353.86   17.00
   7  -3   0  322.27   27.10
  -4   7   0  272.57   36.40
   5  -7   0 1313.57   48.20
   2  -7   0 1291.97   57.79
   2   5   0 1270.17   44.00
  -7   5   0 1297.07   47.40
   5  -7   0 1275.67   53.49
   2   5   0 1282.87   50.09
   5   2   0 1434.36   51.69
  -7   2   0 1247.28   41.80
   2  -7   0 1266.07   50.29
   5   2   0 1290.37   47.90
   2   5   0 1339.57   56.19
   2  -7   0 1372.06   46.10
   5  -7   0 1266.97   46.20
  -7   5   0 1274.17   42.70
  -7   2   0 1287.17   43.80
   5   2   0 1340.97   53.39
   7  -5   0 1248.38   49.20
   7  -5   0 1259.87   48.00
   7  -2   0 1245.18   49.70
  -2  -5   0 1262.47   57.69
   7  -5   0 1318.47   43.20
  -2   7   0 1199.18   57.39
  -5  -2   0 1296.07   52.69
  -5   7   0 1341.37   54.89
   7  -2   0 1279.47   51.89
  -2  -5   0 1275.77   51.19
   7  -2   0 1348.07   43.10
  -5  -2   0 1356.36   48.60
   1   6   0 1416.36   51.19
  -7   1   0 1359.86   45.10
   6   1   0 1389.16   50.29
   6  -7   0 1308.17   53.09
   1   6   0 1323.67   59.39
   6  -7   0 1348.37   48.80
  -7   1   0 1357.66   47.70
   1  -7   0 1354.26   60.89
   1   6   0 1354.46   44.10
   6  -7   0 1331.67   48.70
   6  -7   0 1335.37   46.80
   1  -7   0 1353.96   54.19
   6   1   0 1385.56   54.99
   6   1   0 1296.57   50.59
  -7   6   0 1335.27   51.89
  -1   7   0 1289.47   60.29
  -6  -1   0 1390.96   48.60
  -6   7   0 1257.27   54.49
   7  -6   0 1306.57   48.60
  -6  -1   0 1309.47   51.09
   7  -6   0 1366.06   46.30
   7  -1   0 1347.07   54.59
   7  -6   0 1335.07   50.19
   7  -1   0 1407.86   46.20
  -1  -6   0 1360.46   59.69
   7  -1   0 1335.17   51.19
  -1  -6   0 1344.67   53.79
  -1   7   0 1426.56   50.49
   7   0   0   33.60   13.90
   0  -7   0    7.70   20.70
  -7   7   0   74.59   17.70
   7   0   0   35.00   20.50
   7   0   0   71.19   18.60
   7  -7   0   35.40   14.50
   0  -7   0   49.99   18.50
   7  -7   0   52.59   12.80
   0   7   0   38.00   22.50
   7  -7   0   51.09   13.40
  -7   0   0   85.79   18.30
   0   7   0   49.80   11.60
   0   7   0   32.50   14.60
   7  -7   0   58.99   14.90
   4  -8   0  839.42   38.30
   4  -8   0  832.02   34.60
   4   4   0  831.02   34.70
  -8   4   0  767.82   30.10
   4   4   0  813.22   44.10
   4  -8   0  783.52   46.40
   4   4   0  805.12   40.90
  -4  -4   0  850.31   39.00
  -4  -4   0  833.02   46.50
  -4   8   0  838.52   29.70
   8  -4   0  811.02   28.80
   8  -4   0  836.32   38.60
   8  -4   0  815.82   40.30
  -4   8   0  859.01   48.00
   8  -4   0  759.42   29.10
   3   5   0 1183.98   47.80
   5   3   0 1131.59   43.80
  -8   3   0 1107.79   39.00
   3  -8   0 1116.49   46.90
   5   3   0 1165.98   49.30
   5  -8   0 1168.68   43.10
   3  -8   0 1088.09   54.49
   3  -8   0 1135.19   41.90
   3   5   0 1149.58   41.20
  -8   3   0 1173.48   37.40
   5  -8   0 1152.08   44.60
  -8   5   0 1119.79   42.50
   3   5   0 1108.49   52.49
   5  -8   0 1044.70   50.09
  -8   5   0 1143.29   38.40
   5   3   0 1179.48   50.49
   8  -5   0 1148.79   45.70
   8  -5   0 1108.99   45.30
  -5  -3   0 1111.89   45.40
  -3  -5   0 1124.59   53.69
  -5   8   0 1148.89   39.20
  -3   8   0  964.00   36.80
   8  -3   0 1165.78   38.40
  -3  -5   0 1116.79   47.70
  -5  -3   0 1103.99   50.49
   8  -3   0 1126.69   46.80
   8  -5   0 1084.29   37.50
  -3   8   0 1094.29   54.79
   8  -3   0 1099.59   47.40
  -5   8   0 1114.09   53.49
   6   2   0  174.08   25.30
  -8   6   0  152.18   14.80
   6  -8   0  139.39   21.50
   2   6   0  135.39   16.10
  -8   2   0  153.28   13.90
   6  -8   0  132.49   17.40
  -8   2   0  150.58   17.10
  -8   6   0  142.49   22.90
   6   2   0  145.39   29.20
   2   6   0  135.49   25.60
   6  -8   0  134.29   20.40
   2  -8   0  115.19   19.10
   6   2   0  135.39   22.80
   2  -8   0  130.89   23.10
   2   6   0  174.88   33.70
  -2  -6   0  151.28   26.50
  -2  -6   0  158.88   22.40
  -2   8   0  150.98   34.90
   8  -2   0  109.49   26.70
   8  -6   0  140.89   16.60
   8  -2   0  151.88   15.70
   8  -6   0  131.19   20.20
   8  -6   0  147.59   22.20
  -6   8   0  116.99   21.30
  -6  -2   0  170.98   29.80
  -6  -2   0  156.08   24.30
   8  -2   0   90.99   24.20
  -8   1   0  730.33   32.50
   7  -8   0  667.73   31.40
   1   7   0  603.84   33.20
   7  -8   0  697.93   32.10
   1   7   0  702.53   44.30
   1   7   0  674.23   26.50
   7  -8   0  685.63   37.70
   7   1   0  752.82   34.20
   7   1   0  668.33   35.10
  -8   7   0  706.83   37.70
   7  -8   0  688.13   32.10
  -8   1   0  710.13   28.70
   1  -8   0  672.53   46.90
   7   1   0  689.13   40.60
   8  -1   0  720.33   29.90
   8  -7   0  669.93   30.20
  -1  -7   0  631.04   44.10
  -7  -1   0  728.93   33.20
  -7   8   0  619.34   40.20
  -1   8   0  671.33   48.20
   8  -7   0  664.33   33.60
  -1  -7   0  691.63   46.70
   8  -1   0  702.83   40.10
  -7  -1   0  732.53   37.20
   8  -7   0  658.33   33.20
   8  -1   0  673.73   36.70
  -1   8   0  631.14   34.70
   0   8   0  105.59   11.70
   8  -8   0   65.19   16.50
   0  -8   0   70.89   19.00
   8  -8   0   92.49   15.60
   0   8   0   69.59   22.70
  -8   0   0  105.59   19.90
  -8   8   0   86.69   19.20
   0   8   0   98.99   24.30
   8  -8   0   76.39   19.40
   0  -8   0   37.80   22.90
   8   0   0   97.79   19.20
  -8   0   0  106.79   23.50
   8  -8   0   96.49   21.70
   4  -9   0  224.68   36.70
   5  -9   0  287.77   22.20
   4   5   0  276.27   33.60
   4   5   0  262.57   30.00
   5   4   0  297.97   32.80
   5   4   0  259.17   31.60
   4  -9   0  253.97   21.70
   4   5   0  258.47   21.50
   5   4   0  249.97   22.80
  -9   5   0  236.98   17.00
  -9   4   0  284.67   15.90
  -9   4   0  235.58   17.50
   4  -9   0  245.78   27.20
   5  -9   0  222.08   25.40
   5  -9   0  233.48   33.60
  -4  -5   0  220.68   38.20
   9  -4   0  260.67   27.80
  -5   9   0  296.57   17.50
  -4  -5   0  229.78   30.70
   9  -4   0  249.08   16.40
   9  -5   0  277.27   15.90
   9  -5   0  240.88   28.20
  -4   9   0  208.88   16.80
  -4   9   0  275.57   37.90
  -5  -4   0  229.28   28.80
   9  -4   0  250.57   27.70
  -5  -4   0  236.58   35.60
  -5   9   0  186.28   36.80
  -9   6   0 1908.01   61.79
  -9   3   0 1905.81   60.49
   3  -9   0 1927.61   71.19
   3   6   0 1955.10   75.79
   3   6   0 1910.41   69.89
   6  -9   0 1902.71   73.59
   3   6   0 1989.70   64.19
  -9   3   0 1862.21   62.59
  -9   6   0 1925.11   66.59
   3  -9   0 1926.31   64.59
   6   3   0 1946.91   70.79
   6   3   0 1932.31   67.89
   6   3   0 2019.60   73.59
   3  -9   0 2010.80   77.39
   6  -9   0 2028.20   68.59
   6  -9   0 1989.20   66.39
   9  -6   0 1905.71   68.99
   9  -3   0 1938.01   71.69
  -6   9   0 2023.90   76.79
  -3  -6   0 2003.90   77.39
  -3   9   0 2009.00   77.99
   9  -3   0 1941.01   70.29
  -6  -3   0 1973.30   67.49
  -6  -3   0 1974.30   72.69
  -6   9   0 1959.40   62.89
   9  -3   0 2019.90   61.99
   9  -6   0 1959.50   61.99
  -3   9   0 1813.02   60.09
   9  -6   0 1981.40   70.69
   7   2   0  392.86   28.60
  -9   2   0  382.36   20.60
  -9   7   0  384.56   21.10
   2   7   0  409.06   21.40
   2  -9   0  378.56   31.50
   2   7   0  413.26   40.30
   7  -9   0  368.86   34.10
   7   2   0  422.56   31.00
   7  -9   0  424.56   27.90
   2   7   0  417.76   34.80
   7   2   0  396.56   35.20
  -9   7   0  394.06   31.00
  -9   2   0  406.06   24.00
   2  -9   0  364.56   40.00
   7  -9   0  360.16   25.40
   9  -7   0  336.97   32.60
   9  -7   0  395.76   29.10
  -2  -7   0  382.06   34.30
  -2   9   0  356.06   40.70
   9  -2   0  334.97   31.80
  -7   9   0  374.76   35.50
   9  -2   0  381.66   33.90
  -7  -2   0  398.66   35.50
   9  -2   0  385.66   21.60
   9  -7   0  404.66   22.90
  -7  -2   0  392.26   29.20
   1  -9   0  306.47   33.00
   1   8   0  257.07   28.50
  -9   1   0  339.27   22.90
   8   1   0  269.77   27.90
   8  -9   0  301.27   25.80
   8   1   0  287.97   35.30
   1   8   0  349.37   38.20
   8  -9   0  303.87   31.40
   8  -9   0  332.97   25.70
  -9   8   0  345.47   31.90
   1   8   0  309.67   18.40
   1  -9   0  392.26   42.90
   8   1   0  359.56   28.20
  -9   1   0  370.76   26.90
   9  -1   0  334.27   22.40
  -1  -8   0  273.67   42.90
  -8   9   0  290.67   33.90
   9  -8   0  335.37   26.80
  -1   9   0  333.77   42.30
   9  -8   0  324.17   26.90
  -1   9   0  262.77   27.90
   9  -1   0  259.17   33.80
   9  -8   0  312.97   23.20
  -8  -1   0  351.36   27.10
  -8  -1   0  377.66   32.00
  -1  -8   0  329.07   33.50
   0  -9   0  394.16   46.30
   9   0   0  426.46   27.30
   9  -9   0  408.86   27.60
   0   9   0  410.26   32.60
  -9   9   0  449.76   37.00
  -9   0   0  482.05   28.30
   0  -9   0  430.16   36.90
   9  -9   0  429.86   33.30
   9  -9   0  402.36   27.70
  -9   0   0  474.85   33.40
   0   9   0  443.36   47.10
   9  -9   0  383.46   29.10
   9   0   0  401.76   33.20
   9   0   0  419.86   43.10
   5 -10   0 1698.73   64.69
   5   5   0 1831.12   68.99
   5 -10   0 1774.22   60.59
   5   5   0 1739.93   61.19
   5   5   0 1640.14   66.59
   5 -10   0 1807.92   72.19
 -10   5   0 1803.72   56.39
  -5  -5   0 1726.93   81.19
  10  -5   0 1724.13   66.59
  10  -5   0 1591.84   63.99
  -5  10   0 1623.64   55.69
  -5  -5   0 1724.03   72.29
   4 -10   0  883.11   37.00
   4 -10   0  845.12   50.79
   6 -10   0  821.92   49.00
 -10   6   0  860.21   32.50
 -10   6   0  847.62   37.80
   4   6   0  873.01   45.20
   6 -10   0  787.72   45.40
   4   6   0  839.72   48.80
   6   4   0  863.61   39.10
 -10   4   0  789.42   33.00
   4   6   0  887.71   36.60
 -10   4   0  863.71   31.10
   6   4   0  758.52   50.39
   4 -10   0  865.21   44.20
   6   4   0  893.61   45.60
   6 -10   0  855.21   36.40
  -4  10   0  789.02   32.10
  -4  10   0  846.42   50.19
  10  -4   0  849.12   42.30
  -6  10   0  870.11   33.30
  10  -6   0  834.42   31.70
  -4  -6   0  834.82   51.99
  -6  10   0  825.82   50.49
  10  -6   0  909.01   42.60
  10  -4   0  770.62   48.00
  10  -4   0  845.62   32.00
  -4  -6   0  872.91   44.00
  -6  -4   0  873.41   42.00
  10  -6   0  849.52   41.00
  -6  -4   0  872.01   49.40
   7 -10   0  479.15   40.00
   7   3   0  463.95   41.00
   7 -10   0  564.34   33.80
 -10   3   0  471.85   26.10
   7   3   0  597.84   36.80
 -10   7   0  526.85   33.40
   3 -10   0  467.65   27.40
 -10   3   0  479.85   23.10
   3   7   0  502.15   26.80
   3 -10   0  577.44   37.20
   7   3   0  457.55   31.50
   3   7   0  451.15   33.80
   3   7   0  596.14   45.90
   7 -10   0  532.65   30.00
 -10   7   0  535.85   24.60
   3 -10   0  598.94   47.30
  -7  -3   0  566.24   40.30
  -3  -7   0  543.75   46.50
  10  -7   0  505.05   33.00
  -7  -3   0  573.84   34.10
  10  -7   0  549.35   33.70
  -7  10   0  452.55   26.10
  -7  10   0  566.74   44.10
  10  -7   0  490.45   24.70
  10  -3   0  457.65   35.10
  -3  -7   0  628.34   39.30
  10  -3   0  548.15   24.80
  -3  10   0  629.14   47.00
   8   2   0 1318.27   53.09
   8 -10   0 1299.07   51.69
   8   2   0 1286.67   60.49
   8   2   0 1227.78   52.89
   2   8   0 1280.77   44.80
 -10   2   0 1325.97   45.60
   2 -10   0 1293.67   65.09
 -10   8   0 1342.97   54.69
   2 -10   0 1294.27   55.59
   2   8   0 1276.77   55.09
   2   8   0 1258.87   63.19
 -10   8   0 1258.07   45.20
   8 -10   0 1248.28   49.90
 -10   2   0 1279.57   48.50
   8 -10   0 1212.58   56.79
  10  -8   0 1339.17   47.10
  10  -8   0 1297.07   52.99
  -2  -8   0 1268.47   64.49
  10  -2   0 1335.17   46.10
  10  -2   0 1234.78   55.29
  -2  10   0 1307.97   89.09
  -8  -2   0 1225.28   55.89
  10  -8   0 1220.48   50.79
  -2  -8   0 1289.97   56.89
  10  -2   0 1345.47   58.69
  -8  -2   0 1303.97   51.69
  -2  10   0 1261.47   52.39
  -8  10   0 1303.77   59.29
   9   1   0   77.99   17.00
   1   9   0   90.69   20.90
   1   9   0  117.19   28.00
   1   9   0   95.39   14.80
   1 -10   0   58.89   28.80
   9   1   0   80.79   21.40
   9 -10   0  104.49   21.00
 -10   1   0  113.79   25.50
 -10   1   0   92.29   21.10
   9 -10   0   85.09   18.50
   1 -10   0   72.09   23.60
   9 -10   0   71.29   17.40
 -10   9   0  104.49   22.50
  10  -1   0   85.69   22.30
  10  -1   0   97.09   26.50
  -1  10   0   80.59   27.10
  -1  -9   0   96.49   24.40
  10  -1   0   77.79   19.90
  10  -9   0   91.59   22.00
  -9  -1   0  140.09   31.90
  -1  10   0   95.09   22.00
  10  -9   0   95.39   26.20
  -9  -1   0  118.99   25.80
  -1  -9   0   83.99   29.40
  -9  10   0   67.79   22.10
  10  -9   0  106.79   21.70
  10 -10   0  590.24   36.90
  10 -10   0  615.24   40.50
   0 -10   0  638.94   44.80
  10 -10   0  650.73   46.40
 -10  10   0  673.93   45.60
  10   0   0  557.34   40.70
   0 -10   0  653.53   54.49
  10 -10   0  615.84   34.20
   0  10   0  683.53   51.89
 -10   0   0  677.43   35.80
  10   0   0  687.53   34.60
  10   0   0  657.33   51.09
 -10   0   0  682.43   39.40
   5   6   0  651.53   33.70
   6   5   0  724.23   45.00
 -11   6   0  603.04   27.80
   6   5   0  616.14   44.40
   5   6   0  773.12   44.70
   6 -11   0  632.64   38.70
 -11   6   0  630.24   33.90
   5 -11   0  719.03   40.30
   5 -11   0  634.04   32.80
   6 -11   0  652.73   45.50
   5   6   0  616.74   42.90
   5 -11   0  664.33   49.10
   6 -11   0  619.74   31.90
 -11   5   0  644.54   26.40
   6   5   0  645.74   34.70
 -11   5   0  567.04   28.50
  11  -6   0  589.14   38.30
  -5  -6   0  648.04   50.49
  11  -5   0  633.94   40.60
  -5  11   0  527.35   28.10
  -6  -5   0  593.24   48.90
  11  -5   0  549.54   26.80
  -6  -5   0  626.44   39.90
  11  -5   0  590.04   41.30
  11  -6   0  687.83   39.30
  -5  11   0  704.13   48.40
  -5  -6   0  625.14   41.80
  -6  11   0  666.83   49.20
  11  -6   0  625.84   26.50
  -6  11   0  608.74   28.20
   4 -11   0 3067.39  100.49
 -11   4   0 2834.82   92.19
   7 -11   0 2874.51  105.19
   7 -11   0 2941.21   99.39
 -11   7   0 2938.41   96.59
   4 -11   0 3071.49  109.79
 -11   4   0 2828.22   89.79
   4   7   0 2591.24  110.49
   7 -11   0 3025.80   99.39
   7   4   0 3056.39  105.09
   4   7   0 2957.90   94.19
   4 -11   0 3028.00  101.79
   4   7   0 2858.11  101.29
   7   4   0 2997.40  102.19
 -11   7   0 2865.71   91.29
  11  -4   0 3119.39  108.99
  -7  -4   0 3029.80  105.69
  -7  11   0 2833.82   92.39
  11  -4   0 2966.60   91.29
  -4  -7   0 2984.00  107.49
  -4  -7   0 3013.30  100.89
  11  -7   0 2905.61  100.39
  11  -4   0 2972.40  102.09
  11  -7   0 2788.02   98.39
  -4  11   0 3273.67  120.39
  -7  -4   0 2946.81   98.79
  -7  11   0 3002.80  106.89
  11  -7   0 2845.42   90.79
   8 -11   0  544.55   35.30
   3   8   0  595.34   41.60
   8 -11   0  506.45   42.90
   3 -11   0  495.15   50.79
 -11   3   0  493.95   28.80
   8   3   0  552.14   37.70
   3   8   0  531.25   47.40
   8   3   0  522.45   43.20
   8   3   0  514.45   35.70
 -11   8   0  482.85   26.20
 -11   8   0  538.55   36.90
 -11   3   0  488.45   25.60
   3   8   0  560.04   28.30
  11  -3   0  595.24   41.00
  11  -8   0  581.74   27.60
  11  -3   0  595.44   49.40
  -8  11   0  489.85   45.90
  -3  -8   0  480.85   42.50
  -3  -8   0  514.55   50.49
  -8  11   0  578.64   29.10
  -3  11   0  489.75   50.29
  11  -8   0  517.85   38.00
  11  -3   0  504.45   26.20
  -8  -3   0  494.45   43.60
  11  -8   0  503.45   35.00
   9 -11   0  581.24   43.90
   9   2   0  591.34   38.30
   2 -11   0  578.04   51.19
   2   9   0  628.34   50.39
   2   9   0  518.15   46.20
   2 -11   0  597.04   41.80
   9 -11   0  562.34   35.90
 -11   2   0  666.43   33.80
 -11   9   0  579.94   28.90
   9   2   0  583.14   46.90
   2   9   0  564.24   27.20
   9   2   0  629.54   38.50
 -11   2   0  648.94   30.70
   9 -11   0  580.24   33.60
 -11   9   0  625.44   40.70
  11  -2   0  524.25   40.60
  11  -9   0  550.34   36.60
  11  -9   0  565.34   31.00
  -9  11   0  557.04   46.20
  -2  11   0  483.55   34.50
  11  -2   0  583.14   44.80
  11  -2   0  620.44   29.90
  -9  -2   0  612.44   42.60
  -2  -9   0  597.94   53.89
  11  -9   0  593.34   37.10
  -2  -9   0  588.74   44.90
  -9  -2   0  642.44   38.10
  -2  11   0  614.54   53.59
  10 -11   0  364.46   37.30
   1  10   0  408.76   48.80
 -11   1   0  414.26   29.20
  10 -11   0  370.96   30.10
   1 -11   0  286.67   54.99
  10 -11   0  345.37   31.60
 -11  10   0  400.06   40.40
 -11   1   0  405.86   32.40
  10   1   0  381.46   31.80
   1 -11   0  363.06   38.40
  10   1   0  373.76   45.40
   1  10   0  432.26   21.10
   1  10   0  354.56   35.00
 -10  -1   0  385.96   38.50
 -10  -1   0  407.76   34.80
  -1 -10   0  349.96   53.49
  -1 -10   0  400.46   40.50
 -10  11   0  304.47   40.30
  -1  11   0  405.86   51.29
  11  -1   0  323.57   36.50
  11  -1   0  379.86   27.70
  -1  11   0  348.07   31.70
  11 -10   0  391.56   32.10
  11 -10   0  369.96   33.20
  11  -1   0  371.56   42.50
  11 -10   0  385.86   29.00
  11   0   0  188.18   28.90
 -11   0   0  281.07   36.00
   0 -11   0  190.78   32.20
  11   0   0  212.48   27.90
  11   0   0  194.28   34.60
  11 -11   0  242.38   30.20
   0  11   0  178.98   29.90
   0 -11   0  187.98   35.10
 -11   0   0  226.48   30.30
   0  11   0  217.48   46.40
  11 -11   0  172.58   28.50
 -11  11   0  234.08   40.00
 -12   6   0 3218.98   96.59
   6 -12   0 3137.79  112.39
   6 -12   0 3177.88  112.89
   6 -12   0 3183.98  102.69
   6   6   0 3295.37  103.69
 -12   6   0 3074.89   98.09
   6   6   0 3248.77  111.59
   6   6   0 3432.26  140.49
  -6  -6   0 3145.69  114.29
  -6  12   0 3233.28  114.69
  12  -6   0 3135.99  108.89
  -6  -6   0 3201.58  107.29
  -6  12   0 2924.51   97.39
  12  -6   0 3041.80  106.29
   5 -12   0  929.51   59.39
   7   5   0  784.82   53.29
 -12   5   0  802.52   34.70
 -12   5   0  851.11   32.20
 -12   7   0  818.92   40.90
   5 -12   0  848.32   39.30
   7   5   0  888.21   49.60
   7 -12   0  794.32   38.20
   5 -12   0  840.22   47.90
   7 -12   0  829.52   45.60
   5   7   0  852.31   39.20
 -12   7   0  838.42   34.30
   5   7   0  926.71   53.39
   7 -12   0  828.42   52.39
   7   5   0  803.42   42.90
   5   7   0  813.52   48.90
  12  -7   0  740.13   32.10
  -7  12   0  731.63   34.60
  12  -7   0  842.92   45.40
  -7  -5   0  910.41   56.39
  -7  12   0  936.81   66.09
  -7  -5   0  914.91   47.00
  12  -7   0  834.32   45.70
  12  -5   0  856.11   33.60
  -5  -7   0  874.61   54.49
  -5  12   0  890.21   59.69
  -5  -7   0 1010.30   54.69
  12  -5   0  762.12   46.10
  12  -5   0  796.32   48.40
   8 -12   0  788.72   51.99
 -12   8   0  821.22   44.20
   4 -12   0  773.42   48.50
   4   8   0  791.22   52.39
   4 -12   0  776.62   58.19
   8   4   0  763.02   43.00
   8   4   0  843.32   54.09
   8 -12   0  809.32   39.20
   8 -12   0  787.02   42.70
 -12   8   0  818.82   34.20
   4   8   0  811.42   36.40
   8   4   0  781.92   45.30
  -8  -4   0  823.82   53.99
  12  -8   0  795.72   33.00
  12  -4   0  791.62   33.40
  -8  -4   0  838.32   46.30
  12  -4   0  758.62   47.20
  -8  12   0  742.43   35.50
  12  -4   0  789.12   46.80
  12  -8   0  799.02   45.70
  -4  -8   0  852.71   57.09
  -4  12   0  830.92   59.79
  -4  -8   0  741.83   49.10
  -8  12   0  773.82   54.89
   3   9   0 1436.36   73.59
   9   3   0 1653.73   73.19
   9   3   0 1557.24   63.69
 -12   9   0 1501.95   53.49
   9   3   0 1526.85   63.19
   9 -12   0 1485.15   61.59
   9 -12   0 1472.65   68.49
 -12   3   0 1568.74   53.99
 -12   3   0 1527.15   56.79
   9 -12   0 1464.15   58.59
   3   9   0 1591.24   54.39
   3 -12   0 1556.34   67.09
   3   9   0 1593.44   67.29
 -12   9   0 1636.24   64.09
  12  -3   0 1594.64   54.09
  -3  12   0 1519.95   76.19
  -3  -9   0 1395.06   77.59
  12  -3   0 1558.64   67.89
  -3  -9   0 1467.75   67.49
  12  -9   0 1544.95   54.39
  -3  12   0 1522.35   61.69
  -9  12   0 1532.15   56.09
  -9  -3   0 1515.35   61.79
  -9  12   0 1473.25   70.29
  12  -9   0 1497.95   62.49
  12  -3   0 1453.25   64.39
  -9  -3   0 1462.25   68.09
   2  10   0   53.19   24.60
 -12  10   0   90.89   19.70
 -12  10   0  115.69   25.80
   2 -12   0   93.09   30.80
  10   2   0   81.79   24.80
  10   2   0   46.60   32.20
  10 -12   0   99.09   25.70
   2  10   0   86.69   30.50
  10 -12   0   64.89   23.50
 -12   2   0  140.89   23.90
  10   2   0   67.09   20.10
  10 -12   0   96.39   21.60
   2 -12   0   49.40   23.30
  -2  12   0   89.49   33.00
  12  -2   0   47.00   29.40
  12 -10   0   89.19   17.30
 -10  12   0   52.09   26.40
  12 -10   0   91.69   22.60
  12  -2   0   79.89   15.10
  12  -2   0   53.79   24.40
 -10  -2   0  103.59   23.70
 -10  -2   0  135.59   31.20
  -2 -10   0   83.29   31.90
  -2 -10   0  100.49   29.40
  -2  12   0   54.19   21.90
 -12   1   0  416.96   32.90
 -12   1   0  406.46   37.30
   1  11   0  367.16   57.39
 -12  11   0  396.16   43.60
   1  11   0  338.67   21.00
 -12  11   0  348.77   26.30
   1 -12   0  295.77   41.00
  11 -12   0  330.37   39.90
   1 -12   0  349.27   51.09
  11 -12   0  328.17   33.70
  11 -12   0  318.67   29.90
  11   1   0  362.06   32.70
  11   1   0  310.17   38.00
   1  11   0  317.17   38.50
  11   1   0  368.56   49.99
 -11  -1   0  411.26   43.80
  12 -11   0  320.57   50.19
 -11  -1   0  356.46   36.30
  12 -11   0  338.47   33.70
  -1  12   0  309.47   37.90
  -1  12   0  374.76   57.99
  -1 -11   0  311.17   54.59
  -1 -11   0  328.77   43.80
  12 -11   0  394.06   39.00
  12  -1   0  377.76   29.10
  12  -1   0  344.77   45.80
  12  -1   0  315.57   40.00
 -11  12   0  285.17   45.00
  12   0   0   47.30   31.00
   0 -12   0   18.80   25.40
  12   0   0   40.80   17.80
  12 -12   0   45.70   20.60
  12 -12   0   34.00   19.40
   0  12   0   42.20   26.70
   0 -12   0   -1.00   29.60
   0  12   0   26.30   30.80
 -12  12   0   34.90   25.20
  12   0   0   35.70   26.80
   6 -13   0  605.34   81.79
   6   7   0  783.82   53.29
   6 -13   0  821.52   39.80
 -13   6   0  817.42   32.70
   6   7   0  859.71   53.89
   7 -13   0  784.52   55.29
   7   6   0  809.82   53.59
   7   6   0  918.51   44.20
   6 -13   0  787.32   48.30
 -13   7   0  819.22   41.60
   6   7   0  885.71   42.30
   7 -13   0  872.01   41.20
 -13   7   0  797.12   34.80
   7 -13   0  843.62   48.80
   7   6   0  819.32   51.59
 -13   6   0  731.03   34.60
  -6  -7   0  785.62   49.00
  13  -7   0  867.91   47.80
  13  -6   0  819.12   47.40
  13  -6   0  837.12   48.70
  -6  13   0  696.13   59.39
  -7  -6   0  704.13   56.69
  -7  13   0  754.72   57.49
  -6  13   0  730.63   34.40
  -6  -7   0  755.62   57.59
  -7  13   0  712.63   35.40
  13  -7   0  816.52   46.40
   5   8   0 2611.34   98.79
 -13   5   0 2480.85   83.99
 -13   8   0 2736.83   92.79
   5 -13   0 2698.03  107.69
   8   5   0 2752.42   98.69
 -13   8   0 2748.02   86.39
   8 -13   0 2744.63   91.79
   8 -13   0 2660.03   96.19
   5   8   0 2773.82  102.09
   8   5   0 2956.10  104.89
   5 -13   0 2713.33   90.69
   8   5   0 2760.62   94.39
   5 -13   0 2596.04   97.29
 -13   5   0 2387.96   86.39
   5   8   0 2818.52   89.99
   8 -13   0 2660.93  103.39
  13  -8   0 2757.72   96.69
  13  -5   0 2755.92   99.39
  13  -5   0 2781.32   85.59
  -5  13   0 2777.72  106.89
  -8  13   0 2725.23  104.59
  13  -5   0 2647.73   96.29
  -8  13   0 2578.44   87.29
  -5  -8   0 2644.94   97.49
  -8  -5   0 2857.71  105.19
  -8  -5   0 2769.52   96.49
  13  -8   0 2638.34   84.79
  13  -8   0 2714.63   95.99
 -13   4   0  627.04   33.40
   9   4   0  609.54   50.99
   9   4   0  620.74   41.80
   4 -13   0  617.34   48.30
   4   9   0  646.74   34.40
 -13   4   0  592.24   29.20
   9 -13   0  583.34   36.50
 -13   9   0  609.84   35.20
   4   9   0  592.74   45.90
   4   9   0  622.24   54.39
 -13   9   0  597.64   44.50
   9 -13   0  611.54   51.29
   4 -13   0  635.94   57.09
  -4  -9   0  533.45   49.60
  -9  -4   0  591.84   44.60
  -9  13   0  543.95   51.99
  13  -9   0  607.84   41.20
  -4  -9   0  593.34   56.59
  13  -4   0  629.24   30.70
  13  -9   0  580.64   29.80
  -4  13   0  471.75   93.49
  13  -9   0  570.84   42.50
  13  -4   0  605.64   46.50
  -9  13   0  615.14   33.90
  13  -4   0  576.14   45.30
  -9  -4   0  572.34   52.29
   3  10   0  316.37   26.30
  10   3   0  244.98   35.70
  10 -13   0  287.57   30.80
   3  10   0  339.87   52.99
  10 -13   0  257.87   44.10
  10   3   0  260.07   37.30
  10 -13   0  247.28   34.40
  10   3   0  336.27   48.60
 -13  10   0  362.86   41.50
   3  10   0  300.17   42.60
   3 -13   0  240.48   43.70
   3 -13   0  250.77   54.29
 -13  10   0  275.77   24.20
  13  -3   0  285.97   24.60
 -10  13   0  198.78   45.30
  -3 -10   0  259.27   43.40
  13 -10   0  303.37   26.80
  13 -10   0  269.17   37.00
  -3  13   0  233.88   36.00
  13 -10   0  248.38   32.40
  -3  13   0  288.57   55.69
 -10  -3   0  315.47   46.10
 -10  13   0  224.68   47.60
 -10  -3   0  314.07   38.60
  13  -3   0  273.87   42.10
  -3 -10   0  217.58   53.59
  11   2   0  176.48   38.20
   2 -13   0  197.98   43.70
 -13  11   0  191.48   24.20
  11 -13   0  192.08   29.70
 -13  11   0  307.27   43.40
   2  11   0  194.98   39.50
 -13   2   0  275.47   33.50
  11 -13   0  216.38   42.20
  11   2   0  252.97   50.19
  11   2   0  174.18   33.40
   2  11   0  206.98   51.29
   2  11   0  191.48   23.30
  11 -13   0  218.78   34.20
  -2 -11   0  190.98   40.10
  -2  13   0  228.98   37.50
  13  -2   0  241.58   39.90
  -2  13   0  192.78   38.70
  -2 -11   0  182.48   33.00
 -11  -2   0  236.08   37.10
  13  -2   0  204.88   26.30
 -11  -2   0  226.68   44.50
  13 -11   0  212.58   33.60
 -11  13   0  213.28   40.80
  13 -11   0  177.78   32.50
  13 -11   0  265.67   38.10
  13  -2   0  176.38   40.90
  12 -13   0   59.29   22.10
  12   1   0   42.20   27.70
   1 -13   0   30.80   35.00
  12   1   0   45.40   37.80
   1  12   0   62.09   36.00
 -13  12   0   68.59   27.20
 -13  12   0   42.60   14.70
  12 -13   0   43.30   20.90
  12   1   0   52.19   19.90
   1 -13   0   33.50   30.90
 -13   1   0   94.19   27.70
  12 -13   0   52.39   24.40
   1  12   0   54.99   28.70
  -1  13   0   64.09   35.10
  13 -12   0   40.70   22.40
 -12  -1   0   66.49   27.10
  -1  13   0   19.70   26.20
  13  -1   0   32.20   34.10
 -12  13   0   25.90   50.29
  13  -1   0   59.49   17.70
  13  -1   0   28.30   26.20
  13 -12   0   64.09   20.70
 -12  -1   0   81.99   25.40
  -1 -12   0   18.70   33.50
  -1 -12   0   49.40   32.90
  13 -13   0  199.58   34.30
 -13   0   0  266.67   44.90
 -13  13   0  271.07   46.00
  13 -13   0  180.98   35.80
  13   0   0  205.18   41.90
   0  13   0  199.38   35.20
   0  13   0  141.89   37.90
   0 -13   0  150.78   37.30
  13   0   0  195.18   44.40
   0 -13   0  126.19   32.20
  13   0   0  179.68   32.20
   7   7   0 3026.20  111.09
   7 -14   0 3046.90  116.09
 -14   7   0 2944.11   95.99
   7 -14   0 3072.59  108.09
   7 -14   0 3080.09  100.89
 -14   7   0 3041.70   93.79
 -14   7   0 3006.30  100.99
   7   7   0 3136.69  111.79
   7   7   0 3132.99  102.49
  -7  14   0 2646.64  124.79
  -7  14   0 2820.92   96.29
  14  -7   0 3006.50  106.99
  -7  -7   0 2990.90  107.19
  14  -7   0 3081.19  107.99
  -7  -7   0 2892.71  118.19
   6 -14   0 1075.29   69.49
   8   6   0 1095.69   60.09
   8   6   0 1070.49   64.89
   6   8   0 1166.28   68.09
 -14   8   0 1116.59   43.30
   8 -14   0 1025.40   57.79
   6 -14   0 1073.69   57.79
 -14   6   0  910.91   39.70
   6   8   0 1160.58   51.79
 -14   8   0 1091.19   52.59
   8 -14   0 1126.89   67.89
   6 -14   0 1105.19   48.40
   8   6   0 1091.89   53.49
   8 -14   0 1064.79   49.20
   6   8   0 1031.50   61.59
  14  -8   0 1027.00   54.79
  14  -6   0 1060.79   57.69
  -6  -8   0 1123.59   68.49
  -6  14   0  959.60   44.70
  -8  -6   0 1137.29   68.99
  14  -8   0 1067.99   57.49
  -6  -8   0 1034.50   59.09
  14  -6   0 1052.69   58.19
  -6  14   0 1084.39   71.09
  -8  -6   0 1139.59   58.69
  -8  14   0 1107.49   65.69
   9   5   0   98.69   26.30
   5   9   0  133.39   29.80
 -14   9   0  127.49   26.10
   9 -14   0  140.39   26.20
   5   9   0   93.19   31.30
   9 -14   0  100.29   26.50
   5 -14   0   58.49   32.60
 -14   9   0   88.39   21.00
   5 -14   0   66.19   26.80
   5   9   0   87.59   29.20
   9   5   0   95.19   34.60
  -5  14   0   65.99   34.20
  -5  -9   0   61.29   31.90
  14  -5   0   82.09   14.30
  -9  -5   0  102.49   33.00
  -9  -5   0   80.79   27.20
  14  -9   0   90.59   26.30
  14  -5   0  159.08   41.30
  -9  14   0   66.39   18.90
  14  -5   0   75.09   28.70
  -5  -9   0   81.99   34.50
  14  -9   0   71.09   24.00
  14  -9   0   87.69   20.50
  -9  14   0   76.49   30.20
   4  10   0  629.34   36.80
  10   4   0  569.34   58.19
  10   4   0  574.94   46.50
   4  10   0  594.44   58.89
   4  10   0  624.84   51.19
 -14  10   0  698.93   49.30
   4 -14   0  576.64   51.79
  10 -14   0  601.94   39.50
   4 -14   0  588.04   63.29
 -14  10   0  637.54   33.40
  10 -14   0  619.44   54.69
 -14   4   0  745.53   34.30
  10 -14   0  603.64   46.00
  14  -4   0  618.84   32.60
 -10  14   0  613.04   36.90
  -4 -10   0  560.54   62.69
  14 -10   0  592.64   46.00
  14 -10   0  635.14   44.90
  14  -4   0  638.04   49.20
  14 -10   0  572.04   32.50
  -4  14   0  574.74   45.30
 -10  -4   0  617.74   56.49
 -10  14   0  584.74   56.89
  -4 -10   0  620.04   55.19
  14  -4   0  605.14   52.99
  -4  14   0  637.54   64.89
   3  11   0  148.19   36.00
   3  11   0  127.19   26.10
 -14  11   0  160.18   24.50
  11   3   0  152.38   28.30
   3 -14   0  148.29   36.40
  11   3   0  177.48   33.40
   3 -14   0  214.38   55.99
  11 -14   0  153.78   27.90
  11   3   0  131.79   37.70
  11 -14   0  170.18   38.10
  11 -14   0  170.18   32.10
   3  11   0  243.68   58.09
  -3  14   0  173.38   38.90
 -11  14   0  120.29   28.10
 -11  -3   0  194.18   41.00
  14  -3   0  199.88   44.10
  14  -3   0  163.38   24.50
  -3  14   0  168.28   39.00
  14 -11   0  146.39   28.20
  -3 -11   0  120.99   35.00
 -11  -3   0  184.98   49.50
  14  -3   0  174.28   37.60
  14 -11   0  188.98   28.50
  -3 -11   0  157.88   41.90
 -11  14   0  147.69   32.10
  12 -14   0  172.88   44.20
 -14   2   0  245.28   39.30
  12 -14   0  185.18   32.90
  12   2   0  211.58   44.00
   2 -14   0  119.49   33.20
  12   2   0  206.58   33.60
   2 -14   0  137.29   37.60
 -14  12   0  179.88   26.30
   2  12   0  257.47   61.99
 -14   2   0  278.07   38.10
  12   2   0  244.88   45.20
   2  12   0  174.18   38.90
  12 -14   0  162.48   36.50
  14 -12   0  173.88   35.70
  -2  14   0  187.28   42.20
 -12  -2   0  135.39   31.90
  -2 -12   0  146.39   36.90
  14  -2   0  221.18   42.60
  -2 -12   0  118.89   39.80
  14  -2   0  201.08   44.80
  -2  14   0  174.88   42.40
 -12  -2   0  215.18   42.10
 -12  14   0  151.48   33.00
  14 -12   0  164.58   30.20
 -12  14   0  190.58   27.30
  14  -2   0  197.48   28.00
  14 -12   0  246.78   40.80
  13   1   0  325.07   49.50
  13   1   0  323.97   58.89
  13 -14   0  335.67   45.80
   1  13   0  388.16   49.10
 -14   1   0  404.66   41.90
   1 -14   0  304.17   49.90
   1  13   0  331.77   62.09
 -14  13   0  286.27   30.40
  13   1   0  274.47   52.69
  13 -14   0  288.17   33.70
   1 -14   0  286.77   60.59
  13 -14   0  320.47   43.60
 -13  -1   0  333.37   43.30
  14  -1   0  315.17   56.29
  -1  14   0  329.47   62.29
  14 -13   0  362.06   37.00
  14  -1   0  325.77   48.60
 -13  -1   0  353.66   47.90
  -1  14   0  333.27   45.50
  14 -13   0  271.97   38.20
 -13  14   0  392.86   54.19
 -13  14   0  265.97   36.30
  -1 -13   0  235.58   51.69
  14  -1   0  314.87   34.00
  -1 -13   0  251.57   62.39
  14   0   0   62.39   31.30
 -14   0   0   75.09   30.10
   0  14   0   92.59   38.90
   0  14   0   15.60   30.90
   0 -14   0   17.70   32.80
 -14   0   0   88.69   28.30
   0 -14   0    9.60   38.40
  14 -14   0   36.80   26.80
  14   0   0   39.70   20.90
  14   0   0   42.70   40.20
   8   7   0  362.96   40.90
   7 -15   0  255.57   46.00
 -15   8   0  335.17   27.90
   8 -15   0  368.06   34.00
   7   8   0  375.36   39.20
   7   8   0  342.67   51.09
   7 -15   0  295.17   54.19
   8 -15   0  335.47   46.00
   7 -15   0  343.87   33.40
   7   8   0  332.97   52.69
 -15   8   0  331.07   38.40
   8   7   0  372.86   60.69
   8 -15   0  309.67   53.39
   8   7   0  263.87   52.39
  15  -7   0  363.16   45.30
  -7  -8   0  245.48   47.90
  15  -8   0  360.96   47.60
  -8  15   0  281.97   58.59
  15  -8   0  305.97   42.80
  -8  -7   0  291.77   55.69
  15  -7   0  323.27   47.20
  -7  15   0  299.27   60.19
  -7  15   0  275.67   32.10
  -8  -7   0  305.87   47.30
  -7  -8   0  304.87   55.99
   9   6   0 1095.89   72.19
   9   6   0 1025.20   59.59
   6 -15   0 1057.69   61.69
 -15   9   0 1042.40   44.00
   9 -15   0 1112.49   70.29
   6   9   0 1107.09   66.29
   9 -15   0 1098.09   51.99
   6   9   0 1063.09   66.09
   6 -15   0 1133.59   74.59
   9 -15   0 1044.30   58.99
 -15   9   0 1097.79   56.09
   9   6   0 1001.60   57.59
   6 -15   0 1142.39   51.19
  15  -6   0 1089.29   63.99
  -9  15   0  886.31   46.80
  -9  -6   0 1061.09   71.29
  -6  15   0 1104.99   77.29
  15  -9   0 1105.39   58.09
  -9  15   0 1073.19   70.09
  -6  -9   0 1077.89   63.79
  15  -9   0 1017.30   58.89
  15  -6   0 1021.40   61.69
  -6  -9   0 1126.29   72.89
  -9  -6   0 1092.99   62.69
  15  -6   0 1115.79   43.00
  10 -15   0  536.95   39.20
 -15  10   0  511.35   31.60
  10 -15   0  466.55   47.00
  10   5   0  507.55   48.40
   5  10   0  431.66   51.29
   5 -15   0  487.75   51.59
   5  10   0  600.44   59.29
   5  10   0  480.75   38.40
  10   5   0  490.95   47.10
  10   5   0  508.85   59.09
   5 -15   0  510.25   64.09
  10 -15   0  525.95   56.49
 -15  10   0  607.34   51.79
  15 -10   0  474.55   30.10
 -10  -5   0  429.26   71.09
 -10  -5   0  531.85   51.19
  15  -5   0  516.55   30.30
  15  -5   0  434.26   50.29
  15 -10   0  498.95   44.20
  -5 -10   0  509.55   53.59
  -5  15   0  511.75   68.09
  15 -10   0  494.95   47.30
  -5 -10   0  453.35   63.49
  11 -15   0   64.19   31.00
   4  11   0  147.09   29.30
   4 -15   0   50.39   32.40
   4 -15   0   72.29   39.80
   4  11   0   99.39   35.40
 -15  11   0   93.69   18.00
  11   4   0   77.39   29.20
  11   4   0   76.69   39.90
  11 -15   0   95.29   26.30
   4  11   0   70.19   32.40
  11   4   0   68.49   25.60
 -15  11   0  187.08   47.60
  11 -15   0   79.89   28.60
  -4  15   0   86.79   31.50
 -11  -4   0  100.79   31.00
  15  -4   0   53.49   32.90
  15 -11   0   58.59   25.00
  15 -11   0  148.19   32.40
  -4 -11   0   36.50   36.20
 -11  15   0   56.29   22.50
  15  -4   0   93.09   17.40
  15 -11   0   79.49   18.30
  -4  15   0   59.09   40.50
  -4 -11   0   68.29   32.90
 -11  -4   0   58.39   33.50
 -11  15   0   19.20   31.70
   3  12   0  316.07   30.50
  12   3   0  422.46   60.99
   3 -15   0  273.97   62.79
  12 -15   0  326.07   50.29
  12   3   0  365.86   47.40
 -15  12   0  360.86   30.20
   3  12   0  407.56   59.89
  12 -15   0  305.77   42.70
   3  12   0  369.76   50.09
  12   3   0  326.97   44.10
   3 -15   0  215.78   51.09
  12 -15   0  347.27   38.00
 -12  -3   0  352.06   55.19
 -12  -3   0  364.16   46.50
  -3  15   0  318.57   45.70
  15  -3   0  345.77   30.30
  15 -12   0  369.46   47.00
  15  -3   0  297.67   56.39
  15 -12   0  320.37   40.30
  -3 -12   0  300.27   66.39
 -12  15   0  302.37   53.49
  -3 -12   0  248.88   55.79
  -3  15   0  388.36   66.89
  15  -3   0  372.16   49.99
  15 -12   0  354.36   33.30
 -15   2   0  297.47   40.60
   2 -15   0  167.68   40.90
  13 -15   0  283.07   37.60
  13 -15   0  253.77   41.60
   2  13   0  221.08   48.80
 -15  13   0  234.48   29.60
  13   2   0  231.18   40.90
  13   2   0  275.37   52.29
   2 -15   0  153.98   37.40
  13 -15   0  147.19   38.40
  13   2   0  250.87   49.40
   2  13   0  270.37   68.39
  -2 -13   0  167.58   37.90
 -13  15   0  260.27   50.69
  15  -2   0  291.77   50.49
 -13  15   0  182.28   29.80
  15 -13   0  193.28   39.30
  15  -2   0  246.58   31.70
 -13  -2   0  261.17   45.00
 -13  -2   0  280.87   55.99
  -2 -13   0  166.58   43.50
  -2  15   0  275.27   65.99
  15  -2   0  228.38   45.30
  15 -13   0  208.88   33.90
  -2  15   0  191.58   45.10
  14   1   0  186.98   48.40
 -15   1   0  255.87   50.19
   1  14   0  144.09   38.50
  14   1   0  239.08   41.10
   1 -15   0  126.89   40.30
  14 -15   0  163.28   30.00
  14 -15   0  163.18   32.60
  14   1   0  154.98   28.50
   1  14   0  195.08   45.30
 -15  14   0  142.39   31.00
   1 -15   0  139.59   42.70
  15 -14   0  158.98   37.40
  -1  15   0  167.28   42.30
  -1 -14   0  124.69   42.20
 -14  15   0   99.89   27.40
  15  -1   0  208.88   51.19
  15 -14   0  182.28   44.70
  15  -1   0  172.58   47.40
  -1  15   0  218.88   48.80
  -1 -14   0  102.59   37.50
  15  -1   0  161.78   33.40
 -14  -1   0  147.19   34.50
 -14  15   0  251.17   50.09
 -15   0   0  408.16   46.90
  15   0   0  297.77   40.40
 -15  15   0  285.37   42.20
  15   0   0  399.76   53.49
  15 -15   0  302.67   43.30
  15 -15   0  353.56   43.10
   0  15   0  356.16   68.39
   0 -15   0  294.97   64.19
   0 -15   0  250.87   53.99
 -15   0   0  336.57   53.69
   0  15   0  366.46   51.09
  15   0   0  399.26   70.39
 -15  15   0  286.37   55.19
   8 -16   0  905.01   61.39
   8 -16   0  942.21   47.70
   8 -16   0  918.41   71.49
   8   8   0  947.11   61.59
   8   8   0  966.00   53.69
 -16   8   0  955.40   50.89
 -16   8   0  767.22   36.80
   8   8   0  872.51   67.29
  -8  16   0  711.33   45.20
  16  -8   0  913.01   59.19
  -8  -8   0  873.91   71.89
  16  -8   0  928.91   56.89
  -8  16   0  850.01   72.99
  -8  -8   0  831.42   60.99
 -16   7   0  214.38   21.00
 -16   9   0  323.37   43.40
   7   9   0  298.07   52.49
   7 -16   0  220.08   49.20
   9 -16   0  295.17   47.90
   9 -16   0  316.17   35.40
   9   7   0  256.77   47.50
 -16   9   0  290.17   27.00
   7   9   0  251.07   56.29
   7   9   0  294.97   41.20
   9 -16   0  252.47   58.69
   7 -16   0  289.97   58.49
   9   7   0  279.97   46.70
  -7  -9   0  247.98   50.89
  16  -7   0  274.27   50.89
  -7  16   0  251.97   64.59
  -9  -7   0  286.57   47.90
  16  -7   0  212.18   46.70
  -7  -9   0  259.27   60.89
  16  -9   0  254.27   42.40
  -9  -7   0  270.87   57.49
  -9  16   0  216.18   40.40
  10 -16   0   27.40   28.20
   6  10   0   50.59   31.70
 -16   6   0   39.20   16.00
   6 -16   0   29.40   34.90
   6  10   0    0.80   34.20
  10 -16   0   50.79   23.10
 -16  10   0   86.89   30.70
 -16   6   0   27.40   16.40
   6 -16   0    8.60   30.40
  10   6   0   54.19   29.90
  10   6   0   -3.40   36.40
   6  10   0   56.99   32.30
  10   6   0    9.60   25.70
  10 -16   0   41.50   34.10
 -16  10   0   38.40   15.10
  -6  16   0   16.10   37.60
 -10  -6   0   73.19   34.30
 -10  16   0   22.90   32.10
  -6 -10   0   20.00   37.30
  -6 -10   0   10.30   35.10
  16 -10   0   33.60   28.00
  16  -6   0   60.59   34.80
  16  -6   0   49.00   35.20
  16  -6   0   49.99   14.10
 -10  -6   0   37.80   34.30
  11   5   0  255.77   47.60
   5  11   0  298.47   52.59
   5 -16   0  258.27   67.09
   5  11   0  309.27   54.49
  11 -16   0  233.28   54.89
  11   5   0  221.48   57.59
  11 -16   0  361.66   36.80
  11   5   0  199.58   45.00
 -16  11   0  279.17   29.20
   5  11   0  212.88   34.30
   5 -16   0  239.18   51.49
  11 -16   0  277.27   45.80
 -11  16   0  244.18   56.19
  16  -5   0  293.37   27.30
 -11  -5   0  428.46   65.29
  16  -5   0  205.98   52.29
  16 -11   0  351.36   48.10
 -11  -5   0  244.48   59.59
  -5  16   0  206.58   43.70
  -5 -11   0  226.68   61.69
  -5 -11   0  238.98   51.89
  16  -5   0  298.47   51.29
  16 -11   0  257.87   34.50
  16 -11   0  315.47   42.20
  -5  16   0  287.77   71.79
  12 -16   0  422.86   40.10
   4  12   0  385.46   35.20
   4 -16   0  437.96   71.49
 -16  12   0  584.74   56.49
  12   4   0  377.36   67.19
 -16  12   0  464.85   34.50
  12 -16   0  416.86   49.20
   4 -16   0  413.16   55.59
  12   4   0  464.55   53.89
   4  12   0  421.96   52.69
  12 -16   0  430.76   57.89
  12   4   0  397.56   48.00
   4  12   0  504.45   62.89
  -4  16   0  549.85   76.89
  -4  16   0  385.46   48.50
  16  -4   0  418.66   56.49
  16  -4   0  417.56   53.09
  16 -12   0  420.86   33.50
  16 -12   0  473.85   49.99
  16  -4   0  484.15   33.80
  -4 -12   0  407.86   68.99
 -12  16   0  369.96   59.69
 -12  -4   0  459.75   63.49
  16 -12   0  461.75   45.80
 -12  -4   0  532.85   52.59
  -4 -12   0  350.16   56.59
 -16  13   0  342.37   33.00
  13 -16   0  342.07   39.90
  13   3   0  357.36   45.80
  13   3   0  371.46   51.79
   3 -16   0  277.27   55.09
  13   3   0  380.66   65.39
 -16   3   0  393.36   43.20
  13 -16   0  340.27   45.70
   3 -16   0  297.77   65.39
 -16   3   0  423.66   45.50
   3  13   0  431.86   63.89
  13 -16   0  351.06   53.09
   3  13   0  320.77   53.29
  16  -3   0  381.76   53.29
  -3  16   0  365.26   69.39
  16  -3   0  335.07   59.09
  16 -13   0  342.57   36.30
 -13  -3   0  347.97   50.39
  -3  16   0  291.77   49.50
 -13  -3   0  366.36   60.19
  16  -3   0  371.76   33.10
  -3 -13   0  269.87   55.59
  -3 -13   0  253.47   64.79
  16 -13   0  302.47   42.80
  14 -16   0  247.68   43.20
  14   2   0  292.07   57.89
   2  14   0  268.47   69.19
   2 -16   0  160.28   42.30
   2 -16   0  155.48   38.50
   2  14   0  261.07   51.89
  14 -16   0  262.87   51.19
  14   2   0  220.28   42.50
 -16  14   0  206.78   31.30
  14   2   0  291.37   51.69
  14 -16   0  248.98   39.00
  -2  16   0  203.58   47.30
  -2  16   0  216.98   42.20
  -2 -14   0  142.59   42.20
  16  -2   0  229.28   48.50
 -14  16   0  134.49   30.30
  16  -2   0  219.18   33.90
 -14  -2   0  272.87   50.29
 -14  16   0  141.79   39.90
  -2 -14   0  189.38   41.10
  16 -14   0  235.08   37.00
  16  -2   0  251.17   51.49
  16 -14   0  218.08   40.20
   1  15   0   61.79   41.70
  15   1   0   66.39   33.20
   1  15   0   16.10   35.80
 -16  15   0   30.40   19.50
  15 -16   0   59.89   28.10
  15   1   0   40.20   24.70
 -16   1   0   59.79   29.90
   1 -16   0   26.20   39.00
  15   1   0   55.49   45.40
  15 -16   0   43.90   27.10
   1 -16   0   -8.40   35.40
  16  -1   0   91.59   35.80
  -1 -15   0   50.69   36.90
 -15  16   0   16.60   49.80
  16 -15   0   67.39   30.60
  16  -1   0   55.79   22.90
  16 -15   0   58.99   26.60
 -15  -1   0   60.79   32.00
  -1 -15   0    6.60   34.70
  16  -1   0  103.29   46.70
  -1  16   0   70.69   44.60
 -15  -1   0   65.89   33.40
  -1  16   0   39.30   33.90
  16   0   0  555.24   47.10
 -16  16   0  635.04   57.49
   0 -16   0  524.85   72.79
   0  16   0  579.64   58.39
 -16   0   0  563.64   60.79
   0  16   0  540.35   72.09
  16 -16   0  534.85   46.80
  16 -16   0  524.35   47.60
  16   0   0  753.92   72.79
 -16   0   0  591.74   51.99
 -16  16   0  562.94   41.00
  16   0   0  604.74   58.89
   0 -16   0  486.35   59.29
   8   9   0  131.19   41.20
   9   8   0  130.39   40.70
   9 -17   0  188.18   34.70
   9   8   0  158.78   33.50
   9 -17   0  126.39   39.70
   8 -17   0   95.39   34.70
 -17   9   0   97.49   17.80
   9 -17   0  118.49   35.80
 -17   8   0  187.18   38.30
   8 -17   0  103.69   37.80
 -17   9   0  184.88   41.00
   8   9   0  159.18   35.40
   9   8   0  193.78   36.60
  -8  -9   0  112.99   40.50
  17  -8   0  104.19   32.60
  17  -9   0  118.99   32.40
  -8  17   0  103.49   40.30
  -9  17   0   91.79   38.80
  -8  -9   0  106.99   42.20
  -9  -8   0  103.49   37.50
  17  -9   0  167.58   36.40
  -9  -8   0  108.69   40.30
   7 -17   0  403.26   63.89
 -17  10   0  493.05   52.69
  10 -17   0  456.95   50.89
   7  10   0  418.96   57.49
  10   7   0  402.26   64.59
   7 -17   0  399.36   53.59
  10 -17   0  398.96   35.40
  10   7   0  394.96   48.40
  10   7   0  341.67   49.00
   7  10   0  416.46   58.79
  10 -17   0  417.06   63.69
   7  10   0  329.67   42.20
 -17  10   0  410.96   32.00
  -7  17   0  325.77   70.29
 -10  -7   0  306.17   62.59
  17 -10   0  431.76   52.89
  17  -7   0  348.37   52.29
  17  -7   0  459.55   55.99
 -10  -7   0  392.66   54.09
  -7 -10   0  389.06   56.19
  17 -10   0  407.66   48.70
 -10  17   0  359.16   63.19
  -7 -10   0  317.27   63.39
  11   6   0  260.97   64.89
   6  11   0  380.96   43.10
  11   6   0  311.07   48.40
 -17  11   0  412.66   31.20
 -17  11   0  522.65   56.49
  11 -17   0  413.46   53.19
   6  11   0  413.06   58.79
  11 -17   0  427.36   62.89
  11   6   0  359.76   51.09
   6 -17   0  346.17   55.29
   6 -17   0  387.16   62.89
   6  11   0  419.36   59.89
  11 -17   0  374.16   36.80
  -6 -11   0  424.46   58.19
 -11  17   0  404.86   62.89
  17 -11   0  416.06   48.40
  17  -6   0  411.76   29.60
  -6 -11   0  379.06   65.29
 -11  -6   0  410.16   55.19
  17 -11   0  353.76   47.10
  -6  17   0  466.85   74.29
  17 -11   0  456.05   52.79
  17  -6   0  380.56   55.99
  -6  17   0  362.26   49.50
  17  -6   0  444.76   55.19
 -11  -6   0  410.96   66.69
   5  12   0  273.07   36.20
  12 -17   0  323.47   39.20
   5  12   0  241.78   54.29
   5  12   0  293.37   61.19
 -17  12   0  371.86   53.79
   5 -17   0  282.77   66.99
 -17  12   0  248.98   30.60
  12   5   0  194.78   50.19
  12   5   0  232.38   50.79
  12   5   0  163.68   31.50
  12 -17   0  222.28   47.80
  12 -17   0  314.37   57.49
   5 -17   0  236.58   54.79
 -12  17   0  260.67   42.80
  17 -12   0  272.27   50.29
  -5  17   0  190.48   40.90
  -5 -12   0  201.18   42.60
  17 -12   0  212.18   29.50
 -12  -5   0  274.67   53.49
  17  -5   0  253.17   28.70
 -12  -5   0  248.78   44.80
  -5  17   0  309.77   71.29
  17  -5   0  218.48   42.30
  -5 -12   0  230.78   48.40
  17  -5   0  229.88   53.69
  17 -12   0  351.26   44.70
  13   4   0   44.50   34.40
  13 -17   0   64.69   32.10
   4 -17   0   30.30   38.10
  13   4   0   -8.20   26.00
   4  13   0    5.00   21.90
 -17  13   0   36.00   18.30
  13   4   0   55.59   45.10
  13 -17   0   55.69   29.50
  13 -17   0   39.90   27.50
   4  13   0   97.19   39.80
   4 -17   0   53.49   41.10
   4  13   0   62.99   36.60
 -13  -4   0   30.30   33.60
  17 -13   0   28.90   32.40
  17 -13   0   38.40   19.90
  17  -4   0   41.70   37.30
  17 -13   0   42.00   30.10
  -4 -13   0   24.40   36.10
  -4  17   0   57.79   42.70
 -13  -4   0   43.60   36.40
  -4  17   0   29.10   35.00
  17  -4   0   34.60   35.30
  17  -4   0   36.80   18.20
  -4 -13   0   31.80   39.90
   3  14   0  102.09   38.90
  14 -17   0  110.09   30.30
  14   3   0  108.19   45.10
  14   3   0   85.19   28.10
 -17  14   0   85.69   21.10
   3 -17   0   65.79   36.60
  14 -17   0  143.69   32.90
   3 -17   0  161.78   44.70
  14 -17   0  111.99   32.90
   3  14   0  124.19   43.50
  -3 -14   0   66.99   39.40
  17  -3   0  153.18   40.30
  -3  17   0   63.69   33.60
  -3  17   0  148.89   44.20
  17 -14   0   98.59   25.00
 -14  -3   0  161.98   36.20
 -14  -3   0  113.49   38.40
  17  -3   0  155.08   45.70
  17  -3   0  131.79   31.40
  -3 -14   0   83.29   35.80
  17 -14   0   78.19   30.20
   2 -17   0  626.44   74.49
  15   2   0  670.63   72.99
 -17   2   0  608.54   57.59
   2  15   0  548.95   59.59
   2 -17   0  441.56   62.69
  15 -17   0  606.64   47.40
   2  15   0  549.65   72.69
  15   2   0  603.24   58.69
 -17   2   0  736.83   52.09
  15 -17   0  580.34   49.50
 -17  15   0  608.24   40.40
  17  -2   0  694.23   75.19
  17 -15   0  566.74   48.90
  17 -15   0  598.84   44.40
  -2  17   0  532.65   72.99
  -2  17   0  558.44   55.89
 -15  -2   0  577.84   63.39
  -2 -15   0  617.84   67.99
  -2 -15   0  521.55   59.79
 -15  -2   0  660.33   55.89
  17  -2   0  582.14   58.59
   1  16   0  871.61   80.69
 -17  16   0  909.41   48.40
 -17  16   0  860.61   55.09
  16   1   0  927.61   64.39
   1 -17   0  877.11   78.19
  16 -17   0  938.11   55.39
   1 -17   0  800.52   67.09
  16 -17   0  980.60   55.29
 -17   1   0  866.31   64.19
   1  16   0  920.71   63.89
 -17   1   0  997.30   57.79
  16   1   0  922.61   56.49
 -16  17   0  735.33   60.09
  17 -16   0  921.81   53.69
  17  -1   0 1000.20   53.39
  17  -1   0  938.41   65.69
  -1  17   0  955.00   63.09
  -1  17   0  934.01   80.79
  17 -16   0  908.61   57.19
 -16  17   0  890.91   49.80
  -1 -16   0  765.42   73.39
  17  -1   0 1150.98   84.19
  -1 -16   0  799.62   66.99
 -16  17   0  742.83   51.59
 -16  -1   0  878.31   67.59
 -16  -1   0  937.41   60.39
   0 -17   0   87.89   34.50
  17   0   0  198.18   52.39
   0  17   0  142.99   39.10
 -17  17   0  124.59   31.40
 -17   0   0  145.19   36.00
  17 -17   0  184.98   38.90
 -17   0   0  205.18   47.50
  17 -17   0  227.98   41.30
  17   0   0  172.78   37.10
   0 -17   0  138.09   39.80
 -17  17   0  133.49   32.80
   0  17   0  110.59   41.50
 -17  17   0  229.98   43.90
   9 -18   0  504.45   37.70
   9 -18   0  495.85   64.79
   9   9   0  527.35   50.09
   9   9   0  522.35   67.29
 -18   9   0  595.34   48.10
   9   9   0  451.55   54.09
   9 -18   0  540.35   57.49
  -9  18   0  436.56   69.69
  -9  -9   0  431.26   61.19
  18  -9   0  522.25   52.29
  -9  -9   0  392.66   69.19
  10   8   0  219.58   47.70
   8  10   0  150.98   41.20
  10   8   0  157.58   45.50
  10 -18   0  170.38   40.80
  10 -18   0  252.07   35.90
 -18  10   0  194.78   27.20
   8  10   0  228.88   51.99
  10 -18   0  249.08   52.39
   8 -18   0  298.17   66.79
  10   8   0  163.48   33.90
   8 -18   0  187.08   38.30
 -18   8   0  271.77   41.10
  18 -10   0  287.77   50.59
 -10  18   0  189.18   43.00
 -10  -8   0  188.98   40.60
 -10  -8   0  203.78   44.80
  -8 -10   0  198.18   42.90
  -8  18   0  162.88   43.70
  18  -8   0  270.27   54.19
  18 -10   0  264.07   47.70
  18  -8   0  247.28   48.60
  -8 -10   0  213.58   43.80
   7  11   0  100.19   34.30
  11   7   0   57.79   29.20
   7 -18   0  146.39   40.00
  11 -18   0  106.79   36.60
   7  11   0   89.99   39.70
  11 -18   0  100.69   26.60
  11   7   0  150.88   35.40
 -18  11   0  154.38   28.60
   7  11   0  166.88   31.20
  11 -18   0  101.69   34.10
   7 -18   0   96.49   40.70
  11   7   0   68.29   44.60
 -11  -7   0  111.99   37.20
  18 -11   0  199.48   51.39
  -7 -11   0  109.49   39.80
  18  -7   0  114.99   39.10
  18  -7   0  128.99   38.70
  -7  18   0  117.99   45.00
 -11  18   0  110.29   39.30
  18 -11   0  125.09   33.30
  -7 -11   0  118.59   43.30
 -11  -7   0  115.39   39.00
   6  12   0   19.00   33.80
  12   6   0  -29.80   40.80
  12 -18   0   50.29   30.60
   6  12   0   25.60   39.80
  12 -18   0   61.29   35.90
  12   6   0  -16.70   24.40
   6 -18   0   -8.90   34.20
  12 -18   0   23.00   25.20
 -18  12   0   50.39   32.90
  12   6   0   39.30   31.70
 -18  12   0   16.50   15.80
   6  12   0   49.60   26.50
   6 -18   0    3.90   35.40
  18 -12   0   13.10   31.30
  18  -6   0   30.70   38.80
  18 -12   0    6.00   17.30
  18 -12   0   13.80   32.30
 -12  -6   0    9.50   34.10
  -6  18   0   48.70   46.40
  -6 -12   0   -6.10   38.70
  18  -6   0    7.30   37.30
  -6  18   0    0.50   31.10
 -12  18   0  -34.70   33.20
  18  -6   0   29.20   15.10
  -6 -12   0  -37.80   34.60
 -12  -6   0    7.70   32.40
 -18  13   0   75.89   19.30
   5 -18   0   74.19   40.00
   5  13   0   52.59   36.80
   5  13   0   55.79   27.20
  13 -18   0  120.49   30.90
  13 -18   0  111.89   33.50
  13   5   0   60.99   46.60
  13   5   0  105.79   34.60
  13 -18   0  102.59   34.10
   5  13   0  103.39   38.00
   5 -18   0   84.79   36.80
  18  -5   0  113.29   27.70
  -5  18   0   73.99   32.40
  -5 -13   0   58.49   37.80
 -13  -5   0   99.49   39.10
  18 -13   0  100.49   30.80
  18  -5   0  130.09   41.90
  18 -13   0  126.59   34.30
 -13  -5   0  115.89   36.50
  18 -13   0  101.79   21.10
  -5  18   0  135.89   45.60
  18  -5   0   70.89   37.60
  -5 -13   0   91.79   37.10
 -13  18   0   30.00   31.50
  14   4   0  402.66   54.89
  14   4   0  306.27   46.60
   4 -18   0  336.17   55.79
  14 -18   0  385.26   40.90
 -18   4   0  364.26   44.70
   4  14   0  345.27   54.39
  14 -18   0  429.16   48.70
 -18  14   0  385.86   35.00
 -18  14   0  567.14   81.29
   4  14   0  480.55   65.19
  14   4   0  424.86   68.19
   4 -18   0  325.17   67.39
 -18   4   0  478.65   50.19
  14 -18   0  411.66   54.19
  18 -14   0  399.16   45.90
 -14  -4   0  379.86   63.69
  18  -4   0  340.37   58.19
  18  -4   0  418.66   34.30
  18  -4   0  466.65   59.99
  -4  18   0  378.56   66.79
  -4 -14   0  331.77   54.29
  -4  18   0  314.17   50.29
 -14  -4   0  386.06   55.49
  18 -14   0  387.96   36.70
  -4 -14   0  381.06   66.99
   3 -18   0  309.27   56.39
  15 -18   0  439.86   46.70
 -18  15   0  450.45   38.30
 -18   3   0  397.56   53.19
  15   3   0  411.46   54.09
   3  15   0  403.66   63.29
  15   3   0  507.15   49.60
  15   3   0  524.45   76.39
  15 -18   0  445.56   43.10
  15 -18   0  411.06   53.39
   3 -18   0  480.35   65.89
   3  15   0  426.56   53.79
  -3 -15   0  415.36   64.49
  -3  18   0  345.97   48.20
  18 -15   0  369.36   37.90
  18 -15   0  400.96   44.00
  -3  18   0  369.86   72.19
  -3 -15   0  403.16   53.79
  18  -3   0  448.26   57.79
 -15  -3   0  399.36   65.19
  18  -3   0  525.05   67.99
 -15  -3   0  394.26   53.99
 -18  16   0   93.69   20.70
  16 -18   0  110.89   30.70
   2 -18   0   31.40   33.20
  16   2   0   41.20   25.50
 -18   2   0  104.79   29.40
   2  16   0   98.09   40.70
   2  16   0   40.80   37.40
  16 -18   0  108.09   29.50
  16   2   0  152.08   47.80
  16   2   0   98.19   35.00
   2 -18   0  119.09   38.70
 -16  -2   0   72.19   34.50
  18 -16   0  160.48   36.60
  -2  18   0   49.20   33.40
  18  -2   0   86.19   36.10
  18  -2   0  141.09   32.40
  18 -16   0   85.39   30.70
  -2 -16   0   70.39   37.50
  18  -2   0  263.07   64.79
  -2  18   0   91.79   39.60
  -2 -16   0   25.80   36.80
 -16  -2   0  121.89   34.00
  17 -18   0  462.95   44.10
  17   1   0  462.85   56.49
  17 -18   0  460.35   48.10
   1  17   0  342.97   69.89
  17   1   0  367.66   46.30
 -18  17   0  481.65   38.00
   1 -18   0  376.86   59.89
 -18   1   0  476.65   50.09
   1 -18   0  525.45   69.99
   1  17   0  499.25   54.09
 -18  17   0  381.76   44.60
  -1 -17   0  412.16   57.49
 -17  -1   0  552.44   61.59
 -17  18   0  514.35   38.50
  18 -17   0  467.65   45.90
 -17  -1   0  520.45   51.69
  18  -1   0  511.75   56.69
  -1  18   0  427.16   53.79
  -1 -17   0  398.76   66.89
  18  -1   0  438.86   43.10
  18 -17   0  461.25   45.40
  -1  18   0  443.06   71.29
  18 -18   0 1124.79   62.89
   0  18   0 1064.69   68.59
   0 -18   0 1038.10   75.49
 -18   0   0 1140.99   75.39
  18 -18   0 1098.09   59.59
 -18  18   0 1005.30   53.59
  18   0   0 1104.99   63.99
   0  18   0  952.30   92.59
 -18   0   0 1168.88   63.39
 -18  18   0  992.40   59.59
  18   0   0 1027.90   67.79
  10   9   0   79.89   42.90
   9  10   0  108.79   30.00
   9 -19   0  170.48   36.00
   9  10   0   87.09   43.50
  10   9   0  189.98   45.70
  10 -19   0   95.49   37.70
  10 -19   0  109.69   35.20
   9 -19   0  119.09   34.40
  10 -19   0  155.78   34.50
   9 -19   0  242.48   57.29
  19 -10   0  136.79   35.00
  -9 -10   0   56.89   37.80
  -9 -10   0  120.39   36.60
 -10  -9   0   65.49   39.20
  -9  19   0  115.79   41.40
 -10  -9   0   98.79   40.30
 -10  19   0   78.29   38.40
  19  -9   0  119.29   34.60
  19  -9   0  214.68   50.79
   8 -19   0  458.25   66.99
  11   8   0  513.35   51.69
  11 -19   0  445.46   39.80
   8  11   0  451.55   59.19
 -19   8   0  343.67   42.00
   8  11   0  324.77   52.19
   8  11   0  498.65   51.19
  11   8   0  367.76   59.89
 -19   8   0  539.15   44.40
  11 -19   0  426.26   52.09
   8 -19   0  401.26   56.99
 -19   8   0  397.46   38.00
 -19  11   0  497.75   30.60
  19 -11   0  440.36   48.10
 -11  19   0  321.37   37.10
  19  -8   0  509.45   54.99
  19  -8   0  443.96   53.09
 -11  -8   0  358.76   57.79
 -11  -8   0  292.47   64.99
  -8  19   0  395.36   72.69
 -11  19   0  366.56   64.49
  -8 -11   0  385.66   65.39
  -8 -11   0  343.87   54.29
  12 -19   0  279.47   46.80
  12   7   0  262.87   49.20
   7  12   0  227.78   40.10
  12   7   0  150.88   30.00
  12 -19   0  260.37   33.60
   7  12   0  212.28   55.09
   7 -19   0  313.27   63.59
   7  12   0  164.38   42.60
 -19  12   0  254.27   30.50
  12   7   0  169.38   48.50
 -19   7   0  305.67   38.00
  12 -19   0  232.38   56.99
   7 -19   0  308.37   55.09
  -7  19   0  178.48   45.10
  -7 -12   0  123.29   38.80
  19 -12   0  230.78   43.80
  19 -12   0  327.47   50.89
  19  -7   0  285.87   55.99
  -7 -12   0  231.38   62.09
  -7  19   0  230.98   51.59
 -12  -7   0  223.78   42.20
 -12  19   0  177.78   41.40
 -12  -7   0  197.58   41.40
  19  -7   0  274.97   54.19
  13   6   0  207.98   50.99
   6  13   0  366.26   57.99
 -19   6   0  300.77   40.20
  13 -19   0  220.18   37.90
  13   6   0  222.48   50.29
  13 -19   0  260.17   49.20
   6 -19   0  166.58   36.40
  13 -19   0  262.87   56.39
   6  13   0  252.87   57.59
   6  13   0  201.88   35.90
 -19  13   0  221.08   29.60
   6 -19   0  245.88   58.29
  19 -13   0  286.47   48.10
  -6  19   0  228.68   44.00
  19  -6   0  244.28   28.10
  19  -6   0  246.78   54.69
  -6 -13   0  149.19   39.30
  19 -13   0  213.78   42.80
 -13  -6   0  300.67   59.89
 -13  19   0  166.98   38.50
 -13  -6   0  262.57   50.29
  -6  19   0  188.38   43.70
  -6 -13   0  319.37   65.29
  19  -6   0  227.38   53.49
   5 -19   0  175.78   41.50
  14 -19   0  165.08   37.10
 -19   5   0  138.49   31.40
   5 -19   0  142.49   39.50
 -19   5   0  209.38   43.10
  14 -19   0  193.28   45.20
  14 -19   0  257.77   51.29
 -19  14   0  148.39   30.30
  14   5   0  227.08   51.19
   5  14   0  140.59   42.60
  14   5   0  135.89   47.20
   5  14   0  107.19   37.30
 -14  -5   0  203.38   48.00
  19  -5   0  151.98   39.10
  19 -14   0  135.39   30.70
  -5 -14   0  136.09   40.60
  19  -5   0  152.68   28.20
 -14  19   0   99.09   34.70
 -14  -5   0  232.78   56.39
  -5  19   0   89.99   33.40
  19 -14   0  173.28   41.60
  -5 -14   0  227.58   60.79
  -5  19   0  166.28   39.60
   4  15   0   37.50   36.90
  15 -19   0   55.99   27.60
 -19   4   0   49.20   27.40
  15 -19   0   54.59   29.20
 -19  15   0   36.80   18.50
  15 -19   0   59.59   30.30
   4 -19   0    9.60   40.30
  15   4   0   45.80   24.70
  15   4   0   58.89   33.20
   4  15   0   35.90   32.80
   4 -19   0   36.00   36.30
  15   4   0   84.99   41.60
 -15  -4   0   59.99   34.10
  -4  19   0  -12.40   40.40
  19 -15   0   32.10   30.00
  19 -15   0   35.50   21.30
  -4  19   0    1.00   31.80
 -15  -4   0   87.29   35.00
  19  -4   0   46.80   35.20
  -4 -15   0   16.60   33.60
  19  -4   0   45.40   18.90
  -4 -15   0   40.50   36.70
 -15  19   0   20.90   25.90
  19  -4   0   97.39   39.60
 -19   3   0  392.16   50.39
  16   3   0  394.96   54.19
  16 -19   0  388.26   47.90
   3  16   0  343.17   60.49
 -19  16   0  342.17   36.00
  16 -19   0  360.26   41.10
  16   3   0  334.17   49.80
   3 -19   0  245.58   55.49
   3  16   0  290.47   53.29
  19 -16   0  288.77   38.40
  19 -16   0  351.26   43.90
  -3  19   0  356.76   68.19
  19  -3   0  400.46   37.50
  -3 -16   0  341.87   54.79
  -3 -16   0  365.36   62.09
  -3  19   0  327.27   50.29
  19  -3   0  385.46   56.49
 -16  19   0  335.37   49.80
 -16  -3   0  368.46   52.19
 -16  -3   0  373.46   62.29
  17 -19   0  699.53   56.69
 -19   2   0  571.74   68.09
   2 -19   0  601.14   87.29
 -19  17   0  620.74   49.80
  17   2   0  653.93   54.39
 -19  17   0  714.83   49.30
  17   2   0  661.73   58.39
  17 -19   0  678.93   49.80
   2  17   0  699.23   61.09
 -19   2   0  721.03   53.59
   2  17   0  587.84   75.49
  19  -2   0  684.63   46.40
 -17  19   0  706.93   44.80
 -17  -2   0  686.93   58.69
  -2  19   0  610.64   55.99
  19 -17   0  678.13   51.19
 -17  19   0  585.04   55.89
 -17  -2   0  729.23   69.29
  -2 -17   0  639.74   69.39
  19 -17   0  751.32   48.80
 -17  19   0  527.15   51.69
  -2  19   0  824.92  101.99
  19  -2   0  796.72   62.49
 -19  18   0  268.17   52.29
   1  18   0  302.77   59.19
  18   1   0  204.28   43.50
 -19  18   0  229.78   35.80
 -19   1   0  354.26   56.99
  18 -19   0  292.97   47.70
 -19   1   0  334.37   58.89
 -19  18   0  209.58   43.30
  18 -19   0  266.87   63.89
   1 -19   0  125.79   39.90
  18   1   0  210.78   53.49
  19 -18   0  226.48   40.00
  19  -1   0  252.57   55.99
 -18  -1   0  294.57   63.39
  -1 -18   0  149.88   39.40
  19 -18   0  312.27   45.00
 -18  -1   0  281.57   52.69
 -18  19   0  262.27   35.20
 -18  19   0  143.59   35.50
 -18  19   0  178.28   33.80
  19   0   0   99.39   29.60
  19   0   0  141.19   58.39
 -19  19   0  132.39   36.70
   0 -19   0  104.79   40.90
 -19  19   0   88.69   31.50
 -19   0   0  171.18   41.40
  19 -19   0  185.08   40.00
  19 -19   0  124.79   36.70
   0  19   0  170.68   42.50
 -19  19   0  204.38   35.10
  10  10   0  789.92   53.49
  10  10   0  619.24   66.09
  10 -20   0  834.32   60.99
  10 -20   0  810.72   73.89
 -10 -10   0  827.42   69.89
 -10  20   0  874.41   73.69
 -10 -10   0  756.92   63.49
  20 -10   0  837.82   58.89
  20 -10   0  880.11   60.49
   9  11   0  250.07   57.19
  11 -20   0  312.27   37.50
   9  11   0  294.07   48.40
   9 -20   0  444.86   60.29
  11   9   0  399.16   48.00
 -20  11   0  228.68   28.90
  11 -20   0  359.56   53.69
   9 -20   0  357.86   51.39
   9  11   0  335.17   44.50
  -9 -11   0  365.56   64.29
  -9  20   0  316.27   70.39
  20 -11   0  391.06   49.40
  20  -9   0  363.56   48.60
 -11  20   0  345.57   61.99
 -11  -9   0  287.97   61.89
  -9 -11   0  345.37   56.69
  20  -9   0  409.06   53.19
 -11  -9   0  318.47   56.09
   8  12   0   35.80   28.70
  12   8   0   82.69   32.80
   8  12   0   -0.20   39.10
 -20   8   0   15.80   21.60
  12 -20   0   49.30   34.60
   8 -20   0   64.19   35.30
   8  12   0    9.90   28.40
 -20  12   0   68.99   16.90
  12 -20   0   54.49   30.20
   8 -20   0   34.50   38.70
  12 -20   0   49.70   24.60
  -8  20   0   17.20   29.10
 -12  20   0   48.30   34.50
  -8  20   0   19.40   41.60
  20 -12   0   69.19   32.70
  -8 -12   0   86.09   39.20
 -12  -8   0   79.79   35.90
  20  -8   0   65.79   34.20
  20  -8   0   92.09   35.30
 -12  -8   0  -14.90   36.60
  -8 -12   0  111.39   40.30
   7 -20   0  186.08   43.20
   7  13   0  132.09   35.10
 -20  13   0  153.58   30.00
 -20   7   0  167.28   39.20
   7  13   0  126.19   40.70
   7  13   0  167.58   36.30
  13   7   0  270.17   48.70
 -20   7   0  221.08   42.80
  13 -20   0  212.88   35.70
  13   7   0  111.29   43.00
  13 -20   0  246.88   50.59
 -13  -7   0  245.48   54.29
  20 -13   0  210.78   47.10
 -13  -7   0  128.89   39.60
 -13  20   0  149.19   36.70
  -7 -13   0  111.69   38.30
  -7  20   0  175.68   42.60
  -7 -13   0  239.88   62.19
  -7  20   0  187.18   38.90
  20 -13   0  181.78   41.80
  20  -7   0  275.47   52.39
  14 -20   0  150.18   36.70
   6  14   0   85.39   33.70
  14   6   0  197.58   48.30
  14   6   0  114.29   44.40
  14 -20   0  141.59   35.10
   6  14   0   87.19   38.30
 -20   6   0   80.19   31.60
 -20   6   0   64.59   26.70
 -20  14   0  121.79   28.70
  14 -20   0  106.69   32.80
   6 -20   0  118.49   38.20
   6 -20   0   76.49   32.50
 -14  -6   0  149.49   38.20
  -6  20   0   87.49   37.40
  20  -6   0  172.08   40.40
  20 -14   0  113.99   31.40
  -6 -14   0  111.59   37.60
 -14  -6   0  134.39   37.40
 -14  20   0   66.49   32.50
  20  -6   0  240.18   57.89
  -6  20   0  126.89   33.60
  -6 -14   0  104.39   38.10
 -20   5   0  254.67   48.70
   5  15   0  123.99   35.50
   5 -20   0  225.08   50.29
 -20  15   0  222.48   33.40
  15 -20   0  300.17   48.70
  15 -20   0  175.88   37.90
  15   5   0  314.97   63.99
  -5  20   0  178.08   45.00
 -15  -5   0  344.17   53.19
  20  -5   0  213.78   36.70
  20 -15   0  185.68   45.10
  -5  20   0  196.68   50.19
 -15  20   0  146.19   35.70
  20 -15   0  229.68   42.30
  -5 -15   0  252.47   52.39
  -5 -15   0  312.17   75.29
 -20   4   0  268.77   49.00
 -20  16   0  220.58   36.40
  16 -20   0  280.67   51.89
  16 -20   0  292.37   54.19
   4  16   0  219.98   57.59
  16   4   0  196.18   44.30
  16   4   0  252.37   51.09
  20  -4   0  269.97   36.70
  20 -16   0  171.98   37.80
 -16  20   0  154.68   35.10
  20 -16   0  211.38   42.90
  -4 -16   0  204.28   55.39
  17   3   0  125.69   37.70
  17   3   0  102.69   29.40
   3 -20   0   66.29   36.80
 -20  17   0   72.29   24.20
 -20  17   0   64.29   29.10
  17 -20   0  132.19   32.40
   3  17   0   96.69   38.70
 -20   3   0   69.29   35.20
  17 -20   0  118.29   37.40
 -17  20   0   28.30   32.40
  -3  20   0   69.69   35.70
  20  -3   0  152.88   36.00
  20  -3   0  101.89   37.10
 -17  20   0  102.29   30.00
  -3 -17   0  138.79   42.90
  20 -17   0  147.19   35.10
 -17  -3   0  156.78   37.50
  20 -17   0   85.49   26.70
   2  18   0  123.39   40.80
  18   2   0  149.39   41.40
   2 -20   0  112.29   38.10
  18 -20   0  155.88   41.00
 -20  18   0  137.59   35.00
  18 -20   0  162.48   40.40
  -2 -18   0  150.08   41.00
  20 -18   0  147.49   35.80
 -18  20   0  205.88   46.00
  -2  20   0  107.59   40.60
  20  -2   0  167.38   41.50
 -18  20   0   76.19   34.40
 -18  -2   0  130.39   38.70
  20 -18   0  200.58   44.50
 -18  -2   0  148.49   47.20
   1 -20   0  283.47   55.59
 -20  19   0  387.76   43.00
 -20  19   0  368.36   50.69
  19   1   0  421.46   57.79
   1  19   0  365.26   58.69
 -20  19   0  265.77   55.89
  19   1   0  383.66   49.80
 -20   1   0  484.05   74.09
  19 -20   0  349.67   45.20
 -19  20   0  285.87   40.80
  20  -1   0  414.76   57.29
  -1  20   0  377.36   56.89
 -19  -1   0  472.45   69.59
 -19  20   0  303.77   51.49
  20 -19   0  350.76   45.60
  20 -19   0  484.95   49.90
  -1 -19   0  339.27   60.49
 -19  20   0  495.15   50.59
 -20  20   0   63.49   22.30
   0 -20   0   34.30   35.00
 -20  20   0   56.49   35.40
  20 -20   0   93.69   35.80
   0  20   0   63.29   39.90
  20   0   0   91.39   37.20
  20 -20   0   55.79   30.70
  10  11   0  102.79   33.20
  11 -21   0  270.07   63.29
  11 -21   0  113.69   35.60
  11  10   0  135.99   35.40
  10 -21   0   84.69   39.00
  10 -21   0  113.69   37.60
 -10 -11   0   91.19   38.70
  21 -10   0  128.69   38.20
  21 -11   0  141.39   35.20
 -11 -10   0   73.79   38.20
 -11  21   0  243.18   63.99
 -11 -10   0  137.59   38.40
 -10 -11   0  110.29   41.10
 -10  21   0  108.49   43.10
  21 -11   0  191.98   48.90
  21 -10   0  156.38   55.69
   9  12   0  410.76   49.99
 -21   9   0  371.26   42.50
  12 -21   0  542.75   66.79
 -21   9   0  611.14   49.90
   9 -21   0  545.85   56.69
   9  12   0  348.77   59.99
  12   9   0  417.26   46.40
  12   9   0  490.75   51.89
  12 -21   0  558.14   53.99
  -9 -12   0  567.54   71.59
  21 -12   0  552.04   51.19
 -12  -9   0  453.75   59.89
  21 -12   0  540.75   52.89
  -9 -12   0  462.35   62.59
  -9  21   0  433.86   74.99
  21  -9   0  569.14   54.29
  -9  21   0  384.56   66.99
 -12  -9   0  558.64   66.79
 -12  21   0  516.25   66.69
  13 -21   0  261.17   43.80
 -21  13   0  286.77   30.40
  13   8   0  287.97   49.30
   8 -21   0  255.07   54.29
 -21   8   0  167.48   40.70
  13 -21   0  297.97   52.59
   8  13   0  228.78   43.60
   8  13   0  279.17   56.19
  21 -13   0  318.67   48.60
  -8 -13   0  238.68   57.49
  21  -8   0  313.57   52.59
  -8  21   0  267.37   64.99
 -13  21   0  298.67   58.69
  -8  21   0  191.08   46.00
 -13  -8   0  244.38   55.39
  -8 -13   0  347.97   62.29
 -13  -8   0  172.18   41.30
  21  -8   0  262.37   56.19
  14 -21   0   65.49   34.80
  14   7   0  -35.50   39.30
  14   7   0   17.20   25.00
 -21   7   0   17.20   26.40
 -21  14   0   58.89   19.70
   7  14   0   -0.60   36.90
 -21  14   0  134.09   61.79
  14 -21   0   62.29   27.80
   7  14   0   30.50   32.60
  14 -21   0   63.19   38.00
  14   7   0   64.09   33.90
  21  -7   0   95.69   42.50
 -14  -7   0   66.19   38.50
  21 -14   0   81.19   32.30
  -7 -14   0   38.50   36.00
  21  -7   0   62.49   34.90
  -7  21   0   33.20   31.70
 -14  21   0   55.19   33.30
 -14  -7   0    0.10   41.30
  15 -21   0   73.29   28.00
   6  15   0  114.49   43.20
  15 -21   0  214.08   50.99
  15   6   0   21.80   47.80
   6 -21   0   80.79   38.40
 -21  15   0  136.69   31.70
  15   6   0  147.69   38.50
 -21   6   0  101.59   31.40
 -15  -6   0   26.30   40.40
  -6  21   0   78.09   33.70
  21  -6   0  133.79   39.40
  21 -15   0  118.59   33.00
 -15  -6   0  148.69   41.40
  16 -21   0   97.89   35.90
  16 -21   0   15.10   25.90
  16   5   0   92.29   47.20
  16   5   0   31.80   34.80
  16 -21   0   -9.70   33.40
   5 -21   0   18.10   33.60
 -16  21   0  -23.50   31.80
 -16  -5   0   40.70   36.70
 -16  -5   0   55.09   38.00
  -5  21   0   12.80   30.80
  21  -5   0   48.20   35.80
  21 -16   0   26.10   38.00
  -5 -16   0   65.99   34.20
   4 -21   0   87.59   34.50
 -21  17   0   97.99   31.80
   4  17   0   47.20   36.30
  17 -21   0  140.19   41.00
 -21  17   0   82.19   23.30
  17   4   0  135.89   38.60
  17 -21   0   93.59   29.20
  21 -17   0   89.29   33.40
  21 -17   0   74.09   29.40
 -17  -4   0  155.88   40.60
  21  -4   0  107.79   38.00
  -4  21   0   81.69   35.50
  -4 -17   0  104.99   42.10
 -21  18   0   91.29   29.60
  18 -21   0  186.98   41.80
  18   3   0  136.99   32.00
 -21  18   0  106.39   33.30
   3 -21   0   96.59   37.60
  18 -21   0  172.48   41.40
   3  18   0  109.89   41.00
  21 -18   0  187.18   42.60
 -18  21   0   77.09   37.30
  -3 -18   0   72.19   35.90
  21 -18   0  177.18   44.00
  -3  21   0  105.99   36.60
  21  -3   0  175.68   40.30
 -18  21   0   64.09   32.30
  19   2   0   23.80   31.90
 -21  19   0   68.79   32.80
  19   2   0   64.49   36.40
   2  19   0   59.79   39.90
  19 -21   0   88.79   38.20
  19 -21   0   41.60   30.60
   2 -21   0   38.20   39.60
  21 -19   0   56.09   29.80
  -2  21   0   58.49   37.40
  21  -2   0   97.69   38.20
 -19  21   0   57.19   29.60
 -19  21   0    7.60   35.20
  21 -19   0  -12.30   30.80
  -2 -19   0   80.09   38.30
  20 -21   0   25.50   28.00
   1  20   0   77.09   38.90
  20 -21   0   17.30   38.70
   1 -21   0   28.10   36.20
  20   1   0   61.19   36.20
 -21  20   0    4.80   34.50
 -20  21   0   56.79   30.00
  21 -20   0  104.29   34.40
 -20  21   0   58.49   37.00
  -1  21   0   39.50   36.80
  21  -1   0   72.39   38.60
 -20  21   0   61.89   23.60
  21 -20   0   25.80   29.70
  -1 -20   0   25.10   38.90
  11 -22   0  468.35   61.89
 -11 -11   0  508.55   72.49
  22 -11   0  401.66   54.09
 -11  22   0  376.66   74.79
 -11 -11   0  407.26   61.79
  22 -11   0  436.06   53.09
  12 -22   0  124.09   39.00
  10  12   0   65.49   39.90
  12 -22   0   88.79   26.60
  12  10   0   79.69   26.00
  12  10   0   71.79   35.30
  12  10   0   37.30   41.50
  10  12   0  -16.20   39.90
 -12 -10   0  136.99   40.90
 -10 -12   0  122.89   42.60
  22 -10   0   86.89   35.40
  22 -10   0  163.98   41.30
  22 -12   0  120.99   34.30
 -10  22   0   81.49   32.40
  22 -12   0  186.48   46.00
 -12  22   0   92.39   41.00
  13 -22   0  121.59   38.10
  13   9   0   28.80   25.70
  13   9   0   -0.20   39.10
   9 -22   0   79.69   34.70
   9  13   0  -13.30   40.50
  13 -22   0   52.69   27.30
  13   9   0   35.80   34.40
   9  13   0   30.80   38.10
  22  -9   0   96.89   38.60
  22 -13   0   78.29   34.30
  -9 -13   0   69.19   44.40
 -13  -9   0  108.59   38.10
 -13  22   0  113.19   38.10
  22  -9   0   64.59   34.00
  -9  22   0   41.50   32.60
 -13  -9   0   70.79   41.90
  14 -22   0  236.88   56.79
  14   8   0  152.98   50.69
  14 -22   0  260.37   37.30
   8 -22   0  319.37   58.49
  14   8   0  231.88   50.99
  14 -22   0  346.47   67.19
   8  14   0  154.68   63.69
  14   8   0  157.98   34.30
  22  -8   0  378.26   57.29
 -14  -8   0  262.67   59.39
 -14  22   0  344.87   61.29
  -8  22   0  240.48   48.10
  22  -8   0  279.67   50.89
  -8 -14   0  177.88   41.50
  22 -14   0  273.67   50.09
  15   7   0   71.59   36.30
  15 -22   0   53.09   26.00
   7  15   0   39.80   44.80
  15 -22   0  114.79   38.60
   7 -22   0   65.49   35.30
  15   7   0   45.60   26.80
  22  -7   0  130.09   47.70
 -15  22   0    2.80   32.10
 -15  -7   0   55.79   38.60
 -15  -7   0   93.39   42.60
  -7 -15   0   80.69   38.70
  22  -7   0  113.49   37.90
  22 -15   0   99.39   51.09
  -7  22   0   53.49   34.10
  16   6   0  -17.70   42.30
  16 -22   0   88.39   29.30
  16 -22   0  133.79   36.10
   6  16   0   46.10   42.60
  16   6   0   78.29   37.20
  16   6   0   30.90   29.00
   6 -22   0   93.19   39.80
  22  -6   0  124.19   39.90
  -6  22   0   58.69   32.80
 -16  -6   0   -5.40   39.30
  -6 -16   0   57.79   35.00
 -16  22   0   51.89   33.40
 -16  -6   0  150.88   43.70
  22 -16   0   79.39   34.10
  17 -22   0    8.90   26.70
  17   5   0   41.40   36.00
  17   5   0  -47.30   28.10
  17 -22   0   32.20   38.60
 -22  17   0   16.40   29.60
   5 -22   0   17.00   33.50
   5  17   0  -15.40   41.00
 -17  -5   0   76.89   42.20
  22 -17   0    8.80   31.10
  22  -5   0   52.49   38.60
 -17  22   0  -51.39   28.10
  -5 -17   0    0.70   39.00
  -5  22   0   19.90   33.50
   4 -22   0   51.79   34.00
   4  18   0   13.10   37.40
  18 -22   0   14.60   27.30
 -22  18   0   41.60   31.90
  18   4   0   49.20   37.90
  18 -22   0   60.89   39.50
 -18  22   0   15.00   30.20
  22  -4   0   57.49   37.80
  -4 -18   0   28.70   35.70
  22 -18   0   28.40   30.60
  -4  22   0   22.70   33.90
  19   3   0   51.89   59.79
  19 -22   0    9.80   30.10
   3  19   0   23.80   37.90
  19   3   0   19.00   39.60
   3 -22   0   32.70   34.00
  19 -22   0   45.00   40.90
 -22  19   0   51.29   34.00
  22 -19   0   23.00   36.40
 -19  22   0  -17.10   30.20
  22 -19   0   30.60   30.60
  -3 -19   0   13.90   38.60
  22  -3   0   28.80   38.00
  -3  22   0    5.10   36.90
  11  12   0  -37.40   43.30
  12  11   0   47.00   42.00
  12 -23   0  112.29   40.10
  11 -23   0   69.49   36.70
  12  11   0   43.20   52.19
  12  11   0   71.29   41.90
  11  12   0   15.00   40.60
 -11 -12   0   14.00   48.00
  23 -11   0  100.69   33.50
  23 -12   0   76.59   39.20
 -12 -11   0   89.89   47.90
  13 -23   0  392.26   62.49
  13  10   0  228.48   47.70
  10 -23   0  270.07   57.69
  13 -23   0  282.67   39.20
  13  10   0  262.37   49.30
 -13 -10   0  288.47   60.69
 -10  23   0  291.77   47.30
 -10 -13   0  285.17   60.79
  23 -13   0  361.36   54.59
  23 -10   0  337.17   52.99
   9  14   0  -13.90   41.70
  14 -23   0   58.79   27.40
   9 -23   0   91.39   39.80
  14   9   0   -7.20   40.80
  23 -14   0   90.39   35.60
  -9 -14   0  108.49   41.10
 -14  -9   0   84.89   42.10
  -9  23   0   67.79   33.40
  23  -9   0  122.39   36.80
  15   8   0    7.40   72.79
  15   8   0   47.80   41.80
  15   8   0   63.49   29.10
   8 -23   0   89.29   37.10
  15 -23   0   62.09   28.50
  15 -23   0  108.49   44.90
 -15  -8   0  103.39   45.50
  -8 -15   0   71.09   37.40
 -15  23   0   97.39   36.80
  -8  23   0   69.69   37.60
  23 -15   0   92.39   35.80
  23  -8   0   61.99   33.90
   7  16   0    7.50   41.10
  16 -23   0   88.29   30.70
  16   7   0   45.70   41.30
   7 -23   0   60.89   38.70
 -16  -7   0   94.19   45.40
 -16  23   0   75.59   35.40
  -7 -16   0   62.09   36.20
  23  -7   0  156.28   54.59
  23 -16   0  116.69   36.60
  23  -7   0  112.19   34.50
  -7  23   0   78.99   36.10
 -23  17   0   53.29   31.20
   6 -23   0   37.70   34.40
  17 -23   0   78.39   47.00
  17 -23   0  100.39   41.90
  17   6   0   66.69   30.10
  17 -23   0   31.60   29.40
   6  17   0  -27.80   40.40
  -6 -17   0   -2.80   40.00
  23 -17   0   27.20   32.70
 -17  -6   0   65.99   55.99
 -17  23   0   -4.10   31.30
  23  -6   0   31.00   32.90
  -6  23   0    9.10   31.70
  12  12   0  324.57   61.59
  12 -24   0  307.87   55.19
 -12 -12   0  257.87   61.39
  24 -12   0  383.26   56.89
  13  11   0   80.79   50.69
  11 -24   0   80.59   42.10
  11  13   0   61.79   48.10
  13  11   0   70.79   44.70
  13 -24   0  152.18   42.90
  24 -11   0  131.29   41.10
 -11 -13   0  111.19   41.00
 -13 -11   0   88.19   45.20
 -11  24   0   68.79   32.10
  24 -13   0   88.69   39.20
 -10  24   0   33.80   34.80
   0   0  -1    4.70    8.50
   0   0  -1   -2.30    4.30
   0   0   1    6.30    5.00
   0   0  -1   -0.40    4.00
   0   0   1   -0.10    4.10
  -1   0  -1  171.98    9.80
  -1   1   1  179.68    9.50
   1   0   1  202.28   13.80
   1  -1  -1  200.18   11.20
   0  -1   1  177.98   10.90
   0  -1   1  186.58    9.70
   1  -1  -1  209.58   17.50
   0  -1   1  162.38   12.10
  -1   1   1  166.58   11.60
   0   1  -1  179.28   12.00
   0   1  -1  228.28   18.50
  -1   0  -1  192.48    9.60
   1  -1  -1  182.28   11.40
  -1   0  -1  194.98   15.40
   1   0   1  174.48   10.00
   1  -1   1 1259.67   39.60
  -1   0   1 1287.37   37.60
   0  -1  -1 1280.87   40.10
   1   0  -1 1257.37   44.90
   0   1   1 1247.98   39.80
  -1   1  -1 1295.27   39.50
   1   0  -1 1292.87   40.70
   1  -1   1 1305.77   38.90
   0   1   1 1233.78   40.40
   0  -1  -1 1253.97   43.10
  -1   0   1 1268.37   40.80
   0  -1  -1 1261.57   39.70
   1  -1   1 1281.57   40.80
  -1   1  -1 1220.28   43.10
   2   0   1   63.99   16.40
   0   2  -1  131.89   20.30
   0  -2   1  124.09   15.90
   2   0   1   88.89    8.10
  -2   0  -1  135.19   15.60
   0   2  -1  117.99   14.00
  -2   2   1  110.89   11.60
   0  -2   1   91.09    7.80
   0  -2   1   98.59   11.60
   2  -2  -1   96.39   12.00
   2   0   1   91.89   12.10
  -2   0  -1   97.39    8.90
   2  -2  -1  109.79   17.50
   2  -2  -1   79.09   11.40
   1   1   1 1683.83   55.69
  -2   1   1 1786.02   54.39
   1  -2   1 1771.62   54.29
   1  -2  -1 1675.63   56.19
  -2   1  -1 1740.83   51.49
   1  -2   1 1773.62   53.39
   1   1  -1 1760.42   54.79
   1  -2   1 1747.53   52.79
   1  -2  -1 1765.02   54.39
  -2   1  -1 1553.14   55.39
   1   1   1 1756.92   55.09
   1   1  -1 1650.23   58.09
  -1   2  -1 1746.43   53.79
   2  -1  -1 1801.72   54.39
   2  -1   1 1745.93   51.69
   2  -1  -1 1763.02   53.59
  -1  -1   1 1773.92   50.29
   2  -1   1 1791.12   55.99
  -1   2   1 1700.63   52.89
  -1  -1  -1 1778.32   53.19
  -1  -1  -1 1551.94   54.89
  -1  -1   1 1785.92   53.49
  -1   2   1 1666.43   53.49
  -1   2  -1 1578.54   56.49
   2  -1  -1 1726.93   58.29
  -1  -1   1 1739.43   54.89
  -2   2  -1  221.98   11.80
  -2   0   1  212.48   15.30
   2  -2   1  223.48   11.30
   0  -2  -1  225.98   18.50
   2   0  -1  188.88   14.60
  -2   0   1  193.98   13.90
   0   2   1  177.48   15.80
   2  -2   1  190.68   16.20
   0  -2  -1  183.88   15.10
   2  -2   1  229.78   13.20
   0   2   1  152.28   19.00
  -3   0  -1  308.17   23.10
   3  -3  -1  358.16   15.80
   3  -3  -1  369.46   21.00
   0   3  -1  386.26   29.90
  -3   3   1  397.16   20.30
   3   0   1  291.47   20.00
   0  -3   1  388.26   22.80
  -3   0  -1  336.37   16.40
  -3   0  -1  319.47   18.70
   0  -3   1  394.66   16.30
   3   0   1  341.37   27.50
   3  -3  -1  320.67   27.30
   1   2  -1 3140.49   97.19
   2   1   1 3154.18   98.89
  -3   1  -1 3055.89   96.99
   1  -3   1 3104.19   94.39
   2  -3  -1 3213.68   96.59
  -3   2   1 3130.69   95.79
   1  -3   1 3127.89   97.99
   1  -3   1 3118.59   95.39
   1   2  -1 3195.68  100.39
   2  -3  -1 3123.59   97.99
   2   1   1 3098.89   96.59
  -3   1  -1 3083.59   91.79
  -1  -2   1 3043.30   97.39
  -2  -1  -1 3332.47   94.69
  -1   3  -1 3121.39   96.69
   3  -1   1 3208.08   99.19
  -2   3   1 3234.98   95.69
  -1  -2   1 3139.79   92.29
  -2   3   1 3269.87   94.59
   3  -2  -1 3204.08   95.69
  -2   3   1 3152.38   99.29
  -2  -1  -1 3262.57   96.59
  -1  -2   1 3067.19   95.59
   3  -2  -1 3142.79   92.49
   3  -2  -1 3282.47   95.59
   3  -2  -1 3272.57  100.49
  -1   3  -1 3220.98   99.19
  -2  -1  -1 3140.99   96.89
  -3   1   1  199.88   16.60
  -3   2  -1  232.48   11.00
   1   2   1  165.98   21.10
   1  -3  -1  175.08   23.20
   2   1  -1  205.88   17.90
   1  -3  -1  169.78   19.30
   1   2   1  198.48   22.90
   2  -3   1  227.98   16.00
   2   1  -1  166.18   24.90
   1  -3  -1  200.48   18.70
   3  -2   1  230.48   10.40
  -1   3   1  222.38   23.50
  -1  -2  -1  168.38   18.60
  -2  -1   1  248.28   17.00
  -1  -2  -1  184.78   16.60
  -1   3   1  159.28   15.50
   3  -2   1  170.28   18.30
  -2   3  -1  173.88   21.30
  -1  -2  -1  200.98   21.10
   3  -1  -1  192.18   14.20
  -2  -1   1  235.38   19.70
   3  -1  -1  214.08   16.50
   3  -1  -1  219.38   25.60
   0  -3  -1 2009.10   67.79
   3   0  -1 2065.49   63.59
   3  -3   1 1971.00   60.49
  -3   3  -1 1957.90   60.79
   0   3   1 1879.91   67.89
   0  -3  -1 2074.59   63.79
   0   3   1 2015.00   64.19
  -3   0   1 1996.90   62.29
   0  -3  -1 2024.80   64.19
  -3   0   1 1991.30   63.89
   3   0  -1 2042.00   69.99
  -3   3  -1 1874.61   64.69
   3  -3   1 1883.61   62.19
   3  -3   1 1857.81   64.59
   0  -4   1 1488.25   46.40
  -4   0  -1 1380.76   50.09
   4   0   1 1375.96   48.80
   4  -4  -1 1460.55   53.99
  -4   0  -1 1417.46   48.30
   4  -4  -1 1467.35   46.20
  -4   0  -1 1435.96   45.20
   0   4  -1 1357.26   55.19
   0  -4   1 1476.95   52.89
   4  -4  -1 1420.16   50.39
   4   0   1 1401.56   55.79
   0   4  -1 1559.44   56.99
  -4   4   1 1413.16   54.99
   0  -4   1 1509.35   58.69
  -4   4   1 1409.86   48.90
   1   3  -1 2697.23   84.39
  -4   3   1 2414.86   78.19
   3  -4  -1 2534.15   76.09
  -4   1  -1 2524.05   80.49
   3  -4  -1 2648.33   81.59
   3  -4  -1 2551.54   80.29
  -4   1  -1 2426.06   73.09
   3   1   1 2422.76   83.99
   1  -4   1 2432.36   83.89
   3   1   1 2410.26   79.89
   1  -4   1 2496.95   76.49
   1   3  -1 2507.55   82.19
   1  -4   1 2526.95   80.19
  -3   4   1 2475.35   83.99
   4  -3  -1 2592.04   78.49
  -1   4  -1 2701.53   83.19
  -3  -1  -1 2567.64   79.39
  -1  -3   1 2456.35   79.99
   4  -3  -1 2473.35   75.39
   4  -1   1 2513.15   84.69
   4  -3  -1 2640.84   83.79
   4  -3  -1 2486.15   78.29
  -1   4  -1 2472.15   82.49
  -3  -1  -1 2476.25   80.19
  -3  -1  -1 2613.44   77.19
   4  -1   1 2292.77   74.49
  -1  -3   1 2483.65   83.49
   2   2  -1  358.16   18.20
  -4   2   1  365.56   22.80
   2  -4  -1  266.87   31.60
   2  -4   1  417.56   24.40
   2  -4   1  364.66   32.10
   2   2  -1  408.06   33.50
   2   2  -1  382.66   27.20
   2  -4   1  355.86   20.70
  -4   2  -1  314.17   26.10
   2  -4  -1  380.66   25.80
   2  -4  -1  326.77   26.40
   4  -2  -1  391.76   31.30
  -2   4  -1  388.96   29.00
  -2   4   1  324.47   21.10
  -2  -2  -1  295.57   29.90
   4  -2  -1  332.57   21.30
   4  -2  -1  347.37   16.10
  -2  -2  -1  351.06   22.70
  -2  -2  -1  360.86   24.50
  -2  -2   1  419.16   24.40
   4  -2   1  302.47   27.40
   4  -2  -1  355.96   20.80
   3  -4   1 1450.25   53.79
  -4   1   1 1483.75   51.59
   1   3   1 1410.56   57.39
   3   1  -1 1580.34   48.30
   3  -4   1 1441.26   49.60
   3   1  -1 1451.55   52.59
   1   3   1 1544.45   55.19
  -4   3  -1 1451.95   45.60
  -4   3  -1 1528.05   53.39
   3  -4   1 1468.65   51.59
   3   1  -1 1679.73   59.79
   1  -4  -1 1567.74   53.49
   1  -4  -1 1525.05   58.49
  -4   1   1 1475.25   49.70
   1  -4  -1 1651.43   51.39
  -1  -3  -1 1518.75   51.99
   4  -1  -1 1532.35   58.29
  -1  -3  -1 1548.55   50.29
  -1  -3  -1 1348.57   57.29
  -3  -1   1 1400.46   50.29
   4  -1  -1 1418.26   50.39
  -3   4  -1 1534.05   52.19
   4  -3   1 1567.44   55.79
  -1   4   1 1448.76   58.69
   4  -3   1 1399.96   45.40
   4  -3   1 1434.56   47.60
  -3   4  -1 1499.95   53.69
  -3  -1   1 1486.95   53.79
  -1   4   1 1542.45   51.59
   4  -1  -1 1373.26   47.10
   4   0  -1  230.88   31.20
   0  -4  -1  202.38   34.00
  -4   0   1  276.07   20.40
   4  -4   1  211.88   25.90
   0   4   1  149.09   35.10
   4  -4   1  207.58   22.60
   4  -4   1  249.38   18.70
   0  -4  -1  230.08   23.60
  -4   4  -1  231.08   26.50
   0  -4  -1  230.28   22.10
   0   4   1  257.47   26.20
   0   5  -1  223.58   32.30
   5  -5  -1  180.98   21.00
  -5   5   1  159.88   28.10
   0  -5   1  228.98   34.30
   0  -5   1  197.48   26.70
   5   0   1  208.18   28.40
   0   5  -1  220.68   28.00
   5  -5  -1  183.58   15.70
  -5   0  -1  170.58   15.00
   5  -5  -1  166.08   23.40
  -5   0  -1  148.89   21.60
  -5   5   1  162.58   19.20
   0  -5   1  208.28   16.40
   5   0   1  174.88   20.80
   4  -5  -1  805.62   36.60
   1   4  -1  866.31   41.30
   4   1   1  722.83   36.30
  -5   1  -1  808.32   36.40
  -5   4   1  855.31   33.10
   4  -5  -1  854.61   36.50
   1  -5   1  860.81   31.30
  -5   1  -1  764.12   28.40
   4   1   1  829.12   43.10
   1  -5   1  814.72   39.20
   1   4  -1  844.82   31.60
  -5   1  -1  821.02   26.40
   4  -5  -1  845.42   31.00
   1  -5   1  873.01   45.10
   1   4  -1  864.81   42.70
  -4  -1  -1  808.92   30.90
   5  -1   1  820.12   29.00
   5  -4  -1  806.62   30.10
  -1  -4   1  825.02   39.10
  -1   5  -1  859.81   40.60
  -4  -1  -1  762.12   36.20
  -1   5  -1  968.30   43.90
  -4   5   1  694.43   42.20
   5  -4  -1  792.32   33.50
   5  -4  -1  758.42   38.90
  -4  -1  -1  783.42   35.60
  -1  -4   1  816.82   44.00
   5  -4  -1  790.12   32.30
   3   2   1 4929.51  148.69
   3  -5  -1 4746.12  147.59
   3   2   1 4566.04  145.29
  -5   3   1 4405.46  141.99
   2   3  -1 4996.10  147.99
   2  -5   1 4712.83  143.69
   2  -5   1 4566.44  146.69
   3  -5  -1 5056.89  145.29
   3  -5  -1 4918.41  143.29
   3  -5  -1 4721.93  140.89
   2   3  -1 4678.03  146.19
   2  -5   1 4781.52  141.89
   2   3  -1 4867.81  140.99
  -2   5  -1 4553.94  145.49
   5  -3  -1 4934.11  148.09
   5  -3  -1 4542.95  142.09
  -2  -3   1 4563.94  146.69
  -2  -3   1 4688.63  143.89
   5  -2   1 4711.73  147.19
  -3  -2  -1 4776.02  142.39
   5  -3  -1 4873.91  142.19
  -2   5  -1 4786.62  144.99
  -3  -2  -1 4951.20  142.29
   5  -3  -1 4678.53  140.39
  -3  -2  -1 4746.43  145.19
  -3   5   1 4759.52  148.49
   3   2  -1 3249.07  100.29
   2   3   1 3136.09  102.99
  -5   2   1 3148.49   97.59
   3   2  -1 3223.68  104.49
   3  -5   1 3192.58   97.49
  -5   3  -1 3016.90   98.99
   3   2  -1 3213.38   96.29
   2  -5  -1 3135.39   96.29
   3  -5   1 3233.78   98.09
   2  -5  -1 3156.78  103.89
   3  -5   1 3237.38  102.89
   2  -5  -1 3308.47  100.49
   2   3   1 3163.78  101.39
  -2  -3  -1 3149.28  101.79
  -2  -3  -1 3214.58   97.99
   5  -2  -1 3076.79   95.89
  -3  -2   1 3141.49   97.79
  -3   5  -1 3019.40   99.59
   5  -2  -1 3130.39   97.29
   5  -2  -1 3123.09  103.89
  -2   5   1 3186.68  104.89
   5  -2  -1 3104.69   94.99
  -3  -2   1 3132.89  100.49
  -3   5  -1 3121.39  100.39
  -2  -3  -1 3005.90   96.09
  -2   5   1 3217.58   97.99
   4   1  -1  255.87   31.00
   1  -5  -1  275.57   21.00
   4   1  -1  339.97   25.30
   4   1  -1  325.57   22.00
  -5   4  -1  260.37   25.60
   1  -5  -1  281.37   26.20
   4  -5   1  287.27   29.80
   4  -5   1  292.77   24.10
   4  -5   1  324.77   22.40
   1   4   1  334.77   30.10
   1   4   1  246.58   33.30
  -1   5   1  269.27   36.10
   5  -1  -1  264.87   19.30
  -1   5   1  235.48   23.20
   5  -4   1  247.08   21.70
   5  -4   1  216.78   29.10
  -4  -1   1  358.66   28.70
  -1  -4  -1  252.37   20.80
  -4   5  -1  220.68   25.80
  -1  -4  -1  312.57   25.50
  -1  -4  -1  236.98   34.30
   5  -1  -1  253.17   32.10
  -5   5  -1    2.70   12.90
   5  -5   1   11.30   10.40
   0  -5  -1   15.40   11.90
   5   0  -1   20.20   19.60
  -5   0   1   12.10   12.90
   5   0  -1  -18.90   13.50
   0   5   1   25.90   20.50
   0   5   1   41.40   16.30
   5   0  -1   18.50   11.40
   0  -5  -1    4.00   14.90
  -5   5  -1    7.70   12.40
  -5   0   1   23.20   10.90
   5  -5   1   14.00   15.20
   0  -5  -1  -16.00   19.20
   6   0   1  407.16   22.90
   0  -6   1  338.67   29.20
   6  -6  -1  307.57   25.90
   6  -6  -1  316.57   24.50
   0  -6   1  362.26   37.30
   6  -6  -1  343.77   19.70
  -6   0  -1  365.86   19.10
  -6   6   1  312.07   21.70
   6   0   1  387.16   33.50
  -6   6   1  326.37   30.80
  -6   0  -1  310.77   23.60
   0   6  -1  270.87   29.00
   1   5  -1 1442.66   55.69
   1  -6   1 1440.76   60.89
  -6   1  -1 1474.25   44.30
  -6   1  -1 1425.06   46.50
  -6   5   1 1399.26   54.19
   5  -6  -1 1360.06   51.19
   1  -6   1 1404.86   53.59
   5  -6  -1 1392.16   51.79
   5   1   1 1393.86   51.89
   5   1   1 1363.46   59.19
   1   5  -1 1429.46   49.30
   5  -6  -1 1406.96   48.00
   1  -6   1 1421.86   48.40
   1   5  -1 1471.85   57.59
  -6   1  -1 1511.45   53.09
  -6   5   1 1333.57   48.90
  -1   6  -1 1496.55   57.39
  -5  -1  -1 1502.35   47.90
  -5   6   1 1452.25   57.69
  -5  -1  -1 1435.76   51.69
   6  -5  -1 1463.25   48.20
  -5  -1  -1 1508.75   51.79
  -1  -5   1 1456.35   53.69
  -1   6  -1 1458.25   54.89
  -1  -5   1 1464.75   60.99
   6  -5  -1 1499.55   54.89
   6  -1   1 1388.86   59.49
   6  -1   1 1520.65   45.80
   6  -5  -1 1434.96   50.39
   4   2   1 1375.36   54.79
   4  -6  -1 1440.96   50.59
   2  -6   1 1487.05   54.29
   4  -6  -1 1411.66   58.09
   2   4  -1 1496.35   57.09
   4  -6  -1 1493.05   49.00
   4  -6  -1 1515.95   54.09
   2   4  -1 1508.55   49.70
   2   4  -1 1473.05   56.79
   2  -6   1 1492.15   49.80
  -6   2  -1 1473.05   52.79
   4   2   1 1542.15   60.59
   2  -6   1 1435.46   61.49
  -6   4   1 1468.95   50.09
  -4   6   1 1464.05   59.19
  -4  -2  -1 1501.55   50.29
  -2   6  -1 1448.96   58.39
  -2  -4   1 1445.66   54.39
  -4  -2  -1 1493.05   51.09
   6  -2   1 1501.75   58.19
   6  -4  -1 1462.05   48.70
   6  -4  -1 1529.85   56.19
   6  -4  -1 1411.86   49.80
  -2   6  -1 1526.65   55.19
  -4  -2  -1 1435.66   55.09
   6  -4  -1 1450.05   49.50
  -2  -4   1 1412.76   58.69
   3   3   1 1283.07   51.79
   3   3   1 1196.68   52.19
   3  -6   1 1278.77   47.90
   3  -6   1 1229.78   55.29
   3   3  -1 1312.27   53.79
   3  -6  -1 1266.97   49.00
   3   3  -1 1311.07   46.00
   3  -6   1 1292.47   45.80
   3  -6  -1 1249.57   44.30
   3  -6  -1 1217.68   54.19
   3   3  -1 1235.48   50.89
  -6   3  -1 1361.76   49.20
  -6   3   1 1269.17   45.50
  -3   6  -1 1295.97   48.50
  -3   6   1 1243.88   55.69
  -3  -3   1 1262.47   47.60
   6  -3  -1 1322.77   52.39
  -3   6  -1 1259.77   52.59
   6  -3   1 1321.07   53.49
   6  -3  -1 1235.38   43.60
  -3  -3  -1 1300.57   46.90
  -3  -3  -1 1324.77   44.80
   6  -3  -1 1269.97   45.00
  -3  -3  -1 1256.27   52.59
  -3  -3   1 1252.77   53.09
   6  -3  -1 1350.86   44.50
   2  -6  -1 2600.14   79.79
   4   2  -1 2708.93   82.29
   2  -6  -1 2634.24   90.59
   2   4   1 2644.94   89.99
   2  -6  -1 2750.92   85.99
   4  -6   1 2629.64   82.79
  -6   4  -1 2502.05   83.89
  -6   4  -1 2530.75   76.89
  -6   2   1 2669.93   82.89
   4   2  -1 2656.33   85.89
   4   2  -1 2662.73   88.39
   4  -6   1 2572.74   86.89
   4  -6   1 2599.94   82.79
   2   4   1 2573.94   87.09
   6  -2  -1 2652.23   88.99
   6  -4   1 2713.03   88.09
  -4   6  -1 2583.24   86.09
  -4  -2   1 2586.44   87.29
  -2  -4  -1 2709.13   84.29
  -4   6  -1 2400.56   83.79
  -2   6   1 2612.14   83.79
  -4  -2   1 2620.34   83.49
  -2  -4  -1 2608.54   88.99
  -2   6   1 2695.73   91.69
   6  -2  -1 2642.34   82.59
  -2  -4  -1 2538.75   80.49
   6  -2  -1 2555.54   81.29
   5   1  -1  244.88   22.50
   5  -6   1  301.57   21.60
  -6   5  -1  247.38   20.40
   1   5   1  227.58   35.50
   5  -6   1  224.18   28.40
  -6   5  -1  221.28   23.70
   5   1  -1  308.17   24.60
  -6   1   1  308.67   23.50
   1  -6  -1  258.27   34.30
   5  -6   1  298.37   24.20
   1   5   1  222.38   29.20
   5   1  -1  218.18   30.40
   1  -6  -1  264.87   27.00
  -1  -5  -1  250.77   32.80
   6  -5   1  265.97   15.70
  -1   6   1  219.28   23.30
   6  -1  -1  267.27   21.50
  -5   6  -1  197.88   24.00
  -1  -5  -1  286.97   25.00
   6  -1  -1  244.48   29.80
  -5  -1   1  294.17   21.70
  -1  -5  -1  204.08   18.50
   6  -5   1  233.18   20.20
  -1   6   1  270.77   35.70
   6  -5   1  240.48   24.60
   6  -1  -1  254.07   21.40
  -5   6  -1  310.47   27.10
   6   0  -1   62.19   19.10
   6  -6   1   86.59   17.90
   6   0  -1   72.89   16.80
   6  -6   1   71.89   14.90
   6   0  -1   73.39   13.80
   0  -6  -1   79.79   18.20
   0   6   1   52.69   17.00
   0  -6  -1   78.79   22.10
   6  -6   1   78.89   15.00
  -6   0   1   88.99   14.20
  -6   6  -1   42.00   14.80
   0   6   1   57.79   24.00
  -6   6  -1   66.09   13.70
  -7   0  -1  998.90   35.20
   7  -7  -1  917.91   39.90
  -7   7   1  902.41   45.30
   7   0   1  984.30   37.40
   0   7  -1  932.41   48.50
   0  -7   1  944.11   52.69
   7  -7  -1  948.91   36.00
  -7   0  -1  936.41   39.30
   0   7  -1  886.21   42.70
   7  -7  -1  921.01   39.80
   7   0   1  919.21   49.40
   0  -7   1  862.31   48.30
  -7   7   1  895.01   36.80
   6  -7  -1  122.39   22.00
  -7   6   1  111.49   17.00
   6   1   1  130.19   26.10
  -7   1  -1  113.49   13.60
   1   6  -1   95.79   19.80
   1  -7   1  114.39   16.50
   6  -7  -1  105.19   16.20
   1  -7   1  135.79   21.70
   6  -7  -1  121.39   19.20
   6   1   1  111.39   22.90
   1   6  -1  120.69   26.80
   1  -7   1  123.29   24.70
  -7   6   1   92.79   17.20
  -7   1  -1  136.59   13.90
   1   6  -1  133.39   33.30
  -1  -6   1  149.69   34.20
   7  -1   1  131.59   26.10
   7  -6  -1  136.29   17.20
   7  -6  -1  118.69   22.40
  -6  -1  -1  112.19   18.10
   7  -6  -1  155.08   19.70
  -1  -6   1  115.39   27.70
  -1   7  -1  131.89   32.40
  -6   7   1  115.89   20.90
  -1   7  -1  140.59   25.90
  -6  -1  -1  118.89   17.70
   7  -1   1  144.69   14.60
   5  -7  -1  324.57   20.90
   5   2   1  346.87   35.50
   5   2   1  337.97   29.90
   5  -7  -1  326.67   26.80
   5  -7  -1  321.07   22.40
   2  -7   1  259.37   37.00
   2  -7   1  316.47   29.60
   2   5  -1  355.26   23.30
   2  -7   1  331.47   21.10
   2   5  -1  351.86   33.50
   5  -7  -1  324.47   31.70
  -7   5   1  289.67   20.80
   2   5  -1  367.06   31.00
  -5  -2  -1  317.37   29.50
  -5  -2  -1  325.87   22.90
   7  -5  -1  389.76   29.50
  -2  -5   1  413.06   29.80
  -2  -5   1  329.27   36.90
   7  -2   1  320.67   30.50
  -5   7   1  308.37   34.70
   7  -5  -1  353.96   20.80
   7  -5  -1  380.36   22.50
  -2   7  -1  413.06   29.30
  -2   7  -1  404.06   36.30
   3  -7   1 3193.08  108.39
  -7   4   1 3104.09   99.99
   4  -7  -1 3386.56  104.19
   3   4  -1 3223.78  105.29
   4  -7  -1 3266.47   99.49
   4  -7  -1 3215.78  108.19
   3  -7   1 3213.48  103.09
   3  -7   1 3167.68  100.19
   4   3   1 3305.87  108.39
   3   4  -1 3308.07  100.89
   3   4  -1 3358.56  106.69
   4   3   1 3142.59  104.99
  -7   3  -1 3322.97  103.49
   4  -7  -1 3241.88   98.99
  -4  -3  -1 3399.36  100.49
  -3   7  -1 3120.69  106.39
  -3  -4   1 3026.80  106.69
  -3  -4   1 3178.58  103.09
   7  -4  -1 3384.06  107.29
  -4  -3  -1 3203.98  105.19
   7  -3   1 3214.48  106.29
  -4  -3  -1 3319.07  101.29
  -4   7   1 3279.87  108.99
   7  -4  -1 3128.79   99.89
   7  -4  -1 3286.37   99.99
   7  -4  -1 3346.07   99.99
  -3   7  -1 3273.67  102.59
   4   3  -1 1555.14   53.89
   3   4   1 1491.95   59.99
   4   3  -1 1498.05   58.79
  -7   3   1 1591.24   52.39
   3  -7  -1 1471.65   62.49
   3   4   1 1577.74   61.09
   4   3  -1 1613.64   57.69
   3  -7  -1 1580.84   56.79
   4  -7   1 1537.05   60.79
   3  -7  -1 1447.66   48.40
   4  -7   1 1530.55   54.89
  -7   4  -1 1463.35   55.09
   4  -7   1 1540.65   53.19
  -4  -3   1 1533.65   55.19
  -4  -3   1 1510.05   59.29
   7  -4   1 1431.26   58.99
  -4   7  -1 1504.35   58.89
   7  -3  -1 1523.85   59.69
   7  -3  -1 1486.75   51.59
   7  -3  -1 1485.55   50.39
  -3  -4  -1 1515.45   60.89
  -3  -4  -1 1554.44   54.89
  -4   7  -1 1368.46   54.29
  -3  -4  -1 1449.76   50.29
   7  -3  -1 1572.84   52.39
  -3   7   1 1511.25   64.19
  -7   5  -1  632.04   34.10
   2   5   1  642.94   42.60
   5   2  -1  630.04   34.50
   5  -7   1  627.84   37.90
   5   2  -1  641.74   32.00
   5  -7   1  603.24   30.70
  -7   5  -1  645.64   25.00
   2  -7  -1  544.05   41.80
   2   5   1  595.24   34.50
   5   2  -1  597.64   38.00
  -7   2   1  611.24   27.90
  -7   2   1  671.53   30.80
   5  -7   1  605.54   30.80
   2  -7  -1  605.04   33.60
   7  -5   1  606.94   37.20
  -2   7   1  612.84   32.50
   7  -2  -1  623.74   29.30
   7  -2  -1  627.74   29.40
  -5   7  -1  600.04   31.80
   7  -5   1  617.44   22.20
  -5  -2   1  623.64   36.30
  -2  -5  -1  566.54   40.40
  -2  -5  -1  619.64   26.70
  -2  -5  -1  624.54   33.10
   7  -5   1  572.54   24.40
  -5   7  -1  627.64   35.70
  -5  -2   1  614.44   31.60
   7  -2  -1  626.74   37.60
  -2   7   1  650.93   43.30
   6  -7   1  721.33   35.10
   6   1  -1  739.13   34.80
   1  -7  -1  752.32   38.50
   1  -7  -1  717.43   44.90
  -7   6  -1  742.93   32.20
  -7   1   1  771.62   34.90
  -7   6  -1  732.63   35.10
   6   1  -1  784.42   41.70
   6  -7   1  711.33   37.20
   1   6   1  662.33   44.90
  -7   1   1  735.73   31.30
   6  -7   1  696.33   31.00
   6   1  -1  739.93   35.30
   1   6   1  787.22   39.00
  -6   7  -1  664.73   36.10
  -1  -6  -1  734.13   37.00
   7  -6   1  706.03   31.40
   7  -1  -1  739.13   32.60
  -6  -1   1  739.43   33.40
   7  -1  -1  722.43   33.50
   7  -1  -1  739.63   40.80
  -6  -1   1  760.62   37.70
  -1   7   1  713.93   46.00
  -6   7  -1  747.33   34.90
  -1  -6  -1  724.03   28.80
   7  -6   1  759.42   28.10
   7  -6   1  681.23   37.40
  -1   7   1  776.92   36.80
  -1  -6  -1  734.23   44.50
  -7   0   1 1238.18   48.80
  -7   0   1 1266.77   45.40
   7  -7   1 1223.78   47.50
   0  -7  -1 1234.28   56.59
  -7   7  -1 1222.88   47.80
  -7   7  -1 1141.09   47.50
   7   0  -1 1200.18   53.79
   7   0  -1 1220.58   48.40
   7   0  -1 1268.97   46.90
   0   7   1 1298.77   59.49
   7  -7   1 1249.38   43.00
   0  -7  -1 1241.68   50.29
   8   0   1    1.10   23.10
   8  -8  -1   17.50   10.60
   0   8  -1    9.50   18.30
   8  -8  -1    0.30   13.30
  -8   8   1  -13.50   16.70
   0  -8   1  -16.30   22.00
   0   8  -1   20.50   17.60
   0  -8   1    6.80   18.50
   0   8  -1   11.90   13.10
  -8   0  -1   24.90   11.80
  -8   0  -1    6.40   14.00
   8  -8  -1   22.00   14.30
  -8   8   1   -8.70    9.30
   8   0   1    6.40   11.80
   8   0   1   24.10   15.00
  -8   7   1  733.33   32.50
   1   7  -1  778.02   35.30
   1   7  -1  793.22   39.20
   7  -8  -1  759.12   32.50
  -8   7   1  721.03   39.90
   7  -8  -1  779.22   37.00
   1  -8   1  692.63   50.49
  -8   1  -1  761.32   28.90
   7  -8  -1  757.32   34.70
   1  -8   1  763.02   32.30
   1   7  -1  763.92   44.70
   7   1   1  754.62   35.50
   7   1   1  802.22   47.00
   1  -8   1  735.93   40.80
  -1  -7   1  688.03   40.50
  -7  -1  -1  758.12   38.80
  -7  -1  -1  792.22   33.50
   8  -7  -1  809.32   34.90
   8  -1   1  775.72   29.30
   8  -7  -1  755.12   32.80
  -1   8  -1  831.22   39.20
   8  -1   1  765.72   45.70
   8  -7  -1  748.13   37.60
  -7   8   1  725.83   44.20
  -1  -7   1  727.53   47.50
  -1   8  -1  770.52   46.60
   2   6  -1  574.94   30.30
  -8   2  -1  631.24   21.90
   6  -8  -1  574.04   27.80
   6   2   1  612.04   34.60
   6  -8  -1  591.94   34.00
   2  -8   1  599.44   28.20
   2   6  -1  684.03   40.60
   2  -8   1  630.14   46.00
   2   6  -1  514.65   35.70
  -8   6   1  540.65   27.30
  -8   6   1  582.24   34.20
   6  -8  -1  579.24   38.00
  -8   2  -1  593.64   24.60
   2  -8   1  604.04   37.50
   6  -8  -1  533.25   29.40
   8  -2   1  657.03   21.00
  -6   8   1  617.34   41.40
   8  -6  -1  609.34   29.10
  -6  -2  -1  641.44   30.30
   8  -6  -1  603.24   34.50
  -2  -6   1  607.34   44.80
  -6  -2  -1  597.64   36.60
  -2  -6   1  537.55   39.40
  -2   8  -1  563.64   35.40
   8  -6  -1  610.64   28.00
  -2   8  -1  619.04   43.10
   3   5  -1  509.35   34.90
   5  -8  -1  589.44   27.60
   3   5  -1  532.65   30.00
   3  -8   1  566.34   27.70
   3  -8   1  559.44   42.70
   5   3   1  579.74   37.30
  -8   5   1  557.44   27.00
   5  -8  -1  568.34   26.20
   5  -8  -1  587.64   39.10
   3  -8   1  579.04   34.60
   5  -8  -1  615.54   33.80
   5   3   1  559.94   44.60
   3   5  -1  568.04   39.50
   8  -5  -1  593.04   27.90
  -5  -3  -1  564.04   36.90
  -5  -3  -1  590.74   30.30
  -3   8  -1  577.34   39.80
   8  -5  -1  529.05   26.90
   8  -5  -1  569.34   33.80
  -3  -5   1  581.94   35.70
  -3  -5   1  542.85   40.80
  -5   8   1  548.55   41.90
   8  -5  -1  553.74   27.00
  -3   8  -1  506.45   33.20
   8  -3   1  551.14   39.70
  -8   4   1  933.61   38.00
   4   4  -1  992.10   46.40
   4   4  -1 1006.10   41.80
  -8   4  -1  978.00   46.90
   4  -8   1  979.50   43.90
   4  -8  -1 1013.20   49.50
   4  -8  -1 1042.80   38.30
   4   4  -1 1007.70   45.30
   4   4   1  920.31   48.70
   4  -8   1  927.71   50.29
   4  -8  -1 1006.40   43.60
   4   4   1  971.20   48.30
   4  -8   1  997.70   38.90
   4  -8  -1 1007.10   34.60
  -4   8  -1  952.80   48.90
  -4   8  -1  998.40   41.50
  -4  -4  -1 1083.09   38.80
  -4  -4  -1  979.50   41.00
   8  -4  -1  962.90   38.10
   8  -4  -1 1052.09   37.50
   8  -4  -1 1015.20   46.60
   8  -4  -1  990.60   39.00
  -4  -4  -1  958.10   47.40
  -4   8   1  954.60   51.79
   8  -4   1  956.20   45.40
  -4  -4   1  911.31   43.80
  -4  -4   1  879.41   47.70
   5  -8   1 2602.24   82.09
   5   3  -1 2700.03   82.89
   5   3  -1 2505.25   84.99
  -8   3   1 2487.55   80.69
   5  -8   1 2535.75   88.49
  -8   5  -1 2597.24   74.89
   5  -8   1 2534.65   82.39
  -8   5  -1 2541.05   83.39
   3  -8  -1 2494.35   74.49
   3  -8  -1 2561.14   90.29
   3   5   1 2523.85   89.49
  -8   3   1 2601.84   79.09
   5   3  -1 2584.14   87.49
   3  -8  -1 2233.48   93.29
   3   5   1 2249.87  102.49
  -8   5  -1 2410.06   72.99
   8  -5   1 2527.05   73.79
   8  -3  -1 2563.54   81.29
  -3  -5  -1 2512.85   89.59
  -3  -5  -1 2539.25   78.29
  -5   8  -1 2401.06   85.69
   8  -3  -1 2581.24   80.59
  -5  -3   1 2373.26   85.79
  -3  -5  -1 2552.64   83.89
  -5  -3   1 2397.46   82.29
  -3   8   1 2653.03   83.29
   8  -5   1 2204.48   91.69
  -5   8  -1 2453.55   81.89
  -3   8   1 2578.54   92.69
   6   2  -1  789.62   38.90
   6  -8   1  838.12   35.80
  -8   6  -1  929.11   33.00
   2  -8  -1  755.02   41.90
   2   6   1  868.01   48.40
   2   6   1  718.63   39.70
  -8   2   1  845.02   35.90
   6   2  -1  762.42   41.90
   6   2  -1  851.61   39.30
  -8   6  -1  712.23   38.00
   6  -8   1  803.62   42.70
  -8   2   1  796.32   33.50
   2  -8  -1  799.32   47.70
  -6  -2   1  876.01   41.70
   8  -6   1  780.32   28.60
  -2  -6  -1  702.73   30.90
   8  -2  -1  772.72   36.00
  -6  -2   1  842.92   37.90
  -2   8   1  876.01   49.10
  -2  -6  -1  813.02   46.60
   8  -2  -1  848.22   34.90
   8  -6   1  674.23   44.00
   8  -6   1  765.72   30.60
  -6   8  -1  824.32   41.00
  -2  -6  -1  880.21   40.70
   8  -2  -1  704.33   46.90
  -8   1   1  146.09   19.60
   7  -8   1  133.39   21.10
   7  -8   1  135.59   19.70
   7   1  -1  149.09   23.40
  -8   7  -1  145.49   22.00
  -8   1   1  183.88   23.60
   7  -8   1  120.49   19.40
   1  -8  -1  150.58   26.20
   1   7   1  159.78   27.70
  -8   7  -1  177.18   26.70
   1  -8  -1  116.19   24.00
   7   1  -1  146.09   24.60
  -7   8  -1  191.78   23.30
  -1  -7  -1  172.08   16.40
  -1  -7  -1  148.39   32.10
   8  -1  -1  147.59   29.40
  -7  -1   1  149.29   21.60
  -1   8   1  151.08   29.30
  -7   8  -1   98.09   26.40
  -7  -1   1  181.78   26.50
   8  -1  -1  160.08   23.70
  -1   8   1  166.88   26.10
   8  -1  -1  130.79   20.40
   8  -7   1  152.98   26.00
  -1  -7  -1  150.48   27.10
   0   8   1 2041.00   73.59
   0   8   1 2002.30   81.89
   8  -8   1 2056.99   66.49
  -8   0   1 2022.90   71.49
   8  -8   1 1984.10   69.99
   0  -8  -1 2067.39   74.19
  -8   8  -1 2048.90   71.09
   8   0  -1 2081.59   69.89
  -8   8  -1 1980.90   70.39
  -8   0   1 1931.51   67.49
   8   0  -1 2058.79   72.29
   8   0  -1 2083.69   77.19
   0  -8  -1 2051.69   80.29
   8  -8   1 2053.69   72.89
   9  -9  -1   39.30   16.60
   0   9  -1   39.20   24.80
   9  -9  -1   30.60   12.80
   0   9  -1   41.30   20.20
  -9   9   1   39.10   12.70
  -9   0  -1   32.80   16.80
   9  -9  -1   23.00   15.10
   0   9  -1   37.20   17.60
   9   0   1   41.70   13.20
   0  -9   1   23.60   24.10
   0  -9   1   30.10   20.30
   9   0   1   50.99   18.20
  -9   9   1   20.00   20.50
   9   0   1   31.50   29.00
  -9   8   1  188.48   30.60
  -9   1  -1  244.18   19.10
   8  -9  -1  204.48   21.30
   8  -9  -1  224.88   26.00
   8   1   1  252.17   27.10
   1  -9   1  196.98   32.40
   1  -9   1  197.28   41.00
   8   1   1  192.18   25.60
  -9   8   1  219.98   20.50
   8   1   1  257.17   38.80
  -9   1  -1  193.68   23.10
   1   8  -1  263.57   30.20
   8  -9  -1  219.28   23.40
   1   8  -1  248.18   35.60
  -8  -1  -1  151.38   28.90
  -1  -8   1  156.78   41.60
   9  -8  -1  186.08   23.60
   9  -1   1  211.18   27.70
   9  -1   1  173.28   30.60
  -1   9  -1  199.18   27.90
  -8   9   1  158.18   26.10
  -1  -8   1  164.68   31.40
   9  -1   1  166.18   17.70
  -8  -1  -1  183.88   23.20
  -1   9  -1  230.18   39.60
   9  -8  -1  151.58   25.00
   2  -9   1  410.26   24.50
   2   7  -1  406.36   28.20
   7  -9  -1  382.76   30.30
  -9   2  -1  349.87   22.10
   2  -9   1  316.97   42.20
   7  -9  -1  393.96   24.40
   7   2   1  391.46   40.10
   7  -9  -1  354.86   34.80
   7  -9  -1  370.06   24.50
  -9   7   1  395.46   32.30
  -9   7   1  346.77   23.30
  -9   2  -1  418.56   18.40
   2   7  -1  402.86   32.50
   2   7  -1  342.27   37.90
   7   2   1  367.06   30.30
  -2  -7   1  337.97   33.10
  -2   9  -1  397.06   32.00
   9  -7  -1  347.07   24.10
  -7  -2  -1  299.57   33.70
   9  -7  -1  356.96   25.20
   9  -2   1  394.56   39.20
   9  -2   1  386.26   16.90
  -2   9  -1  322.87   39.30
  -7  -2  -1  383.86   28.10
  -7   9   1  283.47   37.70
  -2  -7   1  316.17   41.20
   6   3   1  664.43   42.20
   6   3   1  606.04   37.70
   6  -9  -1  616.84   29.40
   3   6  -1  620.14   35.80
   3  -9   1  585.24   46.00
   6  -9  -1  652.43   42.20
   6  -9  -1  592.14   28.00
   3  -9   1  605.04   29.80
   3  -9   1  609.24   38.10
   3   6  -1  610.84   41.50
   3   6  -1  660.63   34.00
   6  -9  -1  666.83   35.80
  -9   6   1  563.64   29.10
  -6   9   1  602.64   43.30
  -3   9  -1  668.43   34.80
  -3  -6   1  630.64   38.60
  -3  -6   1  587.94   44.60
  -3   9  -1  590.64   42.80
   9  -6  -1  595.94   30.30
   9  -6  -1  624.94   29.10
   9  -3   1  597.74   42.80
  -6  -3  -1  666.63   33.60
   9  -6  -1  624.24   37.20
  -6  -3  -1  584.74   39.80
   4   5  -1 2654.43   89.69
  -9   5   1 2506.05   82.59
   4  -9   1 2568.64   83.39
   4   5  -1 2639.04   90.09
   4  -9   1 2483.95   93.19
   5   4   1 2444.26   89.19
   5  -9  -1 2582.04   82.59
   4   5  -1 2750.62   86.59
   5  -9  -1 2634.84   79.99
   4  -9   1 2637.34   88.09
   5   4   1 2586.44   91.79
   5  -9  -1 2666.63   87.79
   5  -9  -1 2566.84   92.79
  -4  -5   1 2430.46   86.99
  -4   9  -1 2515.95   84.89
   9  -4   1 2562.44   91.89
  -5  -4  -1 2689.23   90.69
  -4  -5   1 2481.15   92.19
   9  -5  -1 2655.13   90.09
   9  -5  -1 2568.34   83.89
  -4   9  -1 2569.44   92.09
  -5   9   1 2715.73   94.89
   9  -5  -1 2610.54   82.39
   9  -5  -1 2596.54   81.79
  -5  -4  -1 2681.33   85.09
   4   5   1  556.84   42.10
   5  -9   1  608.84   30.40
   4   5   1  713.23   43.80
   5  -9   1  694.33   44.70
   5   4  -1  563.14   37.70
  -9   4   1  661.73   30.80
   5  -9   1  667.93   36.30
   4  -9  -1  647.64   43.70
   4  -9  -1  670.13   37.10
   4  -9  -1  632.74   24.80
   5   4  -1  693.73   39.90
   5   4  -1  587.94   36.40
  -4  -5  -1  654.43   42.60
   9  -5   1  641.84   39.20
   9  -4  -1  663.83   30.40
  -4  -5  -1  691.83   35.10
  -5  -4   1  687.23   43.70
   9  -4  -1  636.34   31.60
  -4  -5  -1  614.64   30.00
  -5   9  -1  690.63   41.70
   9  -4  -1  588.54   38.00
  -4   9   1  691.13   47.60
  -5  -4   1  692.53   36.70
   3   6   1  513.05   43.40
   6  -9   1  542.95   30.80
   6   3  -1  565.84   34.80
  -9   6  -1  581.34   25.00
  -9   6  -1  573.24   32.20
   6  -9   1  555.24   31.80
   6  -9   1  488.65   40.50
   6   3  -1  548.15   35.20
  -9   3   1  514.55   26.90
   6   3  -1  575.14   37.40
   3   6   1  560.34   38.40
   3  -9  -1  509.65   42.60
  -9   6  -1  499.55   19.70
  -9   3   1  542.65   29.70
   3  -9  -1  546.75   35.40
  -6   9  -1  557.44   31.20
   9  -3  -1  523.35   28.10
  -3  -6  -1  597.54   26.20
  -6   9  -1  462.55   37.30
  -6  -3   1  514.05   37.50
   9  -6   1  560.54   20.20
  -3  -6  -1  551.94   36.50
   9  -6   1  547.85   38.20
  -3   9   1  630.54   33.60
   9  -3  -1  566.94   32.60
  -6  -3   1  505.35   37.00
   9  -3  -1  582.44   37.10
  -3   9   1  540.75   44.40
  -3  -6  -1  502.95   42.60
   2   7   1 1257.87   60.99
   2   7   1 1250.67   55.29
  -9   2   1 1274.07   49.20
   7  -9   1 1321.17   49.50
  -9   2   1 1268.87   46.40
   7   2  -1 1325.97   51.79
   2  -9  -1 1357.26   55.19
  -9   7  -1 1233.58   51.99
   7   2  -1 1347.87   53.99
  -9   7  -1 1337.87   46.70
   7  -9   1 1255.67   49.99
   7  -9   1 1409.26   56.99
   2  -9  -1 1235.98   62.19
   7   2  -1 1248.68   56.09
  -2   9   1 1377.26   64.89
  -7   9  -1 1191.28   50.09
   9  -2  -1 1256.07   50.89
   9  -7   1 1247.78   54.19
  -2  -7  -1 1249.07   44.10
   9  -2  -1 1309.97   48.10
   9  -7   1 1254.27   45.10
  -2  -7  -1 1283.77   61.59
  -2  -7  -1 1362.26   54.49
  -7   9  -1 1255.87   54.79
   9  -2  -1 1244.18   56.19
  -2   9   1 1303.47   52.59
   9  -7   1 1292.77   42.60
  -7  -2   1 1215.78   54.39
   1  -9  -1  861.11   43.60
   1  -9  -1  884.91   50.89
   8  -9   1  872.11   43.20
   1   8   1  870.71   52.19
   8  -9   1  875.71   37.10
   8   1  -1  869.01   44.00
  -9   8  -1  942.71   39.70
   1   8   1  819.82   44.60
  -9   1   1  877.01   37.00
  -9   8  -1  800.82   40.10
   8  -9   1  852.31   41.50
   8   1  -1  810.32   46.80
   8   1  -1  910.41   40.90
  -9   1   1  879.51   40.10
  -1  -8  -1  824.82   53.69
  -1   9   1  897.91   53.99
   9  -8   1  839.82   43.20
  -1  -8  -1  742.43   31.80
   9  -8   1  851.31   33.40
  -8   9  -1  808.92   42.90
  -1   9   1  824.92   43.10
   9  -1  -1  875.61   41.90
   9  -8   1  809.32   37.50
   9  -1  -1  816.82   46.30
  -8   9  -1  789.62   39.60
   9  -1  -1  897.21   38.30
  -8  -1   1  872.91   44.40
  -1  -8  -1  884.81   44.50
   0   9   1  756.72   79.99
   9   0  -1  608.34   38.20
   9   0  -1  589.74   33.50
   0   9   1  626.34   39.90
  -9   9  -1  545.25   36.30
   9  -9   1  557.34   35.80
   0  -9  -1  530.95   49.60
   9   0  -1  585.24   41.10
  -9   0   1  583.84   36.30
   9  -9   1  586.14   36.60
   9  -9   1  603.34   29.90
  -9   9  -1  624.54   36.10
  10 -10  -1   24.10   14.30
 -10   0  -1   47.30   15.70
   0  10  -1   41.50   19.60
  10   0   1   15.60   13.40
 -10  10   1    5.50   21.70
   0  10  -1    5.00   23.70
 -10  10   1   19.30   12.40
  10   0   1   19.60   29.80
   0  10  -1   42.80   20.60
  10 -10  -1   30.30   17.40
 -10   0  -1   27.50   18.20
  10 -10  -1   25.10   20.20
   0 -10   1    0.00   26.50
   0 -10   1    3.50   24.90
   1   9  -1   76.59   25.50
   1 -10   1   41.50   34.10
   1 -10   1   25.70   24.40
 -10   9   1   37.00   19.90
   1   9  -1   60.79   19.40
   9 -10  -1   61.59   20.00
   9   1   1   60.19   29.60
 -10   1  -1   52.09   16.10
   9 -10  -1   62.29   18.20
 -10   9   1   86.59   20.20
   9   1   1   50.99   16.60
   1   9  -1   69.79   20.90
   9   1   1   58.79   19.20
   9 -10  -1   59.09   16.30
  -1  10  -1   67.39   25.20
  10  -1   1   46.30   29.10
  10  -9  -1   48.40   20.80
  -9  10   1   24.20   23.20
  -1  -9   1   33.20   22.70
  10  -9  -1   60.69   16.50
  -1  10  -1   51.99   19.10
  10  -1   1   43.40   19.30
  10  -1   1   65.79   11.90
  -1  10  -1   45.40   20.80
  -9  -1  -1   47.50   19.10
  -9  -1  -1   65.29   16.80
  10  -9  -1   50.69   15.90
  -1  -9   1   31.50   25.70
   8 -10  -1   76.79   21.10
   2   8  -1   80.29   25.90
   8 -10  -1   77.09   19.90
 -10   8   1   83.99   21.10
   2   8  -1   69.79   17.80
 -10   8   1   61.79   12.80
   2 -10   1   75.59   23.90
   2   8  -1   80.79   20.40
 -10   2  -1   73.99   20.00
   8   2   1  107.49   20.50
   8 -10  -1   58.29   17.90
   2 -10   1   41.60   25.30
   8   2   1   66.49   17.90
   8 -10  -1   96.39   19.30
   2 -10   1   89.19   20.20
  -2  -8   1   35.50   21.50
  10  -8  -1   63.19   18.90
  10  -2   1   59.39   18.70
  -2  -8   1   49.99   26.10
  -8  -2  -1   59.59   20.50
  10  -8  -1   47.10   14.80
  10  -2   1   75.69   13.10
  -8  10   1   25.50   23.60
  10  -8  -1   39.10   17.70
  -2  10  -1   66.59   20.80
  -2  10  -1   93.99   36.30
  10  -2   1   41.20   26.50
   3 -10   1   64.49   15.10
   7 -10  -1   68.59   20.50
   3   7  -1   92.69   20.90
   3   7  -1   76.69   19.80
 -10   3  -1  107.49   15.90
   7 -10  -1   52.19   17.90
   7   3   1   84.59   27.40
   3 -10   1  171.88   43.20
 -10   7   1   85.09   19.20
   7   3   1   87.59   19.60
   7 -10  -1   76.39   15.80
 -10   7   1   89.79   19.80
   7 -10  -1  104.09   17.80
  -7  -3  -1   72.49   22.80
  -3  10  -1   80.39   25.70
  -3  10  -1   68.59   20.90
  -3  -7   1   74.19   22.20
  10  -3   1   61.39   25.10
  -7  10   1   85.19   26.10
  10  -7  -1   66.89   13.60
  10  -3   1   66.19    9.40
  10  -7  -1   48.90   14.60
  10  -7  -1   35.90   17.80
  -3  -7   1   74.39   26.20
 -10   6   1  339.17   24.00
   4 -10   1  337.57   34.00
   6   4   1  358.96   36.50
   4 -10   1  362.66   45.20
   6 -10  -1  405.26   25.60
   6 -10  -1  363.96   32.00
   4   6  -1  337.97   37.70
   4 -10   1  370.36   25.80
   4   6  -1  361.76   34.00
   6   4   1  355.46   40.90
   6 -10  -1  343.27   38.70
   4   6  -1  390.96   30.60
   6 -10  -1  356.56   23.00
  -4  10  -1  372.66   42.50
  10  -6  -1  354.66   22.80
  -4  -6   1  327.17   35.00
  10  -6  -1  372.96   32.90
  10  -4   1  313.17   33.80
  -6  10   1  311.17   42.60
  -4  -6   1  390.76   42.40
  10  -6  -1  337.57   23.90
  -4  10  -1  392.26   32.50
  -6  -4  -1  317.07   37.60
  10  -6  -1  347.87   25.70
   5 -10  -1  443.06   21.50
   5   5  -1  474.15   34.10
   5   5   1  447.06   40.10
 -10   5   1  379.66   25.50
   5   5   1  497.45   40.70
   5   5  -1  481.95   36.00
   5 -10  -1  483.95   27.60
   5 -10   1  450.25   35.30
   5 -10   1  398.56   45.30
   5 -10  -1  464.25   35.80
   5   5  -1  489.25   37.90
   5 -10  -1  443.36   41.20
   5 -10   1  450.15   27.00
  10  -5  -1  470.55   36.70
  -5  10  -1  441.26   41.80
  10  -5  -1  486.45   25.50
  -5  10  -1  417.46   31.10
  -5  -5  -1  447.66   40.50
  -5  -5   1  445.46   42.60
  10  -5   1  433.26   35.20
  10  -5  -1  454.75   29.30
  -5  -5  -1  460.05   32.70
  10  -5  -1  441.26   26.00
  -5  -5   1  467.05   35.40
  -5  10   1  454.35   45.90
 -10   6  -1  664.33   23.00
   4 -10  -1  659.03   39.60
   6   4  -1  697.03   41.20
   6 -10   1  657.23   34.40
   6   4  -1  610.24   38.40
   6 -10   1  676.73   47.60
 -10   4   1  674.63   30.70
   4 -10  -1  688.73   48.10
   4   6   1  675.43   48.70
 -10   6  -1  750.92   27.10
   4   6   1  594.44   41.30
   6 -10   1  727.43   38.00
 -10   4   1  672.93   32.70
  -4  -6  -1  690.43   45.60
  10  -4  -1  666.73   41.90
  10  -6   1  712.53   42.90
  -6  10  -1  598.14   35.60
  -4  -6  -1  666.03   31.70
  -6  -4   1  662.63   38.90
  -6  -4   1  681.73   45.60
  -4  -6  -1  653.23   37.80
  10  -4  -1  713.73   32.30
  -4  10   1  717.83   52.19
  -4  10   1  620.94   36.60
  -6  10  -1  663.23   43.60
  10  -4  -1  715.83   36.60
   3 -10  -1  246.58   42.50
 -10   3   1  218.58   23.10
   7   3  -1  164.58   32.10
   3 -10  -1  206.78   31.40
   7   3  -1  220.08   30.10
   3   7   1  132.09   33.20
 -10   3   1  214.98   21.10
   7 -10   1  190.88   37.50
   3   7   1  208.78   43.20
 -10   7  -1  179.88   13.10
   7 -10   1  188.88   28.00
   7   3  -1  192.58   32.50
   7 -10   1  207.58   25.50
  -3  10   1  220.88   39.90
  10  -7   1  139.79   30.40
  10  -3  -1  142.79   30.80
  -7  -3   1  249.97   35.30
  -7  10  -1  138.89   26.40
  10  -3  -1  151.98   25.00
  -3  -7  -1  179.48   19.60
  -3  -7  -1  181.58   38.70
  -7  10  -1  209.58   35.40
  10  -3  -1  206.18   21.70
  -3  -7  -1  178.68   30.50
  -7  -3   1  234.28   28.90
  -3  10   1  143.69   27.70
  10  -7   1  157.68   14.10
   8   2  -1  773.72   40.60
   8 -10   1  743.33   37.70
   8   2  -1  877.01   45.40
   8 -10   1  717.03   37.60
 -10   8  -1  791.82   41.20
   8   2  -1  766.22   45.60
 -10   8  -1  802.52   36.50
   8 -10   1  749.82   46.10
 -10   2   1  704.83   34.00
   2   8   1  771.82   42.40
   2   8   1  708.93   54.79
   2 -10  -1  730.03   51.49
   2 -10  -1  782.42   44.40
 -10   2   1  728.83   37.80
  -8  -2   1  787.42   40.00
  -2  10   1  788.82   43.00
  -8  10  -1  735.93   45.10
  10  -2  -1  795.42   45.80
  -2  -8  -1  821.32   32.40
  10  -8   1  790.62   30.80
  10  -2  -1  779.22   36.00
  10  -8   1  748.73   42.90
  -2  -8  -1  804.02   52.19
  10  -2  -1  743.13   40.40
  -2  10   1  719.43   55.49
  -8  10  -1  757.62   38.40
  -2  -8  -1  747.43   43.70
  -8  -2   1  720.13   45.70
   1 -10  -1 3425.46  117.59
 -10   9  -1 3389.16  106.99
   9   1  -1 3433.76  109.49
   9   1  -1 3553.24  112.69
 -10   1   1 3308.17  108.79
   1   9   1 3431.76  113.79
   1   9   1 3291.37  120.19
   9 -10   1 3286.57  110.29
 -10   9  -1 3282.67  108.89
   9   1  -1 3294.27  114.29
   1 -10  -1 3343.17  118.99
 -10   1   1 2994.70  108.29
   9 -10   1 3385.36  105.79
   9 -10   1 3298.97  109.99
  -9  10  -1 3359.36  108.89
  -9  10  -1 3303.87  110.49
  10  -1  -1 3372.46  106.89
  -9  -1   1 3128.69  110.29
  -1  -9  -1 3392.76  119.69
  -1  10   1 3331.67  119.89
  -1  -9  -1 3423.26  119.49
  10  -9   1 3312.47  112.29
  10  -1  -1 3466.25  111.69
  -1  10   1 3433.46  112.69
  10  -9   1 3344.77  102.99
  10  -9   1 3302.17  106.19
  -9  -1   1 3240.78  106.99
 -10  10  -1  704.73   40.80
   0 -10  -1  677.33   53.69
  10 -10   1  658.13   41.10
 -10   0   1  692.93   42.60
  10   0  -1  715.53   38.00
  10   0  -1  708.63   44.20
   0 -10  -1  691.23   44.40
  10 -10   1  658.03   40.50
   0  10   1  679.33   53.39
   0  10   1  697.13   41.80
 -10   0   1  676.53   38.10
  10   0  -1  691.03   45.30
 -10  10  -1  666.43   40.10
  10 -10   1  665.13   34.20
 -11  11   1  270.07   26.10
  11 -11  -1  241.38   26.50
  11   0   1  272.97   27.40
  11 -11  -1  234.38   33.80
 -11  11   1  288.27   65.79
  11 -11  -1  221.38   30.90
   0 -11   1  237.18   39.40
 -11   0  -1  263.27   34.70
   0  11  -1  229.08   32.00
   0 -11   1  205.08   50.79
   0  11  -1  200.98   32.50
  11   0   1  195.88   34.70
 -11   0  -1  282.67   28.40
  11   0   1  221.78   39.70
 -11  10   1  234.38   39.40
   1  10  -1  193.98   29.60
  10 -11  -1  205.28   31.30
  10 -11  -1  217.38   27.40
 -11   1  -1  222.28   30.20
   1  10  -1  252.87   43.10
   1  10  -1  236.98   30.40
 -11  10   1  192.48   24.00
   1 -11   1  163.68   39.70
  10 -11  -1  145.99   40.70
 -11   1  -1  239.88   23.30
  10   1   1  206.48   38.10
  10   1   1  169.78   28.10
  10   1   1  188.58   35.30
   1 -11   1  160.58   36.70
  -1  11  -1  261.77   49.00
  -1 -10   1  178.58   38.50
  11  -1   1  223.88   21.60
  -1  11  -1  215.08   32.10
  -1 -10   1  219.58   36.70
 -10  -1  -1  245.58   29.60
  11  -1   1  191.38   44.40
 -10  -1  -1  211.18   35.40
  -1  11  -1  229.28   29.20
  11 -10  -1  202.28   26.70
  11 -10  -1  198.28   27.90
  11  -1   1  179.98   32.50
  11 -10  -1  182.68   32.40
   2 -11   1  102.39   30.30
   2   9  -1  169.88   42.00
   9   2   1  109.29   20.70
   9 -11  -1  115.09   21.40
   9 -11  -1  137.69   33.50
   9   2   1  114.29   31.70
 -11   2  -1  180.08   18.60
 -11   9   1  136.39   34.00
   2   9  -1  141.49   27.70
 -11   9   1  133.19   22.30
   2 -11   1  123.99   28.50
   9 -11  -1  128.09   26.40
 -11   2  -1  141.59   25.10
   9   2   1  138.09   22.90
   2   9  -1  142.39   29.20
  -9  -2  -1  144.29   28.50
  11  -9  -1  119.79   24.70
  -9  -2  -1  124.29   24.00
  -2  -9   1  106.09   32.50
  11  -2   1  101.19   28.00
  -2  11  -1  173.28   29.70
  11  -2   1  127.09   15.80
  11  -9  -1  134.79   23.60
  -2  -9   1  108.29   25.00
  11  -2   1  119.69   29.40
  11  -9  -1  166.38   26.50
  -2  11  -1  136.59   29.10
   8 -11  -1  238.48   24.30
   3   8  -1  233.58   40.90
   3 -11   1  196.08   47.80
 -11   8   1  193.98   22.70
   3 -11   1  196.28   27.90
   8 -11  -1  205.98   21.90
   8   3   1  250.17   32.40
 -11   3  -1  283.77   22.50
   8   3   1  246.48   29.60
   3   8  -1  242.88   32.80
   8 -11  -1  238.68   31.00
   8 -11  -1  224.38   36.80
   3   8  -1  261.47   31.20
   8   3   1  206.08   42.20
 -11   8   1  245.38   34.00
  -3  -8   1  206.28   46.60
  11  -8  -1  207.38   31.10
  -3  11  -1  259.17   32.60
  11  -3   1  226.88   14.10
  -8  11   1  263.17   56.09
  11  -3   1  206.38   35.40
  -3  11  -1  220.48   42.70
  11  -8  -1  264.07   38.00
  -8  -3  -1  200.88   37.30
  -3  -8   1  193.38   36.50
  -8  -3  -1  236.78   30.60
  11  -8  -1  222.88   26.10
  11  -3   1  243.58   31.90
   4   7  -1  301.27   39.00
   7 -11  -1  332.37   41.70
   4   7  -1  327.57   34.30
   4 -11   1  284.67   36.90
   7   4   1  323.77   36.30
   4   7  -1  341.57   32.30
   4 -11   1  312.37   45.80
   7 -11  -1  304.47   23.70
 -11   7   1  324.37   25.00
   7 -11  -1  354.96   34.40
   7 -11  -1  347.07   26.30
  -4  -7   1  356.66   57.79
  -4  11  -1  368.36   33.20
  -4  -7   1  301.77   41.80
  11  -7  -1  332.57   33.20
  -7  -4  -1  377.76   34.00
  11  -7  -1  336.97   28.60
  11  -7  -1  336.67   24.60
  -4  11  -1  414.46   64.09
  -7  11   1  328.77   43.60
  -7  -4  -1  279.57   40.00
   5 -11   1  183.78   46.20
   5   6  -1  261.37   32.30
   6 -11  -1  201.08   31.20
   6   5   1  252.67   38.60
   6 -11  -1  251.57   23.80
   6 -11  -1  236.18   18.30
 -11   6   1  198.78   22.40
   5 -11   1  219.58   34.90
   5   6  -1  227.38   36.60
   5 -11   1  249.48   28.80
   6 -11  -1  216.78   40.30
  -6  -5  -1  229.78   30.80
  -5  -6   1  256.07   44.30
  -6  -5  -1  214.58   39.50
  -5  11  -1  211.48   31.30
  11  -6  -1  199.18   21.40
  -5  -6   1  236.98   34.70
  11  -6  -1  233.78   32.20
  -5  11  -1  204.48   39.90
  11  -6  -1  233.78   20.80
  -6  11   1  196.98   42.00
   6 -11   1  384.26   45.90
   6 -11   1  390.06   34.30
   6   5  -1  344.97   34.70
   5 -11  -1  362.16   42.90
   6   5  -1  343.77   35.20
   6   5  -1  448.66   40.60
 -11   5   1  370.46   26.70
   5   6   1  402.06   41.50
  -5  -6  -1  382.16   43.50
  -6  -5   1  441.06   45.60
  11  -5  -1  386.36   29.90
  -6  -5   1  458.65   38.20
  11  -5  -1  375.46   25.40
  -6  11  -1  418.46   41.30
  -5  -6  -1  379.96   34.40
  -5  11   1  419.56   48.10
   7 -11   1  281.87   27.10
   7   4  -1  302.37   36.00
   7 -11   1  325.67   42.00
 -11   7  -1  297.47   15.50
   4 -11  -1  268.17   33.30
 -11   4   1  315.57   26.30
   4   7   1  275.87   42.70
   4 -11  -1  272.87   44.10
   4   7   1  306.77   40.10
   7 -11   1  294.77   32.20
 -11   4   1  275.17   22.90
   7   4  -1  297.77   36.50
  -4  -7  -1  355.06   25.80
  11  -4  -1  249.38   34.50
  -7  11  -1  323.77   40.50
  -7  -4   1  337.67   41.30
  -7  11  -1  282.57   30.20
  -4  -7  -1  305.57   32.50
  -4  -7  -1  307.27   42.90
  -4  11   1  296.07   46.90
  -4  11   1  276.07   31.00
  -7  -4   1  313.87   34.20
  11  -7   1  293.47   14.60
  11  -7   1  240.98   31.50
  11  -4  -1  255.57   24.40
  11  -4  -1  299.27   30.70
   3 -11  -1 1640.24   66.99
 -11   3   1 1599.64   60.29
   8 -11   1 1600.04   68.99
   8 -11   1 1564.24   60.69
 -11   3   1 1390.96   60.09
   3   8   1 1547.85   75.19
   3 -11  -1 1711.03   74.79
 -11   8  -1 1749.82   57.29
   8   3  -1 1634.04   65.69
   8   3  -1 1621.34   68.29
 -11   8  -1 1548.74   51.39
   8   3  -1 1733.53   67.79
  11  -8   1 1602.94   51.89
  -3  -8  -1 1633.44   74.99
  -8  11  -1 1617.14   62.69
  11  -3  -1 1607.44   63.19
  -8  -3   1 1541.85   68.29
  -8  11  -1 1543.25   68.89
  11  -8   1 1632.94   66.59
  11  -3  -1 1697.63   68.79
  -3  11   1 1579.54   75.99
  11  -3  -1 1619.24   58.39
  -3  11   1 1640.64   62.89
  -8  -3   1 1635.04   63.99
  -3  -8  -1 1634.54   66.29
  -3  -8  -1 1712.43   55.59
   2 -11  -1  341.77   37.90
   9   2  -1  403.86   40.10
 -11   9  -1  397.56   40.00
   9 -11   1  335.17   38.40
   2   9   1  350.16   51.39
 -11   2   1  394.06   30.90
   9   2  -1  409.46   46.00
   9 -11   1  342.17   29.10
   2   9   1  361.76   39.30
   9   2  -1  406.36   33.20
 -11   2   1  396.46   27.80
   2 -11  -1  377.76   54.59
   9 -11   1  384.06   30.90
  -9  11  -1  295.57   38.00
  11  -2  -1  380.76   34.30
  11  -9   1  341.17   32.40
  -2  -9  -1  421.26   25.60
  -2  11   1  376.46   36.20
  11  -2  -1  338.57   37.70
  -2  11   1  392.46   53.39
  -9  11  -1  350.76   31.60
  -9  -2   1  395.06   34.00
  11  -9   1  393.76   23.20
  11  -2  -1  378.06   28.40
  -9  -2   1  410.06   40.40
  -2  -9  -1  341.57   37.40
  -2  -9  -1  336.97   48.10
 -11   1   1 1294.77   56.69
  10   1  -1 1397.46   57.19
  10   1  -1 1339.27   62.29
   1 -11  -1 1369.66   69.69
   1 -11  -1 1267.37   60.69
  10 -11   1 1334.77   52.69
   1  10   1 1309.57   72.89
  10 -11   1 1344.57   57.19
  10 -11   1 1331.67   59.29
   1  10   1 1338.07   61.69
 -11  10  -1 1390.46   58.89
 -11  10  -1 1444.56   55.59
 -11   1   1 1298.27   52.09
  11 -10   1 1359.56   49.99
  11 -10   1 1346.17   58.59
  11  -1  -1 1305.97   62.49
  -1  11   1 1278.37   70.49
 -10  -1   1 1318.97   60.29
 -10  11  -1 1425.96   57.09
 -10  11  -1 1266.97   58.89
  -1  11   1 1271.07   58.89
  -1 -10  -1 1315.57   61.39
  11  -1  -1 1396.26   53.99
  11 -10   1 1342.27   53.99
 -10  -1   1 1305.07   55.49
 -11  11  -1 2990.00  102.29
  11 -11   1 2981.50   96.79
   0 -11  -1 2973.60  113.99
 -11  11  -1 3007.00  103.49
   0  11   1 2790.32  119.19
  11   0  -1 3143.09  100.69
 -11   0   1 2953.80  104.09
  11 -11   1 2918.21  102.29
   0 -11  -1 3065.89  106.69
   0  11   1 3090.99  106.49
 -11   0   1 2925.31   98.89
  11 -11   1 3027.50  101.89
  11   0  -1 3139.49  107.29
  11   0  -1 2946.51  107.29
   0  12  -1  383.76   39.60
   0 -12   1  456.05   59.49
  12   0   1  446.26   32.00
   0  12  -1  379.06   34.70
  12   0   1  375.26   55.89
  12 -12  -1  414.96   32.80
  12 -12  -1  383.56   36.80
 -12  12   1  360.46   52.29
   0  12  -1  436.26   55.39
 -12   0  -1  451.75   41.50
  12 -12  -1  384.66   39.20
 -12  12   1  434.16   31.80
   0 -12   1  406.36   51.09
  12   0   1  401.36   40.90
  11   1   1  131.09   28.80
  11 -12  -1  133.59   32.30
   1  11  -1  137.49   33.00
   1  11  -1  113.69   29.70
   1  11  -1  107.19   29.10
 -12   1  -1  131.59   32.90
  11 -12  -1  143.49   26.10
   1 -12   1  129.29   32.00
 -12   1  -1  187.08   25.50
  11   1   1  158.48   40.40
   1 -12   1  149.79   38.00
 -12  11   1  114.69   24.40
  11   1   1  139.29   34.40
  11 -12  -1  134.89   31.80
 -12  11   1  175.38   38.60
  -1  12  -1  155.48   32.70
  12 -11  -1  142.79   29.40
  12 -11  -1  134.29   27.80
 -11  12   1  101.89   24.90
  -1  12  -1  195.38   49.40
 -11  -1  -1  138.49   31.10
 -11  12   1   99.09   30.70
  12  -1   1  130.49   22.80
  -1 -11   1   73.29   27.40
  12 -11  -1  153.38   30.50
  12  -1   1  146.89   26.80
  -1 -11   1   65.59   30.40
  -1  12  -1  135.29   25.80
 -11  -1  -1  106.29   24.30
  12  -1   1  157.68   38.30
  10   2   1   72.59   22.90
   2  10  -1   32.10   21.90
  10 -12  -1   62.89   25.80
 -12  10   1   48.90   23.70
  10 -12  -1   40.70   17.30
 -12  10   1   39.70   14.50
 -12   2  -1   65.39   17.10
   2  10  -1   24.20   21.30
   2 -12   1   37.00   31.30
  10 -12  -1   38.50   21.50
  10   2   1    6.50   31.90
   2 -12   1   40.70   29.70
   2  10  -1   47.90   34.00
  10   2   1   36.20   19.00
  -2 -10   1   15.60   25.80
 -10  -2  -1   52.39   20.70
 -10  12   1   -6.60   27.30
  12 -10  -1   41.30   21.20
  12  -2   1   34.60   10.50
  12 -10  -1   40.10   18.00
 -10  -2  -1   36.50   22.20
  -2 -10   1   11.90   28.70
  -2  12  -1   27.60   35.40
  12  -2   1   18.10   21.00
  12  -2   1   24.30   31.60
  -2  12  -1    9.10   21.70
   3   9  -1  308.37   46.40
   9 -12  -1  345.97   28.20
 -12   3  -1  400.76   21.90
   3   9  -1  335.67   35.00
   3   9  -1  333.77   36.00
 -12   9   1  370.46   39.60
   9   3   1  280.27   36.80
   9 -12  -1  313.87   28.00
   3 -12   1  313.27   41.30
   9   3   1  301.97   32.50
   9   3   1  315.17   48.20
   3 -12   1  298.47   62.79
 -12   9   1  287.87   27.60
   9 -12  -1  309.07   36.00
   9 -12  -1  328.97   42.20
 -12   3  -1  384.36   27.70
  12  -3   1  319.47   17.90
  12  -3   1  342.07   36.10
  12  -3   1  318.87   41.50
  -9  -3  -1  316.37   41.70
  -3  12  -1  318.67   52.39
  -3  -9   1  285.57   51.19
  12  -9  -1  341.87   36.90
  -3  12  -1  370.26   35.70
  -3  -9   1  292.57   40.80
  -9  -3  -1  361.86   34.90
  -9  12   1  327.87   48.70
  12  -9  -1  331.57   27.10
  12  -9  -1  407.86   30.00
 -12   4  -1  779.22   31.50
   4 -12   1  802.52   38.40
   8   4   1  748.53   40.20
 -12   8   1  734.63   36.50
   4   8  -1  830.52   46.20
   4 -12   1  755.62   48.20
   8   4   1  712.23   46.20
 -12   4  -1  779.92   28.60
   4   8  -1  829.32   45.20
   4 -12   1  738.43   59.19
 -12   8   1  824.12   47.30
   8 -12  -1  765.62   34.80
   8 -12  -1  786.52   52.89
   8 -12  -1  790.62   44.70
   4   8  -1  749.23   52.69
   8   4   1  760.52   54.79
   8 -12  -1  780.62   38.20
  12  -8  -1  811.32   36.90
  -8  12   1  748.73   55.79
  -4  12  -1  856.81   45.10
  12  -4   1  765.22   43.30
  -4  12  -1  790.82   57.69
  -8  -4  -1  798.12   44.90
  -4  -8   1  764.52   75.79
  12  -4   1  773.12   52.69
  -4  -8   1  677.53   48.80
  -8  -4  -1  762.52   52.29
  12  -8  -1  790.82   47.50
  12  -8  -1  780.52   40.20
   5 -12   1  768.22   70.19
   7 -12  -1  740.13   32.80
   7   5   1  810.92   49.60
   7 -12  -1  762.32   37.50
   5 -12   1  772.52   38.40
   5   7  -1  752.02   44.60
   7   5   1  722.33   50.09
   5   7  -1  728.53   59.19
   5   7  -1  838.72   51.19
   5 -12   1  853.41   61.09
   7 -12  -1  770.72   45.40
   7 -12  -1  770.42   53.79
 -12   7   1  787.02   36.80
  12  -5   1  783.22   49.60
  -5  -7   1  791.62   53.69
  -7  12   1  777.82   55.89
  12  -7  -1  779.02   40.60
  -5  -7   1  792.62   48.50
  -7  -5  -1  803.72   45.40
  12  -7  -1  737.23   46.10
  -5  12  -1  854.41   57.29
  -5  12  -1  713.83   44.50
  -7  -5  -1  778.72   53.29
   6   6  -1  504.55   42.80
   6 -12   1  483.05   39.40
   6 -12   1  531.95   50.09
   6 -12   1  453.85   31.40
   6 -12  -1  447.16   39.60
   6   6   1  581.44   46.80
   6   6   1  379.86   46.40
   6   6  -1  388.66   39.30
   6   6  -1  366.76   40.00
   6 -12  -1  415.76   29.70
   6 -12  -1  462.45   48.10
 -12   6   1  466.85   29.50
  12  -6   1  431.86   40.00
  12  -6  -1  439.46   33.80
  -6  -6  -1  530.15   47.20
  -6  -6  -1  484.15   37.70
  -6  12   1  495.15   50.69
  -6  -6   1  510.95   44.20
  12  -6  -1  462.95   28.00
  -6  -6   1  520.45   51.29
  -6  12  -1  498.65   48.90
  12  -6  -1  386.06   38.30
   7   5  -1  686.93   44.10
   7   5  -1  732.33   45.80
 -12   7  -1  679.73   24.90
   5   7   1  707.93   51.69
   5   7   1  669.73   50.29
   5 -12  -1  661.43   44.00
   7 -12   1  672.73   43.30
 -12   7  -1  747.13   30.60
   7 -12   1  652.33   53.69
   7   5  -1  711.53   45.20
 -12   5   1  623.24   35.00
   7 -12   1  688.73   35.90
  12  -7   1  712.63   47.30
  -5  -7  -1  725.43   34.30
  -5  12   1  646.94   56.99
  -7  -5   1  624.04   53.49
  12  -5  -1  708.23   34.40
  -7  -5   1  668.03   45.80
  12  -5  -1  703.23   45.50
  -7  12  -1  705.83   40.80
  -7  12  -1  653.73   50.39
  12  -5  -1  660.83   38.70
  -5  -7  -1  637.74   42.70
  -5  -7  -1  591.84   49.80
   4   8   1  317.47   49.10
   4   8   1  276.87   42.00
   8 -12   1  278.37   33.90
   8 -12   1  265.97   45.40
 -12   4   1  260.17   27.10
   8 -12   1  303.97   29.50
   8   4  -1  248.48   41.00
 -12   8  -1  306.97   17.10
   8   4  -1  322.27   38.00
   4 -12  -1  279.67   37.50
 -12   8  -1  246.78   32.80
 -12   4   1  239.38   24.00
   8   4  -1  253.67   37.00
   4 -12  -1  276.27   46.10
  -4  -8  -1  307.97   45.80
  -8  12  -1  331.47   44.00
  12  -8   1  279.17   36.40
  -4  -8  -1  281.57   40.20
  -8  -4   1  330.57   45.40
  -4  -8  -1  324.07   24.40
  12  -4  -1  301.17   33.90
  12  -4  -1  273.37   36.70
  -4  12   1  268.57   33.80
  12  -4  -1  294.27   26.40
  -8  12  -1  238.68   30.60
  12  -8   1  274.37   16.20
  -4  12   1  275.87   49.40
   9 -12   1  919.21   44.80
 -12   3   1  880.11   39.90
   3 -12  -1  864.71   51.89
   3   9   1  909.31   53.49
 -12   9  -1  991.40   41.50
   9   3  -1  987.40   53.99
 -12   9  -1  866.11   33.30
   3 -12  -1  845.52   61.39
   3   9   1  838.72   60.59
   9   3  -1  943.81   52.69
 -12   3   1  847.02   43.20
   9   3  -1  931.41   48.90
   9 -12   1  922.81   53.29
 -12   9  -1  881.41   46.80
   9 -12   1  916.11   45.70
  -9  12  -1  976.40   46.60
  12  -9   1  867.51   49.60
  -9  12  -1  792.62   53.69
  -3  12   1  934.01   49.10
  12  -9   1  906.61   34.40
  -3  -9  -1  851.01   51.29
  -3  -9  -1 1027.30   38.10
  12  -3  -1  885.61   51.39
  -3  -9  -1  778.12   61.59
  12  -3  -1  892.41   40.90
  -3  12   1  866.31   62.69
  -9  -3   1  873.51   55.59
  12  -3  -1  859.61   47.40
  -9  -3   1  854.11   54.39
  10 -12   1 2350.46   86.49
  10   2  -1 2595.54   93.59
  10   2  -1 2552.24   94.39
 -12  10  -1 2567.84   84.79
   2 -12  -1 2489.75   99.19
   2 -12  -1 2539.65   92.19
  10 -12   1 2452.25   92.19
   2  10   1 2470.65   93.19
   2  10   1 2457.45  100.59
 -12  10  -1 2579.94   89.39
  10 -12   1 2385.86   85.99
  10   2  -1 2572.14   89.09
 -12   2   1 2476.75   86.99
 -12   2   1 2369.56   82.19
  12  -2  -1 2513.65   90.89
  -2 -10  -1 2445.46  101.29
  -2 -10  -1 2409.56   92.59
 -10  -2   1 2404.76   91.79
  12 -10   1 2514.65   91.09
 -10  12  -1 2321.87   90.69
 -10  12  -1 2476.45   87.79
  -2  12   1 2389.16   89.29
  -2 -10  -1 2287.67   76.69
  12  -2  -1 2586.84   84.49
  -2  12   1 2364.36  111.89
  12  -2  -1 2541.55   93.69
 -10  -2   1 2472.65   87.99
  12 -10   1 2462.95   79.39
 -12  11  -1  322.07   36.40
   1 -12  -1  383.96   52.89
  11   1  -1  396.76   37.00
  11 -12   1  340.17   33.70
  11 -12   1  368.06   42.00
  11 -12   1  355.86   36.40
   1 -12  -1  342.57   42.50
   1  11   1  368.16   58.29
   1  11   1  385.36   43.40
 -12   1   1  395.66   35.40
 -12   1   1  395.06   40.00
  11   1  -1  384.06   49.30
  11   1  -1  322.47   41.10
 -11  -1   1  404.66   36.90
 -11  12  -1  329.87   35.40
 -11  -1   1  413.76   43.90
  -1  12   1  301.77   36.70
  12  -1  -1  322.97   40.20
  12 -11   1  372.16   28.70
  -1  12   1  373.66   60.19
  -1 -11  -1  401.36   43.40
  12  -1  -1  354.46   44.10
  12 -11   1  370.56   35.40
  12  -1  -1  368.56   32.10
  12 -11   1  331.47   37.30
  -1 -11  -1  352.06   56.19
   0  12   1  897.71   73.89
  12   0  -1  942.41   55.09
 -12   0   1  955.60   48.80
  12 -12   1  922.11   50.59
 -12   0   1  919.61   53.19
   0 -12  -1  855.91   68.99
   0  12   1  969.60   57.19
   0 -12  -1  824.42   55.59
  12 -12   1  954.60   50.89
 -12  12  -1  821.42   49.60
  12   0  -1  967.00   48.10
 -12  12  -1  939.81   51.59
  12 -12   1  930.41   44.40
   0 -13   1   -0.70   36.10
   0  13  -1   19.00   22.70
 -13   0  -1   14.50   24.50
 -13  13   1   -6.50   32.00
   0 -13   1  -13.40   31.50
  13   0   1   37.80   25.30
  13 -13  -1   -0.50   24.70
  13   0   1   20.30   17.90
   0  13  -1   32.70   34.40
  13 -13  -1    4.80   22.50
 -13  13   1   20.50   20.70
   0  13  -1   20.60   26.40
 -13   0  -1   58.89   22.40
   1  12  -1  438.36   43.10
 -13   1  -1  515.25   43.20
   1  12  -1  564.84   57.29
  12   1   1  496.45   39.00
 -13   1  -1  567.34   35.00
   1  12  -1  458.95   40.40
 -13  12   1  520.75   34.50
  12 -13  -1  460.25   35.80
   1 -13   1  569.54   63.79
  12   1   1  448.26   43.30
  12 -13  -1  472.25   41.60
 -13  12   1  508.35   56.09
  12   1   1  426.06   62.59
   1 -13   1  499.25   55.19
  12 -13  -1  439.56   40.40
  -1  13  -1  407.86   37.80
  -1  13  -1  605.64   61.49
  13 -12  -1  478.45   37.70
  -1 -12   1  459.95   62.49
  13  -1   1  553.04   31.50
  13  -1   1  452.55   60.29
  13  -1   1  472.15   44.60
  13 -12  -1  459.35   38.80
 -12  -1  -1  561.14   41.20
  -1 -12   1  464.35   50.59
 -12  13   1  459.75   58.49
  13 -12  -1  448.36   44.00
 -12  -1  -1  495.05   47.70
  -1  13  -1  407.66   41.50
  11 -13  -1  252.57   37.40
  11 -13  -1  213.28   31.50
  11 -13  -1  242.48   29.60
 -13   2  -1  256.17   33.20
   2  11  -1  223.88   36.20
 -13  11   1  233.98   46.40
 -13  11   1  225.68   28.20
   2  11  -1  310.27   51.09
  11   2   1  204.58   34.50
  11   2   1  244.18   37.30
   2 -13   1  234.18   46.80
   2  11  -1  215.68   36.90
  11   2   1  291.37   54.79
   2 -13   1  266.47   57.59
  13 -11  -1  220.08   40.80
  13 -11  -1  252.27   30.90
 -11  -2  -1  215.68   36.90
  -2 -11   1  204.48   45.30
  -2  13  -1  242.28   53.99
  13  -2   1  242.68   21.70
  -2 -11   1  231.18   42.90
  13  -2   1  252.57   39.00
 -11  -2  -1  225.28   42.70
  -2  13  -1  216.78   35.40
  13  -2   1  214.18   40.40
  -2  13  -1  229.18   35.70
  13 -11  -1  244.58   32.00
 -11  13   1  237.28   38.10
   3  10  -1  653.23   55.39
  10   3   1  705.23   59.89
  10 -13  -1  638.14   35.60
 -13  10   1  634.74   37.00
   3 -13   1  622.14   65.49
  10 -13  -1  669.13   44.50
 -13  10   1  699.53   50.59
  10 -13  -1  664.43   38.30
   3  10  -1  696.43   46.50
 -13   3  -1  619.24   36.30
   3  10  -1  693.13   43.70
  10   3   1  585.44   44.40
  10 -13  -1  733.53   67.29
 -13   3  -1  689.63   31.30
   3 -13   1  602.94   52.39
  10   3   1  677.83   42.50
  13  -3   1  611.74   44.50
 -10  13   1  591.34   58.39
  -3  13  -1  788.72   42.80
 -10  -3  -1  681.63   43.80
 -10  -3  -1  595.34   51.29
  13  -3   1  674.43   27.40
  13 -10  -1  652.43   39.40
  13 -10  -1  670.33   36.60
  13 -10  -1  664.43   49.30
  -3 -10   1  652.33   52.09
  -3  13  -1  633.54   60.49
  -3 -10   1  601.54   61.69
  13  -3   1  613.04   56.69
   4 -13   1  231.28   44.70
   4   9  -1  290.17   40.20
 -13   9   1  308.97   40.80
   4 -13   1  218.78   59.49
 -13   4  -1  331.47   20.10
   9   4   1  288.97   47.70
   9 -13  -1  279.77   42.30
 -13   4  -1  305.67   24.40
   9 -13  -1  276.97   27.80
   4   9  -1  313.87   45.30
 -13   9   1  255.07   31.30
   9 -13  -1  274.87   29.40
   9   4   1  263.77   34.30
   9 -13  -1  259.27   38.10
   4   9  -1  320.87   36.40
   4 -13   1  313.27   29.10
   9   4   1  254.17   39.90
  13  -9  -1  266.47   27.10
  -9  -4  -1  259.87   39.00
  -4  13  -1  179.88   44.00
  13  -9  -1  237.38   41.10
  -4  -9   1  215.08   51.39
  13  -4   1  243.78   46.50
  13  -4   1  249.88   36.40
  13  -4   1  242.58   15.00
  -9  -4  -1  223.88   47.60
  -4  13  -1  303.77   37.10
  -4  -9   1  202.88   42.20
  -9  13   1  241.18   52.09
   8   5   1 1500.15   72.99
   8 -13  -1 1480.95   71.79
   8 -13  -1 1459.95   65.09
   5 -13   1 1629.44   82.59
 -13   8   1 1496.25   56.49
 -13   5  -1 1423.76   48.10
 -13   8   1 1524.45   65.79
   5 -13   1 1462.75   57.59
   5   8  -1 1392.76   65.59
   8   5   1 1459.65   66.99
   8 -13  -1 1434.56   57.39
   5 -13   1 1516.65   68.79
   5   8  -1 1436.56   64.59
  -5  -8   1 1500.95   67.89
  -8  -5  -1 1504.65   64.19
  13  -5   1 1521.35   70.39
  -5  13  -1 1532.35   77.29
  -5  13  -1 1443.66   62.99
  13  -8  -1 1554.14   67.69
  -8  -5  -1 1558.44   73.19
  13  -8  -1 1570.94   60.89
  13  -8  -1 1441.86   55.29
  -8  13   1 1514.85   77.19
  -5  -8   1 1455.35   76.49
 -13   7   1  311.87   27.50
   6   7  -1  318.47   39.40
   7 -13  -1  349.96   48.70
   6 -13   1  322.57   30.50
   6   7  -1  332.87   38.90
   6 -13   1  370.96   41.70
   6 -13   1  371.46   54.19
   7 -13  -1  355.76   29.90
   6   7  -1  402.26   42.20
   7 -13  -1  329.67   38.20
   7   6   1  323.97   48.80
   7   6   1  344.57   45.60
  13  -7  -1  301.67   40.90
  13  -7  -1  332.27   32.60
  -6  -7   1  366.66   50.09
  -7  -6  -1  314.97   39.70
  -6  -7   1  349.27   41.30
  -7  13   1  297.37   54.09
  13  -6   1  292.27   39.40
  -7  -6  -1  326.47   48.30
  -6  13  -1  378.06   52.09
   7 -13   1  347.27   29.10
 -13   6   1  343.77   28.70
   6   7   1  350.06   45.70
   7 -13   1  414.36   41.60
   6   7   1  450.85   48.80
 -13   7  -1  386.46   18.30
   7   6  -1  324.97   39.60
   6 -13  -1  357.36   39.40
   7 -13   1  424.66   53.09
 -13   6   1  371.96   27.20
   7   6  -1  449.95   42.70
   6 -13  -1  379.46   48.40
 -13   7  -1  373.26   15.80
  -7  13  -1  438.76   49.00
  13  -7   1  303.87   41.40
  13  -6  -1  352.16   39.70
  -7  -6   1  402.46   53.79
  -6  -7  -1  402.36   48.60
  -7  -6   1  428.46   43.00
  13  -6  -1  354.16   27.90
  13  -6  -1  389.36   32.70
  -6  -7  -1  274.17   45.30
   5 -13  -1  692.13   56.39
   8   5  -1  730.93   49.10
   8 -13   1  811.22   49.00
   5 -13  -1  781.62   49.50
 -13   8  -1  866.61   35.90
   8   5  -1  708.93   52.29
   5   8   1  698.83   54.69
   8   5  -1  852.21   49.10
   8 -13   1  771.92   58.49
 -13   8  -1  786.62   29.10
 -13   5   1  755.42   37.10
   5   8   1  861.11   58.79
   8 -13   1  754.42   41.80
 -13   5   1  669.93   38.30
  13  -5  -1  794.62   38.60
  13  -5  -1  790.72   49.99
  -5  -8  -1  768.62   49.20
  -5  13   1  720.23   45.20
  -5  13   1  840.32   62.39
  13  -5  -1  761.72   46.70
  -5  -8  -1  821.22   39.40
  -5  -8  -1  783.92   59.09
  13  -8   1  839.42   50.69
  -8  13  -1  711.13   43.90
  -8  13  -1  774.12   56.99
  -8  -5   1  827.12   51.69
 -13   9  -1 1405.86   47.00
   4   9   1 1427.06   71.89
   4 -13  -1 1370.76   66.69
   4   9   1 1397.86   69.49
   9   4  -1 1498.25   68.29
   9   4  -1 1393.86   65.29
   9   4  -1 1457.85   64.69
 -13   4   1 1305.37   52.39
   4 -13  -1 1349.36   76.29
   9 -13   1 1396.96   57.89
   9 -13   1 1399.06   70.69
 -13   9  -1 1335.97   61.19
 -13   9  -1 1436.06   53.29
   9 -13   1 1414.46   61.29
 -13   4   1 1272.77   56.09
  -9  -4   1 1438.26   64.39
  -4  -9  -1 1488.85   52.99
  13  -4  -1 1465.55   55.39
  13  -4  -1 1420.76   66.29
  -9  13  -1 1245.68   88.39
  13  -4  -1 1404.76   63.79
  -9  -4   1 1447.36   72.59
  -4  -9  -1 1413.26   65.79
  -9  13  -1 1323.97   59.09
  13  -9   1 1356.36   46.20
  -4  13   1 1423.26   77.89
  13  -9   1 1424.76   65.49
  -4  13   1 1399.66   60.39
  -4  -9  -1 1403.96   75.29
  10 -13   1  359.86   48.10
 -13  10  -1  396.76   22.90
 -13   3   1  480.05   31.50
  10   3  -1  420.86   47.60
   3 -13  -1  335.97   52.69
 -13  10  -1  279.97   37.80
 -13   3   1  473.35   34.80
  10 -13   1  397.06   36.10
  10   3  -1  417.16   39.40
  10   3  -1  342.07   42.00
   3 -13  -1  370.86   44.00
   3  10   1  384.56   63.09
   3  10   1  381.46   46.20
  10 -13   1  406.96   37.30
  13  -3  -1  408.46   30.70
  -3 -10  -1  410.86   28.40
 -10  -3   1  457.95   44.00
  -3 -10  -1  358.86   55.39
  13 -10   1  345.47   39.50
  -3 -10  -1  351.56   43.70
  -3  13   1  336.57   41.00
 -10  -3   1  427.66   49.00
  13  -3  -1  431.26   40.20
 -10  13  -1  297.27   37.10
  13 -10   1  353.16   24.00
  13  -3  -1  407.96   43.20
  -3  13   1  352.86   56.69
 -13   2   1  710.03   44.40
 -13   2   1  785.12   40.70
  11   2  -1  772.92   47.00
  11 -13   1  747.13   44.20
  11   2  -1  799.62   55.99
   2  11   1  703.03   65.49
  11 -13   1  729.63   42.20
  11 -13   1  695.33   51.99
   2 -13  -1  693.73   51.29
   2  11   1  748.93   54.09
  11   2  -1  701.33   51.29
   2 -13  -1  679.83   60.39
 -13  11  -1  701.33   46.90
  13 -11   1  743.63   36.00
  -2 -11  -1  665.93   52.59
  13  -2  -1  733.73   52.19
  -2 -11  -1  699.43   62.19
  -2  13   1  795.92   50.69
  13 -11   1  714.03   48.10
 -11  -2   1  758.12   55.29
 -11  -2   1  755.02   49.50
  13  -2  -1  733.83   51.59
 -11  13  -1  683.93   45.90
  -2  13   1  685.13   64.49
  13  -2  -1  674.63   47.30
  12 -13   1 2006.00   74.49
   1  12   1 1979.20   97.69
  12   1  -1 2127.09   77.69
 -13  12  -1 2139.19   77.19
   1 -13  -1 2028.60   92.49
 -13  12  -1 1837.52   77.89
  12 -13   1 1907.41   80.09
   1  12   1 1870.31   80.19
 -13   1   1 2001.00   80.59
  12   1  -1 2133.79   88.69
  12   1  -1 1969.20   83.99
 -13   1   1 2084.49   77.09
  12 -13   1 1944.61   76.49
   1 -13  -1 1887.41   83.19
  13  -1  -1 2066.49   86.39
  13 -12   1 1947.51   79.59
 -12  13  -1 1770.72   78.79
  13  -1  -1 1990.30   84.09
  13  -1  -1 2081.69   75.19
 -12  -1   1 1930.11   82.19
  -1  13   1 1986.10   97.59
  -1 -12  -1 1940.31   83.39
 -12  -1   1 1997.20   77.19
 -12  13  -1 1955.20   78.19
  -1 -12  -1 2002.00   93.69
  -1  13   1 1845.02   81.19
  13 -12   1 1921.41   70.39
   0 -13  -1  361.66   60.99
  13   0  -1  425.36   40.30
 -13  13  -1  351.86   43.10
 -13   0   1  500.95   49.00
   0  13   1  417.46   45.70
   0  13   1  425.16   70.99
   0 -13  -1  336.47   51.19
  13 -13   1  364.36   48.20
 -13   0   1  491.55   44.00
  13 -13   1  410.16   42.70
  13 -13   1  364.46   41.90
  13   0  -1  370.86   48.20
   0  14  -1  334.47   46.20
  14 -14  -1  350.76   44.70
  14 -14  -1  423.86   45.50
  14   0   1  453.35   47.20
  14   0   1  413.66   66.29
   0 -14   1  396.36   59.69
   0 -14   1  412.86   69.39
   0  14  -1  369.76   38.90
 -14  14   1  453.65   37.70
   0  14  -1  533.75   66.59
  14   0   1  490.85   38.80
 -14   0  -1  461.65   50.09
 -14   0  -1  555.94   43.70
  14 -14  -1  443.76   38.60
  13 -14  -1  339.57   42.60
  13   1   1  341.47   55.89
   1  13  -1  435.66   59.99
 -14   1  -1  364.46   44.20
  13 -14  -1  346.67   36.40
 -14  13   1  420.36   56.99
   1 -14   1  350.46   68.89
  13   1   1  378.86   38.60
   1 -14   1  340.97   55.89
   1  13  -1  255.07   38.10
 -14  13   1  300.87   33.10
  13   1   1  360.86   44.50
 -14   1  -1  437.26   37.50
   1  13  -1  245.88   43.50
  14  -1   1  327.47   44.60
  14  -1   1  284.47   62.09
  14 -13  -1  335.77   38.80
  -1 -13   1  383.36   66.99
 -13  14   1  340.57   33.90
  14 -13  -1  311.27   36.70
  -1  14  -1  422.26   65.49
 -13  -1  -1  374.46   49.70
  -1 -13   1  269.87   53.49
  14  -1   1  386.76   31.10
  14 -13  -1  332.47   44.30
   2  12  -1  692.13   62.09
 -14   2  -1  698.23   45.90
  12 -14  -1  702.93   42.40
  12   2   1  704.53   45.90
 -14  12   1  726.13   41.50
   2 -14   1  698.53   70.19
  12   2   1  764.82   68.09
  12 -14  -1  678.53   43.50
 -14   2  -1  811.02   38.30
   2  12  -1  761.72   53.69
   2 -14   1  624.04   59.59
 -14  12   1  733.73   64.89
  12   2   1  710.83   49.60
   2  12  -1  767.12   46.60
  12 -14  -1  747.03   50.19
  14  -2   1  652.83   49.20
  14 -12  -1  698.63   52.59
  -2  14  -1  672.13   44.50
  14 -12  -1  730.33   44.50
  -2 -12   1  639.54   66.79
  14  -2   1  620.74   65.89
 -12  -2  -1  574.34   55.19
  14  -2   1  742.63   34.40
  -2 -12   1  600.14   56.59
 -12  -2  -1  678.13   47.30
  -2  14  -1  757.32   50.09
  -2  14  -1  743.23   65.89
  14 -12  -1  700.93   44.70
 -14  11   1  322.07   51.39
 -14   3  -1  285.57   35.00
   3  11  -1  277.77   38.00
  11   3   1  346.27   59.79
 -14  11   1  254.67   31.60
   3 -14   1  265.07   42.20
   3  11  -1  280.57   53.09
  11 -14  -1  256.07   33.50
  11   3   1  259.47   38.90
  11 -14  -1  274.47   33.10
   3  11  -1  245.58   42.10
   3 -14   1  257.87   63.29
  11 -14  -1  297.97   48.10
  11 -14  -1  268.37   40.80
  -3 -11   1  224.68   50.59
  -3  14  -1  227.68   39.00
  -3  14  -1  298.67   59.19
  -3  14  -1  247.28   39.00
 -11  -3  -1  281.17   40.20
  14  -3   1  262.87   20.80
  14 -11  -1  250.87   35.50
  -3 -11   1  180.68   38.80
  14  -3   1  223.18   45.50
  14  -3   1  256.57   41.40
  14 -11  -1  264.77   31.30
 -11  14   1  207.48   51.59
  10   4   1  712.23   49.60
  10   4   1  675.63   65.09
 -14  10   1  703.43   63.69
  10 -14  -1  708.53   41.60
  10 -14  -1  741.93   57.19
   4  10  -1  751.72   59.79
  10 -14  -1  727.73   41.20
   4  10  -1  761.22   49.99
   4 -14   1  729.33   57.29
 -14   4  -1  799.62   33.30
 -14   4  -1  795.02   38.70
   4 -14   1  759.12   69.19
  10 -14  -1  700.23   50.49
 -14  10   1  669.43   38.70
  10   4   1  717.13   46.50
   4  10  -1  733.53   50.79
 -10  -4  -1  724.63   59.49
  -4 -10   1  696.63   66.79
  -4 -10   1  691.83   57.39
  14  -4   1  784.22   61.39
  -4  14  -1  773.92   64.99
 -10  14   1  765.52   66.19
 -10  -4  -1  763.62   50.49
  14 -10  -1  740.83   43.60
  14  -4   1  704.23   27.90
  14 -10  -1  810.92   41.20
  -4  14  -1  810.42   47.40
  14  -4   1  705.93   49.10
  14 -10  -1  732.03   53.19
   5 -14   1 1567.94   62.19
   9 -14  -1 1616.54   62.69
   5   9  -1 1552.84   75.69
   9   5   1 1676.13   81.99
   9 -14  -1 1602.84   76.39
 -14   5  -1 1497.95   53.39
   5   9  -1 1653.83   72.29
   5 -14   1 1561.24   73.49
   5 -14   1 1615.54   84.49
   5   9  -1 1688.43   69.19
 -14   9   1 1659.33   71.39
   9   5   1 1466.75   70.89
 -14   9   1 1534.35   60.49
   9 -14  -1 1571.84   70.59
  -9  14   1 1635.14   81.29
  -5  -9   1 1477.25   72.89
  14  -9  -1 1562.84   65.99
  14  -9  -1 1619.94   73.29
  -9  -5  -1 1522.25   78.79
  -5  14  -1 1545.45   82.89
  -5  14  -1 1728.33   68.89
  -5  -9   1 1515.15   82.29
  14  -9  -1 1616.24   59.89
  -9  -5  -1 1567.24   70.69
  14  -5   1 1673.83   76.19
 -14   8   1  392.26   30.50
   6   8  -1  418.76   42.70
   8   6   1  306.27   52.89
   6 -14   1  440.86   34.30
   6 -14   1  432.76   62.09
   6   8  -1  366.86   44.10
   8 -14  -1  447.16   33.10
   6 -14   1  420.46   45.10
   8 -14  -1  424.16   54.69
   8 -14  -1  370.66   42.70
   6   8  -1  462.05   46.30
   8   6   1  513.85   49.10
  14  -8  -1  379.76   46.70
  -6  -8   1  478.55   60.69
  -8  -6  -1  422.86   54.19
  14  -8  -1  390.36   30.30
  -8  14   1  349.67   59.89
  -6  14  -1  378.36   44.80
  -6  -8   1  466.05   48.20
  14  -8  -1  417.06   37.60
  -8  -6  -1  371.06   50.09
  14  -6   1  372.76   49.20
   7   7   1  932.41   67.59
   7   7  -1 1086.19   57.99
   7 -14   1 1068.69   50.99
 -14   7   1 1178.58   46.40
   7 -14  -1 1097.49   59.69
   7 -14  -1 1088.79   66.89
   7   7  -1 1201.28   63.29
   7   7   1 1231.18   65.79
   7 -14   1 1190.68   74.89
   7 -14  -1 1039.10   48.10
   7 -14   1 1126.79   60.79
 -14   7   1 1082.79   48.60
  -7  -7  -1 1191.18   68.59
  -7  -7   1 1166.98   70.39
  -7  -7   1 1158.98   62.39
  -7  -7  -1 1097.59   57.79
  14  -7  -1 1058.09   61.69
  -7  14   1 1090.89   40.10
  14  -7  -1 1175.98   48.30
  14  -7   1 1187.78   63.39
  -7  14   1 1236.68   82.59
  -7  14  -1 1181.88   68.99
 -14   8  -1  360.76   20.30
   8   6  -1  450.45   54.29
   6 -14  -1  418.96   53.79
 -14   8  -1  471.95   28.90
   8 -14   1  392.16   45.30
   8 -14   1  393.96   35.10
   6 -14  -1  363.96   44.10
   6   8   1  414.86   52.89
   6   8   1  417.46   53.59
 -14   8  -1  403.86   18.20
   8   6  -1  394.06   46.30
  -6  -8  -1  490.25   34.60
  -8  -6   1  399.96   52.69
  14  -8   1  397.16   45.40
  -6  14   1  314.87   56.79
  14  -6  -1  428.36   47.80
  -8  -6   1  382.26   45.00
  -8  14  -1  345.67   51.79
  -6  -8  -1  366.36   53.79
  14  -6  -1  394.66   41.20
  -6  14   1  450.75   38.70
  -8  14  -1  448.56   41.20
  14  -6  -1  407.46   30.30
   9   5  -1   44.40   33.40
   9 -14   1   92.79   33.10
 -14   9  -1   54.99   25.70
   5   9   1   65.79   50.49
 -14   9  -1   70.29   15.90
   5   9   1   32.50   35.10
   5 -14  -1   42.30   26.50
   9 -14   1   70.49   22.30
   9   5  -1   65.99   26.90
   5 -14  -1   68.09   31.80
   9 -14   1   85.59   28.00
  -9  14  -1   41.60   24.30
  -5  -9  -1   51.49   31.30
  14  -9   1   52.49   26.90
  -9  -5   1  115.09   31.70
  -9  14  -1   73.79   30.90
  14  -5  -1   60.09   30.40
  -5  -9  -1   68.89   27.00
  -5  -9  -1   78.19   19.50
  14  -5  -1   55.49   17.00
  14  -5  -1   52.29   25.90
  -5  14   1   82.29   35.80
  -5  14   1   23.20   25.10
  -9  -5   1   89.49   31.60
 -14   4   1  591.64   32.90
 -14   4   1  576.34   37.80
 -14  10  -1  513.05   26.70
   4 -14  -1  425.96   49.00
   4  10   1  572.64   58.79
  10 -14   1  552.44   53.89
 -14  10  -1  410.66   41.10
  10   4  -1  554.14   63.39
  10   4  -1  575.54   46.50
   4  10   1  430.76   51.79
  10   4  -1  472.25   47.70
   4 -14  -1  477.95   59.19
  10 -14   1  563.74   40.80
  14 -10   1  488.65   25.10
  -4 -10  -1  601.44   35.60
 -10  14  -1  473.25   42.70
  14  -4  -1  536.85   47.60
 -10  -4   1  578.04   56.89
  -4 -10  -1  468.05   49.50
  -4  14   1  491.05   66.89
  14  -4  -1  502.05   49.20
  14  -4  -1  543.75   35.60
  14 -10   1  496.65   45.70
 -10  -4   1  604.64   50.49
  -4 -10  -1  506.35   60.99
 -10  14  -1  435.16   54.19
  -4  14   1  479.85   46.10
 -14  11  -1 1599.04   60.79
  11 -14   1 1446.36   72.29
   3 -14  -1 1361.06   80.19
  11   3  -1 1544.25   67.49
  11   3  -1 1469.25   70.89
 -14   3   1 1594.94   58.69
   3  11   1 1477.15   83.29
   3  11   1 1508.85   73.99
  11 -14   1 1459.75   64.49
 -14   3   1 1556.34   63.09
   3 -14  -1 1406.46   71.39
  11 -14   1 1458.35   63.39
 -14  11  -1 1358.96   65.59
 -14  11  -1 1473.25   51.59
  14 -11   1 1410.36   52.59
  -3 -11  -1 1387.06   72.19
  -3  14   1 1416.26   82.19
 -11  -3   1 1483.25   75.89
  14  -3  -1 1521.75   72.69
 -11  -3   1 1456.75   68.79
  -3 -11  -1 1549.64   56.59
 -11  14  -1 1378.46   65.39
  14 -11   1 1363.86   67.69
 -11  14  -1 1273.17   73.59
  -3  14   1 1418.86   68.99
  -3 -11  -1 1495.95   81.59
  12 -14   1  442.46   51.59
   2 -14  -1  323.57   48.00
  12 -14   1  402.16   40.20
 -14  12  -1  406.56   27.20
  12 -14   1  364.86   41.60
  12   2  -1  450.25   45.00
   2  12   1  407.56   51.19
  12   2  -1  416.56   56.39
  12   2  -1  376.16   48.50
 -14  12  -1  370.76   43.20
   2 -14  -1  373.86   58.29
   2  12   1  532.25   64.99
  -2 -12  -1  375.96   52.99
  -2  14   1  473.85   49.60
 -12  -2   1  467.05   48.40
  14 -12   1  405.96   40.00
  -2 -12  -1  343.77   63.19
  14  -2  -1  448.66   36.90
  14  -2  -1  415.56   49.80
  -2  14   1  450.45   66.29
  14  -2  -1  390.26   49.30
 -12  -2   1  516.05   55.79
 -12  14  -1  336.57   42.80
  14 -12   1  420.46   32.60
   1  13   1  194.38   43.20
   1  13   1  287.47   49.90
  13   1  -1  251.97   39.70
 -14   1   1  291.77   41.20
  13 -14   1  238.48   37.50
  13 -14   1  253.87   46.20
  13   1  -1  250.67   47.40
  13 -14   1  257.27   38.90
  13   1  -1  282.37   53.69
   1 -14  -1  175.08   37.70
   1 -14  -1  164.88   34.10
 -14  13  -1  161.88   31.60
  -1 -13  -1  189.08   37.70
 -13  -1   1  300.97   51.39
  14 -13   1  188.78   32.30
  -1 -13  -1  173.78   40.70
 -13  -1   1  306.27   44.90
 -13  14  -1  141.99   29.40
  -1  14   1  238.38   45.20
 -13  14  -1  173.58   41.50
  14 -13   1  228.18   36.20
  14  -1  -1  230.18   51.69
  -1  14   1  229.68   47.00
  14  -1  -1  237.38   47.50
  14  -1  -1  194.08   36.10
  14 -14   1  661.73   47.10
  14   0  -1  798.42   65.19
   0  14   1  652.43   60.39
  14 -14   1  694.23   45.20
 -14   0   1  781.02   58.39
 -14   0   1  807.52   52.09
  14   0  -1  717.23   59.29
   0 -14  -1  648.34   59.69
   0  14   1  684.93   80.59
   0 -14  -1  717.23   70.19
  14   0  -1  743.63   47.90
  14 -14   1  696.93   52.59
 -14  14  -1  622.74   52.09
  15   0   1  110.49   49.80
 -15  15   1   70.99   20.80
   0  15  -1  143.09   39.30
  15   0   1   88.19   31.90
   0 -15   1   75.89   41.50
  15 -15  -1   85.69   29.40
   0  15  -1  127.69   33.90
  15 -15  -1  146.49   35.70
  15   0   1   72.09   22.00
   0 -15   1   63.19   36.90
  15 -15  -1   89.59   30.70
   0  15  -1   55.69   34.10
 -15   0  -1  108.99   30.90
   1  14  -1  264.47   49.20
  14   1   1  213.88   45.30
  14 -15  -1  222.78   35.50
  14   1   1  267.37   54.99
   1 -15   1  203.38   44.10
   1  14  -1  301.27   37.80
 -15   1  -1  204.98   45.50
 -15  14   1  265.77   74.79
   1 -15   1  197.68   47.20
 -15  14   1  237.18   33.70
   1  14  -1  335.67   64.09
  14 -15  -1  255.37   44.40
  14 -15  -1  256.47   44.50
 -15   1  -1  264.47   40.10
  14   1   1  200.08   37.90
  -1 -14   1  166.98   47.10
 -14  -1  -1  238.38   42.80
  -1  15  -1  264.77   67.89
  15 -14  -1  225.38   37.30
  15 -14  -1  206.88   40.50
 -14  15   1  216.38   41.20
  15  -1   1  297.67   46.40
 -14  -1  -1  189.48   50.09
  -1 -14   1  202.38   43.00
  -1  15  -1  277.67   36.00
  -1  15  -1  234.68   47.80
  15  -1   1  206.78   52.99
 -14  15   1  223.68   34.60
  15 -14  -1  202.88   46.90
  15  -1   1  235.58   31.40
   2 -15   1  462.25   59.29
  13   2   1  611.04   47.90
  13 -15  -1  496.05   40.40
   2  13  -1  526.35   54.69
 -15  13   1  539.55   38.40
   2 -15   1  546.65   76.29
  13   2   1  396.56   69.59
 -15   2  -1  647.14   39.70
   2  13  -1  616.74   63.69
  13   2   1  498.35   49.20
 -15   2  -1  573.84   47.30
  13 -15  -1  483.35   48.40
   2  13  -1  509.35   43.10
 -15  13   1  631.74   65.29
  15 -13  -1  538.45   49.70
 -13  -2  -1  553.04   48.40
  -2 -13   1  482.25   58.39
 -13  -2  -1  598.04   56.29
  15 -13  -1  528.75   43.00
  15  -2   1  723.93   68.99
  -2  15  -1  434.76   37.60
  15  -2   1  536.65   32.00
  -2  15  -1  425.56   47.80
  -2  15  -1  658.33   72.59
  -2 -13   1  462.05   73.19
  15 -13  -1  494.75   43.20
  15  -2   1  629.44   50.99
   3  12  -1  413.36   41.60
 -15  12   1  487.65   60.49
  12 -15  -1  357.86   41.80
   3  12  -1  442.46   59.39
  12   3   1  439.26   64.89
 -15   3  -1  404.16   39.30
  12   3   1  420.36   46.10
   3 -15   1  336.97   56.99
  12 -15  -1  432.16   44.80
   3  12  -1  425.46   48.80
  12 -15  -1  419.96   38.10
 -15  12   1  433.16   37.10
   3 -15   1  360.06   70.59
 -15   3  -1  466.75   31.00
  15  -3   1  395.76   25.70
 -12  -3  -1  338.77   46.10
  15 -12  -1  341.07   34.90
  15 -12  -1  392.76   39.30
  15 -12  -1  427.76   50.89
  15  -3   1  286.37   61.19
  -3  15  -1  454.65   67.69
  -3 -12   1  336.87   52.79
 -12  15   1  317.77   59.79
  -3  15  -1  314.27   39.40
  -3  15  -1  337.17   43.90
 -12  -3  -1  355.36   54.49
  15  -3   1  433.36   47.70
  -3 -12   1  337.87   62.29
   4  11  -1 1441.06   69.59
 -15  11   1 1582.34   77.49
  11   4   1 1265.67   66.89
  11 -15  -1 1426.66   75.19
 -15  11   1 1482.45   62.39
 -15   4  -1 1425.56   51.19
  11 -15  -1 1458.05   60.69
  11   4   1 1385.46   64.39
  11 -15  -1 1422.96   67.99
   4  11  -1 1367.56   75.39
  11   4   1 1370.06   82.59
   4 -15   1 1454.95   86.49
 -15   4  -1 1407.06   56.69
   4 -15   1 1412.06   74.09
  15  -4   1 1473.65   79.09
  -4 -11   1 1349.36   74.19
  -4  15  -1 1440.56   84.09
 -11  -4  -1 1364.76   77.79
  15 -11  -1 1462.35   70.49
 -11  15   1 1440.06   82.09
  15  -4   1 1397.46   66.19
  15 -11  -1 1476.55   63.49
  -4  15  -1 1439.46   63.89
 -11  -4  -1 1432.36   68.69
  15  -4   1 1442.26   47.70
  -4 -11   1 1277.17   85.29
  10 -15  -1  213.88   49.50
   5  10  -1  228.88   46.60
   5 -15   1  259.77   32.70
   5  10  -1  289.57   53.29
 -15   5  -1  282.87   27.50
  10   5   1  178.48   43.00
 -15  10   1  263.37   57.19
   5 -15   1  206.38   38.50
 -15  10   1  180.08   29.70
  10 -15  -1  224.98   43.90
   5  10  -1  259.47   41.80
  10   5   1  211.28   47.30
   5 -15   1  221.38   45.10
  -5 -10   1  168.58   41.60
  15 -10  -1  197.58   37.10
 -10  15   1  188.48   41.80
  -5  15  -1  237.28   58.89
  15 -10  -1  212.28   29.60
 -10  -5  -1  205.38   45.70
 -10  -5  -1  219.88   38.90
  -5  15  -1  201.88   41.10
  -5 -10   1  155.08   35.00
  15 -10  -1  172.58   35.00
  15  -5   1  210.48   50.09
   6   9  -1 1349.66   65.69
   6 -15   1 1617.24   85.99
   9 -15  -1 1370.76   58.09
   6   9  -1 1366.16   72.49
   6 -15   1 1302.37   55.89
   6 -15   1 1363.66   70.09
   9 -15  -1 1355.46   67.59
   9 -15  -1 1398.66   77.09
 -15   9   1 1318.27   55.69
   9   6   1 1356.36   80.79
   6   9  -1 1387.86   70.79
 -15   9   1 1434.26   70.19
   9   6   1 1384.26   68.99
  -6  15  -1 1368.16   65.99
  -6  -9   1 1363.66   82.29
  -9  -6  -1 1361.76   67.49
  15  -6   1 1420.46   73.79
  -9  -6  -1 1354.36   76.99
  -6  15  -1 1413.36   83.19
  15  -9  -1 1409.96   55.19
  -6  -9   1 1298.17   70.09
  15  -9  -1 1383.26   62.99
  -9  15   1 1367.26   81.79
  15  -9  -1 1371.06   71.99
   8   7   1  808.82   59.09
   7 -15   1  753.82   42.10
   8 -15  -1  791.52   62.19
   7   8  -1  808.62   52.79
   8   7   1  833.22   66.49
 -15   8   1  755.32   41.50
   7   8  -1  768.72   59.89
   8 -15  -1  732.53   52.99
   7   8  -1  776.52   57.09
   8 -15  -1  851.81   44.00
  15  -7   1  805.42   58.69
  15  -8  -1  745.83   56.79
  15  -8  -1  792.62   48.90
  -8  15   1  786.62   72.29
  -7  15  -1  815.02   54.99
  -7  15  -1  829.02   68.89
  -7  -8   1  804.42   59.69
  -7  -8   1  773.72   66.99
  -8  -7  -1  747.23   64.49
  -8  15   1  919.71   34.80
  -8  -7  -1  753.12   54.49
   7 -15  -1  176.48   35.50
   8 -15   1  191.68   39.30
   8   7  -1   68.79   33.70
   8   7  -1  128.79   30.00
   7 -15  -1  130.89   37.10
   7   8   1  152.38   44.10
 -15   7   1   99.99   19.40
   8 -15   1  265.47   48.40
   7   8   1   97.59   36.80
   8   7  -1  187.88   45.60
   8 -15   1  173.28   32.90
  -8  -7   1  156.08   36.20
  -7  -8  -1  172.98   34.10
  -8  -7   1  224.48   37.40
  -7  15   1  137.89   37.00
  -8  15  -1  176.48   36.40
  -8  15  -1   87.19   29.90
  -7  -8  -1  175.28   36.90
  15  -7  -1  152.88   29.30
  15  -7  -1  180.98   36.60
  15  -7  -1  134.49   26.70
  15  -8   1  150.28   36.20
   9   6  -1  534.05   50.09
   9   6  -1  491.95   48.60
   9   6  -1  438.86   53.49
   6   9   1  503.35   59.39
 -15   9  -1  578.44   23.00
   9 -15   1  497.95   40.20
   6   9   1  572.44   59.99
   9 -15   1  542.05   50.29
 -15   9  -1  516.05   25.40
   6 -15  -1  506.85   63.09
   6 -15  -1  441.36   48.20
   9 -15   1  502.85   61.79
  -9  -6   1  531.95   56.59
  -6  15   1  541.15   64.89
  -6  -9  -1  586.84   40.60
  -6  -9  -1  501.15   49.70
  15  -6  -1  555.54   44.50
  15  -9   1  467.95   49.40
  15  -6  -1  535.35   34.80
  15  -6  -1  448.26   50.29
  -9  -6   1  557.84   53.19
  -6  -9  -1  571.84   61.29
  -9  15  -1  535.65   60.09
 -15  10  -1  309.57   42.80
  10   5  -1  284.37   52.19
  10   5  -1  273.67   45.70
   5  10   1  332.27   55.69
 -15  10  -1  333.67   22.20
   5 -15  -1  265.37   46.30
 -15   5   1  259.97   33.50
  10 -15   1  378.06   46.50
   5 -15  -1  329.57   57.89
  10   5  -1  299.07   44.80
   5  10   1  420.46   61.49
  10 -15   1  330.57   57.69
  10 -15   1  344.67   37.70
 -15   5   1  281.07   29.70
 -10  15  -1  305.37   43.10
  -5  15   1  357.86   44.10
  15 -10   1  346.67   45.40
  15  -5  -1  274.57   53.09
 -10  -5   1  321.97   52.09
  -5  15   1  300.47   66.99
 -10  15  -1  285.17   55.59
  15  -5  -1  334.57   44.40
  15 -10   1  286.67   20.20
 -10  -5   1  371.56   60.99
  15  -5  -1  293.77   49.70
  -5 -10  -1  339.57   49.50
  -5 -10  -1  394.06   35.10
  -5 -10  -1  283.17   59.49
 -15  11  -1  160.78   21.50
 -15  11  -1  158.18   32.90
   4 -15  -1  129.69   35.10
   4  11   1  149.29   36.80
  11 -15   1  196.78   32.30
  11   4  -1  147.49   39.50
  11 -15   1  184.28   31.70
  11 -15   1  163.88   36.40
   4 -15  -1  153.28   41.10
  11   4  -1  156.28   32.80
  11   4  -1  167.18   41.50
   4  11   1  121.59   36.00
  -4  15   1  166.78   36.90
  -4 -11  -1  112.59   40.60
  15  -4  -1  166.58   30.00
  15 -11   1  112.69   30.30
 -11  -4   1  147.99   35.90
 -11  -4   1  206.18   48.20
  -4  15   1  148.99   42.10
  15  -4  -1  131.69   32.20
  -4 -11  -1  119.29   35.00
  15  -4  -1  146.49   35.60
  15 -11   1  126.39   20.00
 -11  15  -1  132.49   31.30
   3 -15  -1  165.88   41.60
  12 -15   1  213.48   52.39
   3  12   1  197.08   42.20
  12   3  -1  169.48   34.80
  12   3  -1  167.68   41.80
  12 -15   1  203.38   41.30
  12   3  -1  158.98   41.70
  12 -15   1  180.08   33.00
 -15  12  -1  190.08   23.20
   3  12   1  167.58   40.50
 -15  12  -1  189.28   35.30
   3 -15  -1  169.88   39.30
  -3  15   1  152.28   33.60
  15 -12   1  183.58   27.00
  15 -12   1  165.28   37.20
  15  -3  -1  203.08   46.00
  -3  15   1  107.29   42.20
 -12  15  -1  166.78   41.80
  15  -3  -1  182.38   31.00
  -3 -12  -1  119.69   38.20
  -3 -12  -1   86.89   34.30
  15  -3  -1  209.38   39.50
 -12  -3   1  275.67   48.90
 -12  -3   1  178.18   37.10
   2  13   1  732.13   60.59
  13   2  -1  712.53   58.49
  13 -15   1  705.33   50.99
  13   2  -1  811.32   72.89
   2 -15  -1  560.34   69.49
  13   2  -1  714.93   53.49
  13 -15   1  716.33   59.29
   2  13   1  739.73   75.99
 -15   2   1  817.82   49.20
   2 -15  -1  653.93   57.29
 -15  13  -1  683.83   52.89
 -15   2   1  790.92   54.59
 -15  13  -1  703.23   36.60
  15  -2  -1  694.43   57.59
  -2 -13  -1  646.24   59.29
  15 -13   1  748.23   41.30
  15 -13   1  690.43   48.60
 -13  15  -1  711.93   53.89
  -2  15   1  648.74   75.89
  15  -2  -1  751.82   45.30
  -2  15   1  717.43   56.59
  -2 -13  -1  625.74   72.99
 -13  -2   1  711.93   63.89
 -13  -2   1  778.02   57.89
 -15   1   1  477.25   53.99
  14   1  -1  298.77   42.50
  14 -15   1  359.36   49.20
   1  14   1  405.46   73.09
 -15  14  -1  289.47   49.00
   1 -15  -1  211.68   50.89
 -15   1   1  438.86   46.10
  14 -15   1  371.06   42.50
  14   1  -1  310.37   52.09
  14   1  -1  451.05   62.39
 -15  14  -1  359.86   44.50
  14 -15   1  362.96   43.60
   1 -15  -1  267.47   60.49
   1  14   1  399.26   56.59
  15  -1  -1  409.76   60.49
  15  -1  -1  387.96   42.30
  -1  15   1  431.16   55.79
 -14  -1   1  470.35   52.19
  15  -1  -1  246.58   51.19
 -14  -1   1  431.76   58.79
 -14  15  -1  249.88   42.90
  -1 -14  -1  245.28   53.89
  15 -14   1  374.56   38.20
  -1 -14  -1  277.37   65.89
  15 -14   1  357.96   44.10
  -1  15   1  354.46   71.19
 -14  15  -1  317.47   47.30
  15   0  -1  136.89   42.60
 -15   0   1  137.89   33.90
   0 -15  -1   21.90   33.30
   0  15   1   23.60   37.50
  15   0  -1   11.90   32.20
   0 -15  -1   53.19   40.30
  15 -15   1   63.09   31.60
 -15  15  -1   40.80   31.40
  15   0  -1   68.79   24.50
   0  15   1   64.89   43.80
  15 -15   1   87.99   26.10
 -16   0  -1  129.89   32.00
 -16  16   1  126.99   31.30
  16   0   1   65.99   23.00
 -16   0  -1  169.08   40.80
  16 -16  -1   51.79   28.50
  16 -16  -1   63.09   33.40
   0  16  -1   52.39   32.10
   0 -16   1  112.49   44.60
  16   0   1   61.99   47.30
   0 -16   1   50.69   40.30
  16 -16  -1   69.19   26.90
   0  16  -1   98.49   39.20
   1 -16   1  192.38   42.80
  15 -16  -1  197.78   47.60
 -16   1  -1  278.67   49.20
  15 -16  -1  227.18   38.40
 -16   1  -1  330.37   41.80
  15   1   1  148.69   48.80
 -16  15   1  242.78   34.30
   1  15  -1  247.68   61.59
  15   1   1  169.98   46.10
  15 -16  -1  216.38   44.20
   1 -16   1  256.17   68.69
   1  15  -1  157.18   38.20
   1  15  -1  280.07   36.60
  15   1   1  194.28   39.10
  16 -15  -1  251.47   38.60
 -15  -1  -1  282.47   52.09
 -15  16   1  200.78   32.10
 -15  -1  -1  307.57   44.70
  -1 -15   1  261.77   66.39
  16  -1   1  237.58   31.80
  -1 -15   1  192.58   41.30
  16 -15  -1  203.68   44.90
  -1  16  -1  295.17   64.19
 -15  16   1  318.97   61.29
  16  -1   1  244.78   47.50
  16 -15  -1  205.28   41.90
  16  -1   1  197.38   51.39
  14   2   1  221.48   55.79
   2  14  -1  278.87   64.79
   2 -16   1  234.48   51.19
  14 -16  -1  254.77   46.50
   2 -16   1  222.28   43.50
   2  14  -1  324.67   40.50
   2  14  -1  175.68   39.70
 -16  14   1  282.17   35.20
 -16   2  -1  255.77   45.20
  14 -16  -1  270.27   48.10
  14   2   1  234.48   46.80
 -16   2  -1  339.67   38.70
  14 -16  -1  250.37   37.10
  16 -14  -1  234.78   39.10
  -2  16  -1  156.78   35.70
  -2  16  -1  304.27   67.29
  16 -14  -1  260.47   51.39
 -14  -2  -1  245.48   46.40
  16 -14  -1  226.98   38.60
  -2 -14   1  162.98   42.50
  16  -2   1  341.67   48.20
  16  -2   1  333.57   67.09
  -2 -14   1  179.28   41.00
 -14  16   1  244.88   45.10
  16  -2   1  241.18   28.50
 -14  -2  -1  283.37   55.39
  13   3   1 1129.99   82.89
  13   3   1 1004.20   60.19
   3  13  -1 1134.29   65.29
   3 -16   1  983.80   69.69
   3  13  -1 1022.40   73.39
  13 -16  -1 1074.99   62.09
   3  13  -1 1108.99   56.99
  13 -16  -1 1113.39   55.09
 -16   3  -1  965.30   55.09
 -16   3  -1 1074.39   48.30
   3 -16   1  989.00   81.69
  13   3   1 1156.38   60.09
 -16  13   1 1100.29   52.99
 -13  16   1 1027.70   78.19
  -3 -13   1  912.81   69.19
  -3  16  -1 1063.69   61.49
  -3 -13   1  998.00   81.39
  -3  16  -1 1055.99   82.89
  16  -3   1 1023.60   76.89
  16  -3   1 1094.99   42.80
 -13  -3  -1  975.10   70.99
  16 -13  -1 1064.99   55.89
  16 -13  -1  992.30   52.49
 -13  -3  -1 1042.40   72.79
  16  -3   1 1060.19   60.89
  12 -16  -1  368.86   54.99
 -16  12   1  468.75   60.69
 -16  12   1  292.47   37.20
 -16   4  -1  322.27   36.60
   4 -16   1  274.77   55.59
   4 -16   1  339.77   69.69
  12 -16  -1  324.47   37.50
   4  12  -1  326.37   50.89
  12 -16  -1  288.37   46.40
   4  12  -1  372.76   57.39
   4  12  -1  312.77   51.29
  12   4   1  266.57   53.89
  -4 -12   1  338.57   62.59
  16 -12  -1  327.67   37.10
  -4  16  -1  260.17   44.50
  -4  16  -1  288.87   40.10
  16  -4   1  336.87   22.30
  16 -12  -1  400.26   52.89
  -4  16  -1  420.06   67.99
  16  -4   1  295.67   62.19
  -4 -12   1  268.17   56.39
 -12  -4  -1  336.87   59.89
  16 -12  -1  322.97   39.90
 -12  -4  -1  315.77   50.89
 -12  16   1  290.27   64.49
  11 -16  -1  727.13   55.89
   5  11  -1  807.72   53.99
  11 -16  -1  813.12   63.99
 -16  11   1  744.53   43.80
  11   5   1  669.83   72.59
  11 -16  -1  770.72   45.70
 -16   5  -1  758.92   40.40
   5  11  -1  753.72   64.19
 -16  11   1  819.42   61.89
   5 -16   1  706.03   60.09
   5  11  -1  791.62   59.89
  11   5   1  620.24   52.39
   5 -16   1  818.72   76.89
 -16   5  -1  789.32   34.30
  -5 -11   1  720.13   62.59
  16 -11  -1  786.32   42.40
  -5  16  -1  866.21   51.19
 -11  16   1  703.83   72.49
  16 -11  -1  776.62   60.49
 -11  -5  -1  571.34   79.79
  -5 -11   1  747.43   74.99
  -5  16  -1  775.82   71.79
 -11  -5  -1  749.03   58.09
  16 -11  -1  777.02   48.60
  16  -5   1  705.33   63.19
 -16  10   1 1776.52   69.79
  10 -16  -1 1852.61   71.89
 -16  10   1 1913.31   83.39
   6  10  -1 1809.42   85.49
  10 -16  -1 1807.02   80.79
   6 -16   1 1821.52   97.69
   6 -16   1 1783.02   69.89
  10 -16  -1 1829.22   87.59
  10   6   1 1905.01   94.09
  10   6   1 1783.32   82.29
   6 -16   1 1894.31   86.29
   6  10  -1 1947.81   85.09
   6  10  -1 1901.91   79.19
  16  -6   1 1870.51   89.49
 -10  16   1 1829.12   94.89
  -6  16  -1 1862.91   96.39
 -10  -6  -1 1812.12   90.49
 -10  16   1 2025.50   66.39
 -10  -6  -1 1801.32   81.49
  -6 -10   1 1804.72   96.09
  16 -10  -1 1860.91   76.69
  16 -10  -1 1901.01   84.49
  -6  16  -1 1815.12   77.79
  16 -10  -1 1856.71   73.49
  -6 -10   1 1807.52   85.09
   7   9  -1  126.29   30.80
   7 -16   1  128.79   36.90
   7 -16   1  142.99   41.40
   9 -16  -1  172.18   38.10
   9   7   1  124.69   43.50
   7   9  -1   81.49   36.50
 -16   9   1  123.49   22.10
   9 -16  -1  120.49   32.50
   9   7   1  186.28   46.50
 -16   9   1  178.58   33.50
  16  -9  -1  108.49   35.40
  16  -9  -1  153.78   39.10
  -7  16  -1  191.48   42.90
  -7  16  -1   98.19   31.40
  -7  -9   1  110.39   36.10
  -9  16   1  132.09   41.60
  16  -7   1  172.58   42.60
  -7  -9   1  114.39   38.40
  -9  -7  -1  113.99   37.10
  -9  -7  -1  148.99   34.70
   8 -16   1  587.74   56.79
   8 -16   1  586.74   41.90
   8   8  -1  570.94   55.49
   8   8  -1  451.95   56.69
   8   8   1  618.24   58.29
   8   8  -1  545.85   50.19
   8 -16  -1  576.04   60.69
   8 -16  -1  490.65   50.79
   8   8   1  542.95   62.69
   8 -16   1  611.34   69.69
  16  -8  -1  591.84   55.69
  -8  16  -1  579.44   67.99
  -8  -8   1  595.44   56.39
  -8  -8   1  549.25   69.79
  -8  16   1  512.35   66.79
  -8  -8  -1  599.14   63.49
  -8  -8  -1  566.14   52.19
  16  -8  -1  520.85   57.79
  16  -8   1  516.65   56.09
  -8  16  -1  424.36   51.39
   9 -16   1  192.68   31.60
   9 -16   1  245.28   61.39
   9   7  -1  178.38   45.00
   9   7  -1  162.68   41.00
   9   7  -1  176.28   45.30
   9 -16   1  185.78   38.30
   7   9   1  297.07   55.69
   7 -16  -1  161.18   34.80
   7 -16  -1  160.38   37.60
   7   9   1  167.88   41.60
  16  -7  -1  212.38   29.90
  -7  -9  -1  160.08   35.10
  -9  -7   1  224.08   43.60
  -9  -7   1  222.48   41.10
  16  -7  -1  172.38   36.10
  16  -7  -1  192.88   39.80
  -7  16   1  162.98   40.50
  -7  16   1  175.58   43.10
  -7  -9  -1  161.88   39.00
  -9  16  -1  183.18   39.00
  16  -9   1  196.58   39.10
   6 -16  -1   38.90   37.50
   6  10   1  127.19   38.20
  10 -16   1   88.69   31.50
  10   6  -1   24.80   35.70
 -16  10  -1   82.39   19.40
  10 -16   1   88.99   26.80
  10   6  -1   66.09   31.10
   6 -16  -1   34.00   32.60
  10 -16   1  122.49   35.80
 -16  10  -1   48.10   26.70
   6  10   1   63.29   39.70
  10   6  -1   73.89   29.70
 -10  -6   1   79.39   34.40
  -6 -10  -1   58.89   38.50
 -10  16  -1   95.59   35.70
  16  -6  -1   39.60   32.80
  16  -6  -1   94.19   19.60
  16  -6  -1   77.99   28.90
  16 -10   1  114.09   35.20
  -6 -10  -1   63.09   33.30
 -10  -6   1   96.19   37.50
  -6  16   1   66.39   32.80
 -10  16  -1   56.29   31.40
  -6  16   1   26.70   36.60
   5 -16  -1  127.39   35.90
  11 -16   1  167.58   32.10
  11   5  -1  142.09   29.30
  11   5  -1  129.79   41.50
   5 -16  -1  117.49   39.40
  11 -16   1  188.58   35.70
  11   5  -1  129.79   34.20
 -16  11  -1  101.69   30.30
 -16  11  -1  156.98   21.00
   5  11   1  227.38   56.79
  11 -16   1  162.38   38.40
 -11  -5   1  219.28   59.19
 -11  -5   1  178.28   36.90
  16 -11   1  100.89   19.20
  -5  16   1   88.79   34.80
  -5 -11  -1  124.39   37.10
  16  -5  -1  178.38   31.30
  -5 -11  -1  143.89   41.00
 -11  16  -1   98.79   32.40
  -5  16   1  170.48   44.20
  16 -11   1  162.98   36.20
  16  -5  -1  136.49   34.30
  16  -5  -1  130.59   37.00
 -11  16  -1   96.29   47.50
  12 -16   1  340.57   40.40
   4 -16  -1  235.18   41.60
   4  12   1  347.67   63.49
 -16  12  -1  308.87   26.40
 -16  12  -1  260.07   44.80
  12 -16   1  299.97   45.60
  12 -16   1  272.47   54.99
   4  12   1  309.17   56.09
  12   4  -1  309.57   50.89
   4 -16  -1  225.98   61.39
  12   4  -1  391.66   63.49
  12   4  -1  274.17   45.10
  -4  16   1  270.37   47.90
 -12  -4   1  241.28   63.99
  16  -4  -1  366.66   52.89
  16  -4  -1  290.57   34.50
 -12  -4   1  308.87   54.39
  16 -12   1  292.47   25.10
  -4 -12  -1  232.38   41.30
  -4 -12  -1  248.48   61.89
 -12  16  -1  299.37   48.60
  16 -12   1  310.17   46.20
  -4  16   1  221.98   47.10
  16  -4  -1  223.98   51.19
 -16  13  -1  315.97   28.50
  13 -16   1  321.17   46.20
  13   3  -1  239.58   47.10
   3 -16  -1  231.88   61.09
  13   3  -1  450.45   62.99
  13   3  -1  274.47   53.09
 -16   3   1  431.86   48.90
 -16  13  -1  306.37   46.10
   3  13   1  338.37   56.49
   3  13   1  348.87   68.59
  13 -16   1  303.67   64.99
   3 -16  -1  233.68   52.59
  13 -16   1  317.37   40.60
  16  -3  -1  329.87   36.60
  -3  16   1  323.87   52.09
  16 -13   1  340.17   31.30
  -3 -13  -1  195.38   44.10
 -13  -3   1  352.56   55.19
 -13  16  -1  337.57   49.70
  -3  16   1  312.37   70.49
  16  -3  -1  253.97   52.89
  16  -3  -1  434.06   53.79
 -13  -3   1  344.37   63.89
  16 -13   1  258.07   46.10
  -3 -13  -1  226.08   55.59
  14   2  -1   70.19   26.40
  14 -16   1   70.79   29.50
 -16  14  -1   72.89   18.00
   2  14   1  109.99   38.00
   2 -16  -1   47.10   33.10
  14 -16   1   83.09   31.90
   2  14   1   95.79   42.10
  14   2  -1  120.79   43.30
   2 -16  -1   29.60   37.60
  14   2  -1   57.09   34.30
  14 -16   1   96.49   31.80
 -16  14  -1  110.39   33.00
  -2  16   1   32.90   33.00
  -2 -14  -1   53.29   39.60
  16  -2  -1   72.29   23.00
 -14  -2   1  115.19   35.10
  16  -2  -1   51.29   36.00
  16 -14   1   64.99   29.60
 -14  -2   1  117.19   36.90
  -2  16   1   76.09   46.20
  16  -2  -1  103.49   38.70
  -2 -14  -1   61.69   41.80
 -14  16  -1   85.69   33.60
 -16   1   1   50.79   28.80
   1  15   1    5.20   41.70
 -16  15  -1   12.90   23.60
  15   1  -1    9.00   24.70
  15 -16   1   10.30   28.70
   1 -16  -1    2.10   31.30
 -16   1   1   59.09   31.00
   1 -16  -1   -9.90   34.60
 -16  15  -1   36.20   31.30
 -16  15  -1   31.10   16.50
  15 -16   1   38.80   28.90
  15   1  -1   -1.40   32.30
  15 -16   1   46.50   25.80
  15   1  -1   98.79   43.40
   1  15   1   15.60   36.80
  -1 -15  -1   17.70   34.00
  16 -15   1    3.60   30.90
  16  -1  -1    6.20   33.90
 -15  -1   1   72.39   33.70
  -1  16   1   32.50   37.80
  -1  16   1  -12.70   41.60
  -1 -15  -1    9.50   39.40
  16 -15   1   22.20   24.90
 -15  -1   1   50.99   33.60
  16  -1  -1   35.30   22.50
  16  -1  -1   92.39   41.40
 -15  16  -1   28.40   30.70
   0  16   1   21.40   36.10
   0 -16  -1  -29.70   31.80
  16   0  -1  -30.60   29.80
 -16  16  -1    0.40   29.30
  16 -16   1   28.40   28.40
 -16   0   1   18.30   31.90
   0  16   1   17.20   41.20
  16   0  -1    1.00   22.80
 -16   0   1   68.69   33.90
   0 -16  -1   16.00   35.50
  16   0  -1   73.79   43.20
  17   0   1   87.19   22.40
   0  17  -1   28.00   34.90
  17   0   1   92.79   49.30
   0  17  -1   43.00   33.40
  17 -17  -1   41.20   27.00
 -17  17   1   61.69   34.10
  17 -17  -1  105.09   36.60
   0 -17   1  101.39   38.60
   0 -17   1  134.49   41.60
  17 -17  -1   74.19   27.40
   1  16  -1   24.50   34.90
  16   1   1  -11.70   38.60
  16 -17  -1   64.29   29.70
   1  16  -1   72.99   36.00
 -17   1  -1   75.69   28.10
 -17  16   1   48.10   19.50
  16 -17  -1   90.69   27.70
   1 -17   1   74.19   37.60
   1 -17   1   10.50   33.60
  16   1   1   25.20   47.50
  -1 -16   1    3.90   34.30
 -16  17   1   60.79   18.40
  17 -16  -1   64.69   35.40
 -16  -1  -1  138.99   30.50
  -1  17  -1   39.40   35.00
  17 -16  -1   62.39   27.10
 -16  -1  -1  105.49   42.10
  -1  17  -1   67.79   37.40
  17  -1   1   52.79   20.20
  17 -16  -1   75.39   27.40
 -16  17   1   40.00   31.90
  17  -1   1   43.70   44.50
  -1 -16   1   17.30   38.50
  15 -17  -1  312.37   46.20
  15 -17  -1  330.37   39.50
 -17  15   1  276.67   36.90
  15   2   1  281.07   42.30
  15   2   1  274.47   68.09
 -17   2  -1  403.76   38.80
 -17   2  -1  307.87   47.10
   2 -17   1  324.67   69.69
   2  15  -1  275.67   51.19
   2  15  -1  313.57   60.89
   2 -17   1  278.47   55.79
  17  -2   1  327.17   68.99
  17 -15  -1  264.87   40.90
  -2  17  -1  262.97   48.00
  -2 -15   1  306.07   67.99
 -15  -2  -1  336.27   56.79
  17 -15  -1  258.87   39.00
 -15  17   1  280.77   29.90
  17 -15  -1  265.77   47.30
  17  -2   1  300.47   29.60
 -15  17   1  286.97   59.79
  -2 -15   1  243.88   44.50
  -2  17  -1  371.96   66.69
  14 -17  -1  275.37   37.50
  14   3   1  262.77   55.79
   3 -17   1  186.98   41.50
 -17  14   1  318.37   37.50
   3  14  -1  264.37   52.09
   3 -17   1  235.48   54.69
  14 -17  -1  244.68   47.30
   3  14  -1  311.87   63.39
 -17   3  -1  267.87   43.00
  14   3   1  313.67   45.20
  -3 -14   1  241.18   46.90
  -3 -14   1  248.98   47.50
 -14  -3  -1  305.77   49.30
  17  -3   1  294.97   27.00
  -3  17  -1  217.78   44.80
 -14  -3  -1  293.27   59.09
  17 -14  -1  246.28   52.19
  17  -3   1  260.17   53.29
  17 -14  -1  238.38   38.30
 -14  17   1  269.77   62.09
  -3  17  -1  241.08   48.30
  17 -14  -1  290.17   40.40
 -17  13   1  525.95   40.80
  13 -17  -1  490.85   42.80
   4  13  -1  517.25   54.49
  13 -17  -1  495.95   51.69
  13 -17  -1  523.15   57.19
   4  13  -1  570.24   49.60
 -17   4  -1  520.45   42.60
   4  13  -1  448.36   62.59
   4 -17   1  499.85   59.99
 -17   4  -1  559.44   35.60
   4 -17   1  522.65   70.79
  13   4   1  550.64   72.99
  17  -4   1  503.05   27.40
 -13  -4  -1  355.36   76.99
  17 -13  -1  475.55   41.60
  17 -13  -1  446.16   44.80
  -4 -13   1  386.66   57.79
  -4  17  -1  489.65   50.39
  -4 -13   1  400.86   70.69
  -4  17  -1  547.15   74.49
 -13  -4  -1  475.85   54.09
  17  -4   1  522.85   66.89
  17 -13  -1  535.85   57.99
 -13  17   1  550.74   68.59
  12   5   1 1608.44   93.59
 -17  12   1 1804.12   87.09
  12 -17  -1 1524.25   66.39
  12 -17  -1 1541.05   82.89
  12 -17  -1 1590.54   74.89
   5  12  -1 1476.55   82.49
   5  12  -1 1695.53   72.19
 -17   5  -1 1436.06   62.69
 -17   5  -1 1494.05   60.19
   5  12  -1 1516.15   77.49
   5 -17   1 1557.54   96.29
   5 -17   1 1524.95   80.89
  -5 -12   1 1429.36   87.39
  17 -12  -1 1634.94   70.89
 -12  -5  -1 1521.05   74.89
 -12  17   1 1487.25   91.59
  -5 -12   1 1425.36   80.89
  -5  17  -1 1588.34   69.39
  17 -12  -1 1634.84   78.69
 -12  -5  -1 1532.75   86.29
  17 -12  -1 1596.84   64.09
 -12  17   1 1797.52   62.19
  17  -5   1 1778.52   88.09
  -5  17  -1 1531.55   92.09
  11   6   1   90.19   44.70
 -17  11   1  198.48   31.60
   6 -17   1  235.88   49.20
  11 -17  -1  223.58   35.30
 -17  11   1  237.08   52.49
  11 -17  -1  166.48   36.20
   6  11  -1  142.89   35.00
   6  11  -1  221.88   51.59
   6 -17   1  179.18   44.00
  11   6   1  122.49   30.50
   6 -17   1  210.38   36.80
   6  11  -1  249.68   45.00
  11 -17  -1  259.47   51.39
  17  -6   1  202.08   45.60
  17 -11  -1  191.78   32.20
  -6 -11   1  162.28   41.60
 -11  -6  -1  176.68   40.60
  -6 -11   1  204.88   40.50
 -11  -6  -1  211.28   39.00
  17 -11  -1  297.17   43.60
  -6  17  -1  148.79   32.70
  -6  17  -1  258.87   69.49
 -11  17   1  162.88   43.60
  17 -11  -1  210.38   54.79
  10 -17  -1  862.11   48.10
   7 -17   1  899.31   79.79
   7  10  -1  758.72   60.69
   7 -17   1  804.12   47.20
  10   7   1  686.13   68.89
  10 -17  -1  799.72   60.79
  10   7   1  808.82   60.99
   7  10  -1  904.71   57.29
 -17  10   1  824.22   60.59
   7 -17   1  803.32   65.29
   7  10  -1  826.92   64.49
  10 -17  -1  827.52   67.79
  17 -10  -1  853.71   54.19
 -10  -7  -1  781.02   59.89
  -7  17  -1  800.32   59.19
  -7 -10   1  746.93   77.79
 -10  17   1  748.73   71.39
  17  -7   1  890.51   67.69
  -7 -10   1  767.82   63.89
 -10  17   1  848.62   39.40
 -10  -7  -1  757.22   70.99
  -7  17  -1  845.82   74.19
  17 -10  -1  817.02   65.59
   9 -17  -1  624.64   56.59
   9   8   1  556.64   66.79
   8 -17   1  669.63   63.89
   8   9  -1  704.53   60.09
   9   8   1  691.83   58.79
 -17   9   1  718.53   57.39
   8 -17   1  788.42   77.69
 -17   9   1  509.45   41.80
   8   9  -1  678.73   61.19
   9 -17  -1  672.53   65.59
   8   9  -1  714.73   55.19
   8 -17   1  725.13   45.60
  -9  17   1  612.74   69.09
  -8  17  -1  632.24   58.19
  -8  -9   1  629.74   59.69
  -8  -9   1  671.33   73.59
  -9  -8  -1  645.34   68.29
  -9  -8  -1  660.53   57.09
  17  -8   1  644.04   59.19
  -8  17  -1  649.64   74.39
  17  -9  -1  658.23   62.79
  17  -9  -1  737.13   51.89
   9 -17   1  125.69   42.60
   9 -17   1   75.79   27.00
   8   9   1   25.10   39.30
   8 -17  -1  100.09   36.90
   9 -17   1  120.19   39.40
   9   8  -1   45.80   30.70
   9   8  -1   37.90   27.40
   8 -17  -1   38.50   33.70
   8   9   1  192.48   51.79
  -8  -9  -1   88.99   35.60
  -8  -9  -1   46.80   36.90
  -9  17  -1   90.59   38.80
  -9  17  -1   19.80   44.40
  17  -9   1   51.39   34.50
  -9  -8   1   96.69   40.60
  -8  17   1   85.99   43.90
  -9  -8   1   29.20   37.50
  -8  -9  -1   99.39   27.30
  17  -8  -1   20.90   35.20
  17  -8  -1   73.39   29.00
  10 -17   1  175.68   38.00
  10   7  -1   88.19   43.30
   7 -17  -1  115.89   41.30
 -17  10  -1  119.79   15.00
   7  10   1  230.28   57.99
  10   7  -1  100.09   32.20
   7  10   1  138.39   45.30
  10 -17   1  168.88   39.90
   7 -17  -1  126.29   36.00
  10   7  -1  142.09   34.90
 -17  10  -1  137.49   16.90
 -17  10  -1  138.99   33.40
  10 -17   1  124.99   32.30
  17  -7  -1  100.79   39.80
  -7 -10  -1   86.09   34.80
  -7  17   1  152.58   45.20
  -7  17   1   59.99   31.90
 -10  17  -1  170.88   39.80
  17  -7  -1  144.49   31.90
  17 -10   1  114.89   38.20
 -10  17  -1   50.99   34.20
  17  -7  -1  155.58   29.50
  -7 -10  -1  117.29   39.20
 -10  -7   1  182.88   43.30
 -10  -7   1  173.08   41.40
 -17  11  -1    7.60   12.50
  11 -17   1    4.60   34.20
   6  11   1   57.29   38.80
  11   6  -1  -50.29   37.50
  11   6  -1  -12.60   26.40
  11 -17   1   21.90   24.90
   6  11   1   10.90   43.60
   6 -17  -1  -28.10   29.90
   6 -17  -1   -5.30   35.70
  11 -17   1    3.20   30.10
  11   6  -1   29.30   32.40
 -17  11  -1   -3.50   27.10
 -17   6   1   40.00   19.70
  17  -6  -1   12.00   17.50
  17 -11   1   16.90   31.80
  -6  17   1   14.10   32.00
  -6 -11  -1   -1.80   38.20
  17  -6  -1   21.30   29.50
  -6 -11  -1  -13.10   33.60
 -11  17  -1   28.10   34.10
 -11  -6   1   14.00   35.40
  17  -6  -1  -16.70   33.40
 -11  -6   1    5.30   36.20
  -6  17   1    7.70   39.90
 -11  17  -1   12.50   32.60
  12   5  -1   64.09   35.00
   5  12   1  132.79   42.00
   5  12   1   80.79   41.90
  12   5  -1   59.49   27.50
 -17  12  -1   86.99   22.20
  12 -17   1   85.89   32.50
   5 -17  -1   28.00   32.90
   5 -17  -1   72.59   39.00
  12 -17   1   87.69   28.30
 -17  12  -1   50.79   31.00
  12 -17   1  116.19   36.30
  12   5  -1   85.19   42.70
 -12  17  -1   95.69   34.30
 -12  -5   1   96.79   36.60
  17 -12   1   71.19   15.60
  17  -5  -1   80.79   21.60
  17 -12   1   52.19   30.60
 -12  -5   1  106.59   38.70
  17  -5  -1   99.19   34.90
  -5 -12  -1   57.29   38.90
  -5 -12  -1   26.00   35.90
  -5  17   1   79.69   37.30
  17  -5  -1   71.59   39.50
 -12  17  -1   -4.20   33.80
  -5  17   1   58.59   43.00
   4  13   1   26.30   37.30
 -17  13  -1   65.49   32.20
  13 -17   1   90.89   33.40
  13 -17   1   80.79   30.10
  13   4  -1   45.90   27.30
  13 -17   1  137.69   36.20
 -17  13  -1   95.59   25.60
  13   4  -1  105.29   44.10
  13   4  -1   60.49   35.70
   4  13   1   91.69   40.30
   4 -17  -1   59.89   38.00
   4 -17  -1   90.79   42.50
 -13  17  -1   57.49   33.60
  -4 -13  -1   56.89   36.10
  17 -13   1   64.69   17.30
  -4  17   1  102.99   42.50
  17  -4  -1   91.09   22.30
 -13  -4   1  120.59   38.30
 -13  -4   1  106.29   39.30
  17  -4  -1  109.69   37.50
  17  -4  -1   29.00   36.30
  17 -13   1   68.69   32.70
  -4 -13  -1  109.39   41.70
  -4  17   1   59.29   34.40
   3 -17  -1   31.80   31.00
  14 -17   1   36.00   28.10
   3  14   1   27.60   35.30
 -17   3   1   48.90   26.60
 -17  14  -1   34.40   31.70
   3  14   1   61.19   41.00
 -17  14  -1   26.30   15.50
  14 -17   1   74.59   31.40
   3 -17  -1   26.80   34.70
  14   3  -1   -1.80   26.60
  14   3  -1   12.20   31.80
  14 -17   1   40.10   29.30
  -3  17   1   30.30   31.40
  17 -14   1   41.40   31.70
  17  -3  -1   53.09   36.20
 -14  -3   1   36.10   35.90
  17  -3  -1  -22.30   33.40
  -3 -14  -1   23.40   38.60
 -14  17  -1   26.60   31.80
 -14  -3   1   38.60   36.60
  17 -14   1   55.99   19.90
  17  -3  -1   25.70   21.90
  -3  17   1   87.39   46.00
  -3 -14  -1  -35.80   34.50
   2  15   1   23.30   37.70
 -17  15  -1   12.50   15.40
   2  15   1   51.19   39.10
 -17   2   1   67.69   30.10
   2 -17  -1   -9.10   32.80
 -17   2   1   36.60   28.40
  15   2  -1  -31.40   30.80
  15 -17   1   68.49   28.40
   2 -17  -1   -6.20   35.40
  15   2  -1    4.40   24.30
 -17  15  -1    9.20   30.30
  15 -17   1   43.20   27.50
  15 -17   1    9.60   29.10
  17  -2  -1  -29.30   33.40
 -15  17  -1    2.80   30.90
  17  -2  -1   54.29   37.50
  -2  17   1   11.00   35.40
  -2  17   1    0.50   43.90
  -2 -15  -1   -7.60   34.00
 -15  -2   1   55.79   35.70
 -15  -2   1   14.30   34.00
  17  -2  -1   11.70   20.10
  -2 -15  -1    6.40   39.50
  17 -15   1    9.20   28.20
  17 -15   1  -25.30   21.70
   1 -17  -1   12.10   35.60
  16   1  -1   -4.40   32.10
   1  16   1   29.50   35.00
   1 -17  -1    3.10   33.40
  16   1  -1    3.90   23.40
  16 -17   1   21.00   30.50
 -17   1   1   36.50   30.70
   1  16   1   20.50   35.20
 -17  16  -1   39.80   19.90
  16 -17   1   33.00   25.40
 -17  16  -1   29.90   31.50
 -17   1   1   89.79   32.90
  17  -1  -1   -2.10   33.80
 -16  17  -1   16.30   30.70
  -1  17   1   -7.30   39.60
  17  -1  -1  121.09   42.40
  -1 -16  -1    8.10   32.40
  -1  17   1   62.29   39.40
 -16  -1   1   38.70   32.60
  17 -16   1   44.10   23.60
  17  -1  -1   27.40   21.90
  -1 -16  -1   -5.30   35.90
  17 -16   1   28.90   30.10
 -16  -1   1   43.60   34.60
  17   0  -1   95.59   43.30
  17 -17   1   28.70   24.50
 -17  17  -1   15.00   30.20
 -17   0   1   17.50   35.70
   0  17   1   34.70   37.40
  17   0  -1  -27.50   30.80
   0 -17  -1    6.90   33.90
   0  17   1   41.70   36.30
   0 -17  -1   40.60   34.40
 -17   0   1   58.09   31.60
  17 -17   1   28.80   29.00
   0  18  -1   14.10   33.30
  18   0   1   69.89   44.10
 -18  18   1   43.60   32.00
 -18  18   1   42.10   17.00
  18 -18  -1   35.10   28.10
  18 -18  -1   33.70   26.70
   1  17  -1   17.20   33.70
  17   1   1   70.19   49.00
  17 -18  -1   38.30   29.90
   1 -18   1   37.90   35.20
 -18  17   1   48.10   18.80
  17   1   1   19.50   21.60
  17 -18  -1   45.10   25.80
   1  17  -1   18.60   34.00
 -17  18   1   20.70   16.70
 -17  18   1   20.40   29.90
  18  -1   1   36.60   18.60
  18 -17  -1   53.59   35.30
  -1  18  -1    5.00   33.80
  18 -17  -1   23.20   26.60
  18 -17  -1   31.50   26.50
  -1  18  -1   41.00   32.90
  -1 -17   1   -6.40   34.00
  18  -1   1  101.79   49.30
  16 -18  -1  138.69   32.30
 -18  16   1   84.49   22.80
  16 -18  -1  110.79   29.20
   2 -18   1  100.09   38.40
  16   2   1  155.48   52.29
   2  16  -1   88.49   36.60
   2  16  -1   94.99   36.10
  16   2   1  121.29   26.90
   2 -18   1  115.49   40.80
  -2 -16   1  125.99   40.80
  -2  18  -1   90.69   33.80
 -16  18   1  133.29   35.20
  18 -16  -1  127.29   37.80
  18  -2   1  124.39   26.30
  18 -16  -1  120.39   29.20
  18  -2   1  168.68   48.20
  18 -16  -1  113.89   28.20
  -2  18  -1  153.88   41.50
  -2 -16   1  134.19   41.50
  15 -18  -1  261.47   37.90
 -18  15   1  216.98   36.30
   3 -18   1  268.57   62.39
   3  15  -1  200.78   41.40
  15   3   1  254.07   58.39
  15   3   1  198.98   30.90
   3  15  -1  285.67   41.20
   3 -18   1  238.18   51.19
 -18   3  -1  309.77   43.30
  15 -18  -1  247.28   44.00
   3  15  -1  217.98   50.59
  18  -3   1  254.67   63.99
  -3  18  -1  211.58   43.60
 -15  18   1  277.37   56.29
  18 -15  -1  235.38   46.90
  -3 -15   1  333.27   61.89
 -15  18   1  214.38   29.50
 -15  -3  -1  292.67   48.20
  18  -3   1  245.08   26.00
  18 -15  -1  269.07   38.90
  -3 -15   1  213.88   45.20
 -15  -3  -1  310.07   58.09
  18 -15  -1  225.58   37.60
  14 -18  -1  648.34   54.09
   4 -18   1  626.64   72.59
   4  14  -1  615.84   65.39
  14   4   1  862.91   76.69
 -18   4  -1  707.53   47.50
  14 -18  -1  663.63   46.00
   4  14  -1  728.43   58.59
   4 -18   1  672.63   61.19
   4  14  -1  728.83   53.79
 -18  14   1  733.63   43.80
 -14  18   1  700.73   68.99
  18  -4   1  716.43   32.10
 -14  -4  -1  778.32   66.29
 -14  -4  -1  690.63   56.99
  18  -4   1  757.22   71.49
  18 -14  -1  701.83   58.29
  -4  18  -1  689.43   54.29
  18 -14  -1  684.23   50.99
  -4 -14   1  536.75   60.49
  18 -14  -1  686.63   47.00
  -4  18  -1  631.34   73.19
   5  13  -1  142.69   35.20
  13 -18  -1  216.68   37.00
  13 -18  -1  236.48   37.20
  13   5   1  187.58   54.89
 -18  13   1  188.98   33.50
  13 -18  -1  194.28   52.79
   5 -18   1  124.49   42.00
   5 -18   1  142.49   38.90
 -18   5  -1  235.48   33.50
   5  13  -1  274.97   44.90
   5  13  -1  206.68   49.90
  -5 -13   1  152.78   45.50
  -5  18  -1  155.88   34.30
 -13  -5  -1  177.48   38.30
 -13  -5  -1  223.48   58.49
  18 -13  -1  199.88   52.19
  18 -13  -1  203.88   34.60
  -5 -13   1  148.59   41.40
  18 -13  -1  237.98   40.20
 -13  18   1  173.28   41.50
  -5  18  -1  239.48   64.69
  18  -5   1  271.17   60.09
   6  12  -1  587.14   61.09
  12 -18  -1  622.34   43.00
   6 -18   1  598.84   62.39
 -18  12   1  569.24   40.10
  12   6   1  538.15   73.19
 -18  12   1  816.92   67.89
   6 -18   1  741.13   73.39
   6  12  -1  671.43   53.69
  12 -18  -1  639.44   56.59
  12 -18  -1  631.84   60.79
   6  12  -1  608.14   59.09
  -6  18  -1  675.23   76.59
 -12  -6  -1  608.24   67.69
  18 -12  -1  667.53   41.70
  18  -6   1  678.03   65.79
  18 -12  -1  696.33   59.99
  18 -12  -1  678.13   51.09
  -6 -12   1  559.94   60.79
 -12  18   1  636.34   41.70
 -12  18   1  566.24   68.99
  -6 -12   1  576.44   67.39
 -12  -6  -1  621.04   58.79
  11   7   1 1164.68   81.69
   7  11  -1 1175.38   72.29
   7 -18   1 1194.68   73.49
   7  11  -1 1041.70   69.89
  11 -18  -1 1113.59   68.49
   7 -18   1 1166.28   55.79
   7  11  -1 1197.88   66.29
  11 -18  -1 1136.39   54.99
 -18  11   1 1248.98   71.09
   7 -18   1 1320.97   84.39
  11 -18  -1 1127.49   74.59
  11   7   1  969.00   63.09
  -7  18  -1 1063.89   62.99
  -7 -11   1 1024.90   79.69
 -11  -7  -1 1135.79   79.19
 -11  18   1 1110.09   48.60
  -7 -11   1 1042.80   72.89
  18  -7   1 1278.27   77.19
 -11  18   1 1087.79   77.09
  18 -11  -1 1175.28   62.19
  18 -11  -1 1235.88   72.69
 -11  -7  -1 1105.29   68.19
  -7  18  -1 1145.19   83.89
   8  10  -1  122.39   33.80
  10 -18  -1  165.28   35.40
  10   8   1  123.69   31.20
   8  10  -1   31.70   35.90
   8 -18   1  264.77   68.39
   8 -18   1  131.99   41.70
 -18  10   1   71.49   20.20
 -18  10   1  102.39   30.20
  10 -18  -1  112.19   34.40
  10   8   1   93.09   47.30
   8 -18   1  110.09   28.80
   8  10  -1  102.29   32.90
  10 -18  -1  136.19   39.00
  -8 -10   1   96.69   37.30
  18  -8   1  137.39   43.70
 -10  18   1   71.89   37.60
 -10  -8  -1  129.79   39.00
  -8  18  -1  109.19   42.60
  18 -10  -1   83.39   37.80
  18 -10  -1  131.19   33.30
  -8 -10   1   87.69   42.40
 -10  -8  -1   78.09   34.50
   9   9   1  137.39   43.30
   9 -18  -1  213.48   39.20
   9 -18   1  288.67   68.89
 -18   9   1  179.38   24.40
   9 -18   1  272.77   38.10
 -18   9   1  211.28   47.40
   9 -18  -1  234.08   60.09
   9 -18   1  278.27   57.09
   9   9  -1  186.28   35.40
   9   9   1  278.77   52.29
   9   9  -1  205.88   38.30
   9   9  -1  139.19   41.30
  -9  -9   1  188.28   39.10
  -9  18  -1  174.68   43.50
  -9  -9  -1  213.98   42.00
  18  -9  -1  240.68   41.30
  -9  18  -1  218.68   42.30
  -9  18   1  141.59   41.60
  18  -9  -1  166.88   40.60
  -9  -9   1  185.78   45.50
  -9  -9  -1  185.28   38.60
  18  -9   1  242.68   51.79
   8 -18  -1  228.78   57.89
   8  10   1  160.88   48.80
  10   8  -1  148.89   33.60
   8  10   1  266.07   54.39
  10 -18   1  182.08   37.90
   8 -18  -1  163.28   37.80
  10   8  -1  190.38   39.10
  10   8  -1   68.29   41.90
 -18  10  -1  208.58   45.20
 -18   8   1  155.78   23.80
  10 -18   1  198.88   37.20
  -8  18   1  139.49   42.00
  -8 -10  -1  135.39   40.10
  18  -8  -1  205.38   43.10
  18  -8  -1  199.28   46.30
  -8  18   1  130.49   35.10
  -8 -10  -1  158.28   37.70
 -10  -8   1  170.48   40.50
 -10  -8   1  183.18   43.70
 -10  18  -1  162.08   41.40
 -10  18  -1  147.49   41.20
  18 -10   1  171.28   39.10
  11 -18   1  126.29   38.60
  11 -18   1  143.19   35.20
 -18  11  -1   82.79   14.00
 -18   7   1   98.29   20.60
 -18   7   1   33.80   21.60
  11 -18   1   66.59   26.90
 -18  11  -1   61.79   27.90
  11   7  -1   95.79   36.40
   7  11   1   59.09   41.30
  11   7  -1   -9.20   38.20
  11   7  -1   45.80   28.60
   7 -18  -1   42.20   30.60
   7  11   1  109.99   36.90
   7 -18  -1   75.49   37.00
  18 -11   1   75.19   33.80
 -11  -7   1   62.49   39.80
  -7 -11  -1   43.30   36.90
  18  -7  -1   89.59   20.20
 -11  18  -1  103.79   37.00
  18  -7  -1   78.39   31.50
  -7  18   1   71.59   40.20
  -7 -11  -1   20.00   35.20
 -11  18  -1   41.50   33.40
 -11  -7   1   75.29   39.00
  18  -7  -1   57.09   35.90
  -7  18   1   61.99   32.50
  12 -18   1   61.59   31.90
   6 -18  -1   16.30   29.70
   6  12   1   92.39   36.70
  12 -18   1   45.90   27.60
 -18  12  -1  -11.00   26.80
  12   6  -1   61.09   34.60
  12 -18   1   94.89   35.30
 -18  12  -1   30.20   14.10
   6 -18  -1   33.70   35.20
   6  12   1    8.20   43.10
  12   6  -1  -14.90   23.80
  12   6  -1    0.00   39.20
  -6 -12  -1   33.00   35.30
 -12  18  -1   19.10   35.20
  -6  18   1    6.80   39.60
 -12  -6   1   42.10   39.40
 -12  -6   1   47.20   37.40
  -6 -12  -1   38.80   38.30
  18  -6  -1   18.70   18.90
  18 -12   1   28.60   30.00
  18  -6  -1    6.70   35.70
  18  -6  -1   68.09   35.30
  -6  18   1    2.40   31.10
 -12  18  -1   50.39   32.80
   5 -18  -1  147.99   41.90
   5  13   1  258.57   64.19
 -18  13  -1  125.89   24.00
 -18  13  -1  117.99   32.40
   5  13   1  127.09   43.90
  13 -18   1  172.08   42.10
  13 -18   1  224.38   47.70
  13 -18   1  146.49   32.10
  13   5  -1  169.78   38.80
   5 -18  -1  126.39   37.90
  13   5  -1  224.78   56.99
  18  -5  -1  102.89   36.90
 -13  18  -1  170.98   37.90
  -5 -13  -1  130.39   40.10
  18 -13   1  120.49   22.10
  18 -13   1  183.38   45.20
 -13  -5   1  105.19   36.70
  18  -5  -1  180.68   34.30
  18  -5  -1  231.38   53.29
  -5  18   1   83.39   41.30
  -5  18   1  108.59   36.00
 -13  -5   1  161.78   39.80
  -5 -13  -1  157.78   39.10
 -18  14  -1   95.69   32.40
   4 -18  -1   63.79   33.20
  14   4  -1   95.29   35.20
 -18  14  -1  119.89   25.40
   4 -18  -1   84.79   39.40
  14   4  -1   82.69   27.70
  14 -18   1  138.99   33.80
  14 -18   1  107.59   29.70
  14 -18   1  146.79   36.70
 -18   4   1  172.18   45.00
   4  14   1  117.19   39.40
   4  14   1  142.99   43.60
 -14  18  -1  125.59   35.40
 -14  -4   1  135.69   37.70
 -14  -4   1  122.89   36.70
  -4 -14  -1   72.19   36.00
  18  -4  -1   75.99   37.10
  -4  18   1  133.89   44.50
  18 -14   1  105.49   18.90
  -4 -14  -1  154.38   41.80
  18  -4  -1  231.78   53.59
  18 -14   1   88.89   31.00
  18  -4  -1   99.69   31.00
  -4  18   1  159.98   38.70
   3 -18  -1   70.29   35.10
   3 -18  -1   97.49   39.00
 -18  15  -1   86.69   32.00
  15 -18   1   61.89   30.40
  15 -18   1   98.99   30.50
  15   3  -1   96.99   28.20
 -18  15  -1   72.79   18.60
 -18   3   1  112.09   31.60
   3  15   1   71.69   38.90
 -18   3   1   84.09   28.60
  15   3  -1   62.89   32.70
   3  15   1   97.79   40.30
  15 -18   1   84.49   28.20
  18  -3  -1   48.00   23.10
  18  -3  -1   50.39   34.30
 -15  18  -1  112.59   35.20
  18 -15   1   85.09   32.90
  -3  18   1   91.69   44.60
  -3  18   1   63.79   35.90
  18 -15   1  108.79   27.80
  18  -3  -1  210.28   53.39
  -3 -15  -1    5.50   34.10
 -15  -3   1   68.49   36.60
  -3 -15  -1   80.49   38.60
 -15  -3   1   53.99   35.20
  16 -18   1   59.39   28.50
   2  16   1   97.49   36.60
   2 -18  -1   89.59   36.80
 -18   2   1  100.59   31.00
   2  16   1   65.09   40.70
  16 -18   1  103.09   31.00
 -18   2   1  146.99   34.80
   2 -18  -1   47.00   33.50
 -18  16  -1   76.49   33.00
  16   2  -1   92.09   36.30
  16   2  -1   28.90   26.80
 -18  16  -1   68.39   17.50
 -16  18  -1   79.79   34.50
  -2  18   1   30.00   44.10
  -2  18   1  110.29   40.30
  18 -16   1   77.19   23.80
 -16  -2   1   36.10   36.60
  -2 -16  -1   40.50   39.60
 -16  -2   1   85.89   37.90
  18  -2  -1   34.00   34.00
  -2 -16  -1   34.40   34.60
  18 -16   1   57.49   31.50
  18  -2  -1   81.19   23.20
   1 -18  -1   13.80   30.90
  17 -18   1   19.60   28.50
 -18  17  -1    1.00   17.50
  17   1  -1    8.20   35.10
  17 -18   1   19.50   26.30
  17   1  -1    6.60   22.40
 -18  17  -1   22.20   30.30
   1  17   1    3.20   34.00
   1  17   1  -11.80   39.80
 -18   1   1   38.60   30.90
 -18  17  -1  -12.80   23.70
 -18   1   1   -6.20   33.80
 -17  18  -1   18.20   31.80
  18 -17   1   55.79   28.00
 -17  -1   1   62.39   34.60
  18  -1  -1   -8.40   23.00
 -17  -1   1   33.20   34.70
  -1 -17  -1   -3.80   31.50
  -1 -17  -1   36.20   39.80
  -1  18   1   66.09   38.40
  18 -17   1    0.30   26.80
  -1  18   1    1.20   36.20
  18  -1  -1    2.70   34.80
  18   0  -1  109.49   37.90
 -18  18  -1  160.88   32.30
  18 -18   1  116.49   32.30
  18 -18   1   62.49   43.80
  18   0  -1   69.79   26.20
 -18   0   1   87.69   36.50
 -18   0   1  142.59   38.40
 -18  18  -1   76.69   35.80
  19 -19  -1  190.68   47.40
 -19  19   1  232.28   53.59
  19   0   1  308.57   74.79
   1  18  -1   42.00   37.90
 -19  18   1   16.30   18.00
 -19  18   1   28.00   33.40
  18 -19  -1   26.80   26.50
   1 -19   1   56.99   35.70
  18 -19  -1    2.30   32.70
  19 -18  -1   37.40   28.40
  19  -1   1    2.90   27.60
  19 -18  -1   27.10   28.70
 -18  19   1   56.99   17.80
  -1  19  -1   36.20   32.60
  -1 -18   1   39.30   36.80
 -19  17   1   83.09   22.40
  17 -19  -1   59.99   27.20
  17 -19  -1  104.19   33.30
  17   2   1  144.19   49.00
   2  17  -1   70.59   36.90
 -17  -2  -1  223.28   47.90
  19 -17  -1   89.79   29.10
  -2  19  -1   95.29   38.30
  19 -17  -1  129.49   40.30
  19  -2   1  113.29   28.30
 -17  19   1  119.09   21.70
  19 -17  -1   87.69   29.90
  -2 -17   1   49.90   54.19
 -19  16   1  154.78   35.90
  16 -19  -1  168.08   37.80
  16   3   1  276.97   66.49
   3  16  -1  157.18   39.40
   3 -19   1  232.38   52.99
  16 -19  -1  203.68   45.30
 -16  19   1  293.17   54.29
  -3 -16   1  150.68   42.60
  19  -3   1  292.47   64.99
 -16  19   1  194.78   34.10
  19 -16  -1  209.48   37.90
  19 -16  -1  214.38   39.40
 -16  -3  -1  250.27   48.90
  -3  19  -1  192.68   45.50
  19  -3   1  206.58   26.60
  -3  19  -1  158.58   41.30
  19 -16  -1  241.78   43.70
 -16  19   1  270.17   28.90
   4 -19   1   84.19   40.50
   4  15  -1   91.09   36.00
   4  15  -1   82.29   36.50
   4 -19   1  148.29   39.60
  15 -19  -1  181.18   44.30
  15 -19  -1  117.29   28.40
 -19  15   1  138.79   31.70
  15   4   1  245.38   62.69
  -4  19  -1  109.99   42.00
 -15  19   1  184.98   32.20
 -15  19   1  144.29   37.90
  19 -15  -1  198.08   47.30
  19 -15  -1  121.49   28.50
  -4  19  -1   99.79   34.80
  -4 -15   1  139.59   42.30
  19  -4   1  177.88   47.40
  19 -15  -1  150.68   37.00
  19  -4   1  165.88   21.40
 -15  -4  -1  137.59   36.60
  -4 -15   1  231.88   59.69
 -19  14   1  238.38   33.50
   5 -19   1  387.56   67.89
  14 -19  -1  297.77   46.40
   5  14  -1  265.07   49.10
   5  14  -1  261.27   54.59
  14 -19  -1  254.97   36.50
  14   5   1  225.58   50.59
   5 -19   1  241.38   57.99
  -5  19  -1  184.68   42.60
  -5 -14   1  233.08   45.00
 -14  -5  -1  365.26   59.39
  19 -14  -1  251.37   49.70
  -5  19  -1  241.78   44.90
  19  -5   1  385.06   61.19
  19 -14  -1  278.67   40.50
 -14  -5  -1  232.58   50.49
  19 -14  -1  216.28   35.80
 -14  19   1  248.48   56.39
 -14  19   1  231.88   40.50
  -5 -14   1  160.98   43.50
 -19  13   1  889.31  115.99
 -19  13   1  560.44   40.50
  13   6   1  538.65   51.09
  13 -19  -1  706.63   56.39
  13 -19  -1  688.73   44.20
   6  13  -1  731.13   61.69
   6  13  -1  868.51   80.19
   6 -19   1  718.83   63.89
  13   6   1  697.73   74.59
  13 -19  -1  695.13   61.99
   6 -19   1  869.41   75.89
   6  13  -1  668.53   61.29
  -6  19  -1  670.93   71.49
  19 -13  -1  718.83   60.09
  19  -6   1  820.12   68.09
 -13  -6  -1  671.43   55.09
 -13  -6  -1  748.13   67.29
  -6 -13   1  583.04   72.19
  19 -13  -1  726.43   52.59
  -6  19  -1  739.83   53.69
 -13  19   1  703.23   44.20
  19 -13  -1  706.73   43.40
  -6 -13   1  604.84   60.79
 -13  19   1  757.22   67.19
   7  12  -1   64.59   37.60
  12 -19  -1   75.29   28.40
  12   7   1   13.00   41.70
  12 -19  -1  101.49   26.60
   7 -19   1   92.99   38.00
   7  12  -1   73.59   31.40
  12 -19  -1   90.99   31.00
   7  12  -1   41.90   29.60
  -7 -12   1   79.09   39.20
 -12  19   1   61.29   20.60
 -12  -7  -1   99.59   33.70
  19 -12  -1   85.69   29.90
  -7 -12   1   76.29   38.10
 -12  -7  -1   91.29   46.80
  -7  19  -1   88.09   38.60
  19 -12  -1   80.19   38.00
  19  -7   1  122.59   44.00
 -12  19   1   64.99   36.20
   8  11  -1  348.47   50.99
  11 -19  -1  404.36   39.30
   8  11  -1  292.57   54.19
   8 -19   1  390.66   39.30
 -19  11   1  318.67   32.00
  11 -19  -1  383.76   51.39
   8  11  -1  296.27   50.99
 -19  11   1  465.65   54.19
  11 -19  -1  373.36   55.99
   8 -19   1  414.06   58.49
   8 -19   1  519.85   70.29
  11   8   1  282.27   61.39
 -11  -8  -1  399.76   61.49
  -8  19  -1  290.67   64.19
  -8 -11   1  272.17   52.79
  -8 -11   1  356.56   65.99
  19 -11  -1  378.26   57.19
 -11  -8  -1  314.37   50.09
  19 -11  -1  378.16   46.50
  19  -8   1  402.86   56.69
   9  10  -1  261.77   53.69
 -19  10   1  472.25   50.59
   9  10  -1  307.27   50.29
  10 -19  -1  401.06   50.49
   9 -19   1  481.95   56.09
  10   9   1  327.97   64.99
   9  10  -1  434.06   53.49
  10   9   1  311.07   50.59
   9 -19   1  456.75   66.79
 -19  10   1  332.47   31.20
   9 -19   1  395.66   38.30
  10 -19  -1  471.55   60.49
  -9 -10   1  324.87   57.09
  -9  19  -1  386.56   67.59
  19  -9   1  423.06   54.49
  19 -10  -1  387.76   44.70
  -9  19  -1  253.47   53.99
 -10  -9  -1  378.86   52.49
  -9 -10   1  311.07   65.49
 -10  -9  -1  298.37   61.79
 -10  19   1  327.27   64.79
  10   9  -1   84.69   29.20
   9 -19  -1   67.39   30.60
  10   9  -1  116.39   35.70
 -19  10  -1  118.99   34.00
 -19   9   1   96.39   21.20
  10 -19   1  126.79   35.30
   9  10   1   86.29   30.90
 -19   9   1   95.39   29.90
   9  10   1   98.29   44.50
  10   9  -1   -5.70   37.60
   9 -19  -1   76.99   37.60
  10 -19   1  136.09   34.70
 -10  -9   1   77.99   37.30
  19 -10   1   77.19   34.30
  -9  19   1  168.78   41.50
  19  -9  -1  106.29   30.80
 -10  19  -1   79.09   39.10
  -9 -10  -1   57.39   36.60
  19  -9  -1  138.99   39.90
  -9 -10  -1   69.49   33.80
  -9  19   1   58.19   30.80
 -10  -9   1   90.99   36.40
 -10  19  -1   48.30   46.70
  11   8  -1   47.60   31.30
  11   8  -1   40.20   37.50
  11 -19   1  241.08   60.09
  11 -19   1  149.88   36.90
  11   8  -1  184.18   49.80
   8 -19  -1   72.99   31.30
  11 -19   1  140.89   35.70
   8 -19  -1  226.08   57.79
   8  11   1  140.79   32.60
 -19   8   1  105.49   23.10
 -19  11  -1   99.49   30.70
   8  11   1   86.09   42.80
  -8 -11  -1   92.99   37.10
  -8 -11  -1   91.49   36.60
  19  -8  -1  131.89   33.30
  -8  19   1   96.09   32.70
 -11  -8   1  138.79   41.40
  19 -11   1  133.89   37.30
 -11  19  -1   83.89   38.60
  19  -8  -1  170.68   42.70
 -11  -8   1   88.39   36.70
 -11  19  -1   98.69   39.40
  -8  19   1  130.19   41.50
  12 -19   1  209.88   38.10
   7  12   1  155.28   46.50
 -19  12  -1  122.59   30.80
   7 -19  -1  125.19   37.10
  12   7  -1  160.78   43.30
  12 -19   1  280.47   49.30
   7 -19  -1  127.69   32.90
 -19  12  -1  146.89   21.70
  12   7  -1  216.58   49.30
  12   7  -1  143.49   30.30
 -12  19  -1  183.38   38.90
  -7 -12  -1  257.17   58.19
 -12  -7   1  240.48   60.69
  -7  19   1  155.88   44.00
 -12  -7   1  175.28   42.20
  -7  19   1  203.68   45.10
  19  -7  -1  207.58   56.09
  19 -12   1  136.09   33.10
  -7 -12  -1  147.69   36.90
  13   6  -1  228.68   53.79
 -19  13  -1  191.68   43.10
   6 -19  -1  166.78   40.40
  13   6  -1  178.18   48.70
  13 -19   1  313.57   59.99
  13   6  -1  125.69   31.80
   6  13   1  180.68   41.30
  13 -19   1  231.28   39.10
  13 -19   1  269.57   48.00
 -19  13  -1  178.88   25.00
   6 -19  -1  209.48   49.99
   6  13   1  186.78   48.40
  -6 -13  -1  167.68   41.00
  19  -6  -1  234.28   32.60
  19 -13   1  261.97   46.10
  -6  19   1  206.28   46.70
 -13  19  -1  132.29   40.30
  -6  19   1  185.18   42.60
 -13  19  -1  169.38   36.20
  19  -6  -1  223.68   41.10
 -13  -6   1  227.18   54.79
 -13  -6   1  269.07   64.19
  19  -6  -1  280.77   52.99
  -6 -13  -1  334.37   61.39
  14 -19   1  182.88   44.40
  14   5  -1  113.89   34.60
   5 -19  -1   85.29   35.50
  14 -19   1  204.28   54.59
 -19  14  -1   68.99   30.60
 -19   5   1  106.59   29.60
   5 -19  -1  134.89   38.60
 -19   5   1   87.39   27.10
   5  14   1  110.89   43.80
  14 -19   1  100.29   30.10
  14   5  -1   56.99   26.50
   5  14   1   78.09   36.50
  14   5  -1  145.19   43.80
 -19  14  -1   75.09   17.00
 -14  19  -1  104.49   36.70
  19  -5  -1  156.58   39.30
 -14  -5   1   97.69   37.90
  -5 -14  -1   44.90   34.30
  -5 -14  -1  233.28   63.09
  19  -5  -1  115.19   39.60
  19 -14   1   70.19   31.50
 -14  -5   1   37.10   38.40
  -5  19   1   86.99   41.40
  -5  19   1   63.49   31.50
 -19  15  -1  242.58   29.40
 -19   4   1  234.68   45.20
  15 -19   1  344.37   58.59
   4 -19  -1  168.68   38.20
 -19  15  -1  252.07   47.70
  15   4  -1  248.78   52.49
  15   4  -1  159.48   33.10
   4  15   1  282.47   57.49
   4  15   1  255.47   60.19
   4 -19  -1  297.47   67.29
  15 -19   1  244.38   39.60
 -19   4   1  233.08   48.70
  15 -19   1  272.37   49.10
  19  -4  -1  239.58   54.19
  -4 -15  -1  214.58   52.19
  -4  19   1  365.76   71.69
  19 -15   1  256.47   43.80
  -4 -15  -1  268.97   59.39
  19 -15   1  191.58   31.50
  -4  19   1  214.38   47.70
 -15  -4   1  224.78   42.00
 -15  19  -1  203.98   51.49
  19  -4  -1  303.87   38.10
 -15  -4   1  281.57   51.29
   3 -19  -1   49.50   30.60
  16   3  -1   30.20   26.00
 -19  16  -1   60.39   32.30
   3  16   1   53.79   37.80
   3  16   1   86.89   39.00
 -19   3   1  130.99   34.00
  16   3  -1   66.59   37.20
  16 -19   1   72.99   27.60
 -19  16  -1   56.69   19.60
 -19   3   1   66.99   30.00
 -16  -3   1   91.09   34.00
  -3  19   1   13.10   44.00
  -3  19   1   56.69   33.20
 -16  -3   1   99.09   35.70
  19  -3  -1   90.89   39.70
  -3 -16  -1   43.00   35.10
  -3 -16  -1   52.99   39.70
  19 -16   1   61.49   31.30
  19  -3  -1   93.59   23.00
 -16  19  -1   77.59   36.80
  19 -16   1   46.60   22.10
 -19  17  -1   87.29   33.70
 -19  17  -1  121.59   31.90
 -19   2   1  109.19   37.70
 -19  17  -1   52.49   34.10
   2  17   1   88.29   47.20
  17   2  -1   70.29   37.70
  17   2  -1   47.80   27.10
 -19   2   1   16.20   32.90
  17 -19   1  101.49   33.90
   2 -19  -1   22.70   36.40
 -17  -2   1   56.59   34.20
  19 -17   1   49.10   41.50
  19 -17   1   96.79   30.30
 -17  -2   1  117.99   37.40
  -2  19   1   18.30   47.50
  -2 -17  -1   26.80   37.70
 -17  19  -1   88.79   38.10
  19  -2  -1   80.19   45.50
  19  -2  -1   72.19   23.60
 -19   1   1   90.69   35.80
  18   1  -1   90.29   39.40
  18   1  -1   54.79   27.30
  18 -19   1   59.49   30.80
   1  18   1   43.00   36.00
 -19  18  -1   77.39   36.50
   1 -19  -1   23.80   32.00
 -19  18  -1   49.30   23.90
 -19   1   1   46.60   38.10
  18 -19   1  126.89   35.30
  -1 -18  -1   59.69   35.00
  19 -18   1   58.89   32.30
  -1  19   1   81.49   37.20
  19  -1  -1   52.99   24.90
  19  -1  -1   36.10   43.10
 -18  -1   1  117.89   39.20
 -18  19  -1   29.80   37.50
 -18  -1   1   -7.90   36.60
  19 -18   1   28.60   30.50
  19   0  -1   53.09   39.10
 -19  19  -1   70.59   22.40
  19 -19   1   94.39   32.90
 -19   0   1  -21.20   38.80
 -19  19  -1   18.10   28.70
   0  19   1   34.60   37.90
 -19  19  -1   17.80   36.00
  19   0  -1   60.99   26.40
   0 -19  -1   42.40   33.10
 -20  20   1   18.70   20.30
   0  20  -1    6.40   35.90
  20 -20  -1   61.69   34.50
  20 -20  -1   11.90   29.60
   0 -20   1   40.50   35.50
   1 -20   1   80.29   35.60
  19 -20  -1   62.19   29.40
   1  19  -1   40.80   38.10
  19 -20  -1   83.89   34.90
 -19  20   1   68.79   30.60
  20 -19  -1  121.39   33.80
  -1 -19   1   90.59   37.00
  20 -19  -1   72.39   30.50
  -1  20  -1   93.79   39.70
   2 -20   1   87.59   42.50
 -20  18   1   58.49   23.30
 -20  18   1   86.39   37.60
  18   2   1   52.99   28.50
   2  18  -1   46.20   40.00
  18 -20  -1  103.19   36.40
  18 -20  -1   69.09   28.50
  20 -18  -1   71.39   28.80
 -18  20   1   72.99   27.20
  -2 -18   1   48.20   37.10
  20 -18  -1   53.29   29.90
  -2  20  -1   66.39   36.10
 -20  17   1  -10.60   19.20
  17   3   1  110.09   48.40
   3  17  -1   -5.20   35.30
   3 -20   1   28.10   37.10
  17 -20  -1    6.30   31.30
  20  -3   1  110.89   47.80
  20 -17  -1   26.50   28.70
  20 -17  -1   35.50   37.40
 -17  20   1    8.40   24.20
  20 -17  -1   25.50   26.40
 -17  -3  -1   87.49   36.10
  -3 -17   1    7.50   37.10
 -17  20   1    1.20   28.10
 -20  16   1   67.69   21.20
  16 -20  -1   86.49   28.20
   4  16  -1   69.89   35.00
  16   4   1  143.99   52.89
   4 -20   1   90.59   42.90
  16 -20  -1  131.89   36.10
 -16  20   1   75.69   18.30
 -16  20   1   85.39   25.90
  20 -16  -1  116.79   31.40
  20 -16  -1  145.89   42.00
  -4  20  -1   79.99   36.90
 -16  20   1  112.39   32.20
 -16  -4  -1  167.18   36.80
  -4 -16   1   66.19   38.40
  20 -16  -1   67.29   28.30
   5  15  -1  186.98   53.09
  15 -20  -1  277.27   37.90
  15   5   1  271.07   66.79
   5 -20   1  295.37   55.89
  15   5   1  186.28   47.70
  15 -20  -1  313.07   49.90
   5  15  -1  250.07   53.89
 -20  15   1  202.58   33.20
  20 -15  -1  281.77   43.90
  -5  20  -1  243.28   46.70
  20 -15  -1  230.38   39.40
  -5  20  -1  136.39   43.40
  20 -15  -1  349.47   51.49
 -15  20   1  244.68   52.69
  -5 -15   1  270.37   54.89
 -15  -5  -1  290.17   51.39
 -15  -5  -1  398.16   62.09
  14 -20  -1   68.29   30.30
   6 -20   1   86.49   39.80
   6  14  -1   37.30   30.80
  14 -20  -1   61.69   24.20
  14   6   1   22.80   25.00
  14 -20  -1   63.19   29.90
   6 -20   1  132.09   40.90
 -20  14   1   25.50   17.50
  14   6   1   59.09   45.40
   6  14  -1   33.40   34.90
 -14  -6  -1   83.79   35.10
  -6 -14   1   30.00   50.59
  -6  20  -1   42.60   40.50
  20  -6   1  147.29   46.40
  -6  20  -1   38.80   33.10
 -14  -6  -1  122.69   36.60
 -14  20   1  115.99   35.00
  -6 -14   1   62.99   38.90
  20 -14  -1   82.79   28.70
  20 -14  -1   87.29   35.50
  20 -14  -1   42.00   22.60
 -14  20   1   89.59   25.70
  13   7   1  167.78   43.30
  13 -20  -1  313.37   55.29
  13 -20  -1  273.17   35.90
  13   7   1  252.67   53.39
   7 -20   1  247.18   56.49
  13 -20  -1  265.67   49.90
   7  13  -1  256.07   52.19
 -13  -7  -1  344.27   60.09
  20 -13  -1  255.77   55.49
  20 -13  -1  265.47   43.20
  -7 -13   1  173.58   40.30
  -7  20  -1  275.47   44.30
  20  -7   1  314.77   57.89
 -13  -7  -1  254.37   50.19
  -7  20  -1  334.47   68.49
  12 -20  -1  415.26   52.79
  12   8   1  344.67   62.29
   8  12  -1  300.77   56.89
 -20  12   1  389.56   34.70
 -20  12   1  607.64   99.49
   8 -20   1  438.06   72.49
   8 -20   1  479.35   61.99
  12 -20  -1  471.55   57.19
  12 -20  -1  408.56   38.60
 -12  -8  -1  389.26   50.49
 -12  20   1  259.27   63.29
  -8 -12   1  358.36   57.19
 -12  -8  -1  459.85   64.59
  -8 -12   1  434.86   64.99
  20  -8   1  469.45   58.49
  20 -12  -1  423.96   44.80
  20 -12  -1  414.06   57.29
  -8  20  -1  423.66   67.99
   9 -20   1  132.59   36.00
 -20  11   1  132.69   27.90
   9 -20   1  134.39   37.90
  11 -20  -1  130.19   38.60
  11 -20  -1  131.89   36.60
   9  11  -1   76.49   30.70
  11   9   1   54.19   43.70
   9 -20   1   92.69   26.00
   9  11  -1  220.98   47.20
  -9 -11   1   91.39   36.00
  20 -11  -1  112.39   30.30
 -11  -9  -1   96.59   34.30
  20  -9   1  146.09   40.60
  -9 -11   1  103.09   37.50
  20 -11  -1  133.19   39.00
 -11  20   1  225.18   56.89
  -9  20  -1  147.69   41.60
 -11  -9  -1  112.99   36.60
  10  10   1   86.09   30.80
  10 -20  -1  115.19   33.30
  10  10   1   91.39   41.60
  10 -20   1  174.88   39.10
  10 -20   1  148.59   33.30
  10 -20  -1  145.59   36.60
  10  10  -1   76.59   26.20
 -20  10  -1  114.59   31.40
  10  10  -1  228.18   49.80
 -20  10   1  132.39   23.40
 -10  20   1  214.58   57.59
  20 -10   1  145.79   36.40
 -10 -10   1  143.29   39.80
 -10  20   1  171.28   38.00
 -10 -10   1  142.29   41.00
 -10 -10  -1  153.98   38.40
 -10  20  -1  161.18   42.80
  20 -10  -1  236.18   55.99
  20 -10  -1  217.48   43.80
 -10 -10  -1   92.49   38.20
  11   9  -1  284.07   51.09
  11 -20   1  251.57   36.40
 -20   9   1  171.98   26.90
  11   9  -1  105.79   30.40
   9  11   1  165.18   46.90
 -20  11  -1  178.58   43.30
 -20   9   1  121.69   24.40
   9 -20  -1  209.08   48.90
   9  11   1  225.98   50.19
   9 -20  -1  138.99   37.60
 -11  20  -1  184.58   43.50
  -9 -11  -1  221.98   53.39
 -11  -9   1  132.99   40.00
 -11  -9   1  197.78   40.50
  -9  20   1  257.17   64.89
  -9 -11  -1  233.68   60.29
 -11  20  -1  149.79   43.30
  20 -11   1  262.27   47.10
  -9  20   1  210.48   44.20
   8  12   1  119.09   46.70
   8 -20  -1  122.29   34.50
  12   8  -1  269.17   52.19
   8  12   1  171.18   34.50
 -20  12  -1  121.89   30.50
  12 -20   1  198.38   36.90
  12   8  -1  127.59   29.10
  12   8  -1   43.00   39.60
  20  -8  -1  266.47   48.10
 -12  -8   1  189.48   39.70
 -12  20  -1   65.19   39.50
  20 -12   1  234.48   46.10
  -8  20   1  213.48   47.10
  20  -8  -1  254.77   55.69
 -12  -8   1  176.58   41.90
  -8  20   1  128.89   33.30
  -8 -12  -1  145.49   37.80
  -8 -12  -1  250.27   58.39
 -12  20  -1  162.08   43.70
 -20   7   1   58.89   24.30
  13 -20   1   60.99   26.70
   7 -20  -1   73.49   31.60
  13   7  -1   98.79   36.60
 -20  13  -1   31.90   29.90
   7  13   1   86.59   43.30
  13 -20   1  107.59   35.30
  13 -20   1   63.69   36.80
   7 -20  -1   25.10   43.80
   7  13   1   82.09   33.30
 -13  20  -1   57.29   34.70
 -13  -7   1   37.20   35.80
  20 -13   1   66.79   33.00
  -7  20   1   76.59   41.80
  20  -7  -1   95.99   40.80
  -7  20   1   53.09   33.50
  -7 -13  -1   47.70   36.50
 -13  20  -1  -18.90   35.00
  -7 -13  -1   87.59   38.10
 -13  -7   1   62.59   34.90
  14   6  -1  259.07   63.39
   6 -20  -1  389.46   52.99
   6  14   1  329.17   60.99
  14 -20   1  410.36   45.80
 -20  14  -1  363.86   30.40
  14 -20   1  503.35   63.59
 -20   6   1  496.95   45.30
  14 -20   1  504.45   53.09
 -20   6   1  386.96   55.69
  14   6  -1  496.05   58.39
 -20  14  -1  400.46   50.09
   6  14   1  398.56   62.49
  -6  20   1  400.66   53.49
  20 -14   1  442.26   48.80
 -14  -6   1  455.25   62.89
 -14  -6   1  373.16   56.59
 -14  20  -1  337.47   60.39
  -6  20   1  462.95   69.69
  -6 -14  -1  526.55   66.59
  20  -6  -1  409.66   39.10
  -6 -14  -1  399.26   54.69
  20  -6  -1  397.96   70.09
  20  -6  -1  557.54   60.89
  15 -20   1  219.78   51.99
 -20  15  -1  162.48   37.50
  15   5  -1  239.98   55.19
 -20   5   1  205.38   35.40
 -20  15  -1  210.98   28.50
 -20   5   1  159.48   32.00
   5  15   1  145.49   43.20
  20  -5  -1  251.87   35.40
  -5  20   1  176.18   60.79
  -5 -15  -1  295.77   63.79
  -5 -15  -1  151.18   38.50
 -15  -5   1  241.38   54.79
  20 -15   1  202.88   43.10
 -15  20  -1  151.08   41.70
 -15  -5   1  183.18   42.60
 -20   4   1   68.79   30.20
   4  16   1   75.49   44.80
  16 -20   1  117.29   35.60
  16   4  -1  170.08   45.50
 -20  16  -1   73.59   19.30
 -20  16  -1   44.20   33.20
   4 -20  -1   35.00   34.40
  16   4  -1  123.79   40.30
  16 -20   1   64.69   28.10
  20  -4  -1   89.89   23.20
 -16  -4   1   38.50   37.90
  -4 -16  -1   41.40   38.40
  -4  20   1  101.39   37.20
 -16  -4   1  114.39   40.10
 -16  20  -1    7.60   36.30
   3  17   1  259.17   56.99
   3 -20  -1  248.38   54.19
 -20  17  -1  260.27   53.39
  17   3  -1  230.88   39.80
 -20  17  -1  277.67   40.70
  17 -20   1  299.67   42.40
  17 -20   1  304.97   57.09
  17   3  -1  337.97   58.29
 -20   3   1  391.36   53.89
  20  -3  -1  336.27   42.40
 -17  20  -1  322.27   60.99
  -3 -17  -1  246.68   54.39
  20  -3  -1  280.17   62.29
  20 -17   1  290.17   46.40
 -17  -3   1  309.37   55.89
  -3  20   1  333.87   54.69
  18 -20   1  104.99   37.90
  18   2  -1   12.30   60.69
   2 -20  -1   18.00   35.00
  18   2  -1   55.59   27.70
  18 -20   1   77.99   33.00
 -20  18  -1   49.00   35.60
 -20   2   1  110.09   36.70
   2  18   1   40.40   38.30
  20  -2  -1   -4.70   25.20
 -18  -2   1   57.69   37.50
 -18  20  -1   60.49   40.20
  20 -18   1   91.49   34.00
  -2 -18  -1   28.50   32.00
  -2  20   1   44.40   38.10
 -18  20  -1   10.00   29.60
 -18  -2   1   95.79   39.40
  20  -2  -1   73.19   41.40
 -20  19  -1  196.68   44.30
  19 -20   1  207.98   43.30
   1  19   1  112.89   40.60
 -20   1   1  136.09   43.60
   1 -20  -1  125.69   37.70
  19 -20   1  234.88   52.79
  19   1  -1  179.48   44.30
  20  -1  -1  196.58   45.00
 -19  20  -1  183.08   43.80
  20  -1  -1  253.67   45.10
  20 -19   1  197.88   45.40
  -1  20   1  107.49   39.10
 -19  20  -1  127.09   34.40
  -1 -19  -1  144.99   38.20
  20 -19   1  212.88   38.30
 -19  -1   1  316.07   65.59
  20 -20   1   46.30   37.00
 -20  20  -1  -37.60   39.10
  20 -20   1   44.00   31.20
   0 -20  -1    6.80   34.00
  20   0  -1  -41.90   28.50
   0  20   1   38.00   35.00
 -20   0   1   61.19   37.90
  20   0  -1   22.80   42.80
   1 -21   1  153.98   42.40
  20 -21  -1  291.47   54.09
 -21  20   1  137.69   28.10
  20 -21  -1  232.48   42.50
   1  20  -1  169.98   45.10
 -20  21   1  165.58   41.30
  -1 -20   1  130.79   35.90
  -1  21  -1  167.68   44.30
  21 -20  -1  204.28   40.20
  21 -20  -1  254.27   43.60
 -20  21   1  171.68   37.90
   2 -21   1   81.79   36.30
  19 -21  -1   19.20   28.00
   2  19  -1    8.90   37.30
  19   2   1   80.69   50.49
  19 -21  -1   43.20   35.70
  -2  21  -1   24.70   35.40
 -19  21   1   -1.10   27.00
  21 -19  -1   10.60   29.30
  -2 -19   1   12.00   32.20
 -19  21   1   37.20   19.40
  21 -19  -1    2.80   30.30
  18 -21  -1   65.19   29.90
   3 -21   1   99.59   40.50
   3  18  -1   53.59   41.50
 -21  18   1   60.19   23.40
  18 -21  -1  105.49   37.70
  -3 -18   1   44.10   36.20
  21 -18  -1   77.99   32.30
 -18  21   1   79.99   21.50
  -3  21  -1   44.10   35.80
 -18  21   1   42.50   29.70
  21 -18  -1   65.79   33.00
  17 -21  -1   45.00   28.30
   4  17  -1   25.50   36.00
  17   4   1  127.89   51.39
  17 -21  -1   71.69   38.90
   4 -21   1   55.29   41.70
 -17  21   1   64.69   29.60
  21 -17  -1   84.49   39.80
  21 -17  -1   61.99   29.90
 -17  21   1   -5.50   29.60
  -4  21  -1   49.40   35.00
 -17  -4  -1  111.19   40.40
  21 -17  -1   21.10   27.50
  -4 -17   1   24.80   37.80
 -21  16   1  -12.90   17.10
   5 -21   1   10.80   40.60
  16   5   1   38.30   27.50
   5  16  -1    6.00   37.10
  16   5   1   15.30   68.49
  16 -21  -1   22.80   27.40
  16 -21  -1   25.40   34.00
 -16  -5  -1   78.79   51.99
  -5 -16   1   11.00   38.50
  21  -5   1  116.49   68.69
  21 -16  -1   24.20   39.60
 -16  -5  -1   72.59   37.60
  21 -16  -1    4.10   28.00
 -16  21   1   28.70   28.50
  -5  21  -1   30.10   35.30
  21 -16  -1   -7.90   25.80
 -16  21   1  -31.00   29.00
   6 -21   1  103.19   39.70
  15 -21  -1   90.39   34.60
  15   6   1   71.59   49.99
   6  15  -1   49.50   43.00
 -21  15   1   55.49   19.90
  15 -21  -1  110.09   29.00
  -6 -15   1   84.49   41.00
  21 -15  -1   78.99   26.80
  21 -15  -1   69.39   30.70
 -15  -6  -1  127.69   38.30
 -15  21   1   99.89   33.50
 -15  -6  -1  126.49   39.80
  -6  21  -1   92.59   37.00
  21 -15  -1   95.09   36.90
   7 -21   1  175.58   58.19
  14 -21  -1  303.67   51.89
   7  14  -1  247.88   53.69
  14 -21  -1  247.28   59.29
  14   7   1  221.18   50.09
  14 -21  -1  210.78   37.30
 -21  14   1  140.99   25.40
  14   7   1  208.98   44.80
 -14  -7  -1  241.88   64.29
  -7  21  -1  236.18   45.10
  -7 -14   1  148.49   56.19
  21  -7   1  350.46   64.09
 -14  -7  -1  269.07   52.89
  21 -14  -1  292.47   54.29
  -7  21  -1  205.08   57.49
   8 -21   1   43.60   37.90
 -21  13   1   72.19   23.90
  13   8   1  -12.80   25.10
  13 -21  -1   24.50   33.80
  13   8   1  -49.20   42.40
  13 -21  -1   44.10   32.60
   8  13  -1  -11.60   29.80
  13 -21  -1   74.99   31.20
  -8 -13   1   17.90   37.30
 -13  -8  -1   81.89   36.10
  -8  21  -1   96.49   40.50
 -13  21   1   36.70   33.10
  21 -13  -1   46.20   29.90
  21  -8   1   46.10   40.50
 -13  -8  -1   53.99   36.00
  21 -13  -1   50.49   39.10
 -21  12   1  182.78   40.50
  12 -21  -1   63.49   35.90
  12 -21  -1  101.29   34.00
   9 -21   1  129.09   38.90
   9  12  -1   17.30   37.70
 -12  21   1  116.79   37.30
  21  -9   1  121.59   41.30
 -12  -9  -1   73.19   37.90
 -12  -9  -1   73.09   35.70
  -9 -12   1  108.49   40.80
  -9 -12   1   66.39   50.59
  21 -12  -1   92.19   41.70
  -9  21  -1  104.19   38.80
  21 -12  -1  102.09   33.60
  11 -21  -1  247.68   53.59
 -21  10  -1  109.79   32.40
  10 -21   1  262.17   58.79
  10 -21   1  140.49   38.30
  10  11  -1  137.89   30.40
 -21  11   1  202.38   32.50
  10  11  -1   97.09   41.50
  11  10   1   63.49   43.70
  21 -11  -1  225.28   42.80
 -11  21   1  312.17   63.29
  21 -10   1  249.58   50.49
 -10 -11   1  224.48   54.39
 -10  21  -1  200.88   42.90
 -11 -10  -1  198.48   43.30
 -11 -10  -1  138.19   42.80
 -11  21   1  138.29   38.20
  21 -11  -1  282.37   65.49
  11 -21   1  248.58   57.59
  11 -21   1  304.17   66.59
 -21  10   1  144.79   36.10
  11  10  -1  243.68   52.19
  10 -21  -1  144.89   35.90
 -21  11  -1   80.79   51.29
  11 -21   1   94.29   29.20
  10  11   1   98.39   47.50
 -11 -10   1  175.98   41.50
 -10 -11  -1  261.67   54.99
  21 -10  -1  264.57   46.70
  21 -11   1  208.88   49.60
 -10 -11  -1  162.78   42.70
 -10  21   1   86.59   36.90
 -10  21   1  169.98   44.10
 -11  21  -1  181.28   43.10
 -10 -11  -1  156.88   40.80
 -11 -10   1  286.57   61.89
  12 -21   1   48.80   26.70
 -21   9   1   39.10   21.00
  12   9  -1   19.50   36.00
   9  12   1   58.19   29.90
   9  12   1  -11.70   44.10
  12 -21   1  113.39   38.00
   9 -21  -1   49.20   32.30
 -21   9   1   85.99   52.39
 -21   9   1  147.09   42.50
  12   9  -1   96.99   38.70
 -12  -9   1   28.70   35.70
  21  -9  -1   62.29   39.50
  -9  21   1   50.49   34.50
  -9 -12  -1  121.69   38.70
 -12  -9   1   61.89   38.80
 -12  21  -1    7.20   37.00
  21 -12   1   83.69   34.00
  -9  21   1   42.40   41.40
  -9 -12  -1   44.20   36.40
  21  -9  -1   81.19   32.70
   8 -21  -1  209.38   59.49
  13 -21   1  358.76   65.39
  13 -21   1  281.97   40.50
   8  13   1  277.47   69.59
 -21   8   1  233.88   44.00
   8  13   1  233.68   53.29
  13   8  -1  259.67   55.89
  13   8  -1  390.26   56.49
 -13  21  -1  267.07   49.20
  21  -8  -1  409.36   53.19
 -13  -8   1  302.67   57.09
  21 -13   1  318.77   49.10
  21  -8  -1  395.76   61.99
 -13  21  -1  190.28   45.90
  -8 -13  -1  297.57   55.19
  -8  21   1  302.67   47.70
 -13  -8   1  292.47   67.49
  14 -21   1  412.76   57.49
  14 -21   1  469.15   66.89
  14 -21   1  288.67   41.20
   7  14   1  361.96   53.79
 -21   7   1  338.77   49.00
  14   7  -1  320.27   58.59
   7 -21  -1  301.47   52.89
   7  14   1  222.28   71.09
  -7 -14  -1  422.26   75.59
  -7 -14  -1  284.77   55.29
 -14  -7   1  331.07   67.09
  21  -7  -1  440.76   54.49
  21  -7  -1  388.96   38.30
  21  -7  -1  319.47   59.69
  -7  21   1  299.87   51.59
 -14  -7   1  294.47   57.39
   6  15   1   82.39   50.29
  15 -21   1   73.49   28.70
  15   6  -1  129.19   41.80
 -21  15  -1   42.10   47.50
   6  15   1   80.49   45.50
   6 -21  -1   92.69   34.40
 -21   6   1   42.60   28.40
 -15  21  -1    5.20   43.30
  -6 -15  -1   56.79   43.80
  21  -6  -1  105.59   43.00
  21 -15   1   75.29   31.30
 -15  -6   1   89.59   40.10
  21  -6  -1   50.59   21.60
  -6  21   1   76.89   36.20
 -15  -6   1   69.49   36.80
  16 -21   1  492.25   45.60
  16 -21   1  559.24   58.69
   5  16   1  461.65   63.79
   5 -21  -1  435.76   56.79
 -21   5   1  367.76   58.99
  16 -21   1  579.14   65.29
  16   5  -1  545.65   60.89
 -21  16  -1  395.06   68.19
  -5  21   1  456.65   53.49
  -5 -16  -1  426.16   61.59
 -16  21  -1  432.56   65.79
  21  -5  -1  579.14   43.70
 -16  -5   1  531.25   61.79
 -16  -5   1  560.04   69.79
  21  -5  -1  586.44   64.39
  21 -16   1  500.15   51.49
   4 -21  -1   88.59   36.60
   4  17   1   92.69   42.30
 -21  17  -1  120.59   46.10
 -21   4   1   59.49   36.20
  17   4  -1  128.19   43.80
  17   4  -1  193.78   48.80
  17 -21   1  138.59   34.90
  21  -4  -1  112.69   26.30
 -17  -4   1  103.49   39.00
  21 -17   1   81.79   32.40
  21  -4  -1  165.38   46.70
  -4  21   1   92.99   35.60
  -4 -17  -1   79.89   41.50
 -17  -4   1  136.19   44.00
 -17  21  -1   36.70   44.30
 -21  18  -1  147.49   51.39
   3 -21  -1  115.99   38.50
   3  18   1  124.09   43.80
  18   3  -1  119.29   32.40
  18 -21   1  120.89   32.70
 -21   3   1  241.38   65.09
  18   3  -1  171.68   43.10
 -18  -3   1  188.08   45.20
 -18  -3   1  152.98   46.80
  -3 -18  -1  105.79   36.80
  21 -18   1  183.98   43.40
  -3  21   1  117.79   39.70
 -18  21  -1   35.30   34.10
  21  -3  -1  191.38   47.50
 -18  21  -1  114.29   47.00
  21  -3  -1  102.09   29.80
   2  19   1   86.69   41.30
 -21   2   1  126.39   44.10
  19   2  -1  136.29   43.00
  19 -21   1  129.59   35.20
  19   2  -1   93.99   30.20
   2 -21  -1   80.39   38.90
  19 -21   1  200.68   44.20
 -21  19  -1  129.69   53.79
 -19  21  -1  138.09   45.30
 -19  -2   1   99.19   45.10
  21  -2  -1  123.69   43.80
  -2 -19  -1   96.09   36.20
  -2  21   1   87.89   41.20
  21  -2  -1   75.09   44.80
  21 -19   1  112.39   32.60
 -19  -2   1  112.69   45.90
 -19  21  -1  120.09   29.50
   1 -21  -1   72.69   35.50
  20   1  -1   63.69   28.60
 -21  20  -1   92.39   63.39
   1  20   1   55.99   38.00
  20 -21   1  101.89   32.30
  20   1  -1   93.09   43.70
  -1 -20  -1   51.09   35.90
  21  -1  -1   88.29   41.60
 -20  -1   1  125.99   54.29
  -1  21   1   38.50   40.70
  21 -20   1  101.49   33.10
 -20  21  -1   90.99   44.70
   3 -22   1   98.69   38.20
   3  19  -1  108.89   42.20
  19   3   1  155.48   56.79
  19 -22  -1  106.19   31.40
  -3 -19   1   90.39   34.60
  -3  22  -1  138.29   36.80
  22 -19  -1   95.69   32.50
 -19  22   1   92.19   34.30
   4  18  -1   15.80   36.10
  18 -22  -1   50.09   26.80
 -22  18   1  -44.40   27.60
   4 -22   1   48.60   36.50
  18 -22  -1   46.50   37.00
  18   4   1   57.39   49.00
  22 -18  -1   36.30   31.90
  -4  22  -1   12.40   34.60
  22 -18  -1   53.89   31.00
  -4 -18   1  -34.50   33.00
 -18  22   1   -0.10   33.90
  17   5   1   14.90   48.00
  17 -22  -1   33.10   27.20
  17 -22  -1  102.09   38.60
   5 -22   1   80.49   39.40
   5  17  -1   30.90   40.30
  17   5   1  -33.60   30.20
  -5  22  -1   60.99   36.10
 -17  -5  -1  100.59   45.70
  22 -17  -1   11.60   44.40
  22 -17  -1  -25.20   28.90
  -5 -17   1   30.40   39.40
  22 -17  -1   48.90   32.90
 -17  -5  -1   81.59   40.00
 -22  16   1   -2.90   18.70
   6  16  -1    8.40   45.70
   6 -22   1   49.70   35.60
  16   6   1    1.70   42.50
  16 -22  -1  115.89   37.60
  16   6   1   49.70   30.80
  16 -22  -1   35.70   26.40
  22 -16  -1   20.60   39.20
  -6 -16   1    2.30   36.70
  22  -6   1   86.29   49.50
 -16  -6  -1   41.70   39.20
  22 -16  -1    8.20   27.80
  -6  22  -1   23.80   34.40
 -16  -6  -1  101.39   44.10
  22 -16  -1   42.50   32.70
   7 -22   1   34.40   39.70
   7  15  -1   -6.60   36.80
  15 -22  -1   58.69   35.60
  15 -22  -1   10.30   23.90
  -7 -15   1    2.50   36.00
 -15  -7  -1   -2.80   37.10
  -7  22  -1   15.90   32.90
  22  -7   1   46.90   47.10
  22 -15  -1   11.50   36.20
  22 -15  -1   31.30   30.20
 -15  22   1   26.90   33.00
 -15  -7  -1   41.40   37.20
  14 -22  -1   32.40   25.10
  14   8   1   41.20   27.10
  14   8   1  -47.50   39.20
  14 -22  -1   55.99   36.80
   8  14  -1  100.39   42.40
 -22  14   1    4.50   20.10
   8 -22   1   66.09   39.40
 -14  -8  -1   19.60   40.00
  -8  22  -1   49.10   32.70
 -14  22   1   97.49   39.80
  22 -14  -1   29.80   37.70
 -14  -8  -1   85.39   39.20
  22  -8   1   60.19   42.20
  -8 -14   1   66.89   39.50
  13   9   1   14.20   44.60
   9  13  -1   30.40   40.40
 -22   9  -1   83.99   31.50
   9 -22   1  117.29   44.70
  22 -13  -1   97.19   39.90
  22 -13  -1  106.99   33.90
  22  -9   1  134.59   44.30
 -13  -9  -1   68.49   40.90
  -9 -13   1   60.39   38.50
 -13  -9  -1   20.80   41.30
  12 -22  -1   45.30   37.90
 -22  10  -1   61.99   31.30
  10  12  -1  141.49   41.50
  12  10   1   47.80   28.80
  10 -22   1   86.99   45.90
  22 -12  -1  114.29   34.10
  22 -10   1  149.79   42.00
 -12 -10  -1   60.69   39.70
 -10 -12   1   64.19   41.50
 -10  22  -1  116.09   41.60
  22 -12  -1   58.09   39.00
 -12 -10  -1  101.89   42.10
 -22  11  -1   44.50   30.00
  11 -22   1  113.89   43.10
  11 -22   1   87.89   63.19
  11  11  -1   -5.90   41.90
  11 -22  -1   36.80   33.90
  11  11  -1  117.79   40.80
  11 -22   1   43.80   27.60
 -11  22  -1   67.19   38.60
 -11  22   1   30.70   32.20
 -11 -11  -1   69.99   38.80
 -11 -11  -1   87.89   43.60
  22 -11   1   87.59   39.20
  22 -11  -1   66.09   33.90
 -11 -11  -1  112.79   40.20
  22 -11  -1   97.89   43.70
 -11 -11   1   82.99   50.59
  12  10  -1  218.68   54.49
  10  12   1   85.99   44.70
  10 -22  -1  172.58   39.50
 -22  12  -1  111.49   32.20
  12 -22   1  184.28   35.70
 -22  10   1  151.18   38.40
  12  10  -1  102.19   31.90
 -12  22  -1  113.49   40.70
 -12 -10   1  236.38   55.89
  22 -12   1  269.97   49.90
 -10 -12  -1  316.47   63.09
 -10  22   1  224.78   47.30
 -10 -12  -1  209.98   43.50
 -22   9   1  192.48   45.80
   9 -22  -1  293.67   53.59
 -22  13  -1  191.48   48.50
  13 -22   1  391.26   60.39
  13   9  -1  357.06   62.49
  13 -22   1  248.28   39.80
  13   9  -1  341.57   58.39
  13 -22   1  346.17   69.19
  22  -9  -1  348.87   53.09
 -13  -9   1  305.77   60.89
 -13  22  -1  167.18   44.10
  -9  22   1  222.08   48.40
  22  -9  -1  280.17   59.29
 -13  -9   1  197.68   57.39
  22 -13   1  239.98   49.10
  -9 -13  -1  309.47   57.69
   8  14   1  170.08   48.90
  14   8  -1  252.57   56.19
  14   8  -1  163.78   52.49
  14 -22   1  186.88   39.10
 -22   8   1  192.68   49.10
   8 -22  -1   96.39   38.20
 -22  14  -1  170.58   38.50
 -14  22  -1   81.69   41.30
  22  -8  -1  222.88   54.69
  22 -14   1  245.58   48.70
  -8  22   1  139.69   38.10
 -14  -8   1  145.19   44.80
  22  -8  -1  307.77   57.19
 -14  -8   1   93.69   43.50
   7  15   1  527.25   65.39
  15 -22   1  698.93   73.99
  15   7  -1  561.94   62.99
   7 -22  -1  488.05   57.79
  15 -22   1  492.95   46.00
 -22  15  -1  489.15   55.49
 -15  -7   1  478.25   74.79
  -7  22   1  504.75   53.99
  22 -15   1  535.65   54.19
 -15  -7   1  517.75   65.39
  -7 -15  -1  462.25   62.99
  22  -7  -1  540.35   63.89
  16   6  -1  217.98   57.59
  16 -22   1  245.98   57.99
   6  16   1  119.49   44.60
 -22  16  -1  127.99   37.20
  16 -22   1  204.08   41.60
   6 -22  -1  214.18   52.39
  22  -6  -1  228.58   58.19
  -6  22   1  227.28   50.59
 -16  -6   1  221.38   47.30
  22  -6  -1  345.87   63.09
 -16  22  -1  150.48   50.79
  -6 -16  -1  112.19   38.00
  22 -16   1  217.48   48.00
 -16  -6   1  196.38   45.10
 -22  17  -1   93.29   38.20
  17   5  -1  150.88   55.09
  17   5  -1   39.70   29.20
   5  17   1  126.39   46.80
  17 -22   1  173.48   40.90
   5 -22  -1   54.09   33.20
  17   5  -1  178.98   69.69
 -17  22  -1   45.40   46.00
  -5  22   1   95.49   35.90
  22  -5  -1   87.49   39.70
  -5 -17  -1   64.79   40.30
 -17  -5   1  157.08   45.10
  22 -17   1   80.09   32.90
  18   4  -1  296.67   63.19
   4 -22  -1  302.97   55.79
  18   4  -1  203.48   53.09
 -22  18  -1  378.86   57.79
   4  18   1  310.57   63.19
  18 -22   1  343.57   43.20
  22  -4  -1  362.56   60.99
  22 -18   1  348.57   46.80
  -4 -18  -1  295.57   55.39
  -4  22   1  342.57   56.19
 -18  -4   1  489.55   70.59
 -18  22  -1  260.57   53.49
 -18  -4   1  377.46   61.99
   3  19   1  103.39   46.20
   3 -22  -1   58.49   33.50
  19 -22   1   95.09   33.70
  19   3  -1   74.89   30.40
  -3 -19  -1   74.69   34.60
  -3  22   1   85.99   40.30
 -19  -3   1  140.79   71.39
  22 -19   1   93.89   32.30
  17 -23  -1   75.49   38.80
   6  17  -1  -34.30   39.00
  17 -23  -1   10.90   25.60
  17   6   1  -80.19   42.70
   6 -23   1   51.59   39.00
  -6  23  -1   11.00   33.90
  23  -6   1  142.79   53.79
  23 -17  -1   58.39   34.30
  -6 -17   1    9.30   38.70
  16   7   1   17.50   30.70
   7 -23   1   33.10   39.10
   7  16  -1  -71.49   40.00
  16 -23  -1   25.90   38.00
 -23   7  -1   46.00   31.00
  16 -23  -1    4.00   24.40
 -16  -7  -1  -11.40   43.30
  23 -16  -1   40.20   34.00
  23 -16  -1   32.40   37.40
  -7  23  -1    4.50   31.10
 -16  -7  -1  -39.00   42.00
  -7 -16   1   -0.40   35.40
  15   8   1   24.60   31.20
  15 -23  -1   33.50   26.50
  15   8   1  -10.60   45.40
 -23   8  -1   45.30   29.00
  15 -23  -1   59.79   35.70
   8 -23   1   56.79   39.10
  23 -15  -1   12.90   40.30
 -15  -8  -1  -36.70   42.20
 -15  -8  -1   13.50   41.40
  -8  23  -1   24.60   32.50
  -8 -15   1   28.10   39.60
  23  -8   1  106.99   49.90
  14 -23  -1   45.70   39.50
   9 -23   1   61.29   39.00
  14   9   1  -38.20   39.40
   9  14  -1   -6.70   42.40
 -23   9  -1   15.60   29.40
  14   9   1    5.90   27.10
  -9 -14   1   27.10   38.10
  23  -9   1   59.99   40.00
 -14  -9  -1   16.90   40.30
 -14  -9  -1   35.60   40.80
  23 -14  -1   22.20   37.30
  23 -14  -1   46.30   33.30
  -9  23  -1    3.00   33.00
  13 -23  -1   49.40   35.10
 -23  10  -1   11.40   28.90
  13  10   1  -18.90   40.20
  10  13  -1  -44.30   41.00
  10 -23   1   51.99   39.80
  23 -13  -1   30.40   35.80
  23 -10   1   74.99   39.40
 -13 -10  -1   47.50   39.90
 -10 -13   1   39.70   41.40
  23 -13  -1   17.40   36.40
 -13 -10  -1  111.19   40.30
 -23  11  -1   28.40   30.20
  11  12  -1    8.00   45.00
  12  11   1  -15.60   27.40
  12 -23  -1   32.90   32.30
  12  11   1  -42.00   38.20
  11 -23   1   74.09   40.70
  11  12  -1   34.00   40.30
 -12 -11  -1   52.69   39.80
 -12 -11  -1   77.59   48.70
  23 -12  -1   61.39   36.20
 -12  23   1   15.50   31.30
  23 -12  -1   34.50   39.30
  23 -11   1   86.09   39.90
 -11 -12   1   25.60   39.20
  12 -23   1   36.50   27.70
  12 -23   1   69.79   47.30
  12  11  -1   79.99   41.40
  11  12   1   15.60   32.10
  11 -23  -1  105.29   38.60
  12  11  -1  112.09   44.20
 -23  12  -1   42.60   31.80
 -11 -12  -1   84.09   40.20
 -12 -11   1  121.39   43.00
 -11 -12  -1  134.49   51.09
 -11  23   1   39.50   34.50
  23 -12   1   65.19   35.90
  23 -11  -1   81.39   43.30
  23 -11  -1   87.99   39.40
 -23  13  -1   96.69   35.50
  10 -23  -1  130.29   38.10
  13  10  -1  139.29   52.59
  13 -23   1   76.59   26.00
  13  10  -1  186.58   44.50
 -13 -10   1  120.59   42.70
  23 -10  -1  166.08   44.40
  23 -13   1  214.08   51.09
 -10 -13  -1  114.69   48.20
 -13  23  -1   79.89   43.70
 -10  23   1  102.79   36.30
  14   9  -1  320.47   61.59
  14 -23   1  317.57   41.10
  14   9  -1  453.45   74.59
   9 -23  -1  342.87   56.39
 -23  14  -1  338.27   51.39
  14 -23   1  499.15   65.49
  -9  23   1  332.17   49.60
  23  -9  -1  396.56   62.89
  -9 -14  -1  320.07   60.99
  23 -14   1  362.56   51.39
 -14  -9   1  311.07   67.09
  15   8  -1  234.08   63.79
  15 -23   1  197.08   40.40
   8 -23  -1  161.68   44.10
 -23  15  -1  163.08   39.80
  15   8  -1  239.38   48.40
   8  15   1  129.39   49.60
  15 -23   1  349.57   75.59
  23  -8  -1  333.17   61.09
  23 -15   1  231.88   47.60
  -8 -15  -1  164.78   42.20
  23  -8  -1  279.47   60.09
 -15  23  -1  126.59   44.20
  -8  23   1  194.68   49.70
  16   7  -1  143.69   50.09
  16 -23   1  205.18   40.90
   7 -23  -1  130.39   35.60
   7  16   1   94.69   43.10
  16   7  -1  191.78   51.59
  16 -23   1  303.37   65.69
  16   7  -1  145.89   54.89
 -23  16  -1  231.58   53.59
 -16  23  -1   81.09   42.30
  23 -16   1  230.88   47.90
  23  -7  -1  252.47   58.79
  -7  23   1  148.39   39.50
  -7 -16  -1  107.49   39.00
 -16  -7   1  154.08   48.90
  17   6  -1  477.05   79.49
   6  17   1  480.95   65.39
   6 -23  -1  497.75   59.89
  17   6  -1  337.77   48.00
  17 -23   1  514.75   47.40
  23  -6  -1  643.44   72.99
  -6 -17  -1  429.66   61.59
 -17  -6   1  374.86   64.39
  23 -17   1  533.15   53.09
  -6  23   1  467.95   54.59
   0   0  -2  -10.40    9.60
   0   0  -2   36.20   22.10
   0   0  -2   18.80   10.00
   0   0   2   28.60   11.70
   0   0   2  -25.00   14.30
   0  -1   2   11.90   13.20
   0   1  -2   28.50   11.10
  -1   0  -2   28.30   10.00
  -1   1   2   29.90   11.00
  -1   0  -2   27.40   21.20
   0   1  -2   45.60   22.40
   1   0   2   -2.70   16.00
   0  -1   2   10.90   11.80
  -1   0  -2   26.20    9.60
   0  -1   2   50.79   13.50
   1  -1  -2   30.20   11.10
   1  -1  -2   49.70   21.60
   1  -1  -2   19.20   10.70
   1   0   2   64.49   17.20
   1   0  -2   96.29   18.40
   1  -1   2  103.39   16.50
   0  -1  -2  117.29   32.30
  -1   1  -2   72.29   16.90
  -1   1  -2  147.19   33.10
   0   1   2  127.09   19.00
   0   1   2  105.49   16.30
   0  -1  -2   80.99   17.90
  -1   0   2  100.99   20.80
   0  -1  -2   96.79   17.30
  -1   0   2   66.19   15.80
  -2   0  -2   19.80    9.60
   0  -2   2   18.20    9.80
  -2   0  -2   13.40    9.00
   2   0   2   23.50    9.40
   2  -2  -2   13.10   10.30
  -2   0  -2   14.80   18.40
  -2   2   2   30.40   11.10
   0   2  -2   32.00   22.60
  -2   2   2   32.60   11.00
   2  -2  -2   11.30   20.10
   0  -2   2   27.00   12.00
   2   0   2   16.20   17.90
   0   2  -2   29.70   11.30
   2  -2  -2   11.10   10.70
   1  -2   2   65.99   12.20
   1  -2  -2   82.09   22.30
   1  -2   2   57.99   14.90
   1  -2  -2   62.19   13.40
  -2   1   2   74.09   20.20
   1   1   2   49.10   17.00
   1  -2   2   53.49   12.70
   1   1  -2  109.59   25.70
  -2   1  -2   53.39   10.10
   1   1  -2   89.89   19.50
   1   1   2   71.29   16.20
   1  -2  -2   55.29   11.90
  -1  -1  -2   72.89   20.70
  -1   2  -2   73.19   12.60
   2  -1  -2   53.19   12.80
   2  -1  -2   96.69   25.10
   2  -1   2   60.09   11.10
   2  -1   2   53.89   18.00
  -1  -1  -2   79.19   12.90
   2  -1  -2   79.49   16.90
  -1  -1   2   51.99   13.70
  -1   2   2   89.59   17.90
  -1  -1   2   65.49   11.60
  -1  -1  -2   43.30   10.30
   2  -2   2 1763.72   61.09
  -2   0   2 1901.31   62.19
   2  -2   2 1869.31   59.89
   0  -2  -2 2055.59   70.19
   0   2   2 1940.01   64.99
   2  -2   2 1791.42   63.79
   2   0  -2 1925.01   63.49
  -2   0   2 1907.11   63.89
  -2   0   2 1694.93   55.49
  -2   2  -2 1935.61   70.29
   0   2   2 1779.12   61.19
   0  -2  -2 1970.10   62.59
   2   0  -2 2131.39   74.39
  -2   2  -2 1833.62   60.39
   0   3  -2  300.47   25.10
  -3   3   2  256.97   17.60
   3   0   2  267.07   30.30
   0  -3   2  292.77   27.40
   3  -3  -2  309.37   21.60
   0   3  -2  308.47   36.90
  -3   3   2  260.87   22.20
   3   0   2  284.47   17.70
   3  -3  -2  274.27   22.10
   0  -3   2  283.07   23.50
   0  -3   2  271.97   16.00
  -3   0  -2  289.87   30.70
  -3   0  -2  293.67   17.50
   3  -3  -2  329.07   33.80
  -3   1  -2  443.06   20.80
   1  -3   2  468.15   25.20
  -3   2   2  468.85   26.50
   2   1   2  491.85   29.20
   1  -3   2  506.45   29.00
   2  -3  -2  481.35   36.60
  -3   1  -2  451.25   33.70
   2  -3  -2  461.55   26.20
   2   1   2  453.25   22.50
   1  -3   2  473.35   23.30
   2   1   2  434.66   31.40
   1   2  -2  476.35   40.00
   2  -3  -2  438.26   25.20
   1   2  -2  473.05   27.30
  -3   1  -2  468.15   20.20
  -3   2   2  410.96   19.30
   3  -2  -2  437.96   24.70
  -2  -1  -2  432.26   34.40
  -1  -2   2  448.86   17.80
   3  -2  -2  466.05   37.70
  -2   3   2  406.56   25.50
  -1  -2   2  472.65   26.10
  -2   3   2  468.85   23.80
   3  -2  -2  437.26   26.10
  -1   3  -2  489.05   26.90
   3  -1   2  477.25   22.30
  -2  -1  -2  440.46   23.60
  -1   3  -2  443.76   38.10
  -1  -2   2  484.65   29.70
   3  -1   2  391.76   32.80
   2  -3   2  968.20   36.00
  -3   1   2  898.31   29.50
   1  -3  -2 1009.80   38.50
   1   2   2  964.50   35.90
  -3   1   2  974.80   39.30
  -3   2  -2  924.31   45.50
   2   1  -2  907.61   50.49
   2  -3   2  943.31   38.50
   1   2   2  948.51   42.20
   2   1  -2  961.50   38.90
   2  -3   2 1035.20   39.10
   1   2   2  927.01   42.20
   1  -3  -2  918.71   46.50
  -3   2  -2  950.30   34.00
   3  -2   2  969.60   33.80
  -1  -2  -2  955.60   37.10
  -2  -1   2  945.01   28.50
   3  -2   2  911.71   41.90
   3  -1  -2  995.70   38.90
  -1  -2  -2  883.11   44.60
   3  -2   2 1028.30   35.90
  -2   3  -2  966.80   37.00
  -2  -1   2  962.40   41.00
   3  -1  -2  985.50   37.00
  -1   3   2  972.10   44.00
  -1   3   2  933.91   37.10
  -2  -1   2  948.81   38.40
   3  -1  -2  916.11   49.40
  -2   3  -2  883.01   46.50
  -1   3   2  936.51   38.00
   0   3   2  114.39   19.50
  -3   0   2   96.89   21.00
   0  -3  -2   83.99   14.40
  -3   3  -2   98.09   21.00
  -3   3  -2   83.19   15.80
   3   0  -2   71.69   19.30
  -3   0   2   69.39   14.10
   0   3   2   55.69   11.20
   0  -3  -2   98.69   20.70
   0   3   2   64.19   17.50
   3  -3   2  120.59   19.30
   3  -3   2   94.79   16.20
   3  -3   2   83.29   18.40
   0  -4   2  125.99   26.50
  -4   4   2   85.19   19.00
   0  -4   2   85.39   12.80
   4  -4  -2  133.49   24.70
   4   0   2   76.39   13.00
   4   0   2   89.69   21.00
   4  -4  -2   71.59   18.40
   4   0   2   78.49   14.00
   4  -4  -2   79.69   19.40
  -4   0  -2  107.79   27.60
  -4   0  -2   75.79   13.70
   0   4  -2  106.79   22.70
   0  -4   2  123.29   21.80
   3   1   2  359.86   32.80
   3   1   2  384.66   20.10
  -4   3   2  352.36   18.00
  -4   1  -2  368.96   17.80
   1  -4   2  382.56   20.20
   1   3  -2  339.57   37.80
   1  -4   2  436.76   25.30
  -4   3   2  401.06   25.20
   3   1   2  387.76   27.80
   3  -4  -2  320.17   32.70
   1   3  -2  397.16   26.80
   3  -4  -2  340.77   25.80
  -4   1  -2  333.07   31.60
  -3  -1  -2  332.07   32.50
  -1   4  -2  353.26   36.80
  -1  -3   2  436.96   29.80
  -1  -3   2  412.86   16.80
   4  -3  -2  367.36   35.70
   4  -1   2  377.86   33.10
  -3  -1  -2  377.46   21.40
   4  -3  -2  374.26   24.40
  -3   4   2  400.86   24.80
   4  -3  -2  392.86   25.20
   4  -1   2  439.26   19.30
  -1  -3   2  429.46   25.80
  -3   4   2  344.77   21.10
   2   2  -2  239.78   36.10
   2   2   2  290.17   27.60
  -4   2  -2  289.67   32.00
   2  -4   2  336.57   22.60
   2   2   2  285.57   19.80
  -4   2   2  275.17   13.80
  -4   2  -2  303.97   16.30
   2  -4  -2  282.97   24.80
  -4   2   2  296.37   24.30
   2   2  -2  325.47   25.10
   2  -4   2  378.16   27.00
   2   2   2  298.07   31.30
   2  -4  -2  280.67   31.60
   2  -4   2  297.07   21.70
   4  -2   2  320.67   18.30
  -2  -2  -2  260.17   29.70
  -2   4  -2  290.17   33.90
   4  -2   2  303.57   17.00
  -2   4   2  336.07   22.80
  -2  -2  -2  307.37   22.40
   4  -2  -2  319.37   35.80
   4  -2   2  282.77   29.20
   4  -2  -2  348.97   23.60
  -2  -2   2  336.87   29.20
   4  -2  -2  307.17   22.40
  -2  -2   2  363.56   24.30
  -2   4   2  334.17   22.60
  -2   4  -2  319.67   23.00
  -2   4   2  325.47   30.90
   1   3   2 2193.88   73.19
   3  -4   2 2084.29   69.49
   3   1  -2 2155.78   70.89
  -4   1   2 2135.89   71.09
   1  -4  -2 2210.58   70.89
  -4   3  -2 2059.69   75.79
   3  -4   2 2043.70   66.79
   3  -4   2 2152.98   70.29
   1   3   2 2144.39   74.09
   3   1  -2 2165.48   80.29
  -4   3  -2 2130.99   65.29
   1  -4  -2 2209.68   75.59
   4  -1  -2 2000.00   79.19
  -1   4   2 2125.69   75.59
  -3  -1   2 2062.29   71.49
  -1  -3  -2 2045.90   73.69
   4  -1  -2 2127.39   70.49
   4  -3   2 2103.69   66.69
  -3  -1   2 2115.89   68.99
   4  -3   2 2100.19   64.89
  -3   4  -2 2061.09   76.09
   4  -3   2 2038.90   72.29
  -1   4   2 2041.70   68.69
  -3   4  -2 2019.70   67.39
  -1  -3  -2 2130.59   69.59
  -1   4   2 2222.78   70.59
  -4   4  -2 2893.51   92.59
   0  -4  -2 3219.08   99.89
   4  -4   2 2990.50   94.99
   0   4   2 3167.78   98.39
   4  -4   2 3046.70   98.59
   0   4   2 3049.09  101.59
   4   0  -2 3198.38  106.49
   4  -4   2 3020.80   92.59
  -4   4  -2 2934.81  100.69
   4   0  -2 3002.70   96.69
   0  -4  -2 3166.28   96.89
  -4   0   2 3027.70   97.89
  -4   0   2 3024.50   95.49
   0   5  -2  169.58   33.60
   0  -5   2  151.78   14.90
   5  -5  -2  154.08   22.60
   0  -5   2  157.88   25.30
   5  -5  -2  184.78   31.30
  -5   5   2  150.78   21.10
  -5   0  -2  148.59   15.10
   0   5  -2  200.48   26.00
  -5   0  -2  174.08   30.20
   5   0   2  152.68   13.70
   5   0   2  170.78   27.60
   0  -5   2  176.58   31.10
   5   0   2  132.19   22.00
   1   4  -2  138.39   34.30
   1  -5   2  243.88   30.40
   4  -5  -2  202.28   22.80
   4   1   2  126.69   30.10
   1  -5   2  210.78   24.90
   4   1   2  158.08   24.70
   4  -5  -2  145.69   29.50
  -5   4   2  198.58   21.70
  -5   1  -2  158.08   27.90
  -5   1  -2  148.29   13.00
   1  -5   2  185.38   16.40
   1   4  -2  216.38   25.00
  -4  -1  -2  145.49   26.80
  -1   5  -2  226.18   24.80
  -1  -4   2  240.28   29.70
  -1  -4   2  229.18   23.80
   5  -4  -2  148.49   20.30
   5  -1   2  184.28   13.60
   5  -4  -2  183.98   20.60
  -4  -1  -2  168.58   17.90
   5  -4  -2  166.48   32.80
  -1  -4   2  175.78   13.60
  -4   5   2  170.48   21.50
  -1   5  -2  169.68   34.40
  -4   5   2  219.48   30.10
   5  -1   2  127.39   31.60
   5  -1   2  164.58   19.10
   2  -5   2  562.34   25.90
   3  -5  -2  567.44   36.20
   2  -5   2  581.94   35.60
   3   2   2  554.34   34.80
   2  -5   2  554.44   29.80
  -5   2  -2  524.25   36.10
  -5   3   2  593.14   29.90
   3   2   2  586.44   37.50
   2   3  -2  511.05   40.80
   3  -5  -2  525.65   30.20
   2   3  -2  514.95   30.60
   5  -2   2  539.85   22.00
   5  -3  -2  506.85   27.30
   5  -2   2  503.55   35.60
  -3   5   2  494.35   28.30
  -2   5  -2  566.94   30.70
  -3   5   2  503.15   26.50
   5  -3  -2  497.25   39.60
  -2  -3   2  554.14   33.90
  -3  -2  -2  494.05   34.40
  -2   5  -2  542.85   40.20
  -3   5   2  475.95   36.60
  -3  -2  -2  538.15   26.80
   5  -3  -2  551.64   28.70
  -2  -3   2  551.64   29.90
   3  -5   2 2516.95   82.89
   2   3   2 2506.35   85.29
   2   3   2 2504.85   86.09
   3   2  -2 2490.35   73.29
   3  -5   2 2533.85   78.99
   2  -5  -2 2520.05   82.09
  -5   3  -2 2482.05   74.29
   3   2  -2 2476.25   90.39
   3  -5   2 2503.85   80.09
   2  -5  -2 2553.84   84.89
  -5   3  -2 2357.36   85.29
  -5   2   2 2427.06   80.79
   3   2  -2 2433.46   81.49
  -2  -3  -2 2476.35   82.89
  -3  -2   2 2463.35   83.29
   5  -3   2 2481.05   75.59
   5  -2  -2 2534.95   80.89
   5  -2  -2 2469.15   89.99
  -3   5  -2 2306.07   85.69
  -3   5  -2 2408.06   79.59
  -2  -3  -2 2480.25   79.79
  -3  -2   2 2500.25   80.59
   5  -3   2 2528.15   74.29
  -2   5   2 2447.26   80.19
  -2   5   2 2463.75   80.39
  -2  -3  -2 2295.17   82.69
  -2   5   2 2429.76   87.09
   5  -2  -2 2505.05   79.29
   5  -3   2 2501.75   85.59
   5  -2  -2 2427.56   71.89
   4  -5   2  190.58   23.70
   1   4   2  182.88   32.40
  -5   1   2  170.58   22.10
   1  -5  -2  197.48   28.70
  -5   1   2  179.78   24.40
   4   1  -2  227.78   24.60
  -5   4  -2  194.38   29.80
  -5   4  -2  229.68   15.90
   4  -5   2  212.78   25.70
   1   4   2  175.08   29.20
   4   1  -2  203.38   35.90
   4  -5   2  218.28   20.00
   1  -5  -2  217.88   25.30
   5  -4   2  207.98   17.10
   5  -1  -2  213.48   35.40
  -4   5  -2  220.08   20.40
  -1  -4  -2  194.28   23.30
   5  -1  -2  210.48   22.70
  -4  -1   2  227.48   26.80
  -1   5   2  179.18   30.70
   5  -4   2  247.88   21.60
  -1  -4  -2  230.08   28.30
  -1  -4  -2  194.38   27.50
  -4   5  -2  207.28   31.50
  -4  -1   2  192.18   22.40
  -1   5   2  201.38   25.00
   5  -4   2  197.88   28.80
   5   0  -2 4241.08  135.29
   5  -5   2 4489.95  137.49
   0  -5  -2 4622.84  136.69
   5  -5   2 4361.66  133.69
  -5   5  -2 4048.50  130.49
  -5   5  -2 4407.26  139.89
   0  -5  -2 4534.45  137.29
  -5   0   2 4209.28  136.29
   5  -5   2 4449.25  131.49
  -5   0   2 4493.95  134.49
   0   5   2 4619.94  137.79
   0  -5  -2 4374.66  139.49
   5   0  -2 4550.24  145.69
   0   5   2 4509.45  141.49
  -6   6   2   89.49   19.90
   6   0   2   69.29   23.10
   6   0   2   61.39   15.10
   0  -6   2  111.39   14.90
   0   6  -2   72.19   17.20
   0  -6   2   79.99   19.00
  -6   0  -2   69.59   14.10
   6  -6  -2   92.19   14.10
   6  -6  -2   97.49   22.90
   0   6  -2  125.69   34.00
   0  -6   2   65.09   18.80
   6  -6  -2   84.49   17.30
  -6   6   2   64.99   18.60
   5  -6  -2   65.19   21.30
   1   5  -2   50.99   23.10
   1  -6   2   70.99   15.10
   1  -6   2   93.19   17.70
  -6   1  -2   65.09   11.40
   5  -6  -2   88.99   18.20
   1   5  -2  114.89   25.60
  -6   5   2   86.09   20.60
   1  -6   2  115.49   29.80
  -5   6   2  107.19   20.30
  -5   6   2   61.69   18.60
  -1  -5   2   51.09   13.00
  -5  -1  -2   75.39   20.40
   6  -5  -2   72.79   12.40
  -1   6  -2   67.49   23.90
  -1   6  -2   80.99   16.50
  -1  -5   2  125.99   29.40
   6  -1   2   88.59   13.00
   6  -1   2   67.29   10.90
  -5  -1  -2   77.29   16.30
   6  -5  -2   55.89   12.60
   6  -5  -2   66.19   21.10
  -6   4   2  169.78   21.50
   2   4  -2  198.28   25.90
   4  -6  -2  167.68   28.40
   2  -6   2  187.58   30.90
   2   4  -2  182.68   41.40
   2  -6   2  192.28   17.80
   2   4  -2  183.18   15.40
   2  -6   2  208.58   25.70
   4   2   2  166.78   27.20
   4   2   2  179.88   27.30
  -4  -2  -2  183.28   24.00
  -2   6  -2  184.78   33.40
   6  -4  -2  183.58   34.40
   6  -4  -2  199.18   20.80
  -4   6   2  165.78   21.00
  -2  -4   2  199.38   30.50
  -2   6  -2  203.68   25.60
   6  -2   2  158.48   31.00
  -4   6   2  159.38   19.90
   6  -4  -2  184.48   21.00
   6  -2   2  195.98   12.70
  -4  -2  -2  164.28   27.60
   6  -2   2  163.38   16.50
  -4  -2  -2  181.28   20.10
  -4   6   2  200.28   31.50
   6  -4  -2  170.58   12.90
   3   3  -2  104.89   23.50
  -6   3  -2   91.29    9.80
   3  -6   2   99.09   18.50
   3  -6  -2   78.39   19.80
   3  -6   2  112.09   22.00
   3   3   2   75.49   24.20
   3   3  -2   59.19   13.20
  -6   3   2  122.19   21.70
   3   3  -2   84.49   25.20
   3  -6   2  145.99   29.30
   3   3   2  139.49   21.10
   6  -3  -2   94.29   18.60
   6  -3  -2   91.69   19.40
   6  -3  -2  113.19   27.00
   6  -3   2   74.69   20.90
   6  -3  -2   91.49    9.70
   6  -3   2  111.29   11.10
  -3  -3  -2   73.59   19.30
  -3   6  -2   60.09   21.10
  -3  -3  -2   88.89   17.50
  -3  -3  -2   89.29   21.10
  -3   6  -2  136.09   23.20
  -3   6   2  101.39   20.40
  -3   6   2   99.09   20.30
   2  -6  -2 3982.70  125.99
   2  -6  -2 4154.98  123.99
   4  -6   2 3873.11  120.39
   4  -6   2 3675.83  121.79
   4  -6   2 3878.61  119.09
   2   4   2 3619.74  129.89
   4   2  -2 3858.51  121.89
   4   2  -2 4018.70  129.89
  -6   2   2 3796.92  121.09
   2   4   2 3858.81  123.49
   4   2  -2 4196.88  114.89
  -6   4  -2 3891.41  113.69
   2  -6  -2 3541.15  126.79
   6  -2  -2 3813.32  112.49
   6  -4   2 3912.91  115.79
  -2  -4  -2 3822.22  121.89
   6  -4   2 3961.10  125.29
  -2  -4  -2 4103.09  121.29
  -2   6   2 3981.70  127.69
  -4   6  -2 3891.11  127.39
  -2   6   2 4025.70  121.29
   6  -4   2 3860.11  114.09
  -2  -4  -2 3928.61  124.19
   6  -2  -2 3827.82  120.49
  -4  -2   2 3661.83  122.39
  -4   6  -2 3737.63  119.09
   5   1  -2 7539.75  213.18
   5   1  -2 7290.27  220.18
   5  -6   2 7355.96  220.08
  -6   5  -2 7174.48  214.18
   5  -6   2 7740.13  217.58
   1  -6  -2 6375.06  234.08
   5  -6   2 7416.96  220.98
   5   1  -2 6857.71  239.58
   1   5   2 7457.15  224.18
   1   5   2 7213.58  222.48
  -6   1   2 7343.57  220.88
   1  -6  -2 7831.32  221.78
   1  -6  -2 7355.26  224.88
   6  -1  -2 7387.16  228.88
   6  -5   2 7208.68  214.38
   6  -5   2 7448.45  223.28
  -1  -5  -2 7722.83  221.08
   6  -1  -2 7434.26  220.08
   6  -5   2 7416.06  216.98
  -1  -5  -2 7361.26  221.18
  -5  -1   2 7366.56  220.68
  -5   6  -2 6773.62  222.38
  -1   6   2 7503.25  221.18
  -5  -1   2 7227.48  221.48
  -1   6   2 7492.15  226.38
  -5   6  -2 6952.90  216.68
  -1  -5  -2 7314.97  223.98
   6  -1  -2 7252.07  211.98
   6  -6   2  208.18   25.20
   6   0  -2  266.27   24.40
   6  -6   2  224.58   19.40
  -6   0   2  234.18   26.30
   0   6   2  229.58   33.00
   6   0  -2  171.78   36.50
   0  -6  -2  178.88   32.20
   6   0  -2  171.18   13.50
  -6   6  -2  234.08   19.00
   0  -7   2   82.59   16.60
   0   7  -2  127.49   27.00
   7  -7  -2   96.29   23.60
   0   7  -2  148.49   31.40
  -7   0  -2  104.09   28.60
  -7   7   2  110.19   21.20
   7   0   2  122.59   23.90
   7  -7  -2  109.19   16.40
   0  -7   2  151.28   35.50
  -7   0  -2  105.69   15.30
   7  -7  -2  112.09   30.70
   7   0   2  112.99   27.50
   0  -7   2  124.99   22.30
  -7   7   2  122.09   23.80
   6  -7  -2  482.45   31.20
  -7   1  -2  470.65   34.90
   6  -7  -2  501.85   35.10
   1  -7   2  414.46   38.00
  -7   6   2  464.45   28.10
   6   1   2  439.96   32.60
   1  -7   2  446.46   24.30
   1   6  -2  434.76   34.70
   6   1   2  426.86   41.40
   6  -7  -2  502.65   23.50
   1  -7   2  435.36   32.60
   1   6  -2  481.35   40.50
  -7   1  -2  464.05   19.20
  -1  -6   2  385.96   36.60
  -1   7  -2  454.45   35.00
  -6  -1  -2  492.15   24.50
  -6   7   2  435.66   27.90
   7  -1   2  419.06   41.10
  -1  -6   2  422.66   32.80
  -6   7   2  432.16   38.70
  -1   7  -2  477.65   40.30
   7  -6  -2  478.65   38.00
  -6  -1  -2  437.26   27.60
   7  -1   2  440.56   18.20
   7  -6  -2  452.45   28.80
   7  -6  -2  430.26   21.70
   7  -1   2  436.86   25.70
   2  -7   2  191.68   33.40
   2   5  -2  196.88   28.70
   5  -7  -2  187.18   25.20
   2  -7   2  181.88   18.70
   2   5  -2  185.58   18.10
   5   2   2  137.69   28.80
  -7   2  -2  203.28   30.80
  -7   5   2  194.68   23.00
   5   2   2  163.08   30.80
   2  -7   2  215.08   26.40
   5  -7  -2  197.98   29.40
   2   5  -2  225.98   36.30
  -2   7  -2  198.18   34.80
  -5   7   2  182.48   33.00
  -5   7   2  144.39   20.00
  -2  -5   2  222.78   32.70
  -5   7   2  169.08   22.40
  -2  -5   2  172.88   27.10
   7  -2   2  170.98   16.80
   7  -5  -2  164.68   20.70
  -5  -2  -2  182.18   24.80
   7  -5  -2  186.78   14.60
   7  -5  -2  187.68   21.80
   7  -2   2  214.68   30.70
  -5  -2  -2  211.88   30.60
  -2   7  -2  184.18   28.20
   7  -2   2  187.68   11.20
  -5  -2  -2  177.88   20.30
   3   4  -2 1154.18   58.49
   4  -7  -2 1227.68   50.59
   3  -7   2 1260.87   55.69
  -7   3  -2 1200.68   53.29
  -7   4   2 1225.58   47.70
   4   3   2 1213.08   57.09
   3   4  -2 1202.18   50.39
   3  -7   2 1273.07   49.20
   3   4  -2 1243.48   42.60
   3  -7   2 1212.68   45.20
   4   3   2 1250.57   53.39
   4  -7  -2 1195.38   51.39
  -4   7   2 1207.18   46.60
  -4  -3  -2 1131.69   49.99
   7  -4  -2 1193.18   39.80
  -4  -3  -2 1306.77   46.90
   7  -4  -2 1207.28   57.29
   7  -4  -2 1148.69   46.30
  -3   7  -2 1248.18   50.49
  -3   7  -2 1185.98   56.19
  -4  -3  -2 1234.18   50.89
  -3  -4   2 1202.48   53.69
  -3  -4   2 1202.58   49.00
   7  -3   2 1262.97   57.09
  -4   7   2 1221.38   56.29
   7  -4  -2 1218.18   46.90
   4  -7   2 3901.51  122.99
   3  -7  -2 3828.72  120.49
   4  -7   2 3789.42  117.49
   3  -7  -2 3883.51  124.39
   3   4   2 3730.13  124.49
  -7   4  -2 3687.63  109.39
   4   3  -2 3904.71  113.99
  -7   3   2 3735.93  118.39
  -7   4  -2 3791.32  123.49
   4  -7   2 3866.71  118.29
   3  -7  -2 3935.11  121.09
   4   3  -2 3744.83  120.19
   3   4   2 3860.81  123.89
  -4  -3   2 3698.83  118.19
  -3  -4  -2 3662.63  119.69
   7  -3  -2 3715.83  111.39
  -3  -4  -2 3882.11  122.79
   7  -3  -2 3830.52  126.99
  -4   7  -2 3520.95  122.59
  -3   7   2 3884.51  118.69
   7  -4   2 3704.93  109.89
   7  -3  -2 3645.74  117.29
  -4   7  -2 3736.83  118.79
   7  -4   2 3730.23  124.09
   7  -4   2 3820.32  111.39
   7  -3  -2 3791.82  118.49
  -3  -4  -2 3883.01  118.69
  -4  -3   2 3712.73  121.99
  -3   7   2 3839.62  126.19
  -7   2   2  157.28   23.30
   5   2  -2  178.98   36.50
   5   2  -2  225.78   26.10
   5  -7   2  218.58   23.50
   2  -7  -2  192.38   27.90
   2   5   2  181.98   34.80
   5  -7   2  199.28   30.00
   2  -7  -2  195.48   32.30
   5  -7   2  176.28   22.10
  -7   5  -2  183.18   32.90
   2   5   2  147.49   32.80
   2  -7  -2  172.98   26.30
  -7   2   2  199.28   25.20
   5   2  -2  184.48   18.10
  -7   5  -2  201.58   13.20
   7  -2  -2  150.78   22.00
  -2   7   2  180.58   25.30
  -2  -5  -2  224.28   25.00
  -5  -2   2  187.28   28.00
  -5   7  -2  182.78   31.10
   7  -2  -2  183.88   33.50
   7  -5   2  143.99   31.80
  -2  -5  -2  141.89   26.10
  -2   7   2  188.78   37.50
  -2  -5  -2  186.98   30.00
   7  -5   2  191.98   14.90
  -5   7  -2  216.68   23.90
   7  -5   2  187.58   19.60
  -5  -2   2  191.58   24.20
   7  -2  -2  177.48   12.80
  -7   1   2 6396.56  201.38
  -7   1   2 6600.64  199.68
   6  -7   2 6544.45  197.98
   1   6   2 6639.44  204.08
   1  -7  -2 7244.58  201.88
   6   1  -2 6552.14  201.18
   6   1  -2 6941.81  195.68
   6   1  -2 6632.24  210.08
   1  -7  -2 6824.72  203.38
  -7   6  -2 6047.60  194.18
   1  -7  -2 6649.23  206.98
   1   6   2 6779.72  207.58
   6  -7   2 6736.53  202.28
   6  -7   2 6750.92  202.68
  -7   6  -2 6367.06  203.58
  -6   7  -2 6448.35  197.98
  -1   7   2 6880.31  202.68
   7  -1  -2 6509.45  200.68
  -1  -6  -2 7189.28  202.38
  -6  -1   2 6568.54  200.08
   7  -1  -2 6816.92  209.58
   7  -1  -2 6560.44  194.18
   7  -6   2 6632.94  195.18
  -1   7   2 6723.93  207.38
  -1  -6  -2 7126.19  205.28
  -1  -6  -2 6712.83  206.58
   7  -6   2 6779.92  198.28
  -6  -1   2 6317.27  202.58
  -6   7  -2 6445.46  204.98
   7  -6   2 6764.02  204.68
   7   0  -2 9348.46  281.67
   7   0  -2 9514.25  290.07
  -7   0   2 9769.02  280.87
  -7   7  -2 8946.40  276.67
   0   7   2 9232.48  283.57
   7   0  -2 9727.53  275.97
   0  -7  -2 9281.47  281.17
   7  -7   2 9676.83  277.47
  -7   7  -2 8879.21  284.07
   0  -7  -2 9711.93  288.37
   7  -7   2 9450.35  284.37
  -7   0   2 9394.06  282.87
   7  -7   2 9753.12  280.87
   0  -7  -2 9999.00  284.37
   0   7   2 9970.40  289.67
   8   0   2  750.22   79.59
   0   8  -2  669.03   47.00
   0  -8   2  545.95   41.30
   0   8  -2  619.64   42.40
  -8   0  -2  668.43   40.90
   8  -8  -2  624.64   35.90
   8   0   2  547.45   32.10
   0  -8   2  576.84   29.30
  -8   0  -2  628.94   26.70
   0  -8   2  541.95   48.60
   8  -8  -2  606.34   28.70
  -8   8   2  595.14   33.70
  -8   0  -2  595.04   29.70
  -8   7   2  141.89   23.40
   1  -8   2  148.69   38.90
   7  -8  -2  180.08   28.30
   7   1   2  163.28   28.50
   7  -8  -2  157.38   18.10
   1  -8   2  146.49   24.70
  -8   1  -2  169.78   13.40
   7  -8  -2  149.88   31.10
   1   7  -2  168.88   36.30
   1  -8   2  171.58   19.50
  -8   1  -2  131.69   30.80
  -8   7   2  146.49   32.50
   8  -7  -2  139.29   32.10
   8  -7  -2  165.88   25.40
  -1  -7   2  158.48   36.80
  -7   8   2  138.29   35.20
  -1   8  -2  194.38   32.40
  -1  -7   2  148.09   30.90
  -7  -1  -2  179.38   30.20
  -1   8  -2  171.78   36.10
   8  -1   2  139.59   11.70
   8  -1   2  179.28   32.80
   8  -1   2  156.28   19.80
  -7  -1  -2  160.98   24.10
  -7  -1  -2  135.59   19.30
   8  -7  -2  152.88   17.30
  -7   8   2  159.38   24.00
   2   6  -2  751.02   49.70
   6   2   2  835.72   44.00
  -8   6   2  859.81   38.70
   6  -8  -2  855.61   41.90
   2  -8   2  848.82   35.20
   2  -8   2  835.12   43.40
   2  -8   2  815.02   50.59
   2   6  -2  833.22   44.00
   6  -8  -2  817.52   44.10
  -8   2  -2  805.72   44.70
   6   2   2  759.12   47.80
   2   6  -2  805.72   35.00
  -6   8   2  837.02   49.80
  -2  -6   2  807.02   47.90
   8  -6  -2  802.32   31.60
  -2   8  -2  836.12   50.29
   8  -6  -2  809.12   47.10
  -2  -6   2  830.12   42.50
  -2   8  -2  879.81   44.00
  -6  -2  -2  846.12   40.00
  -6  -2  -2  880.21   36.10
   8  -6  -2  767.42   37.50
  -6   8   2  818.72   37.80
   8  -6  -2  798.62   38.30
   8  -2   2  806.22   49.50
   3   5  -2 1255.77   44.70
   3  -8   2 1167.58   56.69
   5  -8  -2 1216.48   51.59
  -8   5   2 1195.08   47.90
   5   3   2 1190.88   58.89
   5  -8  -2 1214.88   51.89
   3   5  -2 1168.58   52.09
  -8   3  -2 1223.58   54.39
   3  -8   2 1226.78   46.00
  -5   8   2 1232.88   57.89
  -3   8  -2 1217.88   53.19
  -3  -5   2 1200.88   50.59
   8  -5  -2 1186.18   46.60
  -3  -5   2 1152.98   55.99
  -3   8  -2 1145.89   54.89
  -5   8   2 1209.08   47.30
  -5  -3  -2 1266.27   51.39
   8  -5  -2 1147.49   47.20
   8  -5  -2 1174.78   41.10
   8  -3   2 1133.49   55.79
   8  -5  -2 1200.78   57.99
  -5  -3  -2 1262.67   47.00
  -5  -3  -2 1228.68   52.89
   4   4   2  270.87   38.50
   4  -8   2  195.18   33.70
  -8   4   2  222.48   24.70
   4   4  -2  278.97   22.30
   4  -8  -2  252.07   29.70
   4  -8   2  208.88   27.00
   4   4  -2  241.38   29.30
  -8   4  -2  297.07   33.20
   4   4   2  221.98   37.60
   4  -8  -2  259.17   32.80
   4  -8  -2  260.87   28.70
   4   4  -2  287.17   38.50
  -4  -4  -2  229.98   25.00
  -4   8  -2  281.77   34.90
  -4  -4  -2  255.17   29.50
  -4  -4   2  220.18   28.40
  -4   8   2  236.68   37.20
  -4  -4  -2  223.38   30.90
   8  -4  -2  219.08   16.20
   8  -4  -2  249.97   36.10
   8  -4   2  165.18   34.40
  -4   8  -2  233.78   30.50
   8  -4  -2  177.48   23.60
  -4  -4   2  212.78   35.10
   3   5   2 4000.60  128.09
  -8   3   2 3913.11  122.09
   5   3  -2 3925.21  117.69
   5  -8   2 3875.81  121.39
   5   3  -2 3836.42  131.79
   3  -8  -2 3665.33  121.19
  -8   5  -2 3756.42  125.99
   5   3  -2 3825.62  123.29
   3  -8  -2 3941.41  124.99
   3   5   2 3716.93  126.39
   5  -8   2 3976.70  127.19
   5  -8   2 3951.50  121.79
   3  -8  -2 3913.81  128.79
  -3  -5  -2 3698.33  122.09
  -3  -5  -2 3817.52  126.59
  -5   8  -2 3938.21  122.99
  -3   8   2 3974.10  122.69
  -3  -5  -2 3952.20  122.49
   8  -3  -2 4029.00  121.99
   8  -3  -2 3820.32  115.19
  -3   8   2 4026.60  131.49
  -5   8  -2 3429.96  131.29
  -5  -3   2 3785.62  121.09
  -5  -3   2 3807.32  124.79
   8  -3  -2 3821.02  131.29
   6   2  -2 7537.25  232.78
  -8   6  -2 7150.68  214.78
   6  -8   2 7969.40  227.48
   2  -8  -2 7631.34  226.08
   2   6   2 7636.84  229.88
  -8   2   2 7475.45  221.58
   6  -8   2 7425.96  224.08
  -8   6  -2 7241.88  227.28
   6   2  -2 7388.46  224.48
   2  -8  -2 7425.76  221.98
   6   2  -2 7862.11  219.88
   2  -8  -2 7374.26  229.78
  -8   2   2 7419.26  223.98
   2   6   2 7172.38  226.88
   6  -8   2 7641.94  221.78
  -6  -2   2 7292.37  225.68
   8  -6   2 7300.77  217.18
  -2   8   2 7512.75  230.58
  -6  -2   2 7092.59  221.78
  -2  -6  -2 7558.14  228.88
  -2   8   2 7323.97  224.38
  -6   8  -2 7257.77  222.08
  -6   8  -2 6816.12  225.48
   8  -6   2 7508.45  228.18
   8  -6   2 7187.68  214.98
   8  -2  -2 7350.46  216.88
  -2  -6  -2 7710.03  224.68
   8  -2  -2 7596.14  232.78
   8  -2  -2 7419.06  222.98
  -2  -6  -2 7012.00  222.18
  -8   7  -2 1029.50   37.20
   7  -8   2 1017.20   45.60
  -8   7  -2  934.91   52.69
   7   1  -2 1081.59   40.40
  -8   1   2 1045.70   46.60
   7  -8   2 1141.49   49.99
   1  -8  -2  961.40   45.40
   7  -8   2 1133.99   43.10
   1  -8  -2 1034.70   49.40
  -8   1   2 1012.20   43.40
   1   7   2 1098.79   58.49
   1  -8  -2 1033.10   55.89
   7   1  -2 1085.59   46.20
   1   7   2  953.60   50.39
   7   1  -2  909.71   54.39
  -1  -7  -2  876.31   45.60
   8  -1  -2  982.60   38.50
  -7  -1   2 1035.50   48.20
   8  -7   2 1042.30   43.80
  -1   8   2 1069.19   66.19
  -1   8   2  893.11   47.30
  -1  -7  -2 1070.49   53.69
  -7  -1   2 1039.20   44.90
   8  -7   2  976.40   49.10
  -7   8  -2  887.21   50.39
   8  -1  -2 1035.30   44.20
  -1  -7  -2 1038.30   47.60
  -7   8  -2 1047.80   42.40
   8  -7   2 1194.78   38.60
   8  -1  -2  986.00   56.39
  -8   0   2 1420.16   59.09
   8  -8   2 1395.36   50.99
   0  -8  -2 1400.16   59.19
   0  -8  -2 1460.45   66.19
   8  -8   2 1391.56   58.79
   8  -8   2 1384.26   56.99
   8   0  -2 1500.15   70.69
   8   0  -2 1332.57   57.79
  -8   8  -2 1341.97   50.49
   8   0  -2 1440.66   51.09
  -8   8  -2 1416.76   61.29
  -8   0   2 1339.47   54.89
   0  -8  -2 1539.65   56.99
   0   8   2 1480.85   61.29
   0  -9   2  642.24   44.80
  -9   9   2  660.43   36.20
  -9   9   2  691.43   49.00
   0   9  -2  707.73   46.80
   9   0   2  659.03   34.60
   9   0   2  672.93   55.49
  -9   0  -2  682.93   34.10
   0   9  -2  676.63   48.10
   9  -9  -2  740.83   45.50
  -9   0  -2  677.33   29.60
   0  -9   2  650.13   53.69
   9  -9  -2  756.22   56.49
   9  -9  -2  714.23   32.70
   1   8  -2  202.18   35.90
   1   8  -2  187.48   37.60
   8  -9  -2  158.78   30.80
  -9   8   2  153.78   37.30
   1  -9   2  157.58   21.60
   8   1   2  195.88   28.90
   1   8  -2  130.09   23.50
  -9   1  -2  225.68   49.40
   8  -9  -2  204.98   21.20
   1  -9   2  181.98   30.90
  -9   8   2  161.68   23.30
  -9   1  -2  156.58   14.60
   8  -9  -2  194.18   33.00
   8   1   2  171.88   43.50
   9  -8  -2  144.89   26.70
  -8   9   2  170.58   26.40
   9  -1   2  158.98   20.20
  -8  -1  -2  138.99   31.50
  -8   9   2  160.18   37.00
  -1  -8   2  184.28   41.70
  -1   9  -2  190.28   36.90
  -8  -1  -2  178.08   25.40
  -1  -8   2  175.88   34.40
   9  -8  -2  171.28   33.50
  -1   9  -2  182.88   39.30
  -8  -1  -2  175.68   20.60
   9  -8  -2  163.28   19.40
   9  -1   2  172.18   32.00
  -9   2  -2  681.33   47.40
   7   2   2  583.44   40.00
  -9   7   2  606.34   34.80
   2   7  -2  618.84   43.10
   7  -9  -2  637.94   40.00
   7  -9  -2  686.93   30.50
   2  -9   2  591.84   47.30
   2   7  -2  649.93   33.10
   2  -9   2  638.74   31.10
   7  -9  -2  643.94   39.60
   2  -9   2  630.14   40.60
   7   2   2  531.75   61.39
  -2   9  -2  491.65   62.39
   9  -2   2  608.84   51.39
   9  -7  -2  628.14   28.80
  -2  -7   2  607.54   53.89
  -7  -2  -2  684.83   40.90
  -2  -7   2  633.74   47.30
   9  -7  -2  663.53   34.30
  -2   9  -2  622.04   47.60
  -7  -2  -2  649.83   32.70
  -7   9   2  646.94   34.60
  -7   9   2  607.54   47.20
   9  -7  -2  661.73   44.40
  -7  -2  -2  639.84   37.70
   3   6  -2  223.48   32.70
   6   3   2  165.18   38.00
   3  -9   2  179.68   21.20
   3  -9   2  183.48   40.10
   6  -9  -2  149.69   29.20
  -9   3  -2  131.19   32.10
   3   6  -2  180.08   38.30
   6  -9  -2  150.38   28.90
  -9   6   2  165.58   24.30
   6   3   2  247.28   36.20
   3  -9   2  158.58   32.10
   3   6  -2  174.98   22.70
  -3  -6   2  163.38   27.80
  -3   9  -2  160.88   38.20
   9  -6  -2  160.58   34.70
   9  -3   2  174.58   34.40
  -6  -3  -2  161.28   24.40
   9  -6  -2  157.18   16.20
  -3   9  -2  183.18   33.60
  -6   9   2  162.68   38.30
  -3  -6   2  158.88   35.60
  -6  -3  -2  143.39   30.80
   9  -6  -2  163.68   24.00
   9  -6  -2  117.29   21.60
   4   5  -2 1620.64   74.09
  -9   4  -2 1775.12   70.59
   4   5  -2 1746.23   61.89
   5  -9  -2 1692.43   70.79
   4  -9   2 1675.63   60.89
   4  -9   2 1785.62   67.09
   5  -9  -2 1773.02   66.89
   5   4   2 1838.52   72.29
   5   4   2 1609.64   73.69
  -9   5   2 1694.23   62.49
   5  -9  -2 1647.34   64.19
   4   5  -2 1776.72   67.99
   4  -9   2 1820.72   75.09
  -5   9   2 1795.42   76.09
   9  -5  -2 1767.92   62.69
  -5  -4  -2 1775.72   63.29
   9  -4   2 1773.82   71.89
  -5  -4  -2 1715.63   66.89
  -5   9   2 1690.83   63.39
   9  -5  -2 1715.33   57.09
   9  -5  -2 1666.33   60.99
  -4  -5   2 1711.93   71.29
  -4  -5   2 1741.33   66.59
   9  -5  -2 1715.93   73.49
  -4   9  -2 1780.42   68.59
  -5  -4  -2 1780.92   68.79
  -4   9  -2 1613.64   71.09
   5   4  -2 2684.33   85.89
  -9   4   2 2696.73   88.19
  -9   5  -2 2472.45   92.79
   5  -9   2 2726.33   90.49
   5   4  -2 2621.34   90.29
   5   4  -2 2500.85   98.09
   4  -9  -2 2598.94   87.49
   5  -9   2 2607.44   86.79
   4  -9  -2 2615.24   95.99
   4   5   2 2530.55   96.59
   4   5   2 2721.93   96.89
   4  -9  -2 2781.92   92.59
   5  -9   2 2792.42   97.49
  -4   9   2 2720.33  100.29
  -4  -5  -2 2394.86   88.09
  -4   9   2 2599.34   89.39
   9  -4  -2 2619.24   81.79
  -4  -5  -2 2730.23   94.49
   9  -5   2 2656.83   94.39
  -5  -4   2 2609.64   93.69
  -4  -5  -2 2385.06   93.89
  -5   9  -2 2651.93   90.89
   9  -4  -2 2654.93   98.09
   9  -4  -2 2671.73   87.39
  -5  -4   2 2638.44   89.69
   3  -9  -2  556.74   44.60
   3   6   2  549.65   47.10
  -9   3   2  537.75   31.50
   6  -9   2  540.25   44.20
  -9   6  -2  538.05   41.00
  -9   3   2  576.44   34.50
   3  -9  -2  594.04   43.80
   6   3  -2  513.35   45.40
   6   3  -2  548.95   35.40
   3   6   2  579.64   45.00
   6  -9   2  592.04   36.70
   6  -9   2  518.15   32.90
   6   3  -2  541.75   32.10
   3  -9  -2  547.95   33.40
   9  -3  -2  536.45   46.10
  -3  -6  -2  530.85   35.90
   9  -6   2  537.45   39.20
  -6   9  -2  508.85   40.80
  -6   9  -2  585.14   36.30
  -6  -3   2  540.65   41.60
   9  -3  -2  508.85   32.30
  -3   9   2  517.05   49.90
  -3  -6  -2  515.15   43.50
  -3   9   2  524.25   36.00
  -6  -3   2  569.04   36.80
  -3  -6  -2  555.94   36.40
   9  -3  -2  544.55   25.80
  -9   7  -2 1333.77   59.29
  -9   2   2 1210.48   51.89
   7  -9   2 1241.78   50.19
   7  -9   2 1278.77   52.69
   2  -9  -2 1309.17   62.39
  -9   2   2 1238.98   49.90
   7   2  -2 1379.26   49.10
   7  -9   2 1247.18   57.79
  -9   7  -2 1166.08   40.80
   7   2  -2 1232.08   62.49
   2  -9  -2 1278.07   49.60
   2   7   2 1234.78   65.89
   7   2  -2 1257.37   53.89
  -2  -7  -2 1207.78   53.79
  -2  -7  -2 1174.88   51.59
   9  -7   2 1208.78   44.90
  -2   9   2 1208.08   65.69
   9  -2  -2 1284.67   71.99
  -7  -2   2 1226.88   55.79
  -2   9   2 1312.97   55.39
  -2  -7  -2 1221.38   60.89
   9  -2  -2 1216.18   50.09
  -7  -2   2 1207.18   51.59
  -7   9  -2 1256.77   58.59
   9  -7   2 1247.78   41.50
   9  -2  -2 1204.18   44.30
  -7   9  -2 1206.58   51.19
   1   8   2 2655.63  100.79
   8   1  -2 2673.03   89.39
  -9   8  -2 2466.15   80.79
   8   1  -2 2414.26  107.09
  -9   1   2 2612.74   90.29
   8  -9   2 2601.94   84.79
   1  -9  -2 2631.64   85.29
   1  -9  -2 2642.34   94.49
   1  -9  -2 2619.94   97.19
  -9   1   2 2642.94   86.79
  -9   8  -2 2691.23   96.29
   8   1  -2 2679.83   84.89
   8  -9   2 2661.43   91.39
   1   8   2 2610.94   93.59
   9  -1  -2 2580.14   82.79
  -8   9  -2 2455.85   85.39
   9  -8   2 2475.25   80.29
  -1  -8  -2 2616.54   91.79
   9  -8   2 2652.63   93.39
  -1  -8  -2 2546.95   87.59
  -1   9   2 2507.05  100.09
   9  -8   2 2532.45   84.69
  -8  -1   2 2560.24   91.09
   9  -1  -2 2788.12  103.29
  -8  -1   2 2518.55   87.29
  -1  -8  -2 2605.14   96.79
   9  -1  -2 2668.73   99.39
  -8   9  -2 2544.25   93.19
   0  -9  -2  393.66   32.40
  -9   0   2  562.64   43.40
   9  -9   2  462.45   37.30
   9   0  -2  407.36   46.70
   9   0  -2  468.75   33.60
  -9   9  -2  456.45   43.80
   0  -9  -2  440.16   39.60
   0  -9  -2  419.36   46.20
   9  -9   2  461.15   36.80
  -9   9  -2  465.05   30.60
   9   0  -2  486.95   30.40
   0   9   2  457.35   49.50
  -9   0   2  506.75   38.90
   0   9   2  456.95   41.60
   9  -9   2  484.35   28.30
   0 -10   2  532.75   52.09
  10 -10  -2  498.25   38.30
 -10  10   2  466.75   38.10
 -10   0  -2  516.75   43.40
 -10   0  -2  529.85   26.90
  10 -10  -2  512.95   30.00
  10   0   2  403.26   55.19
  10   0   2  426.96   30.80
 -10  10   2  468.45   48.30
   0  10  -2  532.25   35.10
  10 -10  -2  524.45   41.10
   0 -10   2  484.55   45.20
   0  10  -2  507.55   49.50
 -10   0  -2  513.05   31.30
 -10   9   2 2075.09   83.39
 -10   1  -2 2069.79   79.49
 -10   1  -2 2089.19   63.59
   9   1   2 2027.70   88.19
 -10   1  -2 1999.90   65.49
   1 -10   2 1928.81   79.59
   9   1   2 1952.90   71.79
   1 -10   2 2036.40   69.49
   9 -10  -2 2094.99   78.59
   1   9  -2 2036.50   82.09
   1   9  -2 2044.70   71.79
   9 -10  -2 2094.19   76.19
 -10   9   2 2050.29   73.19
   1   9  -2 2034.80   86.39
   9 -10  -2 2049.49   69.69
  -9  -1  -2 2101.79   68.49
  10  -9  -2 2006.60   68.99
  -1  -9   2 2002.40   86.29
  -1  10  -2 2046.90   83.19
  -9  10   2 2065.49   73.79
  -9  -1  -2 2174.68   93.29
  10  -1   2 1980.20   66.09
  -1  -9   2 2015.00   79.49
  10  -9  -2 2093.09   80.79
  -9  10   2 2048.10   85.59
  10  -1   2 2060.39   88.19
  10  -9  -2 2073.99   74.09
  -1  10  -2 1966.00   82.99
  -9  -1  -2 2062.09   73.09
   2 -10   2  418.26   41.40
   2 -10   2  409.96   28.30
   2 -10   2  396.26   51.39
 -10   8   2  363.16   41.70
 -10   8   2  409.06   31.10
   2   8  -2  409.46   45.20
   8   2   2  415.56   36.80
 -10   2  -2  411.06   40.30
   8   2   2  399.46   48.60
   8 -10  -2  412.46   26.80
   2   8  -2  420.36   31.70
   8 -10  -2  423.76   35.80
   2   8  -2  450.55   43.30
   8 -10  -2  413.26   36.30
  -8  10   2  437.16   31.70
  10  -8  -2  413.66   41.30
  10  -8  -2  449.26   35.70
  -8  -2  -2  443.86   29.10
  10  -2   2  440.86   47.90
  -2  10  -2  431.16   43.90
  -8  -2  -2  425.26   36.20
  -8  10   2  405.66   45.90
  10  -8  -2  433.16   25.50
  -2  10  -2  431.96   43.70
  -2  -8   2  411.66   39.80
  -8  -2  -2  414.36   38.10
   7 -10  -2  233.48   32.50
   3 -10   2  248.98   24.30
   7   3   2  156.08   32.40
   7 -10  -2  223.08   29.40
 -10   7   2  228.08   25.70
   3   7  -2  274.27   37.00
   3   7  -2  183.08   40.10
   3   7  -2  193.68   26.40
   3 -10   2  255.87   35.40
   7   3   2  284.67   38.50
   3 -10   2  242.48   45.20
 -10   3  -2  188.88   35.30
  -7  -3  -2  241.58   33.90
  10  -7  -2  249.58   19.90
  -3  -7   2  284.27   41.70
  -3  10  -2  248.78   41.50
  -7  10   2  249.58   43.10
  10  -3   2  255.67   38.70
  -3  10  -2  322.67   39.30
  -7  -3  -2  250.97   35.00
  10  -7  -2  227.58   37.60
  -7  -3  -2  258.57   27.00
  10  -7  -2  238.98   26.80
  -3  -7   2  290.17   36.50
   4 -10   2  215.38   42.50
   6   4   2  205.58   43.30
 -10   6   2  201.28   24.70
   4   6  -2  176.88   40.60
   4 -10   2  179.18   23.70
   4   6  -2  137.39   25.60
   4   6  -2  220.88   34.90
   6 -10  -2  159.98   28.20
   6 -10  -2  169.38   30.70
   6   4   2  217.48   39.10
   4 -10   2  192.78   34.10
 -10   4  -2  122.89   25.10
  10  -6  -2  195.58   24.70
  -4  -6   2  227.28   41.20
  -6  10   2  135.69   26.20
  -4  10  -2  252.37   36.60
  -6  -4  -2  201.58   27.50
  10  -4   2  208.48   39.90
  -4  10  -2  186.98   44.80
  -6  -4  -2  149.49   35.40
  10  -6  -2  188.88   19.70
  -6  10   2  203.98   43.00
  -4  -6   2  196.58   33.60
  -6  -4  -2  163.28   37.70
   5 -10  -2   43.50   19.30
   5   5  -2   90.69   22.20
   5   5   2   80.69   25.70
   5   5  -2  109.09   24.70
   5   5  -2   70.49   28.80
   5 -10   2   68.29   22.20
 -10   5  -2   77.49   24.70
   5 -10   2   81.99   27.50
 -10   5   2   85.49   23.10
   5 -10  -2   62.99   21.10
   5 -10  -2   74.69   18.90
   5 -10   2   63.29   17.30
  -5  10  -2   89.99   21.50
  -5  -5   2   76.49   23.30
  -5  -5   2   77.19   20.70
  -5  10   2   65.99   20.30
  10  -5  -2   52.29   16.70
  -5  -5  -2   66.29   19.70
  -5  10   2   48.40   25.40
  10  -5  -2  117.19   22.60
  -5  -5  -2   88.69   23.10
  10  -5  -2   65.49   13.00
  -5  -5  -2   48.60   22.30
  10  -5  -2   62.39   26.80
   6   4  -2  927.31   45.60
   4   6   2  920.61   56.69
   4 -10  -2  882.51   51.99
 -10   6  -2  802.42   49.40
   6 -10   2  880.11   41.40
 -10   4   2  877.11   40.20
   6   4  -2  792.12   40.60
   6 -10   2  894.11   46.00
 -10   4   2  929.91   42.00
   6 -10   2  895.31   55.89
   4 -10  -2  840.42   39.50
   4   6   2  883.41   50.29
   4 -10  -2  899.41   48.00
   6   4  -2  814.02   52.59
  -4  -6  -2  814.52   44.80
  -6  -4   2  886.11   45.70
  10  -4  -2  855.31   35.60
  -4  10   2  770.82   43.60
  10  -6   2  815.32   49.00
  -6  10  -2  794.92   51.09
  -4  10   2  874.81   57.39
  -4  -6  -2  870.81   44.60
  10  -4  -2  800.62   52.79
  -4  -6  -2  880.01   52.39
  -6  10  -2  894.01   47.40
  -6  -4   2  902.81   50.89
 -10   3   2 1453.75   57.99
   3 -10  -2 1474.95   68.69
   3   7   2 1435.36   64.69
   7   3  -2 1557.54   56.29
   3 -10  -2 1413.96   52.09
   7 -10   2 1402.06   57.69
   7 -10   2 1436.56   62.79
 -10   3   2 1387.26   54.09
   3   7   2 1314.27   79.59
 -10   7  -2 1409.16   63.19
   7 -10   2 1380.46   66.39
   3 -10  -2 1454.85   61.89
   7   3  -2 1394.06   59.99
  10  -3  -2 1385.96   50.89
  -3  10   2 1430.66   70.69
  -3  -7  -2 1443.76   67.29
  10  -7   2 1429.46   64.59
  -3  -7  -2 1436.16   60.19
  -7  -3   2 1389.16   64.79
  -3  -7  -2 1451.65   57.99
  10  -3  -2 1428.86   67.89
  -7  -3   2 1394.36   58.99
  -7  10  -2 1364.96   63.59
  -7  10  -2 1363.76   58.69
  -3  10   2 1335.97   65.79
   2 -10  -2  307.17   58.49
 -10   8  -2  251.57   38.10
   8 -10   2  251.77   40.40
 -10   2   2  283.27   31.60
   8   2  -2  254.07   31.00
   2 -10  -2  213.98   24.20
 -10   8  -2  261.27   18.10
   8   2  -2  219.68   42.60
 -10   2   2  260.27   27.80
   8   2  -2  251.77   28.50
   8 -10   2  262.27   29.20
   8 -10   2  261.57   30.80
   2 -10  -2  237.28   35.40
   2   8   2  240.98   46.60
   2   8   2  196.08   38.10
  10  -8   2  272.27   23.70
  10  -8   2  288.97   18.80
  -8  -2   2  281.77   30.80
  -8  10  -2  201.98   37.40
  -8  -2   2  315.67   37.70
  -2  10   2  284.37   49.60
  10  -2  -2  285.47   28.50
  -2  10   2  237.68   35.10
  10  -2  -2  192.48   40.70
  -2  -8  -2  245.18   43.80
  -8  10  -2  270.27   31.50
  10  -2  -2  258.07   23.90
  10  -8   2  240.38   32.00
 -10   9  -2  257.57   23.80
   9   1  -2  291.67   32.80
   1   9   2  268.37   50.79
   9 -10   2  321.97   28.50
   1 -10  -2  273.77   50.09
 -10   1   2  300.27   33.20
   9 -10   2  271.77   32.20
 -10   9  -2  353.16   42.00
   1 -10  -2  289.67   25.90
 -10   1   2  307.27   34.60
   9   1  -2  333.17   29.40
   9 -10   2  253.97   38.30
   1   9   2  391.96   41.70
   9   1  -2  295.87   44.80
   1 -10  -2  245.18   37.00
  -9  -1   2  291.07   35.90
  10  -1  -2  311.87   43.30
  -1  10   2  313.87   38.60
  10  -9   2  301.47   22.90
  10  -1  -2  304.17   25.30
  10  -9   2  256.27   29.40
  -1  -9  -2  292.07   43.60
  10  -1  -2  289.47   29.90
  -1  -9  -2  259.07   30.10
  -9  -1   2  258.57   29.80
  10  -9   2  315.97   36.30
  -9  10  -2  331.27   48.20
  -1  -9  -2  291.77   35.50
  -1  10   2  246.28   50.89
  -9  10  -2  254.27   29.30
   0 -10  -2  545.65   50.89
 -10  10  -2  515.95   48.40
   0 -10  -2  495.95   33.40
  10 -10   2  557.64   41.70
   0  10   2  528.55   47.40
  10   0  -2  607.14   36.40
  10   0  -2  527.55   49.80
  10 -10   2  537.85   38.60
   0 -10  -2  529.25   42.70
   0  10   2  531.85   60.29
 -10   0   2  568.34   36.20
 -10  10  -2  512.25   33.00
  10 -10   2  584.84   31.80
 -10   0   2  535.65   41.10
  10   0  -2  546.65   37.40
 -11  11   2 2969.90  116.59
   0 -11   2 3080.19  111.79
  11 -11  -2 3017.60  106.09
 -11   0  -2 2997.50  108.99
   0  11  -2 3178.28  114.29
 -11   0  -2 3046.60   96.39
   0  11  -2 2988.10  113.59
   0  11  -2 3076.59  106.09
 -11   0  -2 3078.69  100.69
  11   0   2 3326.77  100.09
 -11  11   2 3138.69  103.49
   0 -11   2 3113.69  120.09
  11 -11  -2 3034.40  108.39
  11   0   2 3093.99  120.89
  10   1   2  614.54   56.79
  10 -11  -2  788.82   51.19
 -11  10   2  678.43   54.49
 -11   1  -2  645.04   48.00
 -11   1  -2  661.23   31.80
  10   1   2  657.13   38.70
  10 -11  -2  681.03   44.30
  10 -11  -2  640.24   45.00
   1 -11   2  669.03   51.89
 -11   1  -2  678.73   28.40
   1  10  -2  576.74   52.79
   1  10  -2  721.63   51.59
   1 -11   2  711.93   62.79
   1  10  -2  624.54   39.90
  11 -10  -2  711.23   59.29
 -10  -1  -2  645.54   47.60
  -1 -10   2  655.33   56.39
 -10  11   2  711.33   55.79
  11 -10  -2  647.04   33.80
  11  -1   2  649.14   59.19
  11  -1   2  702.53   30.50
 -10  11   2  725.33   40.20
 -10  -1  -2  676.03   41.80
  -1  11  -2  709.73   57.29
  11 -10  -2  630.74   40.40
  -1 -10   2  653.13   49.20
 -10  -1  -2  716.93   35.20
   9 -11  -2  608.24   37.70
   2   9  -2  654.23   48.70
   9   2   2  585.04   39.90
 -11   9   2  561.24   48.20
   2   9  -2  582.94   36.80
 -11   2  -2  627.14   45.30
   2 -11   2  535.25   58.29
   2   9  -2  641.44   50.59
 -11   9   2  604.24   35.70
   9 -11  -2  606.74   42.90
   9   2   2  609.44   56.79
   2 -11   2  533.75   48.20
  -2  11  -2  578.44   57.59
  11  -9  -2  594.24   46.80
  -9  11   2  534.15   54.89
  -2  -9   2  552.44   49.20
  -9  -2  -2  623.64   46.10
  -9  -2  -2  608.54   45.30
  -9  11   2  564.44   37.10
  -9  -2  -2  619.94   34.60
  11  -9  -2  561.24   36.60
  -2  11  -2  574.44   49.90
  11  -2   2  584.14   54.99
  11  -9  -2  568.04   31.00
  -2  -9   2  580.94   55.09
   8 -11  -2  673.53   44.30
   3 -11   2  678.73   57.09
   3   8  -2  669.93   52.79
   3   8  -2  610.94   38.40
   8 -11  -2  659.83   37.50
   3 -11   2  640.44   45.80
 -11   3  -2  646.44   46.40
   3   8  -2  491.05   61.19
   8   3   2  661.63   44.30
 -11   8   2  652.53   36.40
   8   3   2  632.24   55.59
   8 -11  -2  683.13   39.60
  -8  -3  -2  705.53   38.10
  -3  -8   2  632.54   47.20
  -3  11  -2  607.34   59.59
  -8  11   2  641.04   55.79
  11  -3   2  637.44   50.49
  -8  -3  -2  669.23   46.60
  -8  -3  -2  634.54   44.80
  -3  11  -2  651.63   48.50
  11  -8  -2  602.54   47.20
  -3  -8   2  639.74   54.09
  11  -8  -2  615.34   37.80
  -8  11   2  714.53   38.50
   4 -11   2   39.50   27.50
   7   4   2   49.40   24.10
 -11   7   2   45.90   15.20
   4 -11   2   52.49   27.60
   4   7  -2   26.20   19.10
   7   4   2   -8.00   26.90
   7 -11  -2   50.59   18.60
   7 -11  -2   53.99   23.00
 -11   4  -2   19.50   23.00
   4 -11   2   33.40   29.20
   4   7  -2   11.20   26.20
   4   7  -2   57.59   23.60
  -7  -4  -2   22.50   21.30
  11  -7  -2   27.80   25.20
  11  -7  -2   50.49   15.80
  -7  -4  -2   32.60   19.90
  11  -7  -2   33.80   14.00
  -7  11   2   23.70   29.60
  -4  -7   2   39.30   25.10
  11  -7  -2   47.30   26.10
  -4  11  -2   60.09   24.10
  -4  -7   2   44.20   22.70
  11  -4   2   35.60   29.20
  -7  -4  -2   29.60   23.70
   6   5   2   67.99   27.20
   5   6  -2   45.60   20.50
   5 -11   2   55.29   29.70
   5 -11   2   36.00   17.40
   5 -11   2   48.30   24.00
 -11   6   2   39.50   14.20
 -11   5  -2   26.50   23.60
   6   5   2   32.30   29.70
   6 -11  -2   34.20   17.40
   5   6  -2   41.80   19.50
   6 -11  -2   21.40   21.60
   5   6  -2   46.80   27.60
   6 -11  -2   36.10   20.80
  11  -5   2   17.60   28.00
  -5  -6   2   38.20   26.00
  -6  11   2   31.20   28.30
  -6  -5  -2   59.29   26.50
  11  -6  -2   37.20   26.40
  -6  -5  -2   33.70   24.40
  -6  -5  -2   26.30   20.00
  -5  11  -2   36.60   27.90
  11  -6  -2   55.59   14.40
  11  -6  -2   29.70   14.40
  -5  -6   2   62.89   26.60
  -5  11  -2   50.39   27.40
  11  -6  -2   43.00   15.10
  -6  11   2   24.40   20.60
   5   6   2   56.39   30.60
   6   5  -2   52.79   21.20
 -11   5   2  117.69   25.40
   5   6   2  103.09   28.00
   6   5  -2  116.39   24.10
   6 -11   2  114.69   30.30
 -11   6  -2   76.59   26.40
   6 -11   2   90.29   20.30
   5 -11  -2   80.29   25.90
   6 -11   2   85.09   23.90
   5 -11  -2   82.99   26.70
   5 -11  -2  111.49   22.80
   6   5  -2   37.90   24.80
  -5  -6  -2   69.69   24.30
  11  -5  -2   79.79   15.70
  -6  11  -2   90.49   23.30
  -6  -5   2   80.69   28.60
  -5  11   2   87.99   31.50
  11  -6   2   95.89   31.30
  11  -5  -2   94.29   23.30
  -5  -6  -2  112.69   28.50
  -6  -5   2   96.29   23.60
  11  -5  -2  102.29   30.60
  -5  -6  -2   78.89   23.80
  -5  11   2   49.50   22.40
  -6  11  -2   48.30   27.00
 -11   7  -2   99.59   26.80
   7 -11   2  162.18   32.20
   7   4  -2  176.98   31.80
   4 -11  -2  155.08   22.40
 -11   4   2  185.48   31.50
   4   7   2  123.69   32.90
   7   4  -2  123.89   30.90
   4 -11  -2  143.49   27.70
   4 -11  -2  168.08   32.30
 -11   4   2  193.28   27.10
   7 -11   2  137.29   26.20
   4   7   2  146.89   31.80
   7 -11   2  167.08   34.40
   7   4  -2  119.39   29.90
  -7  11  -2  159.98   36.00
  11  -7   2  136.19   30.80
  -4  11   2  147.99   31.60
  -4  -7  -2  134.19   24.90
  -7  11  -2  197.88   38.90
  -7  -4   2   93.39   38.40
  -4  -7  -2  143.49   31.30
  -4  -7  -2  136.09   29.20
  11  -4  -2  160.88   21.40
  11  -4  -2  158.18   25.50
  11  -4  -2  174.78   41.70
  -7  -4   2  154.78   33.20
  -4  11   2  126.39   31.20
   8 -11   2  252.67   45.90
 -11   8  -2  265.77   41.60
 -11   3   2  259.37   37.20
   8   3  -2  265.47   43.80
   3   8   2  319.37   52.09
   3   8   2  295.37   44.60
   3 -11  -2  257.77   44.80
 -11   3   2  299.47   30.90
   8   3  -2  301.97   32.40
   3 -11  -2  272.47   23.30
   8   3  -2  279.27   35.30
   8 -11   2  267.47   31.30
   3 -11  -2  240.38   37.00
  -3  11   2  242.08   34.10
  -8  -3   2  309.47   35.60
  -8  11  -2  282.07   44.00
  -3  -8  -2  260.67   36.00
  -3  11   2  247.98   47.80
  11  -3  -2  271.37   24.20
  11  -3  -2  276.77   43.70
  11  -3  -2  273.67   29.20
  -8  -3   2  279.67   65.49
  -3  -8  -2  249.48   31.50
  -8  11  -2  269.67   35.50
  -3  -8  -2  228.68   45.90
  11  -8   2  242.08   37.10
   9 -11   2  626.54   48.80
   9   2  -2  587.54   51.99
   2   9   2  579.84   58.39
   2   9   2  632.24   49.30
 -11   9  -2  531.55   27.00
   9 -11   2  613.24   38.10
   2 -11  -2  591.94   53.39
   9   2  -2  593.94   40.50
 -11   2   2  553.44   36.20
   2 -11  -2  540.15   43.80
   9   2  -2  648.44   40.10
 -11   9  -2  625.34   48.70
   9 -11   2  549.45   36.90
 -11   2   2  604.84   39.70
  11  -9   2  566.54   41.40
  -2  11   2  514.45   70.79
  -2  11   2  602.04   42.20
  -2  -9  -2  593.64   43.40
  -2  -9  -2  463.35   37.20
  11  -2  -2  588.24   34.20
  -9  11  -2  510.75   39.60
  11  -2  -2  583.64   50.89
  11  -9   2  583.64   32.00
  -9  -2   2  518.65   57.39
  -9  -2   2  580.44   41.20
  11  -9   2  583.64   27.00
  11  -2  -2  595.44   36.50
   1  10   2  101.19   30.00
 -11   1   2  104.39   22.40
  10 -11   2  143.09   27.70
  10   1  -2  146.89   31.50
   1 -11  -2  112.29   29.60
 -11   1   2  124.19   21.60
  10   1  -2   82.89   29.90
  10   1  -2  153.68   32.20
  10 -11   2  146.39   38.90
 -11  10  -2  135.89   24.40
  10 -11   2  159.78   29.90
   1 -11  -2  107.99   31.20
 -11  10  -2  113.49   30.80
 -10  -1   2  155.98   32.70
  -1  11   2  162.48   39.30
  11 -10   2  141.69   22.10
  11  -1  -2  143.39   34.30
  11  -1  -2  127.99   29.10
  -1  11   2   86.79   28.40
  -1 -10  -2  120.89   29.40
 -10  11  -2  103.49   29.30
  -1 -10  -2  127.09   33.20
  11  -1  -2  117.99   27.90
  11 -10   2  103.19   26.30
 -10  -1   2  155.48   39.40
  11 -10   2  152.68   29.60
 -10  11  -2  140.29   31.10
 -11  11  -2   38.30   16.80
   0 -11  -2   27.00   31.20
  11   0  -2   32.40   21.40
   0 -11  -2   18.20   28.00
 -11   0   2   11.80   22.70
 -11  11  -2   28.00   29.30
  11 -11   2   39.70   16.80
   0  11   2   33.60   32.60
   0  11   2   26.10   32.60
  11   0  -2   24.50   29.90
  11 -11   2   20.90   20.30
 -11   0   2   40.90   20.20
  11 -11   2   24.60   24.60
  11   0  -2   20.20   18.60
  12   0   2  312.57   29.70
 -12   0  -2  237.88   45.20
 -12  12   2  293.07   33.60
 -12   0  -2  272.87   35.90
   0  12  -2  217.88   37.50
  12 -12  -2  265.57   29.50
   0 -12   2  253.47   51.29
  12 -12  -2  263.97   37.50
 -12   0  -2  297.37   27.90
   0 -12   2  237.68   61.69
 -12  12   2  224.98   55.19
  12 -12  -2  224.28   39.10
  12   0   2  170.08   42.00
   0  12  -2  329.07   52.09
   0  12  -2  182.38   38.80
  11   1   2 1196.88   76.99
 -12   1  -2 1226.98   47.00
  11 -12  -2 1152.48   50.39
   1 -12   2 1213.18   78.29
  11 -12  -2 1181.08   57.79
   1  11  -2 1227.88   65.79
  11 -12  -2 1231.88   58.19
 -12   1  -2 1267.77   63.39
 -12   1  -2 1199.58   42.70
 -12  11   2 1145.09   52.89
   1  11  -2 1132.09   66.29
 -12  11   2  888.21  104.79
   1 -12   2 1112.99   64.49
   1  11  -2 1258.07   56.19
  -1  12  -2 1155.58   67.09
  -1  12  -2 1188.28   69.59
 -11  -1  -2 1187.08   49.10
  12  -1   2 1180.78   75.19
  12 -11  -2 1123.69   49.30
 -11  12   2 1162.58   53.79
 -11  -1  -2 1112.99   57.79
 -11  -1  -2 1183.18   61.69
  -1 -11   2 1119.19   64.99
  -1 -11   2 1045.80   75.59
  12 -11  -2 1182.08   61.09
 -11  12   2 1200.78   73.19
  -1  12  -2 1205.38   55.19
  12  -1   2 1252.17   44.30
  12 -11  -2 1186.68   55.99
   2 -12   2 2141.19   77.39
   2 -12   2 2207.88   89.59
 -12  10   2 2277.07   92.39
  10 -12  -2 2175.78   77.09
   2  10  -2 2180.58   91.99
  10 -12  -2 2284.77   83.19
   2  10  -2 2249.97   90.89
   2 -12   2 2310.87  101.79
 -12   2  -2 2197.18   86.59
 -12  10   2 2306.57   81.09
  10   2   2 2256.17   95.39
  10 -12  -2 2217.18   84.09
   2  10  -2 2205.78   81.49
  10   2   2 2113.19   81.39
  12 -10  -2 2241.48   76.69
  -2 -10   2 2141.39   94.49
 -10  12   2 2292.17   81.39
  12 -10  -2 2166.18   80.19
  -2 -10   2 2191.98   87.99
 -10  -2  -2 2266.77   84.89
  -2  12  -2 2200.18   91.69
 -10  12   2 2297.87   99.29
 -10  -2  -2 2342.47   78.79
  12  -2   2 2290.47   95.09
 -10  -2  -2 2311.17   87.29
  12 -10  -2 2275.27   88.29
   3   9  -2   90.49   31.90
   9   3   2   81.49   35.70
   3 -12   2  116.99   34.50
 -12   9   2   93.59   27.20
   9   3   2  190.68   37.20
   9 -12  -2  128.99   23.90
   9 -12  -2  123.89   27.20
   3   9  -2   92.69   23.70
   9 -12  -2  135.29   29.80
   3 -12   2  111.89   25.30
 -12   3  -2  102.39   26.10
 -12   9   2  167.38   32.20
   3   9  -2  160.08   42.30
   3 -12   2  137.19   30.30
  12  -3   2   88.49   34.00
  12  -9  -2  130.59   22.80
  -9  -3  -2  144.59   28.30
  -9  12   2  151.68   30.70
  12  -9  -2  159.68   31.60
  12  -9  -2  136.69   22.40
  -3  -9   2  125.69   30.20
  -9  -3  -2  127.99   28.70
  -9  12   2  132.19   36.80
  -9  -3  -2  167.08   31.00
  -3  -9   2  140.49   35.10
   4   8  -2  376.66   47.80
   8 -12  -2  377.76   32.10
   8   4   2  412.66   43.60
   8   4   2  351.86   53.59
   4 -12   2  378.46   59.79
   4   8  -2  415.46   43.30
   8 -12  -2  417.36   41.20
   4 -12   2  357.36   44.70
 -12   4  -2  371.76   42.40
 -12   8   2  413.06   32.50
   4   8  -2  379.96   35.90
   4 -12   2  365.56   30.00
  12  -8  -2  360.96   31.40
  -4  12  -2  433.26   48.30
  -4  12  -2  359.06   53.09
  -8  -4  -2  393.96   41.50
  -8  12   2  368.56   54.49
  -4  -8   2  370.46   55.39
  12  -4   2  285.17   48.50
  12  -8  -2  325.97   42.50
  -8  -4  -2  348.47   45.90
  12  -8  -2  363.26   27.60
  -4  -8   2  344.87   44.80
  -8  -4  -2  372.06   36.10
   5 -12   2  229.08   50.19
 -12   7   2  274.67   28.80
   5   7  -2  288.17   40.40
   7 -12  -2  217.08   26.40
   7   5   2  260.57   51.09
   5   7  -2  211.88   43.00
   5 -12   2  351.86   41.10
   7   5   2  269.67   45.20
   7 -12  -2  250.97   43.90
   5 -12   2  249.08   28.80
 -12   5  -2  199.08   40.40
   7 -12  -2  166.78   36.00
  -5  -7   2  269.17   48.70
  -5  12  -2  270.97   44.60
  12  -7  -2  203.88   41.60
  12  -7  -2  202.18   28.50
  -7  -5  -2  224.38   42.70
  -5  -7   2  322.07   42.30
  -7  12   2  201.68   49.50
  -7  -5  -2  248.48   35.30
  12  -7  -2  222.58   27.30
  -7  -5  -2  281.07   38.70
  -5  12  -2  260.07   44.50
  -7  12   2  232.88   34.00
  12  -7  -2  232.28   27.70
  12  -5   2  197.68   35.60
   6 -12  -2  132.19   29.30
   6   6   2  109.59   32.90
 -12   6   2  147.79   26.00
   6   6   2  114.59   55.99
   6   6  -2  132.39   33.80
   6 -12  -2  132.79   22.40
   6 -12   2  111.89   34.10
   6   6  -2  145.49   37.40
 -12   6  -2  118.19   28.60
   6 -12  -2  158.98   31.40
   6 -12   2  133.29   26.70
  12  -6  -2  134.89   25.90
  -6  -6   2  139.59   30.10
  12  -6  -2  119.79   29.80
  12  -6   2  116.49   34.20
  -6  12   2  153.28   34.00
  12  -6  -2  139.19   24.00
  -6  -6  -2  126.69   30.20
  -6  -6  -2  175.78   41.10
  -6  -6   2  141.29   32.60
  -6  12  -2  127.99   31.70
  -6  12  -2  121.09   26.50
  -6  12   2  119.39   35.50
  -6  -6  -2  139.29   25.90
   5   7   2   80.59   33.80
   7   5  -2  121.29   33.40
 -12   5   2   56.09   18.10
 -12   5   2  129.29   26.80
   7 -12   2   97.19   33.70
   7 -12   2   89.79   26.50
 -12   7  -2  121.59   28.80
   5   7   2  103.49   31.60
   7   5  -2   81.79   26.90
   5 -12  -2  105.59   31.00
   5 -12  -2   86.29   26.40
   7 -12   2  112.39   27.20
   5 -12  -2  107.39   19.60
   7   5  -2   62.89   23.60
  12  -5  -2  111.59   25.90
  -5  -7  -2  151.58   35.80
  -7  12  -2  156.28   41.90
  12  -7   2   95.99   31.30
  12  -5  -2   93.19   18.00
  -5  12   2  104.39   34.40
  -5  12   2   88.39   24.50
  -5  -7  -2   98.69   30.20
  -7  -5   2   95.09   27.40
  12  -5  -2  103.79   30.70
  -7  -5   2  106.59   29.60
   8   4  -2  399.86   49.10
   4 -12  -2  391.46   49.99
   8 -12   2  426.36   35.50
   4   8   2  390.96   53.29
   8 -12   2  438.46   56.59
 -12   4   2  459.75   35.10
   8 -12   2  419.06   40.30
 -12   8  -2  431.16   45.90
 -12   4   2  383.26   32.60
   8   4  -2  427.96   39.20
   4   8   2  354.96   50.69
   4 -12  -2  418.46   43.00
  12  -4  -2  386.76   48.10
  -4  12   2  383.66   54.29
  12  -4  -2  424.36   33.00
  -4  -8  -2  432.66   38.60
  -8  12  -2  399.36   44.90
  -8  12  -2  435.46   42.80
  -8  -4   2  427.66   48.40
  12  -4  -2  403.86   30.40
  -4  -8  -2  408.16   42.60
  -4  12   2  472.15   39.60
  12  -8   2  391.16   40.60
  -8  -4   2  471.45   41.60
  -4  -8  -2  387.66   53.09
 -12   9  -2  189.88   42.70
   9   3  -2  167.08   46.20
   9 -12   2  228.08   35.70
   9 -12   2  185.88   32.90
 -12   3   2  251.37   33.80
   9   3  -2  262.77   37.30
 -12   3   2  254.17   30.10
   3   9   2  252.87   47.80
   9 -12   2  227.78   47.20
   3 -12  -2  185.98   48.90
 -12   9  -2  220.58   16.20
   3   9   2  213.08   38.10
   3 -12  -2  153.18   28.00
  -3  12   2  217.68   38.50
  -3  -9  -2  174.18   39.80
  -9  -3   2  215.88   37.60
  12  -3  -2  238.28   30.00
  -9  -3   2  287.77   43.80
  -3  -9  -2  197.78   36.90
  12  -3  -2  201.58   26.70
  12  -3  -2  165.08   44.60
  -3  12   2  179.88   36.10
  12  -9   2  163.18   37.70
  -9  12  -2  219.58   36.90
  -3  -9  -2  156.28   26.10
  12  -9   2  222.28   16.10
   2  10   2  124.79   35.00
 -12  10  -2  116.59   21.50
  10 -12   2  118.09   28.60
   2 -12  -2   67.09   29.10
   2 -12  -2   96.79   31.00
  10   2  -2  152.88   38.90
   2  10   2   88.49   37.80
 -12   2   2  113.89   23.50
  10 -12   2   87.59   26.50
  10   2  -2  106.79   31.90
 -12  10  -2  144.29   33.10
  12 -10   2  119.49   26.20
  -2 -10  -2   84.69   24.30
  -2 -10  -2   67.89   31.90
  -2  12   2  147.59   33.50
  12  -2  -2   88.89   21.90
  12 -10   2  114.09   20.60
  12  -2  -2   84.19   19.50
 -10  -2   2   85.79   26.20
  12 -10   2  104.69   30.70
  -2  12   2   59.69   35.40
  12  -2  -2  138.69   36.80
  -2 -10  -2   70.99   28.70
 -10  12  -2  122.19   32.50
 -10  -2   2  105.39   26.20
 -10  12  -2   82.99   22.10
   1 -12  -2  118.49   34.60
   1 -12  -2  115.79   32.20
  11 -12   2  162.38   32.20
 -12   1   2  154.38   33.20
  11   1  -2  143.69   28.60
  11   1  -2  142.89   38.30
 -12  11  -2  124.09   32.70
   1  11   2  141.49   42.90
  11   1  -2  195.88   40.40
 -12   1   2  102.89   23.70
  11 -12   2  172.88   41.60
 -12  11  -2  156.88   25.90
  11 -12   2  150.48   36.90
   1  11   2  190.98   41.30
  -1 -11  -2  111.79   31.30
  12 -11   2  131.99   32.50
  -1  12   2  179.68   43.20
  12 -11   2  167.58   25.80
 -11  -1   2  133.79   30.50
  -1  12   2  112.79   40.40
  12  -1  -2  129.89   33.20
 -11  12  -2  180.08   32.80
  12  -1  -2  141.89   32.20
  12  -1  -2  133.89   36.80
 -11  -1   2  193.88   39.80
  -1 -11  -2  106.79   34.60
  12 -11   2   89.09   28.30
 -11  12  -2  139.29   33.90
  12   0  -2  -16.00   30.70
  12 -12   2   43.80   18.70
 -12   0   2   42.70   22.70
 -12  12  -2   -8.40   31.70
 -12  12  -2   14.70   18.80
   0  12   2   -3.30   36.10
  12 -12   2   16.50   26.80
  12 -12   2   58.59   23.70
 -12   0   2   47.70   24.40
  12   0  -2   17.90   19.50
  12   0  -2   49.90   26.00
   0 -12  -2   -2.70   27.40
   0 -12  -2    6.90   32.10
   0  12   2   20.40   34.10
   0  13  -2  989.10   64.49
  13 -13  -2  930.11   56.49
 -13   0  -2  929.61   42.60
   0 -13   2  851.21   74.69
  13   0   2  959.70   76.39
   0 -13   2  778.42   63.39
  13 -13  -2  907.61   46.60
   0  13  -2  980.50   55.09
 -13   0  -2  909.41   50.59
  13   0   2  874.51   44.70
  13 -13  -2  889.01   55.09
 -13   0  -2 1027.60   60.59
 -13  13   2  959.10   49.50
 -13  13   2  877.71   71.49
   0  13  -2  896.81   67.09
   1  12  -2 1829.42   84.59
  12 -13  -2 1816.32   76.39
 -13   1  -2 1723.33   63.79
   1  12  -2 1860.61   87.19
  12 -13  -2 1718.73   81.59
   1 -13   2 1860.81   94.29
  12   1   2 1904.81   69.09
 -13   1  -2 1778.22   60.39
   1 -13   2 1747.43   82.39
 -13  12   2 1844.12   88.89
  12 -13  -2 1747.03   67.99
   1  12  -2 1837.52   74.49
 -13  12   2 1818.12   71.09
 -13   1  -2 1802.12   78.99
  12   1   2 1821.02   91.59
 -12  13   2 1768.02   93.39
  13  -1   2 1892.01   94.89
  13  -1   2 1904.31   61.39
  -1 -12   2 1695.83   82.09
  -1 -12   2 1739.53   92.09
  -1  13  -2 1811.42   74.59
  13 -12  -2 1809.02   78.69
  -1  13  -2 1788.52   84.29
  -1  13  -2 1758.62   86.69
 -12  -1  -2 1837.52   79.89
 -12  13   2 1884.31   72.19
 -12  -1  -2 1884.11   67.89
  13 -12  -2 1808.92   73.59
  13 -12  -2 1750.62   68.09
 -12  -1  -2 1760.22   74.79
   2  11  -2  238.78   48.40
 -13  11   2  125.09   34.40
 -13   2  -2  157.28   43.40
  11 -13  -2  168.68   36.10
   2  11  -2  171.18   35.70
  11   2   2  142.49   46.80
   2  11  -2  133.79   36.10
 -13  11   2  194.08   33.10
   2 -13   2  145.19   35.10
  11   2   2  137.79   26.20
  11 -13  -2  180.08   30.60
  11 -13  -2  164.28   40.10
   2 -13   2  125.39   41.30
 -11  13   2  157.38   31.40
  13  -2   2  165.88   44.10
  -2 -11   2  204.28   40.20
 -11  -2  -2  123.09   30.90
  13 -11  -2  176.78   27.90
 -11  -2  -2  209.78   33.10
 -11  13   2  163.88   39.40
  -2  13  -2  131.09   35.60
  13 -11  -2  182.68   33.70
 -11  -2  -2  193.78   31.30
  -2 -11   2  186.78   41.80
  -2  13  -2  255.07   50.99
  13 -11  -2  137.19   30.40
 -13  10   2  826.22   57.79
 -13  10   2  835.52   45.10
   3  10  -2  856.71   58.49
   3  10  -2  847.62   59.99
  10 -13  -2  827.22   41.40
   3 -13   2  790.22   69.69
  10 -13  -2  841.42   46.60
  10   3   2  794.42   49.90
   3 -13   2  769.42   57.99
   3 -13   2  850.81   43.40
 -13   3  -2  849.41   56.19
  10 -13  -2  797.72   51.69
  10   3   2  810.82   68.09
  -3 -10   2  732.23   63.09
  -3  13  -2  773.62   61.29
 -10  -3  -2  851.01   55.89
  13 -10  -2  840.02   46.20
 -10  -3  -2  641.04   63.09
  -3  13  -2  874.11   61.09
 -10  -3  -2  840.92   55.29
  13 -10  -2  804.72   55.09
  -3 -10   2  774.82   56.19
  13  -3   2  830.02   67.19
 -10  13   2  838.12   46.50
 -10  13   2  817.52   68.59
  13 -10  -2  819.92   46.00
   9 -13  -2  792.82   41.20
   4   9  -2  774.62   48.10
   9   4   2  809.62   67.99
 -13   4  -2  738.73   53.59
   4   9  -2  824.72   55.69
   4 -13   2  806.32   42.10
   4   9  -2  754.92   57.39
 -13   9   2  868.91   44.00
   9 -13  -2  760.82   52.79
   9   4   2  905.31   53.99
   9 -13  -2  811.42   43.60
 -13   9   2  743.43   56.19
   4 -13   2  905.21   70.39
   4 -13   2  879.51   57.99
  13  -9  -2  810.72   44.50
  -4  13  -2  888.51   61.99
  -4  13  -2  711.43   59.79
  13  -4   2  838.32   63.99
  13  -9  -2  847.42   55.99
  -9  -4  -2  827.32   54.09
  13  -9  -2  840.12   41.70
  -4  -9   2  925.81   67.09
  -9  13   2  870.41   63.49
  -4  -9   2  804.02   56.99
  -9  -4  -2  854.31   47.40
  -9  -4  -2  874.11   58.09
   8 -13  -2  182.58   33.00
   8 -13  -2  206.38   45.10
   8   5   2  118.69   36.90
   8 -13  -2  176.68   27.80
   5 -13   2  205.28   30.60
   8   5   2  246.78   43.70
   5 -13   2  189.38   45.70
   5 -13   2  162.78   38.10
   5   8  -2  252.67   44.80
   5   8  -2  176.38   37.70
 -13   5  -2  154.38   41.60
  -5  13  -2  265.77   61.69
  -8  -5  -2  196.18   33.60
  -5  13  -2  191.78   37.10
  13  -5   2  167.38   40.80
  13  -8  -2  215.78   42.60
  -5  -8   2  185.58   34.80
  13  -8  -2  232.48   29.90
  -5  -8   2  223.28   40.40
  -8  -5  -2  213.18   42.40
  -8  -5  -2  208.28   36.60
  -8  13   2  140.79   36.70
  13  -8  -2  197.28   27.80
   6 -13   2  107.99   31.40
   6   7  -2  170.18   36.30
   6   7  -2  142.59   37.10
   7 -13  -2  145.89   32.20
   6 -13   2  133.69   51.99
   6   7  -2  157.28   42.70
   6 -13   2  151.88   29.30
   7   6   2  138.09   32.00
   7 -13  -2  170.08   24.40
   7   6   2  121.79   41.60
 -13   6  -2  170.88   34.10
 -13   7   2  143.39   29.00
   7 -13  -2  158.38   33.10
  -7  13   2  158.38   34.60
  13  -6   2  111.89   36.00
  -7  -6  -2  117.29   32.00
  -6  -7   2  252.57   44.50
  13  -7  -2  141.69   25.80
  -6  13  -2  226.78   51.19
  -7  13   2  139.79   37.10
  13  -7  -2  158.08   42.20
  13  -7  -2  124.39   28.00
  -6  -7   2  151.18   37.30
  -7  -6  -2  204.28   41.10
  -7  -6  -2  160.18   29.30
  -6  13  -2  172.08   46.00
   6 -13  -2  160.48   34.00
   6   7   2  138.89   40.80
 -13   6   2  166.88   30.40
 -13   6   2  148.79   23.50
   6   7   2  159.08   35.50
   6 -13  -2  160.38   20.70
   7   6  -2  160.48   29.60
   7 -13   2  170.08   42.10
 -13   7  -2  178.88   35.20
   7 -13   2  160.98   28.90
   6 -13  -2  169.98   32.70
   7   6  -2  135.49   34.70
   7   6  -2   98.09   27.50
   7 -13   2  168.98   38.00
  -7  -6   2  203.48   50.09
  13  -6  -2  179.98   43.10
  -7  13  -2  247.58   48.30
  -6  -7  -2  151.38   29.60
  13  -7   2  166.78   36.60
  -6  -7  -2  145.49   33.90
  -7  -6   2  182.68   43.00
  -7  13  -2  195.68   44.40
  -6  13   2  167.08   40.20
  -6  13   2  172.18   31.20
  -6  -7  -2  219.98   43.70
  13  -6  -2  137.49   28.20
   8 -13   2   85.79   51.29
   5   8   2   66.09   34.10
 -13   5   2   21.40   18.40
   8   5  -2   22.20   32.40
   5 -13  -2   79.09   29.40
   5 -13  -2   20.70   28.20
 -13   8  -2    9.70   27.70
   8 -13   2   40.70   35.10
   8   5  -2   28.80   31.70
   8   5  -2   42.70   21.50
   8 -13   2   26.70   20.70
   5   8   2   55.79   33.40
 -13   5   2   68.69   25.30
  13  -8   2   12.50   31.10
  -5  13   2   11.70   27.80
  -8  13  -2   53.99   30.80
  -8  -5   2   42.00   30.10
  13  -5  -2   35.80   17.50
  -5  -8  -2  -17.50   54.29
  -5  13   2    6.80   33.10
  13  -5  -2   17.50   16.00
  -8  -5   2   56.59   28.00
  -5  -8  -2   42.40   24.80
  -5  -8  -2   22.20   26.40
  13  -5  -2    3.20   27.30
  -8  13  -2   65.69   25.40
 -13   9  -2  360.06   47.60
   9   4  -2  350.36   51.79
   9 -13   2  352.86   37.30
   9   4  -2  346.27   42.00
   4   9   2  387.16   55.39
   4 -13  -2  328.17   52.39
 -13   4   2  356.36   34.00
 -13   4   2  384.26   63.39
   9 -13   2  335.57   40.40
   4 -13  -2  287.67   44.00
   9   4  -2  396.86   44.20
   9 -13   2  311.87   55.19
  13  -9   2  272.47   43.90
  -4  -9  -2  319.47   55.39
  -4  13   2  432.56   43.30
  -4  13   2  322.27   58.19
  13  -4  -2  340.57   33.70
  -9  13  -2  261.37   66.49
  -4  -9  -2  397.26   39.00
  -9  -4   2  367.06   53.09
  13  -4  -2  320.67   49.10
  13  -4  -2  346.27   31.60
  -9  -4   2  397.06   46.10
  -4  -9  -2  297.17   45.00
  10 -13   2  792.42   47.90
   3  10   2  724.83   67.19
  10   3  -2  819.62   60.69
  10 -13   2  841.32   50.89
  10 -13   2  771.02   60.69
 -13  10  -2  725.23   31.40
   3 -13  -2  809.12   64.49
 -13  10  -2  782.12   57.09
 -13   3   2  824.72   44.70
  10   3  -2  855.51   53.09
   3 -13  -2  696.93   53.59
   3  10   2  810.92   57.49
 -13   3   2  868.41   49.40
  10   3  -2  802.02   61.09
  13 -10   2  749.82   53.89
  -3  13   2  745.43   70.09
  13  -3  -2  778.22   58.89
  -3 -10  -2  801.82   66.59
  -3  13   2  863.21   54.89
  13 -10   2  781.72   30.70
  -3 -10  -2  768.02   55.79
  13  -3  -2  808.52   45.20
 -10  -3   2  811.32   58.69
 -10  -3   2  840.12   53.59
 -10  13  -2  779.72   50.49
  13  -3  -2  763.22   60.09
 -10  13  -2  802.92   59.09
   2  11   2  120.99   37.40
  11   2  -2   93.49   24.20
   2 -13  -2   90.49   30.00
   2  11   2   76.19   37.00
  11 -13   2  123.09   26.50
 -13   2   2  172.08   38.20
 -13  11  -2  148.79   24.40
  11 -13   2  167.48   33.00
   2 -13  -2   87.99   33.40
  11   2  -2  144.49   37.50
  11 -13   2  118.79   30.50
 -13   2   2  142.99   26.60
 -13  11  -2  136.79   35.60
  11   2  -2   89.89   34.20
  -2 -11  -2   71.49   34.20
 -11  -2   2  211.98   42.80
  13  -2  -2  102.39   35.60
  13 -11   2  148.59   29.00
  13 -11   2   88.89   29.80
 -11  -2   2  211.28   49.10
  13  -2  -2  149.49   38.20
 -11  13  -2  184.68   37.60
  -2  13   2   92.59   39.50
 -11  13  -2   69.69   33.70
  13 -11   2  162.58   22.20
  -2  13   2  106.69   33.80
  -2 -11  -2   73.79   29.50
   1  12   2   89.09   39.40
  12   1  -2   91.29   37.60
  12 -13   2  114.39   28.90
   1 -13  -2   78.89   33.70
   1 -13  -2   57.49   28.80
   1  12   2   94.09   33.90
  12   1  -2  100.99   25.00
  12   1  -2  134.69   32.80
 -13  12  -2  119.99   36.10
 -13   1   2   95.39   25.60
  12 -13   2  139.19   34.10
 -13  12  -2   71.39   18.60
 -13   1   2  111.99   26.40
  12 -13   2  124.79   35.70
  13 -12   2   77.29   30.80
 -12  -1   2  131.69   30.70
  -1  13   2   94.89   40.20
  -1  13   2   89.49   34.90
  13 -12   2  118.29   23.30
 -12  13  -2   92.09   22.40
  -1 -12  -2   37.40   33.60
 -12  13  -2   82.59   34.80
  13  -1  -2   76.49   21.80
  13  -1  -2   98.79   29.70
 -12  -1   2  183.68   48.80
  13  -1  -2   69.69   35.70
  -1 -12  -2   42.70   29.70
  13 -12   2  138.49   28.50
  13 -13   2   32.20   31.50
  13   0  -2    9.30   21.20
  13 -13   2   42.10   21.40
  13 -13   2   43.30   25.50
  13   0  -2   -4.30   31.20
   0 -13  -2   10.70   35.00
   0  13   2   28.50   34.30
  13   0  -2   40.30   29.30
   0 -13  -2   21.50   31.10
 -13   0   2   44.10   28.10
 -13   0   2   54.39   28.30
   0  13   2    8.50   41.10
 -13  13  -2   -4.20   34.60
 -14   0  -2 1290.97   52.89
  14 -14  -2 1358.46   72.29
 -14   0  -2 1303.67   62.79
   0  14  -2 1223.58   78.09
 -14   0  -2 1276.77   71.09
   0  14  -2 1274.07   65.59
  14   0   2 1264.27   88.09
   0  14  -2 1279.67   74.79
  14   0   2 1228.58   52.89
  14 -14  -2 1224.88   56.99
   0 -14   2 1234.18   84.39
 -14  14   2 1356.66   59.79
  14 -14  -2 1238.28   64.49
 -14  14   2 1206.58   84.69
   0 -14   2 1129.99   75.39
 -14  13   2  141.19   41.00
  13 -14  -2  135.69   29.80
  13   1   2  107.89   22.60
   1  13  -2  126.49   31.70
   1 -14   2  132.39   40.80
 -14   1  -2  120.09   31.20
  13 -14  -2  142.39   31.10
   1 -14   2  113.89   41.30
   1  13  -2  155.28   36.60
   1  13  -2   95.69   36.80
  13 -14  -2  159.48   35.00
 -14   1  -2  118.09   33.60
  13   1   2   78.39   50.19
 -14   1  -2  191.38   24.50
 -14  13   2  185.58   32.60
 -13  14   2  125.59   43.70
  -1  14  -2  112.59   37.70
 -13  -1  -2  148.99   36.10
 -13  -1  -2  176.28   45.20
 -13  14   2  175.98   35.10
  14 -13  -2  156.18   37.50
  -1 -13   2  101.19   37.10
  -1  14  -2  137.89   33.30
  14 -13  -2  107.39   27.80
  14  -1   2   99.19   48.40
  -1  14  -2  233.68   57.09
  14 -13  -2  137.49   29.90
 -13  -1  -2  147.59   34.00
  -1 -13   2  137.29   42.80
  14  -1   2  131.89   23.70
   2  12  -2  628.14   58.49
 -14  12   2  683.93   44.20
  12 -14  -2  657.83   40.80
  12   2   2  561.24   68.99
 -14   2  -2  721.13   56.49
  12 -14  -2  690.63   56.49
   2 -14   2  570.04   57.79
   2 -14   2  527.25   66.29
   2  12  -2  704.33   55.09
  12 -14  -2  584.34   51.09
   2  12  -2  691.23   58.69
 -14  12   2  586.34   62.39
  -2  14  -2  661.13   61.99
 -12  -2  -2  625.94   53.89
  14 -12  -2  599.24   40.80
 -12  -2  -2  627.74   42.80
  14  -2   2  557.04   67.29
 -12  14   2  596.64   70.39
  -2 -12   2  544.05   67.09
 -12  14   2  597.44   43.40
  -2 -12   2  531.65   57.59
  14 -12  -2  630.94   45.00
  14 -12  -2  640.14   53.09
 -12  -2  -2  668.63   55.69
  -2  14  -2  619.14   60.39
  -2  14  -2  662.23   47.80
 -14  11   2 1057.79   67.09
   3  11  -2 1011.50   65.09
 -14  11   2 1076.39   52.49
  11   3   2 1026.60   71.69
  11   3   2  937.31   55.29
   3  11  -2 1054.79   65.09
   3  11  -2 1062.09   59.49
   3 -14   2  975.20   65.09
   3 -14   2 1107.49   80.69
  11 -14  -2 1040.30   48.80
  11 -14  -2 1049.30   58.89
 -14   3  -2 1064.79   62.29
  11 -14  -2 1099.09   57.19
  14 -11  -2 1084.79   49.00
  14 -11  -2 1010.90   53.19
 -11  14   2 1067.29   52.79
  -3 -11   2 1022.70   75.49
  -3  14  -2  970.40   66.39
 -11  -3  -2  975.30   62.19
  14  -3   2 1066.59   76.39
  -3  14  -2 1111.99   71.79
  -3 -11   2 1017.70   65.29
 -11  -3  -2 1075.39   53.09
 -11  14   2 1045.60   74.39
  14 -11  -2 1094.89   62.89
 -11  -3  -2 1095.99   63.19
   4  10  -2  115.89   33.50
   4  10  -2  241.08   50.69
 -14   4  -2  172.38   45.90
  10   4   2   96.69   43.80
   4 -14   2  183.58   41.70
  10 -14  -2  218.98   31.50
  10 -14  -2  114.99   29.50
  10   4   2  215.98   42.20
   4  10  -2  177.48   40.60
   4 -14   2  142.59   30.30
 -14  10   2  204.58   32.00
   4 -14   2  146.39   36.40
  -4 -10   2  201.68   48.40
 -10  -4  -2  184.88   37.30
  14  -4   2  152.78   44.10
  -4 -10   2  184.68   38.80
 -10  -4  -2  138.09   32.50
 -10  -4  -2  197.68   34.60
  14 -10  -2  153.98   33.60
  -4  14  -2  249.28   56.39
 -10  14   2  197.28   42.80
  14 -10  -2  195.88   29.70
   9 -14  -2  113.49   31.20
   5   9  -2   90.29   29.30
 -14   9   2   73.99   28.00
   5 -14   2  126.29   25.30
   5   9  -2   89.59   32.00
   9 -14  -2  143.69   32.60
   9   5   2   92.39   32.20
 -14   5  -2  120.19   32.60
   5   9  -2   88.79   30.00
   5 -14   2   99.39   35.60
   9   5   2   67.89   42.80
 -14   9   2   76.79   19.30
   5 -14   2   89.79   40.80
  -5  -9   2   85.39   36.80
  14  -9  -2  116.79   23.70
  14  -9  -2   95.29   33.00
  -9  -5  -2   89.49   26.80
  -9  -5  -2   97.09   30.50
  -5  -9   2  100.69   36.60
  -9  -5  -2   72.39   31.20
  14  -5   2   65.29   39.60
  -9  14   2   71.99   39.60
  -5  14  -2  115.69   37.80
  14  -9  -2  108.99   23.10
  -5  14  -2   91.19   31.00
   8   6   2  251.17   49.20
   6 -14   2  202.48   42.20
   6   8  -2  124.69   29.70
   6   8  -2  200.48   44.40
   6 -14   2  168.08   31.80
 -14   8   2  203.58   30.00
 -14   6  -2  142.09   33.30
   8   6   2  161.28   42.30
   6   8  -2  136.99   37.40
   6 -14   2  175.68   36.20
   8 -14  -2  179.38   46.70
   8 -14  -2  143.99   34.10
  -8  -6  -2  206.58   45.60
  14  -8  -2  197.48   29.80
  -8  -6  -2  184.48   35.50
  -6  14  -2  160.98   36.80
  14  -8  -2  184.18   37.80
  -6  14  -2  243.38   50.79
  -6  -8   2  168.08   36.80
  -8  14   2  168.98   39.00
  14  -6   2  121.49   39.60
  -8  -6  -2  166.18   34.20
  14  -8  -2  176.48   30.40
  -6  -8   2  175.38   37.20
   7 -14  -2  124.49   34.10
   7   7   2   49.60   37.50
   7 -14  -2  109.89   30.60
   7 -14   2  159.68   43.70
   7 -14   2  135.99   30.30
   7   7  -2  161.68   30.90
 -14   7  -2  120.39   34.50
   7 -14   2  120.09   32.90
   7   7  -2   74.79   30.50
 -14   7   2  165.88   30.90
   7   7   2  205.48   52.89
   7   7  -2  103.99   35.70
  -7  14  -2  134.29   34.10
  14  -7   2  132.79   40.20
  -7  14  -2  174.18   39.20
  14  -7  -2  156.18   28.70
  -7  -7   2  152.18   39.20
  -7  -7  -2  113.89   30.00
  -7  -7  -2  149.69   40.20
  -7  -7   2  270.17   50.29
  -7  -7  -2  218.68   46.20
  14  -7  -2  179.98   38.00
  14  -7  -2  159.48   30.30
  -7  14   2  104.69   39.90
  -7  14   2  155.18   32.00
   8   6  -2  346.77   46.30
   6 -14  -2  372.86   48.00
   8   6  -2  255.47   45.50
   6 -14  -2  322.37   55.59
   6   8   2  339.47   60.89
   8   6  -2  423.36   55.49
 -14   6   2  351.16   36.00
   8 -14   2  343.37   35.70
   8 -14   2  401.96   49.10
   8 -14   2  459.15   91.09
 -14   8  -2  367.06   49.10
   6   8   2  274.37   59.19
  -8  -6   2  405.96   56.09
  14  -6  -2  387.56   49.90
  -6  -8  -2  332.17   45.90
  -6  14   2  333.77   63.99
  -8  14  -2  425.66   50.39
  14  -8   2  379.76   51.89
  -6  -8  -2  318.37   56.19
  14  -6  -2  349.27   34.30
  -8  -6   2  424.76   50.69
  14  -6  -2  379.86   34.20
  -6  14   2  392.26   44.20
   5   9   2  553.24   59.09
 -14   5   2  558.74   41.60
 -14   5   2  548.75   40.50
   9   5  -2  625.04   48.00
   5   9   2  610.34   68.19
   9 -14   2  631.44   63.79
   5 -14  -2  551.34   51.79
   9   5  -2  582.14   51.09
   9   5  -2  542.05   57.69
   9 -14   2  618.34   50.49
   9 -14   2  607.84   43.10
   5 -14  -2  576.84   60.19
 -14   9  -2  554.34   55.59
  -9  -5   2  648.24   63.39
  -5  14   2  606.04   66.09
  -5  14   2  554.24   49.99
  -9  14  -2  611.04   53.49
  -5  -9  -2  490.65   62.29
  14  -5  -2  601.24   39.00
  14  -5  -2  533.65   54.59
  -5  -9  -2  572.54   51.99
  -9  -5   2  635.64   55.99
  -5  -9  -2  668.33   48.20
  14  -5  -2  609.64   40.00
  -9  14  -2  525.25   65.29
  14  -9   2  592.14   53.09
  10 -14   2   92.59   35.00
   4  10   2   85.89   40.20
  10   4  -2   62.29   24.00
 -14   4   2  167.68   35.70
  10 -14   2   60.69   25.30
   4 -14  -2   31.50   28.90
   4 -14  -2   62.99   33.00
  10   4  -2  179.08   45.80
  10   4  -2   85.29   35.70
   4  10   2  112.69   40.70
 -14   4   2  107.29   23.30
 -14  10  -2   77.69   34.40
 -10  14  -2   49.00   33.00
  -4 -10  -2   46.30   35.50
  14 -10   2   69.99   30.40
  14  -4  -2   87.79   37.10
  -4 -10  -2   38.50   28.90
  14  -4  -2   64.49   32.10
  14  -4  -2   82.69   21.90
  -4 -10  -2  102.89   26.90
  -4  14   2   71.29   30.80
 -10  -4   2   94.79   31.60
 -10  14  -2   89.79   27.00
  -4  14   2   96.39   43.40
 -10  -4   2   94.29   34.10
  11 -14   2  409.36   45.10
  11 -14   2  402.96   56.09
 -14   3   2  377.16   38.70
 -14   3   2  421.06   43.40
  11   3  -2  427.16   50.39
   3 -14  -2  325.37   49.70
  11 -14   2  393.16   40.50
 -14  11  -2  339.17   24.30
  11   3  -2  276.57   56.89
 -14  11  -2  343.97   52.29
   3 -14  -2  344.67   58.09
 -14  11  -2  364.96   20.90
  11   3  -2  394.76   45.80
   3  11   2  377.06   57.49
   3  11   2  332.47   67.69
  -3  14   2  332.77   49.60
 -11  -3   2  426.36   56.19
  -3 -11  -2  332.67   63.39
 -11  14  -2  390.06   54.89
 -11  14  -2  441.76   71.79
  14  -3  -2  400.06   37.80
  14  -3  -2  359.06   53.19
  -3 -11  -2  336.47   51.29
  -3  14   2  356.46   65.09
  14  -3  -2  414.56   40.60
 -11  -3   2  444.06   50.79
  14 -11   2  374.86   47.20
  14 -11   2  346.07   23.60
   2  12   2  446.36   57.79
 -14   2   2  473.05   42.10
  12 -14   2  452.25   51.79
  12 -14   2  385.16   39.90
 -14   2   2  456.75   46.10
 -14  12  -2  408.06   54.29
  12   2  -2  407.26   58.59
   2 -14  -2  350.16   50.99
  12   2  -2  542.85   52.49
   2 -14  -2  353.16   57.99
  12 -14   2  445.26   44.40
   2  12   2  445.26   69.09
  12   2  -2  407.16   45.60
  14 -12   2  407.66   48.80
  14  -2  -2  420.26   44.50
  -2  14   2  440.16   49.30
  -2 -12  -2  319.27   52.59
  -2 -12  -2  385.76   65.89
 -12  14  -2  397.86   55.99
  14  -2  -2  441.06   55.79
  14  -2  -2  479.25   39.90
 -12  14  -2  479.35   45.00
  14 -12   2  432.66   29.80
 -12  -2   2  486.35   52.19
  -2  14   2  418.96   71.79
 -12  -2   2  491.35   58.69
 -14   1   2   83.59   29.00
   1  13   2   66.09   36.90
   1 -14  -2   11.60   36.70
 -14  13  -2   24.70   35.80
   1 -14  -2   -4.40   33.60
  13 -14   2   66.59   29.00
  13   1  -2   37.20   34.80
 -14   1   2   53.69   26.90
  13   1  -2   26.60   23.70
   1  13   2   12.10   43.00
  13 -14   2    4.30   30.00
  13 -14   2   76.49   24.90
  13   1  -2   49.80   32.60
  -1  14   2   11.00   39.40
 -13  14  -2  -15.80   20.60
 -13  14  -2    4.20   35.00
  -1  14   2   67.59   37.20
  -1 -13  -2  -15.40   29.60
  14  -1  -2   25.40   31.70
  14  -1  -2   23.80   21.60
 -13  -1   2   90.19   30.20
  -1 -13  -2  -19.80   32.70
 -13  -1   2   65.79   29.90
  14 -13   2   28.20   31.80
  14  -1  -2   51.19   28.50
  14 -13   2   54.79   20.10
  14 -13   2   52.89   22.10
  14   0  -2   55.29   37.10
  14 -14   2  171.28   43.60
   0  14   2  129.79   42.10
   0 -14  -2   82.09   36.20
   0  14   2   92.39   42.80
  14 -14   2  119.79   35.20
 -14   0   2  122.79   32.10
  14   0  -2   81.69   25.50
 -14   0   2  103.89   31.10
  14 -14   2  126.59   29.60
 -14  14  -2   33.20   37.30
   0 -14  -2   38.80   32.20
  14   0  -2  129.79   35.60
  15   0   2   21.60   18.00
  15 -15  -2   53.79   29.40
 -15   0  -2   47.80   31.90
   0  15  -2   42.00   34.20
 -15  15   2   59.29   40.00
 -15   0  -2   45.70   28.40
   0 -15   2    4.40   36.60
  15 -15  -2   24.10   23.10
 -15  15   2   34.50   18.30
   0  15  -2   13.50   34.50
  15 -15  -2   29.70   37.00
   0 -15   2   26.60   40.10
  15   0   2   43.80   48.40
   0  15  -2   45.10   31.50
  14 -15  -2  589.74   56.19
 -15   1  -2  539.95   56.19
  14 -15  -2  535.35   49.80
   1 -15   2  533.05   74.19
 -15   1  -2  506.45   39.00
 -15  14   2  499.65   68.39
  14   1   2  578.44   42.60
   1  14  -2  462.75   61.19
  14 -15  -2  525.05   40.60
   1  14  -2  541.95   53.19
 -15   1  -2  563.74   32.90
 -15  14   2  615.64   42.10
  14   1   2  442.46   71.49
   1  14  -2  509.95   57.39
   1 -15   2  476.75   60.79
  -1  15  -2  489.55   49.60
  -1 -14   2  474.05   72.39
  -1 -14   2  440.36   59.19
  -1  15  -2  481.15   60.79
 -14  -1  -2  559.64   52.99
 -14  15   2  477.55   70.49
  15  -1   2  467.85   72.09
 -14  -1  -2  519.35   55.29
  15 -14  -2  535.05   58.89
 -14  15   2  623.44   42.70
  15 -14  -2  487.25   46.50
  -1  15  -2  534.45   64.49
 -14  -1  -2  596.64   42.70
  15  -1   2  540.05   30.70
  15 -14  -2  530.35   42.20
   2  13  -2  860.61   58.19
   2  13  -2  827.12   65.59
 -15   2  -2  809.22   61.89
  13   2   2  758.02   78.29
   2 -15   2  799.02   81.69
   2 -15   2  772.32   65.69
  13 -15  -2  868.81   59.39
   2  13  -2  897.21   62.19
 -15  13   2  811.42   72.39
 -15  13   2  949.60   50.29
  13 -15  -2  881.31   59.99
  13 -15  -2  890.21   47.80
  -2  15  -2  897.31   55.59
 -13  -2  -2  901.11   62.19
  15  -2   2  877.41   77.99
 -13  -2  -2  882.91   60.89
  -2  15  -2  836.02   68.59
 -13  15   2  897.01   75.19
  -2  15  -2  835.62   68.69
  15 -13  -2  916.01   48.70
  15 -13  -2  920.61   64.39
  -2 -13   2  801.22   80.49
  -2 -13   2  748.83   66.19
 -13  15   2  938.21   51.29
  15 -13  -2  863.41   52.09
   3 -15   2  158.88   41.70
  12 -15  -2  174.88   33.50
   3  12  -2  120.19   33.80
   3 -15   2  120.59   43.80
   3  12  -2  226.38   52.19
 -15   3  -2  109.29   33.20
  12   3   2  154.28   48.30
 -15  12   2  131.79   35.10
  12 -15  -2  162.58   34.80
  12 -15  -2  198.38   36.70
 -15  12   2  187.48   35.80
   3  12  -2  134.89   35.20
  -3  15  -2  152.88   38.70
  15 -12  -2  121.39   27.00
 -12  -3  -2  225.28   39.20
  15 -12  -2  115.79   34.30
  -3 -12   2  164.98   43.40
  -3 -12   2  108.19   39.10
  15  -3   2  146.29   51.59
 -12  15   2  144.09   34.70
  15 -12  -2  184.48   30.30
  -3  15  -2  127.29   35.40
 -12  15   2  162.48   43.80
 -12  -3  -2  192.28   50.19
   4  11  -2  185.38   46.00
 -15   4  -2  180.78   47.90
  11   4   2   82.69   51.49
   4 -15   2   77.09   37.00
  11 -15  -2  161.58   31.00
   4 -15   2  104.09   42.00
   4 -15   2  178.78   32.70
 -15  11   2  140.19   32.30
   4  11  -2  119.99   47.00
  11 -15  -2  111.39   30.60
  11 -15  -2  202.48   41.90
   4  11  -2  215.58   51.29
  11   4   2  121.59   49.50
 -15  11   2  119.99   34.50
  -4 -11   2  133.19   41.30
 -11  -4  -2  195.08   49.60
  15 -11  -2  131.49   34.20
 -11  -4  -2  162.28   38.30
  -4  15  -2  105.19   35.30
  -4  15  -2  159.88   39.80
  15 -11  -2  129.69   30.80
 -11  -4  -2  113.79   32.70
  -4 -11   2  116.19   42.10
  15 -11  -2  171.68   35.60
 -11  15   2  119.29   41.20
  15  -4   2  160.58   47.00
  10 -15  -2  260.07   37.50
   5 -15   2  216.58   53.39
   5  10  -2  183.58   45.00
  10   5   2  276.27   64.79
   5 -15   2  262.47   69.19
 -15  10   2  229.28   33.40
   5 -15   2  221.68   34.60
  10   5   2  300.47   46.50
  10 -15  -2  238.88   44.00
   5  10  -2  228.38   42.70
 -15  10   2  223.98   37.60
   5  10  -2  235.18   48.60
 -15   5  -2  188.58   48.80
  -5  15  -2  275.67   57.09
  15 -10  -2  218.38   34.10
 -10  -5  -2  255.07   53.29
  -5 -10   2  145.39   36.00
  15  -5   2  231.58   58.29
 -10  -5  -2  239.18   37.60
 -10  15   2  148.29   40.10
  15 -10  -2  195.88   35.00
  -5 -10   2  216.08   40.40
  -5  15  -2  207.38   42.60
  15 -10  -2  212.78   40.40
   6 -15   2  194.98   40.70
   9 -15  -2  149.79   33.40
   6   9  -2   88.99   31.10
   6   9  -2  218.68   46.20
   9 -15  -2  153.18   30.80
   9 -15  -2  129.39   31.90
   6   9  -2  161.08   39.00
   6 -15   2  187.18   33.80
   6 -15   2  230.98   48.10
 -15   9   2  162.18   31.00
 -15   6  -2  174.28   37.30
   9   6   2  107.89   45.40
  15  -6   2  100.09   38.30
  -6  15  -2  241.98   54.59
  -9  -6  -2  173.28   36.50
  15  -9  -2  162.48   36.70
  -9  -6  -2  199.28   50.29
  -9  15   2  153.68   40.70
  -6  -9   2  223.88   58.99
  -6  -9   2  161.18   37.40
  -9  -6  -2  164.08   31.10
  -6  15  -2  115.79   38.90
  15  -9  -2  170.38   33.50
  15  -9  -2  181.98   32.50
   7 -15   2  219.48   35.20
 -15   8   2  164.18   24.80
   8   7   2  168.98   47.20
   8 -15  -2  127.39   24.40
   7   8  -2  222.88   54.79
 -15   7  -2  175.18   36.70
   7 -15   2  184.38   45.90
   7 -15   2  163.18   39.30
   8   7   2  264.47   52.99
   8 -15  -2  127.69   30.40
   7   8  -2  133.89   30.40
   8 -15  -2  149.79   33.90
  -8  -7  -2  148.59   37.30
  15  -8  -2  153.38   35.30
  -7  -8   2  167.18   39.20
  -8  -7  -2  270.07   48.50
  15  -8  -2  189.58   38.80
  15  -7   2  145.99   44.90
  -8  -7  -2  138.79   31.30
  -7  15  -2  262.67   57.69
  -7  -8   2  202.58   40.70
  -7  15  -2  217.78   53.49
  -8  15   2  157.98   32.60
  15  -8  -2  172.38   34.40
  -8  15   2  156.38   43.40
   8 -15   2  418.66   38.60
   8   7  -2  461.65   57.89
   8   7  -2  475.45   51.29
   8 -15   2  461.45   71.99
   7 -15  -2  395.06   51.99
   7 -15  -2  434.26   53.39
   7   8   2  474.85   57.59
 -15   8  -2  415.16   52.79
   7   8   2  471.55   65.59
   8   7  -2  330.97   48.40
   8 -15   2  561.64   55.79
   7 -15  -2  358.76   25.40
  -7  -8  -2  422.06   60.79
  -8  15  -2  508.05   56.69
  15  -8   2  312.37   54.99
  -7  15   2  448.16   66.69
  -7  15   2  511.05   48.40
  15  -7  -2  447.16   53.99
  15  -7  -2  521.15   39.50
  -8  15  -2  530.65   59.59
  -8  -7   2  514.75   57.29
  -7  -8  -2  388.36   48.60
  -8  -7   2  461.35   62.79
  15  -7  -2  453.85   53.29
   6 -15  -2   38.00   32.80
   9   6  -2  -40.50   32.30
   6 -15  -2   70.49   33.70
   9   6  -2   20.60   33.80
   6   9   2  -11.80   37.70
   9 -15   2   85.79   32.60
   9   6  -2   30.60   26.40
 -15   9  -2   14.20   32.00
   9 -15   2   51.89   38.80
 -15   6   2   14.30   18.80
   9 -15   2   34.10   25.10
   6   9   2   87.99   37.50
  15  -6  -2   27.10   21.20
  -6  -9  -2   29.40   30.50
  -9  -6   2   41.40   33.60
  -6  15   2   25.50   32.80
  -6  -9  -2   41.30   34.30
  -6  -9  -2   92.09   41.90
  -6  15   2   31.70   38.80
  -9  -6   2   99.99   35.60
  15  -6  -2   13.40   31.40
  -9  15  -2   62.89   33.10
  15  -6  -2   54.39   21.70
  15  -9   2   10.40   34.40
  10   5  -2  564.04   62.89
 -15   5   2  559.04   40.70
  10 -15   2  581.84   82.49
  10   5  -2  506.65   49.99
   5  10   2  517.25   63.19
  10   5  -2  639.54   56.79
  10 -15   2  525.55   42.70
 -15  10  -2  548.05   56.49
   5  10   2  562.24   70.59
  10 -15   2  553.54   53.99
 -15   5   2  587.54   43.30
   5 -15  -2  500.05   60.69
  15  -5  -2  520.15   40.60
 -10  -5   2  522.55   54.09
 -10  -5   2  513.95   61.79
 -10  15  -2  540.75   56.19
  -5 -10  -2  512.15   65.59
  -5 -10  -2  492.15   53.79
  15  -5  -2  489.95   42.40
  -5  15   2  497.55   46.50
  15  -5  -2  500.55   57.29
 -10  15  -2  559.34   58.69
  15 -10   2  489.15   52.89
  -5  15   2  421.46   70.19
  11   4  -2 1019.60   65.89
  11 -15   2  918.61   58.69
  11   4  -2  835.02   68.19
   4  11   2  799.62   72.99
 -15  11  -2  858.81   64.39
  11   4  -2  983.20   58.19
  11 -15   2  920.71   71.59
   4 -15  -2  809.22   67.69
   4 -15  -2  762.42   59.29
   4  11   2  858.51   77.69
  11 -15   2  835.52   52.19
 -15   4   2  976.50   49.99
 -15   4   2  931.21   52.89
  -4 -11  -2  787.82   72.59
  15  -4  -2  777.92   64.49
  15 -11   2  831.12   59.59
  -4  15   2  797.72   76.19
 -11  15  -2  848.62   61.79
 -11  -4   2  886.71   63.39
  -4 -11  -2  822.52   61.19
  15  -4  -2  806.72   49.90
 -11  15  -2  782.02   67.99
 -11  -4   2  956.20   68.89
  -4  15   2  806.82   59.29
  15  -4  -2  899.01   49.80
   3 -15  -2   35.70   35.60
 -15   3   2  155.28   40.20
 -15  12  -2   85.89   37.20
  12 -15   2   92.09   32.20
   3  12   2   72.19   43.80
 -15  12  -2   66.99   14.00
  12   3  -2   67.59   27.00
  12   3  -2   41.70   36.00
 -15  12  -2   65.89   17.60
   3  12   2   88.19   43.40
   3 -15  -2   78.49   38.70
  12 -15   2   55.39   27.40
  15  -3  -2   60.09   35.00
 -12  15  -2   47.50   36.30
  -3  15   2   96.49   38.80
  15  -3  -2   83.99   27.60
  15 -12   2   51.39   33.60
 -12  -3   2   97.19   34.40
  -3 -12  -2   39.40   35.50
  15  -3  -2   45.20   22.40
  -3 -12  -2   61.19   40.90
  15 -12   2   65.49   15.10
 -12  -3   2   88.29   32.90
  -3  15   2   20.20   38.10
   2  13   2  203.28   46.30
   2 -15  -2  207.28   49.10
  13   2  -2  239.08   44.50
  13   2  -2  280.47   57.19
   2  13   2  284.17   76.09
  13 -15   2  376.36   44.40
 -15   2   2  386.26   44.80
 -15   2   2  359.46   48.00
  13 -15   2  326.37   44.20
  13   2  -2  416.66   57.69
 -15  13  -2  251.17   54.39
   2 -15  -2  198.78   41.00
  13 -15   2  336.37   53.99
  -2 -13  -2  209.98   51.39
  15 -13   2  280.47   47.20
 -13  -2   2  320.07   58.49
 -13  -2   2  355.66   53.19
  15  -2  -2  341.77   47.00
 -13  15  -2  269.47   56.29
 -13  15  -2  278.17   67.19
  -2 -13  -2  260.77   65.99
  -2  15   2  268.17   72.79
  15  -2  -2  222.68   54.59
  15  -2  -2  291.27   38.80
  15 -13   2  284.77   30.60
  -2  15   2  190.58   42.50
 -15  14  -2  125.39   40.50
 -15   1   2  197.28   46.90
  14   1  -2  237.18   55.59
  14   1  -2  107.69   38.40
   1 -15  -2  107.99   41.70
  14 -15   2  168.78   40.80
  14 -15   2  115.59   32.10
  14   1  -2  152.48   29.70
   1  14   2  131.99   45.80
  14 -15   2  222.68   49.60
   1 -15  -2  112.59   37.00
 -14  -1   2  236.58   51.09
  15 -14   2  164.48   37.10
  -1 -14  -2  123.69   39.10
  15 -14   2  212.88   40.80
  -1  15   2  105.39   37.10
  -1 -14  -2   92.49   34.70
  -1  15   2  203.68   46.90
 -14  -1   2  207.28   56.09
  15  -1  -2  194.08   48.00
  15  -1  -2  128.49   40.50
  15  -1  -2  126.79   26.10
 -14  15  -2  130.09   40.40
   0  15   2   10.40   33.40
   0 -15  -2    4.60   30.70
  15   0  -2  -24.60   33.50
 -15   0   2   53.29   30.80
   0 -15  -2   13.10   33.20
  15   0  -2   -5.10   24.00
 -15   0   2   23.20   32.90
  15 -15   2   18.90   28.50
   0  15   2   10.50   44.20
  15   0  -2   77.39   33.80
 -15  15  -2  -14.50   36.10
  15 -15   2   43.40   23.00
  15 -15   2   40.80   26.00
   0  16  -2  366.46   49.70
   0 -16   2  331.67   55.69
  16 -16  -2  391.46   46.20
  16 -16  -2  355.46   52.39
 -16  16   2  525.65   62.89
   0  16  -2  384.46   57.89
 -16  16   2  403.26   35.20
  16 -16  -2  408.56   38.40
  16   0   2  440.26   34.80
   0 -16   2  322.57   67.69
 -16   0  -2  395.36   55.29
   0  16  -2  377.66   50.19
  16   0   2  474.65   63.79
 -16   0  -2  452.45   46.60
   1  15  -2  380.66   48.80
   1  15  -2  347.77   57.49
  15 -16  -2  361.96   46.10
 -16   1  -2  341.27   52.99
  15 -16  -2  377.86   37.70
 -16  15   2  354.46   34.30
   1 -16   2  241.68   57.79
 -16  15   2  447.26   65.69
 -16   1  -2  364.46   36.20
  15 -16  -2  404.16   52.09
   1  15  -2  240.18   50.49
  15   1   2  317.37   69.29
  -1 -15   2  413.76   67.19
  16 -15  -2  392.76   55.29
  -1  16  -2  368.86   49.50
  16 -15  -2  382.06   44.00
  -1  16  -2  312.57   55.49
  16 -15  -2  396.76   38.60
 -15  -1  -2  404.36   50.79
  16  -1   2  348.57   69.39
 -15  16   2  313.47   65.39
  -1  16  -2  390.36   62.79
 -15  16   2  391.56   34.10
 -15  -1  -2  365.46   53.39
 -15  -1  -2  461.75   39.60
  16  -1   2  354.86   26.90
   2 -16   2  -45.00   39.90
  14 -16  -2   12.60   28.70
 -16  14   2   37.70   17.60
   2  14  -2  -28.90   35.60
 -16   2  -2   21.20   32.00
   2  14  -2   17.40   32.90
 -16  14   2   17.60   35.90
   2  14  -2   31.80   32.50
  14 -16  -2   24.90   23.10
  14 -16  -2   36.00   32.20
   2 -16   2  -37.00   34.20
  16  -2   2   30.20   46.60
  -2  16  -2   12.60   36.80
  16 -14  -2   18.70   24.80
  -2 -14   2   10.80   39.80
 -14  -2  -2   44.00   26.60
  -2  16  -2   17.40   31.00
  16 -14  -2   19.80   22.60
 -14  -2  -2   44.50   32.90
  16 -14  -2   11.00   36.80
  -2  16  -2   42.10   35.40
  -2 -14   2   17.50   37.40
 -14  16   2   -1.20   42.10
 -14  -2  -2   70.79   31.10
 -16  13   2  180.38   39.50
 -16   3  -2  187.78   49.99
  13   3   2  176.08   51.69
   3  13  -2  228.58   71.99
   3 -16   2  160.08   44.10
   3  13  -2  179.88   37.90
  13 -16  -2  195.58   44.10
   3 -16   2  167.88   41.90
   3  13  -2  209.08   49.99
  13 -16  -2  239.28   45.60
  13 -16  -2  223.98   34.70
 -16  13   2  256.27   34.80
  16  -3   2  124.49   47.60
  16 -13  -2  235.28   40.00
 -13  -3  -2  224.08   53.69
 -13  -3  -2  200.78   51.99
  16 -13  -2  187.38   34.40
 -13  16   2  150.08   25.50
 -13  16   2  170.28   44.40
 -13  -3  -2  257.67   40.80
  -3  16  -2  231.98   57.59
  -3 -13   2  130.29   39.20
  -3  16  -2  244.48   61.49
  -3 -13   2  148.69   42.10
  16 -13  -2  156.28   39.60
  -3  16  -2  179.18   42.10
 -16  12   2  221.38   33.70
   4 -16   2  252.07   59.99
 -16  12   2  285.47   58.09
   4 -16   2  194.88   45.60
  12 -16  -2  200.48   45.00
 -16   4  -2  226.78   51.79
   4  12  -2  286.27   56.99
  12   4   2  205.28   53.39
  12 -16  -2  248.78   48.90
  12 -16  -2  273.57   34.50
   4  12  -2  266.27   52.69
   4  12  -2  231.38   55.49
  -4  16  -2  217.98   54.19
  16 -12  -2  245.78   35.50
  16 -12  -2  264.37   40.50
 -12  16   2  235.28   36.30
  -4 -12   2  205.58   46.30
  16  -4   2  251.57   64.39
  -4  16  -2  305.57   63.09
  16 -12  -2  197.68   54.39
 -12  16   2  234.28   46.30
 -12  -4  -2  257.37   41.40
  -4 -12   2  220.18   42.40
 -12  -4  -2  230.28   51.49
   5  11  -2  127.59   39.70
 -16  11   2  122.19   31.80
   5  11  -2  114.99   34.60
  11 -16  -2  114.89   28.90
   5 -16   2  231.38   54.69
  11 -16  -2  200.88   33.60
 -16   5  -2  146.89   37.50
  11 -16  -2  109.69   31.60
   5  11  -2  142.49   33.40
  11   5   2   95.39   49.00
   5 -16   2  185.08   48.80
 -16  11   2  143.39   34.40
  11   5   2  230.18   44.50
 -11  -5  -2  160.98   31.70
  16 -11  -2  159.68   39.00
  16 -11  -2  147.39   35.20
  -5 -11   2  177.78   40.90
  -5  16  -2   61.99   39.20
  -5  16  -2  180.68   37.90
 -11  -5  -2  209.58   54.19
 -11  -5  -2  168.58   37.20
  16  -5   2  137.79   48.10
 -11  16   2  211.18   47.50
  16 -11  -2  163.58   36.30
  -5 -11   2  222.28   54.89
  10 -16  -2   50.69   28.40
   6 -16   2   82.89   24.70
   6  10  -2   50.99   31.60
  10   6   2   -1.10   43.80
   6  10  -2   54.99   30.40
   6 -16   2   55.69   37.10
   6 -16   2   75.69   45.20
 -16  10   2   47.30   31.70
 -16  10   2   11.10   17.30
 -16   6  -2   60.39   32.80
   6  10  -2   75.19   37.50
  10 -16  -2   50.89   27.80
  10 -16  -2   41.20   22.00
 -10  -6  -2   46.70   29.10
  -6  16  -2   52.49   33.90
  16 -10  -2   62.09   22.60
 -10  -6  -2  107.49   35.50
  16  -6   2   10.50   38.30
  -6 -10   2   42.20   37.50
  -6 -10   2   49.70   39.60
  16 -10  -2   79.99   25.10
 -10  16   2   59.09   41.60
 -10  -6  -2   34.10   34.30
  16 -10  -2   55.89   34.20
  -6  16  -2   58.69   39.30
   7   9  -2  177.58   37.80
 -16   7  -2  198.08   49.99
 -16   9   2  115.09   23.60
   9 -16  -2  115.39   32.00
   7   9  -2  201.88   55.59
   7 -16   2  219.68   36.30
   7 -16   2  195.68   41.20
   9   7   2  138.29   44.40
   9 -16  -2  154.68   34.40
   7   9  -2  161.58   33.00
   9 -16  -2  171.38   28.20
   9   7   2  304.07   63.89
   7 -16   2  219.08   49.70
  -9  -7  -2  160.68   38.10
  -9  -7  -2  204.88   44.70
  16  -9  -2  185.48   36.00
  16  -7   2  237.88   48.60
  -7  -9   2  154.18   37.50
  -7  16  -2  162.98   36.00
  16  -9  -2  167.28   37.40
  -7  -9   2  261.07   57.09
  -9  16   2  198.68   46.30
  -9  16   2  137.09   35.00
  -7  16  -2  200.78   44.40
 -16   8   2  159.68   25.40
   8   8  -2  198.28   46.90
   8   8   2  317.77   57.99
   8 -16  -2  216.78   41.10
 -16   8  -2  208.08   50.69
   8 -16  -2  179.38   37.10
   8 -16   2  274.07   50.39
   8   8   2  147.19   49.70
   8 -16   2  255.17   38.10
   8   8  -2  192.58   41.50
  -8  16   2  158.98   34.90
  16  -8  -2  201.08   36.10
  -8  16  -2  181.38   45.50
  -8  -8   2  251.07   46.90
  16  -8   2  141.99   40.10
  16  -8  -2  190.08   39.50
  -8  -8  -2  196.78   40.70
  -8  -8  -2  199.58   35.50
  -8  16  -2  296.47   57.09
  -8  16   2  229.58   46.30
  -8  -8   2  290.37   64.59
  16  -8  -2  236.38   35.20
 -16   9  -2  492.15   57.69
   9   7  -2  303.57   54.39
 -16   7   2  360.56   35.40
   9 -16   2  450.65   40.40
   7   9   2  508.65   61.79
   9 -16   2  568.84   57.59
   7 -16  -2  421.76   55.09
   9   7  -2  483.65   62.99
   9   7  -2  414.56   49.40
   7 -16  -2  468.35   61.29
   7   9   2  435.96   67.29
   9 -16   2  562.34   74.89
  -9  -7   2  443.26   65.39
  16  -7  -2  471.45   39.40
  -7  16   2  492.85   49.99
  16  -7  -2  445.36   55.99
  -9  16  -2  495.85   58.69
  16  -7  -2  490.75   42.20
  -9  16  -2  517.95   64.79
  -9  -7   2  405.36   60.89
  16  -9   2  440.46   56.49
  -7  16   2  407.86   74.49
  -7  -9  -2  390.16   52.69
  -7  -9  -2  415.26   62.79
  10 -16   2  854.21   63.89
 -16  10  -2  678.93   62.49
  10   6  -2  668.53   55.49
   6  10   2  651.33   62.09
 -16   6   2  783.62   47.20
  10   6  -2  740.53   66.29
  10 -16   2  737.13   49.60
  10   6  -2  587.14   64.69
   6 -16  -2  729.23   59.09
  10 -16   2  849.61   74.99
   6 -16  -2  658.13   69.79
 -16   6   2  720.23   46.20
   6  10   2  822.12   72.09
 -10  -6   2  692.43   73.39
  16  -6  -2  735.83   44.80
  16  -6  -2  726.23   64.09
  16 -10   2  641.54   59.89
 -10  -6   2  809.72   64.79
 -10  16  -2  718.73   63.79
 -10  16  -2  735.13   68.79
  -6 -10  -2  699.23   59.89
  -6  16   2  683.33   57.09
  -6 -10  -2  722.63   70.59
  -6  16   2  741.13   77.69
   5  11   2  167.28   49.70
   5 -16  -2   88.99   36.70
   5 -16  -2  121.49   37.30
  11 -16   2  183.98   36.70
  11   5  -2   85.59   38.30
   5  11   2  136.19   43.00
  11   5  -2  150.08   31.10
 -16  11  -2  117.79   38.30
  11 -16   2  187.58   40.10
  -5  16   2  195.78   49.30
 -11  16  -2  106.09   51.39
 -11  -5   2  230.18   55.69
 -11  -5   2  128.39   37.30
  -5 -11  -2  167.18   39.50
  16  -5  -2  124.49   38.70
  -5 -11  -2  107.49   36.30
  -5  16   2  119.89   44.40
  -5 -11  -2  117.69   40.80
  16 -11   2  143.69   38.30
  16  -5  -2  143.79   34.90
 -11  16  -2  104.89   38.00
  12 -16   2  404.46   59.89
   4 -16  -2  268.57   49.00
   4  12   2  285.37   52.39
 -16  12  -2  268.87   56.09
  12 -16   2  303.17   43.30
   4 -16  -2  332.37   62.49
  12   4  -2  305.97   50.19
  12   4  -2  308.87   58.69
   4  12   2  330.47   67.39
 -12  -4   2  397.16   56.89
  -4 -12  -2  281.47   53.29
  16  -4  -2  345.57   40.00
  -4  16   2  326.87   51.79
  16  -4  -2  284.47   53.49
 -12  16  -2  305.47   61.29
  16 -12   2  323.47   50.39
  -4  16   2  358.16   71.99
 -12  -4   2  289.77   64.89
  -4 -12  -2  303.87   65.79
 -12  16  -2  355.46   52.79
   3  13   2  554.84   77.09
   3  13   2  535.55   65.49
  13 -16   2  463.75   47.60
  13   3  -2  468.35   49.90
  13 -16   2  543.65   60.29
   3 -16  -2  410.66   56.49
  13 -16   2  625.44   52.29
   3 -16  -2  467.75   62.19
 -16  13  -2  470.65   26.60
 -16   3   2  577.74   46.10
 -16   3   2  584.54   50.39
  13   3  -2  482.25   60.89
 -16  13  -2  414.96   58.99
 -13  16  -2  369.46   59.49
 -13  -3   2  507.45   63.89
  16 -13   2  430.46   50.59
 -13  -3   2  540.85   58.39
  16  -3  -2  495.65   44.60
  16  -3  -2  432.96   56.59
  16  -3  -2  504.45   59.29
  -3  16   2  394.56   71.49
  -3 -13  -2  351.46   56.29
  -3  16   2  460.25   56.99
  -3 -13  -2  480.35   69.39
 -13  16  -2  530.85   53.29
  16 -13   2  432.16   28.50
  14   2  -2   34.30   36.10
   2  14   2   69.19   41.70
 -16   2   2   80.39   27.90
 -16   2   2  109.09   30.20
   2  14   2   31.80   42.80
   2 -16  -2   47.20   35.80
 -16  14  -2   28.00   36.10
  14   2  -2   38.20   26.10
  14 -16   2   78.19   31.60
  14 -16   2   81.19   31.90
 -16  14  -2   84.79   22.40
   2 -16  -2   37.00   34.80
  16  -2  -2   21.40   35.90
  16 -14   2   59.39   20.10
  16  -2  -2  183.28   46.80
  -2  16   2   80.79   40.30
  -2 -14  -2   24.80   32.40
  -2 -14  -2   36.50   36.80
  16  -2  -2   67.29   23.20
  -2  16   2   53.79   38.40
 -14  16  -2   40.70   37.20
  16 -14   2   50.29   33.80
 -14  -2   2   85.79   35.50
 -14  -2   2   81.49   34.60
   1  15   2  414.66   73.99
  15   1  -2  420.56   45.50
 -16   1   2  460.05   55.79
 -16   1   2  470.25   51.19
   1  15   2  334.17   50.99
  15 -16   2  408.76   43.90
  15   1  -2  316.67   54.69
  15 -16   2  358.56   46.20
   1 -16  -2  324.17   61.09
  15 -16   2  459.55   51.79
   1 -16  -2  322.97   51.59
 -16  15  -2  277.97   55.29
  -1  16   2  383.76   58.09
  16 -15   2  390.26   48.30
 -15  -1   2  389.36   53.19
  -1 -15  -2  422.56   63.39
  -1  16   2  289.47   73.49
  -1 -15  -2  271.97   52.99
 -15  -1   2  374.06   58.29
 -15  16  -2  294.57   56.59
  16  -1  -2  362.36   43.80
  16 -15   2  414.36   35.80
  16  -1  -2  456.45   51.39
  16  -1  -2  285.87   55.29
 -15  16  -2  262.77   49.90
 -16   0   2  398.86   51.89
  16 -16   2  306.07   45.70
  16   0  -2  288.77   52.09
   0  16   2  390.46   55.59
  16   0  -2  344.07   42.90
  16 -16   2  353.56   46.50
   0  16   2  346.77   68.29
   0 -16  -2  249.38   51.49
   0 -16  -2  300.57   58.99
 -16  16  -2  285.87   58.09
 -16   0   2  347.77   55.29
   0 -17   2  -10.90   34.70
   0  17  -2   38.40   39.20
  17 -17  -2   31.30   27.50
 -17   0  -2   15.40   33.10
  17 -17  -2   -6.60   34.20
   0  17  -2    3.90   29.80
   0  17  -2   -9.10   32.40
  17 -17  -2   13.90   22.90
 -17  17   2  -13.90   36.00
 -17  17   2    9.40   15.00
  17   0   2    7.40   46.30
 -17  16   2  106.59   28.90
   1  16  -2  118.29   35.10
  16   1   2  107.99   22.20
   1 -17   2   55.59   34.70
 -17   1  -2   72.99   32.60
  16 -17  -2  123.29   31.60
  16 -17  -2  112.89   37.00
   1 -17   2  104.39   40.10
   1  16  -2  211.48   53.49
  16 -17  -2   97.79   24.90
  16   1   2  128.29   50.09
   1  16  -2   82.59   34.10
  -1  17  -2   71.49   34.40
 -16  -1  -2  137.99   37.70
  17 -16  -2  116.89   29.20
  -1 -16   2   87.09   36.70
  -1  17  -2   93.69   33.80
  -1  17  -2   95.89   32.00
  17  -1   2  120.79   48.60
  17  -1   2  113.49   22.30
  17 -16  -2  167.08   41.40
  -1 -16   2  107.39   41.60
 -16  17   2  145.89   27.50
  17 -16  -2  110.49   27.10
 -16  17   2  127.59   41.20
  15   2   2  460.95   67.59
 -17   2  -2  340.67   52.29
 -17  15   2  509.15   64.39
   2 -17   2  491.55   69.79
   2  15  -2  287.57   57.49
 -17  15   2  406.46   35.00
   2  15  -2  387.76   52.79
  15 -17  -2  327.87   49.20
   2  15  -2  439.16   55.59
   2 -17   2  336.07   54.99
  15 -17  -2  357.36   47.30
  15 -17  -2  348.07   37.50
  -2  17  -2  317.17   47.50
 -15  17   2  416.76   61.69
 -15  -2  -2  381.36   54.69
  -2  17  -2  250.97   60.79
 -15  -2  -2  435.96   42.00
  -2 -15   2  278.07   52.29
  -2  17  -2  225.48   56.39
  17 -15  -2  372.16   41.80
 -15  -2  -2  434.66   53.29
  17  -2   2  363.16   67.59
 -15  17   2  288.17   33.30
  17 -15  -2  368.66   37.70
  17 -15  -2  339.97   51.39
  -2 -15   2  332.07   62.79
  14   3   2  164.68   41.20
   3  14  -2  188.48   54.39
   3  14  -2  180.78   37.90
   3  14  -2  120.99   36.00
   3 -17   2  130.09   41.80
 -17   3  -2  161.38   37.50
  14 -17  -2  194.08   43.30
  14 -17  -2  153.18   33.90
 -17  14   2  287.97   58.49
  14 -17  -2  184.98   33.60
 -17  14   2  131.99   29.00
  14   3   2  173.38   53.99
   3 -17   2  247.88   66.99
 -14  17   2  128.19   30.70
 -14  -3  -2  235.88   55.29
  17 -14  -2  180.18   42.30
  17  -3   2  120.09   48.50
  -3 -14   2   83.29   38.60
  17 -14  -2  182.68   35.10
  -3  17  -2  143.89   33.10
  17 -14  -2  197.58   38.30
 -14  17   2  172.68   41.10
  -3 -14   2  104.39   42.10
  -3  17  -2  144.99   40.50
  -3  17  -2  145.99   39.30
 -14  -3  -2  241.08   40.10
 -14  -3  -2  220.78   58.69
 -17  13   2   69.59   34.30
  13 -17  -2   22.50   31.90
 -17   4  -2   -3.10   30.10
  13 -17  -2   55.49   30.40
  13   4   2   58.89   49.60
 -17  13   2   31.70   16.40
   4 -17   2   21.60   35.80
   4  13  -2   47.00   33.40
   4  13  -2   60.39   34.80
  13 -17  -2   41.90   23.30
   4  13  -2   17.80   35.30
   4 -17   2   87.19   40.90
  13   4   2   -5.90   22.00
 -13  17   2   44.30   39.50
  17 -13  -2   43.90   24.50
 -13  -4  -2   73.69   27.90
  -4  17  -2   56.99   35.40
  17 -13  -2   29.90   22.70
  17 -13  -2   -5.50   36.40
 -13  17   2   14.70   19.20
 -13  -4  -2   64.09   34.00
  -4 -13   2   -3.90   36.50
  17  -4   2   43.50   47.10
 -13  -4  -2   37.70   31.40
  -4 -13   2   21.60   35.10
  12   5   2  -13.90   43.30
   5 -17   2   38.00   37.00
  12 -17  -2   84.29   25.80
 -17   5  -2   30.00   31.20
   5  12  -2   37.30   32.30
  12 -17  -2   65.79   23.50
   5 -17   2   71.69   43.70
 -17  12   2  114.79   33.10
   5  12  -2   13.30   35.40
 -17  12   2   22.30   16.70
  12 -17  -2   37.70   30.40
   5  12  -2   60.09   33.70
 -12  -5  -2   59.99   28.90
 -12  -5  -2   74.19   35.90
  -5  17  -2   11.60   35.80
  17  -5   2   -1.60   42.00
  -5 -12   2   36.80   39.90
 -12  17   2   28.80   37.50
  17 -12  -2   50.39   23.80
  -5 -12   2   41.90   38.40
  17 -12  -2   43.30   36.30
  -5  17  -2   36.80   34.00
  17 -12  -2   43.70   24.50
  11 -17  -2   31.50   30.90
 -17   6  -2   48.70   34.00
   6 -17   2   96.79   45.10
 -17  11   2   68.69   29.60
  11   6   2  -28.50   41.30
  11 -17  -2   32.60   23.40
   6 -17   2   10.00   23.30
   6 -17   2   22.80   39.10
   6  11  -2    8.50   31.20
   6  11  -2   34.40   30.60
   6  11  -2   12.90   34.70
  17 -11  -2   35.10   24.40
  -6 -11   2   27.10   35.20
 -11  -6  -2   23.90   32.10
 -11  17   2   -1.70   38.50
  17 -11  -2   25.10   21.90
 -11  -6  -2   40.20   29.00
  -6  17  -2   18.80   33.50
  17  -6   2   18.20   39.20
  -6 -11   2  -13.50   38.10
  17 -11  -2    3.80   34.10
  -6  17  -2   22.10   37.30
   7 -17   2  285.17   71.99
  10   7   2   77.99   47.10
 -17   7  -2  133.89   35.10
  10 -17  -2  132.09   36.50
   7 -17   2  157.18   36.00
   7  10  -2   97.99   37.80
   7  10  -2   56.39   34.70
  10 -17  -2  139.69   37.00
   7  10  -2  100.69   30.70
 -17  10   2  110.49   33.20
   7 -17   2  147.69   42.10
  17 -10  -2  101.19   35.70
 -10  -7  -2  135.39   37.40
  -7  17  -2  118.09   35.70
 -10  -7  -2  119.99   32.70
  17  -7   2   99.09   45.80
  -7 -10   2   85.59   38.60
  -7  17  -2  110.39   42.90
  -7 -10   2   95.39   37.90
 -10  17   2   90.29   33.50
  17 -10  -2  151.38   37.60
 -10  17   2  119.59   42.80
   8   9  -2  200.18   48.80
   9 -17  -2   99.79   31.10
   9   8   2  211.58   50.69
 -17   9   2   90.09   28.60
   8 -17   2  283.07   54.59
   8 -17   2  330.27   72.29
   8   9  -2  261.07   59.59
 -17   8  -2  199.38   50.79
   8 -17   2  214.88   37.00
   9 -17  -2  200.68   37.80
  -9  17   2  133.59   35.50
  -9  -8  -2  128.99   38.40
  -8  -9   2  188.38   42.80
  -9  -8  -2  182.68   34.80
  -8  17  -2  188.38   43.60
  17  -9  -2  172.78   38.60
  -8  -9   2  153.28   38.70
  -9  17   2  319.17   65.79
  17  -8   2  188.18   46.20
  17  -9  -2  234.88   39.20
  -8  17  -2  140.49   35.10
   9   8  -2  356.06   49.80
   9   8  -2  372.26   60.29
   8   9   2  512.45   61.49
   8 -17  -2  371.36   52.19
   9 -17   2  438.36   71.19
   9 -17   2  447.96   59.39
   8   9   2  311.67   65.59
 -17   9  -2  414.76   56.49
   9 -17   2  398.16   42.10
   8 -17  -2  419.46   54.99
  -9  17  -2  382.96   58.99
  -9  -8   2  355.76   57.19
  17  -8  -2  423.16   38.50
  -8  17   2  490.45   51.49
  -8  -9  -2  438.36   62.29
  17  -9   2  401.56   57.89
  17  -8  -2  394.56   57.79
  -8  17   2  387.46   69.19
  -9  -8   2  378.26   68.49
  -8  -9  -2  364.66   51.29
  -9  17  -2  474.45   68.89
  17  -8  -2  447.46   43.90
 -17  10  -2   41.80   33.80
 -17   7   2   34.40   19.00
  10   7  -2   24.80   28.10
   7 -17  -2   72.09   31.60
  10   7  -2   53.99   37.80
  10 -17   2   97.69   37.30
  10 -17   2  132.59   41.70
   7  10   2   97.19   38.40
  10 -17   2   94.89   28.60
   7 -17  -2   30.20   35.50
   7  10   2   27.30   42.30
  -7 -10  -2   56.49   37.90
 -10  -7   2   21.40   37.30
  -7 -10  -2   53.19   33.70
  17  -7  -2   37.30   35.10
  17  -7  -2   61.89   26.80
  -7  17   2   12.20   34.70
 -10  17  -2   50.09   42.30
 -10  -7   2   49.40   40.40
  -7  17   2   54.99   40.30
  17 -10   2   46.60   36.60
  17  -7  -2   48.50   19.90
 -10  17  -2   68.69   32.50
   6 -17  -2  413.86   59.89
  11 -17   2  508.45   69.79
  11   6  -2  335.97   59.39
 -17  11  -2  399.76   54.49
   6  11   2  467.75   65.79
  11 -17   2  363.56   43.40
  11 -17   2  495.25   57.29
   6 -17  -2  286.27   53.89
   6  11   2  423.36   60.89
  11   6  -2  330.07   47.20
 -11  -6   2  365.56   63.59
  17  -6  -2  355.46   37.80
 -11  17  -2  376.96   63.89
  17  -6  -2  379.16   43.50
  -6 -11  -2  371.46   63.99
 -11  17  -2  304.67   58.09
 -11  -6   2  366.06   56.99
  17  -6  -2  270.27   57.09
  -6 -11  -2  379.36   54.39
  -6 -11  -2  288.67   53.69
  -6  17   2  348.27   50.09
  17 -11   2  350.06   53.19
  -6  17   2  271.57   68.59
  12 -17   2  835.62   52.19
   5 -17  -2  785.72   69.09
  12 -17   2  909.31   70.79
   5  12   2  846.92   72.49
   5  12   2  829.62   74.69
  12 -17   2  984.80   60.79
 -17  12  -2  767.52   63.59
  12   5  -2  798.72   59.69
  12   5  -2  885.51   67.89
   5 -17  -2  698.73   59.89
 -12  17  -2  687.03   66.59
  17  -5  -2  840.02   52.59
  17  -5  -2  758.62   65.09
 -12  17  -2  776.52   63.69
 -12  -5   2  848.22   73.39
  -5  17   2  785.42   76.39
  -5 -12  -2  757.02   73.19
  17 -12   2  767.32   55.79
  -5  17   2  805.32   61.19
  -5 -12  -2  719.33   62.59
  17  -5  -2  842.32   50.49
 -12  -5   2  828.82   62.79
  13 -17   2  203.58   47.80
   4  13   2   93.09   42.50
   4 -17  -2   94.69   37.20
 -17  13  -2   93.29   38.10
   4  13   2  103.19   45.20
   4 -17  -2   92.19   37.30
  13   4  -2   92.79   29.80
  13 -17   2  126.79   31.90
  13   4  -2  101.49   36.70
  17  -4  -2  105.39   30.40
  -4  17   2   99.79   42.70
  -4  17   2  119.09   38.10
  -4 -13  -2   75.39   33.30
  -4 -13  -2   74.99   37.70
 -13  -4   2  102.19   38.50
 -13  17  -2   51.29   40.10
  17  -4  -2   71.19   23.80
 -13  -4   2  127.59   40.10
  17 -13   2  101.39   37.10
  17  -4  -2   97.49   39.20
   3 -17  -2  301.97   53.59
   3 -17  -2  416.36   61.39
  14   3  -2  400.56   56.49
 -17   3   2  487.35   50.49
   3  14   2  409.76   62.59
 -17  14  -2  321.67   55.39
  14 -17   2  545.75   58.29
 -17  14  -2  423.76   26.80
 -17   3   2  525.35   46.20
  14 -17   2  381.96   45.40
  14   3  -2  360.96   48.30
   3  14   2  451.85   74.39
 -14  17  -2  345.47   49.90
  -3  17   2  388.36   55.99
  17  -3  -2  334.97   55.79
  17  -3  -2  528.05   52.09
 -14  17  -2  313.47   58.49
 -14  -3   2  468.35   57.99
 -14  -3   2  393.66   64.39
  -3 -14  -2  340.67   55.59
  17  -3  -2  422.66   42.40
  -3 -14  -2  386.86   65.59
  17 -14   2  351.56   47.00
  -3  17   2  463.45   67.09
  15 -17   2  333.87   49.70
  15 -17   2  379.16   43.40
  15   2  -2  236.18   43.40
 -17   2   2  337.17   48.40
 -17  15  -2  234.78   43.30
   2  15   2  338.97   56.79
   2 -17  -2  256.47   49.00
   2 -17  -2  273.07   57.19
 -17  15  -2  273.97   27.20
   2  15   2  356.96   71.39
 -17   2   2  318.37   50.79
  15 -17   2  274.07   42.20
  15   2  -2  213.98   51.39
  17 -15   2  329.67   32.60
  -2  17   2  254.67   67.99
  17 -15   2  294.67   45.90
  -2 -15  -2  177.28   37.00
  17  -2  -2  283.37   39.40
  17  -2  -2  225.68   54.09
  -2 -15  -2  331.77   61.99
 -15  -2   2  357.66   58.89
 -15  -2   2  325.17   53.99
 -15  17  -2  202.28   55.89
  -2  17   2  300.97   53.19
 -17   1   2   27.30   27.00
  16 -17   2   64.19   27.40
   1  16   2   77.29   40.70
 -17   1   2   49.70   32.30
  16   1  -2   -4.10   22.20
  16   1  -2   -2.20   32.10
   1  16   2   49.70   39.60
   1 -17  -2  -10.90   32.50
  16 -17   2   25.10   28.30
   1 -17  -2    6.00   37.50
 -17  16  -2   14.50   36.10
  17  -1  -2   -9.40   30.70
  -1  17   2   49.99   39.80
  -1 -16  -2  -10.20   30.20
  17  -1  -2   -0.90   20.40
  17 -16   2   16.80   27.20
 -16  -1   2   56.49   34.40
  -1  17   2   18.20   38.60
  -1 -16  -2   37.60   33.40
 -16  17  -2  -14.90   34.60
 -16  -1   2   26.00   29.60
  17   0  -2  182.58   39.90
 -17  17  -2   60.29   41.90
  17 -17   2  210.58   39.10
 -17   0   2  165.98   38.00
   0 -17  -2  123.99   45.00
 -17   0   2   80.59   33.70
  17   0  -2  116.29   38.70
   0  17   2  157.38   44.90
   0  17   2   94.59   40.10
  17 -17   2  163.98   42.00
   0 -17  -2  112.09   38.50
 -18  18   2   65.19   19.10
   0  18  -2   55.99   34.90
 -18  18   2  137.99   37.70
   0 -18   2  105.39   41.00
  18 -18  -2   59.49   31.00
  18   0   2  105.49   52.89
  18 -18  -2   91.59   35.40
  18 -18  -2   86.19   28.80
 -18   0  -2  115.49   39.00
 -18   1  -2   35.80   33.90
  17 -18  -2   69.99   32.10
  17 -18  -2   61.49   27.30
 -18  17   2   49.20   19.30
   1  17  -2   -8.40   33.00
 -18  17   2   80.79   34.70
  17   1   2   31.10   47.70
  17 -18  -2   76.59   30.70
  -1 -17   2   19.00   37.80
 -17  18   2   19.80   18.50
  18 -17  -2   20.90   25.30
  18  -1   2   80.09   47.60
  18 -17  -2   21.20   27.00
  18 -17  -2   77.19   39.20
  -1  18  -2   41.10   32.20
 -17  -1  -2   70.29   36.90
 -17  -1  -2  122.69   36.40
  16 -18  -2   73.99   26.50
  16 -18  -2  102.29   32.00
   2  16  -2   60.19   36.60
   2 -18   2   41.80   36.00
   2  16  -2    8.20   33.40
 -18  16   2   62.99   20.00
  16   2   2   49.30   48.40
 -18   2  -2   74.79   32.80
  16 -18  -2   88.59   33.10
  -2 -16   2   26.20   34.00
  -2  18  -2   63.49   31.60
  18 -16  -2   69.49   27.20
 -16  -2  -2   89.99   36.60
 -16  18   2  117.39   27.40
  18  -2   2   94.79   48.30
  18 -16  -2   61.99   25.20
  -2  18  -2   -4.90   33.30
  18 -16  -2   35.40   40.00
   3  15  -2   76.99   35.20
  15 -18  -2  115.79   32.20
  15 -18  -2  138.99   33.30
 -18  15   2  177.38   28.90
   3  15  -2  190.98   40.50
  15 -18  -2  177.08   41.20
   3  15  -2  121.09   40.10
  15   3   2  149.19   47.90
 -18   3  -2  127.39   34.10
   3 -18   2  140.29   44.10
   3 -18   2  141.49   41.00
 -15  -3  -2  207.98   52.49
  18 -15  -2  125.89   38.10
 -15  18   2  269.47   60.69
  18 -15  -2  172.78   35.40
  -3 -15   2  145.69   39.50
  -3 -15   2  115.59   38.20
  18 -15  -2  153.58   30.20
  -3  18  -2  151.18   34.60
 -15  18   2  135.59   22.90
  18  -3   2  188.38   49.50
 -15  -3  -2  214.08   56.39
  14   4   2  234.98   52.99
   4  14  -2  177.38   36.90
 -18  14   2  127.99   29.10
   4 -18   2  224.58   53.59
   4  14  -2  191.78   37.90
 -18   4  -2  144.19   34.60
  14   4   2   97.29   28.40
  14 -18  -2  167.88   34.00
   4  14  -2  254.47   52.79
   4 -18   2  266.97   66.19
  14 -18  -2  167.48   40.50
  14 -18  -2  241.78   45.90
 -14  -4  -2  276.77   65.49
  -4  18  -2  162.18   45.40
  18  -4   2  217.68   50.59
 -14  18   2  173.18   39.80
  18 -14  -2  212.28   42.40
 -14  -4  -2  265.97   41.60
  -4 -14   2  138.99   42.00
  -4 -14   2  135.79   40.00
  18 -14  -2  179.08   38.00
  18 -14  -2  177.18   35.00
  -4  18  -2  147.69   37.20
  -4  18  -2  178.68   36.10
  13   5   2   20.60   43.20
   5  13  -2   48.90   34.60
   5 -18   2  104.39   41.80
  13 -18  -2   72.59   32.50
   5 -18   2   28.40   37.10
   5  13  -2   54.19   33.30
  13   5   2   36.80   31.10
  13 -18  -2   22.00   28.20
  13 -18  -2   61.79   25.30
 -18  13   2   69.89   34.70
 -18   5  -2   57.49   32.20
   5  13  -2    3.10   28.60
 -18  13   2   40.10   17.20
 -13  18   2   -3.30   37.40
  18  -5   2   77.09   41.90
  -5  18  -2   27.90   35.00
  -5 -13   2   -4.30   36.80
  18 -13  -2   49.20   23.50
 -13  -5  -2   73.69   32.20
  18 -13  -2   49.30   23.50
  18 -13  -2   65.49   38.00
  -5  18  -2   57.49   37.40
  -5 -13   2    3.00   33.10
 -13  -5  -2   91.89   28.90
  12   6   2  -18.40   43.10
 -18  12   2   23.30   15.50
   6 -18   2   46.70   24.20
   6  12  -2    9.00   31.00
   6  12  -2   28.90   27.20
  12 -18  -2   43.90   29.80
   6  12  -2   20.00   36.70
 -18  12   2   95.09   31.70
 -18   6  -2   48.20   33.90
   6 -18   2   52.69   36.20
  18 -12  -2   59.39   24.90
  -6 -12   2    7.70   34.70
  -6  18  -2  -18.70   36.80
 -12  18   2   31.50   35.00
  -6  18  -2   17.50   34.60
 -12  -6  -2   77.59   29.70
  18 -12  -2    2.20   32.60
  -6 -12   2   32.50   35.40
  18 -12  -2   47.70   22.10
  18  -6   2    3.10   39.60
 -12  -6  -2   71.49   32.60
  11 -18  -2   99.39   30.00
   7  11  -2  139.19   40.00
 -18  11   2   67.29   18.80
   7 -18   2  118.49   36.00
 -18   7  -2  118.59   34.40
  11 -18  -2   76.99   28.50
  11   7   2  102.59   48.60
   7  11  -2   96.19   35.70
   7  11  -2   78.79   30.00
  11   7   2  102.69   28.60
   7 -18   2  123.79   28.60
 -11  -7  -2  113.99   34.90
  -7  18  -2  106.69   43.40
  -7 -11   2   97.79   38.30
  18 -11  -2  124.69   28.50
  -7 -11   2   94.09   38.70
  18 -11  -2  120.79   38.50
 -11  18   2   75.89   38.00
  18  -7   2  143.49   46.30
  -7  18  -2  104.79   38.50
 -11  -7  -2  152.88   32.80
   8  10  -2   17.60   34.60
   8 -18   2   72.89   41.20
 -18   8  -2   52.59   31.70
  10 -18  -2   13.80   28.30
 -18  10   2    1.10   15.90
   8  10  -2  -10.20   30.20
 -18  10   2   29.80   28.40
  10   8   2   -5.10   40.50
  10 -18  -2   45.20   30.70
   8 -18   2   63.59   34.20
   8 -18   2   46.10   24.70
  -8  18  -2  -10.60   39.00
 -10  -8  -2   32.90   29.20
  -8 -10   2  -18.50   36.90
 -10  18   2   89.49   40.10
  18  -8   2   28.90   40.70
  18 -10  -2  -15.30   33.00
  18 -10  -2   47.60   25.70
 -10  -8  -2   25.80   31.70
 -10  18   2   23.40   30.90
  -8 -10   2   33.80   38.70
  -8  18  -2   37.20   33.20
   9 -18   2   95.29   38.20
   9 -18  -2   78.69   29.10
 -18   9  -2  125.39   36.70
   9 -18   2  146.89   43.20
   9   9  -2   73.29   29.10
   9   9   2   97.89   45.80
   9 -18   2  113.69   29.50
   9   9  -2  100.09   37.70
   9 -18  -2   81.39   32.20
  -9  18  -2  113.79   33.90
  -9  -9  -2  100.59   33.30
  18  -9   2   91.49   40.70
  -9  18  -2   82.99   43.00
  18  -9  -2  156.48   39.50
  -9  -9   2  115.29   41.80
  -9  18   2  103.39   42.20
  -9  -9   2   87.79   37.80
  -9  -9  -2  133.39   37.20
  -9  18   2  119.19   36.70
  18  -9  -2  117.99   38.90
   8 -18  -2  213.68   54.89
  10   8  -2  226.68   43.40
  10 -18   2  320.67   54.99
   8  10   2  200.48   50.59
  10   8  -2  110.69   28.40
  10 -18   2  233.58   39.30
   8 -18  -2  169.18   37.40
 -18  10  -2  222.18   51.19
 -18   8   2  110.39   27.40
 -18   8   2  123.69   22.30
 -10  18  -2  272.87   63.59
 -10  -8   2  175.78   43.60
 -10  -8   2  150.98   38.80
 -10  18  -2  175.48   36.00
  -8 -10  -2  159.68   38.10
  18 -10   2  196.28   49.30
  -8  18   2  233.58   61.79
  -8  18   2  201.18   46.60
  18  -8  -2  211.98   34.00
  -8 -10  -2  172.38   36.20
  18  -8  -2  143.49   37.30
  18  -8  -2  220.88   39.50
  11   7  -2  361.86   49.00
   7  11   2  476.35   64.89
  11   7  -2  480.45   59.39
  11 -18   2  585.94   58.29
   7 -18  -2  392.76   60.09
  11 -18   2  477.65   43.60
   7 -18  -2  462.05   54.39
   7  11   2  465.65   66.19
 -18  11  -2  453.65   55.49
  11 -18   2  616.54   69.69
 -11  -7   2  333.47   68.79
  18  -7  -2  509.45   44.70
  18  -7  -2  432.86   57.09
  18  -7  -2  461.05   39.90
 -11  -7   2  437.46   57.99
  18 -11   2  404.46   53.49
  -7 -11  -2  428.16   51.09
 -11  18  -2  428.76   68.69
  -7  18   2  412.86   51.49
  -7 -11  -2  490.95   62.79
 -11  18  -2  468.25   60.79
  -7 -11  -2  407.36   53.59
  -7  18   2  525.45   65.89
   6  12   2  173.98   45.30
   6  12   2  136.39   37.80
 -18  12  -2  112.49   35.20
  12 -18   2  113.49   30.70
   6 -18  -2  137.29   36.40
  12   6  -2  128.69   28.50
  12   6  -2  189.38   42.10
   6 -18  -2  229.98   56.29
  -6  18   2  184.38   46.10
  18  -6  -2  204.08   41.40
  18  -6  -2  163.98   33.00
  -6 -12  -2  161.58   40.10
 -12  -6   2  134.29   40.40
 -12  -6   2  112.09   39.00
  18  -6  -2   64.59   34.80
  18 -12   2  114.19   33.40
 -12  18  -2   97.99   33.00
  -6 -12  -2  107.69   37.80
 -12  18  -2  123.39   43.00
  -6  18   2   79.39   41.10
  13   5  -2  399.46   56.69
   5 -18  -2  318.87   60.99
 -18  13  -2  410.56   54.19
  13 -18   2  456.25   50.89
  13   5  -2  291.47   47.50
  13 -18   2  519.35   61.49
  13 -18   2  403.96   43.00
   5  13   2  458.35   60.69
   5 -18  -2  292.87   52.09
   5  13   2  365.26   60.99
  -5 -13  -2  317.17   52.49
 -13  -5   2  367.16   63.79
  -5 -13  -2  349.17   59.89
 -13  18  -2  375.46   53.99
  -5  18   2  341.37   70.09
 -13  -5   2  356.66   57.39
  18 -13   2  379.76   49.60
 -13  18  -2  278.07   59.69
  -5  18   2  342.07   48.70
  18  -5  -2  387.16   40.20
  18  -5  -2  350.66   54.69
  18  -5  -2  483.15   46.80
   4  14   2  614.54   71.19
  14   4  -2  540.95   58.59
 -18   4   2  634.04   47.80
 -18   4   2  501.55   51.49
   4 -18  -2  485.75   53.49
  14 -18   2  553.94   47.20
  14   4  -2  487.15   49.99
 -18  14  -2  519.05   58.89
   4 -18  -2  479.85   61.69
   4  14   2  575.64   65.79
  18 -14   2  529.85   51.09
  18  -4  -2  578.64   45.10
  -4 -14  -2  507.65   64.09
  18  -4  -2  520.85   58.29
 -14  -4   2  532.45   65.19
 -14  18  -2  437.66   54.49
 -14  -4   2  545.85   58.89
  -4  18   2  581.44   65.19
 -14  18  -2  581.64   67.29
  18  -4  -2  630.74   52.69
  -4 -14  -2  469.25   56.59
  -4  18   2  558.94   56.69
 -18   3   2   33.80   25.60
   3  15   2    4.20   40.70
  15   3  -2   14.50   30.70
   3 -18  -2   73.49   33.50
 -18  15  -2   33.50   13.80
  15 -18   2   33.40   30.40
  15 -18   2   84.29   34.10
   3  15   2   55.69   40.50
   3 -18  -2   23.70   30.00
  15 -18   2   98.29   34.10
 -18  15  -2    4.50   34.70
 -18   3   2   71.89   29.90
  15   3  -2  -20.70   23.70
  18  -3  -2   17.90   32.90
  18  -3  -2   45.20   21.00
 -15  18  -2    8.50   32.70
  -3 -15  -2   16.20   32.70
 -15  -3   2   20.30   32.90
  -3  18   2   18.20   35.90
  18 -15   2   21.80   30.20
  -3  18   2    9.80   40.40
  -3 -15  -2   49.50   37.30
 -15  -3   2   33.20   36.50
 -15  18  -2    4.00   36.70
  16   2  -2  128.59   29.20
  16 -18   2  111.19   35.00
   2  16   2  110.99   43.30
  16 -18   2  129.09   35.80
 -18   2   2  237.98   49.90
  16   2  -2  116.09   38.80
   2  16   2   82.69   43.90
 -18  16  -2   66.49   37.50
 -18  16  -2  159.88   26.30
   2 -18  -2  114.99   35.70
 -18   2   2  101.29   32.60
  16 -18   2  199.88   50.29
  -2 -16  -2  237.08   60.99
  18  -2  -2  117.99   26.20
  -2 -16  -2  141.59   38.90
  18  -2  -2   79.59   35.60
  -2  18   2  132.09   43.50
  -2  18   2  137.19   41.50
 -16  18  -2   70.99   40.70
 -16  -2   2  106.79   36.70
 -16  -2   2  178.18   40.30
  18 -16   2  170.58   43.30
 -16  18  -2   75.99   28.00
 -18   1   2   34.00   30.30
  17 -18   2   44.20   33.20
   1  17   2   22.40   36.50
  17   1  -2   13.30   35.40
 -18   1   2   32.20   33.80
   1  17   2   20.10   50.89
  17   1  -2  -36.40   26.10
 -18  17  -2   43.10   39.30
  17 -18   2   54.89   30.60
 -17  18  -2   -5.10   37.60
 -17  -1   2   13.50   35.50
  18 -17   2   32.60   32.70
 -17  -1   2   55.69   35.50
  -1 -17  -2    1.70   35.20
  -1  18   2   26.30   39.60
  18  -1  -2   27.40   22.60
  18  -1  -2   19.10   39.90
   0  18   2   37.60   36.90
  18   0  -2   52.99   37.10
 -18   0   2  104.29   40.20
   0 -18  -2   51.89   33.70
  18 -18   2   62.19   29.90
  18   0  -2   58.09   27.10
 -18   0   2  103.29   34.60
 -18  18  -2   76.39   46.40
   0 -19   2   -3.30   36.30
 -19   0  -2   37.40   37.70
 -19  19   2  -13.50   19.20
   0  19  -2   24.10   38.50
  19 -19  -2  -28.80   36.90
  19 -19  -2    3.90   27.60
  19   0   2   75.99   46.30
  19 -19  -2   27.50   31.30
  18 -19  -2   98.29   33.40
  18 -19  -2   92.99   39.30
  18 -19  -2   75.69   27.20
   1  18  -2   65.89   39.20
  18   1   2  147.39   51.79
   1 -19   2   72.39   36.50
 -19  18   2  163.08   32.20
 -19   1  -2  131.79   39.40
 -19  18   2  113.09   39.50
  -1 -18   2   77.19   40.60
  19 -18  -2  195.08   49.10
  -1  19  -2   82.69   37.30
 -18  -1  -2  115.69   44.50
  19  -1   2  113.89   49.00
  19 -18  -2   31.10   31.10
  19 -18  -2   83.69   29.50
 -18  19   2  102.89   22.80
  17 -19  -2   41.90   32.30
  17 -19  -2   21.50   36.20
   2  17  -2   38.60   34.70
  17   2   2   37.60   46.70
 -19   2  -2   53.19   41.20
 -19  17   2   30.70   22.80
   2 -19   2  123.39   40.80
  17 -19  -2   39.80   25.30
  19 -17  -2   46.30   26.60
 -17  -2  -2   84.09   37.50
 -17  19   2  103.39   36.90
  -2  19  -2   33.50   32.50
  19  -2   2  113.99   49.50
  19 -17  -2   62.89   29.10
  -2 -17   2    6.80   33.80
  16 -19  -2   -0.90   38.10
   3  16  -2   64.79   38.00
 -19  16   2   93.79   21.00
  16   3   2   49.60   26.20
  16 -19  -2   54.89   24.50
   3  16  -2  115.39   44.00
  16 -19  -2  103.29   32.80
 -16  19   2   43.40   36.60
  -3  19  -2   99.19   35.30
  19 -16  -2   72.49   26.80
  -3 -16   2   28.80   34.70
  19  -3   2  140.99   74.79
  19 -16  -2   31.00   41.60
 -16  -3  -2  112.59   38.40
  19 -16  -2   62.59   28.60
  15   4   2  102.49   49.60
   4 -19   2   99.19   39.00
  15 -19  -2   75.49   38.10
  15   4   2  174.48   41.90
   4  15  -2   53.69   34.70
  15 -19  -2  114.09   32.20
 -19   4  -2   53.89   34.60
   4  15  -2  129.29   39.50
  15 -19  -2   67.69   24.40
  19 -15  -2  137.69   41.00
  19 -15  -2   85.19   26.90
  19 -15  -2  111.89   29.40
 -15  19   2   24.10   37.90
 -15  19   2  103.29   27.00
  -4  19  -2  117.79   33.40
  19  -4   2  154.28   46.40
  -4  19  -2   55.29   35.20
   5  14  -2  108.59   36.50
   5 -19   2   75.99   37.90
 -19   5  -2   48.10   32.40
   5  14  -2    9.40   29.30
 -19  14   2   47.30   17.20
  14 -19  -2   67.79   30.90
  14   5   2   -4.40   42.40
   5  14  -2   37.40   32.50
  14 -19  -2   47.50   26.30
  -5  19  -2   28.90   30.00
 -14  -5  -2  105.39   34.50
  -5 -14   2   -9.80   35.70
  -5  19  -2   39.10   33.60
 -14  -5  -2  116.99   30.80
  19 -14  -2   42.50   25.50
  19 -14  -2   71.99   37.60
 -14  19   2   39.00   35.50
  19 -14  -2   46.50   25.60
 -14  19   2   16.60   17.80
  19  -5   2   61.69   42.10
   6 -19   2   99.79   37.10
 -19   6  -2  107.49   35.60
   6  13  -2   69.99   29.20
  13   6   2   73.89   27.20
   6  13  -2  132.89   38.40
  13   6   2   52.99   47.10
 -19  13   2   67.79   34.10
 -19  13   2   49.70   16.50
   6  13  -2   41.70   33.30
  13 -19  -2   62.69   30.50
  19 -13  -2   64.29   24.40
  -6  19  -2   54.79   40.10
  -6 -13   2    8.70   39.60
  19 -13  -2   96.29   39.60
  -6  19  -2   41.00   33.20
  19 -13  -2  101.39   28.10
 -13  19   2   74.79   37.70
  19  -6   2   98.49   44.50
 -13  -6  -2  139.19   32.40
  -6 -13   2   30.60   37.00
  12   7   2   49.00   27.90
   7 -19   2  154.38   38.80
   7  12  -2   73.59   28.20
 -19  12   2  222.98   52.49
  12 -19  -2  133.29   34.50
  12   7   2   57.79   40.30
   7 -19   2  151.38   44.90
   7  12  -2   82.49   35.10
   7 -19   2  106.49   28.40
  -7  19  -2   52.49   34.30
 -12  19   2   88.49   36.20
  19  -7   2  161.58   46.70
  19 -12  -2  118.19   29.10
 -12  -7  -2  113.59   34.70
  -7 -12   2  137.09   41.10
 -12  -7  -2  179.38   43.40
  -7 -12   2   92.49   38.30
  19 -12  -2  121.49   39.90
  -7  19  -2   82.99   42.20
   8  11  -2   66.69   36.60
  11   8   2   38.60   45.70
 -19   8  -2   80.29   33.30
   8  11  -2   -4.50   27.20
  11 -19  -2   35.00   29.00
   8 -19   2   87.59   38.80
   8 -19   2   63.29   41.00
   8 -19   2   47.70   23.60
  11 -19  -2   36.50   28.50
  -8 -11   2   72.89   37.20
  -8  19  -2  -13.60   31.00
  -8 -11   2   36.80   37.90
 -11  -8  -2   89.79   33.60
 -11  19   2   53.09   36.50
 -11  -8  -2   69.69   30.50
  19  -8   2  104.79   42.80
  19 -11  -2   71.69   27.30
  -8  19  -2   41.40   39.90
  19 -11  -2   50.49   33.30
 -11  19   2   49.60   30.10
   9  10  -2  188.28   43.70
  10 -19  -2  250.57   47.50
   9 -19   2  336.77   58.69
   9  10  -2  290.87   55.79
  10   9   2  133.09   45.10
   9 -19   2  234.48   36.50
 -19  10   2  164.58   25.10
 -19   9  -2  278.27   49.30
   9  10  -2  116.79   36.50
  10 -19  -2  195.88   49.80
 -19  10   2  178.18   29.90
  19  -9   2  212.98   46.00
 -10  19   2  171.48   44.30
 -10  19   2  263.77   61.99
  -9  19  -2  215.88   55.39
 -10  -9  -2  217.78   47.70
  19 -10  -2  226.88   38.90
 -10  -9  -2  301.97   57.59
  19 -10  -2  137.19   36.50
  -9 -10   2  204.68   43.70
  -9 -10   2  211.88   43.50
 -19  10  -2  147.49   36.70
  10 -19   2  118.09   29.00
  10   9  -2   72.89   34.80
   9  10   2   94.69   31.80
   9 -19  -2  214.98   49.30
  10   9  -2   93.39   26.70
 -19   9   2   88.19   21.00
   9 -19  -2  107.59   31.60
  10   9  -2  148.99   41.80
   9  10   2   71.39   40.10
 -10  -9   2   69.89   37.20
  -9  19   2  133.49   36.60
  -9  19   2  144.99   40.20
  19  -9  -2  115.09   37.20
 -10  19  -2  113.39   48.30
 -10  -9   2  123.39   40.10
  19 -10   2  113.69   37.00
 -10  19  -2  110.99   34.20
  -9 -10  -2  135.99   34.30
   8 -19  -2    8.00   27.40
   8 -19  -2   35.00   31.00
 -19   8   2   44.30   19.70
   8  11   2   -4.00   39.70
 -19  11  -2   41.00   33.60
  11   8  -2   40.00   35.20
 -19   8   2   56.99   23.50
  11 -19   2  115.29   41.90
  11 -19   2   44.10   27.30
  11 -19   2   63.89   36.10
  -8  19   2   16.90   31.30
 -11  -8   2    9.50   35.60
 -11  19  -2   31.00   42.90
  -8 -11  -2   65.19   36.30
  -8 -11  -2   37.60   33.60
  19  -8  -2   34.80   19.20
  -8 -11  -2   77.69   36.00
  19  -8  -2   19.70   32.60
 -11  19  -2   43.30   31.50
  19  -8  -2   39.70   27.40
  19 -11   2   19.60   31.20
  -8  19   2   71.69   35.80
 -11  -8   2   44.20   33.90
 -19  12  -2  251.57   50.89
   7 -19  -2  154.68   35.40
  12   7  -2  215.38   43.20
   7  12   2  314.07   57.89
  12   7  -2  251.77   53.99
   7  12   2  192.08   46.80
   7 -19  -2  239.68   56.49
  12 -19   2  239.98   35.20
 -12  -7   2  141.79   39.20
  -7 -12  -2  338.07   59.89
 -12  19  -2  261.77   52.99
  19  -7  -2  219.88   53.09
  -7  19   2  278.27   47.20
  -7 -12  -2  267.27   39.70
 -12  -7   2  192.98   42.20
  19  -7  -2  287.57   36.70
  -7  19   2  145.29   45.40
  -7 -12  -2  247.48   51.79
  19 -12   2  279.77   48.20
 -12  19  -2  223.68   55.49
   6  13   2  572.34   63.99
  13 -19   2  742.33   59.69
   6 -19  -2  529.65   55.99
  13 -19   2  631.24   47.80
  13   6  -2  422.66   51.89
 -19  13  -2  519.45   58.29
 -19   6   2  629.94   46.70
   6  13   2  461.95   64.39
  13   6  -2  737.03   69.09
  13   6  -2  612.14   62.39
  -6  19   2  599.14   56.29
 -13  -6   2  585.54   60.99
  -6 -13  -2  473.15   58.29
 -13  19  -2  497.15   59.39
  19 -13   2  595.74   53.99
  19  -6  -2  610.84   51.49
 -13  -6   2  387.76   67.49
 -13  19  -2  414.96   66.59
  19  -6  -2  558.54   60.69
  19  -6  -2  595.84   43.60
  -6 -13  -2  608.14   68.89
  -6  19   2  580.24   68.29
  14   5  -2   34.20   25.60
  14   5  -2   32.70   34.50
 -19  14  -2   40.90   36.20
   5 -19  -2   13.00   30.90
 -19   5   2   64.19   25.00
  14 -19   2   26.60   25.70
   5  14   2   43.30   35.80
   5  14   2   15.30   40.20
  19  -5  -2   25.20   22.30
 -14  -5   2   23.90   37.40
  19 -14   2   43.00   31.10
 -14  19  -2   37.70   28.50
  -5  19   2   64.99   39.10
  -5  19   2   38.10   35.20
  -5 -14  -2   73.89   37.80
  19  -5  -2   27.60   33.70
 -14  19  -2   20.80   40.70
  19  -5  -2   88.79   29.70
 -14  -5   2   25.20   36.40
  -5 -14  -2    0.20   31.60
   4  15   2  353.66   63.09
 -19  15  -2  224.38   57.19
  15   4  -2  246.98   56.59
  15   4  -2  167.58   32.80
 -19   4   2  246.28   50.49
 -19   4   2  321.77   50.29
 -15  19  -2  213.38   49.90
  -4 -15  -2  324.07   65.99
 -15  -4   2  231.88   62.59
  19  -4  -2  238.58   40.90
  -4 -15  -2  190.68   40.00
 -15  19  -2  252.27   51.39
 -15  -4   2  208.68   42.30
 -19   3   2   84.09   31.90
 -19  16  -2  160.68   43.60
   3  16   2  132.09   43.50
  16   3  -2  131.69   30.40
   3 -19  -2  123.89   36.10
  16 -19   2  259.87   51.59
  16   3  -2  183.18   43.50
 -19   3   2  218.18   50.09
  19 -16   2  177.78   45.30
  -3  19   2  116.09   39.30
 -16  -3   2  178.48   44.90
  19  -3  -2  222.68   38.40
 -16  -3   2  142.49   38.70
  -3 -16  -2  125.89   36.80
  19  -3  -2  148.39   38.50
 -16  19  -2  107.79   30.10
 -16  19  -2  146.49   45.60
   2  17   2   56.89   37.80
 -19   2   2   69.29   32.90
  17   2  -2   57.89   26.50
   2 -19  -2   29.00   30.50
  17   2  -2   91.39   59.79
  17 -19   2   78.19   32.40
 -19  17  -2   43.70   41.70
 -19   2   2   49.10   37.40
  19  -2  -2   33.40   34.20
  -2 -17  -2   69.69   34.50
  -2  19   2   63.19   40.50
 -17  19  -2  -15.40   31.00
  19  -2  -2   39.00   26.70
  19 -17   2   87.09   34.70
 -17  19  -2   16.90   42.20
 -17  -2   2  100.19   37.20
 -17  -2   2   37.70   39.80
   1  18   2   28.50   36.70
 -19   1   2   72.29   39.00
  18   1  -2   23.60   36.30
  18 -19   2   16.90   30.80
  18 -19   2  117.69   35.40
  18   1  -2   27.50   24.80
 -19  18  -2   21.40   41.80
 -19   1   2   40.70   32.80
   1 -19  -2   10.60   31.20
 -18  19  -2  -48.80   41.20
  19  -1  -2   12.10   33.40
  -1 -18  -2   11.40   31.80
  -1  19   2   22.30   37.10
 -18  -1   2  -58.79   36.80
  19  -1  -2   45.00   24.10
  19 -18   2   30.00   32.10
 -18  -1   2   38.90   42.00
 -19   0   2  -19.30   37.30
  19   0  -2    1.10   26.30
   0  19   2   60.99   37.30
  19   0  -2   42.80   35.30
 -19   0   2   46.70   41.90
 -19  19  -2    8.00   43.70
   0 -19  -2   29.40   33.80
  19 -19   2   51.39   32.60
  20 -20  -2  182.88   49.70
   0  20  -2  116.49   43.30
   0 -20   2  150.08   43.50
  20 -20  -2  178.88   43.10
  20 -20  -2  143.39   37.20
 -20   0  -2  290.37   62.99
 -20  20   2  285.37   72.79
  19 -20  -2  157.18   38.50
  19 -20  -2  127.39   47.10
   1 -20   2   76.79   36.10
  19 -20  -2  133.39   36.50
   1  19  -2   22.50   54.39
 -20  19   2  160.68   36.70
 -20   1  -2  119.39   40.20
  19   1   2  154.78   51.09
  20  -1   2  291.27   69.59
  -1  20  -2   79.29   38.00
  -1 -19   2   71.99   38.10
  20 -19  -2   89.49   34.10
  20 -19  -2  106.59   43.00
 -19  -1  -2  125.49   41.80
 -19  20   2   63.49   40.60
   2  18  -2   31.50   40.30
  18 -20  -2   63.89   45.30
   2 -20   2   92.19   42.00
  18 -20  -2   83.09   42.40
  18 -20  -2   99.39   34.40
  18   2   2  139.69   49.80
 -20   2  -2  118.19   40.00
 -20  18   2   73.09   23.40
 -20  18   2   62.39   39.50
 -18  -2  -2  180.78   85.89
  20 -18  -2   89.19   32.10
  -2  20  -2   77.59   39.90
  -2 -18   2   51.09   38.40
  20 -18  -2   99.39   38.90
  20 -18  -2   60.89   31.00
  17 -20  -2  197.38   48.50
 -20  17   2  279.37   35.40
  17   3   2  283.17   67.29
  17 -20  -2  195.88   38.90
   3  17  -2  242.58   56.29
 -20   3  -2  233.98   53.19
   3 -20   2  249.68   58.49
 -17  20   2  177.08   40.50
  20 -17  -2  189.38   37.40
  20 -17  -2  193.48   45.30
 -17  20   2  121.49   41.50
  20 -17  -2  278.97   55.09
  -3 -17   2  118.89   38.00
  16 -20  -2   60.09   26.20
   4  16  -2   38.90   38.00
  16 -20  -2   73.29   36.00
   4 -20   2   70.29   35.10
  16   4   2   16.20   36.80
 -20   4  -2   74.79   36.60
  16   4   2   54.99   47.50
 -16  -4  -2  118.59   43.10
 -16  20   2   37.20   21.50
  -4 -16   2   10.10   34.40
  20  -4   2  122.69   45.60
  20 -16  -2   54.99   28.40
  -4  20  -2   59.09   34.30
  20 -16  -2   71.49   27.70
  20 -16  -2   58.79   40.70
 -16  20   2   38.30   36.00
 -20   5  -2   97.89   37.50
  15   5   2   78.09   44.10
  15   5   2   57.29   27.80
   5  15  -2   52.29   35.70
 -20  15   2   27.90   17.70
  15 -20  -2   69.29   28.40
  15 -20  -2  113.39   36.90
  20 -15  -2   93.79   43.00
  20 -15  -2   25.80   27.20
  -5  20  -2   51.79   33.00
 -15  20   2   62.39   19.90
  20  -5   2   98.69   48.30
  20 -15  -2   24.60   26.70
 -15  20   2   87.19   39.10
  -5 -15   2   30.50   33.20
 -20  14   2  121.19   27.90
   6  14  -2  272.47   57.59
 -20   6  -2  190.58   49.80
   6  14  -2   72.89   37.30
   6 -20   2  234.38   56.99
  14 -20  -2  180.48   38.80
  14   6   2   85.49   31.70
 -14  -6  -2  270.77   47.40
  20 -14  -2  178.88   42.40
  20 -14  -2  236.48   40.60
  -6  20  -2  219.18   44.60
  20 -14  -2  162.28   39.00
  -6 -14   2  102.79   36.70
  -6  20  -2  120.09   40.00
  13   7   2   -7.60   25.70
   7 -20   2   67.99   39.80
 -20  13   2   -9.10   16.50
   7  13  -2  -45.60   31.90
 -20  13   2   81.09   34.50
   7 -20   2   44.70   41.00
 -20   7  -2   29.40   32.30
   7  13  -2   10.80   37.30
  13 -20  -2   16.30   29.70
  20  -7   2   19.20   64.29
 -13  -7  -2   50.29   34.20
  20 -13  -2   52.99   27.30
  20 -13  -2   16.60   36.40
 -13  -7  -2  102.59   40.70
 -13  20   2   45.70   38.00
 -13  -7  -2   49.30   30.80
  -7  20  -2  -13.70   34.10
 -20  12   2  115.09   22.00
   8 -20   2  164.68   36.40
   8  12  -2   53.89   37.50
  12 -20  -2  174.28   35.60
 -20   8  -2  208.88   47.80
 -20  12   2  271.27   53.19
  12   8   2   84.49   30.40
   8  12  -2  247.28   58.39
  12 -20  -2  274.17   58.29
   8 -20   2  295.17   61.49
   8 -20   2  231.88   51.19
 -20  12   2  150.18   29.20
   8  12  -2  107.49   34.70
  12   8   2   93.19   49.60
  20 -12  -2  147.19   32.30
  20  -8   2  190.48   47.60
  -8  20  -2  205.68   62.29
  -8  20  -2   70.49   36.80
  20 -12  -2  191.78   44.80
  -8 -12   2  121.49   36.20
 -12  20   2  172.68   38.10
 -12  -8  -2  227.18   48.80
 -12  20   2  245.58   65.69
 -20   9  -2   62.19   46.60
   9  11  -2   71.29   35.10
   9  11  -2   81.29   40.00
   9 -20   2   96.49   27.60
 -20  11   2   54.39   21.40
  11   9   2   17.00   44.60
   9  11  -2   58.59   28.40
   9 -20   2  139.29   42.10
  11 -20  -2   80.99   30.90
 -20  11   2   14.90   25.30
 -11  -9  -2  130.39   35.10
  20 -11  -2  125.89   31.00
  -9  20  -2   24.10   32.20
  20  -9   2  128.49   44.40
 -11  20   2   71.79   32.30
  -9 -11   2   73.89   36.90
 -11  20   2  107.29   39.50
 -20  10   2   28.50   18.90
  10  10   2   -9.00   44.20
  10  10  -2   61.79   35.80
  10 -20  -2   57.69   35.20
  10  10  -2   67.79   36.80
  10 -20   2   40.90   26.10
  10  10   2   56.09   29.00
  10 -20   2  112.79   41.60
 -20  10   2   55.69   28.70
  20 -10   2   73.09   38.60
 -10 -10   2   37.00   36.90
  20 -10  -2    4.00   33.50
 -10  20  -2    4.90   29.70
  20 -10  -2   45.90   29.20
 -10 -10  -2  103.99   37.30
 -10 -10  -2   67.79   41.30
 -10 -10  -2   73.79   33.60
 -10  20  -2  -11.40   41.50
 -10  20   2   17.10   34.40
 -10 -10   2   50.29   39.70
  11   9  -2  154.88   41.30
 -20   9   2  155.68   32.90
   9  11   2   87.29   53.39
   9  11   2   97.69   33.90
  11   9  -2  146.99   39.50
  11 -20   2  162.28   35.90
  11 -20   2  274.47   59.89
  11   9  -2   91.09   28.20
   9 -20  -2  153.58   41.90
 -20  11  -2  153.08   50.09
 -20   9   2   96.19   24.20
 -11  -9   2  129.99   41.30
 -11  20  -2  142.19   36.40
  20 -11   2  170.48   42.30
  -9  20   2   90.99   37.60
  -9  20   2   98.99   33.70
  -9 -11  -2  136.79   37.60
  -9 -11  -2  253.37   59.79
  20  -9  -2  129.59   36.20
 -11  20  -2   82.09   51.49
 -11  -9   2   64.99   41.00
   8  12   2  292.17   57.19
  12   8  -2  143.99   31.60
 -20  12  -2  202.08   56.09
  12   8  -2  263.37   57.69
  12 -20   2  212.58   45.00
  12   8  -2  201.68   45.10
 -12  -8   2  259.27   56.19
  20  -8  -2  237.08   43.50
 -12  20  -2  166.48   36.50
  20 -12   2  220.78   56.69
 -12  -8   2  145.39   37.40
  -8 -12  -2  178.88   39.70
 -12  20  -2  197.08   50.69
  -8 -12  -2  150.48   41.40
  -8  20   2  238.18   47.30
   7  13   2   89.29   34.30
  13   7  -2  -12.70   23.60
   7 -20  -2    6.90   32.00
   7  13   2  -23.10   49.00
  13 -20   2   35.00   56.29
 -20  13  -2   -2.00   35.80
  13 -20   2  103.99   42.10
  13   7  -2   48.40   36.30
 -13  -7   2   30.00   37.30
  -7 -13  -2   -1.90   35.10
  20  -7  -2   65.39   28.80
 -13  20  -2   -7.90   30.10
 -13  -7   2   24.20   35.30
 -13  20  -2  -54.49   46.80
  20 -13   2   31.40   39.30
  20  -7  -2   -8.70   31.60
  -7 -13  -2   65.99   37.30
  20  -7  -2   41.40   20.00
  14   6  -2  239.88   38.00
   6  14   2  320.47   63.49
  14   6  -2  382.46   55.19
 -20   6   2  346.47   46.30
  14 -20   2  336.77   42.00
   6  14   2  312.67   60.29
 -20  14  -2  327.37   62.59
   6 -20  -2  275.87   51.79
  14   6  -2  358.46   59.19
  20 -14   2  287.57   46.70
 -14  -6   2  310.77   58.49
 -14  20  -2  290.37   57.89
  20  -6  -2  309.77   39.30
  -6  20   2  304.27   48.50
  -6 -14  -2  345.67   64.99
 -14  20  -2  262.07   54.79
  20  -6  -2  350.16   50.89
  20  -6  -2  274.47   53.99
  -6 -14  -2  265.77   52.19
  15   5  -2  441.36   63.09
 -20  15  -2  489.95   70.29
  15 -20   2  448.06   45.70
   5 -20  -2  409.86   55.99
 -20   5   2  505.75   52.99
  15 -20   2  583.04   61.59
   5  15   2  382.46   68.89
   5  15   2  459.95   65.59
  15   5  -2  390.06   49.20
 -20   5   2  392.46   51.99
 -15  20  -2  364.16   68.49
  20  -5  -2  430.36   56.89
 -15  20  -2  387.66   58.39
  20 -15   2  426.76   48.80
  -5 -15  -2  395.66   58.19
  -5  20   2  467.25   57.49
 -15  -5   2  442.86   60.89
 -15  -5   2  271.67   70.89
  20  -5  -2  479.65   45.60
 -20  16  -2  109.99   45.90
  16   4  -2  127.09   43.20
 -20   4   2  152.98   40.10
  16 -20   2  114.09   32.10
   4 -20  -2   90.59   37.50
 -20   4   2   86.19   33.30
   4  16   2  104.59   44.30
 -16  20  -2  125.89   32.80
  -4 -16  -2   42.80   46.00
 -16  -4   2   74.09   41.40
 -16  20  -2   96.29   48.40
 -16  -4   2  158.28   43.30
  20 -16   2   91.69   33.30
  20  -4  -2   82.69   35.70
  -4  20   2   87.69   40.80
  17 -20   2  100.89   37.80
  17   3  -2   32.40   26.70
 -20   3   2    1.50   35.90
   3  17   2   12.50   44.40
   3 -20  -2   15.60   36.50
 -20   3   2   43.50   31.40
 -20  17  -2   14.10   51.09
  17   3  -2    1.70   36.40
  17 -20   2   25.10   28.90
 -17  20  -2  -20.20   27.10
  -3  20   2   22.60   35.60
  20  -3  -2    9.00   22.70
  -3 -17  -2   16.30   35.80
  20 -17   2   61.69   33.50
  20  -3  -2   20.60   32.60
 -17  -3   2   48.30   41.40
 -17  20  -2  -50.89   43.60
 -17  -3   2   14.90   41.30
 -20   2   2   58.49   38.70
  18   2  -2   15.00   37.90
   2 -20  -2   -0.10   34.70
  18 -20   2   43.50   31.60
   2  18   2   38.50   44.20
 -20   2   2  -17.00   33.90
  -2  20   2   40.10   40.30
 -18  -2   2   56.89   39.70
  20  -2  -2  126.59   50.79
 -18  20  -2    5.50   46.20
  -2 -18  -2   16.60   36.50
  20 -18   2   39.10   32.40
  20  -2  -2   14.00   33.70
 -18  -2   2   12.30   42.40
  19   1  -2   18.00   35.40
  19   1  -2   36.50   26.90
  19 -20   2   19.10   32.40
   1  19   2   21.70   40.10
 -20   1   2   60.49   41.70
 -20   1   2    7.30   37.70
   1 -20  -2   -0.70   35.60
  20  -1  -2   20.30   25.20
  -1 -19  -2   13.80   35.50
  20 -19   2   13.80   31.90
  -1  20   2    4.40   38.40
 -19  -1   2  -37.20   44.30
 -19  -1   2   44.30   37.90
 -19  20  -2  -36.60   45.30
  20  -1  -2    4.20   33.80
  20   0  -2   94.39   38.90
   0 -20  -2   72.79   35.10
  20 -20   2   88.29   34.80
   0  20   2  107.19   40.20
 -20   0   2  121.19   42.70
  20   0  -2  192.28   44.80
 -20   0   2    0.60   47.40
   2 -21   2  278.67   56.49
 -21  19   2  263.87   38.40
  19 -21  -2  242.58   52.49
   2  19  -2  176.38   45.70
  19   2   2  400.26   71.69
 -21   2  -2  312.87   58.39
  19 -21  -2  205.38   42.00
  21 -19  -2  195.78   44.90
  -2  21  -2  239.58   53.79
  21 -19  -2  206.78   47.70
  -2 -19   2  131.59   38.60
  21 -19  -2  257.87   50.19
 -19  -2  -2  309.27   65.99
   3  18  -2   50.69   63.49
 -21   3  -2  101.49   36.90
  18 -21  -2   31.60   41.00
  18   3   2   99.09   50.19
   3 -21   2   87.69   36.10
 -21  18   2   90.49   22.20
  18 -21  -2   67.69   28.60
  21 -18  -2   70.29   32.20
 -18  -3  -2  137.19   46.60
  21 -18  -2   65.99   38.40
  -3 -18   2   30.50   37.10
  21 -18  -2   70.69   35.30
  -3  21  -2   55.59   36.10
  17 -21  -2  147.69   36.00
 -21  17   2  109.29   24.70
  17   4   2  258.27   65.09
   4  17  -2  140.59   41.60
 -21   4  -2  259.67   54.39
  17 -21  -2  179.18   46.70
   4 -21   2  228.28   53.19
  -4 -17   2   90.79   38.30
  21 -17  -2  188.18   44.40
  -4  21  -2  201.58   47.50
  21 -17  -2  122.39   31.10
  21 -17  -2  243.58   54.79
  16   5   2  281.47   60.19
  16 -21  -2  420.16   78.19
   5 -21   2  467.35   58.89
  16 -21  -2  358.56   41.20
 -21   5  -2  438.36   56.29
  16   5   2  455.35   70.19
   5  16  -2  345.07   53.79
  -5  21  -2  397.16   53.69
  -5 -16   2  316.47   56.89
  21 -16  -2  344.37   60.69
  21 -16  -2  335.47   46.90
  21 -16  -2  371.06   44.70
 -21  15   2  113.29   29.60
  15   6   2   22.80   30.60
  15   6   2   49.40   47.30
   6 -21   2  120.99   41.80
   6  15  -2  135.39   41.50
  15 -21  -2   94.39   54.79
 -21   6  -2   94.49   35.90
   6  15  -2   -5.60   37.70
  21 -15  -2   79.39   30.60
  -6  21  -2   89.89   33.80
  -6 -15   2   48.10   37.40
  21  -6   2  243.58   62.19
  21 -15  -2   67.39   28.80
  21 -15  -2   91.49   62.39
   7  14  -2  155.98   41.70
  14   7   2   24.20   45.00
   7 -21   2  128.79   50.09
 -21   7  -2   62.19   33.90
  14 -21  -2   72.49   42.40
  21  -7   2  110.99   44.60
 -14  -7  -2  162.48   45.50
  -7 -14   2   53.39   38.10
  21 -14  -2  114.89   31.60
 -14  -7  -2  288.87   66.69
 -21  13   2  142.29   35.20
 -21   8  -2  236.58   50.49
 -21  13   2  135.89   33.50
   8  13  -2   87.29   40.60
  13 -21  -2  232.08   52.19
  13   8   2  187.98   48.70
  13   8   2  103.79   43.50
  -8  21  -2   77.19   38.80
 -13  -8  -2  271.77   51.09
  -8 -13   2  165.98   45.30
  21 -13  -2  222.88   43.90
  21 -13  -2  157.68   47.00
 -13  21   2  212.08   45.30
  21  -8   2  290.57   59.99
  12 -21  -2   44.50   33.10
 -21   9  -2   18.20   32.40
   9 -21   2   55.49   41.70
  12   9   2  -35.30   40.50
  12   9   2  -16.30   28.10
   9  12  -2  105.69   38.40
   9 -21   2   43.90   27.90
   9  12  -2   46.80   36.40
 -12  -9  -2   80.59   36.00
  21  -9   2   64.69   41.90
  -9 -12   2   11.30   36.30
 -12  -9  -2   82.89   37.80
  21 -12  -2   26.90   35.60
  21 -12  -2   86.99   32.20
 -12  21   2   33.00   35.00
  10  11  -2   63.99   40.30
 -21  10  -2   90.59   35.20
 -21  11   2   65.19   26.90
 -21  11   2   78.79   21.80
  11 -21  -2   84.19   31.30
  11  10   2   33.40   43.10
  10 -21   2   85.49   28.60
 -10 -11   2   54.49   37.90
 -11 -10  -2  108.99   48.20
 -11 -10  -2  138.89   39.30
 -11 -10  -2   72.89   36.00
 -10  21  -2   24.90   33.80
  21 -11  -2   43.10   37.00
  21 -10   2  119.19   40.80
  21 -11  -2  132.99   33.30
 -11  21   2   57.69   33.20
 -21  11  -2   48.90   36.90
  11 -21   2   95.79   45.50
  11  10  -2   31.10   37.50
  10 -21  -2   29.20   32.30
  11 -21   2   14.90   25.00
  10  11   2  -41.00   41.80
 -21  10   2   14.40   24.70
  11  10  -2   36.60   42.70
  10  11   2   -1.10   28.60
  21 -11   2   11.80   34.60
 -11  21  -2   13.80   46.30
 -10 -11  -2  103.79   45.40
 -10 -11  -2   65.59   36.60
 -11  21  -2  -14.50   30.50
  21 -10  -2    5.90   38.20
 -10  21   2    7.50   34.80
 -10 -11  -2   17.60   36.00
  21 -10  -2   52.19   32.10
   9  12   2  -12.80   39.60
  12   9  -2   40.50   37.70
   9  12   2   19.70   31.20
  12   9  -2   72.89   43.60
   9 -21  -2   26.90   31.60
  12 -21   2   30.10   26.40
 -21  12  -2   22.40   35.50
  -9  21   2   26.20   35.00
  21  -9  -2   67.39   32.20
  -9 -12  -2   29.20   37.30
 -12  21  -2   27.40   31.40
 -12  21  -2  -14.40   51.09
  21 -12   2   17.20   32.40
  21  -9  -2   38.20   36.90
 -12  -9   2   62.69   49.20
  13   8  -2  268.87   61.69
  13   8  -2  374.16   65.89
 -21  13  -2  222.18   55.19
  13 -21   2  253.87   41.10
   8 -21  -2  251.77   51.69
  13 -21   2  418.26   61.09
   8  13   2  158.98   49.60
 -21   8   2  267.87   43.10
  21  -8  -2  282.77   40.60
  21  -8  -2  246.58   58.29
  -8 -13  -2  353.96   66.09
  -8 -13  -2  253.57   55.69
  -8  21   2  258.77   49.80
 -13  -8   2  172.18   43.00
 -13  21  -2  209.98   56.79
  21  -8  -2  275.17   50.79
  21 -13   2  290.47   50.19
   7  14   2  329.37   65.59
   7  14   2  491.85   65.89
   7 -21  -2  319.07   54.49
  14   7  -2  402.66   65.79
 -21  14  -2  349.27   59.29
 -21   7   2  390.66   48.70
  14 -21   2  410.86   45.50
 -14  21  -2  280.37   57.69
  -7 -14  -2  314.47   58.49
  21  -7  -2  452.95   41.90
  21 -14   2  372.46   51.99
 -14  21  -2  289.67   60.29
  21  -7  -2  361.46   58.29
 -14  -7   2  415.26   60.39
  21  -7  -2  484.05   54.69
  -7  21   2  364.16   53.59
  15   6  -2   99.69   44.60
   6 -21  -2   61.29   34.20
 -21   6   2   19.50   28.50
  15 -21   2   64.49   28.90
 -21  15  -2   77.09   40.20
  15   6  -2   21.60   52.29
  15   6  -2   35.80   28.30
   6  15   2   54.29   42.60
 -21   6   2  132.79   36.70
  21 -15   2   93.49   34.60
  21  -6  -2   59.19   24.70
  21  -6  -2   88.19   39.00
  -6  21   2   48.90   37.80
 -15  21  -2   52.69   33.40
 -15  -6   2   74.49   42.20
  -6 -15  -2   27.90   58.99
 -15  21  -2   -5.70   51.09
  16 -21   2   32.00   29.20
 -21   5   2    8.00   35.00
   5  16   2   22.40   46.30
 -21   5   2   18.30   30.60
   5 -21  -2   28.20   31.30
  16   5  -2  -34.20   26.50
 -21  16  -2   18.90   39.40
  -5  21   2   16.20   35.70
  21  -5  -2   53.69   22.10
  21 -16   2   10.40   31.50
  -5 -16  -2   -5.90   35.60
 -16  21  -2  -19.60   46.70
  21  -5  -2    4.20   33.80
 -16  -5   2   43.60   40.20
 -16  21  -2   28.80   31.40
 -21  17  -2   29.40   42.50
   4 -21  -2   51.09   32.80
 -21   4   2   59.19   39.30
   4  17   2   45.80   45.90
  17   4  -2   74.49   40.10
 -21   4   2   48.90   32.80
  17 -21   2   56.79   29.90
  17   4  -2   25.20   28.30
  17 -21   2   70.79   47.00
 -17  21  -2   34.80   31.60
 -17  21  -2   37.50   49.40
  21 -17   2   74.09   35.70
  21  -4  -2   86.19   26.20
  21  -4  -2   35.60   35.50
 -17  -4   2  107.39   44.90
  -4  21   2   81.59   42.40
  -4 -17  -2   14.40   34.40
   3  18   2   67.59   43.80
  18   3  -2   70.39   38.90
 -21   3   2  -20.10   37.00
 -21  18  -2   59.49   43.50
 -21   3   2   71.89   41.70
  18 -21   2   63.49   33.10
   3 -21  -2   53.89   36.90
  18   3  -2   49.99   28.70
 -18  -3   2  108.99   45.70
 -18  21  -2  -43.10   48.70
  -3 -18  -2   48.00   34.40
  21  -3  -2   56.29   35.60
  21 -18   2   64.39   33.10
  -3  21   2   49.10   38.30
  21  -3  -2    5.70   27.90
  19   2  -2   54.79   32.20
 -21   2   2   73.59   40.20
  19 -21   2  109.19   35.10
 -21   2   2  155.28   64.99
   2 -21  -2   51.29   34.40
   2  19   2   76.59   45.30
  19   2  -2   80.89   40.20
 -21  19  -2  108.49   47.00
  21 -19   2   65.49   31.60
  -2 -19  -2   74.69   35.10
 -19  21  -2   44.50   49.90
 -19  -2   2   81.29   44.40
  21  -2  -2   81.49   41.50
  21  -2  -2  111.99   29.20
  -2  21   2   91.09   38.90
   5  17  -2   49.20   42.10
  17 -22  -2  127.19   39.40
  17 -22  -2   34.40   27.20
   5 -22   2   73.49   39.30
  17   5   2   61.09   48.00
  22 -17  -2   67.99   31.20
  22 -17  -2   29.10   30.20
  22 -17  -2  162.48   46.90
  -5  22  -2   87.19   36.80
  -5 -17   2   61.89   39.20
 -22  16   2  152.18   34.30
   6 -22   2  106.59   41.40
  16 -22  -2  162.28   39.80
 -22   6  -2  216.28   52.19
  16   6   2  117.79   48.80
  22 -16  -2  118.59   32.90
  22 -16  -2  127.79   44.50
  22 -16  -2  108.29   34.60
  -6 -16   2   99.69   42.10
  -6  22  -2  128.59   38.00
  15   7   2  296.77   67.09
  15 -22  -2  440.96   56.49
   7 -22   2  494.75   66.69
  15   7   2  259.87   55.69
 -22   7  -2  401.46   54.29
   7  15  -2  290.27   57.99
  22 -15  -2  446.86   47.90
  22 -15  -2  472.35   62.79
  -7 -15   2  301.87   56.99
  -7  22  -2  427.86   50.99
  22  -7   2  585.14   71.69
   8 -22   2  169.48   45.90
 -22   8  -2  210.48   51.79
  14   8   2   96.89   47.00
  14 -22  -2  217.28   49.50
 -22  14   2  161.78   34.50
  22  -8   2  243.98   59.09
  -8 -14   2   95.19   37.10
  22 -14  -2  143.69   49.20
  22 -14  -2  227.58   45.40
 -14  -8  -2  325.57   66.89
 -22  13   2   44.60   30.90
  13   9   2   14.90   29.80
  13 -22  -2   81.79   32.90
   9 -22   2  187.28   49.10
 -22   9  -2   70.89   35.90
  13   9   2  -19.70   41.00
   9  13  -2  106.79   41.90
  22  -9   2  122.89   45.20
  22 -13  -2  127.99   36.90
  -9 -13   2   73.09   39.00
 -13  22   2   24.00   34.30
 -13  -9  -2  102.99   39.50
  22 -13  -2   65.99   42.10
 -22  12   2   11.50   27.10
  12 -22  -2   26.70   31.40
  10  12  -2  104.89   43.10
  10 -22   2   40.80   27.90
  10 -22   2  129.99   74.99
 -22  10  -2   46.70   34.40
  10  12  -2   48.20   42.70
  12  10   2  -27.60   40.90
 -10  22  -2  -51.99   49.60
  22 -12  -2   56.09   33.20
 -12  22   2   48.20   37.80
 -10 -12   2   34.80   39.70
  22 -10   2   60.59   39.90
 -12 -10  -2   31.60   51.99
 -12 -10  -2   65.79   39.90
  22 -12  -2   47.60   40.50
  11 -22   2  157.98   48.20
  11  11  -2   91.79   44.20
 -22  11  -2   82.69   38.00
  11 -22  -2   60.29   37.00
  11 -22   2   76.29   28.60
 -22  11   2   96.89   34.60
  11  11   2  -17.90   40.40
 -11 -11  -2   95.39   40.00
  22 -11  -2  105.19   41.60
  22 -11   2   87.19   37.30
 -11 -11   2   48.90   37.90
 -11  22   2   56.49   36.20
 -11 -11  -2  130.29   51.99
 -11  22  -2   25.70   36.20
  22 -11  -2  124.69   35.30
  12 -22   2  100.89   28.20
  10 -22  -2  141.29   37.80
  12  10  -2  214.38   48.90
 -22  12  -2  159.58   40.90
 -22  10   2  188.68   43.50
  10  12   2   17.20   49.20
 -12 -10   2  135.19   44.50
  22 -10  -2  147.39   41.40
 -12  22  -2  113.69   37.30
 -10  22   2  116.39   36.10
  22 -12   2  216.68   50.39
 -10 -12  -2  113.69   41.90
  22 -10  -2  208.68   52.59
  13   9  -2  220.98   56.49
   9  13   2   74.59   33.70
  13 -22   2  167.48   38.60
   9  13   2   47.30   43.80
 -22   9   2  212.98   44.80
 -22  13  -2  163.88   40.60
   9 -22  -2  113.49   33.90
  13   9  -2  132.29   47.20
  -9  22   2  183.28   41.60
 -13  22  -2   88.99   36.50
  22  -9  -2  264.17   51.39
 -13  22  -2  202.68   77.89
  22  -9  -2  160.38   43.20
 -13  -9   2  129.19   43.40
  22 -13   2  130.19   36.90
  -9 -13  -2  153.18   44.80
 -22   8   2   24.90   26.00
   8 -22  -2   28.50   33.00
   8  14   2  -21.90   41.00
  14 -22   2   27.30   27.10
  14   8  -2   18.40   43.30
 -22  14  -2   27.60   36.80
  14   8  -2  106.99   57.09
  22 -14   2   40.60   33.80
  22  -8  -2   47.10   36.80
  22  -8  -2    4.10   36.10
  -8  22   2   15.80   34.20
 -14  22  -2  -30.80   31.70
 -14  22  -2    3.70   56.29
  -8 -14  -2   23.60   50.49
 -14  -8   2   17.40   43.50
  15   7  -2    9.70   42.10
   7  15   2  -11.40   45.50
 -22  15  -2   38.00   38.30
   7 -22  -2   38.70   34.70
  15 -22   2   32.40   28.20
 -15  -7   2   53.29   42.90
  -7 -15  -2  -10.40   36.00
  -7  22   2   21.10   36.60
  22  -7  -2   64.39   36.40
  22  -7  -2   49.70   23.90
  22 -15   2   39.20   35.00
 -15  22  -2   -4.60   32.70
  22  -7  -2   39.30   38.60
 -22   6   2   63.39   33.60
  16 -22   2   68.39   29.90
  16   6  -2   23.60   54.49
   6  16   2   66.89   45.60
  16   6  -2  106.49   43.90
 -22  16  -2   85.59   41.60
   6 -22  -2   76.79   38.00
 -22   6   2  132.89   46.10
  22 -16   2   88.89   36.60
 -16  -6   2   51.79   40.90
  22  -6  -2   24.50   25.90
 -16  22  -2  -43.40   53.19
  -6  22   2   52.79   37.40
  22  -6  -2  153.48   45.00
  22  -6  -2   68.79   41.60
  -6 -16  -2   82.39   38.60
 -16  22  -2   25.90   33.60
  17 -22   2  121.09   50.19
 -22   5   2    6.00   33.40
 -22  17  -2   58.39   42.90
  17   5  -2   81.59   40.20
   5 -22  -2   53.29   32.70
 -22   5   2   99.69   44.80
  17 -22   2   74.99   30.60
   5  17   2   69.49   43.80
  -5  22   2   36.00   39.70
  22  -5  -2   69.79   41.70
 -17  22  -2   14.20   52.09
  -5 -17  -2   74.59   38.50
  22 -17   2  108.19   37.70
 -17  -5   2  120.59   45.00
  14 -23  -2  277.47   50.59
  14   9   2  215.98   53.49
 -23   9  -2  296.07   52.99
   9 -23   2  441.86   62.99
   9  14  -2  433.46   64.59
   9  14  -2  356.36   70.59
  23 -14  -2  325.37   49.30
  23 -14  -2  339.37   62.49
 -14  23   2  256.47   50.09
  23  -9   2  315.57   60.39
  -9 -14   2  222.48   53.69
  10  13  -2  130.69   48.80
 -23  13   2  202.38   42.20
  10 -23   2  288.27   68.19
 -23  10  -2  256.17   56.59
  13 -23  -2  231.88   50.19
  10  13  -2  194.28   53.99
  13  10   2  115.79   47.50
  23 -10   2  317.07   57.49
 -13 -10  -2  303.27   80.59
 -10 -13   2  144.49   40.80
 -13 -10  -2  250.07   57.59
  23 -13  -2  267.07   63.49
  23 -13  -2  228.08   49.20
  12  11   2   21.50   45.40
 -23  11  -2  115.89   39.00
  11 -23   2  100.39   30.20
  11  12  -2   -6.80   53.69
  12 -23  -2  100.79   34.40
  11  12  -2   87.69   49.30
 -12 -11  -2  126.49   44.20
 -12 -11  -2  112.49   57.59
  23 -12  -2  156.98   46.60
 -12  23   2   69.19   37.30
 -11 -12   2  119.19   45.00
  23 -11   2  216.48   53.59
  11  12   2   17.10   33.80
  11 -23  -2   87.59   37.20
 -23  11   2   20.00   29.80
  12  11  -2  158.48   50.69
 -23  12  -2   95.29   37.80
  12  11  -2   77.69   47.90
  11  12   2   -4.70   40.00
  12 -23   2   60.59   27.50
  12 -23   2  181.68   54.49
  23 -12   2   76.19   36.10
  23 -11  -2   65.69   41.50
 -12 -11   2   44.50   38.20
 -11  23   2   88.69   39.60
 -11 -12  -2   92.39   45.60
  23 -11  -2   93.99   37.30
  10 -23  -2   53.59   37.70
  13 -23   2   36.00   27.80
  13  10  -2   55.09   51.19
  13  10  -2   60.79   44.90
 -23  13  -2    3.60   35.60
  13 -23   2  116.99   54.99
 -23  10   2  -15.40   33.00
 -13 -10   2   42.30   40.80
 -10  23   2   45.00   35.50
  23 -10  -2   67.79   38.00
  23 -10  -2   20.50   40.40
  23 -13   2   51.69   36.80
 -10 -13  -2   19.50   42.90
  14   9  -2   83.49   54.39
  14 -23   2   27.10   26.70
   9  14   2   -0.80   43.50
 -23  14  -2   61.49   38.30
   9 -23  -2   34.30   32.30
  14   9  -2   74.69   44.20
  23  -9  -2   91.19   38.10
  -9 -14  -2   33.20   41.00
  23 -14   2   31.20   34.90
 -14  23  -2  -51.29   33.30
  23  -9  -2   16.30   36.30
 -14  -9   2   36.60   41.20
  -9  23   2   17.50   35.30
   0   0  -3  479.05   27.00
   0   0   3  479.45   28.10
   0   0  -3  427.86   25.70
   0   0   3  428.16   28.70
   0   0  -3  389.86   42.70
  -1   0  -3  265.07   21.00
   1  -1  -3  300.47   23.50
   0  -1   3  302.77   25.70
   0   1  -3  294.67   23.80
  -1   0  -3  292.47   22.40
  -1   0  -3  217.28   38.30
   0  -1   3  311.47   23.70
  -1   1   3  253.17   24.40
   1  -1  -3  292.47   40.90
  -1   1   3  319.97   25.10
   0   1  -3  208.78   41.30
   1   0   3  308.17   28.60
   1   0   3  317.27   24.10
   1  -1   3   94.29   21.10
  -1   0   3   68.09   17.50
   1   0  -3   93.39   25.80
   1  -1   3   57.59   14.10
  -1   0   3   64.19   14.50
   0  -1  -3   77.19   15.00
  -1   1  -3   68.79   24.20
   1   0  -3   52.79   12.80
   0  -1  -3   76.79   19.00
  -1   1  -3   49.20   12.40
   0  -1  -3  105.29   28.30
   1  -1   3   66.89   17.20
   0   1   3   65.99   14.20
   2  -2  -3 1380.36   64.09
   0   2  -3 1296.97   64.49
   2  -2  -3 1264.57   49.50
  -2   2   3 1342.17   46.90
   0  -2   3 1267.37   51.29
  -2   2   3 1304.97   50.59
   0  -2   3 1297.57   45.90
  -2   0  -3 1322.47   47.00
  -2   0  -3 1276.07   60.99
   2   0   3 1301.57   54.29
  -2   0  -3 1279.37   46.80
   2   0   3 1276.67   47.90
   2  -2  -3 1293.47   49.10
   0   2  -3 1323.97   49.20
   1   1  -3 1492.25   70.39
   1   1   3 1561.64   59.89
   1  -2  -3 1612.64   56.89
   1   1   3 1537.25   55.99
   1  -2   3 1614.14   56.19
   1  -2   3 1645.74   58.39
   1  -2   3 1673.33   55.99
  -2   1  -3 1562.94   69.59
   1  -2  -3 1500.25   69.99
   1  -2  -3 1522.75   56.89
  -2   1   3 1641.24   58.69
  -2   1   3 1612.64   53.39
   1   1  -3 1631.44   57.79
  -2   1  -3 1630.74   55.09
   2  -1  -3 1571.94   56.59
  -1  -1  -3 1578.34   55.69
  -1  -1  -3 1506.15   67.09
  -1   2  -3 1482.55   69.39
  -1   2   3 1565.44   56.99
  -1  -1   3 1589.74   52.19
  -1  -1   3 1686.53   56.99
   2  -1  -3 1555.74   71.59
  -1  -1  -3 1569.34   55.29
   2  -1   3 1674.93   59.99
  -1  -1   3 1664.83   59.89
   2  -1   3 1608.24   56.59
   2  -1  -3 1636.14   57.79
  -1   2  -3 1612.94   56.49
  -1   2   3 1605.24   56.69
   2  -2   3 1453.05   49.60
   2  -2   3 1442.46   52.09
   2   0  -3 1227.48   65.69
   2  -2   3 1470.85   54.09
   0   2   3 1395.86   51.29
  -2   0   3 1445.26   51.79
  -2   2  -3 1158.28   63.49
   0  -2  -3 1371.36   50.39
   0   2   3 1314.07   53.29
   2   0  -3 1409.86   52.29
  -2   0   3 1407.46   53.89
   0  -2  -3 1251.47   52.09
  -2   2  -3 1412.26   49.99
  -2   0   3 1430.76   45.40
   3  -3  -3 1023.70   42.50
  -3   0  -3 1012.30   53.19
   3  -3  -3  997.20   41.80
   0   3  -3 1049.99   58.09
  -3   3   3 1017.10   38.90
   3   0   3  998.60   49.30
   0   3  -3  941.01   41.70
   0  -3   3  970.30   36.60
  -3   3   3  959.80   42.30
   0  -3   3  988.90   41.90
   3   0   3  976.50   39.40
   0  -3   3  982.50   45.20
   3  -3  -3 1001.30   56.89
  -3   0  -3  951.70   38.10
   2   1   3  115.79   23.00
   1   2  -3  136.89   31.70
   1  -3   3   92.99   21.50
   1  -3   3  101.09   19.00
   2  -3  -3   86.09   20.20
   2   1   3  106.09   18.90
   2  -3  -3   98.09   22.20
  -3   1  -3  109.09   17.00
   2  -3  -3  160.48   37.40
  -3   2   3  131.59   22.10
  -3   1  -3  157.08   36.10
  -3   2   3  136.39   16.70
   1  -3   3  106.79   17.70
   1   2  -3  126.89   22.70
  -2  -1  -3  151.08   19.80
  -1   3  -3  104.09   28.40
  -2   3   3  115.49   22.30
   3  -2  -3   77.79   26.50
  -1   3  -3  115.49   21.30
  -2  -1  -3  130.19   35.50
  -1  -2   3   98.79   25.20
   3  -2  -3  126.89   21.60
  -1  -2   3  105.19   22.40
   3  -1   3  105.89   22.40
  -2   3   3  136.19   24.00
   3  -1   3   81.59   18.60
   2  -3   3  580.64   32.70
   2  -3   3  605.14   30.80
   2   1  -3  586.04   33.70
  -3   1   3  604.74   34.80
   1  -3  -3  647.34   32.40
   2  -3   3  600.14   33.80
   2   1  -3  715.43   49.99
   1   2   3  559.04   30.50
   1   2   3  596.84   37.40
  -3   2  -3  591.44   29.30
  -3   1   3  601.64   24.90
  -2  -1   3  692.53   37.30
  -1   3   3  641.44   32.30
   3  -2   3  738.73   39.20
   3  -2   3  621.34   29.50
  -2   3  -3  727.73   47.50
  -1   3   3  709.93   36.50
   3  -2   3  648.04   32.40
  -1  -2  -3  682.03   31.50
  -2  -1   3  613.04   23.00
  -2   3  -3  642.74   31.40
  -1  -2  -3  729.03   45.80
  -2  -1   3  674.93   33.50
   3  -1  -3  747.03   49.70
   3  -1  -3  633.14   33.20
   3   0  -3 3175.68  118.29
   3  -3   3 3356.36  108.09
   0   3   3 3407.06  111.59
  -3   0   3 3493.85  106.39
   0  -3  -3 3316.77  106.69
   0   3   3 3373.46  108.89
  -3   3  -3 3239.68  116.69
   0   3   3 3290.27  105.39
   3  -3   3 3429.16  103.39
   3  -3   3 3226.48  105.09
  -3   3  -3 3423.06  104.29
   3   0  -3 3411.66  107.19
  -3   0   3 3414.76  108.49
   4   0   3   32.50   16.30
   0   4  -3   18.70   14.00
   4   0   3    6.40   10.40
   0  -4   3   20.10   10.70
   4   0   3   15.00   24.00
  -4   4   3    8.50   12.40
  -4   0  -3   19.30   23.60
   4  -4  -3    7.80   13.40
  -4   4   3   30.10   12.80
   0  -4   3   16.90   16.20
   4  -4  -3   11.90   13.20
  -4   0  -3   17.50   12.00
   0   4  -3   54.39   27.60
   0  -4   3   18.60   15.10
   4  -4  -3   38.90   25.80
  -4   1  -3  442.26   24.20
  -4   3   3  449.06   30.00
   3   1   3  461.05   26.30
   1   3  -3  451.65   47.30
   3  -4  -3  490.15   30.10
   3  -4  -3  479.85   44.40
   1   3  -3  476.55   30.90
   1  -4   3  434.86   30.00
   3   1   3  461.25   38.30
   1  -4   3  436.56   33.50
  -4   3   3  479.75   24.10
  -4   1  -3  473.05   42.30
  -4   1  -3  423.06   23.40
   3   1   3  491.95   33.70
   1  -4   3  443.16   25.20
   3  -4  -3  461.75   29.00
  -1   4  -3  474.05   47.70
  -1  -3   3  502.55   35.10
  -3  -1  -3  469.15   26.20
  -1  -3   3  460.15   30.00
  -3  -1  -3  470.05   42.00
   4  -3  -3  471.95   45.00
   4  -3  -3  459.15   30.10
  -1   4  -3  487.05   29.40
  -3   4   3  455.55   29.30
  -1  -3   3  463.25   20.40
   4  -1   3  463.95   25.80
  -3   4   3  497.55   28.10
   4  -1   3  436.76   38.00
   4  -3  -3  452.35   29.00
   2   2  -3 1551.94   58.29
  -4   2  -3 1508.85   52.39
   2  -4   3 1507.85   55.69
   2   2   3 1569.84   61.89
   2   2   3 1471.15   54.09
  -4   2   3 1571.44   48.90
   2   2   3 1745.53   63.99
   2  -4   3 1514.75   55.29
  -4   2  -3 1570.44   67.49
  -4   2   3 1483.05   57.69
   2  -4  -3 1590.34   57.99
   2   2  -3 1602.54   72.59
   2  -4   3 1451.45   58.19
   4  -2  -3 1563.84   56.49
  -2  -2   3 1556.64   46.90
   4  -2  -3 1512.65   56.99
  -2  -2  -3 1581.24   55.29
   4  -2   3 1584.84   52.39
  -2   4  -3 1597.74   69.19
  -2  -2   3 1463.85   59.79
   4  -2   3 1495.85   63.19
   4  -2   3 1523.95   53.79
  -2  -2   3 1517.15   56.29
  -2   4   3 1491.35   56.69
  -2   4  -3 1524.75   56.09
  -2  -2  -3 1600.04   67.69
   1  -4  -3 1293.37   64.59
   1   3   3 1377.56   58.39
   3  -4   3 1426.96   53.69
  -4   1   3 1474.25   55.59
   3   1  -3 1387.46   53.89
  -4   3  -3 1478.05   49.40
   1   3   3 1382.46   50.89
  -4   3  -3 1249.38   63.89
   1   3   3 1368.56   58.99
   3  -4   3 1389.56   50.09
   1  -4  -3 1340.47   53.19
   3  -4   3 1382.16   54.19
   3   1  -3 1294.67   67.19
   4  -1  -3 1455.55   53.99
  -1   4   3 1304.17   54.09
  -3  -1   3 1420.16   55.99
  -3   4  -3 1415.76   50.99
   4  -3   3 1404.16   50.59
  -1   4   3 1438.76   60.59
  -3  -1   3 1439.46   53.39
   4  -1  -3 1279.07   67.59
  -1   4   3 1372.36   51.79
   4  -3   3 1451.35   48.80
   4  -3   3 1485.15   57.99
  -3   4  -3 1290.97   65.09
   4  -4   3  527.65   28.00
   0   4   3  611.84   39.50
   4   0  -3  493.35   34.90
  -4   4  -3  566.64   28.50
   0  -4  -3  583.94   33.60
  -4   4  -3  605.04   46.50
   4  -4   3  529.55   36.30
   4  -4   3  499.35   31.80
   0   4   3  526.25   39.80
   0   4   3  538.25   30.70
  -4   0   3  572.24   35.90
  -4   0   3  602.34   33.40
   0  -4  -3  621.44   46.10
   4   0  -3  620.34   50.69
   5   0   3   49.00   27.20
   0  -5   3   70.99   17.60
  -5   0  -3   84.09   17.50
   0   5  -3   59.89   27.80
   5  -5  -3   60.69   14.90
   5  -5  -3   80.39   27.80
   5   0   3   89.59   17.50
   5  -5  -3   57.49   16.90
  -5   5   3   65.29   14.20
   0  -5   3  119.69   32.00
   0  -5   3   79.19   15.70
   0   5  -3   94.59   19.00
  -5   5   3   67.19   15.30
   5   0   3   88.49   18.50
   1   4  -3  319.37   29.20
  -5   1  -3  407.96   41.10
  -5   1  -3  328.57   21.50
  -5   4   3  341.67   28.30
   4  -5  -3  410.46   43.30
   4   1   3  363.36   39.40
   1   4  -3  394.06   47.50
   1  -5   3  367.96   33.20
   4  -5  -3  363.16   29.20
   1  -5   3  331.57   28.10
   4   1   3  313.87   32.20
   4   1   3  324.37   23.00
  -5   4   3  361.86   21.40
  -4  -1  -3  343.57   40.00
  -1   5  -3  373.66   47.60
   5  -1   3  353.56   28.60
   5  -4  -3  372.86   29.20
  -4  -1  -3  343.97   24.50
  -1  -4   3  350.46   34.80
   5  -4  -3  373.36   44.60
  -4   5   3  355.06   25.40
   5  -4  -3  360.66   28.60
  -1   5  -3  333.07   29.40
   5  -1   3  432.66   39.50
   5  -1   3  351.06   22.70
  -4   5   3  337.57   27.90
  -1  -4   3  347.47   30.20
   3   2   3  323.17   34.10
   2  -5   3  364.76   33.20
   3   2   3  316.57   37.30
   3   2   3  345.77   24.00
   2  -5   3  315.07   32.40
  -5   2  -3  429.96   42.00
  -5   3   3  386.26   29.10
   2   3  -3  355.56   47.20
   2   3  -3  351.76   29.40
   3  -5  -3  346.77   29.00
  -5   2  -3  336.67   20.80
   2  -5   3  312.77   24.70
  -5   3   3  353.26   18.80
  -2  -3   3  348.57   15.90
  -2   5  -3  385.96   44.10
  -2  -3   3  343.07   30.00
   5  -2   3  368.06   23.50
  -3  -2  -3  385.96   40.10
  -2   5  -3  362.86   27.70
   5  -2   3  301.97   37.60
  -3   5   3  319.67   48.60
   5  -2   3  364.56   21.60
  -3   5   3  342.27   26.80
  -3   5   3  378.26   27.30
   5  -3  -3  396.26   28.00
  -2  -3   3  370.56   33.90
   5  -3  -3  436.06   37.50
  -3  -2  -3  362.76   25.70
   5  -3  -3  383.36   44.80
   2   3   3  488.45   39.10
   2   3   3  520.45   40.70
   3  -5   3  532.35   35.50
   3  -5   3  510.45   30.30
   3   2  -3  593.14   49.50
   2  -5  -3  518.45   33.60
  -5   2   3  526.75   33.10
  -5   3  -3  534.15   46.10
   2  -5  -3  594.94   46.70
   2   3   3  491.65   28.80
  -5   3  -3  520.45   25.40
   3  -5   3  499.35   31.60
  -2   5   3  584.44   35.00
  -3  -2   3  547.45   33.20
  -3   5  -3  534.85   30.70
   5  -2  -3  610.04   49.80
  -2   5   3  541.45   41.20
   5  -3   3  547.35   28.40
  -2   5   3  550.94   31.20
  -2  -3  -3  499.25   31.40
  -3  -2   3  535.65   37.60
  -2  -3  -3  574.74   44.70
  -3   5  -3  627.84   49.50
   5  -3   3  518.25   26.20
   5  -3   3  589.74   40.20
   4  -5   3  720.83   38.50
   1   4   3  716.13   45.20
   4  -5   3  687.43   38.30
   4   1  -3  778.42   40.30
  -5   4  -3  723.63   31.30
   1  -5  -3  709.03   38.00
   4   1  -3  706.53   53.09
   4  -5   3  713.13   33.70
   1   4   3  653.73   43.50
   1   4   3  751.22   34.30
   1  -5  -3  697.33   49.00
  -5   1   3  773.92   40.00
  -5   1   3  767.32   37.30
  -5   4  -3  771.92   51.09
  -1  -4  -3  603.64   45.10
   5  -1  -3  751.52   37.40
   5  -4   3  654.23   41.70
  -4  -1   3  707.93   36.80
   5  -4   3  707.43   31.20
  -1  -4  -3  654.03   35.60
  -1   5   3  696.43   35.90
  -1   5   3  707.63   40.20
  -1   5   3  672.03   46.20
   5  -1  -3  684.63   53.79
   5  -4   3  700.23   34.60
  -4   5  -3  736.13   33.70
  -4   5  -3  688.13   50.29
  -4  -1   3  742.93   39.70
   5  -5   3   81.09   15.70
   0   5   3   55.49   22.00
   5   0  -3   92.39   18.40
  -5   0   3   74.99   17.40
  -5   0   3  127.59   29.30
  -5   5  -3   80.39   18.50
   0  -5  -3   61.89   19.20
   5  -5   3   75.49   22.70
   0  -5  -3   55.09   27.30
   0   5   3   81.99   16.10
  -5   5  -3   57.09   25.10
   5  -5   3   93.29   25.00
   5   0  -3   59.49   30.40
   6   0   3   22.20   29.30
   6   0   3   15.60   17.00
  -6   0  -3   32.00   25.40
   0  -6   3   39.70   20.70
  -6   6   3   15.70   15.20
   0   6  -3   22.30   16.50
   0   6  -3   31.80   27.90
   6  -6  -3   23.90   16.50
  -6   6   3   28.90   13.20
   6  -6  -3   29.10   26.20
   0  -6   3   26.30   23.10
   6   0   3   20.60   10.50
  -6   0  -3   23.90   11.90
   5   1   3   50.59   11.60
   1  -6   3   83.49   19.80
  -6   1  -3   62.49   12.00
  -6   5   3   57.29   12.90
   1   5  -3   54.49   30.00
   5  -6  -3   39.70   19.30
   1  -6   3   54.09   22.30
   5  -6  -3   50.29   27.90
   1   5  -3   62.19   18.00
   5   1   3   62.59   28.00
  -6   1  -3   68.29   27.80
  -6   5   3   71.59   17.60
   5   1   3   59.09   19.60
   1  -6   3   54.49   13.10
  -5  -1  -3   50.09   13.60
   6  -1   3   39.40   26.20
  -1   6  -3   35.40   27.70
  -1   6  -3   55.39   16.20
  -1  -5   3   80.79   20.60
   6  -5  -3   61.99   19.80
  -1  -5   3   64.89   21.30
   6  -5  -3   44.70   14.30
  -5   6   3   47.80   22.20
   6  -1   3   48.20   16.10
   6  -1   3   55.29   11.50
  -5   6   3   40.20   15.40
   6  -5  -3   49.99   28.00
  -1  -5   3   64.79   14.00
  -5  -1  -3   41.00   24.20
  -5   6   3   54.59   15.20
  -6   4   3  232.98   26.30
  -6   2  -3  275.77   49.70
   4   2   3  211.68   37.30
   4  -6  -3  215.28   42.70
   2  -6   3  227.98   22.10
   2   4  -3  217.78   45.70
   4   2   3  232.58   21.30
   2  -6   3  231.38   35.30
   2   4  -3  233.08   28.10
   2  -6   3  228.68   29.10
   4   2   3  235.78   34.00
  -6   4   3  210.28   17.70
  -2  -4   3  213.48   14.80
  -2  -4   3  244.88   29.20
  -4   6   3  272.97   27.00
  -2   6  -3  218.78   27.50
  -4  -2  -3  240.58   24.20
   6  -2   3  193.18   35.30
   6  -4  -3  228.88   42.30
   6  -2   3  234.58   19.90
  -4  -2  -3  235.08   38.20
  -2  -4   3  233.38   34.60
  -4   6   3  240.58   25.70
  -2   6  -3  293.97   46.00
  -4   6   3  218.68   38.60
   6  -4  -3  208.48   26.50
   3   3  -3  442.86   49.10
   3   3   3  411.66   39.50
  -6   3   3  420.06   32.00
   3   3   3  446.36   26.80
   3  -6  -3  453.35   42.40
   3  -6   3  459.45   37.80
   3  -6  -3  423.86   32.60
  -6   3  -3  432.96   22.10
  -6   3  -3  417.96   72.79
   3   3  -3  441.16   32.60
   3   3   3  410.16   39.10
   3   3  -3  463.85   19.00
   3  -6   3  391.96   37.00
   3  -6   3  412.36   27.80
  -3   6   3  434.96   40.80
  -3   6  -3  467.45   46.20
  -3   6   3  435.76   29.90
   6  -3   3  453.25   23.20
  -3  -3  -3  466.85   42.00
   6  -3  -3  426.46   30.90
   6  -3  -3  434.26   46.20
   6  -3   3  430.66   25.10
  -3   6   3  475.35   31.60
  -3  -3   3  441.36   33.30
  -3  -3  -3  447.96   29.60
  -3  -3   3  444.16   37.70
  -3   6  -3  454.55   31.30
   4   2  -3  499.75   57.59
  -6   2   3  497.95   34.40
   2   4   3  478.35   41.60
   4   2  -3  497.45   33.00
   4  -6   3  449.95   34.40
  -6   4  -3  496.25   24.40
   4  -6   3  473.45   37.80
   2  -6  -3  508.85   45.20
   2   4   3  464.15   28.50
   4  -6   3  474.45   32.00
   2  -6  -3  488.35   34.10
   2   4   3  470.25   41.70
   6  -2  -3  480.85   56.09
  -2   6   3  466.35   35.40
   6  -4   3  495.45   28.40
  -4  -2   3  498.55   38.70
  -4   6  -3  513.15   30.50
  -2   6   3  478.75   30.90
   6  -4   3  457.85   39.50
  -2   6   3  453.65   43.30
  -2  -4  -3  469.95   31.40
   6  -4   3  486.35   25.20
  -4   6  -3  516.95   49.00
   6  -2  -3  454.95   31.40
  -6   5  -3  108.89   17.80
   1  -6  -3  122.19   29.70
   5  -6   3  111.69   24.50
   5  -6   3  118.79   29.50
   5   1  -3  129.49   35.70
   5   1  -3  151.48   26.20
  -6   1   3  134.09   29.30
   1   5   3  113.39   22.10
   1   5   3  143.79   34.20
   5  -6   3   99.39   21.40
  -6   1   3  141.19   26.30
   1  -6  -3  109.49   20.30
   1   5   3  102.49   23.80
  -6   5  -3  218.78   47.40
  -1   6   3  179.78   31.10
   6  -5   3  113.39   24.20
  -1   6   3  115.29   23.90
  -1  -5  -3  128.99   34.40
   6  -1  -3  104.29   31.70
   6  -1  -3  104.79   23.80
  -5  -1   3  128.29   26.70
   6  -5   3  100.49   20.60
  -5  -1   3  141.19   30.70
  -1   6   3  100.59   24.80
  -1  -5  -3  134.39   26.80
   6  -5   3  118.89   25.30
  -5   6  -3  126.89   21.90
  -5   6  -3  146.89   36.10
  -6   0   3   37.50   17.80
  -6   6  -3   53.29   26.60
   6  -6   3   26.80   18.00
  -6   0   3   29.60   18.80
   0   6   3   10.20   13.20
   6   0  -3   22.40   16.50
   0   6   3   16.60   26.30
   6  -6   3    0.50   15.80
   0  -6  -3   28.00   18.20
   0   6   3   38.70   24.90
   6   0  -3   13.40   29.00
   6  -6   3   11.80   19.70
  -6   6  -3   31.70   12.30
   0  -6  -3   12.50   26.30
   0   7  -3  211.88   49.80
   7   0   3  243.28   31.70
  -7   7   3  214.78   24.00
  -7   0  -3  199.58   20.70
  -7   7   3  228.08   39.50
   7   0   3  250.17   19.70
   0   7  -3  296.17   31.90
  -7   0  -3  200.58   43.80
   0  -7   3  314.57   34.40
   7   0   3  224.68   38.00
   0  -7   3  265.37   40.90
   7  -7  -3  234.78   30.20
   0  -7   3  226.48   20.20
  -7   7   3  167.68   44.00
   7  -7  -3  214.98   43.00
   1  -7   3  123.29   27.10
   6   1   3  117.49   18.40
  -7   6   3  131.99   20.00
  -7   1  -3  122.99   16.50
   1   6  -3  119.49   30.00
   1   6  -3  149.49   35.30
   1  -7   3  101.49   19.10
   6  -7  -3  143.99   31.90
  -7   6   3  124.29   26.90
   6  -7  -3  113.09   27.60
   6   1   3  113.49   21.00
   6   1   3   98.89   32.60
   1  -7   3  126.99   29.70
  -7   1  -3  116.49   28.70
  -6  -1  -3  108.69   20.40
   7  -6  -3  110.49   26.00
  -6   7   3  116.79   18.90
  -1   7  -3  118.09   29.30
  -1  -6   3  164.88   30.70
  -6   7   3  129.09   28.40
   7  -6  -3   98.99   23.00
  -1  -6   3   92.69   16.40
  -1   7  -3  186.18   46.80
  -6   7   3  114.59   21.10
  -1  -6   3   91.99   23.70
   7  -1   3  116.59   19.80
  -6  -1  -3  163.28   41.10
   7  -1   3   82.69   31.50
   7  -6  -3  105.09   30.90
   7  -1   3  117.49   17.00
   5  -7  -3  602.34   39.20
   5   2   3  539.95   52.19
   2   5  -3  657.63   62.99
   2  -7   3  590.94   37.90
   5  -7  -3  594.84   47.90
   2   5  -3  604.64   38.90
  -7   2  -3  657.93   51.19
   5   2   3  567.84   41.80
  -7   5   3  617.94   27.70
  -7   5   3  608.54   35.80
   2  -7   3  594.74   45.20
   5   2   3  587.24   29.70
   2  -7   3  587.74   30.70
   7  -5  -3  586.24   34.70
  -5  -2  -3  591.74   32.20
   7  -2   3  591.74   53.79
  -2  -5   3  559.74   37.30
   7  -2   3  571.14   32.70
   7  -2   3  581.94   26.90
  -2  -5   3  599.44   43.30
  -5   7   3  605.24   36.10
  -5   7   3  635.74   47.00
  -2   7  -3  580.84   35.70
  -5   7   3  596.34   33.90
  -5  -2  -3  651.33   47.00
   7  -5  -3  590.34   35.70
   7  -5  -3  579.34   51.89
  -2   7  -3  610.34   53.29
   4   3   3   91.39   30.40
  -7   4   3  104.59   14.70
   3   4  -3  113.29   28.50
   3  -7   3  106.19   23.40
   4  -7  -3  148.79   28.90
   3   4  -3  105.79   15.40
   4  -7  -3   73.19   36.20
   3  -7   3   88.69   21.60
  -7   3  -3  120.19   29.40
   3  -7   3   84.79   19.30
   4   3   3  111.89   20.10
   4   3   3  106.99   24.00
  -7   4   3  130.39   26.00
   7  -4  -3   74.49   16.00
  -4   7   3   99.89   24.30
  -3   7  -3  132.29   26.30
  -3  -4   3   90.09   20.20
  -3   7  -3  117.89   30.50
  -4  -3  -3  104.79   26.50
  -4   7   3  102.29   26.30
   7  -3   3   99.69   28.50
   7  -3   3  119.79   17.80
  -3  -4   3  134.99   33.50
  -4   7   3  146.59   25.80
   7  -3   3   80.29   15.60
  -4  -3  -3  114.99   18.60
   7  -4  -3  127.99   24.50
   4  -7   3 1473.55   59.09
  -7   3   3 1503.75   59.79
   4   3  -3 1525.95   48.20
   3   4   3 1456.25   55.29
   4  -7   3 1520.55   58.09
   4   3  -3 1595.54   78.69
  -7   4  -3 1474.05   49.80
   3  -7  -3 1617.94   61.79
   3  -7  -3 1664.83   68.89
   3   4   3 1503.25   66.19
   4   3  -3 1483.95   60.29
  -7   3   3 1461.55   46.50
   4  -7   3 1416.76   63.49
   3   4   3 1785.72   70.49
  -7   4  -3 1683.03   72.49
  -4   7  -3 1423.66   57.19
  -3   7   3 1534.45   69.19
   7  -4   3 1476.45   50.59
  -3  -4  -3 1531.45   67.19
  -4   7  -3 1654.73   75.09
   7  -4   3 1488.15   66.19
  -4  -3   3 1433.26   63.29
   7  -3  -3 1463.35   58.09
  -4  -3   3 1493.05   59.59
   7  -3  -3 1570.44   74.79
   7  -4   3 1479.95   52.89
  -3  -4  -3 1540.55   58.29
  -3   7   3 1537.15   58.69
   5   2  -3  409.06   32.20
   5  -7   3  387.26   35.70
   2  -7  -3  395.86   42.20
  -7   5  -3  369.16   47.50
   5  -7   3  422.46   31.40
   5  -7   3  361.86   32.20
  -7   2   3  392.96   33.90
   2   5   3  381.16   42.10
   5   2  -3  363.86   50.59
   2  -7  -3  383.26   34.40
  -7   2   3  382.36   31.10
  -7   5  -3  387.46   21.90
  -2  -5  -3  348.17   31.50
  -5  -2   3  436.06   37.90
  -5   7  -3  423.76   29.10
   7  -5   3  454.25   40.00
   7  -2  -3  403.76   48.60
  -5  -2   3  393.56   33.20
  -2   7   3  393.16   42.80
  -2   7   3  378.16   33.60
  -2   7   3  395.56   30.70
   7  -5   3  377.26   25.20
   7  -2  -3  388.56   30.70
   7  -5   3  394.16   29.90
   1   6   3  143.49   35.90
   1  -7  -3  117.39   30.30
   1   6   3  100.49   32.80
   6  -7   3  105.39   18.80
  -7   1   3  139.69   30.00
  -7   6  -3  132.29   18.30
  -7   6  -3  100.29   29.40
   6  -7   3  124.89   32.60
   6  -7   3  122.79   23.70
   6   1  -3  139.29   27.60
   1  -7  -3  129.69   30.60
  -7   1   3  156.18   23.20
   6   1  -3   92.09   31.50
   7  -6   3  118.09   27.60
  -6  -1   3  141.39   32.30
   7  -1  -3  143.59   36.00
  -1  -6  -3  112.49   21.90
  -6   7  -3  144.29   23.00
  -1  -6  -3  117.59   28.10
   7  -1  -3  116.59   25.80
  -1   7   3   97.49   28.20
  -1   7   3  134.99   26.00
   7  -6   3  124.59   27.00
   7  -6   3   87.19   21.70
  -1   7   3   94.79   23.40
  -6  -1   3  119.39   27.20
  -6   7  -3  117.39   31.30
   0   7   3  104.09   27.80
   7  -7   3  133.09   20.10
   7  -7   3  139.59   31.30
   0  -7  -3  111.49   31.10
   0  -7  -3   91.29   21.40
  -7   0   3   71.79   34.60
  -7   0   3   89.29   18.90
   7   0  -3   68.39   32.10
   7   0  -3  118.69   26.10
  -7   7  -3  138.29   21.30
   7  -7   3  116.69   29.70
   0   7   3  116.89   28.60
  -7   7  -3  101.99   29.80
   8  -8  -3  165.78   34.00
   0   8  -3  148.59   41.50
   8   0   3  116.99   22.50
   0  -8   3  104.99   19.90
   0  -8   3   84.89   25.50
  -8   8   3  145.29   24.40
   0  -8   3   64.69   25.50
   0   8  -3   96.99   21.90
   8  -8  -3  101.99   20.90
  -8   8   3   93.69   18.80
   8   0   3  100.29   17.10
  -8   0  -3  171.98   33.80
  -8   0  -3  124.39   18.90
   8   0   3   87.59   36.10
   7   1   3  629.94   52.79
  -8   7   3  715.53   39.90
   1   7  -3  569.34   72.19
   7   1   3  705.03   31.40
   7  -8  -3  684.33   41.60
   1  -8   3  711.63   45.20
   1  -8   3  687.93   50.79
  -8   1  -3  697.33   29.20
  -8   1  -3  696.83   55.19
   7  -8  -3  678.53   52.59
   7   1   3  713.43   44.80
   1   7  -3  683.53   42.60
   1  -8   3  681.73   33.00
  -8   7   3  724.63   33.40
   8  -7  -3  679.63   40.30
  -7  -1  -3  682.73   32.70
   8  -1   3  658.33   53.99
  -7  -1  -3  660.23   53.49
  -7   8   3  699.03   37.10
   8  -1   3  691.73   28.90
  -7   8   3  687.53   39.00
  -1  -7   3  637.54   53.89
   8  -7  -3  670.53   66.99
  -7   8   3  707.93   53.19
  -1   8  -3  708.23   43.50
  -1  -7   3  707.43   44.20
   8  -1   3  713.33   38.40
   6  -8  -3  313.97   35.60
   2   6  -3  232.98   49.00
   2   6  -3  402.36   36.00
  -8   6   3  352.36   22.70
  -8   2  -3  339.07   46.50
   2   6  -3  330.97   22.90
   6   2   3  383.76   38.70
  -8   6   3  254.87   34.70
   6  -8  -3  312.27   44.30
   6   2   3  389.96   24.60
   6   2   3  305.87   46.70
   2  -8   3  416.76   42.40
  -2   8  -3  297.87   52.89
   8  -2   3  402.76   21.00
   8  -2   3  319.27   43.90
   8  -6  -3  289.27   46.10
  -6  -2  -3  335.77   26.40
  -2  -6   3  299.67   57.79
   8  -2   3  347.47   27.90
   8  -6  -3  348.57   31.80
   8  -6  -3  365.26   30.80
  -6  -2  -3  333.57   45.00
  -2   8  -3  406.66   35.70
  -2  -6   3  419.06   37.10
  -6   8   3  278.07   34.10
  -6   8   3  338.67   44.70
  -6   8   3  391.36   31.00
   5  -8  -3 1080.59   83.79
   3   5  -3 1125.49   39.70
   3  -8   3  992.60   56.89
  -8   3  -3 1183.38   62.69
   3   5  -3 1167.98   66.39
   5   3   3 1014.70   59.39
   5   3   3 1005.90   55.89
   5   3   3 1023.40   42.60
   3   5  -3 1071.19   50.89
   5  -8  -3 1144.09   51.19
   3  -8   3 1014.30   49.99
   3  -8   3 1070.89   44.40
  -8   5   3 1171.78   38.40
  -5   8   3 1091.59   47.90
  -3  -5   3  989.20   50.19
  -5  -3  -3 1073.09   57.19
   8  -5  -3 1050.99   47.00
  -3   8  -3 1186.18   74.79
   8  -5  -3 1091.29   47.20
  -5   8   3 1085.19   52.29
   8  -3   3 1051.39   36.50
  -3  -5   3  858.21   83.19
   8  -3   3 1053.09   41.40
  -5  -3  -3 1066.39   45.30
  -3   8  -3  927.41   53.39
   8  -5  -3 1094.69   63.59
  -5   8   3 1069.99   59.99
   8  -3   3 1014.20   37.80
   8  -3   3 1000.90   59.19
   4   4  -3 2021.60   75.59
   4  -8   3 1956.20   80.69
   4  -8  -3 2045.60   82.89
   4   4   3 1992.50   83.29
   4   4  -3 2072.79   65.49
   4  -8   3 2083.39   71.89
  -8   4  -3 2049.09   85.89
   4   4   3 2041.30   80.99
   4  -8  -3 2047.20   76.69
   4  -8   3 1968.30   74.19
   4   4  -3 2044.90   90.69
  -4  -4   3 2041.30   75.09
   8  -4  -3 2073.59   72.89
  -4  -4  -3 1970.30   80.29
  -4   8   3 2063.09   85.09
  -4   8  -3 1998.90   73.69
   8  -4  -3 2109.49   89.79
   8  -4   3 2105.89   66.39
   8  -4   3 2025.40   82.29
  -4  -4  -3 2043.40   72.99
  -4   8   3 2075.19   75.19
   8  -4   3 2119.29   64.39
  -8   5  -3   43.40    9.20
   3   5   3   49.50   29.80
  -8   5  -3   95.39   30.50
   3  -8  -3   33.20   25.80
   5   3  -3   49.40   10.90
   5  -8   3   43.30   20.00
   3   5   3   60.09   25.40
   3  -8  -3   52.39   22.30
   5  -8   3   49.30   22.70
  -8   3   3   38.70   18.70
   5   3  -3   59.79   20.50
   5  -8   3   55.19   18.60
   5   3  -3   44.60   30.20
  -5  -3   3   65.29   19.80
  -3  -5  -3   48.70   25.70
  -5   8  -3   34.80   28.90
   8  -5   3   30.60   15.00
  -3   8   3   49.00   22.60
   8  -5   3   42.10   24.50
  -3   8   3   65.29   25.90
  -3  -5  -3   46.60   18.90
   8  -3  -3   47.60   17.40
  -5   8  -3   56.59   16.50
  -5  -3   3   49.40   22.30
   8  -3  -3   46.30   30.20
   8  -5   3   29.60   13.90
  -8   6  -3  839.72   58.29
  -8   2   3  805.82   63.19
   6  -8   3  701.33   39.60
   6  -8   3  697.03   48.20
  -8   6  -3  737.03   29.80
   6  -8   3  674.23   41.30
  -8   2   3  698.13   40.00
   6   2  -3  741.13   59.29
   2   6   3  704.33   50.79
   6   2  -3  698.63   40.70
   2  -8  -3  825.72   50.59
   2   6   3  706.93   54.19
   2  -8  -3  724.83   43.50
  -2   8   3  805.32   45.50
  -2  -6  -3  755.72   41.70
   8  -2  -3  758.72   58.89
   8  -2  -3  738.13   40.10
  -6  -2   3  729.53   45.50
   8  -6   3  614.24   36.50
  -2  -6  -3  693.63   50.89
   8  -6   3  726.93   46.90
  -6   8  -3  685.03   36.70
  -6  -2   3  697.13   40.60
   8  -6   3  635.24   33.00
  -2   8   3  701.53   53.49
  -6   8  -3  852.41   56.69
   7  -8   3  205.78   36.10
   1   7   3  195.08   44.30
   7  -8   3  224.28   27.80
   7  -8   3  238.48   35.00
  -8   1   3  247.58   33.20
   1   7   3  257.57   42.20
   7   1  -3  251.17   31.60
   1  -8  -3  251.87   33.80
  -8   7  -3  247.48   50.39
   7   1  -3  247.78   50.79
  -8   1   3  239.18   30.80
  -8   7  -3  236.58   20.60
   1  -8  -3  233.78   41.40
  -1  -7  -3  217.58   31.20
  -7  -1   3  251.67   36.30
  -1  -7  -3  204.98   35.50
  -7   8  -3  222.88   47.00
   8  -7   3  196.28   35.00
  -1  -7  -3  181.18   37.40
   8  -7   3  205.58   31.20
  -1   8   3  213.28   40.90
  -1   8   3  165.08   43.50
   8  -1  -3  232.98   50.89
   8  -7   3  228.28   23.90
   8  -1  -3  212.58   28.70
  -7   8  -3  232.98   24.70
  -7  -1   3  267.17   32.20
   0   8   3  248.78   48.10
   0   8   3  268.17   40.90
   8   0  -3  293.97   48.70
   8  -8   3  307.47   35.10
  -8   8  -3  275.67   50.19
   0  -8  -3  182.78   41.00
   8  -8   3  294.17   27.90
  -8   0   3  271.47   32.40
   0  -8  -3  223.38   35.70
  -8   0   3  287.07   38.00
   8   0  -3  212.98   49.60
   8  -8   3  260.57   35.50
  -8   8  -3  310.37   25.10
  -9   9   3  674.53   57.49
  -9   0  -3  678.33   31.60
   0  -9   3  712.03   58.69
   9  -9  -3  705.63   44.40
   9   0   3  645.94   55.49
   9   0   3  710.33   30.20
   9   0   3  693.53   42.30
  -9   0  -3  704.63   58.89
   0   9  -3  569.04   61.59
   0  -9   3  713.23   50.39
   0   9  -3  835.82   58.29
   0  -9   3  674.53   34.60
   9  -9  -3  650.63   62.59
  -9   9   3  756.72   42.50
  -9   1  -3  222.28   19.70
  -9   1  -3  255.17   48.70
   1  -9   3  351.76   48.50
   8   1   3  334.67   39.10
   8   1   3  230.98   41.50
   8  -9  -3  244.38   45.10
   1  -9   3  368.96   41.90
  -9   8   3  312.17   32.60
   8  -9  -3  224.98   36.40
   1  -9   3  233.58   24.30
   8   1   3  296.27   22.30
  -9   8   3  260.57   45.70
   1   8  -3  276.37   40.10
  -8   9   3  267.97   46.30
  -1  -8   3  312.77   47.70
  -8  -1  -3  266.67   48.50
  -8   9   3  296.97   33.10
   9  -1   3  329.47   31.30
   9  -1   3  267.87   18.80
  -1   9  -3  316.77   39.70
   9  -1   3  231.58   43.70
  -8  -1  -3  239.78   25.00
  -1   9  -3  200.88   52.19
   9  -8  -3  234.68   32.30
  -1  -8   3  292.27   39.20
   9  -8  -3  250.27   47.00
  -8   9   3  184.68   28.80
   7  -9  -3 1010.00   50.89
   2   7  -3  969.50   73.79
   7   2   3  922.81   39.00
  -9   7   3  938.81   46.40
   7   2   3  884.91   62.49
   2  -9   3  884.81   51.09
   2   7  -3  994.00   66.09
   2  -9   3  989.10   41.90
   7  -9  -3 1043.90   59.59
   2  -9   3  837.62   59.69
   7   2   3  963.30   54.49
   2   7  -3  999.00   41.20
  -9   2  -3 1095.59   62.09
  -7  -2  -3 1110.49   60.59
  -2   9  -3 1175.98   97.99
  -2   9  -3  920.11   51.79
   9  -7  -3 1023.40   48.30
  -7  -2  -3  954.10   42.10
   9  -7  -3  941.41   60.89
   9  -2   3  923.31   41.50
   9  -2   3  920.31   60.79
   9  -2   3  959.80   34.80
  -7   9   3  905.21   46.30
  -7   9   3 1041.60   64.59
  -2  -7   3  907.61   59.39
  -2  -7   3  939.61   52.79
  -7   9   3 1033.60   46.60
   3  -9   3 2660.63   88.49
   3   6  -3 2697.63   85.89
  -9   6   3 2746.63   93.19
   6  -9  -3 2689.03   94.89
  -9   3  -3 2663.73  102.79
   3  -9   3 2581.14   97.09
   3  -9   3 2576.84  101.09
   3   6  -3 2722.83  109.19
   6  -9  -3 2796.52  101.99
   6   3   3 2705.73   98.39
   6   3   3 2695.93  105.39
   9  -3   3 2589.44   83.49
  -3   9  -3 2746.93   95.39
  -3   9  -3 2461.65  134.09
   9  -6  -3 2675.73  105.39
  -6  -3  -3 2720.33  101.59
  -3  -6   3 2527.55   94.29
   9  -6  -3 2616.64   91.59
  -6   9   3 2811.62   92.09
   9  -3   3 2725.13   81.69
  -3  -6   3 2600.64   99.69
  -6  -3  -3 2711.03   89.89
   9  -3   3 2697.33  103.69
  -6   9   3 2846.82   93.39
   9  -6  -3 2679.13   92.19
   9  -3   3 2738.63   80.39
   5  -9  -3  315.47   37.10
   5  -9  -3  278.27   41.80
   5   4   3  205.38   44.30
   4   5  -3  249.88   23.60
   4  -9   3  346.47   45.30
  -9   5   3  326.87   32.20
   4  -9   3  297.07   35.40
   4   5  -3  264.97   51.29
   4  -9   3  299.97   28.00
   5   4   3  285.87   46.70
  -9   4  -3  329.77   49.50
   9  -5  -3  271.37   45.80
  -5  -4  -3  301.07   30.10
   9  -5  -3  280.07   30.10
   9  -4   3  282.87   22.10
  -4   9  -3  224.28   48.20
  -5   9   3  302.17   31.90
  -5   9   3  336.77   32.50
   9  -4   3  264.47   43.60
   9  -4   3  299.47   21.80
  -4  -5   3  326.97   36.40
  -4  -5   3  377.16   43.60
  -5  -4  -3  276.27   42.60
   9  -5  -3  303.27   29.90
   5  -9   3 1837.42   80.69
   5  -9   3 1990.00   71.29
   4   5   3 1911.81   81.49
  -9   4   3 1873.41   72.39
   5  -9   3 1877.51   73.49
   5   4  -3 2012.60   64.79
   4   5   3 1963.20   83.89
   4  -9  -3 2059.49   80.19
   5   4  -3 2047.30   88.09
   4  -9  -3 1973.90   76.39
  -9   5  -3 2127.39   86.19
  -5  -4   3 1855.01   77.59
  -4  -5  -3 1861.71   75.69
  -5   9  -3 2050.69   86.89
   9  -4  -3 1926.11   71.59
  -4  -5  -3 1948.31   71.59
   9  -5   3 1617.94   60.59
   9  -4  -3 2026.00   87.59
  -5  -4   3 1834.82   73.09
  -4  -5  -3 1959.20   79.59
  -4   9   3 2011.90   74.29
   9  -4  -3 1998.10   59.29
  -4   9   3 1947.91   72.09
  -5   9  -3 1818.02   71.49
   9  -5   3 1908.51   80.59
   6   3  -3 1460.65   46.10
   6   3  -3 1481.35   76.89
  -9   6  -3 1476.65   71.49
   6  -9   3 1312.57   65.29
   3  -9  -3 1396.36   61.89
   3   6   3 1328.47   68.69
  -9   6  -3 1325.57   44.10
  -9   3   3 1336.77   57.39
   6  -9   3 1349.56   57.89
  -9   3   3 1364.46   55.89
   3   6   3 1311.47   67.79
   3  -9  -3 1382.46   64.89
   9  -6   3 1206.58   49.90
  -3   9   3 1134.59   85.19
   9  -6   3 1275.87   46.10
  -6   9  -3 1293.07   54.99
  -6  -3   3 1294.77   57.29
  -3  -6  -3 1370.56   63.39
   9  -6   3 1349.07   65.99
  -6  -3   3 1350.56   64.49
  -6   9  -3 1387.26   71.29
  -3  -6  -3 1397.76   58.19
   9  -3  -3 1321.47   56.09
   9  -3  -3 1271.07   41.40
   9  -3  -3 1381.06   72.69
  -3  -6  -3 1284.37   64.39
   7  -9   3  308.57   32.60
   2   7   3  316.67   44.50
  -9   2   3  292.17   31.40
   2  -9  -3  262.57   41.00
  -9   7  -3  325.87   20.10
  -9   2   3  312.07   36.50
   7  -9   3  288.77   32.60
   2   7   3  309.77   48.90
   7   2  -3  284.57   52.29
   7  -9   3  302.37   39.60
   7   2  -3  276.17   38.10
   2  -9  -3  311.07   37.00
  -9   7  -3  345.07   53.09
  -2   9   3  266.07   37.20
  -7  -2   3  319.37   34.50
   9  -7   3  301.67   24.50
  -7  -2   3  332.07   41.20
   9  -2  -3  267.57   49.99
  -2  -7  -3  210.28   42.30
  -2  -7  -3  314.07   41.90
  -2   9   3  197.48   50.89
   9  -2  -3  314.17   41.60
  -2  -7  -3  283.97   36.00
   9  -7   3  274.67   40.10
  -7   9  -3  270.57   49.10
   9  -7   3  295.47   31.50
  -7   9  -3  328.17   29.80
   1   8   3  366.16   48.10
   8   1  -3  497.55   38.80
   8  -9   3  561.04   47.50
   1  -9  -3  478.35   46.70
   1  -9  -3  373.86   46.20
   8  -9   3  504.75   41.10
   8  -9   3  505.65   36.80
  -9   8  -3  441.76   56.79
   8   1  -3  418.06   55.99
   1   8   3  497.55   55.89
   1  -9  -3  443.46   40.10
  -9   1   3  497.15   37.80
  -9   1   3  519.55   40.30
  -9   8  -3  493.65   26.80
  -8   9  -3  488.35   31.20
   9  -8   3  501.55   39.70
  -1  -8  -3  444.06   40.50
  -8   9  -3  438.76   53.79
  -8  -1   3  460.85   37.90
   9  -1  -3  412.16   53.19
  -1  -8  -3  377.16   49.80
  -1   9   3  463.95   43.20
   9  -8   3  443.46   41.80
  -8  -1   3  528.35   45.60
   9  -1  -3  446.56   37.00
  -9   0   3  149.09   37.30
   0  -9  -3  112.89   28.10
  -9   9  -3  111.99   37.10
   0  -9  -3  113.69   29.10
   9  -9   3  107.89   27.00
   0   9   3  118.79   33.20
  -9   9  -3  105.49   22.60
  -9   0   3  113.79   23.90
   0   9   3   51.09   35.80
   0  -9  -3   61.49   30.20
   9   0  -3  118.99   30.10
   9  -9   3  103.29   27.10
   9   0  -3  113.49   37.00
   9  -9   3  127.29   22.20
 -10  10   3  185.08   49.99
  10 -10  -3  159.38   36.80
 -10   0  -3  192.88   41.10
   0  10  -3  293.67   43.90
   0  10  -3  142.39   39.40
 -10  10   3  262.27   35.20
  10   0   3  239.58   20.40
  10 -10  -3  198.58   38.60
   0 -10   3  236.08   45.00
  10   0   3  164.18   43.10
 -10   0  -3  182.08   22.60
   0 -10   3  259.87   53.29
 -10   9   3  436.36   39.20
   9 -10  -3  395.86   63.69
   1   9  -3  417.16   45.10
 -10   1  -3  541.85   61.19
   1   9  -3  539.45   60.19
   1 -10   3  373.26   56.19
   1   9  -3  468.95   33.50
 -10   1  -3  442.76   24.00
   1 -10   3  442.56   31.20
   9   1   3  355.06   57.99
   9 -10  -3  427.76   41.60
   9   1   3  438.06   41.20
 -10   9   3  474.35   59.89
   9   1   3  420.16   25.90
   1 -10   3  404.96   47.70
  10  -1   3  469.65   58.29
  10  -9  -3  456.35   53.09
  10  -1   3  437.16   22.90
  10  -9  -3  503.75   40.30
  -9  10   3  450.75   55.39
  -9  10   3  441.26   37.00
  -1  10  -3  561.64   60.09
  -1  -9   3  457.55   56.19
  10  -1   3  486.25   33.70
  -9  10   3  481.15   35.00
  -9  -1  -3  479.45   29.40
  -1  10  -3  458.35   46.90
  -1  -9   3  423.06   46.00
  -9  -1  -3  553.64   57.39
 -10   2  -3 1825.62   85.39
 -10   8   3 1716.43   66.89
   2 -10   3 1716.93   62.09
   2   8  -3 1692.63   72.09
   2   8  -3 1611.44   62.39
   8 -10  -3 1701.83   70.39
   2   8  -3 1693.43   85.29
   2 -10   3 1657.33   79.99
   8 -10  -3 1686.63   78.49
   8   2   3 1602.04   78.89
   8   2   3 1718.83   72.99
   2 -10   3 1703.13   73.09
  -8  -2  -3 1727.83   79.29
  -8  -2  -3 1663.63   61.69
  10  -8  -3 1701.93   81.99
  -2  -8   3 1749.03   78.39
  10  -2   3 1757.42   53.49
  10  -8  -3 1625.64   57.89
  -8  10   3 1659.53   81.89
  -8  10   3 1648.24   65.49
  -8  10   3 1733.93   67.19
  10  -2   3 1733.73   58.09
  -2  10  -3 1724.23   83.39
  10  -2   3 1764.22   82.79
  10  -8  -3 1657.43   67.89
  -2  -8   3 1693.13   73.99
   3   7  -3  420.46   39.20
   3 -10   3  415.76   43.10
 -10   3  -3  312.77   55.59
   7   3   3  460.65   49.30
   3   7  -3  265.17   55.79
   7 -10  -3  354.36   39.90
   7 -10  -3  342.57   44.90
   3   7  -3  292.07   28.90
   3 -10   3  348.27   29.50
 -10   7   3  412.86   36.10
   7   3   3  252.17   51.69
  -7  10   3  278.27   33.10
  -7  10   3  412.16   36.30
  -3  10  -3  320.47   56.19
  -3  -7   3  428.16   41.50
  -7  -3  -3  333.67   31.00
  10  -7  -3  354.66   32.60
  10  -7  -3  313.37   22.30
  10  -3   3  317.87   51.09
  -7  -3  -3  303.57   48.00
  10  -7  -3  302.07   51.09
  -3  10  -3  410.16   39.30
  10  -7  -3  336.57   33.80
  -7  10   3  454.25   51.59
   6   4   3 1784.62   79.99
 -10   6   3 1812.72   69.99
   4   6  -3 1973.50   64.99
   4 -10   3 1772.52   73.99
   4 -10   3 1730.43   81.39
 -10   4  -3 1997.30   85.19
   4   6  -3 1731.53   72.79
   6 -10  -3 1893.61   73.59
   4 -10   3 1774.72   67.19
   6   4   3 1868.71   85.69
   4   6  -3 1871.31   87.19
  10  -6  -3 1751.32   58.69
  -4  10  -3 1703.23   71.89
  10  -6  -3 1906.51   85.99
  -4  -6   3 1758.12   74.89
  10  -6  -3 1841.32   68.19
  -4  10  -3 1958.30   86.09
  -6  10   3 1734.43   69.89
  -6  -4  -3 1769.22   68.09
  10  -6  -3 1765.02   70.79
  -4  -6   3 1680.83   78.49
  -6  10   3 1829.42   83.69
  -6  -4  -3 1973.30   81.39
  10  -4   3 1757.82   83.09
  -6  -4  -3 1716.03   72.39
  -6  10   3 1946.61   70.79
   5 -10   3 2640.84  101.79
   5   5   3 2812.62  101.99
   5   5  -3 2803.22   96.69
   5   5  -3 2640.54   86.89
   5   5  -3 2639.34  108.59
   5 -10   3 2719.23   95.59
 -10   5   3 2694.03   92.69
   5 -10  -3 2716.63   99.79
   5 -10   3 2633.74   93.29
   5   5   3 2588.04  101.99
 -10   5  -3 2635.64  103.99
   5 -10  -3 2699.33   96.29
  -5  -5  -3 2469.45   97.99
  10  -5  -3 2329.57   97.89
  10  -5  -3 2627.54  107.49
  -5  -5   3 2594.04  101.59
  -5  10   3 2729.73  105.39
  -5  10   3 2545.05  110.39
  -5  10   3 2777.32   93.09
  -5  -5  -3 2589.74   96.69
  10  -5  -3 2569.24   80.89
  -5  10  -3 2575.84  106.19
  -5  10  -3 2629.94   93.89
  -5  -5   3 2591.64   94.89
  -5  -5  -3 2704.83   92.69
   4   6   3   34.20   34.10
   4 -10  -3   56.59   27.00
   6   4  -3   50.19   16.10
   6   4  -3   65.79   36.10
 -10   4   3   65.39   22.50
 -10   4   3   79.89   20.00
   4   6   3   82.49   31.00
   6 -10   3   66.59   23.80
   4 -10  -3   43.20   23.80
   6 -10   3   67.29   21.80
 -10   6  -3   73.29   32.90
   6   4  -3   46.20   19.70
   6 -10   3   85.09   28.60
  -6  10  -3   52.49   32.70
  -4  10   3   83.39   34.40
  10  -4  -3   25.80   19.10
  10  -6   3   71.99   31.10
  10  -4  -3   78.39   34.90
  -4  -6  -3   39.70   23.70
  -6  -4   3   78.49   26.60
  -4  -6  -3   72.99   24.10
  -4  10   3   45.80   24.50
  10  -4  -3   57.39    9.90
  -6  10  -3   90.69   21.40
  -6  -4   3  149.79   35.50
  -4  -6  -3   54.79   28.00
 -10   3   3  869.01   49.10
 -10   3   3  804.72   45.30
   3 -10  -3  882.91   52.99
 -10   7  -3  819.42   30.30
   3   7   3  809.72   60.09
   7 -10   3  805.92   59.09
   7   3  -3  887.11   35.70
   7   3  -3  919.61   66.39
   7 -10   3  833.42   48.70
   7 -10   3  834.02   45.90
 -10   7  -3  896.71   64.19
   7   3  -3  862.41   47.80
   3 -10  -3  875.41   50.49
  10  -7   3  872.41   38.90
  -7  10  -3  848.02   44.90
  10  -7   3  862.81   32.80
  10  -7   3  736.93   53.49
  -3  -7  -3  775.62   54.19
  -3  10   3  835.12   63.49
  -7  -3   3  837.22   53.89
  -7  10  -3  919.71   64.69
  -7  -3   3  849.22   49.10
  10  -3  -3  793.72   29.30
  -3  10   3  911.41   50.99
  10  -3  -3  798.42   44.40
  -3  -7  -3  844.92   49.50
  10  -3  -3  961.90   63.89
  -3  -7  -3  759.72   81.89
   8   2  -3  727.33   63.79
   2 -10  -3  800.22   55.49
   8   2  -3  771.42   46.20
 -10   8  -3  777.52   62.59
   8 -10   3  772.02   56.49
   8   2  -3  835.42   31.60
   2   8   3  706.53   57.29
   8 -10   3  736.03   45.90
   2   8   3  766.32   60.09
   2 -10  -3  728.53   50.29
   2 -10  -3  716.33   48.50
 -10   8  -3  771.02   31.10
 -10   2   3  744.13   47.50
 -10   2   3  771.82   44.20
  -8  10  -3  742.23   40.60
  -8  10  -3  764.22   62.39
  -8  -2   3  766.42   52.49
  10  -8   3  811.02   34.40
  10  -2  -3  706.23   43.20
  -2  -8  -3  633.24   52.89
  10  -2  -3  754.92   61.89
  -2  -8  -3  764.82   49.50
  -2  10   3  701.63   61.49
  10  -8   3  759.52   42.00
  -2  -8  -3  752.82   54.09
  10  -2  -3  704.53   26.60
  10  -8   3  757.22   51.19
  -8  -2   3  751.42   45.70
  -2  10   3  753.02   49.80
   9   1  -3  116.59   16.10
 -10   9  -3  127.39   40.20
   1   9   3   88.09   34.20
   1 -10  -3   58.89   28.80
   9   1  -3   65.59   32.80
   9 -10   3   61.99   25.70
 -10   1   3   69.59   24.40
   1   9   3   93.19   34.70
   9 -10   3  112.39   29.40
   1 -10  -3   52.89   29.90
   9 -10   3  136.39   25.00
   1 -10  -3   66.09   28.50
   9   1  -3   72.59   20.60
 -10   1   3   93.59   24.60
  10  -9   3   67.29   28.20
  -1  -9  -3   49.20   26.90
  -9  -1   3   79.39   25.30
  10  -1  -3   81.49   36.20
  -9  10  -3   63.89   34.20
  10  -1  -3   81.19   20.70
  10  -1  -3  103.49   13.70
  10  -9   3  140.49   36.30
  -1  -9  -3   64.79   27.50
  -1  10   3   85.69   32.00
  -9  -1   3   75.79   23.60
  -1  10   3   55.59   32.40
  -9  10  -3  105.99   26.80
  -1  -9  -3   25.50   31.70
  10   0  -3  170.98   16.30
 -10   0   3  175.58   29.90
   0 -10  -3  107.49   30.90
   0  10   3  105.09   35.40
  10 -10   3  135.69   29.90
 -10  10  -3  131.49   41.50
   0 -10  -3   78.69   32.70
 -10   0   3  208.28   42.90
 -10  10  -3  160.68   25.20
  10   0  -3  108.09   36.90
  10   0  -3  151.68   31.80
   0 -10  -3   96.19   30.10
  10 -10   3  226.68   32.20
   0  10   3  125.29   37.40
  10 -10   3  170.28   42.90
   0 -11   3   89.29   35.90
  11   0   3  116.19   45.60
 -11   0  -3  152.48   40.70
   0  11  -3  206.48   46.00
  11   0   3  191.38   30.20
 -11  11   3  144.09   36.30
  11 -11  -3  160.78   37.20
  11   0   3  158.78   19.90
 -11  11   3  121.79   35.40
   0 -11   3  121.89   35.80
  11 -11  -3  146.39   29.20
   0  11  -3  157.58   41.70
 -11   0  -3  107.09   22.30
   1  10  -3  716.53   43.90
   1  10  -3  788.22   56.89
  10   1   3  687.53   70.49
   1  10  -3  777.82   69.09
   1 -11   3  640.54   44.70
  10 -11  -3  713.53   57.39
 -11   1  -3  740.83   70.49
  10   1   3  752.52   33.60
 -11   1  -3  700.73   30.30
   1 -11   3  737.23   64.89
  10 -11  -3  695.83   49.50
 -11  10   3  720.23   61.79
  10   1   3  888.61   48.30
 -11  10   3  770.02   45.60
   1 -11   3  742.83   57.69
  11  -1   3  696.13   36.70
  -1 -10   3  732.13   64.09
  11 -10  -3  692.73   36.90
 -10  11   3  806.52   46.10
  -1  11  -3  782.42   55.39
  11 -10  -3  762.62   60.59
  -1 -10   3  739.13   56.29
  11 -10  -3  757.12   46.80
 -10  -1  -3  699.93   36.70
  11  -1   3  768.02   30.00
 -10  -1  -3  822.32   68.29
 -10  11   3  784.32   64.79
  11  -1   3  663.83   61.59
  -1  11  -3  709.73   66.79
   2 -11   3  349.87   48.20
 -11   9   3  351.06   35.70
   2   9  -3  261.67   33.80
   2 -11   3  354.06   57.29
   9 -11  -3  335.17   43.20
   2   9  -3  282.47   59.09
 -11   2  -3  261.17   58.49
   9   2   3  362.96   59.59
   2   9  -3  389.06   45.10
   9 -11  -3  306.67   49.99
   2 -11   3  321.77   32.00
 -11   9   3  314.87   53.69
  11  -9  -3  318.97   26.20
  11  -9  -3  283.47   52.49
  -2  11  -3  264.67   57.09
  11  -9  -3  325.37   37.50
  -2  11  -3  388.56   45.50
  -9  -2  -3  349.17   56.09
  -9  11   3  297.37   54.19
  -2  -9   3  359.46   57.59
  -2  -9   3  426.26   50.19
  11  -2   3  287.37   47.50
  -9  -2  -3  324.07   30.60
  -9  11   3  347.07   36.00
   3 -11   3 1051.79   46.60
   3 -11   3  915.21   57.69
   8   3   3  915.11   61.89
   8   3   3  888.91   68.19
   3   8  -3  956.90   57.29
   8 -11  -3 1008.10   56.09
   3   8  -3 1037.10   47.30
 -11   8   3  946.41   50.59
   3 -11   3  869.71   65.29
   8 -11  -3 1087.19   63.59
 -11   3  -3 1104.49   72.09
   3   8  -3 1103.29   73.09
  11  -8  -3 1036.10   50.39
  -3  -8   3  930.11   58.19
  -8  11   3  944.31   65.89
  -8  11   3 1003.40   51.89
  -8  -3  -3 1094.29   65.29
  11  -8  -3 1050.69   67.59
  11  -3   3  931.41   68.29
  11  -8  -3  956.70   40.30
  -8  11   3 1072.19   50.49
  -3  11  -3  954.80   56.89
  -3  -8   3  959.70   65.09
  -3  11  -3 1095.89   72.69
   4   7  -3 2495.35   82.59
   4   7  -3 2282.27   89.29
   7   4   3 2376.46   95.09
   7 -11  -3 2422.06   93.59
   4 -11   3 2412.06   82.89
   4 -11   3 2435.46   91.39
   4 -11   3 2341.07   97.69
 -11   7   3 2320.97   85.09
 -11   4  -3 2495.15  102.69
   4   7  -3 2390.26  102.29
   7 -11  -3 2353.26   89.39
   7   4   3 2312.77  102.29
  -7  11   3 2432.56   86.79
  -7  -4  -3 2375.86   84.69
  -7  11   3 2371.56   87.09
  -4  11  -3 2316.97   89.69
  11  -4   3 2319.57   99.29
  -7  -4  -3 2389.46   95.69
  11  -7  -3 2383.26   84.49
  -7  11   3 2383.46  100.29
  11  -7  -3 2319.87   75.79
  -4  -7   3 2206.88   88.99
  11  -7  -3 2343.37   84.59
  -7  -4  -3 2234.58   87.99
  -4  -7   3 2241.38   95.29
  11  -7  -3 2332.47  100.39
  -4  11  -3 2337.97  100.99
   6 -11  -3  108.19   31.40
   5   6  -3   95.59   21.20
   6   5   3   71.59   33.90
   6 -11  -3  111.59   27.10
   5 -11   3  122.39   34.20
   5   6  -3  133.19   39.40
 -11   6   3  126.49   31.20
 -11   5  -3  132.79   40.40
   6   5   3  181.98   42.90
   5   6  -3  116.89   24.00
   5 -11   3  124.69   30.80
   5 -11   3  118.69   29.00
  -6  -5  -3   95.79   25.70
  -5  -6   3  191.48   43.00
  -5  11  -3  114.39   36.30
  11  -6  -3  165.58   31.70
  -5  -6   3  187.88   47.70
  11  -6  -3   61.49   33.50
  11  -6  -3   70.79   18.70
  -6  11   3   79.29   33.10
  -6  -5  -3  105.09   25.00
  -6  11   3   93.09   20.40
  11  -6  -3   87.29   17.40
  -5  11  -3   99.89   24.10
  11  -5   3   90.99   35.00
  -6  11   3  103.39   26.40
  -6  -5  -3   94.69   31.90
   5   6   3 1537.15   81.29
   5   6   3 1517.25   79.99
 -11   6  -3 1575.54   81.39
   6 -11   3 1603.14   80.79
   6   5  -3 1611.84   69.39
   6   5  -3 1353.26   56.69
   5 -11  -3 1569.44   69.49
 -11   5   3 1546.15   64.39
   5 -11  -3 1484.75   69.59
   6 -11   3 1605.74   62.99
   6   5  -3 1523.55   83.69
  -5  11   3 1588.34   63.79
  -6  -5   3 1594.94   69.89
  -5  -6  -3 1434.26   70.39
  -6  -5   3 1536.95   75.99
  -5  11   3 1493.85   66.49
  11  -5  -3 1435.36   50.19
  11  -5  -3 1529.45   79.59
  -6  11  -3 1487.45   65.49
  11  -5  -3 1506.05   62.39
  11  -6   3 1468.95   74.59
  -5  -6  -3 1485.75   70.09
  -6  11  -3 1509.45   82.89
  -5  11   3 1504.15   81.99
 -11   4   3 1274.07   60.19
   7 -11   3 1350.46   63.39
   4 -11  -3 1304.57   64.79
   7 -11   3 1376.76   59.09
   4   7   3 1271.67   75.09
 -11   7  -3 1370.16   75.49
   7   4  -3 1379.26   61.79
   7   4  -3 1396.16   52.99
   7   4  -3 1329.67   79.39
   7 -11   3 1358.86   74.79
 -11   4   3 1283.87   57.29
   4 -11  -3 1356.96   64.39
   4   7   3 1310.67   77.79
  -7  11  -3 1302.97   66.49
  11  -4  -3 1306.37   57.09
  -7  -4   3 1303.77   64.59
  -4  -7  -3 1311.87   66.79
  -4  11   3 1369.06   76.09
  -4  -7  -3 1240.18   65.79
  -4  -7  -3 1424.76   62.89
  -7  -4   3 1411.16   69.69
  11  -7   3 1290.17   69.69
  -4  11   3 1336.57   65.49
  11  -4  -3 1221.78   44.20
  11  -4  -3 1310.17   76.89
  -7  11  -3 1351.76   77.39
   8   3  -3  151.38   36.90
 -11   3   3  144.49   35.90
   3 -11  -3  115.29   31.20
   3 -11  -3   73.69   25.90
   8 -11   3  149.29   29.90
 -11   8  -3  119.79   38.00
   3 -11  -3  101.59   27.00
   3   8   3  152.98   39.20
 -11   8  -3  146.09   14.10
   8   3  -3   96.19   36.60
   8 -11   3  151.98   33.30
 -11   3   3  176.08   27.60
   3   8   3  202.78   50.59
   8 -11   3  157.68   35.30
  11  -3  -3   79.09   35.60
  -8  -3   3  228.58   44.70
  11  -3  -3  116.59   14.90
  -3  11   3  173.48   41.00
  11  -8   3  116.99   33.50
  -3  -8  -3  136.99   30.60
  -8  11  -3  178.58   33.10
  -8  -3   3  227.98   38.60
  -3  11   3  118.19   35.70
  -8  11  -3  122.19   37.60
  -3  -8  -3  128.59   30.80
  11  -3  -3  101.29   20.50
   2 -11  -3  217.48   46.40
 -11   2   3  229.58   35.00
   9 -11   3  228.58   36.50
   9 -11   3  229.48   49.40
 -11   9  -3  223.98   20.00
   9   2  -3  228.08   36.30
   9 -11   3  240.58   38.90
   2 -11  -3  153.28   41.70
   2   9   3  218.78   40.10
   2 -11  -3  175.68   42.60
   2   9   3  218.38   41.80
 -11   2   3  242.18   40.40
 -11   9  -3  256.27   58.49
   9   2  -3  219.08   54.59
  -9  11  -3  266.77   33.70
  11  -2  -3  237.58   17.90
  11  -9   3  204.28   41.10
  -9  -2   3  255.17   38.90
  -2  -9  -3  181.18   45.80
  -9  -2   3  277.97   47.40
  -2  11   3  256.27   44.40
  -9  11  -3  277.47   57.39
  -2  11   3  237.38   43.20
  11  -9   3  295.37   33.80
  -2  -9  -3  190.88   43.40
  -2  -9  -3  205.28   42.70
  11  -2  -3  164.98   39.10
  11  -2  -3  226.88   32.50
  10   1  -3  138.99   21.30
  10 -11   3  154.18   33.30
   1  10   3  102.99   39.60
  10 -11   3  190.48   37.20
 -11  10  -3  165.58   42.60
  10   1  -3  107.39   38.00
  10   1  -3  105.29   23.20
 -11  10  -3  125.49   23.20
   1 -11  -3  140.79   34.00
 -11   1   3  152.68   36.50
   1 -11  -3  142.99   32.20
   1  10   3  226.38   51.99
  10 -11   3  108.19   27.90
 -11   1   3  150.28   29.90
   1 -11  -3  108.39   34.70
 -10  11  -3  133.99   28.80
  -1  11   3   56.09   35.80
  -1  11   3  114.79   33.90
 -10  -1   3  180.88   39.30
  11  -1  -3  105.79   40.50
 -10  -1   3  142.69   30.90
 -10  11  -3  102.79   39.00
  -1 -10  -3  115.49   32.00
  -1 -10  -3  125.09   36.20
  11 -10   3  160.38   34.60
  11  -1  -3  133.79   17.70
  -1 -10  -3  101.39   31.90
  11  -1  -3  127.59   24.50
 -11   0   3   74.99   26.60
   0  11   3   72.59   35.10
 -11   0   3   67.99   25.70
  11 -11   3   62.49   30.40
 -11  11  -3   76.39   42.10
 -11  11  -3  101.29   26.60
   0 -11  -3   32.60   32.50
  11   0  -3  111.89   21.60
  11   0  -3   19.30   36.50
  11   0  -3  108.89   30.80
  11 -11   3  196.48   47.30
   0  11   3  100.09   47.20
   0 -11  -3   43.60   32.00
   0 -11  -3   71.79   30.80
   0  12  -3   57.09   30.30
   0 -12   3   15.20   33.30
   0  12  -3   43.90   42.80
  12 -12  -3   50.89   27.50
 -12  12   3   51.59   34.30
   0  12  -3   48.80   26.20
 -12  12   3   54.19   22.10
   0 -12   3   23.80   32.70
  12   0   3   56.29   12.90
 -12   0  -3   80.89   41.30
  12 -12  -3   68.09   20.60
  12   0   3    6.20   46.00
 -12   0  -3   54.09   16.70
  12 -12  -3   42.20   33.60
  11 -12  -3  136.29   32.70
 -12   1  -3  111.99   18.00
   1 -12   3  179.88   38.30
  11   1   3  109.39   50.29
 -12  11   3  135.39   39.10
   1  11  -3  119.89   43.80
  11 -12  -3  114.09   36.80
   1 -12   3  180.88   40.80
   1  11  -3  218.28   46.70
 -12   1  -3  124.79   41.30
 -12  11   3  191.28   35.40
   1  11  -3   70.09   30.00
  12 -11  -3  180.28   39.00
 -11  12   3  182.58   35.20
  -1 -11   3  220.68   41.20
  12  -1   3  182.68   17.60
  -1 -11   3  140.89   38.20
 -11  12   3  154.78   40.30
  12  -1   3  141.29   48.40
 -11  -1  -3  162.68   27.10
 -11  -1  -3  104.19   41.30
  12 -11  -3  113.79   38.00
  -1  12  -3  101.89   40.70
  10   2   3  329.57   52.69
   2  10  -3  325.57   47.00
  10 -12  -3  328.87   43.20
   2 -12   3  260.07   51.79
  10 -12  -3  346.57   56.69
   2 -12   3  248.08   59.49
 -12  10   3  352.46   39.30
   2  10  -3  355.16   64.99
 -12  10   3  293.87   56.59
 -12   2  -3  342.57   62.59
   2 -12   3  357.76   32.70
   2  10  -3  361.16   38.30
  10   2   3  441.46   44.90
 -10  12   3  339.77   37.30
 -10  -2  -3  319.37   31.90
 -10  12   3  279.97   56.09
  -2  12  -3  391.36   62.29
  12  -2   3  239.98   51.79
  -2  12  -3  354.56   48.70
  12 -10  -3  328.77   29.00
  12 -10  -3  321.67   54.19
  -2 -10   3  262.27   58.09
 -10  12   3  298.37   37.50
 -10  -2  -3  466.85   64.49
  12 -10  -3  344.37   41.40
  -2 -10   3  300.77   51.29
   3 -12   3 1206.38   78.89
   9   3   3 1203.18   78.49
   3   9  -3 1286.97   66.29
 -12   3  -3 1252.67   77.99
   3 -12   3 1233.68   53.69
   9   3   3 1378.06   68.19
 -12   9   3 1265.67   69.79
 -12   9   3 1299.57   58.49
   9 -12  -3 1207.58   63.59
   3   9  -3 1270.67   56.09
   9 -12  -3 1305.07   67.59
   3   9  -3 1198.38   77.59
   3 -12   3 1186.18   68.39
  12  -9  -3 1221.98   73.19
  12  -9  -3 1212.18   48.80
  -9  -3  -3 1149.89   59.29
  12  -9  -3 1239.38   59.39
  -3  12  -3 1269.47   65.79
  -9  12   3 1322.27   77.49
  -9  -3  -3 1137.89   63.09
  -9  12   3 1333.37   59.19
  -3  12  -3 1213.08   76.29
  -9  12   3 1219.08   58.99
  -3  -9   3 1282.47   68.09
  -3  -9   3 1220.68   74.29
  12  -3   3 1212.68   78.19
  -9  -3  -3 1307.17   73.39
   4 -12   3  252.47   30.90
   4   8  -3  239.08   35.50
   8 -12  -3  233.48   46.80
   4 -12   3  251.67   49.50
   4   8  -3  271.27   42.60
 -12   4  -3  240.18   60.69
   4   8  -3  242.18   59.29
   8   4   3  180.78   44.70
   8   4   3  351.66   53.99
   8 -12  -3  248.38   44.40
   4 -12   3  251.27   60.49
 -12   8   3  283.37   34.80
  -4  12  -3  303.27   60.99
  -8  -4  -3  271.67   54.49
  -8  -4  -3  236.28   40.70
  12  -8  -3  224.18   52.89
  -8  12   3  208.18   37.00
  12  -8  -3  261.57   24.80
  12  -4   3  328.77   56.19
  -8  -4  -3  266.87   36.20
  -4  -8   3  267.07   49.70
  12  -8  -3  260.87   36.80
  -8  12   3  238.68   59.99
  -8  12   3  277.47   35.80
  -4  -8   3  322.37   55.59
  -4  12  -3  268.77   45.00
 -12   5  -3  970.50   71.59
   5   7  -3  956.00   55.19
   7   5   3  838.72   63.49
   5 -12   3  914.31   71.59
   5 -12   3  919.11   58.89
   7   5   3  997.40   81.89
   5 -12   3  951.10   46.80
   5   7  -3  932.51   48.00
 -12   7   3  918.91   49.70
   7 -12  -3  952.80   58.09
   5   7  -3  956.10   72.79
  -5  12  -3  941.21   71.79
  -7  -5  -3  948.01   50.59
  12  -7  -3  876.91   47.60
  12  -5   3  874.11   65.89
  12  -7  -3  975.40   71.09
  -7  12   3  801.52   68.89
  -7  -5  -3 1029.40   62.89
  12  -7  -3  831.52   37.50
  -7  -5  -3  895.81   54.79
  -7  12   3  931.51   54.49
  -5  -7   3  904.71   60.39
  -5  12  -3  828.02   77.59
  -7  12   3  905.11   49.10
  -5  -7   3  927.61   63.79
  12  -7  -3  888.41   47.30
   6   6  -3 1233.68   57.49
 -12   6   3 1326.47   59.79
   6 -12  -3 1368.66   66.39
   6 -12   3 1347.37   68.19
   6   6   3 1353.36   77.59
   6 -12   3 1311.87   57.39
   6   6  -3 1377.66   64.19
 -12   6  -3 1376.06   80.79
   6 -12  -3 1324.37   66.49
   6   6  -3 1300.67   80.49
   6   6   3 1389.16   76.89
  -6  -6  -3 1444.36   71.89
  -6  12  -3 1341.17   82.19
  -6  -6  -3 1313.07   67.69
  -6  -6   3 1357.36   68.19
  -6  -6  -3 1294.57   61.09
  12  -6   3 1292.77   72.99
  12  -6  -3 1282.27   77.79
  -6  12   3 1347.87   60.69
  12  -6  -3 1377.36   59.19
  -6  12   3 1341.17   81.19
  -6  12  -3 1338.07   65.19
  12  -6  -3 1279.57   47.50
  -6  -6   3 1399.36   74.89
  -6  12   3 1252.97   62.99
 -12   5   3   -0.90   21.60
   5 -12  -3   16.20   26.40
   7   5  -3   39.30   25.20
   7 -12   3   10.10   34.20
   7 -12   3   27.20   23.40
   7   5  -3    7.90   35.20
 -12   5   3   38.90   21.20
   5   7   3   39.80   35.20
 -12   7  -3   42.50   39.70
   7 -12   3   13.10   28.50
   5 -12  -3   32.20   27.40
   5   7   3  -31.00   36.70
   7   5  -3   26.50   21.20
  -5  12   3   14.10   26.50
  -5  -7  -3   13.20   24.70
  -7  12  -3   73.49   40.60
  12  -5  -3   -4.40   18.00
  -7  12  -3   39.70   22.50
  12  -5  -3   12.50   11.40
  -5  12   3   13.90   33.00
  -5  -7  -3    0.70   29.70
  -7  -5   3   36.50   30.00
  12  -5  -3   21.80   37.20
  12  -7   3   23.70   35.10
  -7  -5   3   63.59   33.70
   4 -12  -3  843.42   59.39
   8   4  -3  956.80   44.50
   4 -12  -3  800.12   50.49
 -12   4   3  796.72   51.09
   4 -12  -3  816.62   54.19
 -12   4   3  729.33   47.60
   4   8   3  692.93   66.89
   8 -12   3  764.92   53.99
   8 -12   3  815.82   67.79
   8   4  -3  824.72   52.19
 -12   8  -3  891.01   68.09
   8 -12   3  893.01   49.20
   8   4  -3  844.72   68.89
  -8  -4   3  837.82   54.99
  -8  12  -3  940.51   72.99
  12  -4  -3  838.22   67.79
  12  -4  -3  787.82   46.70
  -4  -8  -3  790.42   53.19
  -8  -4   3  794.42   62.69
  -4  12   3  897.11   56.59
  -4  -8  -3  810.12   60.29
  -4  12   3  784.42   71.29
  -8  12  -3  789.22   48.80
  12  -8   3  790.02   60.09
  12  -4  -3  749.53   33.10
  -4  -8  -3  710.93   56.59
   9   3  -3  678.53   37.10
 -12   3   3  568.24   46.80
   9   3  -3  533.65   61.79
   3 -12  -3  563.44   56.99
   9 -12   3  561.94   62.89
   9 -12   3  577.94   44.70
   3   9   3  505.45   68.89
   3   9   3  547.15   59.09
   3 -12  -3  477.25   51.69
 -12   3   3  606.84   43.00
   9   3  -3  633.54   46.50
   3 -12  -3  515.55   46.40
   9 -12   3  601.24   48.00
 -12   9  -3  642.14   66.69
  -3  12   3  626.44   52.09
  -3  -9  -3  544.75   47.80
  -9  12  -3  617.24   66.99
  12  -9   3  515.55   51.19
  -3  12   3  513.05   67.29
  12  -3  -3  578.74   63.89
  12  -3  -3  559.74   28.30
  -9  12  -3  545.35   42.10
  12  -3  -3  575.54   40.60
  -9  -3   3  605.34   52.39
  -3  -9  -3  524.15   55.89
  -9  -3   3  613.74   55.69
  10   2  -3  105.29   42.60
 -12  10  -3  144.99   19.90
  10   2  -3  143.69   38.40
   2  10   3  158.48   46.30
 -12  10  -3  160.48   43.80
  10 -12   3  133.79   32.60
   2 -12  -3   80.19   29.10
  10   2  -3  187.98   29.00
   2 -12  -3   94.69   28.40
  10 -12   3  203.98   52.99
 -12   2   3  123.49   28.30
   2  10   3   88.59   41.90
   2 -12  -3  107.79   32.10
 -12   2   3  141.09   29.50
  -2  12   3  121.39   38.70
  12  -2  -3  133.79   43.30
 -10  12  -3  137.69   33.30
  -2  12   3  112.59   35.70
  12 -10   3  121.89   35.60
  12  -2  -3  159.58   20.40
  -2 -10  -3  144.89   32.90
  12 -10   3  194.68   30.70
  -2 -10  -3  127.89   35.30
  12  -2  -3  120.59   31.70
 -10  -2   3  201.18   40.80
 -10  12  -3  109.19   38.70
 -10  -2   3  195.98   49.90
 -12  11  -3   73.79   43.30
  11   1  -3   79.59   25.80
 -12   1   3   67.29   26.30
   1  11   3  102.69   39.60
   1 -12  -3   22.60   29.80
  11 -12   3  102.69   26.60
  11 -12   3   67.89   30.60
   1 -12  -3   50.29   28.50
  11   1  -3   52.49   40.90
   1  11   3   68.79   41.80
 -12  11  -3   62.29   15.40
   1 -12  -3   19.60   28.80
 -12   1   3   61.09   26.00
  -1 -11  -3   50.89   32.60
  -1  12   3  107.79   38.00
  12 -11   3   68.89   30.60
  -1 -11  -3   49.90   28.60
 -11  12  -3   69.39   43.70
 -11  -1   3   60.89   29.70
 -11  12  -3   67.79   20.20
 -11  -1   3   97.09   30.00
  12  -1  -3   82.89   42.40
  12  -1  -3   66.89   22.30
  -1 -11  -3   25.70   32.40
  -1  12   3   29.30   38.70
  12  -1  -3   84.39   21.20
 -12   0   3  110.19   31.20
   0 -12  -3   41.20   33.60
   0  12   3   70.69   40.90
   0  12   3  -18.30   42.00
   0 -12  -3   50.79   30.00
  12   0  -3   69.99   18.10
 -12   0   3   59.09   28.50
 -12  12  -3   52.49   17.60
  12 -12   3   63.99   31.30
   0 -12  -3   12.40   30.30
 -12  12  -3  122.19   45.20
  12   0  -3   49.50   21.70
  12   0  -3   58.99   39.10
 -13   0  -3  107.09   25.00
  13 -13  -3  108.79   23.40
   0 -13   3   69.49   38.30
  13 -13  -3  122.59   37.40
   0  13  -3  119.79   31.00
  13 -13  -3   84.49   29.10
 -13   0  -3  259.67   63.29
  13   0   3  139.69   20.60
   0 -13   3  113.69   38.20
 -13  13   3  148.49   38.50
 -13  13   3   77.39   36.90
  13   0   3  106.79   51.49
   0  13  -3  135.49   33.70
   0  13  -3   78.19   44.90
   1  12  -3  178.08   36.10
   1 -13   3  166.58   41.50
 -13   1  -3  182.08   44.40
   1  12  -3  126.59   30.20
   1 -13   3  112.09   43.90
  12 -13  -3  128.79   36.50
 -13  12   3  137.99   37.50
  12   1   3   53.89   48.20
 -13  12   3  171.68   36.30
   1  12  -3  140.29   46.40
  12 -13  -3  180.08   42.80
  13 -12  -3  168.38   41.20
  -1 -12   3   92.59   35.60
  -1 -12   3  126.19   38.80
  13  -1   3  128.89   52.29
  13 -12  -3  129.79   36.80
  13 -12  -3  146.79   29.40
 -12  -1  -3  155.98   44.40
 -12  -1  -3  135.59   28.60
  -1  13  -3  167.08   33.10
  -1  13  -3  131.99   44.80
 -12  13   3  147.59   38.30
 -12  13   3  139.29   37.80
   2  11  -3  232.68   38.40
   2 -13   3  221.18   33.90
 -13   2  -3  290.77   62.39
   2  11  -3  224.88   61.89
  11 -13  -3  231.18   48.60
  11   2   3  165.18   47.20
  11 -13  -3  218.68   43.80
   2 -13   3  179.08   42.00
   2 -13   3  216.48   41.00
   2  11  -3  249.08   50.09
 -13  11   3  165.98   36.30
 -13  11   3  250.17   39.70
 -11  -2  -3  250.37   32.10
 -11  13   3  250.27   38.00
  13 -11  -3  207.48   35.20
  -2  13  -3  233.38   62.89
 -11  -2  -3  280.97   65.59
  13  -2   3  209.58   50.39
  -2 -11   3  244.78   43.80
  13 -11  -3  212.18   39.60
 -11  13   3  236.98   46.20
  -2  13  -3  306.17   52.89
  -2 -11   3  154.38   39.50
  13 -11  -3  204.48   53.29
   3  10  -3  112.89   27.60
   3 -13   3  160.88   31.50
   3  10  -3  152.28   43.90
   3 -13   3  128.89   40.70
  10 -13  -3  154.88   37.40
  10   3   3  217.08   55.89
   3  10  -3  129.69   31.50
 -13  10   3  141.49   36.40
 -13   3  -3   99.39   38.90
   3 -13   3  133.09   37.30
  10 -13  -3  187.48   42.50
 -13  10   3  143.89   34.90
  -3  13  -3  152.48   34.00
  -3 -10   3   96.89   36.90
 -10  13   3  124.19   41.10
  13  -3   3   59.79   41.90
 -10  13   3  111.49   28.90
  13 -10  -3  118.59   26.40
 -10  -3  -3  143.39   28.00
  13 -10  -3  134.39   40.10
 -10  -3  -3  158.08   43.90
 -10  13   3  155.88   36.00
  -3  13  -3  155.08   43.90
  13 -10  -3  155.68   37.20
  -3 -10   3  160.38   40.10
 -10  -3  -3  161.98   33.30
   9   4   3  468.35   53.79
   9 -13  -3  370.46   48.80
   4   9  -3  386.76   49.80
 -13   4  -3  387.86   61.39
   4 -13   3  273.67   65.79
   4   9  -3  376.86   40.90
   9 -13  -3  372.46   46.60
   4 -13   3  393.96   34.50
   4   9  -3  387.06   65.79
 -13   9   3  382.36   38.90
   9   4   3  267.47   56.69
   4 -13   3  305.87   54.09
  -4  -9   3  341.47   63.39
  -4  -9   3  485.45   54.19
  -9  13   3  351.86   42.00
  13  -9  -3  339.67   57.89
  -4  13  -3  418.46   65.69
  13  -4   3  265.17   59.09
  -4  13  -3  353.16   51.49
  13  -9  -3  342.17   38.40
  -9  -4  -3  341.47   38.90
  -9  13   3  327.57   63.29
  -9  13   3  348.67   39.00
  -9  -4  -3  455.45   58.39
  13  -9  -3  339.67   29.10
  -9  -4  -3  350.46   44.50
   5   8  -3  870.51   55.99
   8 -13  -3  830.42   56.69
 -13   5  -3  830.62   72.49
   5 -13   3  922.11   74.29
 -13   8   3  865.11   50.09
   8   5   3  943.61   66.49
   5   8  -3  807.82   72.99
   8 -13  -3  854.61   55.49
   5 -13   3  834.82   45.30
   8   5   3  766.52   66.49
   5 -13   3  809.92   60.89
  -8  13   3  858.81   75.49
  -8  -5  -3  859.01   50.99
  -8  -5  -3  947.41   65.59
  -5  -8   3  900.41   71.39
  -8  13   3  845.32   49.00
  13  -8  -3  820.52   47.10
  13  -8  -3  881.91   48.10
  -5  13  -3  888.91   59.09
  -8  13   3  828.42   53.09
  -5  -8   3  852.21   60.09
  -5  13  -3  899.31   73.89
  13  -8  -3  681.83   50.09
  -8  -5  -3  845.72   57.09
  13  -8  -3  831.42   66.09
  13  -5   3  772.32   67.39
   6   7  -3   43.00   25.90
   7 -13  -3   27.50   27.70
   7 -13  -3   40.00   30.30
 -13   6  -3   30.70   39.70
   6 -13   3   24.30   32.40
   7   6   3  -13.40   36.50
   6 -13   3   60.39   23.50
   6   7  -3   51.09   40.90
 -13   7   3   74.99   23.10
   6   7  -3    0.60   23.20
   6 -13   3   54.49   37.70
  -7  -6  -3   37.50   26.00
  13  -7  -3   47.50   14.50
  -6  13  -3   63.69   28.30
  -6  -7   3   68.29   31.80
  -7  13   3   29.60   37.60
  -7  -6  -3   75.49   29.60
  -7  13   3   46.20   20.70
  -6  13  -3   66.99   40.50
  -6  -7   3   60.09   32.20
  -7  13   3   47.50   28.90
  -7  -6  -3   91.59   35.10
  13  -6   3   25.10   36.60
  13  -7  -3   42.50   37.20
  13  -7  -3   59.79   20.90
   7   6  -3  940.61   72.89
   7   6  -3  910.41   56.19
 -13   7  -3 1018.90   76.89
   7 -13   3  898.81   61.49
 -13   6   3  900.31   52.39
 -13   6   3  872.31   50.79
   6 -13  -3  908.51   58.49
   7 -13   3  933.61   49.50
   6 -13  -3 1043.10   56.59
   7 -13   3  915.11   75.49
   7   6  -3  781.52   50.39
   6   7   3  989.60   73.89
   6   7   3  938.11   71.49
  13  -6  -3  903.31   49.80
  -7  13  -3 1079.09   79.59
  -6  -7  -3  935.51   56.29
  13  -6  -3  923.51   70.19
  -6  -7  -3  878.91   62.59
  13  -6  -3  834.92   38.10
  -7  -6   3  904.31   66.39
  -6  -7  -3 1036.50   62.69
  -6  13   3  829.12   75.49
  -6  13   3  946.51   56.49
  -7  13  -3  890.21   57.69
  13  -7   3  916.31   68.29
  -7  -6   3  932.91   59.79
 -13   5   3  738.73   49.00
   5   8   3  723.43   70.59
   8 -13   3  696.93   53.99
 -13   5   3  657.83   46.20
 -13   8  -3  786.72   76.19
   8   5  -3  682.43   65.79
   5 -13  -3  740.83   50.49
   8   5  -3  690.53   51.89
   5   8   3  793.92   69.39
   5 -13  -3  738.83   53.79
   8 -13   3  791.72   69.09
   8 -13   3  706.23   46.80
  -5  -8  -3  689.63   56.39
  -8  -5   3  771.02   65.79
  13  -5  -3  716.43   65.29
  -5  13   3  654.53   68.09
  -8  13  -3  822.22   72.39
  -8  13  -3  722.93   51.49
  13  -5  -3  675.73   33.60
  13  -8   3  630.34   59.29
  -5  -8  -3  693.43   52.69
  -5  13   3  776.12   55.39
  13  -5  -3  693.93   45.00
  -8  -5   3  683.83   55.89
  -5  -8  -3  687.23   59.59
   9 -13   3  260.77   62.49
   9   4  -3  263.47   35.90
   4 -13  -3  227.58   50.29
   4 -13  -3  227.48   39.80
   4 -13  -3  195.08   37.90
   9   4  -3  242.88   59.29
   9 -13   3  242.18   37.80
 -13   4   3  217.18   39.80
 -13   9  -3  268.27   63.99
 -13   4   3  212.08   40.30
   9   4  -3  248.18   41.30
   4   9   3  259.37   60.49
   4   9   3  247.78   45.50
  13  -4  -3  212.38   56.99
  -9  13  -3  313.97   64.09
  13  -4  -3  208.68   24.10
  -4  13   3  204.98   48.00
  -4  13   3  204.58   46.30
  -4  -9  -3  145.39   34.40
  13  -4  -3  203.08   34.50
  13  -9   3  201.18   49.00
  -4  -9  -3  210.88   45.80
  -9  13  -3  251.37   41.70
  -9  -4   3  296.27   54.59
  -9  -4   3  289.67   47.40
  10 -13   3  112.39   29.40
   3  10   3   90.99   42.40
 -13   3   3  170.98   31.10
  10   3  -3  114.19   44.20
   3  10   3  122.79   43.60
   3 -13  -3  129.69   34.10
   3 -13  -3  136.89   36.30
  10 -13   3  207.38   43.20
   3 -13  -3   95.59   37.10
 -13  10  -3  167.88   44.70
 -13   3   3  156.38   41.70
  10   3  -3  107.39   26.40
  13  -3  -3  151.48   24.00
 -10  13  -3  229.78   62.09
  -3  13   3  119.69   43.10
 -10  13  -3  145.39   40.30
  -3 -10  -3  127.29   33.70
 -10  -3   3   96.89   31.30
  13 -10   3  126.69   36.50
  -3 -10  -3  108.09   33.40
  -3 -10  -3   93.99   35.00
  -3  13   3  223.88   48.90
 -10  -3   3  211.28   49.70
  13  -3  -3  128.19   33.50
  13  -3  -3   88.79   41.70
 -13  11  -3  309.07   65.19
   2  11   3  227.98   51.49
  11 -13   3  247.98   40.80
  11   2  -3  191.18   44.70
   2 -13  -3  205.88   38.40
   2  11   3  228.58   48.10
 -13   2   3  270.67   44.50
 -13  11  -3  225.78   22.80
   2 -13  -3  215.98   41.40
 -13   2   3  262.77   43.70
  11   2  -3  210.58   39.60
   2 -13  -3  213.48   51.19
  -2 -11  -3  223.08   48.00
  13  -2  -3  197.68   35.00
 -11  13  -3  209.08   35.70
 -11  13  -3  298.77   64.09
  13 -11   3  213.18   42.00
 -11  -2   3  251.17   54.69
 -11  -2   3  309.77   46.30
  -2 -11  -3  255.57   54.89
  -2 -11  -3  205.38   41.00
  13  -2  -3  229.18   48.80
  -2  13   3  209.98   47.10
  13  -2  -3  238.28   25.50
  -2  13   3  218.18   51.49
  12   1  -3   48.40   24.80
  12 -13   3   54.19   33.30
 -13   1   3   87.59   31.30
   1 -13  -3   29.20   25.30
 -13  12  -3   47.00   42.80
  12   1  -3   61.19   41.40
   1  12   3   73.09   43.00
   1 -13  -3   29.50   31.70
   1 -13  -3   46.80   32.20
 -13   1   3   82.59   28.40
 -13  12  -3   68.89   16.70
   1  12   3   42.00   41.90
 -12  13  -3   56.99   44.90
  13 -12   3   68.29   31.80
  -1 -12  -3   10.90   32.20
 -12  -1   3   72.09   29.70
  -1 -12  -3   86.79   35.20
  13  -1  -3   51.19   21.80
 -12  13  -3   72.19   21.40
  -1  13   3   62.69   39.20
 -12  -1   3   96.99   31.20
  13  -1  -3   62.49   41.60
  -1  13   3   78.79   46.60
  -1 -12  -3   42.70   33.30
  13   0  -3   69.09   25.10
 -13   0   3   77.39   29.70
  13   0  -3   39.80   38.30
  13 -13   3   49.20   32.50
 -13  13  -3  137.79   44.90
   0  13   3   73.99   41.30
 -13   0   3   84.99   29.90
   0 -13  -3   51.59   36.40
   0  13   3   53.09   43.20
 -13  13  -3   44.80   18.40
   0 -13  -3   48.00   33.20
 -14   0  -3  686.13   69.19
   0 -14   3  531.65   70.09
 -14  14   3  660.73   47.20
 -14  14   3  609.24   68.39
   0  14  -3  577.64   49.10
  14   0   3  602.04   29.10
  14   0   3  543.75   72.89
   0  14  -3  611.84   59.29
  14 -14  -3  596.44   50.09
  14 -14  -3  630.74   58.59
   0 -14   3  473.65   58.99
  14 -14  -3  528.35   38.80
   0  14  -3  506.95   69.19
  13 -14  -3  105.29   34.80
   1 -14   3   49.40   36.40
 -14  13   3  129.19   26.80
  13   1   3    3.30   43.20
 -14  13   3  100.09   38.80
 -14   1  -3  192.38   45.90
  13   1   3   67.89   21.00
   1  13  -3  129.09   45.30
   1 -14   3  104.29   40.10
  13 -14  -3   78.49   30.00
  13 -14  -3  116.69   25.00
   1  13  -3  123.49   31.40
   1  13  -3   85.69   33.30
  -1 -13   3   48.90   38.20
  -1 -13   3  100.39   39.20
  14  -1   3   84.19   49.90
  14 -13  -3  179.18   41.10
 -13  -1  -3  142.29   29.70
  14 -13  -3  138.99   30.90
  -1  14  -3  128.19   46.90
 -13  14   3  139.29   36.10
  14 -13  -3   81.99   35.30
 -13  -1  -3  172.08   44.10
 -13  14   3   72.69   37.70
  -1  14  -3  111.79   30.40
  -1  14  -3   88.39   31.90
   2 -14   3   37.10   38.80
   2  12  -3   79.59   32.80
  12   2   3   80.99   50.39
 -14  12   3  106.79   24.60
 -14   2  -3  155.48   44.20
  12 -14  -3   62.49   29.80
   2  12  -3   91.29   43.60
   2  12  -3   71.09   29.90
   2 -14   3   27.60   38.20
  12 -14  -3   75.89   34.40
 -14  12   3   79.49   36.10
  14 -12  -3   74.29   22.60
  14 -12  -3   63.89   36.30
  -2  14  -3  104.39   44.00
 -12  -2  -3  116.39   23.80
  -2  14  -3   92.59   33.00
  14  -2   3   51.99   47.40
 -12  -2  -3   84.19   41.80
  14 -12  -3   85.59   29.60
  -2 -12   3   50.19   33.60
 -12  14   3  101.69   40.20
  -2 -12   3   31.80   36.50
 -12  14   3   69.59   22.60
  11 -14  -3  129.39   31.60
 -14  11   3  125.59   38.20
   3  11  -3  148.79   47.90
 -14   3  -3  245.98   62.59
   3 -14   3  129.39   26.80
   3 -14   3  111.79   39.60
  11 -14  -3  131.09   33.90
   3  11  -3  165.68   35.30
 -14  11   3  159.88   34.60
  11   3   3  149.39   51.39
   3 -14   3  129.79   45.00
   3  11  -3  135.49   31.20
  14 -11  -3  104.19   27.70
  -3 -11   3   83.79   39.90
  14 -11  -3  144.89   39.90
 -11  14   3  152.18   39.00
 -11  -3  -3  113.29   28.10
  14 -11  -3  132.79   29.40
 -11  -3  -3  165.98   36.20
 -11  14   3  137.29   45.40
  -3  14  -3  142.49   46.00
  -3  14  -3  142.29   36.10
  -3 -11   3   90.49   39.90
 -11  14   3  135.19   32.60
 -11  -3  -3  182.58   46.90
  14  -3   3   78.79   47.80
 -14   4  -3  468.85   65.19
   4 -14   3  312.17   54.69
   4 -14   3  339.47   69.19
   4  10  -3  355.96   44.00
 -14  10   3  274.87   56.89
  10   4   3  265.07   68.49
   4  10  -3  357.56   50.09
   4  10  -3  390.46   68.19
  10 -14  -3  398.96   51.29
  10 -14  -3  400.66   49.10
 -14  10   3  360.26   39.50
   4 -14   3  382.96   37.90
  14 -10  -3  369.26   32.40
  -4 -10   3  333.27   63.69
  14 -10  -3  333.47   59.09
  14 -10  -3  361.06   42.20
  -4  14  -3  397.86   65.69
  -4 -10   3  295.67   59.99
 -10  -4  -3  328.57   41.30
 -10  -4  -3  294.77   46.30
 -10  14   3  367.96   44.30
 -10  14   3  341.27   66.59
 -10  14   3  338.97   42.50
  -4  14  -3  340.87   55.09
  14  -4   3  308.77   63.09
   5 -14   3   36.40   39.90
 -14   5  -3   40.60   38.60
 -14   9   3   54.29   21.40
   5   9  -3   31.30   25.80
   5 -14   3   39.40   24.90
   5   9  -3   59.09   43.70
   9   5   3   -0.50   42.70
   5   9  -3    7.10   27.20
   9 -14  -3   33.70   29.30
   9 -14  -3   38.90   28.50
   5 -14   3   19.80   35.20
  -5  14  -3   52.49   30.70
  -9  -5  -3  101.79   38.20
  -5  14  -3   93.99   43.60
  -9  14   3   23.50   41.00
  -9  -5  -3   34.90   28.40
  -9  14   3   15.80   30.60
  14  -9  -3   60.19   17.90
  14  -9  -3   56.09   22.90
  -9  14   3   34.00   21.70
  14  -5   3  -17.70   39.10
  -5  -9   3   85.69   40.70
  14  -9  -3   19.10   35.70
   6   8  -3  381.36   46.70
   6 -14   3  374.76   56.49
   6 -14   3  453.85   70.29
   8   6   3  311.17   60.99
   6 -14   3  392.56   39.20
   6   8  -3  321.87   64.39
   8 -14  -3  328.17   52.99
   6   8  -3  263.87   42.90
   8   6   3  497.95   65.59
 -14   6  -3  419.66   65.59
   8 -14  -3  387.86   49.40
 -14   8   3  402.36   38.90
  14  -8  -3  334.77   28.50
  -6  -8   3  414.06   55.79
  -8  14   3  375.36   65.39
  14  -8  -3  318.17   61.79
  14  -6   3  328.87   59.49
  -6  14  -3  396.56   68.39
  -8  -6  -3  313.77   51.69
  -6  -8   3  412.46   64.39
  14  -8  -3  391.46   39.00
  -8  -6  -3  355.26   44.80
  -8  14   3  339.77   39.90
  -8  14   3  326.47   48.60
  -6  14  -3  403.76   52.99
 -14   7   3  512.65   43.60
   7 -14  -3  471.75   51.99
   7 -14  -3  485.25   44.70
   7 -14   3  569.94   66.69
   7   7   3  581.04   79.59
 -14   7  -3  409.86   66.29
 -14   7   3  425.26   42.80
   7   7  -3  508.45   49.00
   7   7  -3  457.75   62.39
   7 -14   3  500.25   42.80
   7   7   3  497.25   67.69
   7 -14   3  592.04   55.09
  -7  -7  -3  590.14   58.19
  -7  14   3  492.65   70.49
  14  -7   3  509.75   62.29
  -7  -7  -3  478.35   56.69
  14  -7  -3  447.66   63.99
  14  -7  -3  503.05   40.80
  -7  14   3  528.15   52.79
  14  -7  -3  470.15   30.60
  -7  14  -3  492.25   53.49
  -7  -7  -3  447.46   49.50
  -7  -7   3  534.35   61.49
  -7  14  -3  501.85   68.69
  -7  -7   3  559.34   60.19
 -14   8  -3   14.10   42.50
   8 -14   3   35.90   24.80
 -14   6   3   43.60   22.90
   6   8   3   69.79   39.40
   6   8   3  -19.70   45.50
   8   6  -3   25.10   27.40
   6 -14  -3   23.50   23.00
   8   6  -3   13.80   26.50
 -14   6   3   11.40   24.30
   8   6  -3   20.50   36.60
   8 -14   3   65.79   34.70
   6 -14  -3   30.10   33.20
   8 -14   3   56.79   39.70
  -8  14  -3   47.70   44.40
  14  -6  -3   23.50   20.50
  -6  -8  -3   13.10   29.50
  -6  -8  -3   63.69   32.00
  14  -6  -3   59.39   41.20
  -8  -6   3   28.70   35.70
  -8  -6   3   43.20   33.40
  14  -6  -3   17.20   15.70
  -6  -8  -3   19.40   31.30
  14  -8   3   -9.70   37.70
  -6  14   3   43.50   39.50
  -6  14   3   19.80   30.50
 -14   5   3  154.18   37.90
 -14   5   3  232.78   39.90
 -14   9  -3  302.27   68.99
   9 -14   3  280.97   50.69
   9   5  -3  227.18   45.10
   5   9   3  171.88   45.80
   5 -14  -3  271.37   36.60
   5   9   3  192.88   46.90
   5 -14  -3  238.08   51.69
   9 -14   3  187.58   37.60
   9 -14   3  296.67   71.59
   9   5  -3  239.18   64.69
   5 -14  -3  171.28   34.50
  -9  -5   3  339.17   54.59
  14  -5  -3  247.38   60.99
  14  -5  -3  200.48   26.70
  -5  14   3  145.69   42.40
  -5  -9  -3  201.18   53.59
  -9  14  -3  299.57   67.69
  -5  -9  -3  191.48   47.10
  -5  -9  -3  245.48   39.60
  -9  -5   3  231.58   57.59
  -9  14  -3  221.38   45.90
  14  -5  -3  210.48   37.60
  14  -9   3  327.97   54.19
  -5  14   3  327.97   50.09
   4 -14  -3  399.36   54.79
   4  10   3  490.05   64.89
  10 -14   3  548.55   52.29
  10 -14   3  455.05   43.90
  10   4  -3  449.76   47.00
   4  10   3  474.15   74.99
 -14  10  -3  481.45   72.39
  10   4  -3  382.76   64.29
   4 -14  -3  347.27   53.39
 -14   4   3  402.76   44.70
   4 -14  -3  455.45   38.60
 -14   4   3  475.25   45.80
 -10  14  -3  400.26   46.50
  14 -10   3  324.87   52.39
  14  -4  -3  408.66   65.69
  -4 -10  -3  418.46   52.59
 -10  14  -3  501.95   69.79
 -10  -4   3  402.06   56.49
 -10  -4   3  458.35   62.09
  14  -4  -3  396.96   30.20
  -4 -10  -3  391.36   59.99
  -4  14   3  334.97   69.79
  -4  14   3  375.96   53.49
  14  -4  -3  355.16   41.30
  11 -14   3  330.37   62.89
  11 -14   3  217.08   42.60
   3 -14  -3  152.88   36.10
   3  11   3  163.58   48.20
   3  11   3  196.48   50.29
  11   3  -3  176.38   42.20
 -14   3   3  245.88   40.30
   3 -14  -3  189.48   37.80
 -14   3   3  268.17   46.60
 -14  11  -3  245.28   65.79
  11 -14   3  310.97   47.30
  11   3  -3  152.88   45.70
  14  -3  -3  151.08   44.30
 -11  14  -3  261.17   66.59
  14  -3  -3  198.88   36.40
  -3 -11  -3  155.08   37.40
  14  -3  -3  209.48   27.30
 -11  -3   3  235.38   60.59
  14 -11   3  175.98   39.40
  -3  14   3  196.08   46.50
 -11  -3   3  281.07   49.99
 -11  14  -3  247.48   41.20
  -3 -11  -3  166.18   35.30
  -3  14   3  225.08   50.49
  12   2  -3   42.80   24.00
 -14   2   3   49.60   26.10
   2 -14  -3   46.10   33.50
   2  12   3   85.39   46.60
  12 -14   3   45.80   33.30
   2  12   3   45.70   41.60
   2 -14  -3   37.50   36.50
  12   2  -3   37.30   42.20
 -14  12  -3   62.79   43.50
 -14   2   3   61.99   27.70
 -14  12  -3   48.40   13.70
  14  -2  -3   52.99   18.50
  -2 -12  -3   40.50   33.90
 -12  -2   3   43.60   31.30
  14  -2  -3   74.79   44.20
  14  -2  -3   41.60   21.80
 -12  14  -3   59.09   22.40
 -12  14  -3  101.09   45.80
  -2 -12  -3    8.80   34.40
 -12  -2   3   82.69   33.60
  14 -12   3   47.70   34.60
  -2 -12  -3   80.29   37.00
  -2  14   3   64.99   34.80
  -2  14   3   27.90   43.70
 -14  13  -3  120.59   46.80
   1  13   3   83.49   42.80
 -14  13  -3  123.89   26.40
 -14   1   3  204.38   46.40
  13   1  -3  132.69   30.30
  13   1  -3  128.19   43.00
  13   1  -3  198.58   34.30
 -14   1   3  139.09   32.50
   1 -14  -3   69.59   31.70
   1 -14  -3   91.09   35.30
  13 -14   3  122.39   34.10
   1  13   3  141.49   44.70
 -13  -1   3  131.79   32.80
  14  -1  -3  128.79   26.80
 -13  -1   3   95.19   31.30
  -1  14   3  125.59   40.20
  -1 -13  -3   78.39   33.90
 -13  14  -3  150.48   48.80
  14  -1  -3  166.98   48.00
  14 -13   3  112.99   35.10
  -1 -13  -3   69.19   34.80
  -1  14   3  146.89   47.50
 -13  14  -3   81.99   23.00
   0 -14  -3   39.40   36.90
  14   0  -3    9.40   38.60
 -14   0   3   55.99   32.60
   0  14   3   51.69   42.80
 -14  14  -3   44.30   19.20
   0 -14  -3   24.00   35.00
 -14   0   3   77.69   30.80
   0  14   3   35.00   41.90
  14   0  -3   23.40   22.70
  14 -14   3   30.20   30.70
 -14  14  -3   21.80   43.10
  15 -15  -3  614.24   50.49
   0  15  -3  564.34   67.99
  15 -15  -3  579.64   40.60
 -15  15   3  689.03   70.39
   0  15  -3  602.04   56.39
   0  15  -3  593.64   49.99
  15   0   3  592.44   72.69
 -15   0  -3  717.03   68.89
   0 -15   3  486.25   56.69
  15   0   3  488.45   30.70
  15 -15  -3  616.44   56.99
   0 -15   3  576.04   68.29
  15   0   3  633.14   28.80
 -15  15   3  668.93   46.70
 -15  14   3  183.98   37.40
  14 -15  -3  116.19   32.10
  14 -15  -3  120.29   34.30
  14   1   3   68.19   48.30
 -15   1  -3  127.59   40.60
   1 -15   3   46.90   37.50
  14 -15  -3  110.79   25.40
   1  14  -3  138.39   32.30
   1  14  -3  100.59   30.10
   1 -15   3   56.29   38.00
   1  14  -3  170.98   45.30
 -15  14   3  145.29   38.60
  15  -1   3   57.79   48.50
  15 -14  -3  139.99   30.30
 -14  15   3  119.59   40.90
  -1 -14   3   60.29   39.60
  -1  15  -3  123.79   45.60
  15 -14  -3  121.19   35.40
  -1 -14   3   62.99   38.30
 -14  -1  -3  144.89   29.40
 -14  -1  -3  225.68   61.69
  -1  15  -3  110.39   32.10
  -1  15  -3   81.49   33.90
 -14  15   3  150.08   35.70
  15 -14  -3  103.69   24.20
 -15   2  -3  542.65   65.29
   2 -15   3  296.77   65.59
  13 -15  -3  485.75   52.39
   2  13  -3  401.46   67.19
 -15  13   3  519.95   43.50
   2  13  -3  507.55   47.10
  13 -15  -3  466.15   48.50
   2 -15   3  320.07   57.19
 -15  13   3  460.05   59.39
  13   2   3  347.87   70.79
   2  13  -3  401.66   52.49
  -2  15  -3  431.96   46.40
  -2 -13   3  320.97   56.99
  15 -13  -3  397.76   44.80
 -13  15   3  410.56   42.10
 -13  -2  -3  586.14   68.19
  15 -13  -3  428.06   56.29
 -13  -2  -3  419.86   41.60
  15  -2   3  267.17   64.39
  -2  15  -3  374.46   67.59
 -13  -2  -3  415.36   37.10
  15 -13  -3  390.36   37.30
  -2 -13   3  325.07   67.39
 -13  15   3  462.25   69.89
  -2  15  -3  378.36   55.09
  12   3   3  -32.20   42.50
   3 -15   3    4.70   34.80
  12 -15  -3   64.79   30.90
  12 -15  -3   61.19   33.80
 -15   3  -3   52.39   38.10
 -15  12   3    6.90   35.10
   3  12  -3   59.59   43.30
   3  12  -3   24.80   30.70
 -15  12   3   68.69   23.00
   3  12  -3   43.60   33.50
   3 -15   3  -13.50   37.90
  -3 -12   3    3.20   35.20
  -3  15  -3   69.39   43.00
  15  -3   3  -12.90   45.80
  15 -12  -3   39.20   34.00
  15 -12  -3   36.10   21.30
  -3  15  -3   25.90   30.90
  -3 -12   3   -4.40   32.60
 -12  15   3   15.70   29.60
 -12  15   3   43.30   22.50
 -12  15   3   31.20   41.20
 -12  -3  -3   80.09   25.30
 -12  -3  -3  131.89   43.60
  15 -12  -3   58.79   26.00
 -12  -3  -3   65.69   25.60
  11   4   3   21.60   47.30
 -15  11   3   23.70   20.50
   4  11  -3   20.30   30.10
   4 -15   3   17.10   24.30
 -15  11   3   -1.80   32.70
   4  11  -3   -2.70   29.50
   4 -15   3   18.30   38.20
   4 -15   3   11.00   35.00
 -15   4  -3   48.20   39.60
   4  11  -3    5.20   42.20
  11 -15  -3   23.00   32.70
 -11  15   3   -3.10   29.00
  -4  15  -3   22.80   31.30
  -4  15  -3   -7.30   41.00
 -11  15   3   -7.60   37.90
 -11  -4  -3   87.49   41.20
  15 -11  -3    3.70   24.30
  -4 -11   3    8.30   41.90
 -11  -4  -3   18.60   25.00
 -11  -4  -3   32.30   27.30
  15 -11  -3    9.90   19.40
  -4 -11   3    2.00   37.40
  15 -11  -3   10.60   35.40
 -11  15   3   16.00   23.10
  15  -4   3   18.50   43.20
   5 -15   3  219.38   36.60
 -15   5  -3  278.07   61.39
   5  10  -3  182.78   47.70
   5  10  -3  196.88   47.20
  10 -15  -3  204.88   43.10
  10   5   3  171.28   51.89
  10 -15  -3  157.48   35.20
   5 -15   3  204.48   47.60
 -15  10   3  214.88   39.00
   5 -15   3  130.79   39.40
 -15  10   3  224.18   37.80
 -10  15   3  181.88   41.60
  15 -10  -3  174.68   40.80
 -10  -5  -3  207.68   48.30
  -5 -10   3  186.08   44.20
 -10  15   3  179.48   46.10
  -5  15  -3  231.18   51.69
  -5  15  -3  217.78   52.79
  15  -5   3  130.29   45.10
  15 -10  -3  205.48   35.30
 -10  -5  -3  180.88   41.00
  -5 -10   3  157.98   41.80
  15 -10  -3  246.48   36.70
 -10  15   3  192.58   39.60
   9 -15  -3  209.98   49.50
   6 -15   3  189.18   37.50
   6   9  -3  191.28   45.60
 -15   6  -3  276.97   61.09
   9   6   3  124.49   45.50
   6   9  -3  137.19   32.50
   9 -15  -3  287.27   50.79
 -15   9   3  250.57   37.10
   6   9  -3  189.68   48.40
   6 -15   3  251.67   52.49
   6 -15   3  267.67   66.19
  -9  15   3  157.28   34.50
  -6  -9   3  331.77   59.19
  15  -6   3  226.58   50.49
  -9  15   3  149.49   44.20
  -6  -9   3  205.88   44.20
  -9  -6  -3  163.68   35.30
  -9  -6  -3  181.78   44.00
  -9  15   3  208.58   37.80
  -6  15  -3  244.28   51.89
  15  -9  -3  134.19   40.40
  -6  15  -3  222.18   52.89
  15  -9  -3  256.77   37.00
  15  -9  -3  203.78   28.60
   8 -15  -3   11.40   34.20
 -15   7  -3   42.90   39.20
   7   8  -3   33.90   28.00
   7   8  -3   -2.50   37.00
   7 -15   3   72.49   36.50
   7 -15   3   54.59   40.80
   7 -15   3    9.40   25.10
   8   7   3  -32.30   43.00
   8   7   3  108.69   39.60
 -15   8   3   25.80   21.00
   8 -15  -3   28.00   24.70
  15  -8  -3  -22.10   38.20
  -8  -7  -3   38.10   31.10
  -7  15  -3   53.39   30.90
  15  -8  -3   21.50   20.80
  -8  15   3   43.60   40.90
  -7  15  -3   12.70   43.20
  -8  -7  -3   18.50   28.90
  -7  -8   3   51.09   37.20
  15  -7   3   20.00   38.30
  -8  15   3   14.10   30.80
  -7  -8   3   64.99   40.00
  15  -8  -3   12.30   17.10
   7   8   3  271.67   67.29
   7 -15  -3  153.78   32.60
   7   8   3  158.18   45.90
 -15   8  -3  132.39   43.60
   7 -15  -3  114.69   32.60
   8 -15   3  113.29   28.10
   8   7  -3  109.69   44.60
 -15   7   3  164.98   36.50
   8 -15   3  149.29   45.10
 -15   7   3  101.09   27.10
   8   7  -3  101.09   28.60
  -7  15   3  112.69   35.00
  -8  15  -3  136.79   49.40
  15  -7  -3   97.29   42.50
  15  -7  -3  121.49   26.80
  15  -7  -3   89.19   22.20
  -7  -8  -3  111.99   33.90
  -7  -8  -3  102.09   33.20
  15  -8   3  120.39   44.30
  -8  15  -3  114.89   31.90
  -8  -7   3  129.39   41.30
  -7  15   3   80.89   42.50
  -8  -7   3  116.29   38.30
   6 -15  -3  151.18   33.00
   6 -15  -3  199.78   53.69
   9 -15   3  233.38   39.30
   9 -15   3  331.77   53.69
 -15   6   3  198.68   39.60
   6   9   3  386.86   70.19
   9   6  -3  288.47   52.29
   6   9   3  226.48   52.29
   9   6  -3  216.28   49.20
   6 -15  -3  285.27   32.20
 -15   9  -3  252.87   49.10
 -15   6   3  282.67   41.40
  -6  15   3  237.08   48.50
  -6  -9  -3  250.77   54.69
  -9  -6   3  241.08   55.99
  -9  15  -3  264.57   70.19
  15  -9   3  230.08   55.19
  15  -6  -3  238.38   36.70
  15  -6  -3  212.08   44.90
  -9  -6   3  229.18   61.49
  -6  -9  -3  201.98   48.60
  -6  -9  -3  195.58   47.80
  -9  15  -3  225.48   47.90
  15  -6  -3  229.38   31.10
  -6  15   3  187.68   43.20
 -15   5   3  126.19   29.50
   5 -15  -3   45.60   28.80
 -15   5   3   88.49   24.60
  10   5  -3   89.39   27.30
 -15  10  -3   74.99   46.50
   5  10   3   29.40   43.10
   5 -15  -3   87.39   32.20
  10 -15   3   70.09   29.40
   5  10   3  136.29   45.90
  10   5  -3   75.99   42.30
  -5 -10  -3   66.79   33.50
  15  -5  -3   64.99   39.00
  15 -10   3   66.19   36.00
 -10  15  -3  114.99   33.30
 -10  -5   3   79.79   34.00
  -5  15   3  121.69   37.50
  -5 -10  -3  100.29   34.30
 -10  15  -3   87.89   47.70
  15  -5  -3  110.79   28.30
  15  -5  -3   70.89   23.00
 -10  -5   3  148.79   38.40
  -5  15   3  106.59   44.20
   4 -15  -3   15.00   28.20
  11   4  -3   58.29   29.10
 -15   4   3   56.99   27.20
  11 -15   3   63.99   29.80
  11 -15   3  155.68   69.69
   4  11   3   68.99   43.20
  11   4  -3   81.49   42.30
   4 -15  -3   51.79   32.40
 -15  11  -3   99.89   46.80
   4  11   3   75.59   42.10
 -15   4   3   92.79   28.50
  -4 -11  -3   29.00   43.50
  -4  15   3   55.59   38.30
  15  -4  -3   29.40   38.80
 -11  15  -3   75.99   45.50
  15  -4  -3   57.89   22.30
 -11  -4   3   54.09   36.20
  -4 -11  -3   60.09   33.40
  15  -4  -3   76.39   20.50
  -4 -11  -3   55.19   33.10
  -4  15   3   47.40   38.80
 -11  -4   3   61.39   33.40
 -11  15  -3   50.59   26.90
  15 -11   3   49.90   34.10
   3  12   3  310.17   72.99
  12   3  -3  250.57   48.60
 -15   3   3  264.37   47.20
  12 -15   3  254.97   43.50
 -15   3   3  269.37   44.00
  12   3  -3  251.57   43.40
   3 -15  -3  235.68   51.79
   3  12   3  284.77   64.99
 -15  12  -3  266.37   62.89
   3 -15  -3  238.08   51.39
  -3  15   3  313.27   71.19
  15 -12   3  253.17   49.50
 -12  15  -3  196.68   41.40
 -12  -3   3  267.47   60.19
 -12  -3   3  250.77   51.29
  15  -3  -3  315.67   32.00
  15  -3  -3  272.77   37.70
  -3 -12  -3  258.57   57.09
  -3  15   3  331.87   56.69
 -12  15  -3  268.97   66.19
  -3 -12  -3  252.17   50.59
  15  -3  -3  215.88   45.90
  13 -15   3   78.89   31.20
   2  13   3   97.19   42.90
 -15  13  -3  109.69   44.10
 -15   2   3  101.09   31.10
 -15   2   3  100.99   27.70
 -15  13  -3   67.29   14.90
  13   2  -3   74.39   42.40
   2 -15  -3   36.90   33.90
   2 -15  -3   58.99   33.70
  13   2  -3   85.19   25.90
   2  13   3   86.99   43.60
  15  -2  -3   36.80   38.10
 -13  -2   3   75.19   32.40
  -2 -13  -3   96.19   34.00
  -2  15   3  104.09   39.10
 -13  -2   3  141.09   36.60
  15  -2  -3   53.09   21.70
 -13  15  -3   83.39   42.60
  -2  15   3  124.89   44.60
  15 -13   3   78.09   36.10
  -2 -13  -3   93.29   34.60
   1  14   3  161.58   47.40
  14 -15   3  172.08   42.70
 -15  14  -3  144.79   27.10
  14   1  -3  153.48   38.90
 -15   1   3  231.08   50.79
 -15   1   3  207.98   45.90
   1  14   3  310.17   60.29
   1 -15  -3  154.08   34.80
   1 -15  -3  207.38   54.99
 -15  14  -3  269.77   67.19
  14   1  -3  177.38   45.00
 -14  15  -3  194.58   49.00
  15  -1  -3  197.68   45.90
  -1 -14  -3  236.18   53.79
  -1  15   3  169.98   43.40
  15  -1  -3  171.48   37.60
 -14  -1   3  228.18   51.29
 -14  -1   3  218.28   52.99
  15  -1  -3  256.37   33.10
 -14  15  -3  155.88   34.60
  -1  15   3  235.48   52.39
  15 -14   3  141.09   35.10
  -1 -14  -3  158.78   36.60
  15 -15   3  747.53   56.29
  15 -15   3  841.52   55.59
 -15  15  -3  858.21   76.99
  15   0  -3  751.62   53.29
   0  15   3  807.92   66.59
 -15   0   3  800.92   63.79
 -15   0   3  793.32   58.29
   0  15   3  658.53   77.59
   0 -15  -3  785.02   69.69
 -15  15  -3  700.53   43.50
  15   0  -3  783.72   69.99
   0 -15  -3  708.13   61.29
  15 -15   3  930.71   55.89
   0  16  -3   81.29   32.70
 -16  16   3  131.89   42.50
   0 -16   3   46.30   36.00
  16   0   3   71.69   43.90
  16 -16  -3  122.09   31.60
   0  16  -3   65.99   31.00
   0  16  -3   57.79   46.90
 -16  16   3  128.89   33.90
  16 -16  -3  107.79   41.10
 -16   0  -3  123.89   43.00
  16 -16  -3   66.09   24.20
 -16  15   3  997.40   79.09
  15 -16  -3 1066.49   60.29
   1 -16   3  906.31   68.39
   1  15  -3 1058.69   61.39
  15   1   3 1223.48   84.09
 -16   1  -3 1186.18   77.69
   1  15  -3  865.91   62.99
  15 -16  -3 1022.50   67.19
  15   1   3  914.21   49.30
 -16  15   3 1047.70   54.29
   1 -16   3  889.41   77.59
   1  15  -3  983.10   78.39
  15 -16  -3  951.90   50.99
  -1 -15   3  847.32   75.59
  16  -1   3 1116.69   80.69
 -15  16   3 1075.39   54.09
  -1 -15   3  833.42   66.39
  16 -15  -3  960.40   50.89
 -15  16   3  993.30   78.19
  -1  16  -3 1018.20   77.39
  16 -15  -3 1001.30   68.49
  -1  16  -3 1073.89   60.89
  16 -15  -3 1031.00   58.99
  -1  16  -3  915.81   67.39
  14   2   3  480.35   43.00
   2  14  -3  411.26   67.19
  14 -16  -3  400.26   52.59
 -16  14   3  441.46   64.39
   2  14  -3  442.46   49.20
  14   2   3  409.66   67.09
   2 -16   3  414.26   67.19
   2  14  -3  423.26   54.39
 -16   2  -3  495.55   65.69
   2 -16   3  414.66   55.89
 -16  14   3  508.95   39.80
  14 -16  -3  477.05   49.99
 -14  -2  -3  467.75   42.40
  -2  16  -3  484.15   66.49
 -14  -2  -3  466.15   49.40
 -14  16   3  476.15   41.50
  16 -14  -3  420.96   38.60
  -2  16  -3  436.36   54.89
  -2 -14   3  404.16   61.99
  16 -14  -3  479.15   46.10
 -14  16   3  561.04   70.09
  -2  16  -3  514.45   45.50
  16  -2   3  431.06   68.59
  -2 -14   3  309.97   55.09
  16 -14  -3  507.45   55.89
 -16  13   3   89.29   34.80
   3 -16   3   83.99   41.10
   3  13  -3   65.89   41.60
  13   3   3   23.80   48.10
 -16  13   3  137.39   30.90
  13 -16  -3   35.40   30.50
  13 -16  -3   75.09   29.60
   3  13  -3   69.09   32.60
   3  13  -3   45.00   29.40
  13   3   3   24.10   24.30
 -16   3  -3   69.89   39.20
   3 -16   3   43.20   36.40
  -3  16  -3   65.99   33.70
  -3 -13   3   62.09   37.70
 -13  16   3  126.29   40.70
  16 -13  -3   68.09   26.50
 -13  16   3   89.19   24.00
  16 -13  -3   48.80   33.30
  -3 -13   3   29.70   35.80
  16  -3   3   39.00   45.90
 -13  -3  -3  149.19   35.00
 -13  -3  -3   78.59   25.50
  -3  16  -3   76.59   41.90
  16 -13  -3   56.99   22.50
 -16   4  -3   60.59   39.40
   4  12  -3   23.90   31.60
  12 -16  -3   34.20   28.80
  12 -16  -3   36.70   27.30
   4 -16   3   66.99   38.40
 -16  12   3   52.09   19.50
   4 -16   3   21.90   34.50
   4  12  -3   25.90   29.70
 -16  12   3    9.70   31.40
   4  12  -3   49.90   39.00
   4 -16   3   36.50   26.10
  12   4   3  -13.70   43.60
  16 -12  -3   58.29   26.30
 -12  -4  -3   18.40   26.60
 -12  16   3    7.00   28.60
  -4  16  -3   27.80   40.80
  16 -12  -3   24.70   20.50
  -4 -12   3   14.20   35.80
  -4 -12   3   11.20   36.00
  16  -4   3   -1.50   45.30
 -12  -4  -3  122.69   42.70
 -12  16   3   21.00   34.90
 -12  16   3   42.50   24.60
 -12  -4  -3   47.60   26.20
  16 -12  -3   21.10   32.90
  -4  16  -3   36.30   31.40
   5 -16   3   12.20   35.60
 -16  11   3   23.60   19.90
  11 -16  -3   15.30   27.10
 -16   5  -3   39.30   35.70
  11   5   3  -71.89   45.60
   5  11  -3  -10.80   28.60
  11 -16  -3   26.30   31.50
   5 -16   3   79.39   39.50
   5 -16   3    8.50   24.70
 -16  11   3   16.10   32.00
   5  11  -3    9.60   37.30
   5  11  -3   -3.60   28.00
 -11  16   3    4.40   29.80
  16 -11  -3    7.00   19.90
  16 -11  -3    7.80   34.50
 -11  -5  -3   24.30   27.40
  -5 -11   3  -55.49   35.00
 -11  16   3   13.90   21.60
  16  -5   3    3.30   43.40
  -5 -11   3    7.70   37.90
  -5  16  -3   27.60   41.80
 -11  16   3  -24.80   36.90
  16 -11  -3   44.90   23.40
  -5  16  -3   -6.30   30.00
 -11  -5  -3  -38.10   26.20
   6  10  -3  -38.50   26.80
  10   6   3   -2.20   41.60
   6 -16   3   80.39   40.70
   6  10  -3   32.40   38.30
   6 -16   3   39.40   34.90
 -16   6  -3   54.49   40.50
  10 -16  -3   42.20   25.90
   6  10  -3   -0.20   25.80
   6 -16   3   13.40   24.90
  10 -16  -3   29.60   30.20
 -10  -6  -3   15.10   27.90
  -6  16  -3   -2.10   31.50
 -10  -6  -3   28.70   28.50
 -10  16   3   25.90   39.80
  -6  16  -3   13.90   42.80
 -10  16   3   27.80   33.20
  16 -10  -3   28.80   23.90
  16 -10  -3    3.00   33.90
  16  -6   3  -11.00   42.50
 -10  16   3   29.50   21.50
  16 -10  -3   19.50   18.40
  -6 -10   3   -3.60   39.40
  -6 -10   3    4.90   36.80
   7 -16   3  103.29   37.10
 -16   7  -3  101.19   39.90
   7   9  -3   79.49   41.10
   9 -16  -3   74.99   33.60
   7   9  -3   54.29   27.20
   7 -16   3   77.49   45.30
   9   7   3   42.70   49.00
   7 -16   3   78.79   28.30
   7   9  -3   14.00   30.40
   9 -16  -3  153.08   35.00
  -7  -9   3   86.19   39.90
  16  -7   3  112.99   45.90
  16  -9  -3  125.69   41.10
  16  -9  -3   67.79   20.20
  -7  16  -3   81.19   46.50
  -9  -7  -3   86.29   31.20
  -9  16   3   71.39   25.90
  -9  16   3  142.29   42.60
  -7  -9   3   78.49   36.70
  -9  16   3  104.39   36.00
  -9  -7  -3   73.79   30.80
  -7  16  -3   93.59   33.10
 -16   8  -3  113.09   40.30
   8 -16  -3  102.69   30.30
   8   8   3   46.50   42.40
   8 -16   3  148.39   36.20
   8   8  -3  115.59   30.00
 -16   8   3   97.09   28.50
   8   8  -3  108.39   44.90
   8 -16   3  223.28   53.89
  16  -8  -3  133.79   27.80
  -8  16  -3  112.89   32.70
  -8  16   3   89.09   40.90
  16  -8  -3  124.19   41.20
  16  -8   3  111.19   41.30
  -8  -8  -3   80.89   32.30
  -8  16   3   81.19   34.80
  16  -8  -3  126.99   34.30
  -8  -8   3   99.29   38.80
  -8  16  -3  109.59   44.70
  -8  -8  -3  101.49   32.20
 -16   9  -3   52.29   41.60
   9 -16   3   60.79   28.40
   7   9   3   46.70   45.40
   9   7  -3   55.99   28.60
 -16   7   3   85.69   28.80
   7   9   3  121.49   40.50
   7 -16  -3   54.69   31.30
   9   7  -3   55.59   41.70
  16  -9   3   33.90   39.70
  16  -7  -3   57.19   19.70
  16  -7  -3   63.59   20.90
  16  -7  -3   18.60   34.60
  -9  -7   3   53.19   39.30
  -7  -9  -3   64.59   32.10
  -9  16  -3   30.90   45.70
  -7  -9  -3   72.19   33.00
  -7  16   3   29.70   38.00
  -9  -7   3   52.69   39.80
  -7  -9  -3   47.30   31.70
  -7  16   3   56.09   32.20
  -9  16  -3   21.20   29.80
  10   6  -3   -1.70   26.30
 -16  10  -3    1.60   39.00
   6  10   3   51.69   42.50
  10   6  -3   28.20   41.20
  10 -16   3   82.39   36.10
 -16   6   3   20.40   26.40
   6 -16  -3    4.60   31.00
   6 -16  -3   17.20   29.30
   6  10   3   40.00   48.00
  10 -16   3   17.20   26.50
  16  -6  -3  -36.00   34.50
 -10  -6   3   25.10   36.30
  -6  16   3   -5.70   35.60
 -10  -6   3    9.70   36.40
  -6 -10  -3    7.40   30.80
  -6  16   3    1.70   32.70
 -10  16  -3    6.00   28.10
  16  -6  -3   30.60   20.00
  -6 -10  -3   -3.80   29.80
 -10  16  -3   41.50   43.90
  16 -10   3  -12.00   33.50
  16  -6  -3   20.20   18.80
 -16  11  -3   47.20   43.20
   5  11   3   87.49   44.80
  11   5  -3   48.50   40.10
   5 -16  -3   56.79   33.50
  11 -16   3   47.00   28.10
   5 -16  -3   19.30   28.20
  11   5  -3   54.09   25.30
   5  11   3   30.70   47.40
 -16   5   3   64.09   27.60
  -5 -11  -3   50.79   33.20
 -11  -5   3   83.49   37.50
  16  -5  -3   43.00   28.50
 -11  16  -3   54.49   47.90
  16  -5  -3   39.20   21.90
 -11  16  -3   37.30   28.10
 -11  -5   3   32.90   35.70
  -5  16   3   63.49   37.10
  16 -11   3   50.39   35.50
  -5  16   3   23.90   39.80
  -5 -11  -3   51.29   32.10
  16  -5  -3   68.29   39.80
 -16   4   3   70.49   26.00
  12   4  -3   17.70   26.10
   4 -16  -3   30.00   30.40
   4  12   3   61.29   43.80
 -16  12  -3   66.39   46.50
 -16   4   3   75.19   28.90
   4  12   3  119.09   46.30
   4 -16  -3   39.90   28.30
  12 -16   3   53.69   30.60
  12   4  -3   28.90   38.30
  -4 -12  -3   55.79   32.20
  16 -12   3   77.69   36.50
 -12  16  -3   85.69   44.20
  16  -4  -3    8.90   36.70
  -4  16   3   61.09   38.70
 -12  16  -3   52.19   26.80
 -12  -4   3   95.29   37.60
  16  -4  -3   66.69   22.90
  -4 -12  -3   48.00   32.00
 -12  -4   3   94.79   36.70
  -4  16   3   76.89   37.70
   3  13   3  345.87   64.89
   3  13   3  354.46   64.29
 -16   3   3  324.37   44.90
   3 -16  -3  242.58   49.40
  13 -16   3  268.17   42.30
   3 -16  -3  237.98   49.99
  13   3  -3  247.98   60.89
 -16   3   3  255.77   44.90
 -16  13  -3  338.67   63.79
  13   3  -3  244.28   41.20
  16 -13   3  223.78   41.80
 -13  -3   3  292.57   59.59
  -3 -13  -3  211.28   54.19
  -3  16   3  288.97   53.59
  -3 -13  -3  231.88   48.60
  16  -3  -3  265.07   56.19
  -3  16   3  278.37   62.99
 -13  16  -3  306.07   66.49
 -13  -3   3  301.57   51.69
  16  -3  -3  294.67   38.10
 -13  16  -3  229.58   43.30
 -16   2   3  647.24   54.09
  14   2  -3  560.64   63.99
   2 -16  -3  561.64   57.89
 -16  14  -3  606.54   71.89
 -16   2   3  611.84   51.59
   2  14   3  799.82   72.79
   2 -16  -3  565.94   63.29
  14   2  -3  634.54   51.99
  14 -16   3  611.74   50.89
 -16  14  -3  558.64   30.90
   2  14   3  598.94   66.99
  -2 -14  -3  555.34   56.49
 -14  16  -3  589.64   71.39
 -14  16  -3  531.15   46.00
  16  -2  -3  607.74   62.69
  -2  16   3  678.13   59.89
  16  -2  -3  616.44   48.00
  16  -2  -3  717.23   51.19
 -14  -2   3  567.54   63.39
 -14  -2   3  669.63   59.59
  -2  16   3  701.83   69.39
  -2 -14  -3  680.93   64.09
  16 -14   3  625.64   53.49
   1 -16  -3  152.18   38.90
   1  15   3  238.18   59.39
  15   1  -3  152.98   38.80
   1 -16  -3  129.39   36.80
 -16   1   3  213.28   47.00
 -16  15  -3  132.09   27.50
  15   1  -3  176.78   44.20
 -16  15  -3  162.58   48.00
  15 -16   3  189.28   43.90
 -16   1   3  141.79   33.00
 -15  16  -3  171.68   33.00
 -15  -1   3  152.88   36.10
  -1  16   3  178.58   44.00
  16  -1  -3  128.89   37.80
  -1 -15  -3  281.27   56.59
 -15  -1   3  209.58   49.90
  16  -1  -3  235.78   37.90
 -15  16  -3  194.28   50.19
  -1 -15  -3  211.68   50.39
  16 -15   3  130.49   33.30
  -1  16   3  104.29   44.50
  16   0  -3  546.65   50.69
 -16   0   3  647.94   63.39
 -16  16  -3  816.72   78.29
  16   0  -3  813.72   51.79
   0  16   3  683.13   63.19
  16   0  -3  645.34   63.89
   0 -16  -3  730.53   71.69
  16 -16   3  763.02   54.09
   0 -16  -3  679.73   59.39
   0  16   3  703.83   72.29
  16 -16   3  631.14   53.69
 -16   0   3  667.23   59.29
 -17  17   3  524.35   71.49
 -17  17   3  585.24   42.90
   0  17  -3  509.35   73.69
  17 -17  -3  463.85   42.80
   0 -17   3  408.56   57.69
  17 -17  -3  651.63   65.29
  17   0   3  533.45   71.49
   0  17  -3  565.74   54.09
 -17   0  -3  671.23   73.19
  17 -17  -3  513.05   50.99
   1  16  -3  357.96   68.39
 -17  16   3  523.85   64.89
  16 -17  -3  327.97   39.50
   1  16  -3  421.16   50.59
 -17  16   3  369.46   40.30
  16   1   3  415.46   67.69
  16 -17  -3  382.66   48.90
 -17   1  -3  518.45   69.09
  17 -16  -3  524.15   62.39
  -1 -16   3  305.27   57.99
 -16  17   3  426.16   39.80
  17  -1   3  396.46   70.09
 -16  17   3  573.14   70.29
  -1  17  -3  352.46   70.79
  17 -16  -3  454.35   47.30
  -1  17  -3  444.86   50.89
   2  15  -3   33.50   33.60
 -17   2  -3   70.79   39.30
  15   2   3   66.99   22.50
 -17  15   3   37.10   34.30
   2  15  -3   91.49   41.90
   2 -17   3   85.59   33.50
  15   2   3   60.89   51.29
   2  15  -3  102.29   35.50
  15 -17  -3   41.20   29.20
   2 -17   3   67.69   37.80
  -2  17  -3   17.10   31.70
  -2  17  -3  -37.60   42.70
  17 -15  -3   56.39   29.40
  17  -2   3   55.39   50.69
 -15  -2  -3   93.89   44.30
  17 -15  -3   55.19   25.10
  17 -15  -3   34.60   35.10
  -2  17  -3   40.40   29.60
 -15  17   3   50.99   21.10
  -2 -15   3   25.50   35.60
   3 -17   3  590.64   67.99
   3 -17   3  417.76   53.59
  14 -17  -3  429.56   50.89
 -17   3  -3  493.05   65.69
  14   3   3  393.16   67.99
 -17  14   3  427.96   37.90
 -17  14   3  399.86   60.89
   3  14  -3  472.65   65.89
   3  14  -3  414.96   51.69
   3  14  -3  290.97   52.19
  17  -3   3  393.36   64.39
 -14  -3  -3  498.35   46.70
 -14  17   3  432.06   60.19
  -3  17  -3  253.77   68.29
  -3  17  -3  423.06   45.80
  17 -14  -3  371.76   44.10
  -3 -14   3  297.17   54.59
 -14  17   3  435.96   40.80
  17 -14  -3  386.76   55.39
 -14  -3  -3  559.14   70.09
  17 -14  -3  396.56   38.20
  13   4   3   34.80   26.90
   4 -17   3  125.79   39.40
  13   4   3   95.49   47.00
  13 -17  -3   98.49   30.20
   4  13  -3   59.49   30.80
   4 -17   3  145.69   41.60
 -17  13   3  195.78   48.90
 -17  13   3  115.99   30.70
   4  13  -3   69.39   40.20
 -17   4  -3   86.39   39.10
   4  13  -3  111.59   34.80
  -4 -13   3   32.30   37.50
  17 -13  -3   79.79   34.50
 -13  -4  -3  175.28   44.00
 -13  17   3   84.49   39.70
  -4  17  -3   85.29   43.20
  -4 -13   3   74.99   36.90
  17 -13  -3   94.99   24.20
  -4  17  -3   69.09   33.60
  17 -13  -3  109.19   27.40
  17  -4   3   86.49   47.90
 -13  17   3  115.89   32.60
 -13  17   3  105.29   25.80
  12 -17  -3   27.00   30.70
 -17  12   3   13.90   18.90
   5 -17   3   72.29   40.70
  12   5   3   36.50   44.40
   5 -17   3   62.59   37.90
   5  12  -3   46.40   30.20
   5  12  -3   27.60   37.40
   5 -17   3   29.20   25.80
   5  12  -3   51.39   27.30
 -17   5  -3   27.10   37.10
 -17  12   3   63.79   29.40
  -5 -12   3   48.40   33.30
 -12  -5  -3   24.70   27.70
 -12  17   3   61.49   23.00
  -5  17  -3   20.60   43.00
  17 -12  -3   18.00   32.30
  17  -5   3   81.89   44.40
  17 -12  -3   32.00   23.50
 -12  17   3   22.70   29.00
  -5 -12   3   37.10   37.50
  17 -12  -3   35.80   22.90
  -5  17  -3   24.90   31.70
 -12  17   3   23.00   39.40
 -12  -5  -3   78.09   50.09
   6  11  -3   44.60   25.80
  11 -17  -3   -9.30   28.20
   6  11  -3    0.00   40.60
  11   6   3   76.19   28.30
   6 -17   3   16.80   24.00
   6 -17   3   -6.30   39.70
 -17   6  -3   30.30   37.20
   6 -17   3   42.80   34.40
 -17  11   3  -31.20   25.90
  11   6   3   12.30   41.10
 -17  11   3   28.70   15.40
  17 -11  -3   26.80   22.80
  -6  17  -3   48.20   41.80
  17 -11  -3   32.40   19.70
  -6  17  -3   -8.00   30.50
 -11  -6  -3   24.20   27.60
 -11  -6  -3   30.80   28.20
 -11  17   3   20.00   31.90
 -11  17   3   53.99   35.10
  -6 -11   3   -8.30   35.70
  -6 -11   3   -4.30   36.60
 -11  17   3   21.50   19.90
  17  -6   3    9.30   41.70
  17 -11  -3   12.80   34.20
   7 -17   3   29.20   35.90
  10   7   3   -3.20   45.10
   7  10  -3  -21.50   23.90
 -17   7  -3   40.50   39.10
   7 -17   3   31.20   24.50
  10 -17  -3   49.90   30.10
  10   7   3   71.19   30.70
   7  10  -3   23.90   40.40
 -17  10   3   21.50   16.80
  -7  17  -3   30.40   43.10
  -7 -10   3  -16.10   35.80
 -10  17   3   41.50   35.50
 -10  17   3   31.10   23.40
 -10  -7  -3   10.80   28.30
  17 -10  -3   -4.40   33.70
  17 -10  -3   22.90   19.00
 -10  17   3    7.60   29.70
 -10  -7  -3   19.10   28.60
  -7 -10   3  -23.80   36.90
  -7  17  -3  -13.60   28.20
  17  -7   3   21.30   41.30
 -10  -7  -3   67.79   38.20
   8   9  -3    4.50   24.90
   8   9  -3   14.60   26.40
 -17   8  -3   21.10   37.40
 -17   9   3  -42.00   24.90
   9   8   3  -42.20   39.10
   8 -17   3   77.19   35.70
   9 -17  -3   -2.30   27.90
   8   9  -3   17.60   38.80
   8 -17   3   20.70   25.40
  -9  17   3   43.80   36.60
  -9  -8  -3    3.90   28.50
  -9  17   3   21.60   32.10
  -8  17  -3   11.40   45.50
  17  -8   3   22.10   39.10
  -8  -9   3    3.20   35.50
  -9  -8  -3  -20.90   28.10
  -8  -9   3   13.50   38.70
  17  -9  -3   -1.60   33.90
  -8  17  -3  -13.10   28.60
  17  -9  -3    6.00   20.40
 -17   9  -3   50.49   37.10
   9 -17   3  103.39   36.30
   9   8  -3   34.40   24.30
   9 -17   3   38.00   25.70
   9   8  -3   31.50   40.20
   8   9   3   81.69   38.30
   8 -17  -3   61.69   31.90
   8   9   3   70.39   43.90
   9   8  -3  -17.80   36.20
 -17   8   3   29.60   26.30
  -8  17   3   -1.70   36.10
  -9  -8   3  105.19   41.50
  -9  -8   3   53.59   36.60
  17  -8  -3   48.70   21.00
  -8  -9  -3   19.40   29.50
  17  -8  -3   27.10   33.00
  -8  -9  -3   39.60   29.90
  -9  17  -3   44.80   30.30
  -9  17  -3   48.70   41.40
  17  -9   3    8.80   35.60
  -8  17   3   70.59   36.30
  17  -8  -3   51.39   20.80
  -8  -9  -3   43.40   34.90
  10 -17   3   93.89   30.20
  10   7  -3   38.30   31.00
  10   7  -3  123.49   42.80
 -17  10  -3   60.19   41.90
   7 -17  -3   76.59   29.50
  10   7  -3   19.80   29.80
   7 -17  -3   85.59   32.90
   7  10   3   48.40   43.30
 -17   7   3   99.19   27.60
 -10  -7   3   67.89   37.70
  17  -7  -3   99.29   23.60
  17  -7  -3   98.29   38.10
 -10  17  -3   58.49   29.80
 -10  17  -3  132.39   49.00
  -7  17   3  109.99   34.20
  -7 -10  -3   91.59   31.80
  17  -7  -3   97.89   22.40
  -7  17   3   53.39   35.60
 -10  -7   3   90.59   39.60
  17 -10   3   97.19   38.90
  -7 -10  -3   84.89   33.00
  -7 -10  -3   42.90   35.70
  11   6  -3  105.29   28.60
   6  11   3   83.49   43.60
 -17   6   3  182.48   39.20
 -17  11  -3   76.39   41.20
   6 -17  -3  123.99   35.00
  11 -17   3  153.48   32.00
   6 -17  -3   49.99   28.20
  11   6  -3  115.09   41.30
  17 -11   3   91.09   35.50
 -11  -6   3   64.59   35.80
  -6  17   3  132.59   37.30
  17  -6  -3  139.29   31.50
  -6 -11  -3   33.90   34.30
  -6 -11  -3   41.30   31.40
  -6 -11  -3  113.79   33.30
 -11  -6   3  147.59   40.50
 -11  17  -3  136.79   47.60
  -6  17   3  117.89   39.60
 -11  17  -3   86.69   30.00
  17  -6  -3  150.08   33.20
  17  -6  -3   72.89   34.50
   5 -17  -3  169.28   35.50
  12   5  -3  212.58   47.00
  12   5  -3  167.68   43.50
 -17   5   3  301.97   42.40
  12 -17   3  208.68   39.50
   5 -17  -3  227.48   52.49
 -17  12  -3  241.98   49.60
   5  12   3  248.18   61.99
 -12  -5   3  138.99   36.10
  17 -12   3  215.28   48.10
  -5 -12  -3  204.38   46.40
  -5  17   3  315.57   63.89
  17  -5  -3  150.58   39.70
  17  -5  -3  229.08   37.80
  -5 -12  -3  159.48   38.00
  17  -5  -3  242.08   34.80
 -12  17  -3  176.18   45.00
 -12  -5   3  228.88   54.49
  -5  17   3  204.88   50.59
 -12  17  -3  193.38   49.80
   4 -17  -3  307.07   51.39
   4  13   3  367.76   70.69
 -17   4   3  291.87   43.10
 -17   4   3  345.67   45.50
 -17  13  -3  386.66   71.29
  13   4  -3  269.97   42.90
  13 -17   3  281.97   42.50
   4 -17  -3  262.87   49.60
  13   4  -3  268.87   60.79
   4  13   3  283.37   52.59
  -4 -13  -3  260.07   49.99
  17  -4  -3  309.47   39.40
  -4  17   3  303.87   50.59
  17 -13   3  244.98   47.10
  -4  17   3  349.57   66.99
 -13  17  -3  292.27   70.79
 -13  -4   3  312.07   55.19
  -4 -13  -3  232.58   55.49
  17  -4  -3  238.38   54.59
  17  -4  -3  331.37   36.00
   3  14   3   52.89   43.20
   3 -17  -3   10.10   29.40
  14 -17   3   32.20   27.60
  14   3  -3   17.90   37.60
 -17   3   3   23.90   25.20
   3 -17  -3   43.10   31.60
   3  14   3   52.49   45.60
  14   3  -3   27.00   24.40
 -17   3   3   51.39   29.20
 -17  14  -3   43.60   41.20
  17  -3  -3   64.89   23.20
  17 -14   3    5.90   30.90
 -14  -3   3   51.59   36.30
  -3  17   3   21.10   36.10
 -14  17  -3    1.10   40.40
  17  -3  -3   44.50   21.90
  -3 -14  -3   32.50   32.20
 -14  17  -3    5.40   24.20
  -3 -14  -3   39.40   33.30
  17  -3  -3   17.10   32.60
 -14  -3   3  -11.90   31.20
  15 -17   3  642.44   51.69
   2  15   3  697.73   77.79
 -17   2   3  619.24   53.69
 -17  15  -3  558.34   31.40
   2  15   3  650.03   71.29
 -17   2   3  553.04   56.69
  15   2  -3  597.54   65.19
 -17  15  -3  667.23   74.39
  15   2  -3  575.44   53.19
   2 -17  -3  594.14   56.99
  -2  17   3  440.16   75.79
 -15  17  -3  690.63   75.19
 -15  -2   3  583.24   65.19
 -15  -2   3  593.74   59.79
  17  -2  -3  622.54   49.20
 -15  17  -3  503.15   47.00
  -2 -15  -3  622.94   65.99
  17  -2  -3  565.94   64.39
  -2  17   3  662.63   61.19
  -2 -15  -3  618.34   59.29
  17 -15   3  577.54   56.09
  16   1  -3 1248.38   87.69
  16 -17   3 1487.05   64.09
   1  16   3 1115.79   84.09
  16 -17   3 1077.99   83.69
 -17  16  -3 1344.57   90.69
  16   1  -3 1532.35  107.29
 -17   1   3 1236.28   76.39
   1  16   3 1224.78   88.59
 -17   1   3 1282.27   71.79
  16 -17   3 1427.96   71.29
  16   1  -3 1275.57   66.79
  -1 -16  -3 1201.68   72.49
  17  -1  -3 1109.49  104.79
  17  -1  -3 1480.75   98.19
  17 -16   3 1187.28   67.69
  17  -1  -3 1343.07   65.59
 -16  -1   3 1027.60   77.39
 -16  -1   3 1289.57   73.29
 -16  17  -3 1371.06   91.09
  17 -17   3   94.29   35.00
  17   0  -3   83.09   25.40
 -17  17  -3   97.39   49.00
  17   0  -3   86.09   38.30
   0  17   3  114.59   45.40
 -17   0   3  117.19   38.20
   0 -17  -3   74.89   38.30
   0  18  -3  380.06   51.19
   0 -18   3  276.97   53.69
 -18   0  -3  480.35   73.39
  18   0   3  430.36   69.29
  18 -18  -3  268.77   39.70
  18 -18  -3  427.16   62.09
 -18  18   3  624.14  119.69
   0  18  -3  385.66   82.79
  17 -18  -3   25.60   30.00
  17 -18  -3   98.49   43.70
 -18  17   3  -10.50   40.40
   1 -18   3   33.80   37.00
  17 -18  -3   -4.30   25.10
   1  17  -3    2.70   33.80
  17   1   3   52.49   47.30
 -18   1  -3   80.89   42.20
 -18  17   3  -36.70   35.10
   1  17  -3   47.60   43.20
  18 -17  -3  115.39   45.50
  -1 -17   3    6.80   31.80
  18 -17  -3   57.29   31.60
  -1  18  -3   26.30   47.00
 -17  18   3   34.70   38.30
  18 -17  -3   16.40   25.50
  18  -1   3   30.70   50.29
  -1  18  -3   17.50   33.40
 -17  -1  -3   84.19   45.90
   2 -18   3  132.49   39.00
  16 -18  -3  255.77   47.90
 -18  16   3  237.28   34.50
 -18   2  -3  314.87   77.89
   2  16  -3  206.88   49.20
 -18  16   3  349.07   62.49
  16   2   3  155.18   49.30
   2  16  -3  198.88   41.30
 -16  18   3  282.57   69.69
  18  -2   3  234.18   56.69
  -2  18  -3  254.67   51.59
  18 -16  -3  174.78   38.00
  18 -16  -3  239.38   45.90
  18 -16  -3  348.37   59.99
  -2  18  -3  272.07   44.90
  -2 -16   3  187.08   43.90
 -18  15   3  191.78   33.40
   3  15  -3  106.39   44.90
   3  15  -3  162.18   38.60
  15 -18  -3  232.18   48.50
 -18  15   3  193.58   39.00
  15   3   3  167.28   53.29
   3 -18   3  127.39   41.50
  18 -15  -3  169.58   36.70
  18  -3   3  153.18   47.40
  -3  18  -3  159.38   51.59
  -3  18  -3  240.58   44.30
  -3  18  -3  147.29   40.20
  18 -15  -3  222.58   43.90
  18 -15  -3  220.08   58.79
  -3 -15   3   86.99   34.80
 -15  18   3  272.07   69.19
   4 -18   3   29.70   47.80
   4 -18   3  175.68   42.10
 -18   4  -3  164.48   53.19
   4  14  -3   49.60   44.90
 -18  14   3  167.78   31.50
  14 -18  -3  198.28   47.40
 -18  14   3   63.39   36.40
  14   4   3   43.80   62.29
   4  14  -3  112.89   34.80
  -4  18  -3   68.99   34.30
  18 -14  -3  100.89   28.20
 -14  18   3  191.38   37.90
  18  -4   3   95.39   61.99
 -14  -4  -3  279.57   71.89
  18 -14  -3  181.58   34.50
 -14  -4  -3  213.08   47.40
 -14  18   3  117.69   33.70
  18 -14  -3   79.69   37.60
 -14  -4  -3  151.98   32.50
  -4 -14   3   81.09   48.70
  -4  18  -3  113.99   33.10
 -14  18   3  194.48   46.30
   5 -18   3   87.39   41.30
   5  13  -3   40.60   31.40
 -18  13   3   79.59   30.50
   5  13  -3   31.10   37.10
   5 -18   3   76.59   38.10
  13 -18  -3   51.09   31.80
   5  13  -3   73.59   46.00
  13   5   3   21.80   51.59
 -18   5  -3   78.69   39.70
  18 -13  -3   82.59   37.20
  -5 -13   3   70.09   55.59
  -5  18  -3   84.09   42.60
 -13  18   3   71.29   33.20
 -13  18   3   62.89   25.10
  18 -13  -3   14.40   24.50
 -13  -5  -3   66.39   31.30
 -13  18   3   91.59   37.30
  18  -5   3   33.30   42.10
 -13  -5  -3  181.88   47.20
  18 -13  -3   52.19   25.40
   6 -18   3   20.10   24.40
   6 -18   3   67.89   36.30
   6 -18   3  120.99   41.10
   6  12  -3   12.40   25.40
 -18   6  -3   28.70   37.10
   6  12  -3   68.99   43.50
 -18  12   3   34.70   15.80
 -18  12   3   34.30   26.90
  12 -18  -3   41.30   29.90
  12   6   3  -16.90   40.90
 -12  -6  -3   39.80   28.70
  18 -12  -3   19.80   34.40
 -12  -6  -3   47.40   28.40
  -6  18  -3  -60.79   42.10
  18 -12  -3   39.30   20.80
 -12  18   3   18.40   33.80
 -12  18   3   36.40   36.10
  18 -12  -3   17.50   24.30
  -6 -12   3   10.80   34.50
  18  -6   3   31.90   41.10
 -12  18   3   30.20   20.60
  -6  18  -3  -24.00   29.70
 -18   7  -3   12.30   36.90
   7 -18   3    5.20   23.70
  11   7   3   28.60   27.70
  11 -18  -3   50.09   32.10
 -18  11   3   18.40   17.20
   7  11  -3   50.29   40.80
 -18  11   3  -12.20   27.00
   7 -18   3   74.69   37.50
   7  11  -3    7.20   24.30
  11   7   3  -16.20   43.20
   7  11  -3  -22.50   29.60
  -7  18  -3  -63.49   43.70
 -11  -7  -3   10.90   29.30
 -11  18   3   33.10   21.80
 -11  18   3   28.70   31.10
 -11  18   3   49.40   37.00
  18 -11  -3   17.60   31.90
  -7  18  -3   18.00   32.20
  -7 -11   3   28.60   59.99
  18 -11  -3   33.10   21.10
 -11  -7  -3   43.00   30.10
 -11  -7  -3  117.19   40.30
  18  -7   3    8.50   40.30
  -7 -11   3    4.10   34.40
   8 -18   3  133.29   43.90
   8 -18   3   54.69   27.40
   8  10  -3    6.30   25.70
  10   8   3   85.19   31.10
   8  10  -3   38.80   43.10
  10   8   3  -25.10   42.20
  10 -18  -3   28.70   28.20
   8  10  -3    5.20   29.60
 -18  10   3   57.09   18.40
 -18   8  -3   49.60   40.20
 -10  18   3    1.90   35.40
  18 -10  -3   20.60   21.40
  -8 -10   3   15.20   38.10
  -8 -10   3  -16.60   38.40
 -10  -8  -3   -1.90   28.90
  -8  18  -3   49.20   45.80
 -10  -8  -3   74.09   31.30
  18  -8   3   56.19   42.20
  18 -10  -3   12.20   32.70
 -10  18   3   55.29   35.00
  -8  18  -3    9.40   31.10
 -10  -8  -3   80.99   40.50
   9 -18  -3   81.79   32.10
   9   9   3   48.60   40.00
   9   9   3  112.29   33.80
 -18   9   3   72.59   27.50
   9   9  -3  114.59   42.90
 -18   9  -3  121.59   40.20
   9   9  -3   95.49   34.50
   9 -18   3  108.19   28.30
   9   9  -3   62.29   27.80
  -9  -9   3   61.49   37.70
  -9  -9   3   88.09   40.20
  -9  -9  -3   92.39   39.70
  18  -9  -3   96.09   38.50
  18  -9  -3  124.39   30.30
  -9  18   3   90.39   34.00
  -9  -9  -3   68.79   31.40
  -9  18  -3   67.59   31.40
  18  -9   3   39.90   38.90
  -9  18  -3  114.59   47.90
  -9  18   3   68.09   36.40
  -9  -9  -3  126.79   32.60
 -18   8   3   57.09   25.10
   8 -18  -3   43.30   31.50
  10   8  -3   17.90   23.60
  10   8  -3   14.40   38.40
  10 -18   3   37.10   25.30
 -18  10  -3   30.50   38.80
  10   8  -3   75.89   30.00
   8  10   3   -3.80   41.90
  -8 -10  -3   10.90   28.80
  18  -8  -3   40.40   20.60
 -10  -8   3   47.10   36.80
  -8 -10  -3    5.30   28.80
 -10  18  -3   22.80   29.00
  -8  18   3   46.50   34.50
  -8 -10  -3    0.90   35.60
 -10  -8   3   41.40   36.60
  -8  18   3   23.10   34.60
  18 -10   3   32.20   34.60
 -10  18  -3   10.80   47.60
  18  -8  -3   30.20   23.30
  18  -8  -3   -3.40   31.10
 -18  11  -3   60.89   41.10
  11   7  -3   59.49   27.60
  11 -18   3   77.69   28.20
  11   7  -3   59.99   40.60
  11 -18   3  162.98   48.00
   7 -18  -3   47.60   31.70
   7  11   3   63.69   39.00
   7  11   3   36.50   41.80
  11   7  -3  -37.30   53.79
  -7  18   3   98.49   37.40
  -7 -11  -3   92.19   32.40
  -7  18   3   88.99   36.00
 -11  -7   3   53.69   36.20
  18  -7  -3   76.79   22.10
 -11  -7   3   65.39   37.90
  18 -11   3   69.39   34.20
  18  -7  -3   47.80   36.40
 -11  18  -3   86.09   49.40
  -7 -11  -3   68.19   31.80
 -11  18  -3   62.49   30.20
  12   6  -3   21.00   25.80
   6  12   3  -20.20   41.50
  12   6  -3   11.10   40.50
 -18   6   3   59.09   24.70
  12 -18   3   21.30   28.00
   6  12   3   95.39   39.30
  12   6  -3  138.09   50.09
 -18   6   3   63.59   26.30
   6 -18  -3   18.80   31.40
 -18  12  -3   23.30   41.50
  18 -12   3    2.30   33.50
 -12  18  -3    0.80   26.90
  18  -6  -3    0.20   33.00
  -6 -12  -3   18.00   30.00
 -12  -6   3  -23.40   39.00
  18  -6  -3   35.50   19.70
  -6 -12  -3   13.60   30.10
  18  -6  -3  -21.60   21.90
  -6  18   3   12.60   35.40
 -12  18  -3   21.10   47.30
 -12  -6   3   11.00   36.00
  -6  18   3   34.20   36.70
 -18  13  -3  103.19   45.40
  13   5  -3   16.60   28.50
 -18   5   3   85.49   25.90
  13 -18   3  172.98   40.70
   5  13   3  110.39   62.39
   5 -18  -3  105.79   45.70
  13   5  -3   73.89   41.30
  18  -5  -3   70.69   25.30
  -5  18   3  160.28   55.89
  -5 -13  -3   70.89   32.90
  18  -5  -3   42.70   50.69
  -5 -13  -3   45.40   33.10
  -5  18   3   76.19   39.30
 -13  -5   3   84.49   37.00
 -13  -5   3  103.79   40.60
 -13  18  -3   53.99   30.00
  18 -13   3  157.18   53.39
 -13  18  -3  115.09   48.10
 -18   4   3  629.24   52.89
 -18   4   3  602.94   51.19
 -18  14  -3  629.24   74.49
   4 -18  -3  471.75   80.09
  14   4  -3  547.15   66.09
   4  14   3  501.45   73.09
  14   4  -3  568.54   51.29
  14 -18   3  612.54   50.49
  -4 -14  -3  513.65   62.49
  18 -14   3  497.95   71.79
  18  -4  -3  629.44   47.10
  18  -4  -3  619.14   46.20
 -14  -4   3  603.14   61.19
  18  -4  -3  420.86   68.19
  -4  18   3  540.75   57.69
  -4 -14  -3  572.14   56.89
 -14  -4   3  573.34   66.49
 -14  18  -3  577.84   76.89
 -18   3   3  726.93   57.79
   3  15   3  650.93   70.49
   3  15   3  845.12   81.19
  15   3  -3  650.03   67.39
   3 -18  -3  604.94   58.09
 -18  15  -3  681.83   74.69
  15   3  -3  659.43   53.69
 -18   3   3  505.05   57.19
  15 -18   3  609.04   58.69
 -15  18  -3  731.63   77.09
 -15  -3   3  648.14   58.89
  -3  18   3  595.64   65.79
  -3 -15  -3  681.43   61.39
  18 -15   3  693.43   56.39
  18  -3  -3  624.54   63.79
 -15  -3   3  470.45   66.79
  18  -3  -3  770.22   67.39
  18  -3  -3  652.43   50.49
  -3 -15  -3  646.04   82.29
 -18   2   3   84.49   31.60
 -18  16  -3   92.69   47.60
 -18   2   3   95.59   37.10
  16 -18   3   72.29   33.30
   2  16   3   43.40   41.90
  16   2  -3   41.10   38.60
   2 -18  -3   35.30   34.60
 -16  -2   3   66.49   37.70
 -16  -2   3  -10.70   37.60
  -2  18   3   47.20   37.40
  18  -2  -3   27.80   22.90
  18  -2  -3   35.70   36.70
 -16  18  -3   84.99   49.00
  18 -16   3   75.49   35.50
  17   1  -3  460.45   52.79
   1  17   3  557.44   61.49
  17 -18   3  532.55   52.09
 -18   1   3  536.55   59.69
   1 -18  -3  535.85   59.89
 -18  17  -3  642.54   78.39
  17   1  -3  571.14   64.19
  -1  18   3  538.05   62.69
 -17  18  -3  586.54   81.19
  18  -1  -3  578.64   50.19
  18  -1  -3  567.84   64.69
 -17  -1   3  520.65   62.89
 -17  -1   3  451.35   83.39
  18 -17   3  559.44   52.89
  -1 -17  -3  472.65   57.59
  18   0  -3  767.32   56.39
 -18   0   3  726.03   66.19
   0  18   3  601.34   65.39
 -18  18  -3  676.33   82.89
   0 -18  -3  612.74   61.99
  18 -18   3  731.03   55.79
  18   0  -3  721.23   66.59
   0 -19   3   -3.80   36.80
  19 -19  -3   28.80   28.20
 -19   0  -3   87.19   44.50
   0  19  -3    3.00   36.70
  19   0   3   71.19   49.30
  19 -19  -3   53.59   32.40
  18 -19  -3  245.28   50.49
  18 -19  -3  171.48   40.00
  18   1   3  335.47   68.89
   1  18  -3  188.68   45.20
  18 -19  -3  223.68   55.89
  19 -18  -3  202.68   38.80
  19 -18  -3  259.77   58.49
  -1 -18   3  108.39   37.80
  19  -1   3  332.37   70.99
  19 -18  -3  282.07   59.09
  -1  19  -3  207.68   49.50
 -19   2  -3  354.16   68.69
   2  17  -3  321.27   55.19
 -19  17   3  394.76   67.79
  17 -19  -3  202.28   50.19
  17   2   3  312.37   69.49
   2  17  -3  254.07   60.69
  17 -19  -3  290.97   49.20
  19 -17  -3  324.87   62.59
  -2  19  -3  297.97   51.69
  19  -2   3  360.96   68.59
  19 -17  -3  274.47   47.90
  19 -17  -3  220.48   42.00
 -19  16   3  129.99   37.40
   3  16  -3   26.90   37.70
  16 -19  -3   61.89   32.70
 -19   3  -3  107.49   44.50
   3 -19   3   38.30   35.30
   3  16  -3   51.69   49.70
  16   3   3   15.80   46.10
  16 -19  -3   65.09   44.00
  19 -16  -3   90.89   31.90
  -3  19  -3   75.69   54.89
  -3 -16   3   20.60   38.60
  19 -16  -3  101.79   29.50
 -16  -3  -3  112.59   48.40
  -3  19  -3   86.89   34.90
  19 -16  -3   83.59   44.70
  19  -3   3   70.19   49.00
  15   4   3   31.20   44.80
 -19  15   3   47.00   18.70
   4 -19   3   31.30   38.20
  15 -19  -3  -22.70   40.90
   4  15  -3  105.69   48.20
 -19   4  -3   72.79   42.10
  15 -19  -3   64.29   47.70
   4  15  -3   42.70   35.50
  -4  19  -3   77.49   48.60
 -15  -4  -3   37.80   36.30
  19  -4   3   44.70   42.80
  19 -15  -3   73.29   29.90
  19 -15  -3   78.89   27.90
  19 -15  -3   63.09   39.40
 -15  -4  -3  150.48   49.20
 -15  19   3   70.79   34.80
  -4  19  -3   75.89   31.80
  -4 -15   3    1.20   35.40
  14   5   3   65.39   44.20
   5 -19   3   87.69   42.40
 -19  14   3   18.50   26.60
   5  14  -3  137.59   47.30
  14   5   3  -21.10   45.20
 -19   5  -3  117.99   43.60
  14 -19  -3  -20.60   40.70
 -19  14   3   75.19   32.30
   5  14  -3   53.49   34.00
  19 -14  -3   97.59   42.40
  19 -14  -3   53.09   27.10
  19 -14  -3   86.09   29.10
  19  -5   3   65.69   45.30
  -5  19  -3   47.80   46.70
 -14  -5  -3  134.09   33.00
  -5 -14   3   23.70   36.80
  -5  19  -3   -6.90   35.50
 -14  19   3   58.19   33.60
 -19   6  -3  138.49   42.00
   6 -19   3  144.19   30.50
   6 -19   3  210.78   42.70
   6  13  -3  179.78   50.79
 -19  13   3  154.98   35.10
 -19  13   3  194.78   30.80
  13   6   3  134.59   49.10
 -13  -6  -3  262.57   58.29
  19 -13  -3  179.58   40.50
 -13  19   3  137.39   36.90
 -13  -6  -3  267.77   54.19
  -6  19  -3  167.48   49.80
  19  -6   3  159.48   44.90
  -6  19  -3   98.09   35.60
  -6 -13   3  116.79   39.60
  19 -13  -3  159.08   41.40
  19 -13  -3  151.28   36.50
   7  12  -3   18.90   46.20
   7 -19   3   63.59   38.10
   7  12  -3    9.00   32.70
 -19  12   3    0.40   17.40
 -19  12   3   72.39   28.50
 -19   7  -3   39.70   38.60
  12   7   3  -11.10   44.30
   7 -19   3   -3.10   24.70
  19 -12  -3   34.50   23.50
  19  -7   3   25.80   41.30
 -12  -7  -3   96.79   33.80
  19 -12  -3   31.00   35.90
 -12  -7  -3    7.10   30.50
 -12  -7  -3  132.09   46.50
 -12  19   3   52.09   35.00
  -7  19  -3   15.20   45.00
  -7 -12   3   -4.70   35.10
  -7  19  -3   -1.70   32.90
   8 -19   3  107.49   29.50
   8  11  -3  102.69   37.60
 -19   8  -3  220.18   59.79
 -19  11   3  138.39   24.20
  11   8   3   42.90   29.90
   8  11  -3  182.48   47.20
 -19  11   3   85.39   30.70
  11   8   3   92.79   48.20
 -11  19   3  139.29   39.60
 -11  -8  -3  153.08   35.80
  19 -11  -3   65.49   25.10
  -8  19  -3  157.38   51.49
  -8  19  -3   61.89   33.10
  -8 -11   3   90.89   45.00
  19 -11  -3   99.79   37.40
 -11  -8  -3   93.39   44.90
 -11  -8  -3   69.79   33.20
  19  -8   3  161.28   47.20
 -19  10   3   51.59   19.70
  10   9   3  -18.40   43.30
   9 -19   3   14.50   27.40
 -19  10   3  -33.90   27.10
   9  10  -3   -3.50   34.80
 -19   9  -3   67.79   41.00
   9  10  -3   30.00   41.50
  10 -19  -3    9.80   55.69
  10   9   3   86.29   32.70
 -10  -9  -3   36.30   30.70
  19 -10  -3   22.30   33.50
  -9  19  -3   -5.80   46.20
  -9  19  -3   -8.30   31.50
 -10  -9  -3   38.60   31.30
  19 -10  -3   22.70   22.40
  19  -9   3    1.70   39.30
 -10  -9  -3    4.90   40.90
 -10  19   3    6.20   32.10
  10 -19   3  113.89   30.00
   9  10   3   49.50   44.30
  10   9  -3   92.59   39.40
  10   9  -3   91.69   40.10
 -19  10  -3  141.29   45.00
   9 -19  -3   84.69   41.80
  10   9  -3  124.09   43.90
   9  10   3  101.09   36.70
  19  -9  -3   92.89   56.39
  19  -9  -3  151.78   35.80
 -10  19  -3   72.89   33.40
  -9 -10  -3  127.29   34.90
 -10  19  -3  103.99   50.39
 -10  -9   3   84.09   55.19
  -9  19   3  121.99   39.90
  -9 -10  -3   64.29   43.90
  19 -10   3  135.69   43.30
  -9 -10  -3   87.99   33.50
  11 -19   3   73.49   30.00
  11 -19   3  111.59   46.00
 -19  11  -3   59.19   43.20
   8  11   3   62.49   46.40
  11   8  -3  128.99   38.50
   8 -19  -3   46.20   29.30
  11   8  -3   94.09   47.10
  11   8  -3   -5.50   33.00
 -11  -8   3   83.09   40.20
  19 -11   3   49.70   37.20
  19  -8  -3  103.79   28.60
  -8 -11  -3   67.69   32.50
 -11  19  -3   28.90   52.39
  19  -8  -3   71.39   22.80
 -11  19  -3   70.79   33.30
  19  -8  -3   27.70   54.09
  -8 -11  -3  -20.20   37.90
  -8  19   3   86.99   34.30
  -8 -11  -3   87.09   34.10
  12   7  -3  102.59   42.30
   7 -19  -3   63.09   30.20
  12 -19   3   91.49   31.60
 -19  12  -3   78.59   46.20
  12   7  -3   51.89   28.10
   7  12   3    8.30   42.10
 -12  19  -3   68.39   32.30
  -7 -12  -3   71.99   33.70
  19  -7  -3   71.59   22.00
  -7 -12  -3   44.90   46.50
 -12  -7   3   92.79   41.30
 -12  19  -3   33.10   51.29
  19  -7  -3   90.59   37.90
  -7 -12  -3  108.29   36.20
  19 -12   3   96.39   36.40
  -7  19   3   84.59   38.90
  19  -7  -3  167.78   37.40
 -19   6   3  247.38   45.20
   6 -19  -3  268.47   51.99
  13   6  -3  260.47   62.99
  13 -19   3  190.88   62.99
   6  13   3  143.49   44.50
 -19  13  -3  262.17   66.39
   6  13   3  334.07   65.59
  13   6  -3  211.78   47.60
  -6 -13  -3  267.07   57.59
  19  -6  -3  258.77   41.70
  19  -6  -3  200.98   51.59
  -6 -13  -3  264.97   50.99
 -13  19  -3  178.08   35.00
 -13  -6   3  238.48   45.10
 -13  19  -3  267.27   60.29
  19  -6  -3  313.67   38.90
  19 -13   3  243.18   47.30
  14 -19   3  118.39   33.20
  14   5  -3   42.40   28.20
 -19   5   3  127.19   33.70
   5 -19  -3   77.99   33.60
 -19  14  -3  142.09   52.49
   5  14   3  166.88   43.30
   5  14   3   77.69   46.40
  14   5  -3  124.59   44.40
  19  -5  -3   77.49   24.10
  -5  19   3  103.99   41.10
  19  -5  -3  192.88   40.90
 -14  19  -3   70.29   49.99
  19  -5  -3  104.09   38.70
  -5 -14  -3  130.79   37.00
 -14  -5   3   94.89   41.10
  19 -14   3  109.89   35.20
  -5 -14  -3   69.99   36.70
  15   4  -3   94.59   32.30
  15 -19   3  111.49   34.10
   4  15   3   40.30   42.10
   4 -19  -3   60.39   38.10
 -19   4   3   50.59   29.30
 -19   4   3  128.39   34.50
 -19  15  -3  108.19   48.20
 -15  19  -3  108.99   51.39
  -4  19   3   66.89   37.70
  19  -4  -3  165.58   39.00
  -4 -15  -3  105.79   40.30
  19 -15   3   99.09   35.10
  19  -4  -3   78.49   37.50
 -15  -4   3  100.69   41.70
  16   3  -3  533.45   65.39
 -19   3   3  611.64   58.19
   3 -19  -3  486.75   56.69
  16   3  -3  588.64   78.19
  16 -19   3  536.35   51.89
 -19   3   3  431.16   62.29
  16 -19   3  822.22  118.09
 -19  16  -3  525.45   72.99
   3  16   3  538.45   69.29
  19 -16   3  542.75   54.89
  19  -3  -3  577.54   60.89
  -3 -16  -3  503.15   60.29
 -16  -3   3  516.45   80.99
  19  -3  -3  548.05   51.09
  -3  19   3  477.15   59.39
 -16  19  -3  513.95   77.89
 -19  17  -3  644.34   78.69
 -19   2   3  680.83   62.29
  17   2  -3  634.44   67.09
   2 -19  -3  610.44   61.89
  17 -19   3  664.63   55.49
   2  17   3  626.84   72.59
 -19   2   3  559.34   67.59
  19  -2  -3  683.93   54.09
  19 -17   3  636.34   56.79
  19  -2  -3  629.54   64.89
 -17  19  -3  722.13   82.79
  -2 -17  -3  588.34   62.79
  -2  19   3  690.93   65.89
   1 -19  -3   39.60   37.70
 -19  18  -3   72.39   50.89
   1  18   3   84.39   49.10
 -19   1   3   70.59   41.60
  18   1  -3   39.40   35.80
  18 -19   3   55.09   31.90
  19  -1  -3   23.50   29.60
 -18  -1   3   64.89   47.20
 -18  19  -3   16.70   66.39
  19 -18   3   98.49   36.00
  -1  19   3   54.19   40.20
  -1 -18  -3   36.50   35.60
  19  -1  -3   19.20   36.80
  19   0  -3  127.19   39.20
   0 -19  -3  151.88   43.00
  19 -19   3  254.57   46.80
 -19  19  -3  151.08   58.29
   0  19   3  239.48   61.99
 -19   0   3  188.28   44.80
   2 -20   3  -32.80   37.90
  18 -20  -3   44.50   45.20
  18   2   3   56.99   47.10
 -20   2  -3  104.59   44.20
   2  18  -3   -5.80   38.40
  18 -20  -3   70.49   32.80
  -2  20  -3    7.20   35.90
  20 -18  -3   13.40   30.50
  20 -18  -3   18.40   35.20
  -2 -18   3   -1.20   33.90
 -18  -2  -3   81.29   51.39
  20 -18  -3   51.49   45.10
  20  -2   3  104.39   49.40
  17 -20  -3   79.69   44.30
   3 -20   3    8.90   37.20
  17   3   3   77.39   48.80
  17 -20  -3   98.29   34.60
 -20   3  -3  246.48   64.49
   3  17  -3  180.68   67.79
   3  17  -3   68.09   41.00
  20  -3   3  143.49   52.79
  -3 -17   3   29.60   32.40
 -17  -3  -3  133.89   55.89
  20 -17  -3   95.79   31.30
  20 -17  -3  118.59   47.30
  20 -17  -3  116.89   49.10
   4 -20   3   66.39   40.30
   4  16  -3   69.09   54.59
  16 -20  -3   65.79   41.80
  16 -20  -3   95.39   34.60
  16   4   3  119.59   50.49
 -20   4  -3  113.19   45.10
 -20  16   3  232.48   62.79
 -16  20   3   91.39   49.20
  20 -16  -3  177.18   48.90
  20 -16  -3  112.69   32.30
  20  -4   3  126.59   48.60
  -4 -16   3   50.99   36.60
  -4  20  -3  116.69   53.89
 -16  -4  -3  178.68   53.49
  20 -16  -3  123.19   31.20
 -20   5  -3   99.99   43.10
   5  15  -3   96.99   52.49
  15 -20  -3  161.98   43.00
  15   5   3   72.19   48.60
  15 -20  -3  103.49   36.10
   5 -20   3  138.89   42.80
  20 -15  -3  172.88   50.79
 -15  20   3  100.09   39.20
  20  -5   3  118.79   45.30
  -5  20  -3  188.28   47.60
  20 -15  -3  121.49   30.80
  20 -15  -3  187.28   42.20
  -5 -15   3  105.89   39.20
   6 -20   3   71.39   42.00
 -20  14   3   45.70   18.70
  14 -20  -3   32.80   31.90
 -20  14   3   84.69   32.20
   6  14  -3   55.99   47.80
  14   6   3  -23.30   44.70
 -20   6  -3   67.19   41.10
  20 -14  -3    3.30   27.90
  -6  20  -3   -7.40   49.10
 -14  20   3   21.90   36.90
  20 -14  -3    6.30   27.00
  20  -6   3   66.79   44.70
 -14  -6  -3  115.89   34.40
 -14  -6  -3  116.29   50.59
  -6 -14   3  -23.00   36.00
 -20  13   3  302.07   54.59
  13 -20  -3  191.48   47.10
   7 -20   3  270.47   62.99
 -20   7  -3  287.77   64.99
  13   7   3  119.59   51.19
  13   7   3   94.79   34.60
   7  13  -3  293.27   53.09
   7 -20   3  125.69   32.00
 -20  13   3  140.39   34.70
  20 -13  -3  237.08   38.20
  -7 -13   3  125.19   41.50
 -13  -7  -3  254.17   56.19
  20  -7   3  264.07   61.29
 -13  20   3  182.58   43.10
  -7  20  -3  105.69   38.50
  -7  20  -3  218.38   55.19
  20 -13  -3  178.28   50.09
   8  12  -3   46.30   38.80
 -20   8  -3  145.69   44.10
  12 -20  -3   91.19   34.10
  12   8   3   59.59   47.10
 -20  12   3    6.60   31.00
   8 -20   3  158.48   45.90
   8  12  -3  171.68   49.20
   8 -20   3   98.99   34.00
  12   8   3   67.19   30.90
 -20  12   3   79.09   21.90
 -12  -8  -3  109.89   36.00
  20  -8   3  130.49   46.10
  -8  20  -3   77.69   35.90
 -12  -8  -3   58.89   47.50
  -8 -12   3   87.59   40.80
  20 -12  -3  112.19   41.60
  20 -12  -3  136.39   29.00
  -8  20  -3  104.09   51.19
 -12  20   3  128.99   43.60
 -12  -8  -3  217.38   49.80
  11   9   3  149.09   51.79
 -20   9  -3  169.48   44.40
   9  11  -3  114.49   44.50
 -20  11   3   69.69   34.20
   9  11  -3  206.58   51.69
 -20  11   3  116.99   34.80
  11 -20  -3  102.39   31.90
 -20  11   3   95.09   23.20
 -11  -9  -3  149.59   49.80
 -11  20   3   73.59   54.39
 -11  -9  -3  162.68   37.30
  -9  20  -3  197.18   54.39
 -11  -9  -3  103.29   34.90
  20 -11  -3  106.89   29.10
  20 -11  -3  119.69   40.90
  20  -9   3  132.39   44.90
  -9  20  -3   85.99   36.60
  -9 -11   3  107.49   40.60
  10 -20  -3  143.09   34.50
  10 -20   3  245.88   58.99
 -20  10  -3  278.57   61.89
  10  10  -3  259.37   68.79
  10  10   3  263.97   57.99
  10  10   3  170.58   49.40
  20 -10  -3  118.79   39.00
 -10 -10  -3  240.98   50.89
  20 -10   3  174.08   44.60
 -10 -10   3  148.19   41.50
 -10  20  -3  134.09   36.00
 -10 -10  -3  104.49   50.39
 -10  20  -3  170.78   57.49
 -10 -10  -3  204.38   55.49
  20 -10  -3  192.48   37.50
   9  11   3  -14.60   42.80
   9  11   3   77.79   35.70
  11   9  -3   87.69   44.80
  11 -20   3   57.89   29.70
   9 -20  -3   17.50   28.80
  11 -20   3  153.88   46.10
 -20  11  -3   52.49   41.00
 -11  -9   3   11.00   38.90
  -9 -11  -3   59.69   36.80
  20  -9  -3   10.30   34.90
  20  -9  -3   40.00   28.60
  20 -11   3   38.50   36.20
 -11  20  -3   53.39   49.90
  -9  20   3   47.00   37.30
  -9 -11  -3   54.89   33.20
 -11  20  -3    8.30   31.60
  12   8  -3  287.47   66.99
 -20  12  -3  254.87   64.09
  12 -20   3  270.47   42.00
  12   8  -3  402.16   65.59
  20 -12   3  295.37   53.29
  -8 -12  -3  245.78   53.19
 -12  20  -3  234.78   63.09
 -12  -8   3  240.18   56.19
  -8  20   3  255.87   51.59
  20  -8  -3  337.17   39.50
  -8 -12  -3  265.37   58.89
  20  -8  -3  266.87   44.40
 -20  13  -3   19.60   42.20
   7 -20  -3   72.99   36.00
 -20   7   3   15.80   26.00
   7  13   3   -8.40   44.50
  13   7  -3   48.40   43.20
   7  13   3  104.89   36.20
  -7  20   3   13.40   41.40
  20  -7  -3   35.60   38.10
 -13  20  -3   15.90   32.10
 -13  -7   3   37.50   41.70
 -13  20  -3   25.70   55.09
  20 -13   3   21.70   34.30
  -7 -13  -3   77.89   36.10
  20  -7  -3   38.20   28.60
  20  -7  -3   23.50   21.40
  -7 -13  -3   61.29   36.40
  14 -20   3  237.28   43.90
   6  14   3  297.27   66.59
   6  14   3   83.69   46.00
   6 -20  -3  131.59   36.80
 -20  14  -3  138.49   46.50
  14   6  -3  199.28   52.69
  20  -6  -3  231.98   59.89
 -14  20  -3  125.49   35.20
  -6 -14  -3  155.68   39.80
  20 -14   3  141.09   38.10
  20  -6  -3  183.38   39.50
 -14  -6   3  158.58   44.80
  -6  20   3   86.19   38.10
  20  -6  -3  117.39   41.50
 -14  20  -3   76.19   58.19
 -20  15  -3  302.77   75.19
  15 -20   3  333.47   44.30
  15   5  -3  342.37   64.89
   5 -20  -3  273.97   52.09
 -20   5   3  411.66   52.29
   5  15   3  263.87   65.19
 -20   5   3  305.37   52.69
 -15  20  -3  274.77   60.09
  20  -5  -3  276.27   55.59
  -5 -15  -3  291.67   57.09
  -5  20   3  276.07   54.69
 -15  -5   3  266.97   63.89
  20 -15   3  273.57   49.80
  16   4  -3  130.49   42.20
 -20  16  -3  145.89   47.90
  16 -20   3  129.19   35.10
 -20   4   3   56.89   31.40
   4  16   3  106.49   44.60
   4 -20  -3  128.89   39.70
 -20   4   3  129.09   40.10
  -4  20   3  103.19   40.80
  -4 -16  -3  129.69   40.40
 -16  -4   3  138.39   46.50
  20  -4  -3   93.19   33.90
  20  -4  -3  149.49   43.10
  20 -16   3  154.48   38.70
 -16  20  -3  112.69   54.79
  17   3  -3   43.40   39.40
 -20  17  -3   25.80   48.10
   3 -20  -3   35.30   34.00
  17 -20   3   51.09   31.00
 -20   3   3   80.89   38.90
   3  17   3   17.80   43.50
  20  -3  -3    7.00   27.30
 -17  -3   3   18.90   44.10
  20  -3  -3   32.50   35.60
  -3  20   3   45.80   39.30
 -17  20  -3   40.30   51.09
  -3 -17  -3   17.10   35.00
  20 -17   3   58.89   36.00
  18 -20   3  253.27   46.00
   2 -20  -3  261.37   53.99
  18   2  -3  295.37   60.69
   2  18   3  261.67   64.09
 -20  18  -3  324.77   74.09
  -2 -18  -3  177.68   40.40
  -2  20   3  306.07   58.49
  20  -2  -3  289.47   59.09
  20 -18   3  303.37   49.50
 -18  -2   3  244.28   49.70
 -21  16   3    8.60   41.50
   5  16  -3  -37.60   35.70
  16   5   3   14.00   46.60
 -21   5  -3   54.29   42.40
  16 -21  -3   22.60   36.00
   5  16  -3  159.98   52.79
   5 -21   3   -4.20   39.00
  21  -5   3   82.29   45.40
  -5 -16   3  -35.20   34.60
 -16  -5  -3  130.19   56.09
 -16  21   3   45.60   35.90
  -5  21  -3   20.10   35.00
  21 -16  -3   47.50   29.00
  21 -16  -3   12.50   30.10
  21 -16  -3   55.09   45.20
  15 -21  -3   54.39   32.40
   6 -21   3   82.59   44.20
   6  15  -3  149.19   52.59
  15   6   3   59.89   45.10
 -21   6  -3  107.49   42.50
  -6 -15   3   43.90   35.60
  -6  21  -3   63.99   32.10
  21 -15  -3    7.10   31.40
 -15  21   3   62.89   38.00
  21  -6   3   89.29   44.10
  21 -15  -3  100.79   43.20
   7  14  -3  296.27   57.19
  14 -21  -3  262.67   47.60
  14   7   3  132.69   51.69
   7 -21   3  341.17   59.89
   7  14  -3  199.88   57.19
 -21   7  -3  153.38   43.40
 -14  21   3  127.69   40.50
  21 -14  -3  251.07   39.90
  -7 -14   3  134.99   38.70
  21  -7   3  184.08   52.99
 -14  -7  -3  292.27   80.29
  21 -14  -3  245.08   62.09
 -21  13   3  106.39   24.40
   8  13  -3  199.48   56.09
  13   8   3  134.19   51.19
  13   8   3   79.99   35.70
   8 -21   3  148.39   37.80
  13 -21  -3  209.48   50.69
 -21   8  -3  235.38   62.89
   8  13  -3  120.29   45.00
 -13  -8  -3  178.58   55.39
  21 -13  -3  141.09   43.80
 -13  21   3  132.49   40.80
  21  -8   3  132.29   44.80
  -8 -13   3   64.79   39.50
 -13  -8  -3   63.29   37.80
  21 -13  -3  184.48   40.90
   9 -21   3  250.47   39.50
 -21   9  -3  309.87   63.49
 -21  12   3  170.88   40.10
   9  12  -3  315.67   64.59
  12   9   3  189.88   52.29
   9 -21   3  464.85   78.29
   9  12  -3  434.96   74.39
  12 -21  -3  274.67   52.59
 -12  -9  -3  298.47   52.69
  21 -12  -3  188.68   35.40
  -9  21  -3  304.27   61.99
  -9  21  -3  181.48   44.20
  21 -12  -3  291.67   57.99
  -9 -12   3  211.98   46.80
 -12  -9  -3  276.97   57.79
 -12  -9  -3  296.87   59.79
  21  -9   3  321.77   59.79
 -12  21   3  274.57   51.69
  10 -21   3  142.49   52.99
 -21  11   3   12.80   30.70
  11  10   3  -44.90   43.50
  10 -21   3   30.00   30.10
 -21  11   3   69.79   29.20
 -21  11   3   62.19   21.60
  10  11  -3  -32.30   46.00
  10 -21   3   41.90   55.39
 -21  10  -3   33.30   42.20
  10  11  -3   56.09   45.10
  11 -21  -3    1.40   29.60
  21 -10   3   42.00   41.20
 -10  21  -3    3.70   33.50
 -11 -10  -3  -24.70   45.60
 -11 -10  -3   59.29   36.20
  21 -11  -3    9.10   37.60
 -11 -10  -3   48.00   33.60
 -11  21   3   45.60   37.40
  21 -11  -3   -3.90   26.90
 -10  21  -3   25.00   52.59
 -10 -11   3    0.40   37.30
  10  11   3  253.17   60.89
  10 -21  -3  294.67   52.59
  11  10  -3  398.56   70.69
  11 -21   3  302.97   41.50
 -21  10   3  365.96   44.80
 -21  11  -3  401.86   64.29
 -10  21   3  299.67   52.39
  21 -11   3  328.37   54.69
  21 -10  -3  332.47   45.90
 -10 -11  -3  309.97   54.79
 -10 -11  -3  198.38   55.19
 -11  21  -3  182.38   62.99
  21 -10  -3  247.18   57.79
 -11  21  -3  199.38   40.70
 -10 -11  -3  363.76   61.29
 -11 -10   3  239.08   58.49
  12 -21   3  271.07   42.90
   9  12   3  158.28   49.90
   9 -21  -3  245.28   49.30
  12   9  -3  295.77   70.09
 -21  12  -3  286.47   65.19
   9  12   3  280.97   62.59
  -9  21   3  224.68   50.09
 -12  -9   3  194.58   46.00
  -9 -12  -3  194.08   42.70
  -9 -12  -3  332.07   61.09
  21  -9  -3  239.98   56.69
  21  -9  -3  223.88   45.50
 -12  21  -3  171.68   39.10
 -12  21  -3  281.67   60.49
  21 -12   3  245.58   51.69
   8  13   3   45.40   45.90
   8  13   3   80.89   39.70
  13   8  -3   35.80   54.29
  13   8  -3  110.29   46.90
  13 -21   3  138.09   35.40
 -21   8   3  199.98   45.70
   8 -21  -3  114.39   35.70
 -21  13  -3   91.79   43.20
  -8 -13  -3  102.89   38.60
  21  -8  -3   79.69   38.40
  -8  21   3  102.59   41.70
  21 -13   3  131.99   37.70
 -13  21  -3   70.39   59.09
 -13  -8   3  158.88   46.30
  21  -8  -3  210.88   47.70
 -13  21  -3   58.89   35.00
 -21   7   3  321.77   48.80
 -21  14  -3  185.18   49.99
  14   7  -3  137.89   46.70
   7 -21  -3  251.37   52.49
  14 -21   3  234.58   41.20
   7  14   3   89.39   45.00
  21 -14   3  284.37   50.09
 -14  21  -3  206.18   63.29
 -14  21  -3  169.48   39.70
 -14  -7   3  264.37   60.09
  -7  21   3  224.68   55.39
  -7 -14  -3  118.09   55.89
  21  -7  -3  184.28   45.40
 -21   6   3   29.60   35.20
  15   6  -3   17.80   41.20
   6 -21  -3  -11.30   33.50
   6  15   3  -14.30   42.20
 -21   6   3   -5.20   28.10
 -21  15  -3    6.80   45.80
  15 -21   3   37.20   29.50
  -6 -15  -3   15.90   35.40
 -15  -6   3   24.40   42.70
 -15  21  -3  -61.79   59.29
  21 -15   3   38.00   34.90
  21  -6  -3   13.70   24.00
  21  -6  -3    0.30   36.70
 -15  21  -3  -25.10   32.90
  -6  21   3   39.90   37.00
 -21  16  -3   69.59   48.70
 -21   5   3   65.39   39.40
  16   5  -3   44.90   40.70
   5 -21  -3   59.59   38.40
   5  16   3   62.09   47.20
  16 -21   3   74.09   31.60
  21 -16   3   98.69   37.60
  -5  21   3   52.79   40.50
 -16  -5   3   97.19   44.70
  21  -5  -3   53.79   40.00
 -16  21  -3   80.09   57.39
  -5 -16  -3   63.59   36.50
   9 -22   3   41.70   30.20
   9 -22   3  161.08   51.09
 -22  13   3  -46.20   34.50
  13   9   3    8.70   44.50
   9  13  -3  153.98   51.19
   9  13  -3   59.69   45.80
  13 -22  -3   83.99   37.80
  13   9   3  -70.09   54.59
 -13  22   3   52.29   37.70
  22 -13  -3   65.39   37.50
  -9 -13   3   39.30   37.40
  22  -9   3  102.19   42.60
 -13  -9  -3   16.30   42.60
  22 -13  -3   35.30   29.90
 -22  10  -3  472.75   67.09
 -22  12   3  397.06   44.50
 -22  12   3  434.06   47.50
  12  10   3  306.07   66.69
  12 -22  -3  390.26   52.49
  10 -22   3  338.97   41.90
  10  12  -3  338.37   70.39
 -12 -10  -3  505.25   67.09
 -10 -12   3  306.67   58.29
 -12  22   3  440.56   57.29
  22 -12  -3  310.07   49.70
 -12 -10  -3  293.87   81.29
  22 -12  -3  426.46   61.89
  22 -10   3  523.75   63.29
  11  11  -3  471.35   75.09
 -22  11   3  373.66   48.00
 -22  11  -3  377.96   65.69
  11 -22  -3  335.47   51.09
  11 -22   3  349.77   43.40
  22 -11   3  388.46   56.29
 -11 -11  -3  424.66   64.99
  22 -11  -3  349.17   58.69
  22 -11  -3  454.15   49.70
 -11 -11  -3  355.26   57.89
 -11  22   3  385.06   57.79
  10  12   3  -38.00   41.40
  12  10  -3   -8.20   48.00
  12  10  -3  107.29   51.89
  10 -22  -3   25.80   33.90
  12 -22   3   59.59   28.20
 -22  12  -3   15.30   41.00
 -10  22   3   19.30   36.10
  22 -10  -3    0.80   32.10
  22 -12   3    9.60   36.30
  22 -10  -3   10.50   35.70
 -12 -10   3    4.70   36.60
 -10 -12  -3   40.10   38.80
 -12  22  -3  -24.10   33.40
 -22   9   3  245.78   49.10
  13 -22   3  416.66   69.39
   9  13   3  127.29   48.60
  13   9  -3  277.17   63.99
   9 -22  -3  215.88   50.69
  13 -22   3  241.48   41.80
 -13  -9   3  263.77   58.39
  22 -13   3  278.27   52.49
 -13  22  -3  140.39   39.10
  22  -9  -3  216.48   55.69
  22  -9  -3  148.79   40.90
  -9  22   3  271.47   53.59
   0   0  -4   19.40   30.90
   0   0   4   25.00   15.60
   0   0  -4   10.90   15.30
   0   0   4    8.90   18.70
   1  -1  -4  668.73   36.00
   0   1  -4  635.44   59.89
  -1   0  -4  663.73   60.79
   0  -1   4  638.14   39.60
   0   1  -4  651.03   36.00
   1   0   4  603.44   40.30
   0  -1   4  594.24   34.00
   1  -1  -4  611.24   35.80
  -1   1   4  616.74   36.90
  -1   1   4  611.74   37.00
   1  -1  -4  631.94   58.69
   1   0   4  648.44   37.20
   1   0  -4   82.99   33.80
  -1   0   4   75.69   18.30
   1  -1   4   91.59   19.20
   0  -1  -4   93.99   17.80
   0   1   4  104.69   22.90
   0   1   4   73.29   17.30
  -1   0   4   66.29   17.90
   1  -1   4  115.59   26.90
   1   0  -4   94.09   18.40
  -1   1  -4  110.79   36.00
  -1   0   4  106.69   24.50
   1  -1   4   94.79   22.70
   0  -1  -4   73.89   35.50
   2  -2  -4  142.99   36.60
   0   2  -4  102.39   25.50
  -2   0  -4  103.89   23.30
   2  -2  -4  118.59   26.10
   0  -2   4   91.79   20.30
   2   0   4  101.19   25.10
   0   2  -4  233.98   52.09
   0  -2   4  123.39   23.50
  -2   2   4  121.69   28.70
   2  -2  -4  129.39   25.00
  -2   2   4  146.69   27.00
  -2   0  -4  180.48   47.30
   0  -2   4  124.69   22.80
   1   1  -4  823.22   42.00
   1   1  -4  845.82   64.49
   1  -2   4  834.22   40.30
   1   1   4  791.52   48.00
   1  -2   4  852.51   42.00
  -2   1  -4  852.11   62.39
  -2   1  -4  847.22   39.40
   1   1   4  837.02   41.80
   1  -2  -4  846.52   41.90
   1  -2  -4  821.22   40.90
  -2   1   4  867.11   38.10
   1  -2  -4  937.41   64.69
   1  -2   4  847.42   43.50
  -2   1   4  844.72   43.20
  -1  -1  -4  836.52   62.19
  -1  -1  -4  788.82   39.70
   2  -1   4  785.42   46.90
  -1  -1   4  812.82   35.70
  -1   2   4  804.92   42.50
   2  -1  -4  838.02   42.00
   2  -1  -4  845.72   65.59
   2  -1   4  793.42   39.00
  -1   2  -4  907.61   65.69
  -1  -1  -4  922.71   57.39
   2  -1   4  823.62   42.00
  -1   2   4  710.83   43.20
  -1  -1   4  849.72   46.10
  -1   2  -4  868.11   42.50
  -1  -1   4  819.62   42.30
  -2   2  -4  431.16   30.70
  -2   0   4  422.26   37.20
  -2   0   4  445.76   25.30
   0  -2  -4  400.86   30.30
   2  -2   4  413.86   30.60
   2   0  -4  447.76   58.19
   0  -2  -4  401.46   40.60
   2  -2   4  451.25   34.70
   2  -2   4  398.56   34.50
   0   2   4  459.35   32.20
   0  -2  -4  422.56   55.59
   2   0  -4  419.96   32.80
   0   2   4  394.56   37.40
  -2   0   4  403.76   33.60
  -2   2  -4  443.46   55.29
   3  -3  -4 1967.80   92.49
  -3   0  -4 1913.21   68.19
   0   3  -4 1987.40   92.09
  -3   0  -4 1890.91   89.19
   0  -3   4 1951.50   65.49
  -3   3   4 1867.31   71.59
   3   0   4 1932.31   69.99
   3   0   4 1960.00   78.89
  -3   3   4 1930.81   69.09
   3  -3  -4 1945.51   71.19
   0  -3   4 2006.90   75.59
   0  -3   4 1995.10   71.39
   3  -3  -4 1917.31   71.19
  -3   0  -4 1967.70   68.49
   0   3  -4 1987.20   71.89
   2  -3  -4  688.83   37.10
   2   1   4  725.33   37.40
   2   1   4  664.53   48.50
   1   2  -4  694.63   38.60
  -3   2   4  654.43   39.30
   1  -3   4  741.73   42.70
   1   2  -4  609.64   60.79
  -3   1  -4  708.23   60.49
  -3   2   4  747.83   35.10
   2  -3  -4  626.04   61.59
  -3   1  -4  690.63   35.10
   1  -3   4  762.32   44.20
   1  -3   4  708.73   36.00
   2  -3  -4  652.83   39.20
   3  -1   4  624.94   45.60
  -1  -2   4  741.43   42.30
   3  -2  -4  557.74   61.59
  -1   3  -4  613.74   62.39
  -1  -2   4  672.23   30.20
  -1   3  -4  696.83   38.20
   3  -2  -4  665.23   38.40
   3  -2  -4  656.13   38.10
  -2   3   4  684.63   40.70
  -2  -1  -4  641.24   57.19
  -1  -2   4  698.53   38.60
   3  -1   4  669.73   37.30
  -2  -1  -4  640.14   36.30
   1   2   4   78.49   28.50
   1   2   4   68.39   16.60
  -3   2  -4  190.58   49.50
   2   1  -4   71.79   18.70
  -3   1   4   70.69   18.10
   1  -3  -4   95.89   33.50
   2  -3   4   83.59   20.70
  -3   2  -4   62.79   15.30
   2   1  -4  124.79   39.40
   1  -3  -4   95.09   21.00
   2  -3   4   97.79   19.90
  -3   1   4   79.49   15.10
   2  -3   4   82.79   20.50
   3  -2   4   73.49   25.30
  -1   3   4   75.79   18.90
   3  -1  -4   64.59   17.10
   3  -1  -4   74.09   35.80
  -2   3  -4   57.29   19.00
  -1  -2  -4   83.79   19.50
  -2   3  -4  103.29   34.50
  -1   3   4   79.19   23.70
  -1  -2  -4   64.99   33.90
  -2  -1   4   83.79   21.50
   3  -2   4   81.79   18.30
  -2  -1   4   97.99   15.50
   3  -2   4   75.79   18.70
   3   0  -4  423.56   33.00
   0  -3  -4  469.95   56.79
  -3   3  -4  452.45   31.10
  -3   0   4  460.85   36.90
   3  -3   4  447.96   32.20
   0  -3  -4  494.15   34.60
   3   0  -4  449.46   58.79
  -3   3  -4  521.95   53.29
  -3   0   4  476.75   20.10
   3  -3   4  488.65   35.30
   0   3   4  416.36   32.70
  -3   0   4  458.85   35.10
   0   4  -4 1665.23   87.89
   0  -4   4 1857.91   68.49
   4  -4  -4 1694.83   67.49
   0  -4   4 1782.82   60.19
   4   0   4 1775.82   77.29
   0   4  -4 1900.71   68.79
   4   0   4 1853.01   65.79
  -4   4   4 1828.32   69.09
  -4   0  -4 1610.44   84.19
  -4   0  -4 1734.03   62.99
   0  -4   4 1927.01   83.19
   4  -4  -4 1626.14   86.29
  -4   4   4 1708.83   64.09
  -4   1  -4  147.99   22.70
   3   1   4  174.18   26.80
   3   1   4  235.68   38.80
  -4   3   4  196.58   32.00
   3   1   4  210.88   43.20
   3  -4  -4  213.08   28.70
   3  -4  -4  233.18   30.80
   1  -4   4  181.88   24.70
   1  -4   4  228.38   36.60
   1  -4   4  184.58   30.70
   1   3  -4  298.07   56.89
  -4   1  -4  250.37   53.99
   1   3  -4  202.48   28.40
   3  -4  -4  256.27   54.59
  -1  -3   4  190.18   18.50
  -1  -3   4  225.58   57.29
   4  -1   4  199.68   27.40
  -1   4  -4  276.77   56.39
  -3   4   4  216.08   30.40
  -1  -3   4  212.38   31.30
  -3  -1  -4  257.97   51.99
  -3  -1  -4  211.88   26.40
   4  -3  -4  240.28   30.00
   4  -1   4  159.88   37.50
  -3   4   4  167.48   28.80
  -1   4  -4  197.48   27.20
   4  -3  -4  206.78   51.69
   2   2  -4  868.41   67.79
   2  -4  -4  954.40   68.39
  -4   2   4  971.10   48.20
   2   2   4  938.11   43.40
  -4   2  -4  855.31   66.19
   2   2  -4  956.10   45.60
   2  -4  -4  915.11   46.70
   2  -4   4  976.50   43.70
  -4   2   4  991.10   36.60
   2  -4   4  977.60   45.40
  -4   2  -4  931.71   40.90
   2   2   4  895.11   54.29
   2   2   4  993.10   71.39
   2  -4   4  959.30   50.09
  -2   4  -4  915.71   67.09
   4  -2  -4  872.61   66.89
   4  -2   4  980.20   41.70
  -2   4   4  888.81   47.10
  -2  -2  -4  833.22   61.59
   4  -2   4  970.70   44.70
  -2  -2  -4  918.21   44.00
  -2  -2   4  985.60   50.59
  -2  -2   4  943.71   46.70
   4  -2  -4  877.41   51.79
  -2   4   4  915.41   48.00
  -2  -2   4  967.00   32.90
  -2   4  -4  955.70   44.60
   4  -2   4  948.31   53.09
   1  -4  -4  639.24   38.80
   3   1  -4  614.14   37.60
  -4   1   4  600.24   39.60
   1   3   4  622.14   49.00
   1   3   4  598.84   46.30
   3  -4   4  635.74   37.00
  -4   1   4  631.74   40.70
   1  -4  -4  634.64   59.49
  -4   3  -4  608.24   33.90
   3   1  -4  610.94   62.09
   1   3   4  658.43   37.40
   3  -4   4  651.13   41.90
  -4   3  -4  598.84   60.79
   4  -3   4  657.43   34.90
  -3  -1   4  660.33   42.50
  -3  -1   4  639.44   39.50
  -3   4  -4  658.13   58.69
   4  -3   4  644.14   37.90
   4  -3   4  682.13   44.40
  -3   4  -4  630.14   35.70
   4  -1  -4  615.94   62.79
  -1   4   4  573.34   47.30
  -1  -3  -4  627.64   59.89
  -1  -3  -4  682.73   58.89
  -1   4   4  658.23   49.70
   0  -4  -4  -11.20   32.50
   0   4   4   -1.20   24.70
   4  -4   4    2.20   18.00
   4  -4   4   -2.70   21.50
  -4   4  -4   40.70   33.40
  -4   4  -4   -2.70   13.50
   0   4   4  -10.10   14.90
   4   0  -4   -0.10   21.80
   4   0  -4   -1.00   35.80
   0   4   4   -7.20   23.60
  -4   0   4   18.00   21.40
  -4   0   4  -24.90   18.50
   0  -4  -4    0.90   17.20
   4  -4   4   21.10   17.50
   5  -5  -4  116.09   28.20
   0   5  -4  173.68   31.20
   5   0   4  136.29   34.40
   5   0   4   81.99   16.90
   0  -5   4  109.89   19.50
   5   0   4   83.59   24.30
   5  -5  -4  126.09   40.40
  -5   5   4  170.08   27.70
   0  -5   4  151.28   33.10
  -5   0  -4   94.69   18.80
   0  -5   4   96.49   26.10
  -5   5   4  112.19   29.30
   5  -5  -4  100.09   22.60
  -5   0  -4  149.49   38.70
   0   5  -4  135.89   41.10
   1  -5   4 2875.61   99.79
  -5   4   4 2857.31  101.69
   4  -5  -4 3170.98  119.79
   1   4  -4 3102.39  122.09
   4   1   4 2975.50   97.79
  -5   4   4 2874.71   94.39
   4  -5  -4 3087.99  102.19
   1  -5   4 2933.31  105.09
   1   4  -4 2935.91  101.99
   4   1   4 2961.00  105.19
  -5   1  -4 3033.60  116.99
   1  -5   4 2918.41   94.99
  -1  -4   4 2849.22  105.29
  -4  -1  -4 3090.39   97.89
   5  -4  -4 3014.90  100.99
  -1  -4   4 2968.00   91.09
   5  -4  -4 3039.60  100.79
   5  -4  -4 3183.48  122.29
  -1   5  -4 2898.61  100.59
  -4  -1  -4 3011.90  116.99
  -4   5   4 2857.01   98.79
  -1   5  -4 3047.90  119.89
  -4   5   4 2945.01  101.09
   5  -1   4 2982.60   97.59
  -1  -4   4 2872.21  101.19
  -5   2  -4  919.71   39.60
   2  -5   4  999.20   51.59
   2  -5   4  757.22   52.69
   2  -5   4  952.20   43.20
   3   2   4  975.00   56.29
   3   2   4  945.41   43.50
   3  -5  -4  857.21   66.79
   2   3  -4  998.00   52.89
  -5   3   4  944.21   47.20
  -5   2  -4  805.02   65.49
  -5   3   4  926.41   36.50
   3  -5  -4  856.91   47.90
   3   2   4  873.11   56.09
   2   3  -4  817.02   67.89
  -2   5  -4  890.71   69.19
   5  -3  -4  913.61   46.00
   5  -3  -4  820.82   68.89
   5  -2   4  947.11   56.99
  -2  -3   4 1003.80   52.59
  -3   5   4  935.81   49.10
  -3  -2  -4  899.11   43.60
  -3   5   4  946.41   47.60
  -2  -3   4  911.31   32.10
   5  -3  -4  969.10   46.00
  -2   5  -4  949.71   45.70
  -2  -3   4  943.11   47.80
   5  -2   4  953.70   43.50
   5  -2   4 1038.20   44.90
  -3  -2  -4  877.41   66.19
   2   3   4  120.19   28.00
   2   3   4  123.79   26.10
  -5   2   4  140.09   30.90
   3   2  -4  147.79   32.60
   2   3   4  141.39   32.00
   3  -5   4  130.39   29.30
   3  -5   4  146.39   36.20
  -5   3  -4  131.79   22.60
   2  -5  -4  208.38   53.99
  -5   3  -4  201.78   52.79
   2  -5  -4  153.98   29.70
   3  -5   4  137.79   33.60
   5  -2  -4  159.78   39.60
  -2  -3  -4  137.69   29.90
   5  -2  -4  135.79   27.90
  -3   5  -4  238.88   55.69
  -3  -2   4  137.49   30.50
  -2   5   4  121.99   27.80
   5  -3   4  143.89   27.90
  -3  -2   4  167.78   35.10
   5  -3   4  124.99   30.00
  -2  -3  -4  207.68   38.80
  -2   5   4  128.89   31.70
  -5   1   4  489.45   39.10
   1   4   4  491.95   45.60
   1  -5  -4  506.35   38.60
  -5   4  -4  501.65   32.00
   4  -5   4  492.45   37.90
  -5   1   4  445.56   37.20
   4   1  -4  485.35   36.70
   1  -5  -4  513.25   58.39
   4  -5   4  482.05   34.40
   4   1  -4  513.45   62.99
  -5   4  -4  544.25   59.49
   1   4   4  496.15   34.40
   1   4   4  506.25   49.30
   4  -5   4  495.25   39.10
  -1  -4  -4  574.74   58.49
  -4  -1   4  532.75   38.20
  -4  -1   4  518.05   41.10
   5  -4   4  475.45   33.00
  -1   5   4  479.35   36.00
  -1   5   4  515.45   50.69
  -1   5   4  510.35   46.00
   5  -1  -4  436.66   36.10
  -4   5  -4  523.55   33.80
  -4   5  -4  617.04   62.29
   5  -4   4  484.75   37.30
   5  -1  -4  483.95   60.19
   5  -4   4  431.46   43.70
  -1  -4  -4  517.85   36.90
   0   5   4   42.40   26.60
   0  -5  -4   66.39   37.10
  -5   0   4   48.60   22.20
  -5   0   4   53.79   22.90
  -5   5  -4   90.19   38.00
   5  -5   4   51.69   19.20
  -5   5  -4   48.30   15.00
   5   0  -4   53.79   36.30
   0   5   4   54.89   21.40
   5   0  -4   32.40   17.70
   0   5   4   65.49   29.10
   0  -5  -4   61.79   21.90
   5  -5   4   55.79   20.00
   5  -5   4   48.20   25.60
   6  -6  -4 2829.82  113.79
   0  -6   4 2425.96   92.49
  -6   0  -4 2751.32  108.19
  -6   6   4 2590.64   92.69
   0  -6   4 2629.84   83.49
  -6   6   4 2615.64   87.19
   0   6  -4 2629.64   97.59
   6   0   4 2573.34   95.09
   6  -6  -4 2672.83   93.39
   0  -6   4 2493.25   97.89
   0   6  -4 2744.33  114.29
   6   0   4 2542.35   86.59
   6   0   4 2594.84  103.49
   1   5  -4 2815.12  100.29
   5  -6  -4 2958.20  117.79
   1  -6   4 2764.62   97.39
  -6   5   4 2897.71   99.29
   5   1   4 2833.62  110.39
  -6   1  -4 2784.22  111.89
   1   5  -4 2719.23  116.69
  -6   5   4 2767.92   90.59
   1  -6   4 2875.11  103.29
   5   1   4 2847.52   93.59
   5  -6  -4 2758.72   99.19
   1  -6   4 2847.02   91.29
   5   1   4 2857.31  102.59
   6  -1   4 2849.42   99.19
  -1  -5   4 2802.02  103.89
  -1  -5   4 2906.61   87.59
  -5   6   4 2882.41   98.79
  -5  -1  -4 2710.83  112.39
   6  -5  -4 2868.31   97.29
   6  -5  -4 2747.03   97.99
  -1  -5   4 2797.82   98.39
  -5   6   4 2832.02   95.69
  -1   6  -4 2806.52  117.19
   6  -1   4 2799.52  107.29
   6  -5  -4 2763.02  117.19
  -5  -1  -4 2830.12   93.49
   6  -1   4 2869.31   92.99
  -1   6  -4 2852.71   98.59
   2   4  -4  152.98   34.60
   2  -6   4  207.78   38.60
   4  -6  -4  206.58   33.10
   2  -6   4  165.88   26.00
   2  -6   4  193.48   32.30
  -6   4   4  186.68   32.40
   4   2   4  158.38   35.40
   4   2   4  171.38   42.10
   4   2   4  154.78   27.40
   4  -6  -4  212.68   53.59
   2   4  -4  226.58   58.69
   6  -4  -4  173.68   30.20
  -4   6   4  214.68   45.60
  -4   6   4  154.18   30.90
  -2   6  -4  291.27   60.19
   6  -4  -4  130.29   29.40
   6  -2   4  199.08   26.70
  -4  -2  -4  209.68   53.39
  -4  -2  -4  171.68   28.20
  -4   6   4  198.68   34.20
  -2  -4   4  155.08   15.20
  -2  -4   4  205.28   39.50
  -2  -4   4  162.38   34.50
   6  -4  -4  213.58   56.09
   6  -2   4  159.28   34.40
  -2   6  -4  189.48   31.50
   3  -6  -4 1241.08   74.59
  -6   3   4 1159.58   54.39
   3   3   4 1191.78   62.29
   3   3   4 1170.38   50.09
   3  -6   4 1177.78   58.99
   3  -6  -4 1212.78   54.29
  -6   3  -4 1198.48   74.69
  -6   3  -4 1173.38   45.70
   3   3  -4 1187.08   54.89
   3   3  -4 1239.58   75.79
   3   3   4 1177.08   66.39
   3  -6   4 1165.68   50.89
  -3   6  -4 1165.08   51.69
  -3   6  -4 1197.18   75.09
  -3  -3  -4 1159.68   72.89
   6  -3   4 1239.08   47.50
   6  -3  -4 1226.98   76.69
  -3  -3   4 1144.99   55.09
  -3   6   4 1133.39   55.79
   6  -3  -4 1105.69   52.79
  -3   6   4 1167.48   52.99
   6  -3   4 1090.79   61.89
  -3  -3   4 1184.88   60.09
  -3   6   4 1195.18   65.59
  -3  -3  -4 1141.99   51.19
   6  -3   4 1158.58   49.90
   2  -6  -4  268.07   60.59
   4  -6   4  307.67   34.30
  -6   2   4  286.37   35.50
  -6   2   4  320.97   37.60
   2   4   4  313.57   46.20
   4   2  -4  316.87   34.20
  -6   4  -4  297.87   25.80
   2  -6  -4  285.67   36.10
   4   2  -4  386.86   62.29
   2   4   4  286.37   46.80
   2   4   4  278.47   29.60
   4  -6   4  371.86   39.90
  -6   4  -4  341.27   59.79
   4  -6   4  322.87   33.30
   6  -4   4  278.47   28.20
  -4  -2   4  342.57   40.90
  -2  -4  -4  285.17   32.30
   6  -4   4  264.27   39.10
  -2   6   4  304.77   33.40
  -2   6   4  352.56   43.30
  -4   6  -4  316.87   38.30
  -4  -2   4  325.37   35.60
  -2  -4  -4  243.38   51.09
   6  -2  -4  319.47   58.79
  -2   6   4  285.17   47.00
  -4   6  -4  356.26   57.49
   6  -2  -4  263.17   33.10
   6  -4   4  328.87   33.40
   5   1  -4  134.29   31.00
   1  -6  -4  139.69   25.60
  -6   5  -4  134.99   23.70
   5   1  -4  157.68   45.40
  -6   1   4  153.08   36.80
   5  -6   4  115.09   24.00
  -6   5  -4  160.88   41.40
   5  -6   4  111.89   22.30
   1   5   4  172.48   37.00
   5  -6   4  131.19   26.70
  -6   1   4  139.29   26.80
   1   5   4  124.09   30.70
   6  -5   4  144.29   30.80
   6  -5   4  125.59   22.30
  -5  -1   4  191.08   37.10
  -5   6  -4  120.59   39.90
   6  -5   4  118.99   22.30
  -1   6   4  127.29   28.10
   6  -1  -4  129.49   23.30
  -1   6   4  146.29   33.20
  -1  -5  -4  130.79   39.60
  -5   6  -4  121.09   26.00
  -1   6   4   97.29   40.70
   6  -1  -4  139.69   40.00
  -1  -5  -4  112.49   24.00
  -5  -1   4  139.69   31.70
   6   0  -4   -6.40   15.60
  -6   6  -4   33.60   15.10
   6  -6   4   23.50   19.70
   6   0  -4   58.99   42.10
   6  -6   4   16.50   22.20
   0  -6  -4   15.30   22.70
  -6   6  -4   30.80   37.50
  -6   0   4   45.70   25.20
   0   6   4   21.80   33.10
   6  -6   4   30.70   26.30
   0   6   4    6.40   16.70
  -6   0   4   24.90   22.90
  -7   0  -4 2597.64   85.69
  -7   0  -4 2533.45  108.29
   7  -7  -4 2609.84   94.29
   7  -7  -4 2678.93  112.69
   7   0   4 2660.33   86.99
   7   0   4 2694.53   96.29
  -7   7   4 2559.64   93.19
   7   0   4 2561.84  105.79
   0  -7   4 2633.34  102.99
   0  -7   4 2604.84   84.09
   0   7  -4 2548.05  114.79
   0   7  -4 2649.24   94.69
  -7   7   4 2414.16   86.59
   0  -7   4 2656.63   95.69
   1  -7   4  101.19   28.30
   1  -7   4   75.49   17.50
  -7   6   4   94.99   24.50
   6  -7  -4   67.09   37.80
   6   1   4   95.69   27.80
   1  -7   4  100.29   31.40
   6   1   4   27.60   36.30
   1   6  -4   75.69   23.50
   1   6  -4   90.79   39.00
  -7   1  -4   71.09   37.50
   6  -7  -4   70.29   26.40
   6   1   4   79.89   16.90
   7  -1   4   96.29   25.00
  -1   7  -4   79.09   39.30
  -1  -6   4   48.20   14.50
  -6  -1  -4   86.89   37.50
   7  -1   4   26.50   33.50
  -1  -6   4   87.99   27.40
  -1   7  -4   60.09   24.20
   7  -6  -4   65.39   39.00
  -6  -1  -4   71.39   19.30
   7  -6  -4   71.89   19.10
   7  -6  -4   72.99   25.60
   7  -1   4   92.29   24.20
  -1  -6   4  108.29   27.40
  -6   7   4  123.89   33.10
  -6   7   4  133.09   28.90
  -6   7   4   82.29   31.00
   2   5  -4 2440.36  101.19
  -7   5   4 2416.96   79.19
   2  -7   4 2428.46   89.99
   5   2   4 2462.45   94.79
   5  -7  -4 2704.63  108.79
   5  -7  -4 2439.46   89.59
  -7   2  -4 2581.64  106.39
  -7   5   4 2360.16   88.59
   5   2   4 2429.46   99.79
   5   2   4 2424.36   83.89
   2  -7   4 2386.76   96.29
   2   5  -4 2542.45  110.49
   7  -5  -4 2529.95  108.99
  -2   7  -4 2360.96   88.29
  -2  -5   4 2411.56   95.99
  -5  -2  -4 2413.76   83.69
  -5  -2  -4 2543.85  105.09
  -2  -5   4 2363.66   89.69
   7  -2   4 2434.36   88.29
  -2   7  -4 2572.64  109.59
   7  -2   4 2430.66   82.39
   7  -5  -4 2408.36   87.29
   7  -2   4 2532.15   80.69
   7  -2   4 2443.76   99.09
  -5   7   4 2536.65  100.69
  -5   7   4 2455.15   89.39
   7  -5  -4 2542.45   88.09
   3   4  -4  959.20   74.49
   4  -7  -4  907.51   69.49
  -7   4   4 1043.80   35.20
   4   3   4 1029.20   73.19
   3  -7   4  972.40   45.40
   4   3   4  987.00   44.90
  -7   3  -4  914.51   70.59
  -7   4   4  973.80   49.70
   3   4  -4  987.80   51.39
   4  -7  -4  999.30   52.29
   3   4  -4  980.50   34.50
   4   3   4  946.21   65.89
   3  -7   4 1069.89   60.59
   3  -7   4 1011.40   51.89
  -4   7   4  841.12   51.09
   7  -3   4  997.20   44.70
  -4  -3  -4  928.71   46.70
   7  -4  -4  958.00   72.19
  -3  -4   4 1018.70   56.89
  -4  -3  -4  907.11   68.09
  -3  -4   4  992.30   51.89
   7  -3   4  972.70   41.80
  -3   7  -4 1006.90   49.70
   7  -3   4  900.11   61.79
   7  -4  -4  971.00   48.80
  -4   7   4 1016.70   49.60
  -4   7   4  962.20   64.49
  -3   7  -4 1002.80   73.19
   3   4   4  100.39   31.30
   4  -7   4   84.49   27.20
  -7   3   4   78.99   20.90
   3   4   4   47.80   32.20
  -7   4  -4   96.99   40.50
   3  -7  -4   66.79   23.60
   3  -7  -4   63.09   42.00
   4  -7   4   61.89   21.30
   4   3  -4   47.70   19.40
   4   3  -4  139.69   41.90
  -7   4  -4   77.29   20.60
   3   4   4   74.89   17.60
   7  -4   4   69.89   19.40
  -3   7   4   68.99   19.40
  -4  -3   4   68.89   23.80
  -3  -4  -4   67.49   35.80
  -4  -3   4   98.79   26.70
   7  -4   4   53.39   30.50
  -3   7   4   59.69   28.00
   7  -4   4   49.10   17.80
  -3   7   4   46.00   28.70
   7  -3  -4   63.19   39.00
   7  -3  -4   43.90   17.80
  -3  -4  -4   39.00   21.00
  -4   7  -4   72.59   37.60
  -4   7  -4   69.79   19.20
  -7   2   4  265.87   36.70
   2   5   4  223.28   50.09
  -7   5  -4  259.57   24.60
  -7   5  -4  351.66   60.79
   2  -7  -4  222.68   36.60
   5   2  -4  225.88   34.30
   5  -7   4  266.97   42.90
   2   5   4  237.88   45.70
   5  -7   4  244.98   36.00
   5   2  -4  232.68   61.09
   2  -7  -4  223.28   56.79
   2   5   4  240.98   37.70
  -7   2   4  240.98   35.30
   5  -7   4  214.88   35.20
   7  -2  -4  261.77   33.40
  -5   7  -4  276.37   31.30
  -5  -2   4  333.37   44.70
   7  -2  -4  219.08   58.49
  -2   7   4  259.47   31.80
  -2   7   4  245.68   48.90
  -5   7  -4  347.17   63.79
   7  -5   4  241.78   33.50
   7  -5   4  210.28   28.10
  -5  -2   4  275.57   39.10
  -2  -5  -4  174.58   38.30
   7  -5   4  227.28   46.40
  -2   7   4  345.17   43.60
  -2  -5  -4  228.98   35.10
   6  -7   4  100.39   25.10
   6  -7   4   84.29   27.30
   1  -7  -4   98.49   41.60
  -7   6  -4  114.09   23.60
   6  -7   4   82.49   26.50
  -7   1   4   73.19   22.90
  -7   6  -4  241.18   63.89
  -7   1   4   73.39   23.10
   1  -7  -4   68.19   24.30
   1   6   4   81.99   37.50
   6   1  -4  124.29   32.60
   1   6   4   94.19   36.40
   1   6   4  120.09   30.00
   6   1  -4   81.59   40.00
  -6   7  -4  125.49   43.80
   7  -6   4   91.49   31.40
   7  -6   4   97.79   21.70
  -6   7  -4  104.89   27.10
   7  -1  -4   68.49   20.80
   7  -1  -4   75.89   40.20
  -6  -1   4   95.09   24.60
  -1  -6  -4   93.69   24.20
  -1   7   4  122.49   34.70
  -1   7   4   64.39   29.20
  -6  -1   4  103.99   27.70
  -1   7   4   92.39   20.20
   7  -6   4  100.19   24.50
  -1  -6  -4   81.89   44.30
   7   0  -4    6.00   17.90
  -7   7  -4   32.60   15.30
  -7   0   4   37.50   25.10
   0  -7  -4   45.20   23.80
   0   7   4   29.70   29.90
   0   7   4   21.10   35.10
   7   0  -4   28.90   40.30
   0   7   4   32.20   19.30
   7  -7   4   18.20   24.50
   0  -7  -4    4.60   37.90
  -7   0   4   70.59   24.80
   7  -7   4    9.00   26.70
   7  -7   4  -11.50   27.50
   8  -8  -4   70.79   41.00
   8   0   4   79.19   26.60
  -8   8   4   66.29   31.90
   0   8  -4  143.79   45.00
  -8   0  -4   70.69   18.70
   8   0   4   53.29   16.50
   0  -8   4   93.79   30.30
  -8   8   4   86.69   24.40
   0  -8   4   61.29   31.10
   8   0   4   26.50   38.70
   0  -8   4   72.79   18.20
   0   8  -4   73.49   25.00
  -8   0  -4  102.09   40.20
   8  -8  -4   69.29   27.70
   7   1   4 2105.59   75.69
   7   1   4 2185.68   87.39
  -8   7   4 2022.80   75.09
   7  -8  -4 2331.57  103.39
   1  -8   4 2326.07   84.29
   1  -8   4 2152.78   93.49
  -8   1  -4 2267.67  101.19
   7  -8  -4 2238.28   84.69
  -8   7   4 2151.98   82.39
   1   7  -4 2237.78  105.89
   7   1   4 2157.38   98.89
   1   7  -4 2134.19   84.29
   1  -8   4 2127.59   84.99
   8  -7  -4 2194.68   82.99
  -1   8  -4 2293.77  104.89
  -1  -7   4 2099.69   93.19
  -7  -1  -4 2210.18   81.59
  -7   8   4 2248.77   97.49
  -1  -7   4 2203.58   71.59
  -1   8  -4 2156.88   85.19
   8  -7  -4 2252.87  104.19
   8  -1   4 2147.19   96.69
   8  -1   4 2190.48   84.59
  -1  -7   4 2091.79   86.49
  -7   8   4 2191.48   83.19
  -7  -1  -4 2296.57   98.89
   8  -1   4 2165.88   74.59
   2  -8   4 2188.18   92.29
   6   2   4 2208.08   88.59
   2  -8   4 2193.48   75.29
   6   2   4 2068.19   93.29
  -8   6   4 1831.82   70.59
  -8   6   4 2219.98   82.09
   6   2   4 2193.58   75.99
   6  -8  -4 2107.09   82.69
  -8   2  -4 2152.68   99.19
   2   6  -4 2141.79   83.49
   6  -8  -4 2186.78   99.39
   2  -8   4 2178.68   84.39
   2   6  -4 2112.69  103.29
  -2  -6   4 2179.78   84.49
  -6  -2  -4 2137.19   76.29
  -6  -2  -4 2030.30   96.19
   8  -2   4 2167.98   80.59
   8  -6  -4 2179.58   81.09
   8  -2   4 2205.98   73.79
   8  -2   4 2269.37   71.99
   8  -2   4 2161.38   94.19
  -2   8  -4 2041.60  103.09
  -6   8   4 2237.78   83.09
  -2   8  -4 2082.69   84.09
   8  -6  -4 2202.68  102.29
   8  -6  -4 2181.68   80.89
  -2  -6   4 2271.17   92.09
  -6   8   4 2152.58   79.29
  -6   8   4 2237.78   94.69
   3  -8   4  204.08   40.50
   5  -8  -4  138.69   41.60
   3   5  -4  187.38   35.80
   5   3   4  157.08   27.90
   5   3   4   99.59   38.80
   3  -8   4  159.18   28.50
   3   5  -4  151.78   19.50
   5  -8  -4  143.99   28.90
  -8   5   4  145.39   33.20
   3  -8   4  148.59   31.70
   3   5  -4  115.79   40.80
   8  -3   4  160.28   26.50
  -3   8  -4  245.68   64.19
  -5  -3  -4  125.09   38.80
  -5  -3  -4  126.89   30.30
   8  -5  -4  157.48   33.30
  -3  -5   4  200.28   40.20
  -3  -5   4  227.48   48.20
  -5   8   4  177.88   35.00
  -5   8   4  117.79   32.90
  -3   8  -4  167.68   34.20
  -5   8   4  201.58   33.60
   8  -3   4   91.59   35.40
   8  -3   4  148.69   24.00
   8  -5  -4  143.19   31.90
   8  -5  -4  141.39   42.80
   8  -3   4  139.19   24.40
   4   4  -4  356.46   66.49
   4  -8   4  316.77   40.80
   4  -8   4  350.76   48.80
   4   4   4  283.57   53.59
   4  -8  -4  341.07   40.40
  -8   4  -4  463.85   64.79
  -8   4   4  347.27   39.20
   4   4   4  322.97   31.30
   4   4  -4  336.37   37.20
   4   4   4  310.97   50.29
   4  -8   4  334.07   33.90
   4  -8  -4  326.07   63.39
  -4   8  -4  336.97   36.80
  -4  -4  -4  325.27   57.59
  -4  -4   4  420.16   41.40
  -4  -4   4  375.76   48.70
  -4  -4  -4  294.37   39.80
   8  -4   4  298.17   26.40
   8  -4  -4  371.66   63.79
   8  -4  -4  286.87   35.50
   8  -4   4  338.27   32.30
  -4   8   4  343.17   35.50
  -4   8  -4  403.16   63.79
  -4   8   4  317.77   54.19
   8  -4   4  294.67   48.40
  -4   8   4  346.37   41.30
   3   5   4  162.88   35.40
   3  -8  -4  203.18   55.79
   3  -8  -4  180.08   38.40
   5   3  -4  154.28   34.30
   5  -8   4  158.18   47.40
  -8   5  -4  251.87   62.89
   3   5   4  134.39   38.20
   5  -8   4  165.88   44.90
  -8   3   4  155.98   35.80
   5   3  -4  187.78   50.09
  -8   3   4  141.29   27.40
   3   5   4  188.38   30.70
  -8   5  -4  166.28   21.80
  -5  -3   4  194.68   38.30
   8  -5   4  157.48   34.80
  -3  -5  -4  148.29   40.50
  -5   8  -4  302.87   63.19
  -3   8   4  173.48   35.00
  -5   8  -4  206.08   32.70
   8  -5   4  124.99   31.30
  -3  -5  -4  179.28   34.70
  -5  -3   4  249.48   44.30
   8  -5   4  138.99   26.70
   8  -3  -4  130.59   31.90
  -3   8   4  205.98   33.50
   8  -3  -4  208.48   47.50
   2   6   4   94.39   21.20
   2   6   4  105.49   37.40
   2  -8  -4   66.29   39.30
   6   2  -4   73.49   39.60
   2   6   4   56.99   35.90
  -8   6  -4   93.49   43.90
   6  -8   4   73.09   24.70
   6  -8   4  122.09   28.00
   2  -8  -4   95.09   26.90
  -8   2   4   87.29   26.30
  -8   2   4   86.29   24.10
  -8   6  -4   81.89   22.00
   6   2  -4  118.59   32.20
   6  -8   4   86.89   27.60
  -6   8  -4  109.19   29.10
  -2   8   4  101.39   21.50
  -6   8  -4   89.59   42.70
   8  -2  -4  120.09   44.30
  -2   8   4   88.39   32.90
   8  -6   4   81.19   24.10
   8  -6   4   72.49   31.30
   8  -6   4   99.79   23.00
  -6  -2   4  118.89   28.10
  -6  -2   4   87.29   27.90
   8  -2  -4   70.49   22.30
  -2   8   4   64.89   30.10
  -2  -6  -4   75.59   24.20
  -2  -6  -4   24.70   34.60
   1  -8  -4  222.58   38.20
   1   7   4  266.37   32.40
   7  -8   4  187.38   28.90
   7   1  -4  263.27   35.40
  -8   1   4  227.88   39.90
   1  -8  -4  279.57   60.39
   1   7   4  208.08   39.40
  -8   7  -4  241.58   25.50
   7   1  -4  265.07   64.39
   7  -8   4  154.68   41.80
   7  -8   4  229.28   41.30
  -8   1   4  289.07   39.10
   8  -7   4  172.48   28.70
   8  -1  -4  281.87   66.29
  -7  -1   4  247.98   44.30
   8  -7   4  175.88   25.50
   8  -1  -4  238.08   34.50
   8  -7   4  222.28   42.60
  -7   8  -4  364.16   66.89
  -1   8   4  257.07   50.49
  -1  -7  -4  216.58   38.90
  -1   8   4  214.48   54.09
  -7   8  -4  236.48   29.50
  -1   8   4  256.97   34.00
  -7  -1   4  229.28   40.10
  -8   0   4  411.86   48.20
   8  -8   4  348.97   46.70
  -8   8  -4  527.25   70.79
  -8   0   4  399.86   41.80
  -8   8  -4  403.56   31.70
   8   0  -4  411.86   66.79
   0   8   4  398.96   57.39
   8   0  -4  381.16   38.00
   0   8   4  410.36   52.89
   0  -8  -4  393.66   42.60
   0  -8  -4  361.86   62.39
   0   8   4  395.26   36.40
   0  -9   4 2612.94  108.29
   0  -9   4 2642.94  102.19
   9  -9  -4 2789.32  118.19
   9  -9  -4 2792.32  100.59
  -9   9   4 2726.73  111.59
   0   9  -4 2721.03  101.69
   9   0   4 2616.54  114.89
  -9   0  -4 2817.42  117.89
   0   9  -4 2655.23  119.99
  -9   0  -4 2740.23   89.09
  -9   9   4 2534.05   93.09
   9   0   4 2680.33   99.99
  -9   9   4 2774.52   99.19
   0  -9   4 2868.01   89.69
   9   0   4 2797.52   89.59
   1   8  -4 1678.03   95.99
   8   1   4 1792.42   65.69
   8  -9  -4 1810.72   93.79
   1  -9   4 1790.22   78.19
  -9   8   4 1517.05   65.39
   1   8  -4 1853.41   77.29
   8   1   4 1647.04   90.59
   1  -9   4 1794.12   65.29
  -9   1  -4 1836.12   93.99
   8  -9  -4 1815.02   74.89
   1  -9   4 1791.22   84.39
  -9   8   4 1769.52   73.39
   8   1   4 1901.71   79.39
  -1   9  -4 1829.82   75.89
  -8   9   4 1735.13   70.39
   9  -8  -4 1809.02   75.09
   9  -8  -4 1904.11   96.19
   9  -1   4 1736.83   88.99
   9  -1   4 1848.12   73.69
  -8   9   4 1882.71   89.69
   9  -1   4 1838.22   63.69
  -1  -8   4 1796.72   79.89
  -8   9   4 1849.61   74.99
  -1  -8   4 1785.32   86.99
  -8  -1  -4 1790.32   90.89
  -1   9  -4 1795.82   98.69
   2   7  -4   37.10   22.60
   2   7  -4   67.39   17.10
   2   7  -4   79.69   44.60
  -9   2  -4   80.99   40.80
   7   2   4   15.90   37.60
   2  -9   4   50.59   19.80
   7  -9  -4   80.49   26.00
   7   2   4   67.19   17.30
   7   2   4  113.79   31.70
  -9   7   4   65.09   21.70
   7  -9  -4   33.20   39.90
   2  -9   4   65.79   30.00
   2  -9   4   59.29   28.90
  -7  -2  -4  115.69   39.50
  -7  -2  -4   68.59   20.60
   9  -2   4   83.59   24.40
   9  -2   4  116.29   22.20
  -2   9  -4   99.09   44.10
   9  -2   4   43.60   38.20
  -2  -7   4   96.19   33.10
   9  -7  -4   74.79   40.90
   9  -7  -4   48.10   23.20
   9  -7  -4   75.29   20.80
  -7   9   4   78.99   22.10
  -7   9   4   69.69   25.10
   9  -2   4   59.49   15.40
  -2  -7   4   86.79   32.30
  -7   9   4   69.29   35.40
  -2   9  -4   66.69   24.30
   6  -9  -4 1073.49   57.49
   3   6  -4 1168.08   83.19
   6  -9  -4 1131.49   73.99
   6   3   4 1083.39   49.00
   3   6  -4 1097.79   43.00
   3  -9   4 1073.89   59.89
   3  -9   4 1091.99   49.30
   3  -9   4 1073.79   64.79
   3   6  -4 1062.09   57.29
   6   3   4 1056.49  100.59
  -9   6   4 1149.89   56.99
   6   3   4  995.00   71.09
  -9   3  -4 1183.78   79.89
   9  -3   4 1128.39   52.59
  -6   9   4 1092.49   54.19
  -3   9  -4 1116.59   57.79
   9  -3   4 1143.19   43.50
  -3  -6   4 1173.48   67.59
   9  -3   4 1109.99   45.80
  -6   9   4 1076.19   54.79
  -6  -3  -4 1159.98   73.99
   9  -3   4 1029.20   69.09
  -3   9  -4 1109.09   80.69
   9  -6  -4 1140.39   53.89
   9  -6  -4 1104.59   55.09
  -6  -3  -4 1088.09   51.09
  -3  -6   4 1109.09   60.09
  -6   9   4 1043.60   70.89
   9  -6  -4 1114.29   79.29
   5  -9  -4  264.87   58.39
  -9   5   4  315.27   37.40
   4  -9   4  355.76   50.39
   5   4   4  330.87   32.20
  -9   4  -4  364.16   65.79
   4   5  -4  312.67   41.00
   4   5  -4  251.97   66.69
   5  -9  -4  247.68   43.60
   5   4   4  349.87   54.89
   5   4   4  216.98   55.79
   4  -9   4  291.77   43.10
   9  -4   4  296.47   30.40
  -5  -4  -4  263.37   57.49
  -4  -5   4  360.26   44.90
  -4   9  -4  357.86   67.59
  -5   9   4  318.87   53.89
   9  -5  -4  317.47   36.60
   9  -5  -4  253.27   62.29
  -4   9  -4  304.47   39.50
  -4  -5   4  397.66   49.80
   9  -4   4  328.97   34.00
  -5  -4  -4  252.07   60.79
   9  -4   4  278.67   25.90
  -5   9   4  327.27   50.69
  -5   9   4  341.97   38.70
   9  -4   4  237.38   52.49
   4   5   4  118.39   29.20
   5  -9   4   66.19   30.50
   4  -9  -4   64.89   30.20
  -9   4   4   86.69   28.10
   5   4  -4  104.79   44.70
   4  -9  -4  100.29   55.49
   4   5   4   98.79   32.70
  -9   4   4  130.79   35.40
   4   5   4   56.89   37.40
   5   4  -4   61.49   22.10
   5  -9   4   52.79   26.10
   5  -9   4   83.09   24.10
   9  -4  -4   89.29   21.00
  -5   9  -4   89.39   39.90
   9  -5   4   85.99   20.80
  -5  -4   4   95.69   27.40
   9  -4  -4   74.19   43.60
  -4  -5  -4   73.79   24.00
  -4   9   4   88.29   33.70
  -5   9  -4   99.39   22.60
  -4  -5  -4   56.09   38.80
  -4   9   4  105.59   29.80
  -4   9   4  104.79   23.90
  -5  -4   4  105.69   29.80
   9  -5   4   74.79   19.20
   9  -5   4   74.39   35.80
   6  -9   4   31.30   25.00
  -9   6  -4   30.10   12.60
   6   3  -4   21.40   40.30
   6  -9   4   18.60   29.10
   6   3  -4   32.90   20.70
   3  -9  -4   21.80   36.60
   3   6   4   33.30   18.80
  -9   3   4   35.10   22.10
   3  -9  -4   50.89   27.20
   3   6   4   55.89   34.50
   3   6   4   48.70   36.60
  -9   3   4   -1.20   24.10
  -6   9  -4   29.30   19.40
  -3  -6  -4   27.00   24.10
   9  -6   4   11.40   35.00
   9  -3  -4   18.00   20.70
  -3  -6  -4  -11.40   37.10
  -6  -3   4   60.29   28.40
  -6  -3   4   49.40   27.20
  -3   9   4   67.39   32.20
  -3   9   4   21.10   20.10
  -3   9   4   18.90   33.50
   9  -3  -4    3.50   41.00
   9  -6   4  -12.40   19.90
  -9   2   4  222.38   39.50
  -9   2   4  144.89   27.40
   2   7   4  191.28   36.50
   7  -9   4  134.29   32.30
  -9   7  -4  215.98   24.00
   7   2  -4  199.48   37.20
   2   7   4  184.48   31.60
   2   7   4  139.79   41.00
   2  -9  -4  166.08   30.80
   2  -9  -4  166.68   44.10
   7  -9   4  209.18   37.40
   7  -9   4  154.98   29.50
   7   2  -4  114.39   42.90
  -9   7  -4  312.77   67.29
  -7   9  -4  228.58   32.90
  -2   9   4  189.58   41.40
  -2   9   4  201.08   36.50
   9  -2  -4  202.78   49.60
   9  -7   4  161.58   36.40
  -7  -2   4  175.88   39.50
  -7  -2   4  247.68   46.50
  -2  -7  -4  180.68   30.30
  -2   9   4  215.58   51.49
   9  -2  -4  186.38   33.50
  -7   9  -4  142.09   43.60
  -9   1   4   89.29   28.70
   8  -9   4   35.40   28.50
   8   1  -4   45.00   42.70
   1   8   4   35.30   40.90
   1  -9  -4   69.79   43.00
  -9   8  -4   64.99   16.20
   8  -9   4   -2.20   23.30
  -9   8  -4   91.39   45.00
   8  -9   4    1.70   27.90
   1   8   4   77.89   34.90
   8   1  -4   53.69   20.60
   1   8   4   52.09   20.90
   1  -9  -4   45.40   27.20
  -9   1   4   61.79   26.20
  -8   9  -4   52.99   18.60
  -8   9  -4  131.49   44.40
  -1   9   4   97.49   39.30
   9  -1  -4   43.50   20.60
  -8  -1   4  103.69   29.80
  -1  -8  -4   44.30   28.00
   9  -8   4   51.59   31.10
   9  -1  -4   54.29   42.20
  -1  -8  -4  105.39   43.00
  -1   9   4   46.40   36.00
  -1   9   4   62.49   21.80
  -8  -1   4   69.39   27.80
   0  -9  -4  709.93   70.79
   0  -9  -4  802.12   54.99
   0   9   4  761.02   46.80
   0   9   4  699.43   63.19
   9  -9   4  848.82   56.29
  -9   9  -4  944.91   80.79
   9  -9   4  821.22   56.99
   0   9   4  849.02   63.79
   9  -9   4  682.13   53.59
   9   0  -4  804.62   77.39
  -9   9  -4  780.12   40.90
  -9   0   4  757.62   52.19
  -9   0   4  818.92   58.89
   9   0  -4  754.52   48.60
   0 -10   4  294.17   57.89
   0  10  -4  266.17   45.50
  10 -10  -4  246.98   62.79
   0  10  -4  265.77   70.19
 -10   0  -4  202.98   28.30
 -10   0  -4  410.06   73.29
 -10  10   4  259.47   57.49
   0 -10   4  291.17   49.70
  10 -10  -4  338.07   46.50
  10   0   4  216.18   50.09
 -10  10   4  241.28   41.40
  10   0   4  245.88   27.40
   9   1   4  238.58   48.80
   1 -10   4  315.57   31.40
 -10   9   4  294.57   39.00
   9 -10  -4  319.77   63.69
   1 -10   4  271.57   57.09
   1   9  -4  297.77   45.40
   1 -10   4  298.67   48.30
   9 -10  -4  325.07   43.10
   9   1   4  315.97   30.00
 -10   9   4  282.97   56.99
 -10   9   4  218.28   48.40
   1   9  -4  334.87   68.19
   9   1   4  330.17   55.39
  10  -9  -4  271.97   61.89
  -1  10  -4  395.66   70.99
  10  -9  -4  322.77   42.40
  -1  10  -4  301.57   44.90
  10  -1   4  215.18   48.00
  10  -1   4  329.57   27.10
  -1  -9   4  248.68   51.09
  -9  -1  -4  422.26   70.39
  -9  10   4  286.77   39.10
  -9  10   4  196.28   36.80
  -9  10   4  247.18   57.89
  -9  -1  -4  270.57   30.30
  -1  -9   4  323.57   57.09
   2   8  -4 1621.54   96.39
   8 -10  -4 1768.32   91.59
   8   2   4 1545.35   87.39
   2   8  -4 1709.43   75.89
   2   8  -4 1656.63   63.09
   2 -10   4 1694.43   65.09
   8   2   4 1669.93   63.79
 -10   8   4 1668.73   72.49
   2 -10   4 1628.54   77.59
   8   2   4 1646.04   82.39
   8 -10  -4 1688.83   74.79
   2 -10   4 1604.74   85.59
 -10   8   4 1738.23   63.69
 -10   2  -4 1874.41   98.69
  10  -8  -4 1820.52   93.69
  -2  10  -4 1708.33   74.49
  -8  10   4 1746.43   71.69
  10  -2   4 1762.52   69.39
  10  -2   4 1646.94   88.79
  -8  10   4 1722.43   72.19
  -2  -8   4 1676.63   84.59
  10  -2   4 1810.02   58.39
  -2  -8   4 1715.83   77.79
  -8  10   4 1648.14   87.89
  -2  10  -4 1706.93   94.49
  10  -2   4 1751.52   60.59
  -8  -2  -4 1773.12   89.99
  10  -8  -4 1696.73   72.89
  -8  -2  -4 1717.33   64.99
 -10   7   4  935.01   53.69
   3 -10   4  863.51   51.89
   3   7  -4  954.00   56.09
 -10   7   4 1030.70   43.20
   3   7  -4  900.51   42.00
   3   7  -4  991.90   81.79
 -10   3  -4 1043.10   86.09
   7   3   4  939.81   45.40
   3 -10   4  878.41   66.99
   7   3   4  977.50   80.99
   7 -10  -4  931.11   57.49
   7 -10  -4  950.50   74.79
   7   3   4  892.51   70.89
   3 -10   4  916.31   59.79
  -7  -3  -4  919.81   48.20
  10  -7  -4  948.11   51.69
  -7  10   4  965.40   53.39
  10  -3   4 1007.10   47.80
  -7  -3  -4 1014.50   72.89
  10  -3   4 1017.50   39.50
  -3  -7   4  966.50   66.89
  10  -7  -4  950.10   75.89
  -3  -7   4  945.11   60.29
  -3  10  -4  993.90   55.19
  10  -3   4  822.62   70.09
  -3  10  -4  912.81   81.09
  -7  10   4  907.01   69.89
  10  -7  -4 1003.10   51.19
  10  -3   4  988.70   41.70
   6 -10  -4   42.00   30.20
   6   4   4   24.40   39.00
   4   6  -4    6.10   18.00
   4   6  -4   41.80   24.80
   4 -10   4   43.00   21.80
   6 -10  -4   36.50   39.00
   6   4   4   33.70   33.40
   4   6  -4   22.50   43.30
   4 -10   4   37.40   28.90
 -10   6   4   26.90   20.00
 -10   4  -4   67.89   47.40
   4 -10   4   31.00   31.80
   6   4   4   66.39   18.70
 -10   6   4   46.00   16.10
  10  -4   4    3.70   15.70
  -6  10   4   53.39   28.10
  10  -6  -4   77.39   24.20
  10  -6  -4   12.40   19.20
  -4  10  -4   71.79   44.10
  -4  -6   4   60.49   33.50
  10  -6  -4   37.40   42.50
  10  -4   4   37.50   17.10
  -4  10  -4   56.49   23.40
  -6  10   4   50.29   31.70
  -6  10   4   62.09   24.00
  10  -4   4   82.19   21.00
  -6  -4  -4   62.39   37.80
  10  -4   4    2.90   37.20
  -4  -6   4   94.49   31.20
   5 -10   4   -9.30   30.40
   5   5  -4    2.90   14.90
   5 -10   4   18.20   29.30
   5 -10  -4   33.00   26.50
 -10   5   4   32.80   20.70
   5   5   4   14.20   33.00
   5   5  -4   46.20   42.90
   5   5   4   47.00   19.00
   5 -10   4   45.00   24.00
   5   5  -4   42.10   23.40
 -10   5  -4   67.19   47.70
   5   5   4   12.70   40.60
  -5  10   4   41.00   20.90
  -5  10  -4   71.09   42.70
  10  -5  -4   28.00   41.40
  -5  10   4   60.49   30.10
  -5  -5   4   67.09   29.90
  10  -5   4   35.40   36.50
  -5  -5   4   72.09   32.70
  -5  10  -4   46.00   23.00
  10  -5   4   56.79   19.30
  -5  -5  -4   45.90   24.60
  -5  10   4   31.70   33.10
  10  -5  -4   23.50   19.40
  -5  -5  -4   53.29   38.60
   4   6   4  -18.70   38.90
   4 -10  -4   21.20   38.70
   6   4  -4   13.40   22.20
 -10   6  -4   84.59   47.20
   4   6   4   27.60   18.10
 -10   4   4   -1.20   24.60
   6 -10   4  -15.10   25.80
   4 -10  -4   31.10   28.20
 -10   4   4   48.60   23.20
   6 -10   4   -9.70   31.00
   6   4  -4   12.60   40.40
   4   6   4  -42.20   38.30
   6 -10   4   24.50   24.80
  10  -4  -4    2.40   20.30
  10  -6   4  -16.30   36.70
  -4  -6  -4   26.60   25.50
  -6  10  -4   66.59   44.70
  10  -4  -4  -17.50   40.00
  -4  10   4    6.30   21.90
  -4  -6  -4   -8.90   36.60
  -4  10   4    3.10   35.50
  -4  10   4   38.20   30.60
  -6  -4   4   17.30   31.10
  -6  -4   4   39.90   30.90
  -6  10  -4   36.30   22.40
 -10   3   4   81.59   28.30
   7 -10   4  146.69   30.50
   7   3  -4   76.09   42.00
   3 -10  -4   79.09   31.70
   3 -10  -4   61.59   42.20
   3   7   4   80.79   43.30
 -10   3   4  140.29   29.80
 -10   7  -4  122.59   20.10
   3   7   4   79.39   38.00
   7   3  -4  120.19   25.80
   7 -10   4   76.79   33.10
   3   7   4  100.09   21.10
  10  -7   4  116.89   23.10
  10  -3  -4   87.69   22.10
  -7  10  -4   95.29   45.90
  -3  -7  -4  104.69   28.40
  -3  10   4  128.79   34.90
  -7  -3   4  187.78   41.70
  -3  -7  -4   20.70   36.50
  -3  10   4   98.19   40.50
  10  -7   4  141.69   37.80
  -7  -3   4  108.79   29.50
  10  -3  -4   34.20   41.30
  10  -7   4   92.49   20.40
 -10   2   4  507.65   48.50
   8   2  -4  472.05   74.99
   8 -10   4  433.56   44.30
   2 -10  -4  511.95   49.20
   8   2  -4  513.95   43.30
   2 -10  -4  590.44   64.99
   2   8   4  560.34   64.19
   2   8   4  558.54   65.69
   8 -10   4  494.25   45.90
 -10   8  -4  728.23   77.39
   2   8   4  558.04   40.90
 -10   2   4  532.25   46.50
 -10   8  -4  529.65   30.20
  10  -2  -4  504.75   42.10
  -2  10   4  509.95   42.60
  10  -2  -4  453.15   71.39
  -8  10  -4  557.34   47.50
  10  -8   4  501.05   54.29
  -2  10   4  578.04   56.89
  -8  -2   4  515.55   47.80
  -8  -2   4  537.75   53.59
  -8  10  -4  606.64   75.89
  -2  -8  -4  535.15   49.00
  -2  10   4  491.55   63.19
  10  -8   4  547.45   42.60
 -10   9  -4  558.64   33.90
   9   1  -4  541.35   45.20
   1   9   4  508.65   67.69
   1   9   4  566.04   44.00
   9   1  -4  600.54   76.49
 -10   1   4  587.84   54.29
 -10   9  -4  656.03   77.39
 -10   1   4  553.24   47.40
   1 -10  -4  546.95   50.69
   1 -10  -4  533.55   67.59
   9 -10   4  556.44   51.99
  -1  10   4  638.44   65.09
  10  -9   4  663.43   48.90
  -9  10  -4  751.12   80.89
  -9  10  -4  541.05   38.60
  10  -9   4  664.03   40.80
  -1  10   4  539.85   43.30
  10  -1  -4  514.25   42.60
  -9  -1   4  597.04   54.59
  -1  10   4  512.95   66.89
  -9  -1   4  559.74   51.09
  10  -9   4  509.25   52.49
  -1  -9  -4  527.55   51.19
  10  -1  -4  479.55   70.29
  -1  -9  -4  430.96   65.69
  10   0  -4    2.80   41.30
   0 -10  -4  -11.70   42.80
   0  10   4    2.40   21.70
  10 -10   4   32.10   32.30
 -10  10  -4   61.19   50.39
   0 -10  -4   25.70   32.20
 -10   0   4   59.49   28.60
   0  10   4   35.20   43.20
  10   0  -4   12.30   19.30
   0  10   4   37.70   40.70
 -10  10  -4   23.90   16.60
 -10   0   4   33.10   28.70
   0  11  -4   11.60   25.10
 -11  11   4  -11.10   33.30
  11   0   4  -27.40   46.70
 -11   0  -4   73.29   45.40
   0 -11   4   -3.30   35.10
 -11   0  -4    5.60   17.90
   0  11  -4   36.10   43.40
  11   0   4   25.30   15.20
 -11  11   4   37.40   25.30
  11 -11  -4  -10.00   41.30
  11 -11  -4   47.40   30.40
 -11  11   4  -58.79   39.40
   0 -11   4   51.09   35.00
  10   1   4  116.99   49.70
   1 -11   4  154.18   31.40
   1 -11   4  122.19   37.70
  10   1   4  240.98   29.40
  10 -11  -4  204.98   43.60
 -11   1  -4  323.87   75.99
  10 -11  -4  238.38   64.19
   1 -11   4  271.87   53.99
   1  10  -4  230.58   45.90
 -11  10   4  227.78   61.29
 -11  10   4  205.58   40.20
   1  10  -4  211.58   34.70
 -11  10   4  261.27   34.80
   1  10  -4  167.08   50.59
  -1  11  -4  220.48   45.60
 -10  -1  -4  316.87   71.49
 -10  -1  -4  133.39   29.40
  -1 -10   4  241.08   42.90
  11  -1   4  226.08   24.80
 -10  11   4  212.28   41.40
  11  -1   4  206.98   52.89
 -10  11   4  190.28   43.40
  -1 -10   4  199.68   41.80
  11 -10  -4  205.28   43.90
  11 -10  -4  237.38   51.79
  -1  11  -4  191.28   51.59
   2   9  -4  159.28   49.20
   2 -11   4  107.39   39.40
   2   9  -4  205.58   44.40
   9   2   4  172.78   28.40
   9 -11  -4  132.29   44.70
 -11   9   4  103.49   34.30
   2 -11   4  124.19   29.40
 -11   9   4  178.78   38.40
   2 -11   4  113.19   34.40
   9 -11  -4  145.79   32.80
   9   2   4   82.39   45.70
 -11   2  -4  324.27   74.39
  11  -2   4   91.59   43.90
  -2  11  -4  121.39   28.10
  -9  -2  -4  175.48   31.60
  11  -2   4  177.18   24.30
  -2  -9   4  106.69   36.80
  -9  11   4  173.38   38.40
  11  -9  -4  154.38   29.90
  -9  -2  -4  263.67   64.09
  11  -9  -4  170.08   46.30
  -9  11   4  161.68   42.70
  -2  -9   4  167.18   39.20
  -9  11   4  138.49   29.60
  11  -2   4  185.28   21.80
  -2  11  -4  213.58   51.99
   8   3   4  236.78   29.70
   3 -11   4  229.38   32.10
 -11   8   4  310.17   31.90
   3 -11   4  203.38   48.60
   3   8  -4  273.37   72.09
   3   8  -4  279.17   32.40
   8 -11  -4  241.88   60.29
   8 -11  -4  214.18   43.80
   3 -11   4  162.28   38.70
   3   8  -4  196.18   44.70
   8   3   4  317.77   68.89
 -11   8   4  259.27   39.70
   8   3   4  186.88   48.10
  -3  -8   4  317.87   51.69
  -8  11   4  205.78   37.60
  -8  -3  -4  221.78   35.80
  -3  11  -4  232.38   42.70
  11  -8  -4  271.77   63.39
  -8  11   4  259.57   46.20
  -3  11  -4  397.46   71.79
  11  -3   4  183.28   21.20
  11  -8  -4  298.07   41.60
  -8  11   4  304.27   42.70
  11  -3   4  204.98   25.10
  11  -3   4  215.98   51.09
  -3  -8   4  234.28   56.39
   4   7  -4  465.15   74.19
   4 -11   4  440.06   51.19
   7   4   4  399.96   66.29
   7   4   4  492.15   36.50
 -11   7   4  520.95   32.30
   4 -11   4  424.56   60.39
   4 -11   4  512.45   38.90
 -11   7   4  500.85   43.10
   4   7  -4  454.35   47.70
   4   7  -4  458.15   34.90
   7   4   4  520.35   63.39
   7 -11  -4  438.56   51.79
   7 -11  -4  460.75   63.59
  11  -7  -4  508.25   41.40
  -7  11   4  397.86   61.49
  -4  -7   4  490.45   59.69
  -7  -4  -4  505.05   63.09
  -4  11  -4  514.05   46.30
  -7  11   4  470.25   43.90
  -4  11  -4  582.74   75.09
  11  -4   4  397.76   62.09
  11  -7  -4  502.75   65.79
  11  -7  -4  505.55   42.80
  -4  -7   4  488.45   56.19
  -7  11   4  503.45   47.10
 -11   6   4  101.49   24.30
   5 -11   4   50.19   34.90
   6   5   4   68.29   44.50
   5   6  -4  147.49   48.90
   6   5   4  116.19   31.40
   5   6  -4  121.99   28.90
   5 -11   4   53.39   30.80
   6   5   4   71.99   39.50
   6 -11  -4  153.08   34.60
   6 -11  -4  118.79   47.70
   5 -11   4   99.39   25.40
 -11   6   4   88.69   22.10
 -11   5  -4  175.58   49.90
  -6  11   4  128.29   33.80
  -6  11   4   85.99   37.30
  -5  -6   4  139.79   38.50
  -5  -6   4  225.68   48.60
  11  -6  -4   99.09   21.90
  -6  -5  -4  118.59   27.20
  -5  11  -4   88.59   25.80
  -6  11   4  111.49   25.50
  11  -5   4  136.79   41.90
  -5  11  -4  195.98   51.69
  11  -6  -4   66.19   40.20
  -6  -5  -4  174.58   42.60
   5 -11  -4  101.99   40.80
   6   5  -4   60.39   43.70
   5 -11  -4  112.09   31.20
   6 -11   4  105.59   27.30
   5   6   4  104.39   21.20
   5   6   4  144.29   71.19
 -11   5   4   99.69   24.30
   6   5  -4   93.59   26.10
   5   6   4   41.70   43.00
 -11   6  -4   88.09   48.90
   6 -11   4   33.20   33.30
   6 -11   4   40.40   30.60
  -6  11  -4  112.79   44.60
  11  -5  -4  101.89   45.60
  11  -5  -4   86.49   21.40
  -6  11  -4  119.99   30.00
  -5  -6  -4   39.60   38.70
  -5  11   4   91.59   32.40
  11  -6   4   53.29   41.40
  -6  -5   4  187.88   38.70
  -5  11   4   85.69   24.90
  -5  11   4   71.59   37.40
  -5  -6  -4   88.19   27.70
  -6  -5   4  140.59   36.10
  11  -6   4   74.39   18.40
   4 -11  -4   78.59   41.20
   4   7   4  101.89   22.00
   7   4  -4   97.39   45.90
   4 -11  -4   75.29   29.90
   7 -11   4  127.49   30.50
 -11   4   4  191.48   42.20
 -11   7  -4   89.39   48.60
 -11   4   4  149.29   30.80
   4   7   4  152.08   47.30
   7 -11   4   52.09   53.39
   7   4  -4  114.99   26.30
   7 -11   4   56.59   30.30
   4   7   4  130.59   40.60
  -7  -4   4  113.79   32.80
  -4  -7  -4   89.09   29.70
  -7  -4   4  121.79   30.90
  11  -4  -4   82.39   43.80
  -4  11   4  103.09   35.30
  -4  -7  -4   39.10   39.70
  -7  11  -4  111.19   24.80
  -4  11   4  149.79   38.60
  11  -7   4   78.39   38.70
  11  -4  -4   75.79   21.40
  -7  11  -4   91.29   48.60
  -4  11   4   96.99   43.10
   3   8   4  218.88   45.20
 -11   3   4  215.68   43.00
   3 -11  -4  148.29   32.80
 -11   3   4  134.69   30.30
 -11   8  -4  255.77   55.79
 -11   8  -4  182.98   20.60
   8 -11   4  205.78   41.90
   8   3  -4  196.18   39.00
   3   8   4  165.08   36.20
   8 -11   4  156.48   32.90
   8   3  -4  172.58   49.99
   8 -11   4  149.09   35.00
   3   8   4  148.99   43.70
   3 -11  -4  178.58   46.80
  -8  11  -4  203.68   37.50
  -3  11   4  238.78   52.59
  -3  11   4  152.68   37.60
  -8  -3   4  238.58   51.09
  -8  -3   4  198.78   43.90
  11  -3  -4  159.48   36.60
  -3  11   4  186.08   43.50
  -8  11  -4  276.27   75.19
  11  -3  -4  205.48   49.50
  11  -8   4  166.48   39.70
  -3  -8  -4  173.88   32.60
   9   2  -4   71.39   47.60
 -11   9  -4  109.49   22.70
   2   9   4   79.69   39.30
   2 -11  -4  108.09   32.00
   9   2  -4   80.39   25.00
   2 -11  -4  113.69   42.40
   9 -11   4  122.69   33.10
 -11   9  -4  136.89   46.90
   2   9   4   49.80   45.70
 -11   2   4  101.69   28.10
 -11   2   4   89.59   27.40
  -9  11  -4  169.48   51.99
  -2  11   4  209.58   54.19
  11  -2  -4  128.89   26.50
  -2  11   4   95.49   42.40
  -2  -9  -4   99.49   32.50
  11  -2  -4  142.19   48.60
  11  -9   4   95.99   36.40
  -9  -2   4  118.79   32.90
  -9  -2   4  189.08   43.80
  -2  -9  -4   64.69   45.80
  -2  11   4   87.09   23.10
  10   1  -4  945.91   78.69
   1 -11  -4 1007.40   76.79
   1  10   4  964.80   70.79
  10   1  -4  926.31   54.59
  10 -11   4  888.91   59.89
 -11   1   4  974.80   61.59
   1 -11  -4  911.81   61.69
   1  10   4  802.62   77.19
 -11  10  -4  878.41   41.40
 -11   1   4  921.11   57.59
  -1  11   4  882.11   53.99
  11  -1  -4  906.21   78.09
 -10  -1   4  855.71   59.59
 -10  11  -4 1069.19   86.29
 -10  -1   4  902.81   62.39
 -10  11  -4  851.51   46.50
  -1 -10  -4  867.71   60.59
  -1  11   4  970.20   72.99
  -1 -10  -4  813.52   73.49
  11 -10   4  824.42   61.79
  11  -1  -4  859.51   52.59
  -1  11   4  820.82   76.09
 -11   0   4  716.43   54.89
 -11   0   4  718.83   58.39
   0  11   4  666.03   74.69
  11   0  -4  657.03   48.90
   0 -11  -4  670.33   55.89
   0  11   4  676.93   69.19
 -11  11  -4  701.93   39.70
 -11  11  -4  862.01   84.49
   0 -11  -4  648.14   73.49
  11   0  -4  685.03   71.99
  11 -11   4  708.43   56.59
   0  12  -4   68.99   30.10
  12   0   4  105.09   23.70
   0 -12   4   14.40   35.40
 -12   0  -4   57.69   18.30
  12   0   4   38.30   46.10
  12 -12  -4  109.99   33.00
 -12  12   4   85.69   25.70
   0  12  -4   98.49   47.20
 -12   0  -4  161.78   49.20
   0  12  -4  146.59   35.30
  12 -12  -4  108.49   42.50
   0 -12   4   15.90   34.20
 -12  12   4  116.59   35.50
 -12  12   4   86.19   27.40
 -12  11   4  133.79   27.60
   1  11  -4  162.18   43.40
 -12  11   4  121.19   37.30
   1 -12   4   74.19   38.60
   1 -12   4   40.60   34.20
  11   1   4   72.39   49.50
  11 -12  -4  128.29   43.90
 -12   1  -4  166.08   50.89
  11   1   4  113.69   27.40
   1  11  -4  117.29   33.10
   1  11  -4  126.69   51.19
  11 -12  -4  130.79   31.40
 -11  12   4   52.69   26.80
 -11  12   4  107.39   25.60
  12 -11  -4   99.19   31.90
 -11  12   4  150.48   39.10
  12 -11  -4  110.19   45.50
  -1  12  -4  101.69   30.80
  -1 -11   4  134.49   37.40
  12  -1   4   60.19   44.00
 -11  -1  -4  279.67   71.59
  12  -1   4  121.49   22.50
  -1 -11   4   72.39   36.80
 -11  -1  -4  100.19   22.20
  -1  12  -4  100.29   47.20
   2  10  -4  103.89   50.09
 -12  10   4   82.89   24.40
   2 -12   4  107.39   25.20
 -12   2  -4  187.28   51.69
  10   2   4  112.29   28.30
   2 -12   4   63.49   36.90
   2 -12   4   58.89   37.80
   2  10  -4  142.39   36.00
  10 -12  -4  114.69   45.00
  10   2   4   61.89   46.00
  10 -12  -4   99.09   30.90
   2  10  -4   90.89   29.40
 -12  10   4  105.59   40.00
 -10  12   4   79.69   25.90
  12  -2   4   57.99   44.80
  -2  12  -4  125.29   29.80
 -10  12   4  134.19   43.30
 -10  12   4   53.59   27.80
 -10  -2  -4  155.08   46.20
  12 -10  -4  132.09   30.90
  12 -10  -4   96.69   44.50
  -2 -10   4   84.29   36.70
  -2  12  -4  100.09   48.00
 -10  -2  -4  131.59   31.60
  -2 -10   4   92.59   37.00
   9 -12  -4   99.29   34.40
 -12   9   4  115.69   26.80
   9   3   4  109.39   29.50
   9 -12  -4   93.89   45.90
   3   9  -4  108.09   48.90
 -12   3  -4  112.49   47.00
   3 -12   4   33.20   35.80
   9   3   4   36.60   46.70
   3 -12   4   40.50   33.80
   3 -12   4   94.79   24.80
   9   3   4  148.09   41.50
   3   9  -4  100.19   30.70
   3   9  -4   90.79   30.30
  -3  12  -4   88.19   46.40
  -9  -3  -4  236.58   62.99
  12  -3   4   45.80   48.10
  -9  12   4  166.78   40.80
  12  -9  -4   76.89   27.80
  -3  -9   4   66.29   33.80
  -9  12   4  101.79   40.40
  -9  12   4  118.19   27.50
  12  -9  -4   43.00   42.30
  -9  -3  -4   82.39   26.30
  -3  12  -4   85.09   28.70
  -3  -9   4  105.59   36.80
   8   4   4   51.29   48.00
   4   8  -4   76.09   24.80
   4 -12   4   39.10   34.20
   4   8  -4  118.29   47.70
   8   4   4   78.19   20.30
 -12   8   4   75.79   22.50
   4 -12   4  130.09   32.60
   4 -12   4   10.90   36.10
   8 -12  -4  121.89   43.50
   8 -12  -4   63.29   31.30
 -12   4  -4  162.08   51.79
   4   8  -4   83.89   29.20
  -8  12   4  138.79   34.10
  -8  -4  -4  124.79   41.50
  -4  -8   4  102.59   34.60
  -8  12   4   71.39   24.00
  12  -8  -4  158.58   36.70
  12  -8  -4   43.40   42.50
  -8  12   4  119.79   40.90
  -4  12  -4  110.19   29.00
  -4  12  -4  174.38   50.99
  -8  -4  -4  134.09   45.60
  12  -4   4   48.80   42.80
  -4  -8   4   47.30   34.00
   7   5   4  201.88   46.50
   7   5   4  147.59   39.20
   5 -12   4   63.59   33.20
 -12   7   4  161.18   37.10
   5   7  -4  105.39   47.30
   7 -12  -4  153.78   37.20
   7   5   4  104.69   46.50
   5 -12   4  144.89   32.00
   7 -12  -4  140.19   44.00
 -12   7   4  181.28   27.00
   5   7  -4  114.09   27.80
  12  -5   4  106.09   42.40
  -7  12   4  139.09   27.80
  -5  12  -4  160.88   49.70
  -7  -5  -4  105.19   27.80
  -7  12   4  123.39   40.80
  -5  -7   4  119.99   37.10
  12  -7  -4  134.09   36.00
  -5  -7   4  218.98   53.79
  -7  -5  -4  149.39   42.10
  -7  12   4  116.09   32.60
  12  -7  -4  157.98   50.09
  -5  12  -4  118.49   27.90
   6 -12   4  178.38   36.30
 -12   6   4  198.58   38.90
   6   6   4  145.99   45.80
   6 -12   4  140.19   37.40
   6   6   4  236.88   80.29
   6   6   4  214.78   33.10
   6   6  -4  282.97   54.79
 -12   6   4  211.18   34.50
   6 -12  -4  236.28   47.70
   6   6  -4  223.18   43.20
   6 -12   4  216.08   37.20
   6 -12  -4  260.87   61.49
 -12   6   4  194.08   23.70
  -6  -6  -4  274.57   48.80
  -6  -6  -4  177.68   41.50
  12  -6   4  171.88   45.90
  12  -6  -4  184.98   36.80
  12  -6  -4  171.88   47.60
  -6  12   4  296.07   48.10
  -6  -6   4  254.37   57.49
  -6  12   4  119.49   40.20
  -6  -6   4  251.77   51.09
  -6  12  -4  226.88   41.00
  -6  12  -4  306.27   74.79
  -6  12   4  231.38   41.10
   7   5  -4   -8.30   44.60
   7 -12   4   -8.60   29.80
 -12   5   4   39.40   25.00
   5   7   4  -36.70   43.80
   5   7   4   28.90   41.90
   5 -12  -4  -11.00   29.60
 -12   5   4   -9.00   26.60
   7   5  -4   28.40   25.90
 -12   7  -4   80.19   47.50
   7 -12   4    9.70   26.50
   5 -12  -4   12.40   41.20
  -7  -5   4    6.80   31.70
  12  -5  -4    1.20   42.80
  -7  12  -4    6.40   28.50
  12  -7   4  -40.20   39.30
  -7  -5   4   13.10   31.00
  -5  12   4   -8.20   39.90
  -5  12   4   31.00   32.80
  -7  12  -4   78.39   46.70
  -5  12   4   39.30   22.80
  -5  -7  -4   11.90   26.90
  12  -5  -4   -5.40   18.60
   8   4  -4   94.69   25.70
   8 -12   4  179.28   36.20
   4   8   4  136.89   44.20
 -12   8  -4  124.29   51.19
 -12   4   4  111.09   30.80
   4   8   4   57.49   43.40
   8   4  -4  125.89   47.70
   8 -12   4   69.99   48.30
   4 -12  -4  104.89   33.40
   8 -12   4  149.39   38.40
 -12   4   4  190.08   42.20
   4 -12  -4  111.59   42.70
  -4  -8  -4  104.79   32.00
  12  -4  -4  107.09   24.40
  -8  -4   4  153.08   36.30
  -8  12  -4  151.38   38.60
  -4  12   4  119.69   36.20
  12  -8   4  101.69   42.00
  -8  -4   4  224.78   47.10
  12  -4  -4  111.59   47.20
  -4  12   4  130.39   41.10
  -8  12  -4  126.09   51.09
  -4  12   4  160.08   38.60
   9   3  -4  505.15   49.70
   3 -12  -4  578.14   66.19
   9   3  -4  514.55   73.59
 -12   9  -4  543.15   27.00
 -12   3   4  557.94   48.10
   3   9   4  504.65   73.09
 -12   9  -4  556.44   79.39
   9 -12   4  582.24   48.20
   3   9   4  547.35   67.89
   3 -12  -4  616.34   56.39
 -12   3   4  586.94   49.70
  12  -9   4  481.95   55.29
  12  -3  -4  537.85   69.99
  -3  12   4  543.75   45.50
  -3  -9  -4  529.15   52.59
  -9  -3   4  535.45   53.19
  12  -3  -4  534.15   44.10
  -3  -9  -4  417.46   66.19
  -3  12   4  524.05   70.79
  -3  12   4  580.74   57.49
  -9  -3   4  635.34   59.79
  -9  12  -4  534.15   44.70
  -9  12  -4  622.74   79.89
 -12  10  -4  562.84   30.70
 -12   2   4  584.74   53.09
  10 -12   4  558.34   50.69
   2 -12  -4  529.05   55.29
   2  10   4  532.95   65.79
  10   2  -4  545.65   48.50
   2  10   4  542.15   74.19
 -12   2   4  565.04   49.80
  10   2  -4  523.55   70.49
 -12  10  -4  656.13   81.49
   2 -12  -4  468.35   66.99
  -2 -10  -4  550.74   53.39
  -2 -10  -4  474.45   69.59
 -10  -2   4  590.34   54.99
  -2  12   4  594.34   48.00
  12  -2  -4  555.44   44.60
  12 -10   4  558.74   55.29
  12  -2  -4  525.05   70.99
  -2  12   4  558.04   71.39
 -10  12  -4  697.43   82.09
 -10  -2   4  597.44   58.19
  -2  12   4  640.94   65.39
 -12   1   4   35.90   30.00
   1 -12  -4   20.30   32.20
 -12  11  -4   83.89   46.90
   1 -12  -4   39.90   40.40
 -12   1   4   60.99   32.30
  11 -12   4   14.80   31.10
  11   1  -4   30.90   22.40
   1  11   4   53.09   42.50
  11   1  -4   36.50   38.60
 -12  11  -4   35.60   15.80
   1  11   4   53.89   42.60
  12  -1  -4   38.30   20.80
  12 -11   4   24.30   33.60
  -1  12   4   45.50   39.30
 -11  12  -4   27.20   19.40
 -11  -1   4   57.59   30.60
  -1 -11  -4   34.60   30.00
  -1  12   4   61.89   43.30
 -11  -1   4   81.49   31.70
  -1 -11  -4   14.60   42.40
 -11  12  -4   68.39   47.60
  12  -1  -4   39.30   42.10
 -12   0   4  877.11   57.69
  12   0  -4  888.61   77.39
 -12  12  -4  985.70   84.59
 -12  12  -4  800.62   43.80
   0 -12  -4  944.61   72.09
   0  12   4  888.41   75.59
 -12   0   4  839.22   61.19
  12 -12   4  835.42   58.89
  12 -12   4  976.00   55.39
   0  12   4  898.71   71.49
  12   0  -4  803.92   53.19
   0 -12  -4  827.82   60.19
 -13   0  -4  403.66   72.79
   0  13  -4  280.27   40.00
  13 -13  -4  299.37   43.20
   0  13  -4  217.48   45.70
 -13  13   4  280.27   56.49
  13   0   4  204.08   49.00
 -13  13   4  207.48   37.20
  13   0   4  262.37   24.90
  13 -13  -4  290.07   61.39
 -13  13   4  270.87   42.50
   0  13  -4  237.48   53.39
   1  12  -4   69.59   27.40
   1 -13   4   48.10   34.70
   1  12  -4  111.49   27.00
  12 -13  -4  104.29   40.90
 -13  12   4   31.90   34.10
  12 -13  -4  106.49   30.50
 -13   1  -4   97.79   44.30
   1 -13   4    5.80   35.70
  12   1   4   73.39   17.50
 -13  12   4  102.29   26.40
  12   1   4   60.59   49.30
   1  12  -4   84.39   47.40
  13  -1   4   64.29   47.40
  13 -12  -4   86.49   40.10
  -1 -12   4   54.19   35.60
  13 -12  -4   86.39   29.20
  -1  13  -4   52.59   44.20
 -12  -1  -4  102.49   46.10
  -1 -12   4   52.09   36.20
 -12  13   4   48.10   26.70
 -12  13   4   91.59   24.20
 -12  -1  -4   58.09   20.50
  -1  13  -4   93.99   28.00
 -12  13   4   45.00   34.80
   2  11  -4   59.79   47.70
   2 -13   4    4.60   34.80
  11   2   4   -4.50   44.10
  11 -13  -4   44.00   28.40
   2  11  -4   55.89   27.30
   2  11  -4   82.59   27.10
   2 -13   4   -9.30   31.70
  11   2   4   55.29   17.70
 -13   2  -4   64.09   45.80
 -13  11   4   52.69   32.10
 -13  11   4   74.29   24.80
  11 -13  -4   20.80   40.50
   2 -13   4   40.50   24.70
 -11  13   4   15.00   26.40
  -2 -11   4   72.49   36.10
  -2  13  -4   84.89   46.20
  -2 -11   4   29.20   36.60
 -11  -2  -4  145.39   46.80
  13  -2   4   69.09   49.90
 -11  13   4   70.79   25.60
 -11  -2  -4   77.39   22.30
  -2  13  -4   70.09   28.00
 -11  13   4   92.59   39.10
  13 -11  -4   68.09   41.10
  13 -11  -4   66.59   27.90
   3 -13   4  335.37   58.59
   3 -13   4  304.37   53.29
 -13   3  -4  577.54   78.89
  10   3   4  389.06   67.59
   3 -13   4  468.35   39.30
  10 -13  -4  452.15   48.90
  10   3   4  475.05   36.20
  10 -13  -4  542.25   67.49
   3  10  -4  502.65   49.00
   3  10  -4  453.55   74.89
 -13  10   4  508.05   44.70
 -13  10   4  428.56   61.79
   3  10  -4  472.15   42.80
 -10  13   4  476.75   46.50
 -10  13   4  485.95   63.49
  -3  13  -4  441.26   49.70
 -10  -3  -4  644.34   70.89
  13 -10  -4  525.15   69.19
 -10  13   4  511.75   45.00
  13 -10  -4  447.46   43.80
 -10  -3  -4  428.96   40.00
  13  -3   4  395.96   67.49
  -3 -10   4  378.96   62.59
  -3 -10   4  395.56   56.19
  -3  13  -4  429.66   73.09
   9 -13  -4  138.29   45.20
   9   4   4  115.79   30.80
 -13   9   4   94.89   25.20
   4 -13   4   30.40   33.50
 -13   4  -4  150.08   50.19
   9   4   4   81.09   43.40
   4   9  -4   69.09   27.50
   4   9  -4  100.79   42.00
   4   9  -4  138.49   47.60
   4 -13   4   95.19   26.30
   9 -13  -4   81.29   31.60
  -9  13   4  110.39   25.90
  13  -4   4   89.89   45.80
  -4  13  -4   87.19   27.90
  -9  13   4   96.89   37.00
  13  -9  -4   88.69   44.30
  -4  13  -4  112.39   48.10
  -4  -9   4  114.29   39.90
  13  -9  -4  165.18   39.30
  -9  13   4  205.28   43.50
  -4  -9   4  113.39   39.80
  -9  -4  -4  104.99   33.10
 -13   5  -4  148.49   51.79
   5   8  -4   77.29   47.50
 -13   8   4   47.50   22.00
   8 -13  -4   41.70   41.80
   8   5   4    3.70   46.30
   8 -13  -4   88.99   35.00
   5 -13   4   68.79   25.80
   5 -13   4   24.90   34.10
   5 -13   4  -14.70   31.40
   5   8  -4   81.29   28.50
  -5  13  -4   72.59   27.30
  -8  13   4   64.79   25.60
  13  -8  -4   76.79   43.90
  13  -5   4   45.30   42.20
  13  -8  -4   54.89   21.90
  -5  -8   4   45.30   34.90
  -8  13   4   59.69   32.90
  -5  -8   4   80.29   36.80
  -5  13  -4  112.59   49.10
  -8  -5  -4   65.09   39.30
  -8  -5  -4   76.59   27.20
  -8  13   4   40.80   36.10
   6 -13   4   64.79   35.70
   6 -13   4   91.39   42.40
   6 -13   4  141.09   35.40
   7   6   4  261.97   67.99
   6   7  -4  109.59   48.50
 -13   7   4  135.99   27.70
   7 -13  -4  111.69   32.30
   7   6   4   58.29   46.50
   7   6   4  114.49   23.10
   6   7  -4  101.59   30.40
 -13   7   4  156.98   25.50
 -13   6  -4  147.69   50.09
  -6  -7   4  115.09   36.20
  -6  13  -4  127.59   29.10
  -6  -7   4  163.38   39.50
  -7  -6  -4  142.19   41.10
  13  -7  -4   98.79   22.60
  -7  13   4  156.18   39.20
  -7  13   4  102.19   44.60
  13  -7  -4  123.39   46.10
  13  -6   4   75.49   41.00
  -6  13  -4   96.59   48.70
  -7  13   4  108.19   34.70
  -7  -6  -4  144.19   30.70
   7 -13   4   99.99   28.20
 -13   7  -4  176.68   50.99
   7   6  -4  150.38   50.99
 -13   6   4   93.59   29.90
   6 -13  -4  150.68   43.50
   6 -13  -4   70.19   31.60
   6   7   4  144.89   47.10
   7 -13   4   63.49   38.20
   6   7   4   82.69   45.40
 -13   6   4  156.68   24.00
   7 -13   4   71.49   34.20
 -13   6   4  125.29   28.40
   7   6  -4   97.39   28.90
  -7  -6   4   82.49   36.10
  13  -6  -4  107.19   24.50
  -6  -7  -4   84.39   30.40
  -6  -7  -4   65.19   40.30
  -6  13   4  105.79   26.00
  13  -6  -4   86.79   43.00
  -7  13  -4  140.39   48.20
  -7  -6   4  122.99   39.80
  -6  13   4  109.49   42.80
  -7  13  -4  101.89   27.90
  -6  13   4  167.18   38.40
  13  -7   4   87.89   43.80
   5   8   4  142.59   48.40
 -13   5   4  157.08   41.60
   8 -13   4  120.39   31.20
   8 -13   4  126.49   34.10
   5   8   4  275.37   73.59
 -13   5   4   85.09   28.60
   8   5  -4  120.49   30.00
   5 -13  -4  148.89   41.40
   5 -13  -4  103.29   33.00
 -13   8  -4  297.27   79.09
   8 -13   4  172.18   40.50
   8   5  -4  136.69   48.70
  -8  13  -4  130.09   51.89
  -5  13   4  104.69   34.40
  13  -8   4  105.49   43.20
  13  -5  -4  105.09   45.10
  -8  13  -4  134.19   27.20
  13  -5  -4  133.89   34.00
  -5  -8  -4  110.69   32.60
  -5  13   4   90.39   38.20
  -5  13   4  106.99   25.40
  -8  -5   4  142.59   37.20
  -8  -5   4  104.29   39.30
   9   4  -4  123.09   49.40
 -13   9  -4  152.98   51.79
   4 -13  -4   90.29   42.10
   4 -13  -4   96.49   32.10
 -13   4   4  156.28   42.10
 -13   4   4   49.00   28.40
   9 -13   4   94.69   31.50
   4   9   4  183.58   47.70
   4   9   4  121.09   49.40
   9   4  -4   90.19   27.80
  -9  13  -4  122.89   50.89
  -9  -4   4   79.79   33.70
  13  -4  -4   70.19   21.60
  -4  13   4   73.59   23.60
  13  -4  -4   95.19   45.90
  -4  13   4  121.59   39.60
  -4  13   4   68.19   40.30
  -9  13  -4  107.39   25.90
  -4  -9  -4   66.09   31.20
  13  -9   4  104.89   40.10
  -9  -4   4  122.09   35.30
 -13   3   4   98.39   29.20
 -13   3   4   96.39   27.30
 -13  10  -4  115.19   53.09
   3  10   4  153.48   47.40
 -13  10  -4  103.99   16.40
  10   3  -4   56.19   39.90
   3 -13  -4   39.50   39.00
   3  10   4   49.20   45.80
   3 -13  -4   73.29   31.60
  10 -13   4  108.69   33.90
  10   3  -4   62.09   25.40
  13 -10   4   93.59   38.10
  -3  13   4   76.49   23.90
  -3  13   4  116.09   40.90
  -3 -10  -4   89.79   31.50
  13  -3  -4   81.79   44.40
 -10  -3   4  148.39   34.00
 -10  13  -4   91.49   24.00
 -10  13  -4   84.19   49.90
 -10  -3   4   90.29   33.20
  13  -3  -4  103.39   27.30
  -3  13   4   99.79   37.90
   2  11   4  808.82   78.69
   2  11   4  962.40   72.69
   2 -13  -4  827.82   59.89
 -13   2   4  840.12   62.29
 -13   2   4  871.91   57.29
  11 -13   4  847.62   57.29
 -13  11  -4  885.31   85.89
  11   2  -4  809.22   53.59
 -13  11  -4  822.92   37.00
  11   2  -4  827.72   75.69
  11 -13   4  993.00   71.99
   2 -13  -4  904.71  101.29
  11 -13   4 1045.80   57.39
 -11  -2   4  884.51   62.29
  -2 -11  -4 1019.40   74.49
 -11  13  -4  811.52   52.49
  13  -2  -4  831.02   75.19
  13  -2  -4  790.72   50.99
 -11  13  -4  934.61   86.79
  -2 -11  -4  785.32   57.99
  -2  13   4  924.21   68.99
  13 -11   4  825.42   60.89
  -2  13   4  895.41   73.79
 -11  -2   4  881.21   67.59
   1  12   4  959.20   77.89
 -13  12  -4  940.51   83.39
  12 -13   4  855.71   57.89
 -13  12  -4  821.22   39.60
   1  12   4  839.32   70.69
 -13   1   4  828.02   61.89
  12   1  -4  844.72   54.19
   1 -13  -4  841.62   60.29
  12   1  -4  796.92   75.69
 -13   1   4  830.42   55.29
  -1 -12  -4  798.82   56.69
  13 -12   4  813.22   59.39
 -12  -1   4  890.81   63.09
  -1  13   4  768.62   73.39
  -1  13   4  900.61   71.59
 -12  -1   4  877.51   59.69
  13  -1  -4  767.72   74.29
  13  -1  -4  795.02   51.49
 -12  13  -4  780.72   45.10
  -1 -12  -4  747.33   72.19
 -12  13  -4  953.10   85.29
 -13  13  -4   44.00   48.80
   0  13   4   31.40   43.50
  13 -13   4   17.80   30.50
  13   0  -4    6.90   20.30
 -13   0   4   39.30   32.50
  13   0  -4    2.00   38.90
   0  13   4   68.09   40.80
 -13   0   4   15.80   27.60
   0 -13  -4   12.00   31.90
 -13  13  -4    4.70   17.50
   0  14  -4   46.70   28.40
   0  14  -4   21.50   25.50
 -14   0  -4   62.09   44.30
   0 -14   4  -25.00   32.50
 -14  14   4   12.70   24.40
 -14  14   4    3.50   26.40
  14   0   4  -18.60   40.70
 -14  14   4   37.00   34.80
  14   0   4   -0.60   17.00
   0 -14   4   -2.30   29.60
  14 -14  -4   48.50   37.90
   0  14  -4   18.80   43.10
  14 -14  -4   57.59   31.00
   1  13  -4  221.28   38.90
 -14  13   4  243.88   56.09
  13 -14  -4  193.78   45.60
   1  13  -4   85.29   27.50
   1  13  -4  154.98   49.70
   1 -14   4   75.29   34.50
  13 -14  -4  111.49   30.00
 -14   1  -4  183.88   49.50
 -14  13   4  200.38   37.50
  13   1   4  126.29   26.80
  -1 -13   4   65.29   34.80
  14  -1   4  175.68   49.30
 -13  14   4  184.38   38.80
  14 -13  -4  191.18   45.10
  -1  14  -4  173.88   50.09
 -13  14   4  155.28   30.60
  -1  14  -4  117.49   28.10
  14 -13  -4  167.48   32.60
  12   2   4  300.27   29.50
 -14  12   4  285.27   55.19
   2  12  -4  233.58   40.70
   2  12  -4  270.17   44.40
 -14  12   4  268.07   38.30
   2 -14   4  236.38   43.50
   2 -14   4  207.98   42.70
  12   2   4  298.87   39.70
 -14   2  -4  331.97   72.19
  12 -14  -4  274.67   60.99
  12 -14  -4  317.97   45.60
   2  12  -4  192.98   50.19
  12   2   4  175.38   49.00
  14 -12  -4  256.17   61.49
 -12  14   4  296.67   40.80
 -12  -2  -4  350.06   39.60
 -12  14   4  185.08   38.60
  -2  14  -4  261.47   66.19
 -12  14   4  279.57   58.59
  -2 -12   4  180.08   42.20
  -2  14  -4  270.47   44.70
  14  -2   4  249.18   56.49
  -2 -12   4  220.18   53.89
  14 -12  -4  303.27   43.00
   3  11  -4   67.59   44.40
  11   3   4  109.29   28.90
   3 -14   4   94.89   25.40
 -14  11   4  119.09   34.10
  11 -14  -4  104.79   32.40
 -14   3  -4   88.49   44.70
 -14  11   4  109.39   25.60
   3 -14   4   39.70   34.00
  11   3   4   70.59   47.70
  11 -14  -4  119.49   39.40
   3  11  -4   85.79   27.40
   3  11  -4   22.40   33.00
  14 -11  -4   79.49   40.40
 -11  14   4   64.39   29.80
 -11  14   4  168.38   38.50
  14  -3   4   36.30   43.20
  -3  14  -4   75.09   26.90
  14 -11  -4   77.69   27.60
 -11  14   4   90.89   34.70
  -3 -11   4  131.89   40.60
 -11  -3  -4   69.09   24.90
  -3  14  -4   83.79   45.40
  -3 -11   4   94.09   39.90
   4  10  -4  427.46   44.20
 -14   4  -4  622.14   76.89
   4  10  -4  454.15   71.89
   4 -14   4  476.35   39.60
 -14  10   4  436.36   44.30
  10   4   4  491.55   69.49
  10 -14  -4  495.65   64.29
  10   4   4  490.75   36.70
   4  10  -4  476.45   46.50
 -14  10   4  441.56   58.59
  10 -14  -4  453.75   52.39
  -4  14  -4  441.76   50.39
  -4 -10   4  332.97   64.59
  -4 -10   4  433.06   56.29
 -10  14   4  494.85   65.49
  14 -10  -4  457.95   63.59
 -10  -4  -4  466.25   42.20
  14  -4   4  435.06   65.19
 -10  14   4  479.75   44.30
  -4  14  -4  462.95   69.79
 -10  14   4  487.15   48.70
  14 -10  -4  520.55   42.60
 -14   9   4  624.64   46.50
   9   5   4  569.94   70.89
   9 -14  -4  650.43   54.59
   5 -14   4  453.85   68.39
   5 -14   4  614.84   45.00
   5   9  -4  590.24   53.69
   5   9  -4  635.34   76.39
   9 -14  -4  663.03   67.39
 -14   5  -4  787.92   80.39
   9   5   4  636.94   52.89
  -9  14   4  703.23   49.70
  -9  14   4  698.13   54.49
  -9  -5  -4  804.12   66.99
  -5  14  -4  639.34   75.89
  14  -9  -4  692.93   48.50
  -5  -9   4  593.04   65.99
  -5  14  -4  666.93   53.39
  14  -9  -4  604.44   67.99
  14  -5   4  562.64   64.89
  -9  -5  -4  637.24   47.20
  -9  14   4  667.13   69.99
  -5  -9   4  554.64   60.99
   6 -14   4   14.70   36.30
 -14   6  -4  115.69   49.99
   8   6   4   38.80   47.80
 -14   8   4   51.29   22.50
   6 -14   4   65.79   26.70
   8 -14  -4   77.89   45.00
   8   6   4  168.98   43.80
   6 -14   4   -9.50   32.50
   6   8  -4   10.00   22.50
   6   8  -4   61.79   28.80
   8 -14  -4   56.89   31.30
   6   8  -4   68.39   46.60
  -6  -8   4   26.60   32.10
  -6  14  -4   77.19   27.10
  -8  -6  -4   80.19   27.70
  -8  14   4   84.39   26.70
  -8  14   4   69.79   34.50
  -8  14   4   45.50   39.30
  -8  -6  -4   86.49   39.80
  14  -8  -4   70.09   21.60
  -6  -8   4   44.30   37.50
  14  -6   4    3.10   42.20
  -6  14  -4   71.09   47.90
  14  -8  -4   49.60   40.90
   7 -14   4  199.88   48.20
   7 -14   4  166.58   41.60
 -14   7  -4  206.78   53.39
   7 -14  -4  197.48   47.90
   7 -14  -4  204.68   46.30
 -14   7   4  208.18   38.50
   7 -14   4  228.08   36.00
   7   7  -4  182.28   51.39
   7   7   4  119.99   45.10
   7   7  -4  204.08   44.60
   7   7   4  294.37   71.89
 -14   7   4  135.79   31.60
  14  -7   4  169.68   43.60
  -7  -7   4  308.97   55.09
  -7  -7  -4  198.48   53.89
  -7  -7   4  190.08   41.50
  -7  14   4  155.38   39.00
  14  -7  -4  170.38   44.60
  14  -7  -4  217.88   35.40
  -7  14  -4  212.88   42.90
  -7  -7  -4  222.48   43.20
  -7  14   4  243.08   49.30
  -7  14   4  220.58   39.80
  -7  14  -4  207.68   51.19
   8 -14   4   78.19   38.10
   6 -14  -4   27.80   28.80
 -14   6   4   24.70   27.80
   6 -14  -4   93.89   38.80
 -14   8  -4   75.29   46.20
   8   6  -4   49.20   29.20
   8 -14   4   51.99   33.00
   8 -14   4   81.29   29.40
 -14   6   4   44.00   24.60
   6   8   4   45.80   45.50
   8   6  -4   28.00   43.50
  14  -8   4   39.00   39.70
  -6  14   4   73.19   37.50
  -8  14  -4   61.09   25.70
  -6  -8  -4   80.19   29.30
  14  -6  -4   48.70   22.30
  -6  -8  -4  -16.00   35.70
  -6  14   4   77.59   39.00
  14  -6  -4   75.59   43.60
  -6  14   4   64.99   23.20
  -8  -6   4   69.79   34.00
  -8  -6   4   79.59   36.40
  -8  14  -4   46.50   43.40
   5 -14  -4   61.39   31.80
 -14   5   4   67.49   24.00
   9   5  -4   47.10   42.20
   9 -14   4   63.19   29.60
 -14   5   4   36.20   28.50
   5 -14  -4   80.49   36.90
 -14   9  -4  167.38   52.69
   9   5  -4   61.69   25.90
   5   9   4  152.08   43.20
   5   9   4   99.89   47.90
  14  -9   4   93.59   40.10
  -9  14  -4  107.49   49.70
  -5  14   4   80.89   38.50
  -9  -5   4   48.10   34.40
  -5  14   4   69.59   33.10
  14  -5  -4   60.79   20.30
  -9  14  -4   51.49   25.30
  -9  -5   4   96.79   37.30
  -5  -9  -4   64.49   31.60
  14  -5  -4   50.19   44.00
  -5  14   4   62.79   23.40
  -5  -9  -4   -5.90   35.20
   4 -14  -4  256.97   47.20
 -14   4   4  272.87   45.80
  10   4  -4  278.97   43.50
 -14   4   4  262.37   42.70
  10   4  -4  281.17   62.99
   4  10   4  413.26   71.09
   4  10   4  314.67   64.89
 -14  10  -4  352.96   77.89
  10 -14   4  284.47   41.70
  -4  14   4  304.27   39.50
  -4 -10  -4  235.68   45.30
 -10  14  -4  326.77   74.39
 -10  -4   4  249.28   59.49
  14 -10   4  225.78   49.20
  -4  14   4  313.97   53.09
  -4  14   4  249.08   59.39
  14  -4  -4  284.47   37.70
 -10  14  -4  283.27   47.40
 -10  -4   4  343.87   52.59
  14  -4  -4  241.88   62.69
 -14   3   4  390.86   45.00
  11 -14   4  345.07   46.60
   3  11   4  375.76   65.19
 -14   3   4  440.66   50.29
 -14  11  -4  451.45   81.39
  11   3  -4  339.97   64.29
   3 -14  -4  343.17   49.40
  11   3  -4  324.57   44.10
   3 -14  -4  250.77   61.19
 -11  -3   4  375.06   60.69
  -3 -11  -4  357.86   48.90
  -3  14   4  381.26   56.59
  14  -3  -4  354.86   63.49
  14  -3  -4  328.77   39.50
 -11  -3   4  409.16   52.99
  14 -11   4  374.46   50.59
 -11  14  -4  396.96   40.60
  -3  14   4  344.37   66.49
 -11  14  -4  388.56   77.59
  -3 -11  -4  345.27   47.60
   2  12   4   84.69   40.80
   2 -14  -4   14.50   28.30
  12   2  -4   47.40   24.00
   2 -14  -4   37.50   55.29
 -14   2   4   19.60   31.00
 -14  12  -4    8.50   46.20
  12 -14   4   31.90   30.40
   2  12   4   55.29   46.00
 -14   2   4   45.20   29.70
  12   2  -4   33.80   39.10
 -14  12  -4   30.00   12.40
  14  -2  -4   28.90   20.60
 -12  14  -4   45.50   45.60
 -12  -2   4    6.10   29.60
  -2 -12  -4   -6.10   27.80
 -12  14  -4   16.00   21.20
  -2 -12  -4   57.49   27.40
  -2  14   4   54.19   40.90
  -2  14   4   65.79   39.20
 -12  -2   4   83.99   32.30
  14 -12   4   42.10   33.40
  14  -2  -4   42.00   40.70
 -14  13  -4  678.43   79.09
 -14   1   4  558.14   54.09
   1  13   4  634.14   73.39
   1 -14  -4  536.15   51.69
  13 -14   4  533.65   50.59
 -14   1   4  580.14   53.39
 -14  13  -4  527.25   32.70
  13   1  -4  492.05   45.40
   1  13   4  659.23   67.59
  13   1  -4  559.94   68.39
  14 -13   4  566.74   52.69
 -13  -1   4  560.04   53.39
  14  -1  -4  543.75   67.19
  14  -1  -4  534.95   44.40
  -1  14   4  604.54   69.49
  -1  14   4  631.14   64.29
  -1 -13  -4  480.45   97.09
 -13  14  -4  513.75   38.40
 -13  -1   4  419.46   56.09
  -1 -13  -4  562.44   55.69
  -1 -13  -4  534.65   53.29
 -13  14  -4  689.53   81.19
 -14   0   4  442.66   56.59
   0  14   4  526.75   67.79
  14   0  -4  516.45   65.59
 -14   0   4  537.35   49.70
   0 -14  -4  530.25   51.79
   0 -14  -4  540.85   54.69
 -14  14  -4  556.54   78.69
   0  14   4  638.54   72.39
  14   0  -4  532.85   44.60
  14 -14   4  558.04   51.49
 -14  14  -4  481.95   36.20
 -15  15   4    9.60   26.90
   0  15  -4   28.30   30.70
  15 -15  -4   15.80   28.70
  15   0   4   14.20   46.00
   0  15  -4  -15.80   46.90
  15 -15  -4   -0.20   38.60
 -15   0  -4   79.49   46.40
 -15  15   4   76.99   35.10
  14   1   4   76.89   24.60
  14 -15  -4  111.59   31.30
   1  14  -4  128.29   31.90
 -15  14   4  105.19   41.80
   1 -15   4   88.79   38.10
   1 -15   4   67.09   41.20
  14 -15  -4  145.09   40.90
  14   1   4  131.39   26.90
   1  14  -4   87.39   28.50
 -15   1  -4  274.57   70.99
 -15  14   4  164.48   38.80
   1  14  -4   93.79   46.90
  15 -14  -4  144.49   33.50
  15 -14  -4  136.49   42.00
  -1  15  -4  119.99   32.40
  -1  15  -4  142.59   51.49
 -14  15   4   72.89   30.90
  -1  15  -4  116.49   29.50
  -1 -14   4   60.59   35.90
 -14  15   4  111.29   38.90
 -14  -1  -4  261.87   71.39
   2  13  -4   42.50   28.00
  13   2   4  102.59   26.80
   2 -15   4   27.20   35.30
   2 -15   4    8.90   33.50
  13   2   4   -3.40   44.30
   2  13  -4   58.09   43.60
  13 -15  -4   53.89   32.10
  13 -15  -4   71.09   38.60
 -15  13   4   77.49   32.60
 -15   2  -4  123.89   49.10
 -15  13   4   48.30   23.50
  -2 -13   4    4.20   46.00
  15 -13  -4   54.19   27.20
  15 -13  -4   63.19   38.20
 -13  15   4    3.50   27.40
  -2 -13   4   36.60   35.60
 -13  15   4   71.09   38.60
  -2  15  -4   48.10   44.60
  15  -2   4   19.60   46.90
  -2  15  -4   69.89   29.20
 -13  15   4   23.70   24.80
   3 -15   4  202.58   39.70
  12   3   4  259.17   62.39
   3  12  -4  327.27   69.39
   3  12  -4  234.38   44.70
 -15  12   4  302.37   38.20
 -15   3  -4  431.96   73.09
   3 -15   4  249.38   61.59
   3 -15   4  214.98   36.00
  12 -15  -4  292.67   46.50
  12 -15  -4  351.96   59.09
  12   3   4  263.27   31.50
 -15  12   4  325.57   52.69
   3  12  -4  193.88   45.70
 -12  15   4  350.96   41.30
 -12  15   4  296.17   42.10
 -12  -3  -4  223.98   36.90
  -3  15  -4  289.87   48.10
  -3 -12   4  211.98   52.19
  -3  15  -4  373.56   68.79
  15  -3   4  247.88   51.39
 -12  15   4  412.66   63.79
  15 -12  -4  341.27   60.89
  -3 -12   4  191.38   42.50
  15 -12  -4  327.17   43.30
  11   4   4  808.82   59.99
 -15   4  -4  708.63   78.89
  11 -15  -4  758.62   67.09
   4  11  -4  641.84   76.69
 -15  11   4  668.13   64.69
  11   4   4  726.83   41.30
   4  11  -4  722.43   54.39
   4 -15   4  651.23   44.00
 -15  11   4  641.64   47.50
   4 -15   4  631.24   57.49
   4 -15   4  648.44   67.69
  11   4   4  606.34   68.69
  11 -15  -4  715.03   54.39
  -4 -11   4  622.94   70.59
  -4  15  -4  580.54   75.69
 -11  15   4  733.63   70.99
 -11  15   4  645.94   48.50
 -11  -4  -4  789.02   74.59
  15  -4   4  680.53   68.69
  15 -11  -4  692.83   71.79
  -4 -11   4  633.24   61.89
  -4  15  -4  671.73   55.49
 -11  -4  -4  691.93   45.70
 -11  15   4  649.04   52.69
  15 -11  -4  671.83   48.50
 -15  10   4   34.20   20.40
   5  10  -4   38.70   44.00
  10 -15  -4   72.59   35.90
   5 -15   4   49.80   25.10
  10 -15  -4   51.69   28.20
  10   5   4    3.60   44.30
   5 -15   4   30.90   35.20
  10   5   4   42.30   19.30
 -15   5  -4   86.09   46.30
   5  10  -4   44.70   23.60
   5 -15   4  -34.40   32.60
  15  -5   4   19.60   38.00
 -10  15   4   43.80   38.10
 -10  -5  -4   52.39   27.20
  -5  15  -4   -2.80   42.10
  -5 -10   4   54.29   38.10
  -5  15  -4   56.09   26.50
  15 -10  -4   22.80   39.10
  -5 -10   4   24.60   37.60
  15 -10  -4   82.99   28.00
 -10  15   4   65.39   30.20
 -10  15   4   70.39   23.00
   6 -15   4  385.96   39.80
   6   9  -4  329.77   50.19
   6 -15   4  339.97   63.49
   6   9  -4  476.85   72.19
   9   6   4  359.36   64.29
   9   6   4  565.84   62.89
 -15   6  -4  599.14   77.39
   6 -15   4  305.57   52.19
   9 -15  -4  444.16   49.40
 -15   9   4  393.66   42.70
   9 -15  -4  544.85   58.19
  15  -9  -4  441.76   65.59
  -6  -9   4  308.87   64.89
  -9  -6  -4  446.06   60.49
  -6  15  -4  515.95   73.49
  -6  -9   4  365.96   58.69
  -9  15   4  398.76   44.90
  15  -6   4  435.76   61.29
  -9  15   4  465.85   51.79
  -9  -6  -4  476.05   44.70
  -9  15   4  496.85   62.19
  -6  15  -4  420.56   48.70
 -15   8   4  544.25   46.70
   8   7   4  514.75   69.69
   7 -15   4  489.15   57.09
   8 -15  -4  618.34   61.59
   7 -15   4  607.24   44.10
 -15   8   4  562.14   46.30
   7   8  -4  571.14   72.39
   7   8  -4  585.34   50.29
 -15   7  -4  677.63   79.19
   8 -15  -4  519.25   51.99
   7 -15   4  440.36   67.99
  -8  15   4  580.54   46.90
  -8  -7  -4  575.04   48.40
  15  -8  -4  629.74   65.49
  -7  15  -4  594.74   74.09
  -7  15  -4  587.44   51.49
  -8  15   4  581.74   55.89
  -7  -8   4  597.54   58.79
  15  -7   4  577.84   64.79
  -7  -8   4  604.54   63.69
  -8  15   4  568.04   61.69
  15  -8  -4  608.94   42.60
  -8  -7  -4  615.94   62.49
   7   8   4  142.19   43.90
   7 -15  -4   56.09   32.20
   8 -15   4   48.70   33.30
   8   7  -4   24.10   41.60
   7   8   4   47.60   44.50
 -15   8  -4   60.69   48.00
 -15   7   4   37.20   27.10
 -15   7   4   73.09   25.00
   8   7  -4   58.99   26.40
   8 -15   4   39.20   36.20
   8 -15   4   59.29   27.60
   7 -15  -4  123.99   37.20
  -7  15   4   48.80   41.50
  -7  -8  -4  -27.60   36.60
  -7  15   4   68.29   23.70
  15  -8   4   68.79   38.90
  -8  -7   4   65.99   36.60
  -8  15  -4   43.90   25.30
  -8  15  -4   78.29   46.30
  -7  15   4   73.99   34.80
  -8  -7   4   22.00   37.60
  -7  -8  -4   32.70   29.50
  15  -7  -4   32.00   37.40
  15  -7  -4   59.59   20.20
 -15   6   4  236.78   42.20
   9   6  -4  131.99   42.40
   6 -15  -4  194.88   41.40
 -15   6   4  170.78   41.20
   9   6  -4  173.08   44.60
   9 -15   4  222.48   40.30
 -15   9  -4  201.48   54.19
   6   9   4  276.77   67.19
   6 -15  -4  185.18   38.30
   6   9   4  151.08   49.60
  -6  15   4  226.48   37.10
  -9  -6   4  251.37   57.89
  15  -9   4  198.48   43.40
  -6  -9  -4  134.69   41.30
  -9  15  -4  265.17   40.60
  -6  -9  -4  227.38   44.40
  -6  15   4  155.98   38.80
  -6  15   4  288.17   58.59
  -9  -6   4  252.27   54.79
  -9  15  -4  152.58   52.29
  15  -6  -4  208.28   36.00
  15  -6  -4  196.38   46.90
   5  10   4  123.29   49.00
   5  10   4  219.58   48.90
   5 -15  -4  171.08   36.90
 -15   5   4  170.78   34.70
 -15   5   4  138.39   27.40
  10   5  -4  108.19   44.70
  10 -15   4  191.88   39.40
  10   5  -4  154.18   40.60
 -15  10  -4  191.98   51.29
  -5  15   4  235.98   61.09
  -5 -10  -4  199.58   47.30
 -10  -5   4  113.09   37.60
  -5  15   4  197.78   36.90
  15  -5  -4  121.59   43.50
  -5 -10  -4  174.38   33.80
  15  -5  -4  157.88   35.60
 -10  15  -4  145.09   50.79
  -5  15   4  210.78   49.80
 -10  15  -4  120.09   26.70
  -5 -10  -4   45.80   39.80
  15 -10   4  108.29   35.70
 -10  -5   4  121.09   37.20
 -15   4   4   83.29   29.60
 -15   4   4  121.89   30.30
  11   4  -4   56.59   44.00
   4 -15  -4   75.79   31.50
 -15  11  -4  117.49   50.69
  11 -15   4   79.79   30.70
  11   4  -4  107.39   27.80
   4  11   4   88.89   49.80
  -4  15   4   83.19   39.90
 -11  -4   4   82.19   35.20
 -11  -4   4   82.49   37.30
  15  -4  -4   71.59   41.90
  -4  15   4  117.19   39.10
 -11  15  -4   89.29   49.20
  15 -11   4   89.59   37.90
  -4 -11  -4   79.49   31.20
  -4 -11  -4   58.79   31.20
  15  -4  -4   68.59   22.10
  -4 -11  -4   -1.90   55.69
 -11  15  -4   24.30   27.60
   3 -15  -4  272.67   47.40
  12 -15   4  324.37   43.90
  12   3  -4  283.17   62.59
 -15   3   4  210.68   47.00
 -15   3   4  320.97   47.20
   3  12   4  305.87   63.79
  12   3  -4  184.78   42.90
 -15  12  -4  377.06   77.79
  -3 -12  -4  259.87   48.00
  -3 -12  -4  257.17   51.29
 -12  -3   4  357.36   51.39
  -3  15   4  285.87   55.39
  -3  15   4  295.67   63.99
  15  -3  -4  229.38   37.70
 -12  -3   4  304.37   55.49
  15  -3  -4  241.38   59.59
 -12  15  -4  208.48   38.20
  15 -12   4  306.17   48.70
 -12  15  -4  343.87   79.09
   2 -15  -4  322.77   51.09
  13   2  -4  312.37   41.70
 -15   2   4  295.07   50.29
 -15   2   4  335.77   47.50
  13   2  -4  312.57   66.99
 -15  13  -4  447.66   79.59
  13 -15   4  350.96   44.90
   2  13   4  356.36   61.19
  -2  15   4  388.86   58.79
  15 -13   4  326.67   48.40
  15  -2  -4  306.17   60.09
 -13  -2   4  286.47   52.59
  -2  15   4  430.16   70.09
 -13  -2   4  251.47   63.19
  15  -2  -4  299.77   37.40
  -2 -13  -4  265.27   49.40
 -13  15  -4  406.16   76.59
  -2 -13  -4  252.97   52.59
 -13  15  -4  287.27   37.30
 -15  14  -4   81.09   50.29
  14   1  -4    8.30   21.30
  14   1  -4   14.20   40.50
  14 -15   4   55.59   32.80
   1  14   4   19.80   45.40
   1 -15  -4   45.10   33.10
 -15   1   4   40.50   31.50
   1  14   4   89.29   39.20
 -15   1   4   30.00   30.00
  -1  15   4   16.50   43.40
  -1 -14  -4   11.80   28.70
 -14  -1   4  -15.30   31.90
 -14  -1   4   44.90   31.80
  15  -1  -4   -8.10   20.00
  15 -14   4   -4.60   31.40
  -1 -14  -4   49.60   30.60
 -14  15  -4   25.50   47.90
  -1  15   4   86.59   41.90
 -14  15  -4    7.00   18.70
  15 -15   4  363.06   54.19
   0  15   4  495.35   67.69
  15   0  -4  336.47   61.29
 -15   0   4  335.57   51.09
   0 -15  -4  325.07   49.60
   0  15   4  322.97   64.79
  15   0  -4  365.96   42.60
 -15  15  -4  385.26   79.09
  16 -16  -4   74.49   32.20
   0  16  -4   80.29   33.30
  16 -16  -4   92.89   40.30
   0  16  -4   35.90   46.70
 -16  16   4   43.70   29.50
 -16   0  -4   77.99   62.19
   0 -16   4   17.80   35.10
  16   0   4   43.10   46.60
   1  15  -4   69.79   48.40
   1  15  -4   21.30   33.00
  15 -16  -4   75.19   39.00
  15 -16  -4   46.80   33.50
   1 -16   4   32.50   37.80
  15   1   4   34.20   48.10
 -15  16   4  -29.70   29.70
  16  -1   4   41.80   44.00
  -1  16  -4   51.49   50.09
 -15  -1  -4  127.39   47.60
  16 -15  -4   46.50   39.30
  -1 -15   4   25.10   39.00
  -1  16  -4   65.99   33.00
  14 -16  -4  210.28   45.50
   2 -16   4  112.59   37.30
 -16   2  -4  291.87   76.79
 -16  14   4  197.08   43.20
  14   2   4  159.08   52.99
   2  14  -4  185.58   51.49
   2  14  -4  184.68   46.60
  -2  16  -4  169.68   60.99
  -2 -14   4  119.89   36.80
  -2  16  -4  184.28   47.70
  16  -2   4  180.78   51.49
  16 -14  -4  198.78   43.70
  -2  16  -4  283.27   42.20
 -14  16   4  185.58   35.80
  16 -14  -4  217.08   47.80
  13 -16  -4  298.27   56.39
  13 -16  -4  257.47   49.70
 -16   3  -4  316.37   71.09
   3  13  -4  190.88   54.59
 -16  13   4  148.69   37.90
 -16  13   4  245.98   37.90
  13   3   4  124.19   70.89
   3 -16   4  166.58   41.30
  13   3   4  239.78   31.80
   3  13  -4  204.28   46.60
   3 -16   4  180.88   44.80
 -13  -3  -4  231.88   39.20
 -13  16   4  291.47   69.39
  -3  16  -4  194.98   48.20
  16 -13  -4  249.28   59.29
  -3  16  -4  158.68   52.39
 -13  16   4  199.08   42.40
  16  -3   4  149.49   59.89
  16 -13  -4  244.98   43.80
   4 -16   4   10.80   32.60
   4  12  -4   56.29   46.20
   4 -16   4   33.20   36.90
  12 -16  -4   92.29   36.70
   4 -16   4   21.90   26.10
 -16  12   4   24.60   24.30
  12 -16  -4   78.19   32.30
  12   4   4   12.60   49.20
 -16   4  -4   97.79   47.00
 -16  12   4  101.69   33.80
   4  12  -4   44.40   30.40
   4  12  -4   46.90   31.00
  -4  16  -4   22.80   45.40
  16 -12  -4   44.50   39.60
 -12  16   4   63.09   31.70
  16  -4   4   54.99   51.49
  -4  16  -4   53.19   27.40
 -12  16   4  100.09   41.40
 -12  -4  -4   91.69   45.70
  -4 -12   4   55.89   51.39
 -12  -4  -4  111.39   26.80
  16 -12  -4   64.19   26.30
 -16  11   4  524.75   42.20
 -16  11   4  400.06   61.09
   5 -16   4  358.16   56.19
 -16   5  -4  626.54   75.09
   5 -16   4  460.85   41.90
  11 -16  -4  551.94   51.39
   5 -16   4  332.37   68.69
  11   5   4  489.15   65.39
   5  11  -4  521.55   75.09
   5  11  -4  535.15   49.30
  11   5   4  515.35   67.99
  -5 -11   4  432.26   55.49
  16 -11  -4  517.25   64.59
  16  -5   4  534.85   64.19
 -11  16   4  492.05   51.69
  16 -11  -4  515.25   46.40
 -11  16   4  624.54   70.29
  -5  16  -4  491.05   73.29
  -5  16  -4  451.85   52.09
 -11  -5  -4  489.85   45.40
   6 -16   4  589.44   59.99
  10 -16  -4  796.42   58.79
   6  10  -4  790.02   78.49
   6 -16   4  581.04   70.79
   6 -16   4  755.82   47.90
  10 -16  -4  903.81   64.99
 -16   6  -4  814.32   81.29
  10   6   4  749.03   74.09
   6  10  -4  678.83   55.39
   6  10  -4  748.73   52.69
 -16  10   4  795.52   51.09
 -10  -6  -4  908.91   70.99
  -6  16  -4  826.02   81.09
 -10  16   4  805.52   69.99
 -10  -6  -4  821.22   52.69
  -6 -10   4  790.32   66.19
  16  -6   4  759.62   68.19
  -6  16  -4  722.43   57.29
 -10  16   4  803.92   55.19
  16 -10  -4  776.92   70.89
   9   7   4   37.00   45.10
   7   9  -4   46.40   44.30
 -16   9   4   25.80   22.40
 -16   7  -4  107.99   47.40
   9 -16  -4   59.49   30.30
   9 -16  -4   81.29   63.79
   7 -16   4   12.00   35.80
   7 -16   4   46.60   26.30
   7   9  -4   31.30   27.10
   7   9  -4   33.30   27.10
   7 -16   4    8.30   32.50
 -16   9   4   41.00   27.30
  -7  -9   4   73.09   37.70
  -9  16   4   48.90   31.90
  -9  16   4   69.69   35.00
  -9  -7  -4   43.40   29.00
  -9  16   4   58.19   38.60
  -9  -7  -4    3.80   39.00
  -7  16  -4   62.99   46.70
  16  -7   4   84.69   42.80
  -7  16  -4   27.50   26.00
  16  -9  -4   69.59   42.40
   8 -16  -4  478.45   52.09
 -16   8  -4  557.24   77.29
   8 -16   4  577.04   64.09
 -16   8   4  430.56   44.00
   8 -16   4  447.36   52.29
   8   8   4  336.37   66.19
   8   8  -4  442.06   66.49
   8 -16  -4  526.85   53.89
   8   8   4  608.74   66.69
 -16   8   4  442.36   44.30
   8   8  -4  443.76   49.10
   8 -16   4  401.76   39.60
  -8  16   4  431.36   54.39
  -8  -8  -4  425.66   47.90
  16  -8  -4  497.15   67.49
  -8  16   4  439.66   64.99
  -8  -8   4  444.46   72.79
  -8  16   4  524.25   59.89
  -8  16  -4  373.86   48.60
  -8  -8  -4  377.06   62.79
  -8  16  -4  388.86   75.89
  16  -8   4  455.85   60.09
  16  -8  -4  459.55   40.60
  -8  -8   4  483.95   57.09
   9 -16   4  310.27   41.00
   7 -16  -4  438.86   69.79
   9   7  -4  257.17   61.89
   7 -16  -4  297.07   50.19
   9   7  -4  268.47   44.90
 -16   9  -4  378.66   76.29
 -16   7   4  216.28   43.10
 -16   7   4  310.17   43.20
   7   9   4  227.98   49.50
  -9  16  -4  336.97   70.69
  -7  -9  -4  225.48   48.40
  -7  16   4  428.86   61.19
  16  -9   4  319.97   55.19
  16  -7  -4  368.96   36.80
  -9  -7   4  220.48   44.90
  -7  16   4  276.07   48.30
  -7  -9  -4  312.37   45.60
  -7  -9  -4  316.07   49.30
  -9  -7   4  312.57   52.89
  16  -7  -4  312.17   62.59
  -9  16  -4  243.18   43.20
 -16   6   4   27.80   23.60
  10 -16   4   67.09   29.80
  10   6  -4    4.50   25.40
  10   6  -4   50.69   43.00
   6 -16  -4   49.20   30.90
 -16   6   4   63.89   30.40
 -16  10  -4   28.70   46.20
   6  10   4   11.40   47.50
  -6 -10  -4   20.10   42.40
 -10  16  -4   54.39   24.80
 -10  -6   4   14.80   38.10
  -6  16   4   54.59   37.00
  16 -10   4   52.19   33.80
  -6  16   4   25.50   33.70
  16  -6  -4   30.30   19.20
 -10  16  -4    5.10   48.20
 -10  -6   4   50.19   36.60
  16  -6  -4   15.20   39.50
  -6 -10  -4    5.30   29.20
  -6 -10  -4   39.80   29.70
 -16   5   4  190.58   42.00
 -16   5   4  156.58   41.40
  11 -16   4  222.28   40.00
   5  11   4  311.87   73.09
 -16  11  -4  209.88   55.19
  11   5  -4  210.88   41.20
   5 -16  -4  211.58   46.30
   5  11   4  202.48   51.59
  11   5  -4  211.58   49.99
  16 -11   4  230.78   49.70
 -11  16  -4  245.98   41.60
  -5 -11  -4  225.48   46.00
  -5  16   4  110.69   40.70
 -11  16  -4  129.29   52.99
  -5  16   4  208.58   49.40
  -5 -11  -4  122.99   44.30
  16  -5  -4  205.88   37.00
 -11  -5   4  246.68   52.49
  16  -5  -4  103.59   42.60
 -16  12  -4  168.88   55.89
 -16   4   4   89.79   27.50
  12 -16   4  168.08   43.20
   4 -16  -4  148.19   35.60
  12   4  -4   95.69   25.40
 -16   4   4  123.79   31.20
   4  12   4  113.29   48.80
   4  12   4  102.39   46.40
  12   4  -4   91.39   42.10
  -4 -12  -4   76.49   33.80
  -4 -12  -4   18.10   50.19
  -4  16   4  122.39   41.00
  16 -12   4  180.48   46.20
 -12  -4   4  124.29   37.10
  16  -4  -4   81.69   22.90
  -4 -12  -4   83.99   32.50
  16  -4  -4  138.99   66.29
 -12  16  -4   73.79   26.20
  -4  16   4  127.09   39.30
 -12  16  -4  103.09   52.49
  13 -16   4   39.50   31.20
 -16  13  -4   43.50   48.40
  13 -16   4  118.39   46.20
 -16   3   4   44.90   31.60
   3  13   4  -14.70   47.40
   3 -16  -4   58.59   44.30
 -16   3   4    7.60   25.30
  13   3  -4   12.80   41.30
   3  13   4   12.50   44.50
  16 -13   4   57.49   36.60
  16  -3  -4   -1.00   22.20
 -13  -3   4   49.10   34.70
  -3 -13  -4   53.89   31.80
  -3  16   4   35.50   37.20
  -3 -13  -4   -3.10   30.20
 -13  16  -4   36.50   53.69
  16  -3  -4   20.60   46.40
  -3  16   4   92.79   52.89
 -13  16  -4   25.40   22.60
   2  14   4  279.87   96.49
 -16   2   4  210.38   48.80
  14   2  -4  199.88   73.09
  14   2  -4  231.18   61.69
   2  14   4  142.69   48.40
 -16  14  -4  342.47   84.79
 -16   2   4  254.47   66.19
  14 -16   4  256.77   44.80
  -2  16   4  290.27   59.09
 -14  -2   4  264.67   55.09
  16  -2  -4  269.07   39.90
  16 -14   4  152.28   51.89
  -2 -14  -4  140.39   38.30
  16  -2  -4  232.98   63.59
 -14  16  -4  363.26   78.09
  -2 -14  -4  192.18   38.20
 -14  16  -4  195.18   37.10
  15   1  -4  179.38   46.60
   1 -16  -4  221.18   50.39
 -16  15  -4  265.17   82.49
 -16   1   4  235.48   50.39
   1  15   4  188.48   49.80
  15 -16   4  241.48   47.40
  16 -15   4  209.98   47.60
  16  -1  -4  215.08   50.39
 -15  16  -4  314.47   61.69
  -1  16   4  211.78   52.49
  16  -1  -4  137.89   39.50
  -1 -15  -4  231.18   58.69
  16   0  -4   13.10   40.90
  16 -16   4   69.89   35.60
 -16   0   4   48.20   37.00
   0 -16  -4   31.50   32.30
   0  16   4   49.50   44.60
 -17  17   4   59.59   29.90
   0  17  -4  -30.70   36.80
   0 -17   4  -24.50   32.90
 -17   0  -4  104.79   48.10
   0  17  -4   64.19   52.89
  17 -17  -4   66.29   42.40
  17   0   4    8.60   43.60
  17 -17  -4   43.90   31.10
  16 -17  -4   56.29   30.80
   1 -17   4   -7.60   33.20
   1  16  -4   31.20   33.20
  16 -17  -4   36.40   39.20
 -17   1  -4   75.59   48.40
   1  16  -4  -46.70   53.49
  16   1   4    8.70   44.40
  -1 -16   4    9.80   35.50
  17  -1   4   33.40   47.00
  -1  17  -4  -11.00   47.80
  -1  17  -4   48.90   34.40
  17 -16  -4   48.20   40.80
  17 -16  -4    7.80   30.30
 -16  -1  -4   92.09   52.49
 -16  17   4  -48.50   31.60
   2 -17   4   20.90   37.00
  15   2   4   49.00   48.70
  15 -17  -4   87.49   34.10
   2  15  -4   12.70   36.60
   2  15  -4   95.19   50.29
 -17   2  -4  153.78   50.09
  -2  17  -4   80.59   52.59
 -15  -2  -4  169.78   50.99
  -2  17  -4   98.49   36.00
  17 -15  -4  106.89   41.60
  17  -2   4   40.10   43.80
  -2 -15   4   37.80   39.00
  17 -15  -4   86.89   34.50
  14 -17  -4   45.00   30.30
   3  14  -4   34.00   33.30
 -17  14   4   89.39   46.80
 -17   3  -4  113.79   47.50
  14   3   4   -5.10   45.50
   3  14  -4   77.79   50.49
  17 -14  -4   38.10   40.80
  -3  17  -4   79.09   29.90
  -3  17  -4   25.10   48.70
 -14  17   4   41.50   32.70
  17  -3   4   20.00   45.80
  -3 -14   4    5.70   35.30
  17 -14  -4   47.40   39.10
  13   4   4  318.47   68.29
  13   4   4  409.06   35.90
   4 -17   4  236.78   47.30
 -17  13   4  239.88   59.29
  13 -17  -4  333.77   48.90
   4  13  -4  246.78   39.50
 -17   4  -4  450.55   74.49
  13 -17  -4  454.55   60.19
   4  13  -4  321.77   73.79
  -4  17  -4  391.66   73.59
  17  -4   4  341.27   64.99
  -4  17  -4  210.68   52.79
  -4 -13   4  234.18   55.59
  17 -13  -4  327.07   61.59
 -13  17   4  376.26   48.00
  17 -13  -4  368.16   45.10
 -17  12   4  606.54   63.79
   5 -17   4  606.54   61.29
 -17  12   4  770.22   55.79
   5 -17   4  657.13   44.20
  12 -17  -4  716.83   58.99
   5  12  -4  801.12   80.89
  12 -17  -4  817.12   64.69
   5 -17   4  542.75   73.59
   5  12  -4  560.64   52.29
 -17   5  -4  739.93   77.39
  12   5   4  676.53   70.79
  -5  17  -4  530.15   58.69
  17 -12  -4  714.43   51.79
  -5  17  -4  681.43   81.99
  17 -12  -4  738.43   67.99
 -12  17   4  766.82   57.49
 -12  -5  -4  735.43   77.29
  17  -5   4  716.43   70.69
  -5 -12   4  639.14   61.49
  11 -17  -4   50.99   34.90
   6  11  -4   32.30   44.90
   6 -17   4   44.20   28.50
 -17  11   4   51.09   23.90
  11 -17  -4   49.60   36.50
   6 -17   4  -13.30   34.50
   6  11  -4   39.40   50.59
  11   6   4   -5.60   43.40
   6 -17   4   50.89   37.70
 -17   6  -4   59.89   45.60
  -6 -11   4   23.50   37.60
  -6  17  -4  -12.30   28.60
  -6  17  -4   73.99   48.40
 -11  -6  -4   80.59   42.90
 -11  17   4   45.10   33.10
  17  -6   4   51.29   41.80
 -11  -6  -4   81.59   30.50
  17 -11  -4   91.09   41.20
   7 -17   4  491.25   57.29
  10 -17  -4  610.14   58.09
   7  10  -4  485.75   55.49
  10   7   4  686.53   67.89
   7 -17   4  585.44   71.79
   7 -17   4  635.34   44.30
  10   7   4  479.95   75.99
   7  10  -4  705.33   74.69
 -17  10   4  582.64   48.20
 -17  10   4  642.54   49.10
 -17   7  -4  693.03   78.89
 -10  -7  -4  585.44   51.29
  17 -10  -4  672.43   68.09
 -10  -7  -4  649.93   68.19
  -7 -10   4  542.45   65.69
  -7  17  -4  495.85   55.79
  17  -7   4  605.14   73.59
 -10  17   4  709.33   58.09
  -7  17  -4  665.63   79.69
 -17   8  -4  705.53   79.59
   8   9  -4  620.94   71.89
   9 -17  -4  533.25   57.79
 -17   9   4  650.43   48.50
   8 -17   4  584.54   76.59
   8 -17   4  639.74   48.30
 -17   9   4  741.03   53.89
   8 -17   4  598.54   58.89
  -9  -8  -4  670.93   53.99
  -8  17  -4  518.65   55.39
  17  -9  -4  727.73   69.49
  -9  17   4  631.24   57.69
  -8  -9   4  573.04   72.09
  -8  17  -4  654.83   81.69
 -17   8   4   62.69   27.00
   9 -17   4  103.39   30.60
   9 -17   4  124.49   49.30
 -17   9  -4   79.09   49.40
   8 -17  -4   84.49   36.50
   9   8  -4   57.59   45.30
 -17   8   4   95.09   29.70
  17  -8  -4  137.99   33.90
  -8  -9  -4  107.69   32.30
  -9  17  -4   60.09   28.10
  -9  -8   4   49.00   51.49
  -8  -9  -4   13.20   41.90
  -9  17  -4   62.89   49.90
  17  -8  -4   45.50   38.60
  -8  17   4   92.29   37.40
  -8  -9  -4   62.29   31.00
 -17   7   4  282.77   42.90
  10 -17   4  303.97   40.10
   7 -17  -4  228.98   49.30
  10   7  -4  194.78   50.19
 -17  10  -4  213.38   52.49
 -17   7   4  279.07   46.00
   7  10   4  156.88   75.69
  17  -7  -4  299.87   37.70
  -7 -10  -4  252.17   52.69
  -7 -10  -4  327.67   48.60
  -7  17   4  282.47   51.49
 -10  17  -4  259.97   54.29
 -10  17  -4  237.28   46.10
  -7 -10  -4  181.08   50.39
 -10  -7   4  196.08   57.29
   6 -17  -4   63.69   30.60
  11   6  -4   96.69   45.30
  11 -17   4   97.29   32.50
 -17   6   4   89.39   31.40
 -17   6   4   29.90   27.90
   6  11   4   51.19   54.39
 -17  11  -4   92.39   49.99
  -6 -11  -4   49.10   32.00
  17  -6  -4  103.69   44.40
  17  -6  -4   81.39   22.10
  -6  17   4  126.89   40.70
  -6 -11  -4  117.39   48.50
  17 -11   4   91.19   45.70
  -6 -11  -4  112.79   34.50
 -11  -6   4   61.79   53.09
 -11  17  -4   80.09   27.60
 -11  17  -4   81.29   53.19
   5  12   4   40.40   42.30
  12 -17   4  113.89   33.90
 -17   5   4   53.49   27.60
 -17  12  -4   71.19   49.40
 -17   5   4   65.29   30.60
   5 -17  -4   27.50   33.00
  12   5  -4   30.00   43.90
 -12  -5   4   56.29   40.80
  -5 -12  -4   66.79   32.30
  17  -5  -4   44.60   21.10
  -5 -12  -4   46.80   44.00
  17 -12   4   31.90   33.00
  -5  17   4   60.79   37.00
  -5 -12  -4   97.49   36.40
 -12  17  -4   56.99   54.59
 -12  17  -4   66.09   25.60
  17  -5  -4   79.59   42.40
 -17  13  -4  304.37   79.69
   4  13   4  135.99   48.80
   4 -17  -4  132.19   34.40
  13 -17   4  225.98   46.20
 -17   4   4  122.99   48.50
 -17   4   4  178.48   43.70
 -13  -4   4  194.18   42.90
  -4 -13  -4  136.39   36.20
  17  -4  -4  147.59   46.20
  -4  17   4  210.78   52.69
  -4 -13  -4  221.78   50.59
  17 -13   4  145.59   38.10
 -13  17  -4  145.29   30.00
 -13  17  -4  149.99   56.59
  17  -4  -4  205.28   40.90
 -17   3   4  236.18   51.29
   3  14   4  164.38   48.50
   3 -17  -4  183.68   41.70
  14 -17   4  178.68   44.60
 -17  14  -4  192.98   57.59
  14   3  -4  169.18   45.80
  -3 -14  -4  226.38   51.29
  17  -3  -4  112.69   26.90
 -14  17  -4  225.38   63.59
 -14  -3   4  151.38   39.90
  -3  17   4  174.78   49.30
  17  -3  -4  197.98   47.50
  17 -14   4  207.28   48.70
 -17  15  -4  104.39   55.99
  15   2  -4   28.90   41.70
 -17   2   4   41.00   46.10
   2 -17  -4   20.00   32.00
   2  15   4   63.49   48.10
  15 -17   4   71.09   33.40
 -15  -2   4   34.20   37.40
 -15  17  -4   66.69   53.39
  -2  17   4   79.49   45.10
  17 -15   4   79.79   34.80
  -2 -15  -4   19.70   37.60
  17  -2  -4   44.50   40.70
   1  16   4   25.90   46.10
 -17   1   4   11.70   35.10
  16   1  -4   14.80   39.90
 -17  16  -4   11.10   51.49
   1 -17  -4    6.70   31.60
  16 -17   4    0.60   31.60
 -16  -1   4   15.40   39.60
  -1  17   4    7.20   42.10
  -1 -16  -4   26.40   31.80
 -16  17  -4    7.90   57.79
  17  -1  -4   31.60   40.50
  17 -16   4   20.40   32.30
   0  17   4   80.99   45.30
   0 -17  -4   82.99   35.40
 -17  17  -4   92.79   53.99
  17   0  -4   50.09   39.60
 -17   0   4   69.09   37.80
  17 -17   4   70.19   35.60
   1  17  -4   71.89   56.09
 -18   1  -4  105.29   49.10
  17 -18  -4   12.40   45.40
   1 -18   4    0.20   37.40
  17   1   4   22.30   45.10
   1  17  -4   -6.70   36.40
  17 -18  -4   36.60   31.90
  18 -17  -4  -13.10   45.20
  -1  18  -4   39.00   35.10
 -17  18   4  -43.50   31.00
  -1 -17   4   -5.80   33.90
 -17  -1  -4   54.29   50.69
  18  -1   4   26.40   46.40
  18 -17  -4    7.80   33.00
  -1  18  -4   74.09   52.99
   2  16  -4   79.69   39.90
  16 -18  -4   68.99   46.90
  16 -18  -4   46.60   31.70
  16   2   4   33.60   44.90
   2  16  -4   49.30   56.39
 -18   2  -4  147.19   48.90
   2 -18   4   44.00   36.20
  -2  18  -4   97.79   35.90
 -16  18   4   17.20   35.30
  -2  18  -4  -29.30   55.09
  18 -16  -4   77.79   31.00
  18  -2   4   49.90   46.40
 -16  -2  -4  126.09   51.99
  18 -16  -4   71.99   43.40
  -2 -16   4   12.10   36.50
   3  15  -4  206.68   60.39
 -18   3  -4  304.27   75.39
   3  15  -4   80.09   40.40
  15 -18  -4  186.18   44.80
  15   3   4   90.79   45.60
   3 -18   4  130.29   40.00
  15 -18  -4  190.88   47.20
  -3  18  -4  243.78   46.80
  18 -15  -4  195.88   41.80
  18 -15  -4  234.28   61.39
  -3  18  -4  128.39   56.39
 -15  18   4  189.08   39.30
  18  -3   4  136.09   48.60
   4  14  -4  195.98   56.79
  14   4   4   85.69   45.50
  14 -18  -4  110.99   32.90
  14 -18  -4  243.18   57.69
   4  14  -4   37.80   35.60
   4 -18   4  120.49   38.30
  -4 -14   4  101.79   40.40
  18  -4   4  123.89   48.60
  18 -14  -4  114.29   30.60
  18 -14  -4  137.09   43.40
  -4  18  -4  127.99   53.99
 -14  18   4  194.18   41.10
   5 -18   4    4.10   43.10
  13   5   4  -16.00   40.40
   5  13  -4   -7.70   31.40
  13 -18  -4   51.49   33.50
 -18   5  -4   72.69   46.30
   5  13  -4   85.49   49.80
  -5 -13   4    2.40   35.90
 -13  18   4   57.39   35.10
  18  -5   4   54.79   43.20
  18 -13  -4   27.50   39.10
 -13  -5  -4   83.19   49.60
  -5  18  -4   61.99   52.39
  -5  18  -4  -22.20   42.20
   6 -18   4  578.04   44.80
   6 -18   4  429.26   59.09
   6  12  -4  555.94   56.79
 -18   6  -4  662.83   79.29
 -18  12   4  599.54   61.39
  12   6   4  509.65   63.89
  12 -18  -4  587.94   55.49
   6 -18   4  625.04   81.69
   6  12  -4  654.73   77.29
  18  -6   4  571.74   67.79
  -6  18  -4  392.66   58.49
  -6  18  -4  510.15   82.99
 -12  -6  -4  631.74   78.59
  -6 -12   4  478.65   62.69
 -12  18   4  631.04   57.69
  18 -12  -4  437.16   41.00
  18 -12  -4  502.95   91.59
  11   7   4  830.62   71.99
   7 -18   4  685.93   66.49
 -18  11   4  754.52   67.49
 -18   7  -4  933.11   82.49
  11 -18  -4  891.81   62.79
  11   7   4  748.53   67.59
   7 -18   4  857.31   52.89
   7  11  -4  927.61   83.29
   7  11  -4  944.91   81.19
 -11  -7  -4  951.70   78.09
 -11  18   4  950.70   64.39
  -7  18  -4  910.71   87.09
  -7 -11   4  796.92   70.99
  18  -7   4  890.81   73.99
  10 -18  -4   71.69   31.70
   8  10  -4   49.90   48.90
   8 -18   4   16.80   36.00
 -18   8  -4   93.99   48.40
 -18  10   4  126.19   35.50
  10   8   4  101.09   38.10
   8 -18   4   81.59   28.90
  10   8   4    8.80   40.30
  -8 -10   4   60.39   37.80
  -8  18  -4   72.69   51.19
 -10  18   4   53.59   36.80
  18 -10  -4   84.99   41.00
  18  -8   4   81.79   41.70
 -10  -8  -4  100.59   33.90
  -8  18  -4   12.00   30.80
   9   9   4  415.56   67.39
   9 -18  -4  463.35   53.69
   9   9   4  591.74   72.39
   9 -18   4  489.45   47.00
 -18   9   4  535.35   53.09
   9   9  -4  594.54   78.79
   9 -18   4  597.74   64.79
 -18   9  -4  616.44   79.89
  18  -9  -4  483.35   66.69
  -9  -9   4  481.05   64.29
  -9  18  -4  481.35   80.79
  -9  -9  -4  589.14   54.09
  18  -9   4  479.05   59.79
  -9  18   4  513.25   57.79
  -9  -9  -4  437.56   69.89
  -9  -9  -4  439.66   57.89
 -18   8   4  291.37   46.90
  10   8  -4  347.27   70.89
   8  10   4  278.77   63.19
 -18  10  -4  375.96   76.99
  10 -18   4  327.57   41.20
   8 -18  -4  281.57   49.80
 -10  -8   4  265.27   60.79
  18 -10   4  359.16   56.19
  18  -8  -4  266.87   59.69
 -10  18  -4  333.87   79.39
  18  -8  -4  397.36   40.50
  -8 -10  -4  293.37   55.09
 -10  18  -4  214.88   50.09
  -8  18   4  346.67   54.49
  -8 -10  -4  338.67   50.39
 -18  11  -4  125.09   51.89
   7 -18  -4  146.89   38.60
   7  11   4   77.59   49.00
 -18   7   4  182.28   35.80
  11 -18   4  188.58   42.40
  11   7  -4  134.29   49.70
  18 -11   4  122.69   38.40
  -7 -11  -4   99.89   33.50
  18  -7  -4  184.28   37.40
 -11  18  -4  127.19   53.09
  -7 -11  -4   13.30   49.60
 -11  18  -4   97.49   29.90
  -7 -11  -4  147.39   37.30
 -11  -7   4  131.09   40.80
  18  -7  -4   67.29   39.50
  -7  18   4  136.09   39.80
   6  12   4   36.90   43.50
   6 -18  -4   53.59   31.70
 -18  12  -4  104.49   49.50
 -18   6   4   84.99   32.60
  18 -12   4   54.89   34.20
 -12  18  -4   68.09   27.60
 -12  -6   4   94.29   41.40
  -6 -12  -4  130.29   38.50
  -6  18   4  114.89   65.99
  18  -6  -4   67.89   23.70
  -6 -12  -4  106.79   44.50
 -12  18  -4   95.79   56.89
  18  -6  -4   60.09   39.20
 -18   5   4   20.10   46.80
   5  13   4  100.59   48.20
 -18  13  -4  102.19   50.99
  13 -18   4   41.10   47.10
   5 -18  -4   20.50   34.60
  13 -18   4   35.90   32.70
   5  13   4   11.40   46.40
  13 -18   4   38.80   47.00
  13   5  -4    7.20   42.90
  18  -5  -4   23.30   36.20
  -5 -13  -4   48.70   33.10
  -5 -13  -4   23.70   35.40
  18 -13   4   22.50   34.60
 -13  18  -4   46.10   54.99
 -13  -5   4  -10.60   36.40
 -13  18  -4   26.60   25.50
  -5  18   4   59.69   41.30
   4  14   4  -15.00   41.30
  14 -18   4   15.70   31.90
   4 -18  -4   -4.40   29.20
 -18  14  -4   40.40   55.19
  14   4  -4    2.50   40.40
 -18   4   4  -19.30   47.00
   4  14   4  206.38   73.49
  18 -14   4   24.60   35.90
 -14  18  -4  -14.00   27.20
 -14  -4   4   30.90   39.50
  -4 -14  -4   46.20   43.20
 -14  18  -4  -18.70   55.09
  18  -4  -4  -17.60   35.90
  -4  18   4   34.90   41.00
  15 -18   4   99.59   34.30
 -18  15  -4  121.69   56.39
   3 -18  -4   66.09   32.10
 -18   3   4  118.69   37.90
  15   3  -4   71.69   46.70
   3  15   4  105.49   49.70
 -15  -3   4   75.49   40.70
  18 -15   4  111.89   36.80
  -3  18   4  123.19   43.30
  18  -3  -4   69.89   40.60
  -3 -15  -4  131.49   39.80
 -15  18  -4   91.69   62.69
 -18   2   4   68.49   35.90
 -18  16  -4   76.29   55.69
  16 -18   4   67.79   35.00
   2 -18  -4   66.29   33.60
  16   2  -4   90.69   43.30
   2  16   4  110.79   49.50
 -16  -2   4  117.49   41.30
  -2  18   4   73.09   43.70
  -2 -16  -4   56.59   34.40
  18 -16   4   82.69   35.20
 -16  18  -4  151.88   59.59
  18  -2  -4   80.89   42.30
 -18  17  -4   94.39   55.19
  17 -18   4  129.89   37.30
  17   1  -4   84.79   43.70
 -18   1   4  106.59   39.40
   1 -18  -4   58.89   33.50
   1  17   4   77.49   48.30
 -17  -1   4  104.39   42.70
  18  -1  -4   49.40   37.90
  -1  18   4   77.89   46.30
 -17  18  -4   82.39   58.09
  18 -17   4  104.49   33.70
  -1 -17  -4   98.99   39.20
  16 -19  -4   32.70   31.30
   3  16  -4  110.39   56.09
  16   3   4    6.40   47.00
 -19   3  -4  106.89   51.79
   3  16  -4  -59.29   37.70
   3 -19   4   20.40   37.70
 -16  19   4  -31.40   33.50
  19 -16  -4   28.60   29.20
  -3  19  -4   13.60   35.20
  -3 -16   4  -13.30   36.60
  19 -16  -4    9.30   46.20
 -16  -3  -4   68.19   51.99
  19  -3   4   31.80   47.10
  -3  19  -4   -7.20   53.39
  15   4   4   15.90   47.60
  15 -19  -4   46.70   31.80
   4  15  -4   79.59   52.19
 -19   4  -4  112.19   50.19
   4 -19   4   -4.00   34.80
  -4  19  -4   78.89   34.00
  -4 -15   4   -0.50   35.00
 -15  19   4   12.10   35.60
  19  -4   4   70.99   44.90
  19 -15  -4   43.60   41.60
  19 -15  -4   55.39   30.70
 -15  -4  -4   82.69   63.59
  14   5   4  207.88   56.09
   5 -19   4  185.98   42.50
   5  14  -4  206.88   58.59
  14 -19  -4  245.88   48.90
   5  14  -4  197.88   50.59
 -19   5  -4  369.86   77.19
 -14  19   4  323.57   51.69
  -5  19  -4  279.47   61.79
  19 -14  -4  323.57   60.99
  19 -14  -4  243.78   45.40
 -14  -5  -4  267.37   57.39
  19  -5   4  342.67   64.09
   6  13  -4  302.17   62.09
   6 -19   4  353.76   44.20
  13   6   4  417.06   66.09
 -19   6  -4  509.65   78.29
   6  13  -4  406.66   58.09
  13 -19  -4  423.36   55.59
  -6  19  -4  348.27   78.09
 -13  19   4  441.16   55.39
  19 -13  -4  432.36   64.19
  19  -6   4  483.85   66.39
  19 -13  -4  321.97   43.40
  -6 -13   4  326.07   57.99
 -13  -6  -4  308.87   77.29
   7 -19   4    7.70   27.00
  12 -19  -4   23.80   31.00
   7  12  -4   22.20   51.69
  12   7   4  -50.89   30.90
 -19   7  -4   63.99   47.90
  12   7   4   16.60   45.60
 -12  -7  -4   30.50   47.20
  -7  19  -4  -23.10   51.99
 -12  19   4   41.60   37.20
  19  -7   4   33.30   45.00
  19 -12  -4   43.50   40.50
  -7  19  -4  -30.80   30.40
  -7 -12   4    4.30   38.80
  11 -19  -4  556.54   57.49
 -19  11   4  538.15   63.99
 -19   8  -4  618.94   77.09
   8 -19   4  601.94   79.09
   8  11  -4  668.93   82.89
   8 -19   4  550.94   46.10
  11   8   4  545.55   70.39
 -11  19   4  600.84   60.79
  -8  19  -4  495.15   83.59
  19  -8   4  549.65   65.09
  -8 -11   4  473.85   62.69
 -11  -8  -4  397.56   72.19
  19 -11  -4  560.74   65.19
 -19   9  -4  642.04   80.09
   9  10  -4  632.54   80.09
  10   9   4  660.33   66.69
  10   9   4  496.25   67.49
   9 -19   4  620.14   50.99
 -19  10   4  505.95   85.09
  10 -19  -4  598.64   57.19
   9 -19   4  520.95   66.19
  -9 -10   4  531.55   66.69
 -10  -9  -4  478.75   61.89
  -9  19  -4  649.43   84.59
 -10  19   4  566.64   63.59
  19 -10  -4  547.25   64.49
  19  -9   4  668.03   65.29
 -10  -9  -4  676.63   58.39
   9 -19  -4   70.49   32.60
  10   9  -4   96.99   50.69
 -19  10  -4   84.39   49.80
   9  10   4   32.40   43.50
   9  10   4   31.00   43.20
  -9 -10  -4    1.50   48.50
  -9 -10  -4   89.39   34.50
 -10  19  -4   10.90   31.90
  19  -9  -4   35.20   35.10
 -10  19  -4   59.39   55.19
 -10  -9   4   92.79   40.80
  19 -10   4  145.09   45.40
 -19   8   4   18.70   62.39
   8 -19  -4   23.40   34.20
 -19  11  -4   64.09   48.70
   8  11   4   20.50   45.20
  11 -19   4   62.99   30.60
  19 -11   4   61.49   40.00
  -8 -11  -4   78.39   36.30
  19  -8  -4   34.30   38.70
 -11  19  -4   50.79   53.79
  -8 -11  -4  -20.40   53.09
  -8  19   4   32.10   38.50
  -8 -11  -4   75.09   33.70
 -11  -8   4   28.60   39.80
  12 -19   4   98.29   34.90
   7  12   4   11.50   45.10
 -19   7   4   52.09   41.40
   7 -19  -4   62.19   33.70
 -19  12  -4   90.09   50.89
  12   7  -4   97.09   49.00
  19  -7  -4   59.29   40.60
 -12  19  -4   13.60   29.20
  -7  19   4  101.19   42.20
  -7 -12  -4   63.89   33.90
  -7 -12  -4  100.09   38.60
  19 -12   4   78.89   39.90
 -12  19  -4   34.30   57.99
 -12  -7   4   37.00   41.00
   6 -19  -4   68.89   34.20
  13 -19   4   87.69   49.20
 -19   6   4   41.00   36.30
  13   6  -4   18.70   44.70
   6  13   4   18.10   47.30
  13 -19   4   51.99   31.00
 -19  13  -4  104.19   50.49
  19 -13   4   60.49   38.60
 -13  -6   4   39.00   39.10
  -6 -13  -4   70.39   37.90
 -13  19  -4   40.30   28.30
 -13  19  -4   74.59   58.29
  19  -6  -4   58.49   39.30
  -6  19   4   99.69   39.40
  14 -19   4  107.39   35.50
 -19  14  -4  171.58   54.39
   5 -19  -4   89.39   33.60
 -19   5   4  186.38   41.50
  14   5  -4  126.39   49.90
   5  14   4   89.59   47.00
 -14  19  -4  196.88   64.89
  19 -14   4  126.39   40.80
  19  -5  -4  105.09   40.90
  -5  19   4  119.49   40.20
  -5 -14  -4  173.18   43.20
 -14  -5   4  131.59   44.60
  15 -19   4  106.39   36.00
   4 -19  -4   99.89   38.70
   4  15   4   97.09   47.10
 -19  15  -4  152.18   59.99
  15   4  -4  101.19   46.30
 -19   4   4   99.49   38.30
  19 -15   4   83.79   38.20
 -15  -4   4   65.79   40.50
  -4  19   4   99.39   40.50
  19  -4  -4   52.79   41.30
  -4 -15  -4  100.49   39.60
 -19   3   4   87.79   36.70
  16   3  -4   57.49   43.40
  16 -19   4  106.09   37.00
 -19  16  -4   53.39   53.79
   3  16   4   46.20   49.00
   3 -19  -4   54.79   36.20
 -16  -3   4   42.60   39.00
  19  -3  -4   52.39   41.40
  -3 -16  -4   56.89   39.00
 -16  19  -4    0.40   61.79
  -3  19   4   90.49   45.10
  19 -16   4   49.30   35.90
  14   6   4   20.90   43.70
   6 -20   4  -50.99   37.20
   6  14  -4   84.89   41.40
  -6 -14   4  -42.30   37.00
  20  -6   4   19.90   42.20
  20 -14  -4  -20.00   29.70
 -14  20   4   44.60   40.90
  13 -20  -4  205.38   50.89
   7  13  -4  339.37   79.29
   7 -20   4  168.28   42.70
 -20   7  -4  330.87   76.19
  13   7   4  206.08   53.99
  20  -7   4  296.77   65.79
 -13  -7  -4  217.28   57.29
 -13  20   4  174.88   45.70
  -7 -13   4  193.18   43.60
  20 -13  -4  175.98   44.00
  -7  20  -4  269.27   63.69
 -20   8  -4  431.16   78.19
  12   8   4  307.77   67.29
   8  12  -4  519.95   82.19
  12 -20  -4  440.16   51.69
   8 -20   4  382.56   44.30
 -20  12   4  499.25   52.99
  20 -12  -4  394.56   61.79
  -8 -12   4  314.67   57.09
  -8  20  -4  304.37   82.69
 -12  20   4  389.46   57.39
  20  -8   4  388.86   61.99
 -12  -8  -4  282.07   72.49
  11 -20  -4   32.90   32.50
   9 -20   4   45.30   30.30
   9  11  -4   44.30   53.09
 -20   9  -4   98.59   48.40
 -20  11   4   47.50   33.90
  11   9   4   22.90   43.10
  11   9   4  -17.40   36.70
  20 -11  -4   45.30   39.10
  -9  20  -4  -34.90   30.50
 -11  -9  -4  -19.20   36.10
 -11  20   4   36.80   38.80
  20  -9   4   37.20   40.90
  -9 -11   4   39.40   41.90
  10 -20   4  177.18   53.19
 -20  10   4  191.98   45.70
  10  10   4   30.10   38.50
  10 -20   4  170.18   38.80
 -20  10  -4  117.29   49.10
  10  10   4   53.39   42.20
  10 -20  -4  103.59   34.70
  20 -10  -4  141.59   42.40
 -10 -10  -4  116.99   38.40
 -10 -10  -4  253.77   58.69
 -10 -10   4   84.29   42.00
 -10  20  -4  121.29   58.39
 -10  20   4   89.99   40.90
  20 -10   4  158.18   45.60
 -10 -10  -4  124.29   56.39
   9  11   4  110.59   50.29
   9  11   4  266.67   66.49
  11 -20   4  201.08   41.70
   9 -20  -4   99.79   35.30
  11   9  -4  145.49   53.99
 -20  11  -4  125.39   51.59
 -20   9   4  172.68   38.00
  -9  20   4  245.58   56.69
  -9 -11  -4  144.79   38.70
  20  -9  -4  125.49   41.40
 -11  20  -4   66.09   61.49
  -9 -11  -4  -20.20   59.69
 -11  -9   4  114.39   43.00
  20 -11   4  111.39   38.90
  -9 -11  -4  264.67   53.49
 -20  12  -4   59.89   48.50
   8  12   4   23.40   41.10
  12 -20   4   81.99   32.10
 -20   8   4   80.99   34.80
  12 -20   4  198.18   59.29
   8 -20  -4   78.89   37.20
  12   8  -4   82.79   48.80
  -8 -12  -4   69.29   39.10
  -8  20   4   24.40   38.30
  20  -8  -4   28.80   36.40
 -12  20  -4   42.10   53.99
 -12  -8   4   22.60   43.50
  20 -12   4   65.69   36.00
  13 -20   4  187.08   54.39
  13   7  -4   96.19   49.99
 -20  13  -4  107.79   50.29
   7  13   4   55.79   51.89
  13 -20   4   69.29   32.40
   7 -20  -4   51.39   31.30
 -20   7   4   74.89   40.30
 -13  -7   4   36.90   40.50
 -13  20  -4   -7.50   33.90
  -7  20   4   76.29   42.50
  20 -13   4   69.19   35.70
 -13  20  -4  -15.10   64.39
  20  -7  -4   90.39   41.30
 -20   6   4  132.09   38.10
  14 -20   4  117.99   32.90
   6  14   4   62.89   44.50
  20 -14   4   92.89   36.70
 -14  -6   4   94.79   43.50
  -6  20   4  123.09   43.40
   0   0  -5   48.90   44.00
   0   0   5  -25.70   22.30
   0   0   5   -1.30   27.10
   0   0  -5  -11.60   18.50
   0   0   5   28.20   21.10
   1   0   5   53.99   24.40
  -1   0  -5   66.29   20.90
   0  -1   5   55.69   24.60
  -1   0  -5   94.49   47.10
   1  -1  -5   75.19   46.30
   1   0   5   83.99   30.00
   0   1  -5   62.29   21.80
   0  -1   5   80.79   25.80
   0  -1   5   74.09   25.40
  -1   1   5   64.79   22.10
   1  -1  -5   79.09   22.60
   1   0   5   83.09   23.40
   0   1  -5   94.09   44.20
  -1   1   5   72.99   26.80
   0  -1  -5  313.27   71.29
  -1   0   5  227.08   36.80
  -1   1  -5  189.88   32.20
  -1   0   5  214.48   32.70
   0  -1  -5  204.98   32.90
   1  -1   5  252.47   39.20
   1   0  -5  237.78   52.49
  -1   0   5  202.98   30.40
   1   0  -5  186.88   33.30
   1  -1   5  181.38   35.60
   0   1   5  207.68   36.90
  -1   1  -5  203.88   47.70
   0  -2   5  160.78   37.30
  -2   0  -5  181.98   49.10
   2   0   5  143.09   34.80
   2   0   5  105.69   33.80
   2  -2  -5  110.69   50.49
  -2   2   5  145.69   36.10
   0   2  -5  108.19   22.60
  -2   0  -5  144.49   49.20
   0  -2   5  155.48   30.00
   0   2  -5  132.49   49.60
  -2   2   5  172.68   37.30
   0  -2   5  152.18   29.50
   2  -2  -5  104.19   23.60
  -2   1  -5  117.49   46.40
  -2   1   5   40.10   26.20
   1  -2   5   56.19   24.60
  -2   1  -5   44.30   26.60
   1  -2  -5   91.49   49.10
   1  -2   5   54.39   26.00
   1   1  -5   60.69   45.70
  -2   1   5   63.39   23.90
   1   1   5   71.79   22.10
   1   1   5   27.70   30.30
   1  -2  -5   94.29   26.70
  -2   1   5   83.79   25.00
   1  -2  -5   36.50   19.80
   1  -2   5   36.20   23.70
   1   1  -5   27.60   19.70
  -1   2  -5   58.29   21.50
  -1  -1   5   58.29   20.20
  -1  -1  -5   72.39   44.80
  -1   2  -5  112.79   48.20
   2  -1   5   38.60   31.50
  -1  -1   5   40.20   24.40
   2  -1   5   79.59   23.50
  -1   2   5   54.89   22.20
  -1  -1  -5   77.29   21.20
   2  -1   5   70.39   24.30
  -1  -1   5   56.09   23.50
   2  -1  -5   65.49   45.00
   2  -1  -5   33.80   19.10
  -1   2   5   71.59   29.40
   0  -2  -5  583.64   75.19
   0   2   5  456.35   48.20
   2  -2   5  413.66   40.30
  -2   2  -5  598.54   75.19
   2  -2   5  469.15   44.20
   2  -2   5  478.45   44.00
   0   2   5  430.36   39.90
   2   0  -5  402.86   38.00
  -2   0   5  457.15   31.60
   0  -2  -5  439.96   38.60
   0  -2  -5  452.75   39.70
  -2   0   5  499.75   46.70
  -2   0   5  402.26   43.00
   2   0  -5  541.25   73.69
  -3   3   5  239.98   36.50
   3  -3  -5  144.49   33.30
   0   3  -5  170.98   33.10
   0  -3   5  181.78   43.50
   0  -3   5  158.98   39.40
   0  -3   5  170.78   28.60
  -3   3   5  170.08   36.60
   3  -3  -5  196.88   37.20
   0   3  -5  235.28   53.39
   3   0   5  160.08   37.20
  -3   0  -5  159.78   45.00
   3  -3  -5  214.08   55.29
   3   0   5  138.89   34.70
   1   2  -5  823.12   79.19
   1  -3   5  727.53   43.20
   1  -3   5  762.32   49.20
   2  -3  -5  715.53   45.90
   1   2  -5  754.02   45.90
   1  -3   5  781.12   53.29
   2  -3  -5  785.52   47.30
  -3   2   5  787.72   42.60
  -3   2   5  762.72   50.39
  -3   1  -5  852.51   75.89
   2   1   5  750.72   46.30
  -3   1  -5  757.62   43.10
   2   1   5  729.23   58.99
   2  -3  -5  833.12   80.19
  -1   3  -5  932.31   78.79
   3  -2  -5  832.42   80.89
   3  -1   5  796.02   58.89
  -1  -2   5  735.73   37.40
  -2   3   5  770.22   49.40
   3  -2  -5  741.33   47.10
  -1  -2   5  797.72   52.49
  -2  -1  -5  827.32   76.99
  -1  -2   5  767.92   48.70
  -1   3  -5  758.32   45.30
   3  -1   5  744.33   45.40
  -2   3   5  813.62   51.79
   3  -1   5  751.22   47.10
  -3   2  -5 1093.39   85.19
   2   1  -5 1108.29   54.99
   2  -3   5 1092.29   55.69
  -3   1   5 1076.39   44.30
   2   1  -5  961.10   84.69
   1   2   5 1087.69   55.09
   1   2   5 1028.70   62.79
   1  -3  -5 1074.99   85.89
   1  -3  -5 1061.09   53.89
  -3   1   5 1161.08   57.99
   2  -3   5 1099.69   58.79
   2  -3   5 1111.29   53.99
  -3   1   5  996.10   55.79
  -3   2  -5 1073.49   50.69
   3  -1  -5 1062.99   53.49
  -2   3  -5 1032.30   54.29
  -2  -1   5 1085.99   55.79
  -2  -1   5 1105.79   58.49
  -2   3  -5 1074.39   85.89
   3  -2   5 1073.89   58.89
  -1  -2  -5 1075.79   52.19
   3  -1  -5  989.90   85.39
   3  -2   5 1150.08   56.49
  -1   3   5 1074.89   55.99
  -1   3   5 1042.60   60.59
  -2  -1   5 1065.49   42.10
   3  -2   5 1082.19   53.59
  -1  -2  -5 1024.80   84.29
   3  -3   5   36.10   23.80
  -3   0   5   47.80   28.20
   3  -3   5   62.69   25.30
   0   3   5   46.90   32.10
  -3   0   5   95.09   28.00
   3  -3   5   24.60   29.70
  -3   3  -5   41.20   20.00
   0  -3  -5   59.49   25.20
   0  -3  -5   68.49   48.20
   0   3   5   32.60   20.60
   3   0  -5   26.20   21.30
   3   0  -5   -5.40   44.40
  -3   0   5   50.19   13.10
  -3   3  -5  120.99   46.70
   0   4  -5  579.84   43.20
   0  -4   5  595.64   47.20
   4  -4  -5  618.84   43.40
   4   0   5  525.45   57.49
   4   0   5  496.65   49.80
   0  -4   5  626.14   54.59
   4  -4  -5  709.33   76.99
  -4   0  -5  636.84   69.29
   0   4  -5  729.43   78.49
  -4   4   5  651.03   44.10
  -4   4   5  594.54   45.60
   0  -4   5  561.04   34.00
   4  -4  -5  549.45   42.40
   3  -4  -5  621.64   79.19
   3   1   5  671.73   61.29
   3   1   5  633.34   58.99
   3   1   5  717.83   44.90
  -4   3   5  764.52   48.00
  -4   1  -5  683.93   42.30
   3  -4  -5  719.33   45.70
   1  -4   5  755.72   49.70
  -4   3   5  749.23   42.20
   1   3  -5  729.63   45.20
  -4   1  -5  649.34   72.19
   1   3  -5  793.72   79.79
   1  -4   5  697.33   41.30
   1  -4   5  760.02   55.99
  -3  -1  -5  655.73   43.20
  -1  -3   5  686.13   34.00
  -1   4  -5  889.51   79.99
   4  -1   5  587.74   58.19
  -3  -1  -5  629.04   74.29
  -1  -3   5  752.22   55.39
   4  -3  -5  710.63   78.49
  -3   4   5  723.53   47.00
   4  -1   5  714.73   44.00
  -1  -3   5  732.73   50.09
  -1   4  -5  702.13   44.40
   4  -1   5  739.03   47.50
   4  -3  -5  692.83   45.90
  -3   4   5  697.33   50.29
   2  -4   5   89.99   26.40
   2  -4  -5   84.29   25.40
   2  -4   5   88.49   27.70
   2   2  -5   62.29   21.20
  -4   2   5   57.89   27.20
   2  -4  -5  107.89   49.20
  -4   2  -5   56.99   19.20
  -4   2   5   87.59   24.20
  -4   2   5   75.79   16.60
   2   2   5   90.09   22.80
   2  -4   5   62.19   25.80
   2   2   5   76.29   33.50
   2   2  -5  119.89   51.39
  -4   2  -5   93.49   45.50
   2   2   5   64.59   36.30
  -2  -2   5   90.29   26.50
  -2  -2  -5   98.49   46.70
   4  -2  -5   31.50   19.80
   4  -2   5   47.30   23.70
  -2  -2   5   73.19   14.60
  -2   4   5   69.99   23.20
  -2   4  -5   78.29   22.50
   4  -2   5   68.99   34.00
   4  -2  -5   64.89   48.00
  -2  -2   5   97.79   27.90
  -2  -2  -5   84.39   24.30
   4  -2   5   89.39   24.70
  -2   4  -5  129.69   50.19
  -2   4   5   96.29   34.30
   1  -4  -5 1673.83   98.99
   3  -4   5 1550.04   71.29
   3  -4   5 1544.55   67.69
  -4   1   5 1408.06   67.59
   3   1  -5 1568.84   96.99
  -4   3  -5 1518.45   62.59
   1   3   5 1600.44   80.59
   1   3   5 1506.25   83.19
   1  -4  -5 1553.54   66.89
  -4   1   5 1501.85   70.49
  -4   3  -5 1614.04   92.59
   3   1  -5 1518.75   66.09
   1   3   5 1570.64   66.59
   3  -4   5 1605.74   70.49
   4  -1  -5 1585.64   97.79
   4  -3   5 1515.45   73.99
  -3   4  -5 1681.53   96.79
  -1  -3  -5 1628.54   96.49
   4  -1  -5 1482.95   66.09
  -1   4   5 1579.64   67.99
  -3  -1   5 1551.94   72.39
   4  -3   5 1500.85   64.19
  -1   4   5 1543.75   76.79
  -1  -3  -5 1604.24   65.89
  -3  -1   5 1531.45   68.99
  -1   4   5 1624.24   81.89
  -3   4  -5 1290.17   76.09
   4  -3   5 1350.36   75.69
   0  -4  -5 1556.14   98.79
   0   4   5 1754.62   85.19
   0   4   5 1736.43   70.89
  -4   0   5 1671.13   72.29
   4   0  -5 1711.33   71.09
  -4   4  -5 1755.72   67.89
   0  -4  -5 1643.24   70.79
  -4   0   5 1775.62   74.49
   4  -4   5 1727.33   69.39
  -4   4  -5 1452.35   95.49
   4   0  -5 1547.95  100.89
   5  -5  -5   88.79   50.89
   0   5  -5   89.89   24.50
   5  -5  -5   93.89   26.30
   0  -5   5   97.49   29.30
   5   0   5   76.29   31.00
   5   0   5   51.59   21.40
   0   5  -5   84.69   51.29
   0  -5   5   79.49   19.00
   5  -5  -5   54.69   23.90
   0  -5   5   73.39   28.20
  -5   0  -5  108.59   46.30
  -5   5   5   85.09   23.80
   5   0   5   32.40   38.00
   4   1   5   58.29   25.40
   1  -5   5   85.79   29.20
   4  -5  -5   46.80   47.10
  -5   4   5   56.09   23.00
   1  -5   5   62.39   21.70
   4  -5  -5   57.39   25.40
   1   4  -5  114.29   50.49
   4   1   5   43.80   30.60
   1  -5   5   81.49   29.70
  -5   1  -5  114.79   49.10
   4   1   5   51.49   38.90
   1   4  -5   39.00   21.20
  -1  -4   5   81.69   30.00
   5  -4  -5   78.39   26.10
   5  -1   5   29.80   22.20
  -1  -4   5   73.49   30.00
  -1  -4   5   57.89   15.70
  -1   5  -5   56.79   21.50
   5  -4  -5  112.29   48.60
  -4   5   5   35.80   22.10
   5  -1   5   64.99   21.70
   5  -1   5   25.00   37.30
  -1   5  -5  137.59   49.10
  -4  -1  -5   49.40   22.70
  -4  -1  -5   61.49   42.00
   5  -4  -5   15.10   22.80
   3   2   5 1098.29   88.99
  -5   2  -5 1217.68   88.09
  -5   2  -5  986.30   48.10
   2  -5   5  928.41   49.40
  -5   3   5 1029.10   42.00
   2  -5   5  985.10   55.39
   3  -5  -5 1059.49   55.59
   2   3  -5  997.50   53.49
   3   2   5 1018.20   51.79
   3   2   5  893.01   67.89
   2  -5   5 1018.90   60.79
   3  -5  -5 1115.89   87.89
  -5   3   5  959.80   54.69
   2   3  -5 1056.69   85.89
  -2  -3   5  984.60   56.79
   5  -3  -5  931.51   52.29
  -2  -3   5  963.20   60.89
  -3  -2  -5 1075.09   53.49
   5  -2   5  973.80   67.89
  -2   5  -5 1167.78   86.59
  -2   5  -5  988.10   52.59
   5  -2   5  958.10   49.99
  -3   5   5  949.80   54.99
   5  -3  -5 1144.09   90.29
  -3  -2  -5 1068.69   81.89
  -3   5   5 1021.20   67.49
  -2  -3   5  955.30   36.30
   5  -2   5 1020.30   54.49
  -3   5   5 1101.89   61.49
  -5   2   5 1549.05   68.69
   3  -5   5 1544.05   67.19
   2  -5  -5 1533.35   97.49
   2   3   5 1535.95   66.09
   3  -5   5 1628.34   73.29
  -5   2   5 1635.34   69.99
  -5   3  -5 1587.94   62.69
   2   3   5 1813.02   81.09
   3   2  -5 1517.35   66.89
   2   3   5 1565.34   80.29
  -5   3  -5 1473.25   96.49
   3   2  -5 1536.65   96.69
   2  -5  -5 1525.95   69.29
   3  -5   5 1500.25   66.79
   5  -2  -5 1538.55   99.29
   5  -3   5 1563.84   63.79
  -3  -2   5 1644.44   73.69
  -3  -2   5 1544.15   70.29
  -2   5   5 1541.65   75.29
  -2   5   5 1631.04   83.99
  -2   5   5 1577.94   68.29
  -3   5  -5 1493.95   65.29
   5  -2  -5 1545.35   67.09
  -2  -3  -5 1384.26   94.29
   5  -3   5 1600.74   67.09
  -2  -3  -5 1497.65   65.59
   5  -3   5 1546.65   76.29
  -3   5  -5 1481.55   96.69
  -5   1   5   93.49   26.50
   1  -5  -5  108.89   51.09
   1   4   5  110.39   40.90
  -5   1   5   93.79   29.60
  -5   4  -5   56.69   20.50
   4   1  -5   36.80   46.60
   4   1  -5   59.79   20.70
   4  -5   5  111.19   28.10
   1  -5  -5  120.99   27.80
   4  -5   5   99.19   26.40
   1   4   5   88.39   34.60
  -5   4  -5  110.19   46.70
   1   4   5   79.79   22.70
  -1   5   5   98.39   23.90
  -4  -1   5  115.39   30.60
   5  -1  -5  122.29   51.69
   5  -4   5   91.79   26.30
  -1  -4  -5  109.39   48.60
  -1   5   5  120.89   68.99
   5  -4   5   84.19   34.70
   5  -1  -5   58.89   21.70
  -4  -1   5  106.29   29.30
  -1   5   5  100.89   36.20
  -1  -4  -5  128.59   29.40
  -4   5  -5   83.99   21.60
   5  -4   5   92.99   26.80
   0  -5  -5 2692.23   97.09
   5  -5   5 2530.15   99.99
   0  -5  -5 2711.33  122.69
   5  -5   5 2550.64   99.59
  -5   0   5 2607.34   98.09
   0   5   5 2655.93  109.59
  -5   0   5 2581.44  100.59
   0   5   5 2677.93  107.29
  -5   5  -5 2554.84  117.79
  -5   5  -5 2634.14   92.59
   0   5   5 2563.04   95.59
   5   0  -5 2707.43  126.19
   5   0  -5 2657.93   96.59
   5  -5   5 2586.24   93.59
  -6   0  -5   26.20   45.30
   0  -6   5    2.50   27.40
   0  -6   5    4.10   17.10
  -6   6   5   19.40   23.30
   6  -6  -5    1.70   48.50
   0   6  -5  112.79   47.70
   6   0   5   42.80   30.40
   0  -6   5   34.00   31.20
   0   6  -5   14.30   22.30
   6  -6  -5   42.50   28.50
   6   0   5  -57.69   38.70
   6   0   5    9.10   19.50
  -6   1  -5  142.49   51.79
   1   5  -5  138.99   53.19
   5   1   5  114.59   32.60
   1  -6   5   96.49   22.10
   1  -6   5  117.59   32.10
   1  -6   5   95.99   29.50
   1   5  -5   84.99   23.20
   5   1   5  100.29   24.80
   5  -6  -5   83.59   49.70
  -6   5   5   90.49   24.00
   5  -6  -5  114.49   28.70
   6  -1   5  111.79   25.00
   6  -5  -5   76.69   24.30
  -1  -5   5  114.19   31.50
   6  -5  -5  110.79   50.79
  -1   6  -5  155.88   48.90
  -5  -1  -5   86.49   23.90
  -1   6  -5  114.99   25.30
   6  -1   5   95.19   22.50
  -1  -5   5  142.99   31.80
  -1  -5   5   88.99   16.80
   6  -1   5   92.59   41.30
   6  -1   5  120.09   31.70
  -5  -1  -5  118.69   47.00
  -5   6   5   77.39   24.20
   6  -5  -5   98.89   25.90
  -6   4   5  608.34   47.40
   2  -6   5  570.84   39.70
  -6   2  -5  609.94   80.79
   4  -6  -5  553.94   47.90
   4   2   5  547.65   61.89
   4   2   5  583.24   43.20
   4   2   5  488.15   60.29
   2  -6   5  565.04   47.30
   2  -6   5  622.04   55.39
   2   4  -5  539.15   76.99
   2   4  -5  618.94   45.40
   4  -6  -5  571.74   78.69
  -6   4   5  690.83   33.10
   6  -2   5  609.14   44.50
   6  -2   5  601.34   60.99
  -4   6   5  551.84   45.60
  -2   6  -5  627.44   80.89
  -2  -4   5  487.15   24.90
   6  -4  -5  527.55   42.90
  -2  -4   5  590.14   54.39
  -4   6   5  574.24   64.39
  -4  -2  -5  491.65   68.49
  -2  -4   5  592.74   49.00
  -4   6   5  594.04   51.19
   6  -4  -5  552.14   80.89
   6  -2   5  571.84   40.20
  -2   6  -5  568.94   43.80
  -4  -2  -5  566.34   41.60
  -6   3  -5   47.90   17.70
   3   3  -5   65.49   48.80
   3   3  -5   57.89   21.70
  -6   3   5   84.09   25.60
   3  -6  -5   89.19   28.10
  -6   3   5   34.90   29.50
   3  -6   5   74.89   25.60
   3  -6  -5   51.59   48.30
   3   3   5   67.09   33.90
  -6   3  -5  103.39   49.90
   3   3   5   59.29   21.90
   3  -6   5   66.59   27.90
   3   3   5   54.29   38.60
   3  -6   5   97.59   30.50
  -3   6   5   64.09   31.70
  -3  -3  -5   37.50   45.60
  -3  -3  -5   63.29   25.10
   6  -3   5   86.09   24.00
   6  -3  -5   64.49   23.90
   6  -3   5   52.99   36.50
  -3   6   5   85.69   35.00
  -3   6  -5  101.89   47.80
  -3   6  -5   57.49   21.50
   6  -3  -5   36.90   46.60
  -3   6   5   61.19   22.20
  -3  -3   5   99.89   32.10
   6  -3   5   61.29   23.70
  -3  -3   5   93.69   32.00
   2   4   5 1582.04   84.89
   4  -6   5 1577.34   98.09
   4   2  -5 1587.74   99.29
  -6   2   5 1462.35   68.69
   4  -6   5 1553.84   68.89
  -6   4  -5 1613.84   99.19
   2  -6  -5 1652.03   99.79
  -6   4  -5 1480.15   61.59
   4   2  -5 1471.15   66.09
   4  -6   5 1608.94   75.49
   2  -6  -5 1546.35   70.39
   2   4   5 1509.15   65.69
   2   4   5 1500.05   81.29
  -6   2   5 1540.35   70.49
  -2   6   5 1649.73   85.29
   6  -4   5 1609.34   70.09
  -4  -2   5 1564.34   74.59
  -4  -2   5 1583.64   70.19
   6  -4   5 1489.65   71.59
  -4   6  -5 1349.66   89.99
   6  -2  -5 1537.35   67.39
  -2  -4  -5 1592.44   97.79
   6  -2  -5 1595.84  102.29
  -4   6  -5 1701.63   98.59
  -2   6   5 1513.35   68.29
  -2  -4  -5 1616.44   68.39
   6  -4   5 1494.25   78.49
  -6   1   5 2505.15   93.69
   5  -6   5 2421.16   87.89
   5  -6   5 2159.58   95.49
   5   1  -5 2186.28  116.69
   1  -6  -5 2311.77   89.79
   1   5   5 2412.36   88.59
  -6   5  -5 2412.66   84.09
   5   1  -5 2386.36   88.89
  -6   5  -5 2230.68  116.99
   5  -6   5 2457.35   92.49
   1  -6  -5 2304.87  117.69
   1   5   5 2321.37  101.49
   1   5   5 2417.16  103.39
  -6   1   5 2340.17   89.09
  -1  -5  -5 2354.96   89.29
   6  -1  -5 2274.97  118.69
   6  -1  -5 2328.97   88.79
  -1   6   5 2280.27   96.79
   6  -5   5 2357.06   95.49
  -1  -5  -5 2094.09  113.69
  -5  -1   5 2388.66   90.99
   6  -5   5 2508.25   91.29
  -5  -1   5 2391.06   94.79
   6  -5   5 2052.69   93.09
  -5   6  -5 2412.66   86.19
  -1   6   5 2416.16   89.59
  -1   6   5 2479.35  105.29
  -5   6  -5 2111.39  112.19
   6  -6   5  109.69   29.40
   0  -6  -5   69.09   27.50
  -6   0   5  125.69   29.50
   6   0  -5   46.20   21.60
  -6   6  -5  197.18   56.29
  -6   6  -5   67.99   20.50
   0   6   5  145.19   34.80
   0   6   5   62.49   38.90
   6   0  -5   33.00   50.19
   6  -6   5   81.79   26.00
   6  -6   5   80.89   32.50
  -6   0   5  140.49   33.10
   0  -6  -5    8.50   46.30
   0   6   5  100.99   36.50
   0  -7   5    1.60   18.80
   0   7  -5   18.40   22.60
  -7   7   5   20.10   22.70
   0  -7   5   26.20   33.50
   7   0   5   40.40   30.90
   0  -7   5    5.10   31.60
  -7   0  -5   30.10   46.10
   7  -7  -5   14.80   46.20
   7   0   5   21.90   19.60
   0   7  -5   23.40   48.90
   7   0   5  -20.50   41.10
   6   1   5   77.59   45.00
   6   1   5  119.09   35.20
  -7   1  -5   76.39   49.40
   6   1   5  100.39   22.70
   1   6  -5  104.29   48.60
   6  -7  -5  139.49   52.39
  -7   6   5  117.49   28.60
   1   6  -5   64.49   24.30
   1  -7   5   99.79   34.00
   1  -7   5   83.79   31.60
   6  -7  -5   93.09   28.20
   7  -6  -5   84.89   49.00
  -6  -1  -5   81.99   24.50
  -1  -6   5   97.59   32.60
   7  -1   5  114.59   43.70
   7  -1   5   85.89   22.10
  -1   7  -5  114.59   51.49
   7  -1   5   73.89   43.70
  -1  -6   5   89.19   29.90
  -1  -6   5   67.89   17.60
  -6   7   5   67.59   23.70
   7  -6  -5  120.39   29.50
   7  -1   5  107.99   23.00
  -1   7  -5   69.49   24.30
  -6  -1  -5   85.39   48.70
  -6   7   5   83.69   36.20
   5  -7  -5   34.10   27.60
   2   5  -5   22.40   21.30
  -7   2  -5   83.09   48.00
   5   2   5   20.00   22.60
   5   2   5   60.59   33.40
   2  -7   5   27.40   22.20
   5  -7  -5  -18.60   48.50
   2  -7   5   28.60   32.60
   2   5  -5   44.30   48.60
   2  -7   5   48.90   30.30
  -7   5   5   37.10   22.30
   5   2   5   23.40   42.80
  -2  -5   5   58.99   31.30
  -2   7  -5  120.49   52.99
  -2  -5   5   41.90   30.60
   7  -5  -5    2.90   45.20
   7  -5  -5   19.80   20.60
   7  -2   5   38.00   22.00
   7  -5  -5   59.49   26.50
  -5   7   5    3.90   33.40
  -5   7   5   22.50   23.20
  -2   7  -5   24.40   24.00
   7  -2   5   -8.80   39.30
  -5  -2  -5   25.00   45.00
   7  -2   5   17.50   21.90
  -5  -2  -5   29.30   23.10
   3  -7   5  360.86   55.49
   4  -7  -5  389.56   44.50
   4   3   5  313.37   57.19
   3   4  -5  398.66   41.60
   3  -7   5  358.36   46.80
   4  -7  -5  382.76   76.69
   4   3   5  389.46   38.10
   3   4  -5  346.67   75.79
  -7   3  -5  445.36   75.99
   4   3   5  329.97   58.89
   3  -7   5  381.66   37.70
  -7   4   5  389.56   45.20
   7  -3   5  379.36   37.50
  -3  -4   5  389.36   51.89
   7  -3   5  370.66   40.10
  -3   7  -5  388.26   40.40
   7  -4  -5  400.86   41.10
  -3  -4   5  376.16   46.10
   7  -3   5  272.37   58.59
  -4  -3  -5  386.36   41.20
   7  -4  -5  449.86   75.89
  -4   7   5  408.86   59.19
  -4  -3  -5  344.37   64.69
  -3   7  -5  519.85   77.59
  -4   7   5  386.96   40.60
   4   3  -5 1382.66   97.59
  -7   3   5 1445.96   67.59
   4  -7   5 1344.97   62.29
   3  -7  -5 1344.17   93.59
   3   4   5 1341.47   78.79
   4   3  -5 1367.96   64.39
   3  -7  -5 1387.86   66.19
  -7   3   5 1251.57   64.79
   3   4   5 1319.17   79.89
   3   4   5 1342.77   61.79
   4  -7   5 1391.06   66.19
   4  -7   5 1449.85   74.79
  -7   4  -5 1342.07   97.99
  -7   4  -5 1302.47   57.09
  -3   7   5 1427.66   64.49
   7  -3  -5 1358.86   94.99
   7  -4   5 1440.66   64.79
  -3  -4  -5 1091.59   88.59
   7  -3  -5 1337.97   62.69
   7  -4   5 1428.16   59.99
  -3   7   5 1334.57   83.99
  -4   7  -5 1368.36   61.69
  -3   7   5 1400.06   82.59
  -3  -4  -5 1371.16   63.59
  -4   7  -5 1349.66   94.09
   7  -4   5 1304.57   75.89
  -4  -3   5 1408.86   67.29
  -4  -3   5 1470.85   75.89
   5  -7   5  251.57   50.89
   2   5   5  147.39   44.20
   5  -7   5  217.08   43.10
  -7   5  -5  179.28   54.59
   5   2  -5  226.78   36.40
   2  -7  -5  158.78   53.19
   5  -7   5  241.58   41.50
   5   2  -5  174.88   56.79
   2   5   5  258.77   57.69
   2  -7  -5  200.88   42.70
  -7   2   5  269.27   44.80
  -7   2   5  195.18   42.20
   2   5   5  234.58   37.90
  -2  -5  -5  212.68   39.90
   7  -5   5  174.68   39.70
   7  -5   5  244.48   41.50
  -5  -2   5  293.97   46.90
  -2   7   5  205.88   39.10
  -5  -2   5  285.17   51.29
   7  -2  -5  226.48   37.00
  -5   7  -5  205.88   42.80
   7  -2  -5  203.48   55.09
  -5   7  -5  153.28   47.20
  -2   7   5  180.98   41.00
  -2   7   5  223.18   60.49
   7  -5   5  168.38   36.40
  -7   1   5  666.33   51.29
  -7   1   5  665.13   52.69
  -7   6  -5  677.63   40.80
   1   6   5  680.83   47.50
   1   6   5  649.43   67.89
   1  -7  -5  749.13   83.39
  -7   6  -5  755.72   86.09
   1  -7  -5  708.23   51.29
   6   1  -5  631.94   46.00
   6  -7   5  653.13   50.49
   1   6   5  689.13   67.39
   6   1  -5  730.23   85.09
   6  -7   5  701.33   53.49
   7  -6   5  606.64   45.50
   7  -1  -5  638.74   46.30
  -1  -6  -5  667.93   49.30
  -6  -1   5  625.74   51.79
  -1   7   5  714.93   64.09
  -1   7   5  638.24   48.20
   7  -1  -5  665.43   81.79
  -1  -6  -5  561.64   76.19
   7  -6   5  597.64   51.49
  -6  -1   5  692.33   57.29
  -6   7  -5  647.84   42.10
  -6   7  -5  750.92   79.79
  -1   7   5  652.63   68.49
   7  -6   5  655.03   56.89
   7   0  -5  395.96   75.59
  -7   7  -5  455.55   37.60
   0  -7  -5  416.66   46.50
  -7   7  -5  391.86   79.69
   0   7   5  441.56   60.99
   7  -7   5  379.66   44.60
   0   7   5  485.05   63.99
  -7   0   5  491.05   50.59
  -7   0   5  435.46   46.00
   0   7   5  464.35   44.10
   7   0  -5  435.96   40.90
   0  -7  -5  297.67   73.59
   7  -7   5  395.16   52.89
   7  -7   5  499.45   50.99
   0   8  -5  311.17   44.60
   0  -8   5  226.38   44.40
   0  -8   5  306.67   51.89
   8   0   5  329.17   35.20
   0  -8   5  283.57   58.79
  -8   8   5  333.77   44.50
   8  -8  -5  345.37   76.99
   8   0   5  276.17   66.09
   8  -8  -5  399.96   46.10
   0   8  -5  331.67   76.19
  -8   0  -5  369.66   73.39
   7   1   5   25.50   45.20
   1   7  -5   33.70   23.10
   7  -8  -5   48.40   28.20
  -8   1  -5   46.30   45.90
   7   1   5   64.29   34.30
   7  -8  -5   14.40   47.40
   7   1   5   25.90   19.80
   1   7  -5   45.80   49.80
   1  -8   5   35.70   31.80
  -8   7   5   51.59   25.20
   1  -8   5  -10.40   32.90
   1  -8   5   35.40   20.20
  -1  -7   5   22.50   32.50
  -1   8  -5   39.50   23.90
   8  -1   5   76.89   21.30
   8  -7  -5   42.60   46.80
  -1  -7   5   10.30   17.10
   8  -1   5   -0.40   41.90
  -7   8   5   21.80   23.20
   8  -7  -5   73.29   28.70
  -7  -1  -5   34.70   23.40
   8  -1   5   34.80   29.70
  -7   8   5   23.60   34.00
  -1   8  -5   47.20   47.40
   8  -1   5   32.10   20.50
  -7  -1  -5   57.69   45.40
  -1  -7   5   22.60   30.70
  -8   2  -5   44.80   48.00
   2  -8   5   22.40   31.00
   2  -8   5   24.00   21.60
   6   2   5   50.39   33.90
   2   6  -5   55.19   45.30
   6  -8  -5   31.60   52.19
   6  -8  -5   50.79   30.30
   6   2   5   55.49   38.90
  -8   6   5   34.00   23.40
   2   6  -5   19.60   22.30
   2  -8   5    9.90   33.30
   6   2   5  -43.70   43.70
  -2   8  -5   52.99   46.70
   8  -2   5   36.70   22.40
  -2  -6   5   64.29   33.60
  -6   8   5   18.70   33.90
   8  -6  -5   21.90   25.80
  -2  -6   5   75.69   32.80
  -6  -2  -5   40.10   23.90
   8  -6  -5   40.20   22.10
   8  -2   5   50.49   29.10
  -6   8   5   44.90   24.90
   8  -6  -5   39.90   48.90
   8  -2   5  -35.20   41.10
  -2   8  -5   16.60   22.70
  -6  -2  -5    5.60   45.40
   8  -2   5   60.49   21.80
   5  -8  -5  228.98   57.89
   5   3   5  165.28   64.09
   3  -8   5  252.37   47.70
   3   5  -5  253.07   57.99
  -8   3  -5  307.77   77.09
  -8   5   5  254.87   41.00
   3   5  -5  219.88   39.90
   5  -8  -5  217.18   43.70
   3  -8   5  223.08   56.19
   3  -8   5  205.68   35.60
   5   3   5  222.98   48.20
   5   3   5  246.18   35.60
  -3  -5   5  270.67   44.80
  -5   8   5  261.97   62.29
  -3  -5   5  283.67   54.79
   8  -3   5  260.87   34.70
   8  -3   5  288.97   46.30
  -5  -3  -5  243.98   38.70
   8  -5  -5  261.17   36.80
  -5   8   5  292.17   41.40
   8  -3   5  257.47   37.70
  -5  -3  -5  177.48   49.90
   8  -3   5  222.88   46.40
  -3   8  -5  237.98   39.50
  -3   8  -5  173.18   52.09
   8  -5  -5  224.18   54.99
   4  -8  -5  214.58   42.70
   4   4  -5  223.28   38.20
   4   4  -5  323.27   76.59
   4  -8  -5  151.88   55.09
  -8   4   5  161.98   31.10
   4   4   5  276.77   59.99
   4  -8   5  175.78   34.80
  -8   4  -5  316.47   75.79
   4   4   5  176.38   47.00
  -8   4   5  255.37   43.70
   4   4   5  219.38   37.00
   4  -8   5  200.18   39.00
   4  -8   5  196.08   37.50
   8  -4   5  198.58   39.90
  -4   8   5  351.76   55.99
  -4  -4   5  307.47   46.00
  -4  -4  -5  187.58   38.00
  -4   8   5  200.08   39.50
   8  -4   5  219.28   45.20
  -4   8   5  245.58   58.99
  -4  -4   5  241.88   53.19
  -4  -4  -5  118.39   46.10
  -4   8  -5  188.98   52.09
   8  -4  -5  137.49   51.79
   8  -4  -5  233.78   37.50
  -4   8  -5  214.08   39.00
   8  -4   5  210.98   34.80
   5  -8   5  266.97   41.60
   3  -8  -5  251.27   42.00
   3   5   5  248.18   60.99
  -8   3   5  256.27   45.00
   5   3  -5  189.78   54.99
   3  -8  -5  262.07   70.99
  -8   3   5  212.18   42.10
  -8   5  -5  288.17   60.09
   5  -8   5  125.39   34.60
   3   5   5  190.48   46.50
  -8   5  -5  240.98   28.60
   5  -8   5  203.28   35.90
   3   5   5  220.98   37.60
   5   3  -5  232.58   40.70
   8  -5   5  148.39   35.30
   8  -3  -5  158.38   51.99
  -3   8   5  343.27   58.39
  -5   8  -5  205.68   36.90
   8  -5   5  183.98   40.90
  -3   8   5  194.58   41.20
  -5  -3   5  202.28   47.10
   8  -3  -5  198.08   37.70
  -5   8  -5  344.47   76.49
  -3  -5  -5  232.78   39.90
  -3  -5  -5  168.48   50.59
   8  -5   5  205.68   45.10
  -3   8   5  217.28   38.70
  -5  -3   5  237.78   52.29
   2  -8  -5  378.66   77.49
   2  -8  -5  390.66   47.30
  -8   6  -5  460.45   79.39
  -8   2   5  369.66   44.30
   2   6   5  386.26   66.69
   2   6   5  467.25   62.69
  -8   2   5  410.96   48.10
   6   2  -5  366.96   40.90
   2   6   5  395.56   41.60
   6  -8   5  347.37   46.80
   6  -8   5  304.07   52.19
  -8   6  -5  445.06   33.30
   6   2  -5  417.66   81.39
  -6   8  -5  330.97   74.79
  -2   8   5  451.55   63.19
  -2   8   5  439.76   65.29
   8  -6   5  355.16   40.20
   8  -6   5  380.96   56.89
   8  -2  -5  335.97   76.59
  -6   8  -5  371.26   39.10
  -6  -2   5  449.26   54.39
   8  -2  -5  387.96   40.30
  -6  -2   5  425.56   48.80
  -2  -6  -5  378.96   62.49
  -2  -6  -5  394.36   45.20
   8  -6   5  341.77   46.40
  -2   8   5  435.76   42.40
   7   1  -5   51.79   45.70
   1   7   5   73.79   37.00
  -8   7  -5  118.79   56.79
   1   7   5   41.70   40.50
   1   7   5   44.60   23.20
   1  -8  -5   25.10   52.99
   1  -8  -5   62.69   28.80
   7  -8   5   30.60   32.40
  -8   1   5   71.49   29.60
  -8   1   5   96.59   32.60
   7   1  -5   45.00   20.50
   8  -1  -5   73.29   50.49
  -7  -1   5   78.59   33.40
  -1   8   5   67.49   38.70
  -1  -7  -5   56.39   28.20
  -7   8  -5   52.59   21.10
   8  -1  -5   24.80   21.50
  -7   8  -5   76.89   49.99
  -7  -1   5   41.30   30.40
  -1  -7  -5    8.10   46.10
  -1   8   5   50.09   42.70
  -1   8   5   33.90   21.90
   8  -7   5   46.00   34.50
   0   8   5  609.04   64.39
   0  -8  -5  547.25   49.20
  -8   8  -5  526.25   39.20
   8  -8   5  557.54   55.19
  -8   0   5  545.15   49.99
   0  -8  -5  468.95   75.99
   8   0  -5  522.25   79.99
   8   0  -5  536.55   44.40
   0   8   5  585.04   46.50
   0   8   5  545.85   63.99
  -8   8  -5  617.54   84.59
  -8   0   5  581.34   53.89
   0  -9   5  338.37   52.69
   0  -9   5  276.77   60.19
   9   0   5  272.67   62.09
   0  -9   5  350.16   31.20
   9  -9  -5  406.06   43.50
   0   9  -5  328.67   44.00
   0   9  -5  451.65   75.19
  -9   9   5  358.76   43.60
  -9   9   5  395.36   61.89
   9   0   5  461.05   52.59
   9   0   5  370.66   35.40
   9  -9  -5  430.36   72.99
  -9   9   5  304.37   35.40
   8   1   5  608.54   41.90
   1  -9   5  621.84   37.80
   1  -9   5  581.34   55.29
   1   8  -5  671.83   80.29
   8  -9  -5  642.24   52.39
   1  -9   5  523.35   64.19
   1   8  -5  601.34   49.00
   8   1   5  673.43   57.99
  -9   8   5  648.44   48.30
   8   1   5  579.54   69.29
   8  -9  -5  672.03   81.19
  -9   8   5  616.04   60.49
  -9   1  -5  748.23   80.09
   9  -1   5  697.83   38.90
   9  -1   5  589.44   41.40
  -1  -8   5  569.24   55.49
   9  -8  -5  636.94   48.40
  -1   9  -5  714.63   81.59
  -8   9   5  634.04   64.09
  -1  -8   5  515.55   63.59
  -8  -1  -5  706.13   77.89
   9  -1   5  464.55   66.09
   9  -1   5  700.03   56.29
  -8   9   5  608.04   49.70
  -1   9  -5  584.74   51.19
   9  -8  -5  612.64   78.99
   7  -9  -5  108.99   31.40
   2  -9   5  120.39   36.00
   7   2   5  198.98   53.79
   7   2   5   33.70   44.50
   2   7  -5  111.59   27.70
  -9   7   5  100.79   26.50
   2   7  -5  140.69   25.30
   2  -9   5   59.89   35.20
  -9   2  -5  112.59   49.60
   2  -9   5  127.59   31.50
   7  -9  -5   71.39   49.60
   2   7  -5   65.59   50.19
   7   2   5   98.99   22.90
  -7  -2  -5   61.59   45.40
  -2  -7   5   98.89   36.70
   9  -2   5   87.79   22.40
   9  -7  -5   87.99   51.29
   9  -2   5  115.69   25.40
  -7   9   5   90.49   37.40
  -7  -2  -5   98.29   25.60
   9  -2   5  175.58   46.70
   9  -2   5   17.90   44.40
  -7   9   5  122.49   27.00
   9  -7  -5  103.89   28.40
  -2   9  -5   59.79   26.30
  -2   9  -5   94.69   49.90
  -2  -7   5  121.39   37.60
   3   6  -5  159.18   51.09
   6   3   5  166.38   49.80
   6  -9  -5  208.48   43.90
   3  -9   5   94.49   35.70
   3   6  -5  170.08   39.30
  -9   6   5  193.28   41.60
   3  -9   5  126.59   35.60
   3  -9   5  184.28   32.60
   6   3   5  143.09   35.00
   6   3   5  182.38   47.90
   6  -9  -5  207.68   54.49
   9  -3   5  130.99   24.50
   9  -3   5  200.88   45.30
   9  -3   5  120.29   45.90
   9  -6  -5  117.19   51.39
  -3  -6   5  155.68   37.50
  -3   9  -5  153.78   39.80
  -6   9   5  174.08   42.00
   9  -6  -5  151.48   36.20
  -6   9   5  150.88   39.90
  -3   9  -5  231.28   54.79
  -6  -3  -5  186.68   50.49
  -3  -6   5  159.28   36.60
  -6  -3  -5  147.59   36.40
   5  -9  -5  132.29   52.09
   4   5  -5  252.27   57.89
   4   5  -5  155.78   41.40
   4  -9   5  155.18   33.40
   4  -9   5  223.28   36.80
  -9   5   5  201.38   41.20
   5   4   5  186.18   37.20
   5  -9  -5  217.98   42.40
   5   4   5  241.88   59.59
   4  -9   5  148.99   37.70
   5   4   5  258.17   61.89
  -9   4  -5  295.57   79.49
   9  -4   5  229.58   44.00
  -4  -5   5  182.38   36.70
  -5  -4  -5  119.19   47.90
   9  -4   5  185.68   44.90
  -4   9  -5  169.78   51.79
   9  -5  -5  190.98   38.30
  -5   9   5  267.37   50.19
   9  -4   5  147.99   26.40
  -5   9   5  205.48   38.90
  -5  -4  -5  179.78   36.90
  -4   9  -5  207.48   38.90
  -4  -5   5  187.38   37.80
  -5   9   5  126.19   36.60
   9  -5  -5  178.38   53.59
   4  -9  -5  115.49   32.30
   5   4  -5   73.59   23.30
   5  -9   5   72.69   28.20
   5   4  -5   78.29   50.09
   4   5   5   67.49   23.20
   4   5   5   63.29   43.90
  -9   5  -5  134.49   52.19
   4  -9  -5   91.09   53.09
  -9   4   5   95.19   27.70
   4   5   5   79.69   36.50
  -9   4   5   55.19   29.10
   5  -9   5    2.30   28.20
  -5   9  -5   71.29   24.20
   9  -4  -5  123.49   52.79
  -4   9   5   84.99   40.60
  -4   9   5   67.29   26.40
   9  -4  -5   88.19   25.60
  -5   9  -5   94.39   46.80
  -5  -4   5   95.99   31.60
  -5  -4   5   74.59   31.20
  -4   9   5  150.78   42.30
   9  -5   5   31.70   30.60
   9  -5   5   60.29   40.30
  -4  -5  -5  101.09   28.30
  -4  -5  -5   -1.70   41.00
   6   3  -5   30.30   46.70
   3   6   5   25.50   35.10
   3  -9  -5  -12.00   28.60
   3   6   5   -7.20   42.30
   6  -9   5   -6.30   28.30
   3  -9  -5   -9.40   46.50
  -9   3   5  -21.10   28.00
   6   3  -5  -20.80   24.40
  -9   6  -5    8.80   15.30
   3   6   5   12.10   20.50
  -9   3   5    4.20   26.10
  -9   6  -5   49.60   51.19
  -3   9   5   54.59   41.00
   9  -6   5  -43.60   34.40
  -3  -6  -5  -70.69   43.90
  -6   9  -5    5.60   22.10
  -3  -6  -5   -1.50   25.90
   9  -3  -5   -4.00   48.00
  -3   9   5   -3.40   22.80
   9  -3  -5   11.30   20.90
  -6   9  -5   38.10   47.60
  -6  -3   5   24.30   31.90
  -6  -3   5    2.20   33.30
  -3   9   5   32.20   33.60
  -9   2   5  420.46   48.00
   2  -9  -5  375.66   47.50
  -9   2   5  349.77   45.90
   7  -9   5  371.06   47.00
   2   7   5  406.86   42.00
  -9   7  -5  457.05   79.99
   7   2  -5  394.66   42.60
   2   7   5  317.27   62.49
   2  -9  -5  392.76   75.69
   7   2  -5  383.86   74.29
  -9   7  -5  385.46   31.80
   2   7   5  394.96   60.69
  -2   9   5  448.66   64.69
   9  -2  -5  386.46   39.50
  -2  -7  -5  386.26   45.00
   9  -2  -5  360.56   75.89
   9  -7   5  380.96   52.69
  -7  -2   5  399.36   49.30
  -2   9   5  294.67   63.69
  -2  -7  -5  285.47   59.59
  -7   9  -5  396.56   38.90
  -7   9  -5  493.25   77.79
  -2   9   5  340.07   42.20
   9  -7   5  290.07   36.20
  -7  -2   5  405.46   54.79
   8   1  -5  291.07   57.69
  -9   1   5  328.07   48.00
   8  -9   5  300.47   47.70
  -9   8  -5  348.67   79.59
  -9   1   5  248.58   43.10
   8  -9   5  209.18   36.40
   1   8   5  322.57   63.89
   1  -9  -5  171.98   53.69
   8   1  -5  295.97   37.70
   1  -9  -5  272.67   45.80
  -9   8  -5  303.37   32.30
   8  -9   5  168.68   39.20
   1   8   5  313.27   64.99
   1   8   5  307.77   39.80
  -8   9  -5  323.77   80.89
  -1   9   5  342.27   63.69
   9  -8   5  227.78   38.10
   9  -1  -5  213.68   53.29
  -1  -8  -5  244.58   44.60
   9  -8   5  261.17   47.60
  -8   9  -5  294.77   35.60
  -1   9   5  304.87   41.40
  -8  -1   5  321.47   49.00
   9  -8   5  196.88   32.90
   9  -1  -5  245.58   37.80
  -8  -1   5  340.07   53.49
  -1  -8  -5  182.18   56.29
  -1   9   5  332.97   65.59
   0  -9  -5   14.90   28.70
  -9   0   5   19.60   27.20
   0   9   5   -2.90   41.90
  -9   0   5   30.90   29.60
   0  -9  -5  -52.49   48.30
  -9   9  -5   38.40   50.49
   9   0  -5   27.90   20.30
   0   9   5   79.19   39.00
  -9   9  -5   17.40   17.80
   9  -9   5   32.00   33.20
   0   9   5   25.20   22.20
   9   0  -5   -8.30   47.20
   0 -10   5  448.96   53.19
   0  10  -5  631.44   75.49
   0 -10   5  461.75   56.09
 -10  10   5  509.95   45.30
  10   0   5  639.34   59.69
  10   0   5  537.25   66.49
   0  10  -5  490.15   48.30
 -10  10   5  563.94   63.39
  10 -10  -5  646.74   76.39
  10   0   5  516.45   37.10
  10 -10  -5  576.34   47.50
 -10  10   5  403.16   38.30
   9 -10  -5  164.58   34.00
   9   1   5  122.99   31.80
   1   9  -5  192.28   51.69
   1   9  -5  104.19   28.50
   9   1   5   72.19   43.70
   1 -10   5   83.59   33.80
   1 -10   5   90.99   24.50
 -10   9   5   16.70   31.90
   1 -10   5   61.99   33.70
 -10   9   5   98.49   40.60
   9 -10  -5  171.48   53.59
 -10   1  -5  173.38   51.79
 -10   9   5  155.38   38.00
  10  -1   5   87.49   20.50
  -9  10   5  103.59   26.90
  10  -9  -5   94.19   47.90
  -1  10  -5  119.79   49.90
  10  -9  -5  115.59   31.20
  -9  -1  -5   86.09   24.30
  10  -1   5   83.39   45.50
  -1  -9   5   91.19   33.60
  -9  -1  -5  166.08   49.80
  -1  10  -5   90.69   27.50
  -1  -9   5   70.49   35.90
  -9  10   5   97.39   35.80
  -9  10   5   44.10   26.40
 -10   2  -5  689.13   81.39
   2   8  -5  586.54   50.49
   2   8  -5  615.04   35.00
 -10   8   5  535.85   47.30
   8 -10  -5  588.04   77.29
   2 -10   5  413.26   51.69
   2 -10   5  424.16   56.59
   8 -10  -5  573.64   51.29
   8   2   5  567.84   41.40
   2 -10   5  548.05   40.50
   8   2   5  432.56   66.99
   2   8  -5  551.64   79.89
  -8  -2  -5  527.65   41.60
  10  -2   5  690.43   49.60
  10  -2   5  602.44   37.80
  -2  -8   5  550.44   57.49
  10  -2   5  439.66   67.99
  -8  10   5  572.24   48.60
  -2  10  -5  524.85   48.70
  -2  -8   5  498.15   62.69
  -8  -2  -5  570.84   73.59
  -8  10   5  565.54   63.29
  10  -2   5  551.14   39.30
  10  -8  -5  600.54   45.00
  -2  10  -5  535.95   75.99
  10  -8  -5  599.44   77.19
   3   7  -5 1066.19   60.19
 -10   7   5 1041.60   58.89
   3   7  -5 1021.60   89.39
   7   3   5 1122.39   73.29
   7   3   5 1016.10   53.89
   3 -10   5  971.20   62.19
   7 -10  -5 1048.00   62.09
   7   3   5  988.30   81.39
   7 -10  -5 1033.60   86.99
   3 -10   5  989.00   68.19
 -10   3  -5 1099.49   90.69
   3 -10   5 1050.19   51.89
  10  -7  -5 1063.29   58.09
  10  -7  -5 1103.59   55.89
  -7  -3  -5 1012.70   80.79
  10  -7  -5 1047.90   87.29
  -3  10  -5 1047.40   59.69
  -7  -3  -5 1074.29   54.19
  -7  10   5 1257.57   62.69
  -3  -7   5 1043.90   72.49
  -3  10  -5 1058.29   86.39
  10  -3   5 1193.68   61.39
  10  -3   5 1108.19   49.20
  -7  10   5 1083.99   73.99
  -7  10   5 1013.10   60.39
  -3  -7   5 1025.30   66.79
  10  -3   5 1045.10   77.19
  10  -3   5  991.50   51.59
   6 -10  -5  218.98   53.99
   4   6  -5  239.98   41.30
 -10   6   5  247.68   41.80
   4   6  -5  189.08   54.19
   4 -10   5  130.39   34.20
   6   4   5  244.88   37.50
   6   4   5  257.37   60.49
   4 -10   5  200.28   35.50
   6   4   5  239.78   52.89
 -10   4  -5  290.07   74.89
   6 -10  -5  265.37   44.00
  10  -4   5  176.58   26.40
  10  -4   5  301.47   42.60
  -6  -4  -5  205.78   36.70
  -4  -6   5  222.18   56.79
  10  -6  -5  179.08   52.39
  -6  10   5  295.17   42.30
  -4  10  -5  189.88   41.70
  -4  -6   5  269.07   49.80
  -6  -4  -5  173.78   48.70
  -6  10   5  216.08   57.79
  10  -6  -5  249.38   36.90
  10  -4   5  212.68   47.10
  -4  10  -5  305.87   72.49
 -10   5   5   30.10   28.60
   5   5  -5   33.20   27.50
   5   5  -5   72.59   49.60
   5   5   5   29.60   44.40
   5 -10  -5   41.80   28.60
   5 -10  -5   35.40   48.00
   5   5   5   45.60   36.00
 -10   5   5   28.20   24.10
 -10   5  -5  140.29   50.79
   5   5   5   23.00   20.80
   5 -10   5   34.30   27.20
  -5  10   5   69.59   33.90
  -5  -5  -5   51.89   26.60
  -5  -5  -5  -53.59   42.50
  -5  -5   5   50.19   30.80
  10  -5  -5   35.00   45.80
  10  -5   5   15.70   40.60
  -5  10  -5   68.69   47.90
  10  -5   5   69.19   24.80
  10  -5  -5   18.60   20.30
  -5  10  -5    6.20   22.80
  -5  -5   5   13.50   31.80
  -5  10   5    8.80   23.70
   4 -10  -5   14.80   27.10
 -10   6  -5  116.09   51.99
   6   4  -5   25.50   44.50
   4   6   5   45.50   44.40
   4 -10  -5   28.40   49.50
   4   6   5   46.60   34.90
 -10   4   5   56.79   28.20
   6 -10   5   43.20   28.50
   4   6   5   58.59   22.10
   6   4  -5   53.09   23.50
 -10   4   5   45.20   29.80
  10  -4  -5   22.30   22.10
  -6  -4   5   70.99   32.20
  -6  10  -5   69.99   48.40
  10  -6   5   12.60   40.20
  10  -4  -5   15.60   46.50
  -4  10   5  111.19   39.60
  -6  -4   5   44.30   34.30
  -6  10  -5   32.80   22.20
  -4  10   5   33.90   36.10
  -4  -6  -5   44.00   25.90
  -4  10   5   46.10   22.60
 -10   7  -5  152.08   25.00
   3   7   5  142.49   35.70
   7 -10   5  136.69   32.90
   7   3  -5  135.09   51.69
   3   7   5  143.89   48.20
 -10   3   5   97.79   29.10
   7   3  -5  114.89   26.10
   3 -10  -5   95.39   30.30
 -10   3   5   92.79   26.60
   3 -10  -5   74.69   49.20
   3   7   5  119.79   37.50
   7 -10   5   54.39   31.00
  -3  10   5  114.49   36.10
  10  -3  -5   86.89   48.90
  -3  10   5  208.88   46.40
  -7  -3   5  114.39   31.30
  -3  -7  -5  124.99   30.40
  -7  -3   5  102.29   32.50
  -7  10  -5  135.69   35.80
  10  -3  -5   88.19   24.60
  -3  10   5  104.09   25.00
  10  -7   5  100.39   40.40
  -7  10  -5  133.29   46.60
   2   8   5   30.20   41.90
 -10   8  -5   32.40   16.10
 -10   2   5   40.90   31.60
   2   8   5   34.30   34.50
   8   2  -5   23.50   45.70
   2   8   5   33.50   20.80
   8 -10   5   20.70   29.90
   2 -10  -5  -28.50   46.40
   8 -10   5  -39.50   29.00
   2 -10  -5    2.30   30.10
   8   2  -5   25.80   22.50
 -10   2   5   22.80   26.10
 -10   8  -5   65.59   48.30
  -8  10  -5   73.69   51.39
  -8  -2   5   24.30   31.40
  -2  -8  -5   31.90   46.00
  -2  -8  -5   25.60   28.90
  10  -2  -5   20.30   45.60
  -8  10  -5   22.50   19.90
  -2  10   5   31.50   42.40
  -8  -2   5   22.40   30.50
  10  -2  -5   -3.70   18.10
  -2  10   5    8.90   35.90
  -2  10   5    1.20   23.00
  10  -8   5  -19.60   33.30
  10  -8   5  -21.50   24.50
   1 -10  -5  150.88   32.60
   1   9   5  152.68   38.50
   1 -10  -5  126.39   51.59
 -10   1   5  179.08   45.80
   9 -10   5  186.68   37.60
 -10   9  -5  155.78   28.70
 -10   1   5  190.68   42.90
   1   9   5  168.78   36.40
   9 -10   5  109.59   29.20
   9   1  -5  128.49   49.99
   9   1  -5  141.89   34.50
   1   9   5  156.28   46.40
   9 -10   5   90.39   32.30
  -9  -1   5   96.19   33.30
  10  -1  -5  206.08   54.09
  -1  10   5  138.99   40.30
  10  -1  -5  148.49   33.90
  -1  -9  -5  181.98   43.50
  -9  10  -5  114.89   23.50
  -1  10   5  173.98   45.60
  -9  10  -5  208.98   57.19
  -9  -1   5  153.28   34.30
  -1  -9  -5  139.49   51.59
  10  -9   5  188.58   46.40
  10  -9   5  147.89   39.50
  10  -9   5  119.39   28.80
  -1  10   5  170.58   36.50
   0 -10  -5  183.58   43.70
 -10   0   5  216.68   47.30
  10   0  -5  195.58   54.19
   0  10   5  244.78   60.29
  10 -10   5  248.48   51.19
   0  10   5  167.78   37.70
 -10  10  -5  184.38   44.30
  10 -10   5  174.78   36.80
   0  10   5  229.38   37.90
  10   0  -5  120.89   25.50
 -10  10  -5  169.58   52.79
   0 -10  -5   63.89   52.49
 -10   0   5  134.39   32.00
  11 -11  -5  228.68   51.49
 -11   0  -5  339.77   68.99
   0  11  -5  233.98   52.89
  11 -11  -5  261.97   44.30
   0  11  -5  253.67   41.90
 -11  11   5  194.38   38.70
  11   0   5  151.78   45.80
 -11  11   5  217.18   58.19
   0 -11   5  133.99   37.80
 -11  11   5  124.79   36.30
  11   0   5  215.98   30.90
  10   1   5  165.78   49.60
   1 -11   5  147.29   30.20
  10 -11  -5  205.18   51.69
 -11  10   5  127.89   27.30
  10   1   5  147.09   31.50
  10 -11  -5  217.78   42.40
   1 -11   5  122.69   36.80
   1  10  -5  199.38   52.99
   1  10  -5  163.58   42.70
 -11   1  -5  323.57   71.79
 -11  10   5  224.98   41.10
 -11  10   5  222.98   53.39
  11  -1   5  133.69   45.70
  -1 -10   5  133.49   36.60
  -1  11  -5  200.08   39.10
 -10  -1  -5  147.49   32.20
  -1  11  -5  221.58   53.69
  11 -10  -5  190.18   48.90
 -10  11   5  149.09   41.30
 -10  11   5  191.28   40.90
  11  -1   5  156.08   29.90
 -10  -1  -5  299.87   69.59
  -1 -10   5  181.88   39.80
  11 -10  -5  238.28   41.70
 -10  11   5  133.89   30.40
 -11   9   5  455.25   59.89
 -11   2  -5  589.14   77.59
   9 -11  -5  530.05   75.39
   9 -11  -5  521.65   48.70
   2   9  -5  515.45   78.09
   9   2   5  436.36   65.49
   2 -11   5  468.45   36.80
 -11   9   5  395.56   45.40
   2   9  -5  592.34   36.70
   2   9  -5  427.66   47.20
   9   2   5  474.45   38.50
   9   2   5  586.74   64.99
  -9  11   5  442.76   45.40
  -9  -2  -5  418.26   39.30
  -2  -9   5  371.86   60.79
  11  -9  -5  459.25   71.19
  -9  11   5  528.15   59.79
  11  -2   5  504.45   33.80
  -2  11  -5  525.35   75.69
  11  -9  -5  493.65   45.70
  -9  11   5  484.35   41.60
  -2  11  -5  470.05   47.10
  11  -2   5  461.85   36.50
  -2  -9   5  461.25   52.49
  11  -2   5  394.86   66.09
  -9  -2  -5  560.84   73.09
   8 -11  -5  222.78   42.70
   8   3   5  175.88   31.60
   3 -11   5  155.88   34.10
   8   3   5  297.37   59.99
   8 -11  -5  252.17   68.49
 -11   3  -5  346.97   75.69
   3 -11   5  104.49   34.30
   3   8  -5  201.48   52.09
 -11   8   5  175.18   39.20
   3   8  -5  203.88   42.30
   8   3   5  201.68   50.79
  11  -8  -5  165.38   49.80
  -8  -3  -5  207.68   35.80
  11  -3   5  190.78   48.90
  11  -3   5  143.89   28.40
  11  -8  -5  235.68   40.80
  -8  11   5  165.58   40.00
  -3  11  -5  176.08   40.70
  -8  -3  -5  179.28   47.10
  -8  11   5  254.57   58.69
  -3  11  -5  259.37   68.09
  11  -3   5  130.79   32.40
  -3  -8   5  170.18   38.70
  -3  -8   5  161.28   36.60
   7 -11  -5  200.88   55.39
 -11   4  -5  230.98   55.29
 -11   7   5  199.98   39.50
   4 -11   5  194.78   33.90
   4   7  -5  233.18   41.30
   7   4   5  253.97   36.40
   7 -11  -5  249.78   42.00
   4   7  -5  194.98   52.49
   7   4   5  159.38   48.80
   4 -11   5  134.79   36.30
  -4  11  -5  188.98   52.29
  11  -7  -5  249.97   36.80
  11  -4   5  174.78   46.80
  -4  -7   5  252.37   53.19
  -7  11   5  259.07   39.70
  -4  11  -5  181.88   40.00
  11  -7  -5  161.38   50.79
  -7  11   5  263.77   59.09
  -4  -7   5  153.38   37.50
  -7  -4  -5  161.28   36.60
   6 -11  -5  249.88   54.59
   5   6  -5  223.38   41.30
   6   5   5  237.58   35.20
   5 -11   5  230.38   36.50
 -11   5  -5  182.78   52.79
   5 -11   5  126.79   37.00
 -11   6   5  217.28   36.00
   5   6  -5  245.98   57.69
   6   5   5  165.08   47.00
   5 -11   5  132.29   36.30
 -11   6   5  202.38   42.20
   6 -11  -5  213.88   42.50
  -6  11   5  304.47   50.49
  -6  11   5  222.88   40.00
  11  -6  -5  152.38   50.69
  -6  11   5  340.97   55.89
  -5  11  -5  199.58   53.69
  -5  -6   5  206.48   39.30
  11  -5   5  213.58   46.60
  -6  -5  -5  246.08   37.20
  -5  -6   5  231.08   54.69
  -6  -5  -5  130.99   44.90
  11  -6  -5  241.58   34.70
  -5  11  -5  225.18   40.50
 -11   5   5   99.89   26.70
   5   6   5  103.69   23.20
   5 -11  -5   92.39   50.49
   6   5  -5   90.89   46.40
   6 -11   5  102.49   29.40
 -11   5   5   64.59   27.90
   5 -11  -5  135.09   32.60
   6   5  -5   95.89   27.30
   6 -11   5   61.59   34.20
 -11   6  -5  145.79   51.49
   5   6   5  148.79   49.70
  -6  11  -5  148.79   49.80
  -6  11  -5   98.39   26.50
  -5  11   5  143.29   35.90
  -5  -6  -5  160.28   38.90
  -6  -5   5  128.79   33.10
  -6  -5   5   80.79   33.10
  11  -5  -5  108.39   47.50
  -5  11   5   84.99   39.60
  11  -6   5  129.99   44.90
  11  -5  -5   87.89   23.50
 -11   4   5   -4.40   29.20
   4   7   5   96.99   38.10
   7 -11   5  -20.50   27.90
   4 -11  -5   53.79   46.10
   4 -11  -5   50.09   32.20
   7   4  -5   52.09   46.60
   7 -11   5    0.90   30.10
 -11   4   5   18.10   27.30
 -11   7  -5   68.59   49.20
   7   4  -5   37.50   24.10
   7 -11   5   38.20   28.70
   4   7   5   43.10   21.30
   4   7   5   32.50   41.50
  -7  -4   5   28.30   34.30
  11  -4  -5   26.70   42.50
  -4  11   5   52.79   33.70
  -4  -7  -5   52.29   27.20
  11  -7   5   -1.20   23.90
  11  -4  -5   52.29   19.90
  -7  11  -5   53.79   46.80
  -4  11   5   27.40   23.80
  11  -7   5   -5.60   37.20
  11  -7   5    6.70   24.00
  -7  -4   5   31.80   32.40
  -7  11  -5   60.29   22.80
  -4  11   5  146.19   42.40
 -11   8  -5  305.37   78.49
   8   3  -5   85.49   23.80
 -11   3   5  117.49   29.10
   3   8   5  134.49   45.70
   3   8   5  172.38   34.30
   8 -11   5   93.09   30.40
 -11   8  -5  162.08   23.70
 -11   3   5  134.69   30.90
   3 -11  -5   61.49   52.89
   8   3  -5   45.70   46.40
   3   8   5  265.77   59.79
   8 -11   5   58.89   32.50
   3 -11  -5  151.38   33.60
   8 -11   5  153.88   34.30
  -3  -8  -5  124.09   30.60
  11  -8   5  152.38   34.60
  -8  -3   5  168.28   36.90
  -3  11   5  172.08   43.80
  -3  11   5  117.29   26.00
  -8  11  -5  188.68   34.90
  -8  -3   5  116.29   35.50
  11  -8   5  217.98   41.40
  11  -3  -5  100.69   45.80
  -3  11   5   96.99   40.90
  11  -8   5  130.29   39.70
  11  -3  -5  118.39   25.90
  -8  11  -5  176.58   51.79
   9   2  -5   83.79   49.00
 -11   9  -5  129.89   25.30
   9 -11   5  121.39   30.80
   2 -11  -5   79.89   30.00
   9 -11   5  108.79   32.50
   2   9   5  151.58   34.80
   2   9   5  160.58   50.29
   9   2  -5  142.69   34.70
 -11   2   5  118.29   31.40
 -11   9  -5  164.18   54.39
 -11   2   5   68.99   29.70
   2 -11  -5  106.09   49.70
   2   9   5  129.39   41.40
  -9  -2   5  167.48   35.90
  -2  11   5  161.58   48.40
  11  -9   5  134.19   38.90
  -2  -9  -5  118.39   32.80
  11  -9   5  104.59   28.40
  -9  11  -5   91.09   23.50
  11  -2  -5  103.99   47.20
  -9  -2   5  123.79   33.70
  -2  -9  -5   96.59   46.10
  -2  11   5  173.58   38.00
  11  -2  -5   96.29   24.60
  -9  11  -5  139.09   51.19
 -11  10  -5   97.99   18.80
   1  10   5  130.09   47.10
 -11   1   5  170.78   46.30
 -11   1   5  129.59   31.90
   1 -11  -5  121.99   35.20
  10   1  -5   75.89   20.30
   1 -11  -5   48.60   49.20
   1  10   5   99.39   24.60
  10   1  -5   68.99   45.50
  10 -11   5   80.29   32.60
 -11  10  -5  108.49   50.99
  11  -1  -5   75.49   47.70
  -1  11   5  101.69   25.10
  -1 -10  -5   78.39   30.80
 -10  -1   5  105.79   34.60
 -10  -1   5  118.89   33.40
 -10  11  -5  163.28   56.09
  -1 -10  -5   45.40   48.10
  -1  11   5  114.09   47.00
 -10  11  -5   83.69   21.50
  11 -10   5   88.29   30.90
  11 -10   5  117.69   28.00
  11  -1  -5  159.78   33.60
  11 -10   5   78.79   35.70
  -1  11   5   91.59   38.80
 -11  11  -5  129.49   53.49
  11 -11   5   34.80   32.60
  11   0  -5   17.60   41.60
 -11   0   5   39.70   29.50
   0  11   5   10.50   22.70
 -11   0   5   14.70   30.10
   0 -11  -5  -40.60   47.70
  11 -11   5   16.40   31.40
   0  11   5   62.29   37.40
  11   0  -5    0.70   22.70
   0 -11  -5   36.90   28.90
   0  11   5   57.29   45.40
  11 -11   5   -2.30   27.20
  12 -12  -5   31.20   40.60
   0  12  -5  -16.20   26.00
  12   0   5   14.40   18.20
   0  12  -5   63.29   48.70
   0 -12   5  -27.10   32.90
 -12   0  -5   91.59   46.40
  12 -12  -5   60.29   47.60
   0 -12   5  -30.80   34.60
 -12  12   5  -13.00   46.40
  12   0   5   32.30   45.10
 -12  11   5  627.74   63.79
 -12   1  -5  712.13   78.69
  11 -12  -5  524.85   75.19
   1 -12   5  408.16   62.59
   1  11  -5  598.14   42.20
   1  11  -5  496.35   79.29
  11   1   5  516.75   38.90
   1  11  -5  455.45   48.00
  11   1   5  500.15   68.39
  11 -12  -5  599.14   50.69
  12 -11  -5  568.34   47.70
  -1  12  -5  569.94   51.09
 -11  -1  -5  544.05   39.20
  -1  12  -5  523.35   74.79
  12 -11  -5  587.34   76.99
  12  -1   5  497.25   37.30
 -11  12   5  453.95   43.60
  -1 -11   5  442.46   56.59
  12  -1   5  483.05   65.89
 -11  -1  -5  688.43   74.69
  10 -12  -5  362.66   69.29
   2 -12   5  345.27   59.19
 -12  10   5  377.26   58.49
  10   2   5  502.15   67.89
   2  10  -5  412.96   47.20
 -12   2  -5  498.85   77.19
 -12  10   5  373.96   43.40
  10   2   5  434.46   37.50
   2 -12   5  353.06   36.40
  10 -12  -5  413.16   47.20
   2  10  -5  360.26   72.79
   2  10  -5  421.56   45.50
  -2  12  -5  342.67   72.49
 -10  12   5  435.26   57.99
  12  -2   5  369.86   64.59
  12 -10  -5  357.76   70.39
 -10  -2  -5  478.05   71.79
  -2 -10   5  402.26   59.29
  -2  12  -5  431.66   47.60
  -2 -10   5  410.36   54.89
  12  -2   5  353.36   32.60
 -10  12   5  462.15   63.59
  12 -10  -5  397.46   43.50
   3 -12   5   74.99   24.40
   9   3   5   48.90   46.20
   9 -12  -5   54.19   28.50
   3 -12   5   25.50   32.50
   3   9  -5   55.39   26.60
   3 -12   5   63.49   35.00
 -12   3  -5  107.29   48.90
   3   9  -5   72.89   46.70
 -12   9   5   85.09   26.20
   9 -12  -5   73.69   47.00
  -9  -3  -5   90.29   25.90
  -3  12  -5   92.29   27.10
  -9  12   5   71.59   24.30
  12  -9  -5   88.19   27.50
  -9  -3  -5   59.89   43.50
  12  -9  -5   47.10   42.40
  -3  -9   5   25.30   35.30
  12  -3   5   66.49   42.70
  -9  12   5   53.99   35.30
  -3  -9   5   94.79   34.00
  -3  12  -5   65.89   47.40
   4   8  -5   81.99   27.20
   8   4   5   79.29   22.80
   4 -12   5   14.90   29.90
   8 -12  -5  113.69   29.00
 -12   8   5   78.89   26.40
   8 -12  -5  119.99   50.79
   8   4   5   84.69   45.80
   4 -12   5   57.59   33.10
   4   8  -5  153.68   51.69
 -12   4  -5  216.08   55.19
   4 -12   5  107.69   26.10
  -4  -8   5  113.69   38.50
  12  -8  -5  110.59   43.00
  12  -4   5   85.39   43.40
  -4  -8   5   82.39   36.60
  -8  -4  -5  115.19   44.30
  -8  -4  -5   97.89   27.40
  -8  12   5   79.29   24.30
  -4  12  -5  144.99   51.39
  -4  12  -5   84.09   25.80
  -8  12   5  113.89   35.00
   5 -12   5   43.30   31.10
   7 -12  -5  132.39   48.80
   7 -12  -5   86.79   29.60
   5 -12   5   88.09   26.10
   5   7  -5   65.59   43.90
   5 -12   5   31.90   32.40
   7   5   5   80.59   42.10
   5   7  -5   71.99   25.20
   7   5   5   64.79   44.30
 -12   7   5   30.20   23.60
   7   5   5   87.99   21.60
 -12   5  -5  118.39   48.80
  -7  -5  -5   27.10   40.50
  -7  12   5   44.20   23.20
  -7  12   5  186.28   46.20
  -5  12  -5   94.29   48.40
  12  -7  -5   70.79   20.80
  12  -7  -5   91.79   45.40
  -5  -7   5   72.99   34.10
  -5  -7   5   -2.10   33.70
  -7  -5  -5   65.39   25.60
  12  -5   5   22.60   39.20
  -7  12   5   76.29   35.40
  -5  12  -5   83.89   25.30
   6 -12   5   87.29   31.00
   6   6   5  101.79   42.60
   6   6  -5   94.59   24.50
   6   6   5   57.09   45.00
   6 -12  -5   99.19   29.90
 -12   6  -5  114.79   51.19
   6 -12   5   91.89   27.70
 -12   6   5   68.19   24.70
   6   6   5   71.29   22.40
   6 -12  -5   54.09   47.90
 -12   6   5   58.39   28.80
   6 -12   5   45.10   33.00
   6   6  -5   51.09   44.10
  -6  12  -5   78.89   48.00
  -6  -6   5  114.19   37.50
  -6  12   5   85.19   23.20
  -6  -6  -5   -1.50   37.30
  -6  12   5   94.29   38.00
  12  -6  -5  154.38   33.30
  -6  12  -5   84.39   25.70
  12  -6   5   67.39   21.50
  -6  -6   5   96.09   35.50
  -6  12   5   81.09   33.20
  -6  -6  -5   72.39   27.20
  12  -6  -5   56.29   42.10
  12  -6   5   92.89   43.20
   5   7   5  123.89   48.20
   5   7   5  171.68   34.00
   5   7   5  165.48   42.00
   7   5  -5   76.89   26.20
   5 -12  -5  106.99   48.30
   7   5  -5  129.39   48.20
 -12   7  -5  203.38   53.49
 -12   5   5   80.89   30.10
   7 -12   5   34.30   30.40
   7 -12   5   24.00   33.90
 -12   5   5   92.19   29.30
   7 -12   5  115.99   29.60
   5 -12  -5  109.99   31.80
  -5  12   5  102.49   36.50
  -7  12  -5  150.48   50.29
  -5  12   5   68.59   24.10
  12  -5  -5  126.39   33.50
  -7  12  -5   64.99   25.60
  -5  -7  -5  134.19   30.20
  12  -7   5   80.49   23.50
  12  -7   5  105.29   38.20
  -7  -5   5  103.69   33.70
  -7  -5   5   90.29   35.10
  -5  -7  -5   10.20   36.70
  12  -5  -5   94.69   44.20
 -12   4   5  163.98   32.60
   4   8   5  165.98   46.80
   4   8   5  308.17   62.79
   8   4  -5  233.38   37.30
   8   4  -5  185.88   51.29
   8 -12   5  251.07   40.80
   4 -12  -5  198.08   44.30
 -12   8  -5  357.86   78.69
   4   8   5  217.18   34.90
 -12   4   5  201.18   43.80
   8 -12   5  152.58   33.10
   4 -12  -5  164.58   54.39
  -4  12   5  163.88   38.00
  -4  -8  -5  160.08   33.50
  12  -8   5  148.69   26.20
  -8  -4   5  240.98   47.50
  -8  12  -5  195.18   50.49
  12  -4  -5  130.89   44.20
  -4  12   5  276.57   56.09
  -4  12   5  157.58   41.10
  -8  12  -5  182.28   36.90
  -8  -4   5  109.99   35.50
  12  -4  -5  218.78   34.20
  12  -8   5  154.58   40.00
 -12   3   5   40.10   28.10
   3   9   5   59.09   40.90
   3   9   5   57.19   23.20
   9 -12   5   54.39   30.30
   9 -12   5   60.19   30.90
   9   3  -5   59.29   47.30
   3 -12  -5   93.49   49.80
   3 -12  -5   52.49   30.80
 -12   9  -5   95.69   51.39
   9   3  -5   19.50   21.30
 -12   3   5   70.39   29.30
   9 -12   5   55.49   29.80
  -3  12   5  103.89   36.60
  -9  -3   5   44.70   32.00
  -9  -3   5   43.30   30.20
  -9  12  -5   53.79   21.60
  -3  -9  -5   66.79   29.60
  12  -3  -5   39.60   42.30
  12  -3  -5   62.29   20.10
  -9  12  -5   81.09   51.39
  -3  12   5   85.69   24.60
  12  -9   5   37.80   33.40
  -3  12   5   95.19   43.50
 -12   2   5  105.59   32.10
   2 -12  -5  118.29   33.70
 -12   2   5  111.09   30.40
 -12  10  -5  152.68   24.60
  10   2  -5  154.78   35.30
 -12  10  -5  152.18   53.59
   2 -12  -5    3.30   52.79
   2  10   5  115.09   44.50
   2  10   5  110.09   27.20
  10 -12   5  230.38   58.89
  10 -12   5  212.28   46.10
  10 -12   5  118.29   34.80
  10   2  -5   90.29   47.00
  -2  12   5  100.99   39.80
  12 -10   5   33.00   30.50
  12  -2  -5   77.29   21.70
  -2  12   5  133.19   45.90
  -2 -10  -5  128.09   32.10
  12  -2  -5  105.99   42.70
 -10  -2   5  117.49   42.80
  12 -10   5  105.59   36.50
 -10  12  -5  102.29   23.50
 -10  -2   5  125.49   32.90
  -2  12   5   81.59   24.50
 -10  12  -5  142.59   53.69
 -12   1   5    2.50   30.80
  11 -12   5  -46.10   26.90
 -12  11  -5   74.59   53.79
   1  11   5    5.30   44.20
   1 -12  -5   11.80   29.00
  11 -12   5  -48.10   32.40
 -12  11  -5   11.80   15.70
   1  11   5    1.20   21.70
  11 -12   5   20.30   30.20
   1 -12  -5  -53.39   45.30
  11   1  -5   -0.30   17.80
   1  11   5   64.99   37.60
  11   1  -5   24.30   42.30
  -1 -11  -5   20.70   48.80
 -11  12  -5  -10.10   17.50
  -1  12   5   84.19   36.00
  12  -1  -5   -4.10   41.00
 -11  12  -5   30.50   49.00
 -11  -1   5   36.10   31.30
  12  -1  -5    5.20   19.70
  -1  12   5   22.50   45.60
  -1 -11  -5    1.10   28.70
  12 -11   5   -7.20   31.90
  -1  12   5  -17.20   24.00
   0 -12  -5  115.39   53.19
   0  12   5  150.58   48.20
  12   0  -5  125.29   38.60
  12 -12   5  147.49   38.10
 -12   0   5  171.98   41.30
 -12  12  -5  190.98   30.70
   0  12   5  131.79   26.70
 -12  12  -5  229.88   60.19
   0 -12  -5  169.98   37.40
  13   0   5  685.03   73.89
   0  13  -5  773.02   52.39
  13 -13  -5  719.83   55.39
  13 -13  -5  837.22   81.99
   0  13  -5  640.44   86.79
 -13   0  -5  916.51   81.09
   1  12  -5  586.44   80.89
  12   1   5  518.95   76.99
   1  12  -5  652.93   52.19
  12   1   5  580.94   41.30
   1  12  -5  539.25   53.19
  12 -13  -5  657.33   75.19
   1 -13   5  442.86   72.09
   1 -13   5  463.15   56.79
 -13   1  -5  696.93   79.99
  12 -13  -5  562.14   50.59
  -1 -12   5  430.56   59.59
  13 -12  -5  528.75   52.89
  13  -1   5  566.84   81.89
 -12  -1  -5  673.13   76.99
  -1  13  -5  419.76   53.79
  13 -12  -5  618.14   75.89
  -1  13  -5  581.04   77.49
 -12  13   5  397.46   44.00
  11   2   5   88.09   46.80
   2 -13   5   37.90   34.00
  11 -13  -5   98.79   51.69
   2  11  -5   60.29   26.40
   2 -13   5   52.59   26.90
 -13   2  -5  145.69   50.29
   2 -13   5   66.19   33.70
   2  11  -5   76.19   47.80
  11   2   5   90.69   21.20
 -13  11   5  178.68   57.19
  -2  13  -5  130.79   51.49
  13 -11  -5  108.99   48.10
 -11  -2  -5  125.09   45.10
 -11  -2  -5   49.40   28.50
  -2 -11   5  101.89   36.70
  13 -11  -5  174.78   45.80
 -11  13   5   41.00   27.50
  13  -2   5   78.89   45.50
  -2  13  -5   79.49   28.90
  10   3   5  109.59   49.70
   3  10  -5  126.19   49.90
  10   3   5   98.09   27.90
  10 -13  -5  114.79   37.80
   3 -13   5   53.79   27.00
   3 -13   5   65.09   34.80
 -13  10   5   62.79   37.60
 -13   3  -5  182.38   53.59
  10 -13  -5   74.09   49.10
   3 -13   5   52.19   37.20
   3  10  -5   75.79   26.40
 -10  13   5  142.29   30.80
 -10  13   5  128.59   44.20
  -3 -10   5   84.99   38.10
  13  -3   5   94.09   44.50
 -10  -3  -5  155.18   47.20
  -3  13  -5  120.09   55.59
  13 -10  -5  143.89   51.09
 -10  -3  -5  112.89   27.60
  -3  13  -5   81.89   29.00
  13 -10  -5  120.19   28.10
 -13   4  -5  516.45   79.89
   9 -13  -5  469.95   70.89
   9 -13  -5  404.66   46.90
   4 -13   5  311.27   50.39
   9   4   5  360.36   38.70
   4 -13   5  399.36   39.10
   4   9  -5  387.26   72.69
   4   9  -5  319.17   46.40
   9   4   5  341.57   63.89
   4 -13   5  252.47   59.19
  -9  13   5  434.76   46.80
  13  -9  -5  381.76   42.80
  -4  13  -5  366.06   72.19
  -9  -4  -5  337.67   42.10
  -4  13  -5  321.37   47.30
  13  -9  -5  324.07   69.79
  -9  13   5  431.06   60.49
  -4  -9   5  370.36   53.79
  13  -4   5  317.37   59.29
  -9  -4  -5  353.96   69.39
 -13   8   5   62.49   27.20
   8 -13  -5  107.89   48.60
 -13   5  -5   89.59   48.10
   8   5   5   49.50   44.80
   5 -13   5   65.99   33.50
   5   8  -5   56.49   26.60
   5   8  -5   75.79   46.10
   5 -13   5  128.89   27.40
   8   5   5  130.89   33.90
   8 -13  -5   76.79   31.30
  13  -8  -5   74.49   44.00
  -5  13  -5   73.79   26.30
  -5  -8   5   81.39   53.69
  -8  -5  -5   84.79   42.30
  -8  -5  -5  105.39   27.50
  -5  13  -5  101.39   49.40
  -5  -8   5  144.89   38.20
  13  -8  -5   89.79   22.90
  13  -5   5   84.29   43.40
  -8  13   5   41.60   33.20
 -13   6  -5  117.69   48.80
   6   7  -5   31.70   23.90
   6 -13   5   36.40   25.70
 -13   7   5   51.69   25.40
   7   6   5   67.49   21.50
   6 -13   5    0.90   30.10
   7   6   5   19.70   42.20
   7 -13  -5   49.20   30.30
   6   7  -5   90.69   47.20
 -13   7   5   42.50   27.40
   7 -13  -5   41.20   47.50
  -6  -7   5   37.10   34.40
  -6  -7   5    3.20   46.90
  -7  -6  -5   87.89   43.90
  -7  13   5   49.30   32.00
  -6  13  -5   54.79   48.00
  13  -7  -5   96.29   23.50
  -7  -6  -5   47.30   27.40
  13  -7  -5   62.09   44.60
  13  -6   5   98.29   42.70
  -6  13  -5   19.80   23.50
  -7  13   5  100.29   35.50
   6 -13  -5  142.09   50.19
 -13   6   5  154.38   32.60
   7 -13   5  148.99   34.60
   6   7   5  129.39   45.20
   7 -13   5  188.98   38.10
   7   6  -5  126.79   47.40
   7 -13   5  136.49   35.70
   6   7   5  214.28   35.10
 -13   7  -5  309.97   77.89
   6 -13  -5  124.19   33.70
 -13   6   5  160.68   41.00
   7   6  -5  148.79   39.60
  -6  13   5  109.39   42.10
  -6  13   5  216.18   53.29
  -7  -6   5  127.69   55.09
  -6  -7  -5  114.79   43.50
  -7  13  -5  177.08   52.79
  13  -7   5  157.78   42.30
  -6  -7  -5  140.99   31.10
  -7  13  -5  162.28   38.10
  -7  -6   5  182.28   40.70
  13  -6  -5  161.78   35.70
  13  -6  -5   79.19   43.30
  -6  13   5   96.69   28.80
 -13   5   5   57.69   29.70
   5   8   5   14.20   43.50
   8 -13   5   46.60   33.10
   8 -13   5   49.20   28.50
   8   5  -5   -2.20   25.00
   5   8   5   34.60   21.20
   8 -13   5   61.09   31.70
   5 -13  -5   14.90   46.00
   5 -13  -5   57.59   31.00
 -13   8  -5  108.59   51.19
   5   8   5  115.69   42.20
 -13   5   5   36.00   25.60
   8   5  -5   29.40   44.70
  -5  -8  -5   -2.90   29.60
  13  -5  -5   40.60   42.90
  13  -5  -5   35.30   19.40
  13  -8   5  115.09   40.10
  -8  13  -5   63.49   46.70
  -8  -5   5   67.89   36.10
  -8  13  -5   45.90   24.60
  -5  13   5   32.50   39.30
  -5  -8  -5   12.90   37.70
  -5  13   5   52.09   22.80
  -5  13   5  109.39   39.40
   4 -13  -5  248.08   47.00
   4 -13  -5  260.87   55.09
 -13   9  -5  295.37   78.09
   9   4  -5  257.77   57.49
 -13   4   5  210.78   44.40
   9 -13   5  137.59   39.30
   9   4  -5  250.27   38.60
   9 -13   5  223.78   42.00
   9 -13   5  120.29   39.50
   4   9   5  202.88   49.40
   4   9   5  207.48   46.10
   4   9   5  152.58   37.50
  -9  13  -5  149.49   27.70
  -9  -4   5  241.98   47.40
  -4  13   5  260.17   57.79
  -9  13  -5  206.48   50.79
  13  -9   5  166.28   40.70
  -4  13   5  281.27   58.09
  -4  13   5  168.08   37.20
  13  -4  -5  141.49   35.00
  13  -4  -5  158.58   46.90
  -4  -9  -5  191.18   44.00
  -4  -9  -5   52.09   51.59
  10 -13   5  244.68   43.70
 -13   3   5  206.48   42.50
 -13  10  -5  367.16   80.29
  10   3  -5  173.48   49.40
   3 -13  -5  211.78   47.80
   3 -13  -5  193.78   55.29
   3  10   5  243.08   54.69
  10   3  -5  200.38   46.70
   3  10   5  232.98   38.30
   3  10   5  198.98   48.00
  -3  13   5  212.58   42.00
 -10  -3   5  209.88   49.20
  -3  13   5  152.18   44.50
  13  -3  -5  140.79   52.19
 -10  13  -5  263.87   37.60
  13  -3  -5  227.88   37.10
 -10  13  -5  334.27   80.69
  13 -10   5  213.48   49.20
  -3  13   5  296.37   60.49
  -3 -10  -5  220.08   45.90
   2  11   5  175.08   37.40
  11 -13   5  133.89   35.00
 -13  11  -5  191.58   24.70
   2 -13  -5  142.79   54.69
   2  11   5   97.49   46.60
 -13   2   5  156.68   47.20
   2  11   5  128.29   44.30
  11   2  -5   91.69   63.39
   2 -13  -5  190.08   45.40
 -13  11  -5  128.79   60.09
  13 -11   5  148.39   36.90
  13  -2  -5  112.09   37.30
  -2  13   5  226.18   57.39
 -11  13  -5  191.18   35.20
  13  -2  -5   73.49   55.39
  -2  13   5  108.19   30.40
  -2 -11  -5   20.30   50.29
 -11  13  -5  141.99   55.89
  -2 -11  -5  127.09   34.20
   1  12   5  201.48   46.30
   1  12   5  332.57   41.70
  12 -13   5  181.28   58.49
  12   1  -5  212.98   50.09
   1 -13  -5  131.49   58.09
   1  12   5  266.77   67.59
  12 -13   5  184.98   41.40
   1 -13  -5  266.57   50.29
  12 -13   5  287.97   46.60
 -13  12  -5  293.87   32.40
 -13   1   5  229.48   53.59
  -1 -12  -5  280.97   48.70
  -1  13   5  398.76   70.39
 -12  13  -5  339.47   81.59
  13 -12   5  347.77   49.99
 -12  -1   5  306.37   49.90
  13 -12   5  424.56   83.09
  -1  13   5  284.57   61.79
  13  -1  -5  266.77   63.79
 -12  13  -5  256.57   34.80
 -13  13  -5   10.10   61.39
   0  13   5  -18.20   48.50
 -13   0   5   -1.30   31.20
  13   0  -5   -5.30   42.40
  13 -13   5   17.90   34.30
 -13  13  -5   15.20   22.70
   0 -13  -5   -8.60   30.30
   0  13   5    8.60   40.20
   0 -13  -5  -77.19   48.50
 -14   0  -5  475.85   79.99
  14 -14  -5  464.95   72.29
  14   0   5  278.77   64.99
  14 -14  -5  323.37   47.90
   0 -14   5  281.57   53.79
   0  14  -5  348.47   77.69
   0  14  -5  419.66   46.00
   1 -14   5   -3.60   40.90
 -14   1  -5  102.29   48.00
   1  13  -5   30.90   50.49
  13 -14  -5   57.09   47.70
  13   1   5   17.70   46.20
  13 -14  -5   34.40   31.40
   1  13  -5   81.99   31.00
  14 -13  -5   37.00   29.10
 -13  14   5  -15.20   27.90
  -1  14  -5    1.90   48.40
  14  -1   5   16.20   44.00
  14 -13  -5   38.30   45.80
  -1 -13   5  -37.10   33.70
  12 -14  -5  408.86   74.99
 -14   2  -5  634.74   85.29
   2 -14   5  345.57   56.69
  12   2   5  409.66   68.69
  12 -14  -5  483.15   52.69
   2  12  -5  427.76   78.69
  14 -12  -5  515.85   73.29
  -2  14  -5  405.46   52.29
  -2  14  -5  459.05   77.09
  14 -12  -5  523.65   48.00
 -12  14   5  398.16   44.60
  14  -2   5  472.75   67.79
  11   3   5  416.46   40.50
  11 -14  -5  385.36   49.30
 -14   3  -5  453.55   90.79
   3  11  -5  334.97   75.59
   3 -14   5  329.37   59.49
  11 -14  -5  476.75   74.29
   3 -14   5  390.26   53.39
   3 -14   5  382.56   37.80
  -3  14  -5  352.76   74.79
 -11  -3  -5  471.65   69.29
 -11  14   5  274.57   45.60
  14 -11  -5  387.36   43.20
  -3  14  -5  327.77   50.39
  14 -11  -5  457.95   74.39
  -3 -11   5  320.87   53.99
  10 -14  -5  195.68   43.90
  10   4   5  194.08   53.79
  10   4   5  203.38   54.99
  10   4   5  246.08   37.60
   4  10  -5  116.69   49.60
   4 -14   5  218.28   50.29
   4 -14   5  124.39   34.80
  10 -14  -5  233.78   56.59
 -14   4  -5  152.98   58.39
   4 -14   5  182.38   30.70
 -10  -4  -5  195.68   49.10
  14 -10  -5   86.59   46.50
  14  -4   5  180.98   45.90
  -4  14  -5  108.69   51.59
  -4 -10   5   92.79   42.20
  -4  14  -5  167.18   45.50
   5 -14   5   88.59   28.60
   5 -14   5   53.29   33.70
   9 -14  -5  129.49   37.40
   9 -14  -5   95.19   50.09
   9   5   5   88.39   46.20
   5 -14   5   49.20   33.10
   9   5   5   99.69   23.20
 -14   5  -5  186.18   90.59
   5   9  -5  122.79   48.80
  -9  -5  -5  122.29   29.60
  -5  14  -5  105.59   50.19
  -9  -5  -5   54.99   46.20
  14  -9  -5   92.69   46.90
  14  -5   5   86.69   41.70
  -5  -9   5  106.19   57.39
  -9  14   5  200.88   45.50
   6 -14   5  130.49   36.30
   8 -14  -5  181.78   50.29
   6 -14   5  120.29   37.00
 -14   6  -5  185.38   70.19
 -14   8   5  161.58   35.90
   8   6   5  216.98   35.30
   8 -14  -5  285.47   68.69
   6   8  -5  142.39   51.79
   8   6   5  175.48   50.49
   6 -14   5  207.18   36.40
  -6  14  -5  186.08   53.79
  -6  14  -5  140.79   31.00
  -8  -6  -5  199.78   42.40
  14  -8  -5  252.97   42.70
  -6  -8   5  139.29   56.29
  -8  -6  -5  147.89   47.20
  14  -8  -5  200.28   50.69
  14  -6   5  198.78   46.70
   7 -14   5   19.50   33.00
 -14   7   5   56.49   31.30
 -14   7  -5   70.69   65.59
   7   7   5   27.90   43.90
   7 -14  -5   83.39   46.90
   7 -14   5   41.80   27.50
   7   7   5   78.09   22.00
   7   7  -5   70.19   48.30
  -7  -7  -5   39.50   31.30
  14  -7  -5   70.99   23.50
  -7  -7  -5  102.89   44.80
  -7  14  -5   51.99   50.69
  -7  14  -5   35.90   25.60
  -7  -7   5   45.10   49.20
  14  -7  -5   36.30   41.10
  14  -7   5   49.10   43.20
  -7  14   5   91.49   36.10
 -14   6   5  243.38   42.30
   6   8   5  250.27   38.40
   8 -14   5  297.27   62.89
   6   8   5  266.87   64.49
   8 -14   5  332.67   41.40
   6 -14  -5  322.67   70.79
   8   6  -5  328.97   72.49
   8 -14   5  234.58   50.79
  -6  -8  -5  275.77   46.50
  14  -6  -5  254.67   40.10
  14  -8   5  328.57   57.09
  -8  -6   5  298.97   63.79
  -8  14  -5  353.16   78.29
  -8  14  -5  281.47   41.10
  -6  14   5  378.86   56.89
  14  -6  -5  300.77   68.39
  -6  -8  -5  286.27   70.49
   9 -14   5  501.55   65.69
   5   9   5  382.86   42.50
   5   9   5  341.57   64.49
   5 -14  -5  315.47   73.49
   9 -14   5  415.76   52.99
   9   5  -5  330.77   71.19
 -14   5   5  388.46   67.29
   9 -14   5  390.66   45.90
 -14   9  -5  482.45   82.29
  -9  14  -5  394.76   75.89
  -5  -9  -5  297.57   66.09
  -9  -5   5  318.07   56.39
  -5  -9  -5  399.66   48.30
  -9  14  -5  360.16   44.30
  14  -5  -5  483.45   56.69
  14  -9   5  366.56   55.19
  -5  14   5  336.17   59.49
  10 -14   5  121.09   36.90
  10 -14   5   28.30   31.40
   4  10   5   42.40   22.70
  10 -14   5   97.49   40.40
   4  10   5    7.80   43.70
  10   4  -5   12.40   59.39
 -14  10  -5   76.79   52.29
   4 -14  -5    8.50   48.40
  14  -4  -5   24.40   43.20
 -10  -4   5   20.00   32.70
  -4  14   5   43.90   42.20
  -4 -10  -5   44.30   31.50
 -10  14  -5   95.19   56.59
  14 -10   5    1.60   33.90
 -10  14  -5  -20.90   23.30
  -4 -10  -5  -19.70   49.50
   3 -14  -5  470.75   74.69
  11 -14   5  474.25   51.09
  11   3  -5  562.44   73.89
 -14  11  -5  631.94   88.89
   3  11   5  484.85   69.69
 -14   3   5  440.26   49.90
   3  11   5  453.55   42.90
  14 -11   5  422.06   54.69
  -3  14   5  533.05   68.29
  -3 -11  -5  453.05   51.59
 -11  14  -5  396.36   42.90
 -11  14  -5  585.34   86.99
  -3 -11  -5  316.17   63.19
  14  -3  -5  425.96   68.89
 -11  -3   5  394.96   53.89
 -14   2   5  133.29   33.60
   2  12   5  167.68   49.60
   2 -14  -5  273.87   72.19
  12 -14   5  250.77   45.40
   2 -14  -5  244.88   59.09
  12   2  -5  264.17   66.49
   2  12   5  229.58   40.10
 -14  12  -5  347.97   83.59
 -12  14  -5  282.17   97.09
 -12  14  -5  238.58   36.60
  14 -12   5  237.68   48.70
  -2 -12  -5  207.58   48.00
  14  -2  -5  145.79   45.20
  -2  14   5  292.87   66.89
 -12  -2   5  195.28   46.10
  -2 -12  -5  132.39   56.99
 -14   1   5  251.77   47.60
 -14  13  -5  311.57   83.99
  13 -14   5  263.67   48.70
   1  13   5  279.17   73.29
  13   1  -5  225.48   55.29
   1 -14  -5  249.08   48.90
  -1 -13  -5  239.88   59.89
  14 -13   5  325.57   73.99
  -1 -13  -5  234.68   49.80
 -13  14  -5  247.68   63.19
  14  -1  -5  217.78   51.09
  -1  14   5  198.18   51.59
 -13  -1   5  256.47   51.69
 -14  14  -5  326.57   89.39
 -14   0   5  374.56   50.29
   0  14   5  220.28   56.19
   0 -14  -5  290.27   49.40
  14 -14   5  294.77   51.69
  14   0  -5  172.78   48.10
 -15   0  -5   47.60   50.99
   0  15  -5   93.59   33.40
 -15  15   5  -58.39   30.80
  15   0   5  -13.50   48.00
   0  15  -5    6.30   51.99
  15 -15  -5   14.50   28.80
   0 -15   5    4.60   37.10
  15 -15  -5   23.00   46.20
 -15  14   5  253.57   45.90
  14 -15  -5  231.78   46.30
   1  14  -5  230.68   60.99
 -15   1  -5  426.96   80.79
  14   1   5  217.38   55.89
   1 -15   5  213.58   44.10
  14 -15  -5  263.37   62.19
   1  14  -5  192.98   46.70
  15 -14  -5  282.67   62.19
  -1 -14   5  216.98   44.40
  -1  15  -5  303.17   47.70
  15  -1   5  256.77   66.69
  -1  15  -5  174.88   60.29
  15 -14  -5  286.07   47.20
  13   2   5  268.37   66.29
  13 -15  -5  286.87   49.60
   2 -15   5  230.08   55.19
   2  13  -5  275.77   60.09
  13 -15  -5  298.97   70.69
  15  -2   5  196.88   49.99
  15 -13  -5  302.57   44.40
 -13  -2  -5  236.88   64.59
  -2  15  -5  267.47   59.59
 -13  15   5  260.27   39.50
  -2 -13   5  179.08   40.40
  15 -13  -5  305.47   71.39
  12 -15  -5   67.09   31.40
   3 -15   5   63.59   38.80
  12   3   5   14.90   48.10
  12 -15  -5   76.79   49.40
   3  12  -5   49.80   49.50
 -15   3  -5   84.89   51.19
  -3 -12   5   12.60   38.70
  15 -12  -5   76.99   47.80
  -3  15  -5   47.20   49.80
  -3  15  -5   59.69   28.70
 -12  15   5    3.50   28.10
  15  -3   5   48.80   49.30
 -12  -3  -5   46.30   47.30
  15 -12  -5   61.09   27.00
  11   4   5   76.99   50.09
   4 -15   5   29.30   39.20
   4  11  -5  132.49   51.79
   4 -15   5   31.80   36.10
 -15   4  -5  160.98   54.09
  11 -15  -5  102.09   54.79
  11   4   5   80.59   24.70
   4 -15   5  101.69   29.20
  11 -15  -5   88.09   32.10
  15 -11  -5  130.29   49.90
  -4  15  -5   78.39   27.60
  -4  15  -5   51.29   51.29
 -11  15   5   96.79   35.30
  15  -4   5   54.19   44.10
  -4 -11   5   51.09   37.40
  15 -11  -5   92.89   29.00
 -11  -4  -5  136.09   47.20
   5  10  -5  305.67   76.29
  10   5   5  374.86   40.40
  10   5   5  268.77   63.39
   5 -15   5  176.38   49.40
   5 -15   5  221.88   52.69
 -15   5  -5  446.66   84.29
   5 -15   5  311.37   40.00
  10 -15  -5  310.47   47.20
  15  -5   5  319.27   63.69
  -5  15  -5  285.07   47.20
  -5 -10   5  279.57   54.49
  -5  15  -5  303.77   76.79
  15 -10  -5  331.87   68.89
 -10  -5  -5  272.97   70.69
   6 -15   5  129.39   42.40
 -15   9   5  181.78   43.10
   9   6   5   76.69   51.39
 -15   6  -5  136.99   52.39
   6 -15   5  144.49   31.60
   6   9  -5  140.49   53.09
   9 -15  -5  157.78   54.39
   9 -15  -5  132.79   35.00
   6 -15   5  124.09   41.50
   9   6   5  217.18   36.90
  -6  15  -5   83.99   29.90
  15  -6   5  127.49   45.30
  -9  -6  -5   50.99   47.20
  -6  -9   5  179.38   41.70
  15  -9  -5  126.29   65.49
  -9  -6  -5  182.48   34.30
  -6  15  -5  110.99   56.49
  -9  15   5  221.08   48.50
   7 -15   5  361.06   64.49
   7 -15   5  280.67   40.30
 -15   7  -5  456.85   83.19
   7 -15   5  247.98   53.49
 -15   8   5  277.77   45.00
   8   7   5  361.36   77.29
   8 -15  -5  321.07   73.29
   8   7   5  241.88   38.20
   7   8  -5  308.87   75.89
   8 -15  -5  287.17   50.99
  15  -7   5  320.07   82.39
  -8  -7  -5  249.28   48.00
  15  -8  -5  294.47   75.89
  -8  -7  -5  330.97   71.89
  -8  15   5  359.16   53.79
  -7  15  -5  332.77   76.99
  -7  -8   5  240.88   55.29
   8 -15   5  370.26   54.39
   8   7  -5  294.87   63.59
   8 -15   5  260.37   40.60
 -15   7   5  277.67   46.70
   7 -15  -5  322.47   69.89
   7   8   5  218.18   39.70
 -15   8  -5  342.97   82.29
   7 -15  -5  273.17   51.89
  -8  15  -5  222.18   57.89
  -7  -8  -5  238.78   49.20
  -8  15  -5  170.28   46.30
  15  -7  -5  184.58   49.99
  -7  -8  -5  310.37   70.69
  -8  -7   5  249.38   56.19
   9 -15   5   73.89   38.20
   9 -15   5   90.19   31.20
 -15   9  -5   78.49   50.39
   9 -15   5   91.49   41.70
   6 -15  -5   84.49   35.30
   6 -15  -5   86.79   49.60
 -15   6   5   43.10   29.70
   6   9   5   51.39   22.90
  -9  -6   5   27.20   36.00
  -9  15  -5   44.90   25.90
  -6  15   5  132.49   42.30
  -6  -9  -5   83.79   33.00
  -6  -9  -5   27.00   44.20
  15  -6  -5   49.10   46.70
  -9  15  -5   59.99   51.59
  10   5  -5  718.33   80.19
   5 -15  -5  722.63   79.79
 -15  10  -5  840.22   91.29
   5 -15  -5  693.23   57.99
  10 -15   5  727.83   54.19
   5  10   5  657.03   48.50
  10 -15   5  850.21   66.79
  10 -15   5  757.12   80.09
 -15   5   5  601.44   52.09
  -5 -10  -5  702.43   56.29
 -10  15  -5  734.13   81.99
 -10  -5   5  627.14   59.99
  15  -5  -5  645.74   74.39
  -5 -10  -5  602.64   80.89
 -10  15  -5  652.03   51.49
  15 -10   5  629.44   90.29
  -5  15   5  740.03   70.39
  11 -15   5  506.05   51.39
   4 -15  -5  534.75   56.09
 -15  11  -5  606.14   89.59
  11   4  -5  560.74   73.89
 -15   4   5  519.15   50.89
   4  11   5  398.06   77.79
   4  11   5  566.64   45.90
  15 -11   5  428.76   63.59
 -11  -4   5  512.35   56.49
 -11  15  -5  502.75   87.29
  15  -4  -5  505.75   70.69
 -11  15  -5  479.65   48.10
  -4 -11  -5  535.05   53.69
  -4  15   5  623.04   69.19
  -4 -11  -5  550.74   80.39
   3  12   5   72.09   24.40
 -15   3   5   63.19   33.10
  12 -15   5   87.39   35.00
 -15  12  -5  135.59   56.39
  12   3  -5   85.19   43.90
   3  12   5   48.90   48.30
   3 -15  -5   40.70   33.00
 -12  15  -5   38.60   24.60
  -3  15   5   64.19   47.70
 -12  -3   5   36.00   35.40
  -3 -12  -5   62.19   34.40
 -12  15  -5   86.09   90.79
  15  -3  -5   61.19   45.90
  15 -12   5   68.59   37.00
  13 -15   5  542.55   66.79
   2 -15  -5  427.76   52.19
 -15  13  -5  557.04   87.79
 -15   2   5  382.36   52.09
   2  13   5  436.16   70.49
  13   2  -5  401.06   69.59
 -13  -2   5  375.76   52.59
 -13  15  -5  457.25   87.49
  15  -2  -5  394.76   69.99
  15 -13   5  494.35   55.99
  14 -15   5   55.59   35.60
   1  14   5   84.89   49.30
  14   1  -5   84.69   45.50
   1 -15  -5   85.89   37.00
 -15   1   5   78.19   37.70
 -15  14  -5   93.89   56.09
  15 -14   5   81.79   37.30
  -1 -14  -5   79.59   36.80
 -14  15  -5   89.19   58.09
  -1  15   5   68.79   50.59
  15  -1  -5   42.90   45.40
 -14  -1   5   42.00   32.30
   0 -15  -5  100.99   38.20
   0  15   5  126.29   54.29
 -15   0   5  137.69   37.90
  15   0  -5   95.89   47.80
  15 -15   5  127.29   37.80
 -15  15  -5  142.99   63.89
   1  15  -5   59.59   35.00
 -16   1  -5  140.59   53.29
  15   1   5   21.80   47.70
  15 -16  -5   73.39   33.30
   1 -16   5  -12.20   37.50
  15 -16  -5   91.29   51.19
   1  15  -5   60.89   51.59
  -1  16  -5  117.69   34.50
  -1  16  -5   29.90   54.29
  16  -1   5   11.90   46.80
 -15  16   5    3.50   33.00
  16 -15  -5   48.60   30.30
  16 -15  -5   74.59   49.60
 -15  -1  -5   66.39   50.99
  -1 -15   5   37.10   38.90
   2 -16   5  -21.70   39.80
  14 -16  -5   82.39   49.20
 -16   2  -5  108.29   53.79
  14   2   5   -1.20   49.00
  14 -16  -5    6.50   30.70
   2  14  -5  -30.10   47.50
  -2  16  -5   74.19   32.70
 -14  -2  -5    6.00   46.70
  -2  16  -5  -65.49   54.99
  16  -2   5   27.20   46.70
  16 -14  -5   22.20   47.30
  -2 -14   5  -25.80   35.80
  16 -14  -5   -6.30   29.70
  13   3   5  122.59   52.29
   3  13  -5  172.68   56.09
  13 -16  -5  212.28   60.69
  13 -16  -5  127.89   34.00
   3 -16   5   83.29   41.20
 -13  16   5  128.39   36.50
  16  -3   5  131.49   48.70
  -3  16  -5  181.98   57.59
  -3 -13   5   96.89   41.80
  16 -13  -5   98.99   28.80
 -16   4  -5  324.57   85.89
  12 -16  -5  161.58   52.09
   4  12  -5   94.99   54.59
   4 -16   5   94.09   32.40
  12 -16  -5  104.19   32.10
  12   4   5  129.59   51.49
   4 -16   5   64.79   56.99
  16  -4   5  146.69   49.40
  -4  16  -5  127.19   54.49
 -12  -4  -5  185.28   53.39
  -4 -12   5   54.89   37.50
  16 -12  -5  118.99   70.39
  16 -12  -5  190.28   41.50
 -12  16   5  157.68   36.00
 -16   5  -5  125.59   54.99
   5 -16   5   83.59   30.60
   5  11  -5   96.59   53.79
  11   5   5   64.29   47.70
  11 -16  -5  107.39   50.59
  11 -16  -5   90.49   32.00
   5 -16   5   91.99   39.60
  -5 -11   5   94.79   40.30
  16 -11  -5   94.69   47.40
  -5  16  -5   66.49   55.59
  16  -5   5  113.69   44.00
  -5  16  -5   94.79   28.30
 -11  -5  -5   65.39   48.70
   6 -16   5   61.59   29.40
   6 -16   5   82.99   40.70
 -16   6  -5  164.98   59.09
  10   6   5  155.48   37.20
  10 -16  -5   58.69   31.00
   6 -16   5   38.60   37.60
  10   6   5   59.99   45.00
  10 -16  -5   46.00   51.69
   6  10  -5  100.09   58.19
  16  -6   5   75.09   43.50
  16 -10  -5   81.19   45.10
 -10  -6  -5   25.50   53.99
  -6 -10   5   79.19   41.70
  -6  16  -5   95.79   52.59
  -6  16  -5   72.29   27.10
 -16   7  -5  169.08   56.79
   9   7   5  110.99   46.20
   7 -16   5  225.88   54.59
   7 -16   5  136.29   34.10
 -16   9   5  126.49   33.10
   7 -16   5  280.97   68.19
   9   7   5  144.69   39.20
   9 -16  -5  126.69   34.90
  -7  -9   5  130.09   40.70
  -9  -7  -5  135.79   54.39
  -7  16  -5  162.28   54.99
  16  -9  -5   86.49   45.90
  -9  16   5  257.67   51.59
  -7  16  -5   98.69   29.20
  16  -7   5  177.08   48.70
   8 -16   5  119.59   41.90
   8   8   5  106.29   48.10
   8 -16  -5  271.97   70.89
 -16   8   5  128.69   33.00
   8   8   5   70.99   25.40
   8 -16   5  110.99   43.50
 -16   8  -5  155.08   55.69
   8   8   5  295.17   76.99
   8   8  -5  118.69   56.49
   8 -16  -5  129.09   36.80
   8 -16   5  163.78   40.60
  -8  16  -5  139.19   56.69
  -8  16   5  115.69   39.20
  16  -8  -5  149.39   48.70
  -8  16  -5   63.59   30.00
  -8  -8   5   97.19   39.10
  16  -8   5  126.09   44.30
  -8  -8  -5  144.19   56.19
  -8  -8  -5  197.78   47.70
   7   9   5  650.93   85.19
   7 -16  -5  634.64   58.19
   7   9   5  690.33   48.00
   9 -16   5  637.14   65.79
   7   9   5  606.44   74.19
   7 -16  -5  695.63  127.49
 -16   7   5  664.13   51.79
   9   7  -5  674.43   80.49
 -16   9  -5  686.43   88.39
   9 -16   5  669.73   51.09
   9 -16   5  604.44   78.89
  -7  16   5  684.13   63.69
  -9  16  -5  642.84   87.29
  -9  16  -5  484.05   54.39
  -9  -7   5  629.24   60.79
  -7  -9  -5  666.03   56.89
  16  -9   5  680.03   65.19
  16  -7  -5  594.54   72.49
  -7  -9  -5  547.05   85.39
 -16   6   5  489.55   49.99
  10 -16   5  535.05   47.90
   6  10   5  549.74   46.40
   6 -16  -5  513.95   56.99
   6  10   5  624.14   83.29
 -16  10  -5  558.44   85.79
  10   6  -5  424.96   73.29
   6  10   5  489.75   71.99
  -6  16   5  548.35   64.29
  -6 -10  -5  572.74   54.49
 -10  -6   5  546.25   60.19
  -6 -10  -5  565.24   76.89
 -10  16  -5  433.96   52.69
  16  -6  -5  469.35   70.49
 -10  16  -5  472.95   83.19
  16 -10   5  511.95   61.29
 -16  11  -5   97.79   54.59
   5  11   5    0.90   42.10
   5 -16  -5   49.90   34.10
  11   5  -5   -2.00   43.40
  11 -16   5   57.09   33.30
 -16   5   5   74.59   32.90
  16  -5  -5   24.70   42.00
  -5  16   5   61.79   46.20
  -5 -11  -5  -50.49   53.59
  16 -11   5   68.29   38.80
 -11  -5   5   46.20   37.70
 -11  16  -5   17.60   25.70
  -5 -11  -5   42.90   33.00
   4 -16  -5  721.53   61.59
   4  12   5  753.42   72.49
  12 -16   5  781.02   94.39
 -16   4   5  733.53   58.29
  12   4  -5  728.03   80.79
  12 -16   5  469.05   90.99
   4  12   5  628.74   76.59
  16 -12   5  743.03   62.49
 -12  -4   5  684.33   64.29
 -12  16  -5  784.82   96.19
  -4  16   5  662.93  105.99
  16  -4  -5  733.63   75.59
 -12  16  -5  658.83   59.59
  -4 -12  -5  719.33   60.59
   3  13   5  285.97   70.19
   3 -16  -5  293.57   50.69
 -16  13  -5  337.77   86.19
  13   3  -5  281.47   66.99
 -16   3   5  328.47   50.69
  13 -16   5  292.17   47.90
  13 -16   5  406.06   59.39
  16 -13   5  308.57   51.79
 -13  -3   5  243.78   54.09
  -3  16   5  371.16   65.49
 -13  16  -5  364.46   87.69
  -3 -13  -5  216.98   47.50
  16  -3  -5  287.17   64.39
 -16   2   5   83.29   36.50
  14 -16   5   66.29   36.30
   2 -16  -5   67.89   36.00
   2  14   5   60.79   52.49
 -16  14  -5   78.99   56.99
  14   2  -5   56.39   47.30
 -14  -2   5   54.49   35.30
  16 -14   5   92.39   36.80
  16  -2  -5   59.89   44.30
  -2  16   5   88.29   52.59
 -14  16  -5   74.69   58.09
  -2 -14  -5   73.29   36.80
   1 -16  -5   81.59   37.80
 -16  15  -5   92.89   56.09
  15   1  -5   95.99   46.60
  15 -16   5  113.99   38.10
 -16   1   5  136.99   37.50
   1  15   5   79.29   51.09
  16 -15   5  114.39   39.70
 -15  16  -5  150.28   63.49
 -15  -1   5   81.69   35.70
  -1 -15  -5   92.39   38.80
  -1  16   5  125.29   52.39
  16  -1  -5   52.29   43.30
   3  14  -5   10.70  102.09
 -17   3  -5  128.19   51.99
  14 -17  -5   57.09   34.40
  14 -17  -5  105.89   50.59
  14   3   5   26.90   46.20
   3 -17   5   43.40   39.30
 -14  -3  -5   21.30   49.40
  -3 -14   5   -4.20   36.30
  -3  17  -5   38.90   55.19
  17  -3   5   61.49   48.20
  17 -14  -5   83.59   51.39
  17 -14  -5   56.29   27.90
  13 -17  -5   27.10   32.80
 -17   4  -5  100.49   51.59
  13   4   5    0.50   42.80
  13 -17  -5   61.19   48.60
   4 -17   5    8.60   37.00
  17 -13  -5   39.20   46.20
  -4 -13   5  -44.60   35.00
  17 -13  -5   37.50   30.10
  17  -4   5   19.40   42.90
  -4  17  -5   43.80   54.39
 -13  17   5   15.90   33.10
 -17   5  -5   48.70   52.29
   5 -17   5   24.80   28.90
  12 -17  -5   79.19   49.99
  12 -17  -5   28.80   31.90
   5 -17   5    7.20   37.70
  12   5   5   -4.90   44.60
  -5 -12   5  -60.39   37.90
 -12  -5  -5   -4.80   48.00
  17 -12  -5   -1.40   45.00
 -12  17   5   66.59   33.20
  17  -5   5   -3.40   42.50
  -5  17  -5   -4.70   53.99
  11 -17  -5  121.69   55.49
   6  11  -5   93.39   63.09
 -17   6  -5  149.79   57.19
  11 -17  -5   87.49   32.60
   6 -17   5  146.39   49.60
  11   6   5   50.59   45.30
   6 -17   5  101.79   34.20
 -11  -6  -5   36.10   49.80
  -6  17  -5  113.39   35.80
  17 -11  -5  104.49   49.60
 -11  17   5  127.19   38.40
  -6  17  -5  153.08   59.39
  -6 -11   5   90.49   45.80
  17  -6   5  182.38   47.50
  10   7   5   69.79   51.19
 -17  10   5   63.79   33.70
  10 -17  -5   80.09   34.90
  10 -17  -5  147.99   49.80
   7  10  -5   74.69   52.99
   7 -17   5  104.59   31.90
   7 -17   5   73.59   43.40
 -17   7  -5  123.49   55.39
  10   7   5   55.19   25.90
  -7  17  -5   85.39   55.29
 -10  -7  -5   59.79   55.49
  -7 -10   5   99.69   42.00
  -7  17  -5  100.49   30.40
  17  -7   5  140.59   49.00
 -10  17   5  206.88   50.39
  17 -10  -5   82.99   48.50
   8 -17   5  282.57   61.29
   9   8   5  251.77   43.80
   8 -17   5  438.26   77.69
   9 -17  -5  337.67   51.19
 -17   9   5  255.77   47.70
   9   8   5  256.47   56.09
   8   9  -5  333.27   76.69
   8 -17   5  271.57   44.30
 -17   8  -5  473.95   87.59
  17  -8   5  286.67   58.09
  -9  17   5  326.77   56.09
  -8  -9   5  278.87   55.79
  17  -9  -5  320.47   67.59
  -9  -8  -5  343.67   84.09
  -8  17  -5  307.67   47.20
  -8  17  -5  395.96   83.09
  -9  -8  -5  323.77   81.29
   9 -17   5  372.56   58.49
   9   8  -5  287.67   70.49
   8   9   5  304.57   42.00
   8 -17  -5  279.57   51.89
 -17   8   5  276.37   47.10
   9 -17   5  283.47   43.40
   8   9   5  184.58   49.00
 -17   9  -5  236.28   60.19
  17  -9   5  234.98   57.39
  -9  -8   5  247.18   54.89
  -8  17   5  361.06   59.49
  -9  17  -5  262.47   64.19
  -8  -9  -5  297.87   80.59
  -9  17  -5  203.78   46.70
  17  -8  -5  288.47   66.79
  -8  -9  -5  328.67   50.09
 -17   7   5   70.89   32.80
  10 -17   5   51.79   31.10
 -17  10  -5  120.19   55.39
   7  10   5   24.50   46.20
   7 -17  -5   61.39   35.90
  10   7  -5   60.09   46.40
 -10  17  -5   35.10   70.89
  -7 -10  -5   73.59   34.30
  -7  17   5  125.09   42.20
  17  -7  -5   41.30   40.40
  -7 -10  -5   27.10   55.39
  17 -10   5   97.59   40.00
 -10  -7   5   36.70   39.20
  11   6  -5  672.53   79.59
   6  11   5  742.73   50.89
   6  11   5  725.43   88.19
   6 -17  -5  654.23   57.79
 -17  11  -5  758.92   92.39
   6  11   5  657.53   73.19
 -17   6   5  709.43   56.49
  17  -6  -5  672.43   71.79
  -6 -11  -5  583.64   84.89
  17 -11   5  706.33   62.59
 -11  -6   5  666.43   64.49
 -11  17  -5  676.33  101.09
  -6 -11  -5  666.03   59.79
   5  12   5  409.56   67.39
 -17  12  -5  596.94   89.09
  12   5  -5  459.75   73.99
 -17   5   5  545.35   54.99
   5  12   5  477.75   90.39
  12 -17   5  534.15   50.99
   5 -17  -5  497.25   56.89
  -5 -12  -5  436.36   88.09
  -5 -12  -5  471.25   57.39
  -5  17   5  545.15   69.39
  17  -5  -5  496.65   66.59
 -12  -5   5  465.95   61.39
 -12  17  -5  522.35   88.39
  17 -12   5  535.15   58.49
   4 -17  -5   47.80   31.90
  13   4  -5   49.50   43.90
  13 -17   5   54.49   33.80
 -17  13  -5   83.69   56.09
  13 -17   5  -50.99   43.10
 -17   4   5   55.19   35.30
   4  13   5   36.30   47.70
  17  -4  -5   49.70   42.60
  17 -13   5   34.00   36.70
 -13  -4   5   39.20   37.40
  -4 -13  -5   18.10   38.90
 -13  17  -5   96.09   60.99
  -4  17   5  110.49   50.89
 -17   3   5  381.56   51.49
   3  14   5  380.16   69.59
   3 -17  -5  316.97   52.49
  14 -17   5  372.46   50.79
 -17  14  -5  492.45   87.59
  14   3  -5  351.96   71.49
 -14  -3   5  371.36   56.99
  -3  17   5  430.66   67.89
  17 -14   5  393.06   53.99
  17  -3  -5  342.87   64.89
 -14  17  -5  464.05   91.09
  -3 -14  -5  315.37   55.99
  11   7   5   33.40   44.20
   7 -18   5   54.69   31.70
  11 -18  -5   85.69   34.50
 -18   7  -5  132.29   53.69
   7 -18   5   59.39   41.90
 -18  11   5   68.09   37.20
   7  11  -5   81.99   54.59
  -7 -11   5   56.59   39.90
 -11  18   5  151.98   41.70
  -7  18  -5   77.39   57.69
  18  -7   5  105.59   49.00
  18 -11  -5   79.39   44.80
 -11  -7  -5  -26.20   56.59
 -18  10   5  129.19   37.60
  10 -18  -5  105.99   35.10
   8  10  -5   92.99   52.79
 -18   8  -5  144.19   58.39
   8 -18   5   78.89   31.60
  10   8   5   45.10   45.40
   8 -18   5  142.69   42.70
 -10  -8  -5   85.19   57.79
  18 -10  -5   90.39   46.60
  -8  18  -5   64.69   60.89
  -8 -10   5   74.19   40.50
  18  -8   5   80.49   40.70
 -10  18   5  118.19   39.30
  -8  18  -5  103.79   36.30
   9 -18  -5   62.39   33.30
 -18   9  -5  111.79   56.39
 -18   9   5   55.39   32.40
   9   9  -5   49.70   46.70
   9 -18   5   70.69   43.30
   9   9   5   37.10   48.70
  -9  -9  -5  108.89   62.19
  18  -9  -5   43.70   41.90
  -9  18  -5   66.19   28.30
  -9  18   5   40.10   55.09
  18  -9   5   66.19   39.70
  -9  -9  -5  122.99   56.89
  -9  -9   5   38.50   41.40
   8  10   5  356.96   70.99
  10   8  -5  381.46   77.79
 -18  10  -5  526.05   90.69
   8 -18  -5  394.76   53.79
   8  10   5  493.35   45.30
  10 -18   5  440.26   48.00
 -18   8   5  417.86   51.29
  -8 -10  -5  437.76   56.09
  -8 -10  -5  326.67   88.29
 -10  18  -5  342.87   51.79
  18  -8  -5  438.06   67.59
 -10  18  -5  379.86   99.29
  18 -10   5  483.85   59.39
  -8  18   5  421.36   65.19
 -10  -8   5  406.06   59.19
  11 -18   5  423.36   48.80
 -18  11  -5  406.56   84.99
  11 -18   5  250.57   56.19
   7 -18  -5  399.66   54.09
 -18   7   5  423.06   49.99
   7  11   5  333.57   69.49
  11   7  -5  360.16   75.09
 -11  -7   5  405.36   61.69
 -11  18  -5  279.97   60.19
 -11  18  -5  364.96   75.59
  18  -7  -5  344.67   67.89
  18 -11   5  429.56   56.89
  -7 -11  -5  438.96   80.09
  -7  18   5  407.26   64.69
  -7 -11  -5  394.56   57.19
   0   0  -6 1158.88   94.39
   0   0   6 1221.68   62.49
   0   0   6 1257.67   63.59
   0   0   6 1277.77   67.29
   0   0  -6 1338.77   61.29
  -1   1   6   56.99   27.20
   1   0   6   60.99   26.00
   1   0   6   84.99   33.00
  -1   0  -6   75.19   22.30
   0   1  -6   80.69   49.60
   1  -1  -6   57.09   21.00
   1  -1  -6   62.09   51.59
   1   0   6   83.09   29.30
  -1   0  -6   85.29   51.39
   0   1  -6   68.39   22.50
   0  -1   6   41.10   29.00
   0  -1   6   64.99   27.20
  -1   1   6   34.50   23.70
   0  -1  -6 1238.68   58.39
   1   0  -6 1166.08   94.69
   0   1   6 1230.78   67.79
  -1   0   6 1141.59   65.79
   1   0  -6 1135.59   58.89
  -1   1  -6 1170.58   57.99
  -1   0   6 1163.78   61.49
   1  -1   6 1189.48   63.89
   0  -1  -6 1176.78   92.09
   1  -1   6 1174.28   61.59
   0   1   6 1191.68   62.79
   0   1   6 1141.39   60.59
   1  -1   6 1168.68   63.49
  -1   0   6 1213.78   56.69
  -1   1  -6 1196.48   92.19
   0  -2   6 1359.06   70.69
   2  -2  -6 1397.46   62.99
   2   0   6 1395.66   67.49
  -2   0  -6 1320.97   93.49
   0   2  -6 1422.46   64.79
  -2   0  -6 1458.65   63.79
  -2   2   6 1317.47   67.39
   0  -2   6 1402.96   61.09
   2   0   6 1424.46   75.59
   2   0   6 1390.56   64.89
   2  -2  -6 1405.66   99.29
   0   2  -6 1443.06   98.49
   0  -2   6 1387.46   66.89
  -2   2   6 1446.16   66.39
  -2   2   6 1349.96   64.99
   1   1   6  669.83   48.00
   1   1  -6  703.83   47.50
  -2   1   6  698.03   49.20
   1  -2   6  750.62   54.79
   1  -2   6  680.93   51.29
   1   1   6  695.13   51.09
   1  -2  -6  691.23   47.60
  -2   1  -6  577.94   80.69
   1  -2   6  700.73   49.00
  -2   1  -6  748.93   45.50
  -2   1   6  661.63   51.09
   1   1   6  739.53   58.39
   1  -2  -6  558.14   81.39
  -2   1   6  785.82   45.50
   1   1  -6  506.75   78.59
  -1  -1  -6  646.04   79.69
   2  -1   6  724.33   53.89
  -1   2  -6  618.24   78.09
   2  -1  -6  512.75   82.69
   2  -1   6  763.82   50.29
   2  -1   6  741.93   53.19
  -1  -1   6  738.03   54.59
  -1   2   6  676.43   50.59
   2  -1  -6  733.33   46.90
  -1  -1   6  689.73   52.29
  -1   2  -6  774.32   46.40
  -1  -1   6  772.02   43.40
  -1   2   6  802.72   56.69
   0  -2  -6   36.10   51.89
   2  -2   6   43.50   26.80
   0   2   6   42.70   24.10
   2   0  -6   44.60   20.30
   2   0  -6   43.50   51.99
  -2   0   6   20.50   23.90
   0   2   6   67.59   42.60
   2  -2   6   40.10   27.30
  -2   2  -6   81.89   48.50
  -2   2  -6   40.00   21.70
   2  -2   6  107.99   45.60
  -2   0   6   12.70   26.40
  -3   3   6  151.88   39.00
   0  -3   6  193.18   46.90
   0   3  -6  158.08   35.50
   0  -3   6  162.58   32.50
   0   3  -6  161.98   54.09
   3  -3  -6  111.29   51.89
   3  -3  -6  188.18   36.30
   0  -3   6  199.58   31.70
   3   0   6  165.98   40.80
   3   0   6  175.38   38.20
  -3   0  -6   78.89   51.79
   3   0   6  179.78   38.90
   2   1   6  279.37   39.20
  -3   1  -6  287.17   35.70
   2  -3  -6  289.57   75.79
  -3   2   6  263.47   43.30
  -3   1  -6  293.87   74.89
   1  -3   6  268.77   38.50
  -3   2   6  225.68   43.30
  -3   2   6  310.77   35.20
   1  -3   6  258.67   47.20
   1   2  -6  366.46   76.89
   2   1   6  323.97   53.29
   1  -3   6  268.47   43.80
   1   2  -6  290.27   38.10
   2   1   6  268.17   41.80
   3  -2  -6  302.77   75.39
  -2   3   6  262.07   42.50
  -1  -2   6  290.17   30.10
  -2   3   6  332.67   46.00
   3  -1   6  240.18   48.90
   3  -1   6  271.37   40.80
  -1   3  -6  331.27   74.09
  -1  -2   6  261.97   47.80
   3  -1   6  253.87   44.40
  -1  -2   6  262.57   43.80
  -1   3  -6  289.67   37.90
   3  -2  -6  272.67   35.90
  -2  -1  -6  296.87   72.29
   2  -3   6  715.93   54.99
   1   2   6  693.43   50.39
   2  -3   6  772.32   50.69
   1   2   6  788.12   60.99
  -3   1   6  744.43   52.59
  -3   2  -6  743.33   46.50
   2   1  -6  734.53   49.00
   2  -3   6  735.63   52.19
   1   2   6  773.92   63.69
   1  -3  -6  667.43   83.49
  -3   1   6  723.53   55.09
   2   1  -6  676.23   83.39
  -3   2  -6  662.43   81.39
  -2  -1   6  722.03   53.39
   3  -2   6  705.23   57.99
  -2   3  -6  673.63   81.59
   3  -1  -6  655.83   81.39
  -2   3  -6  713.63   47.20
  -1  -2  -6  681.73   80.39
  -1   3   6  777.12   59.29
   3  -2   6  685.23   52.39
   3  -2   6  744.43   50.29
  -1   3   6  704.13   50.19
  -2  -1   6  672.53   54.99
   3  -1  -6  754.22   47.50
   3  -3   6  230.78   45.20
   3  -3   6  278.47   42.10
  -3   3  -6  217.58   34.80
   3   0  -6  122.59   50.99
   0  -3  -6  154.38   55.99
  -3   0   6  235.68   42.70
   0   3   6  232.98   56.19
   0   3   6  198.08   41.70
  -3   0   6  225.58   41.90
  -3   3  -6  179.58   52.09
   3   0  -6  232.88   36.90
   0   3   6  271.07   39.50
   3  -3   6  265.87   44.80
  -4   4   6  242.38   39.30
   0   4  -6  165.28   36.30
   4   0   6  176.18   39.00
   4   0   6  183.48   39.50
   4  -4  -6  207.08   57.59
   4   0   6  258.77   53.49
   0   4  -6  259.17   57.69
  -4   0  -6  241.08   55.29
   0  -4   6  185.18   30.50
  -4   4   6  192.08   39.20
   0  -4   6  174.28   33.50
   4   0   6  211.38   38.30
   0  -4   6  178.58   48.00
  -4   3   6  382.26   46.00
   1  -4   6  317.47   51.79
   1  -4   6  364.46   45.00
   1  -4   6  427.96   37.30
   3  -4  -6  361.56   75.09
   1   3  -6  360.96   74.79
   1   3  -6  325.97   40.40
   3   1   6  362.66   57.89
   3   1   6  332.47   57.69
  -4   3   6  381.76   44.40
  -4   1  -6  335.37   72.49
   3   1   6  349.27   42.20
  -1  -3   6  357.16   49.90
   4  -1   6  348.17   44.20
  -3   4   6  399.16   52.29
   4  -3  -6  413.26   40.00
   4  -3  -6  302.27   74.49
   4  -1   6  384.06   40.60
  -3   4   6  362.06   43.50
  -3  -1  -6  271.17   72.99
  -1   4  -6  383.36   76.39
   4  -1   6  414.46   54.89
  -1  -3   6  366.66   44.90
  -1   4  -6  362.66   40.60
   2  -4   6  117.79   30.00
  -4   2   6   87.89   27.10
   2   2  -6   87.29   23.20
   2   2   6   93.99   38.90
   2   2   6   81.49   24.50
   2  -4  -6   31.10   49.70
  -4   2  -6  125.59   31.40
   2  -4  -6   86.79   26.60
  -4   2   6  108.89   31.40
   2  -4   6   84.89   30.90
   2   2  -6   49.99   50.59
   2  -4   6   62.69   31.90
   2   2   6   67.69   33.50
  -4   2  -6   54.69   45.60
  -2   4  -6   91.49   22.40
   4  -2   6   56.49   25.50
  -2  -2   6  113.69   30.00
   4  -2   6   89.39   29.00
  -2   4   6  116.69   35.70
  -2   4   6  125.89   35.30
  -2  -2   6   88.19   32.20
   4  -2   6   87.49   35.50
   4  -2  -6  126.69   33.80
  -2   4   6   88.49   25.40
   4  -2  -6   40.50   50.09
  -2   4  -6  110.59   52.69
  -2  -2  -6   36.90   46.40
  -4   3  -6  139.29   33.40
   3  -4   6  121.29   32.10
   1   3   6  203.78   53.29
   3   1  -6  204.58   53.29
   1   3   6  224.38   44.20
   3  -4   6  255.27   41.80
   1  -4  -6  201.98   36.90
   3   1  -6  164.28   34.20
  -4   3  -6  267.37   72.19
  -4   1   6  144.69   30.30
   1  -4  -6  165.98   55.19
   3  -4   6  169.68   41.30
   1   3   6  200.38   38.50
  -4   1   6  177.38   42.20
   4  -3   6  180.88   31.90
   4  -1  -6  180.48   53.69
  -1   4   6  206.18   40.20
  -3   4  -6  245.38   55.89
  -1  -3  -6  159.78   53.49
  -3  -1   6  180.08   42.90
  -1  -3  -6  198.18   37.40
  -3  -1   6  173.78   45.40
  -3   4  -6  181.48   34.60
   4  -3   6  159.08   43.20
   4  -3   6  176.68   44.50
   4  -1  -6  201.68   35.60
  -1   4   6  144.49   37.90
   0   4   6  704.33   63.29
  -4   0   6  599.04   49.30
   4   0  -6  589.74   84.09
   4  -4   6  636.04   48.70
   4  -4   6  523.05   52.69
   4   0  -6  612.64   44.90
  -4   0   6  623.04   52.69
  -4   4  -6  626.24   42.80
   0  -4  -6  522.85   79.29
   0   4   6  681.83   61.49
   0  -4  -6  583.44   45.40
  -4   4  -6  588.44   77.29
   4  -4   6  651.83   51.19
   0   4   6  579.54   48.40
   5   0   6   77.09   32.00
  -5   5   6   22.60   22.40
   0  -5   6   22.50   28.40
  -5   0  -6   39.20   46.10
   5  -5  -6  -12.70   48.20
   5   0   6    6.10   38.10
   0  -5   6   18.50   21.30
   0   5  -6   -4.00   20.20
   5   0   6   72.19   25.50
   0  -5   6   21.40   30.90
   5   0   6   22.00   22.10
   0   5  -6   49.20   45.20
  -5   1  -6   24.10   42.80
   1   4  -6    7.90   21.30
   4  -5  -6   79.39   27.80
   4   1   6   74.79   32.20
   4   1   6    6.40   21.50
   1  -5   6   34.20   27.50
   1  -5   6   29.40   29.30
   4   1   6   35.30   38.30
   1   4  -6   22.50   47.10
   1  -5   6   51.69   23.70
  -5   4   6   19.90   23.40
   4  -5  -6   -5.80   46.90
   5  -1   6   47.50   33.50
   5  -4  -6   32.90   50.09
   5  -1   6   50.09   25.50
  -4   5   6   56.59   24.10
   5  -4  -6   50.49   20.60
  -1  -4   6   43.90   30.00
  -1   5  -6   77.69   48.80
  -1   5  -6   36.60   22.00
   5  -1   6   14.20   40.20
  -4  -1  -6   35.20   46.50
  -1  -4   6   56.09   30.40
   5  -1   6   -5.10   24.70
   3  -5  -6  122.99   27.00
   3   2   6  103.39   33.70
   2  -5   6  171.58   34.20
  -5   2  -6  110.99   49.10
   3   2   6  116.59   42.50
  -5   3   6  120.09   27.40
   2   3  -6  126.99   34.20
   3   2   6   95.79   24.30
  -5   3   6  102.69   32.40
   2  -5   6  125.69   32.50
   2   3  -6  127.89   49.70
   3  -5  -6  103.09   52.39
   2  -5   6   98.19   29.90
  -3   5   6  101.29   35.80
  -2   5  -6   87.59   23.50
   5  -2   6  206.08   50.89
  -2  -3   6  131.89   34.40
  -3   5   6   75.89   24.90
   5  -3  -6  123.89   32.00
  -2   5  -6  147.79   51.89
   5  -2   6  118.89   29.30
   5  -3  -6  110.59   52.29
  -3  -2  -6   40.20   47.60
   5  -2   6   97.09   26.50
  -2  -3   6  108.19   32.80
  -5   2   6  244.68   45.70
   2  -5  -6  302.07   61.89
  -5   3  -6  285.07   74.19
  -5   3  -6  295.77   34.40
   3  -5   6  307.17   47.30
   2   3   6  284.77   56.39
   2  -5  -6  244.68   37.90
  -5   2   6  222.08   43.70
   3   2  -6  245.78   38.50
   3  -5   6  273.47   43.40
   2   3   6  290.07   40.80
   2   3   6  344.17   57.09
   3   2  -6  320.07   73.29
   3  -5   6  350.56   40.30
   5  -2  -6  247.48   37.40
  -2   5   6  284.37   55.29
   5  -3   6  329.67   42.00
   5  -3   6  253.17   51.99
  -2  -3  -6  196.98   54.09
  -3   5  -6  263.37   71.89
   5  -2  -6  248.68   56.79
  -2  -3  -6  283.97   37.70
  -3  -2   6  287.17   49.90
  -2   5   6  253.57   41.10
   5  -3   6  223.68   43.80
  -3  -2   6  300.57   45.50
  -3   5  -6  252.97   38.00
   4   1  -6   78.89   50.89
   1   4   6   56.89   33.80
   1   4   6   83.39   24.60
  -5   1   6   91.89   31.40
  -5   4  -6   89.79   51.49
  -5   1   6   94.79   27.50
   4   1  -6   66.29   21.30
   1  -5  -6   77.99   27.00
   4  -5   6   77.69   28.40
   1  -5  -6   23.60   49.60
   4  -5   6  107.59   33.10
   1   4   6  102.59   40.20
   4  -5   6   68.29   27.20
  -5   4  -6   44.40   21.20
  -1  -4  -6   61.19   26.50
  -4   5  -6   85.49   48.60
   5  -4   6   82.59   27.90
  -1   5   6  203.58   54.59
  -4  -1   6   96.69   30.60
  -1  -4  -6   10.10   48.70
  -4   5  -6   71.89   21.80
  -4  -1   6   70.29   30.10
  -1   5   6   80.69   23.70
   5  -4   6   32.60   28.30
   5  -1  -6   39.10   46.80
   5  -4   6  106.09   35.40
   5  -1  -6  121.09   31.60
   5  -5   6  139.69   30.10
   5   0  -6  154.88   35.40
   0   5   6   99.09   35.70
   0  -5  -6  138.79   54.99
   5  -5   6  198.28   41.80
  -5   0   6  135.39   29.60
   0   5   6  152.88   36.40
   5  -5   6  153.48   31.70
   0  -5  -6  191.68   37.40
   0   5   6  231.88   52.89
  -5   5  -6  143.39   33.50
  -5   5  -6  216.08   52.99
  -5   0   6   95.29   28.60
   5   0  -6  194.38   55.79
   6   0   6  422.76   38.80
   6   0   6  313.77   60.89
   0   6  -6  273.47   71.59
   6   0   6  447.76   56.49
   6  -6  -6  315.37   41.00
   0  -6   6  346.17   46.60
   6   0   6  303.97   40.60
  -6   6   6  334.57   40.80
   0   6  -6  325.37   38.70
  -6   0  -6  255.77   66.89
   6  -6  -6  284.07   75.69
   5  -6  -6  110.89   26.60
   1  -6   6  119.29   23.90
  -6   1  -6   74.99   44.80
  -6   5   6  113.79   26.50
   5  -6  -6  119.99   56.09
   1  -6   6   74.79   31.40
   5   1   6  200.08   53.39
   1   5  -6  137.89   33.60
   5   1   6  143.69   42.40
   1   5  -6  127.19   51.79
   5   1   6   93.59   24.70
   1  -6   6  138.09   32.30
  -1   6  -6   91.09   47.40
  -1   6  -6  128.19   34.30
   6  -5  -6   74.09   51.39
   6  -1   6   55.09   26.00
  -5   6   6  123.09   39.50
   6  -1   6   98.19   42.30
  -5   6   6  105.59   35.30
  -5   6   6   86.39   24.80
  -1  -5   6   81.39   29.90
  -1  -5   6   79.29   30.60
  -5  -1  -6   47.30   47.20
   6  -1   6  184.48   37.30
   2  -6   6  158.78   33.80
  -6   2  -6   86.69   48.00
  -6   4   6   75.29   28.30
   2   4  -6  115.99   49.00
   4   2   6   59.99   42.60
  -6   4   6   53.19   25.20
   2   4  -6   50.19   22.50
   4   2   6  137.39   34.60
   4  -6  -6   96.29   52.69
   4   2   6  210.08   53.29
   4  -6  -6  105.09   28.30
   2  -6   6   93.29   32.10
   2  -6   6   89.19   31.90
  -4  -2  -6   72.69   49.40
  -4   6   6  103.69   36.50
  -2  -4   6   85.99   30.00
  -4   6   6  105.79   37.90
  -2   6  -6   60.29   22.20
  -4   6   6   68.59   25.40
   6  -2   6   67.09   25.60
   6  -2   6   88.99   39.50
  -2   6  -6  138.79   51.89
   6  -2   6  130.99   33.40
  -2  -4   6   96.39   30.60
   6  -2   6   84.69   28.40
   6  -4  -6  122.99   32.10
   6  -4  -6  113.49   49.90
   3  -6  -6  151.08   53.99
   3  -6   6  118.29   33.00
   3   3  -6  131.79   35.30
  -6   3   6  119.99   28.20
   3   3   6  143.89   43.90
   3   3  -6  124.59   51.69
  -6   3  -6  141.09   47.10
   3   3   6   97.39   25.80
   3  -6   6  137.79   31.90
   3  -6  -6  167.18   38.90
   3   3   6  211.58   52.59
  -6   3   6  136.49   30.20
   3  -6   6  189.68   37.00
  -3   6   6  148.29   41.30
   6  -3   6  128.89   28.80
  -3  -3  -6  131.29   52.39
   6  -3  -6  151.28   34.60
   6  -3  -6  126.79   50.49
  -3   6  -6  117.79   24.20
  -3  -3   6  117.99   35.80
  -3   6   6  159.68   36.20
  -3  -3   6  164.38   34.70
   6  -3   6  161.38   29.90
  -3   6  -6  165.08   51.39
  -3   6   6  157.38   36.60
  -3  -3  -6  150.18   35.50
   6  -3   6  138.09   39.20
   4  -6   6  -38.40   27.10
   2   4   6   46.90   39.90
  -6   4  -6    6.70   44.60
   4   2  -6   15.30   19.40
  -6   2   6    7.50   27.90
   4  -6   6    9.60   27.30
   2  -6  -6  -34.30   46.70
   2  -6  -6   32.90   25.90
  -6   2   6   -6.40   26.60
  -6   4  -6   38.00   18.60
   4   2  -6   -7.70   48.60
   2   4   6   35.60   22.00
   2   4   6   79.49   33.20
   4  -6   6   28.60   29.10
   6  -4   6   23.00   26.00
  -4   6  -6   30.70   45.50
  -4  -2   6   13.00   27.90
  -4   6  -6   22.20   20.00
  -2   6   6   45.30   32.10
  -2   6   6    6.80   21.80
  -4  -2   6   15.90   27.90
   6  -2  -6    2.50   46.60
  -2  -4  -6   -9.20   46.10
  -2  -4  -6   20.00   24.90
   6  -2  -6   39.80   21.50
  -2   6   6   61.59   40.10
   6  -4   6   36.70   34.00
   1   5   6  210.08   56.69
   5   1  -6   81.59   22.10
   5   1  -6  107.99   50.99
   1   5   6   95.19   25.40
   5  -6   6  141.09   35.20
   5  -6   6  141.19   31.00
  -6   5  -6  204.98   54.69
   1  -6  -6   76.49   51.69
   5  -6   6   89.39   31.00
   1  -6  -6  161.08   38.90
  -6   5  -6  125.39   31.10
  -6   1   6  121.19   29.60
  -6   1   6  108.39   27.40
   1   5   6  228.28   52.79
  -1   6   6  105.49   34.60
   6  -5   6   94.19   28.30
  -5  -1   6  141.89   32.70
  -1  -5  -6  133.49   29.60
   6  -5   6  111.59   36.90
  -5  -1   6  150.98   31.90
   6  -1  -6  105.69   23.60
  -1   6   6  104.59   28.00
  -5   6  -6  152.48   49.90
  -5   6  -6  145.29   32.70
   6  -1  -6  145.79   52.69
  -1   6   6  136.39   42.60
  -1  -5  -6   49.50   48.90
   6  -5   6   64.79   29.50
  -6   6  -6   73.59   22.80
   6  -6   6   17.50   28.10
  -6   0   6   38.10   29.60
   0   6   6   59.19   22.90
   6  -6   6  133.89   35.30
   0   6   6  106.29   44.00
   6   0  -6   66.59   20.60
   0   6   6   49.50   35.00
   6   0  -6   98.39   52.49
   0  -6  -6    8.60   51.09
   0  -6  -6   97.29   29.80
   6  -6   6   36.20   27.50
  -6   0   6   71.19   30.70
  -6   6  -6  114.79   49.70
   0   7  -6    2.20   23.20
   0  -7   6   55.39   32.00
   7   0   6   28.90   22.10
  -7   7   6   78.69   33.90
  -7   7   6   63.19   35.40
   7  -7  -6   35.10   48.90
   0   7  -6   44.00   48.70
  -7   0  -6   50.49   50.69
   7  -7  -6   47.40   27.60
   0  -7   6   34.60   32.50
   7   0   6   41.90   42.40
   6  -7  -6  191.68   37.90
   1  -7   6  142.39   36.70
   6   1   6  231.28   54.89
   6   1   6  144.29   43.10
  -7   1  -6  171.78   53.09
   1  -7   6  119.69   34.20
  -7   6   6  135.69   28.70
   1   6  -6  156.58   51.49
   6   1   6  115.69   25.40
   1   6  -6  163.88   34.90
   1  -7   6  167.48   30.00
   6  -7  -6  121.49   54.49
  -1  -6   6  121.49   34.20
  -6   7   6  112.29   36.70
   7  -1   6  105.79   28.30
  -6   7   6  126.89   30.60
  -1   7  -6  151.18   37.10
  -1   7  -6  179.48   52.49
   7  -6  -6  197.08   56.19
  -6  -1  -6  154.38   46.30
   7  -1   6  143.19   43.50
   7  -1   6  210.28   37.50
  -1  -6   6  123.89   32.20
   2  -7   6  126.19   34.80
   5  -7  -6  131.49   54.79
   5   2   6  129.29   47.30
   2   5  -6  105.89   46.90
   5   2   6  186.58   37.10
   5  -7  -6  182.98   41.50
  -7   5   6  112.39   28.40
  -7   2  -6  115.99   49.50
   2   5  -6  198.28   35.70
   2  -7   6  156.68   33.00
   2  -7   6  180.68   33.50
  -2  -5   6  103.09   32.20
  -5   7   6  182.08   40.00
   7  -5  -6  131.99   53.39
  -5   7   6  250.97   56.99
   7  -2   6  141.09   30.40
   7  -2   6  243.28   57.09
  -2  -5   6  141.59   32.20
  -5  -2  -6   59.49   46.90
  -5  -2  -6  116.39   27.80
  -2   7  -6  147.29   50.69
   7  -2   6  136.89   27.60
  -2   7  -6  192.68   36.10
  -7   4   6   30.50   23.80
   4  -7  -6   28.10   26.80
   3  -7   6   52.39   25.60
  -7   4   6   -0.90   28.40
   3  -7   6  -15.50   30.40
   3   4  -6   24.80   48.80
   4   3   6  108.59   34.50
   4  -7  -6  -12.30   50.49
   4   3   6   48.80   41.00
  -7   3  -6   50.59   45.80
   3  -7   6   19.10   28.50
   4   3   6    5.40   22.30
   3   4  -6   17.70   19.40
   7  -3   6   22.00   26.10
  -4  -3  -6  -24.60   44.50
  -4   7   6   12.80   21.80
   7  -4  -6   -2.60   47.50
  -3   7  -6   34.80   20.30
  -3   7  -6   50.89   50.39
   7  -3   6   33.90   36.70
   7  -3   6   23.60   24.80
  -3  -4   6   34.70   29.00
  -4   7   6   66.79   31.50
   7  -4  -6   57.99   19.80
  -3  -4   6   13.50   26.80
   7  -3   6   57.49   30.00
  -4  -3  -6   20.50   23.90
   4  -7   6  195.58   35.50
   4  -7   6  160.08   36.90
   3  -7  -6  205.38   40.00
  -7   4  -6  195.08   48.70
   3  -7  -6  141.69   52.69
   3   4   6  225.98   48.20
   3   4   6  290.37   57.59
   4   3  -6  154.28   52.79
  -7   3   6  137.49   29.20
   3   4   6  193.78   38.00
   4  -7   6  248.88   40.70
  -7   3   6  266.17   43.10
   7  -4   6  214.18   43.70
  -4  -3   6  188.58   41.80
   7  -4   6  163.88   38.10
  -4  -3   6  165.98   35.00
  -4   7  -6  150.48   36.20
   7  -4   6  106.99   31.90
  -3  -4  -6  200.68   37.00
   7  -3  -6  220.38   35.20
  -3  -4  -6  131.69   52.59
   7  -3  -6  154.18   53.89
  -4   7  -6  268.77   71.19
  -3   7   6  168.48   31.40
  -3   7   6  182.18   42.80
  -7   2   6  120.49   29.60
   2  -7  -6  145.89   30.60
  -7   5  -6  162.68   30.40
   2   5   6  196.28   43.30
   5  -7   6  102.59   32.00
  -7   5  -6  136.69   47.60
   5  -7   6  154.98   33.60
  -7   2   6  162.08   41.40
   5  -7   6   97.29   33.90
   5   2  -6  166.68   34.60
   2   5   6  122.79   26.70
   5   2  -6  181.58   56.29
   2  -7  -6   83.49   53.29
   7  -2  -6  201.48   33.10
  -5   7  -6  150.48   51.99
  -5   7  -6  151.78   33.00
   7  -5   6  116.29   30.80
   7  -5   6  160.58   39.30
   7  -5   6   82.99   28.50
  -2  -5  -6   23.40   47.10
  -2  -5  -6  138.19   29.40
  -5  -2   6  108.99   32.50
  -2   7   6  149.19   39.70
  -2   7   6  275.27   54.39
  -5  -2   6  180.18   44.30
   7  -2  -6   91.19   48.00
   1   6   6  184.68   37.40
  -7   6  -6  157.38   31.80
  -7   6  -6  153.18   49.99
   6   1  -6   84.29   23.50
   1  -7  -6  111.79   30.80
   6   1  -6   92.49   49.70
   6  -7   6   69.99   32.10
  -7   1   6  159.28   33.20
   6  -7   6  195.98   45.40
   1  -7  -6   68.49   55.19
   6  -7   6   68.09   30.80
  -7   1   6   85.99   29.80
   1   6   6  125.29   45.90
  -6  -1   6   87.29   30.20
   7  -6   6   54.79   29.10
   7  -1  -6  131.19   52.89
   7  -1  -6   94.39   24.80
  -6   7  -6  103.49   24.00
  -1   7   6  176.98   44.00
  -6   7  -6  148.09   54.39
  -1   7   6   86.29   36.90
   7  -6   6  192.88   46.20
  -1  -6  -6  125.89   30.80
  -6  -1   6  119.89   30.10
  -1  -6  -6   47.00   52.19
  -7   0   6   98.99   29.60
   0   7   6  139.89   44.80
  -7   7  -6  136.79   52.19
   0  -7  -6  -12.00   51.19
   7   0  -6   75.79   21.70
   7  -7   6  126.29   36.80
   7  -7   6   38.10   31.40
  -7   7  -6  175.98   33.90
   0  -7  -6  117.99   31.80
   7   0  -6   97.09   46.80
   0   7   6  166.08   37.40
   7  -7   6   67.69   31.60
   0   7   6  150.08   35.50
   0  -8   6   -2.80   31.70
  -8   0  -6   -1.10   47.40
   8   0   6   15.00   21.90
   0  -8   6  -31.30   33.70
   0   8  -6   25.90   45.70
   8   0   6  108.99   33.70
   8   0   6    5.80   42.80
   0   8  -6   51.99   21.90
   8  -8  -6  -11.60   48.00
   1   7  -6   60.69   45.80
   1  -8   6   58.39   33.80
   1   7  -6  108.09   25.60
   7  -8  -6  113.49   51.59
   7   1   6  139.39   45.20
   1  -8   6   40.50   33.90
   7   1   6   71.89   24.20
  -8   1  -6  113.59   52.49
   7  -8  -6  140.59   33.20
   8  -1   6  136.19   27.50
   8  -7  -6   88.19   51.19
  -7   8   6  126.99   38.20
  -7  -1  -6   12.70   49.90
   8  -7  -6  116.99   31.40
  -1  -7   6   96.19   33.10
  -1  -7   6   95.69   34.70
   8  -1   6   73.59   26.90
   8  -1   6   87.89   42.40
  -1   8  -6   97.69   23.30
   8  -1   6  184.68   58.09
  -1   8  -6   86.89   51.39
   6  -8  -6   41.20   27.70
  -8   2  -6   85.69   50.99
   2  -8   6   44.20   33.60
   2   6  -6   42.30   23.60
   6   2   6   59.29   23.00
   6   2   6  106.69   35.00
   2   6  -6   59.59   48.00
   6  -8  -6  -29.50   49.30
   6   2   6   61.49   46.10
   2  -8   6    1.70   25.10
   2  -8   6  -18.90   32.00
  -6   8   6   30.70   27.70
  -6   8   6  102.89   37.30
  -6  -2  -6  -29.40   40.60
  -6  -2  -6   30.30   25.10
   8  -2   6   68.79   41.40
  -2  -6   6   20.20   33.80
   8  -2   6   21.20   23.90
  -2   8  -6   40.60   47.60
   8  -2   6   30.20   27.80
   8  -6  -6   58.79   50.59
   8  -2   6   46.80   40.90
  -2  -6   6   56.89   32.50
  -2   8  -6    8.20   24.90
   5  -8  -6  405.96   46.20
   5   3   6  387.16   62.59
  -8   3  -6  510.45   82.79
   3   5  -6  386.06   40.30
  -8   5   6  317.97   43.10
   5   3   6  430.06   61.59
   5   3   6  327.07   41.40
   5  -8  -6  361.76   78.59
   3   5  -6  425.56   76.19
   3  -8   6  355.86   38.60
   3  -8   6  226.98   55.79
   3  -8   6  291.27   49.40
   8  -5  -6  399.36   39.90
  -3   8  -6  477.25   75.39
   8  -3   6  366.16   58.19
   8  -3   6  339.27   44.70
   8  -3   6  330.27   42.20
  -3  -5   6  396.76   46.30
  -3  -5   6  309.67   54.89
  -3   8  -6  333.67   40.80
  -5   8   6  300.67   44.90
   8  -3   6  425.76   59.69
   8  -5  -6  430.76   76.09
  -5   8   6  387.06   60.09
  -5  -3  -6  340.87   39.50
  -8   4   6  251.17   41.00
   4  -8  -6  277.97   41.30
   4   4   6  271.87   61.99
   4  -8   6  145.99   37.20
   4   4  -6  246.38   36.30
   4  -8  -6  163.68   63.39
   4   4   6  248.48   40.80
  -8   4  -6  382.96   76.89
   4   4  -6  245.68   54.99
   4  -8   6  171.38   35.70
  -4  -4   6  243.68   50.69
  -4   8  -6  308.57   72.19
   8  -4   6  357.06   59.89
   8  -4  -6  184.28   52.89
  -4   8   6  245.18   58.09
  -4   8  -6  257.17   37.40
   8  -4   6  322.77   56.29
   8  -4   6  193.98   38.10
  -4  -4   6  262.67   47.60
  -4  -4  -6  254.57   38.20
   8  -4  -6  244.88   35.80
  -4   8   6  219.68   40.50
   3  -8  -6  246.48   44.70
   5  -8   6  185.68   37.00
   5  -8   6  235.48   42.90
  -8   5  -6  333.67   80.19
   3  -8  -6  166.28   56.99
   3   5   6  291.37   53.79
   3   5   6  286.47   60.19
   5   3  -6  181.18   37.90
   3   5   6  238.68   39.20
  -8   3   6  218.78   40.00
   5   3  -6  223.58   55.19
   8  -5   6  254.57   48.90
  -5   8  -6  302.97   73.69
  -5  -3   6  227.58   43.20
  -3  -5  -6  239.78   40.00
  -3  -5  -6  112.09   52.29
  -5  -3   6  240.68   51.59
   8  -3  -6  226.18   54.39
   8  -5   6  187.68   32.90
  -3   8   6  282.27   40.90
  -3   8   6  360.46   61.09
   8  -5   6  172.18   33.50
  -5   8  -6  280.67   37.10
   8  -3  -6  236.58   36.90
   2   6   6  467.85   43.10
   2  -8  -6  339.47   65.79
   6   2  -6  388.76   40.90
   6  -8   6  445.66   47.00
   6  -8   6  310.07   48.40
   6   2  -6  380.36   76.99
   2  -8  -6  419.96   45.80
  -8   6  -6  499.95   83.39
   2   6   6  357.96   64.29
   2   6   6  538.55   64.39
  -8   2   6  452.15   47.90
   8  -2  -6  410.36   74.89
  -2  -6  -6  308.97   60.99
  -2  -6  -6  461.75   46.50
   8  -6   6  489.95   55.39
  -2   8   6  577.04   65.09
   8  -2  -6  470.45   39.70
  -2   8   6  596.64   61.29
  -6   8  -6  419.86   40.50
  -2   8   6  450.65   44.30
  -6  -2   6  444.26   47.40
  -6   8  -6  462.95   75.59
  -8   1   6  123.89   31.10
   1   7   6  121.19   25.60
  -8   7  -6  121.19   53.99
   7  -8   6  111.19   34.10
   7   1  -6   99.29   24.80
   1  -8  -6   99.09   30.70
   1  -8  -6   68.39   54.29
  -8   7  -6  177.48   31.70
   7   1  -6  129.99   63.69
   7  -8   6  194.28   45.50
   1   7   6  145.69   46.20
  -1   8   6  146.89   39.90
   8  -7   6   52.09   34.30
   8  -1  -6  118.29   55.39
   8  -7   6  169.38   38.90
  -1   8   6  225.98   55.49
  -7  -1   6  177.48   36.90
   8  -7   6   83.49   34.00
  -1   8   6  163.78   45.30
   8  -1  -6  178.88   37.10
  -7   8  -6  152.58   34.80
  -1  -7  -6  147.99   32.90
  -7   8  -6  123.69   56.09
  -1  -7  -6    6.50   51.19
   0  -8  -6   14.80   28.20
   8  -8   6   -4.50   33.80
   0   8   6   44.20   41.80
  -8   8  -6    1.00   18.80
   0  -9   6    7.80   34.70
   9   0   6  178.08   63.99
   9  -9  -6   19.70   52.49
   9  -9  -6   36.40   29.50
   9   0   6  -14.60   45.20
  -9   0  -6   97.19   50.09
   9   0   6  194.28   35.90
   0  -9   6   24.00   34.80
   1   8  -6   70.19   23.80
   1  -9   6   50.59   35.80
   8  -9  -6   23.00   51.99
  -9   1  -6   67.39   50.99
   1  -9   6   27.20   34.30
   1   8  -6   61.69   56.49
   8   1   6   28.80   23.10
   8  -9  -6   39.80   29.90
   8   1   6   54.99   44.50
   1  -9   6   58.59   23.50
  -8   9   6   23.80   52.79
   9  -8  -6   47.10   53.19
   9  -1   6   87.99   43.50
  -1   9  -6   66.29   25.20
  -8  -1  -6   48.90   48.50
  -1  -8   6   92.89   35.80
  -1  -8   6    7.10   34.70
   9  -8  -6   53.89   27.80
  -1   9  -6   50.59   50.49
   2   7  -6  350.46   76.99
   2  -9   6  242.48   40.90
   2  -9   6  211.48   41.30
   7   2   6  326.97   40.70
   2  -9   6  296.67   52.09
   2   7  -6  288.47   42.00
   7   2   6  318.37   62.39
   7  -9  -6  317.67   78.59
  -9   2  -6  350.66   78.99
  -2  -7   6  252.57   49.70
   9  -7  -6  226.38   60.49
  -2   9  -6  291.67   73.59
  -2   9  -6  284.07   38.50
   9  -2   6  174.18   47.60
  -7  -2  -6  238.48   38.30
   9  -2   6  260.97   39.00
  -2  -7   6  233.98   58.39
  -7  -2  -6  191.38   54.39
   9  -2   6  277.57   58.99
   3  -9   6  290.17   38.20
   6  -9  -6  275.37   63.99
   3  -9   6  205.88   40.20
   6   3   6  298.37   39.90
   6  -9  -6  312.67   45.00
   3   6  -6  312.27   76.99
   3  -9   6  259.27   41.30
  -9   3  -6  374.26   88.09
   6   3   6  305.27   59.99
   3   6  -6  240.38   41.10
   9  -3   6  197.18   31.80
   9  -3   6  224.38   38.10
  -6  -3  -6  274.37   53.99
  -3   9  -6  281.77   40.30
  -3  -6   6  294.27   49.50
  -3  -6   6  156.28   45.20
  -6   9   6  387.46   54.09
  -6   9   6  261.57   64.39
   9  -6  -6  294.47   63.19
  -6  -3  -6  241.98   39.90
   9  -3   6  336.27   59.19
  -3   9  -6  320.87   74.19
   4   5  -6  185.48   36.50
   5   4   6  192.58   48.00
   5  -9  -6  156.38   56.79
   5   4   6  127.19   27.90
   5   4   6  259.07   60.19
  -9   4  -6  201.68   66.99
   5  -9  -6  175.88   42.60
   4  -9   6   82.89   35.30
   4  -9   6  132.49   30.20
   4   5  -6  170.38   57.99
  -4  -5   6  192.28   45.80
  -5  -4  -6   74.39   47.90
   9  -4   6  106.19   29.30
  -5  -4  -6  185.98   37.80
   9  -5  -6  194.78   58.99
  -4   9  -6  297.27   74.19
  -4   9  -6  145.39   39.00
  -5   9   6  224.18   52.59
   9  -4   6  236.48   55.39
   5  -9   6  571.44   55.29
   4  -9  -6  642.74   87.79
   5   4  -6  645.24  125.49
  -9   5  -6  640.64  114.39
   4   5   6  820.42   70.99
   5  -9   6  807.72   51.59
   5  -9   6  598.04   64.39
   4   5   6  773.62   49.90
   5   4  -6  698.63   47.80
  -9   4   6  563.44   83.79
   4  -9  -6  744.83   55.09
   4   5   6  748.03   70.69
  -5   9  -6  825.52   50.89
  -4   9   6  849.81   65.69
  -5  -4   6  777.52   57.19
   9  -4  -6  784.52   85.39
  -4   9   6  785.12   53.59
  -4  -5  -6  728.03   53.19
   9  -5   6  777.42   65.49
  -4   9   6  764.22   70.19
  -5   9  -6  828.22   83.19
   6  -9   6  228.08   43.20
  -9   6  -6  215.38  106.19
   3   6   6  274.47   39.10
   6  -9   6  165.88   36.90
   6  -9   6  181.08   43.90
   6   3  -6  261.47   41.10
   3  -9  -6  163.68   58.69
   3   6   6  393.96   62.69
   3  -9  -6  294.07   45.80
  -6  -3   6  338.17   55.39
  -6   9  -6  310.57   78.89
  -6   9  -6  313.27   37.20
  -3   9   6  384.46   56.79
  -3   9   6  252.47   42.90
   9  -6   6  300.87   55.59
   9  -6   6  202.28   34.60
   9  -3  -6  222.68   59.69
  -3  -6  -6  277.67   43.20
  -9   7  -6   62.69   19.10
  -9   2   6   66.99   42.20
   2   7   6   43.30   44.40
   2  -9  -6    8.10   53.49
   7  -9   6   69.89   32.20
   7  -9   6  -20.70   28.50
   2   7   6  -13.10   24.30
   7   2  -6   55.79   66.69
   2  -9  -6   88.09   31.10
   7  -9   6  -55.09   32.80
   2   7   6   22.60   39.40
  -9   7  -6  135.99   62.69
  -2  -7  -6   51.49   29.20
  -7   9  -6   24.40   23.00
   9  -7   6  106.59   37.10
  -2   9   6  111.39   41.60
  -2   9   6   -1.90   25.80
  -2   9   6   15.50   38.60
   1   8   6  282.57   65.19
   1  -9  -6  288.27   44.10
   8  -9   6  156.98   36.90
  -9   1   6  255.87   45.40
   8  -9   6  254.37   48.10
  -9   8  -6  325.57   81.79
   1   8   6  289.67   61.59
   8  -9   6  221.78   44.90
   1   8   6  241.58   41.50
   8   1  -6  210.48   55.99
   1  -9  -6  108.79   59.79
  -1   9   6  206.18   41.80
   9  -8   6  292.27   50.89
  -8   9  -6  281.27   37.40
  -8   9  -6  228.08   58.89
  -1   9   6  327.97   61.49
   9  -1  -6  231.98   58.29
  -1  -8  -6  268.87   63.69
  -1  -8  -6  268.77   44.30
   9  -8   6  199.88   35.90
  -8  -1   6  271.77   48.50
   0   9   6  148.49   39.60
   9  -9   6   92.99   35.10
  -9   9  -6  175.28   54.09
   9   0  -6   77.69   51.09
  -9   9  -6  136.59   33.70
   9  -9   6  127.19   34.50
   9  -9   6  124.69   37.60
   0   9   6  114.19   40.50
   0  -9  -6  125.89   33.10
   0  -9  -6   40.70   56.79
  -9   0   6  107.69   33.20
   0   9   6  107.09   47.50
  10 -10  -6  110.69   56.69
 -10   0  -6   68.79   51.69
  10   0   6   74.79   49.60
   0  10  -6   64.79   50.99
   0  10  -6  195.08   52.59
   9 -10  -6   99.19   56.99
   9 -10  -6   46.40   28.80
   1   9  -6   16.90   29.80
 -10   1  -6   96.49   53.09
   9   1   6   51.59   25.10
   9   1   6   97.39   47.10
   1 -10   6   10.70   32.40
   1   9  -6   82.69   55.09
  10  -1   6   47.90   46.00
  -1  10  -6   56.89   71.49
  10  -9  -6   71.39   30.10
  -1  10  -6   34.30   24.10
  10  -9  -6   18.00   54.39
  -1  -9   6   13.70   39.10
  10  -1   6   65.59   26.70
  -9  -1  -6  116.59   50.39
   2   8  -6  154.58   33.90
   2 -10   6  106.49   34.50
   2   8  -6  109.39   73.49
   2 -10   6  156.08   33.80
 -10   2  -6  213.08   59.49
   8   2   6  200.48   38.90
   8 -10  -6  175.28   63.69
   8 -10  -6  133.79   31.50
   8   2   6  169.18   53.09
  10  -8  -6  228.78   59.39
  10  -2   6  148.89   49.00
  10  -2   6  112.29   28.00
  -2  10  -6  118.99   29.20
  -8  -2  -6  171.78   51.69
  -2  -8   6  113.59   40.90
  -8  -2  -6  170.18   30.40
   7   3   6   41.60   22.50
   7 -10  -6   53.09   30.30
   3   7  -6   60.59   88.99
 -10   3  -6   73.49   52.69
   7   3   6   80.49   35.80
   7   3   6   33.10   46.40
   3   7  -6   55.89   34.90
   3 -10   6  -22.90   29.90
   3 -10   6   32.00   25.80
   7 -10  -6   35.50   53.39
  10  -3   6   24.80   41.50
  -7  -3  -6   24.50   28.00
  10  -7  -6   14.40   50.49
  -3  -7   6  -10.10   48.80
  -3  10  -6   14.00   75.69
  -3  10  -6   16.50   23.10
  -7  -3  -6   -4.90   43.80
  10  -3   6  -16.70   27.50
 -10   4  -6  823.32   90.99
   6   4   6  678.13   69.09
   6   4   6  597.94   48.40
   6 -10  -6  645.24   64.49
   6   4   6  722.43   65.69
   4   6  -6  562.44  110.79
   4 -10   6  494.25   51.89
   4 -10   6  595.64   47.10
   6 -10  -6  690.03   85.59
 -10   6   6  566.34   50.19
  -6  -4  -6  552.94   67.99
  -6  -4  -6  660.23   48.60
  -4  10  -6  667.33   47.70
  10  -6  -6  692.83   83.09
  -4  10  -6  710.73  103.99
  10  -4   6  652.93   66.19
   5 -10   6  376.46   43.70
   5 -10   6  380.16   47.90
   5   5   6  348.77   61.29
 -10   5   6  346.57   45.80
   5 -10   6  261.07   56.29
   5   5  -6  192.78   62.39
   5 -10  -6  238.18   62.69
   5   5   6  414.66   42.80
 -10   5  -6  386.96   83.59
  -5  -5  -6  307.47   44.40
  10  -5   6  367.66   58.39
  -5  10  -6  333.17   42.10
  -5  10   6  368.36   59.49
  -5  10  -6  246.18   85.29
  10  -5  -6  264.97   74.19
   4 -10  -6  100.69   58.79
 -10   4   6   93.49   28.30
   4 -10  -6  166.38   38.80
   6 -10   6   55.79   32.40
   6 -10   6   51.89   33.80
   4   6   6   79.09   29.00
   6   4  -6  141.49   53.39
   4   6   6  112.99   49.00
 -10   6  -6  221.68   59.99
   6 -10   6  192.18   41.50
  -4  10   6  112.79   46.40
  -4  -6  -6  159.08   32.70
  10  -4  -6  180.98   61.09
  10  -6   6  145.59   42.30
  -6  10  -6   99.39   25.90
  -6  -4   6  158.18   36.80
 -10   7  -6  751.12   90.59
   3   7   6  792.12   68.49
 -10   3   6  604.24   50.79
   3 -10  -6  678.73   55.29
   7 -10   6  575.84   53.99
   7 -10   6  661.53   52.09
   3 -10  -6  421.06   88.39
   7 -10   6  498.85   60.79
   3   7   6  571.64   49.40
   3   7   6  747.93   74.69
   7   3  -6  644.24   78.89
  10  -7   6  490.65   60.19
  -7  10  -6  676.63   86.59
  -3  10   6  543.95   67.69
  10  -3  -6  671.53   82.49
  -7  10  -6  675.53   46.90
  10  -7   6  643.94   59.09
  -3  10   6  634.84   71.19
  -3  -7  -6  674.63   51.79
  10  -7   6  493.05   66.99
  -7  -3   6  656.13   53.69
   8 -10   6  235.48   44.10
   8 -10   6  285.77   49.50
 -10   2   6  291.07   43.70
   8   2  -6  275.07   72.89
   2   8   6  340.17   67.69
   8 -10   6  359.66   48.30
   2   8   6  372.96   43.00
 -10   8  -6  235.98   58.79
 -10   8  -6  371.16   35.40
   2 -10  -6  199.58   61.19
   2 -10  -6  299.97   45.00
  -8  -2   6  325.17   47.70
  10  -8   6  402.06   47.00
  -2  -8  -6  289.07   45.00
  10  -8   6  306.27   66.29
  10  -2  -6  266.67   60.09
  -2  10   6  288.97   63.39
  10  -8   6  397.66   51.89
  -8  10  -6  270.77   60.49
  -2  10   6  469.95   67.39
  -8  10  -6  260.07   39.70
   1   9   6   44.20   24.10
 -10   9  -6   68.39   19.80
 -10   9  -6   44.00   51.79
   9   1  -6   32.70   48.40
 -10   1   6   30.70   31.30
   1   9   6   27.00   44.90
   9 -10   6   47.90   35.20
   9 -10   6   -2.10   36.40
   1 -10  -6   52.09   31.80
  -1  10   6   39.90   42.90
  -9  -1   6   15.00   31.50
  -9  10  -6   56.89   22.10
  -1  -9  -6    6.40   30.60
  -9  10  -6   17.40   47.60
  10  -1  -6   12.90   48.40
  10  -9   6   53.89   38.90
  10  -9   6  -15.80   34.90
  -1  10   6   82.49   40.50
   0 -10  -6  275.77   48.70
 -10   0   6  333.57   50.59
 -10  10  -6  305.37   39.40
  10 -10   6  421.06   64.09
  10 -10   6  343.37   53.69
 -10  10  -6  357.36   85.69
   0  10   6  399.16   61.99
   0  10   6  328.37   64.89
  10   0  -6  223.08   54.59
  10 -10   6  248.88   52.39
   0 -10  -6  181.18   65.29
  11   0   6   63.69   48.50
  11 -11  -6  113.39   55.39
 -11   0  -6  137.79   55.29
   0  11  -6  127.39   56.39
   0 -11   6   18.90   35.40
  11 -11  -6   96.09   32.00
  10   1   6   20.10   71.09
 -11   1  -6   14.30   50.19
   1  10  -6  -16.60   47.50
  10 -11  -6   17.40   30.10
  10 -11  -6   23.30   53.19
  -1  11  -6   -8.30   48.10
  11 -10  -6   30.90   27.00
  11 -10  -6   15.80   51.59
  -1 -10   6  -31.50   32.00
 -10  -1  -6   30.20   50.59
   2   9  -6   25.90   52.79
   9 -11  -6  -28.00   52.29
   9   2   6   68.89   24.50
   2 -11   6  -13.10   37.50
   9   2   6    4.40   46.90
   2 -11   6  -19.30   32.80
   9 -11  -6   52.09   31.40
 -11   2  -6   20.00   50.59
  -2  11  -6   35.40   24.10
  11  -2   6   64.69   50.19
  11  -9  -6   48.30   30.30
  -2  11  -6   36.30   51.89
  11  -9  -6   49.50   52.59
  -2  -9   6    4.10   37.50
  -9  -2  -6   49.70   49.20
   3 -11   6  241.98   39.00
   8 -11  -6  337.27   47.20
   8   3   6  308.17   42.70
   3   8  -6  318.37   79.29
   8 -11  -6  381.86   84.99
   8   3   6  303.97   69.19
 -11   3  -6  422.36   82.69
   3 -11   6  249.48   49.70
  -3  -8   6  337.17   55.09
  -3  11  -6  325.27   44.30
  -8  -3  -6  344.87   73.79
  -3  11  -6  321.17   79.49
  11  -3   6  390.26   66.19
  11  -8  -6  289.97   73.09
 -11   7   6  127.89   31.30
   4 -11   6  148.39   38.80
   7   4   6  156.78   40.20
   7 -11  -6  129.39   33.00
   7 -11  -6  156.58   59.09
   4 -11   6  199.18   38.30
 -11   4  -6  126.59   53.39
   7   4   6  176.58   48.90
   4 -11   6  181.98   37.90
   4   7  -6  130.29   53.69
  -7  -4  -6  180.38   49.20
  11  -4   6  247.08   61.49
  -7  -4  -6  147.09   31.20
  -4  11  -6  128.59   29.10
  -4  -7   6  147.49   38.60
  -4  11  -6  128.59   60.09
   6   5   6  289.27   41.20
 -11   6   6  250.67   45.00
 -11   5  -6  402.66   82.79
   5   6  -6  379.06   77.89
   6 -11  -6  323.57   81.79
   6   5   6  287.17   69.09
   6   5   6  377.26   65.49
   5 -11   6  204.48   47.80
   6 -11  -6  320.47   48.80
   5 -11   6  211.88   41.30
  -5  11  -6  196.58   41.80
  -6  -5  -6  390.96   66.09
  -5  11  -6  379.26   83.89
  -5  -6   6  257.37   53.59
  -6  -5  -6  294.07   44.50
  11  -5   6  324.07   58.79
  11  -6  -6  286.07   76.29
   5   6   6 1193.38   85.29
   5   6   6 1057.69   61.19
   6 -11   6 1234.08   63.99
 -11   5   6 1107.89   63.69
 -11   6  -6 1343.57  100.69
   5 -11  -6 1250.47   67.59
   6   5  -6 1134.69   89.99
   6 -11   6  988.90   67.19
   5 -11  -6 1179.58  104.49
   5   6   6 1096.69   84.79
  -5  11   6 1263.77   81.69
  -6  -5   6 1124.09   66.09
  -6  11  -6 1168.98   61.19
  11  -5  -6 1181.38   96.29
  -5  -6  -6 1260.97   64.89
  -5  -6  -6 1050.99   88.19
  -6  11  -6 1168.08   93.89
  11  -6   6 1168.88   76.39
   4   7   6  617.14   76.49
   7 -11   6  675.83   53.79
   4   7   6  713.23   72.79
   7   4  -6  582.84   78.89
 -11   7  -6  652.93   90.39
   4   7   6  633.84   49.70
   7 -11   6  446.16   67.09
   7 -11   6  494.45   58.59
 -11   4   6  633.44   53.39
   4 -11  -6  672.83   55.79
   4 -11  -6  657.93   89.49
  -4  -7  -6  612.84   52.29
  -7  11  -6  645.44   83.79
  11  -4  -6  530.75   83.99
  11  -7   6  643.24   65.79
  -7  -4   6  639.14   55.79
  -7  11  -6  619.04   50.29
  -4  11   6  756.22   73.29
   3   8   6   68.19   44.10
   3   8   6   66.09   47.50
   3 -11  -6   88.79   33.40
   3   8   6   96.39   25.60
   8   3  -6   33.40   46.20
   8 -11   6  101.39   34.50
   8 -11   6  105.99   38.70
 -11   8  -6   88.89   55.89
 -11   3   6   42.70   28.10
  -3  11   6   75.79   47.30
  -8  11  -6   65.09   23.60
  -8  11  -6   47.40   50.99
  -3  -8  -6   53.59   31.50
  -8  -3   6   80.39   34.70
  11  -8   6  113.29   40.10
  11  -3  -6   22.10   47.90
   9 -11   6  399.96   65.59
   2   9   6  406.26   68.19
   2 -11  -6  299.87   50.29
 -11   2   6  332.37   46.90
   2   9   6  281.57   44.90
   9 -11   6  368.56   53.59
   9 -11   6  333.27   50.99
   9   2  -6  315.57   74.79
 -11   9  -6  430.36   87.49
   2   9   6  389.76   71.79
   2 -11  -6  231.88   67.19
  -2  -9  -6  322.67   49.00
  11  -9   6  401.56   56.19
  -9  11  -6  337.77   79.39
  -2  11   6  284.47   68.89
  11  -2  -6  367.06   75.99
  -9  -2   6  370.86   49.00
  -9  11  -6  304.17   40.90
   1  10   6  109.79   46.50
   1  10   6  103.19   47.30
 -11  10  -6  120.59   54.39
  10 -11   6  143.79   38.40
   1 -11  -6  123.29   40.00
   1 -11  -6  -16.90   57.89
  10   1  -6   76.69   51.39
 -11   1   6  114.99   36.90
  10 -11   6  236.68   50.59
  -1 -10  -6  102.99   33.90
  11 -10   6  157.18   41.70
 -10  11  -6  103.09   24.20
  -1  11   6   56.99   49.99
  11  -1  -6  111.59   51.49
 -10  -1   6  101.89   33.30
 -10  11  -6  181.78   56.19
  11 -11   6  138.39   39.40
  11   0  -6   23.10   47.10
 -11   0   6   43.40   33.20
 -11  11  -6   30.50   52.39
  11 -11   6   36.00   38.60
   0 -11  -6   27.80   35.60
   0 -11  -6   37.60   57.39
   0  11   6   -1.40   46.10
 -12   0  -6   31.60   50.89
  12   0   6  -14.20   47.90
  12 -12  -6  -20.20   57.69
   0 -12   6  -38.00   35.60
  12 -12  -6   28.70   29.70
   0  12  -6  -32.20   49.30
   1 -12   6   34.40   36.50
   1  11  -6   51.69   57.09
  11   1   6  142.99   52.49
 -12   1  -6  104.39   51.59
  11 -12  -6   74.09   30.40
  11 -12  -6  140.69   58.79
  12  -1   6   87.29   49.20
 -11  -1  -6  103.99   52.79
  12 -11  -6  100.79   30.30
  -1 -11   6   17.40   35.60
  -1  12  -6  102.29   52.89
  12 -11  -6  113.89   82.89
  10   2   6   50.29   51.09
  10 -12  -6  100.39   58.79
  10 -12  -6   59.79   29.70
   2  10  -6   84.59   52.69
 -12   2  -6   50.99   50.89
  12  -2   6   47.90   50.69
  12 -10  -6   60.69   28.80
  -2 -10   6  -21.50   35.20
  12 -10  -6   48.70   95.09
 -10  -2  -6   56.69   51.19
  -2  12  -6   73.59   54.99
 -12   3  -6   31.60   52.09
   9 -12  -6   17.30   58.49
   9   3   6    7.00   62.09
   3 -12   6   39.40   27.80
   9 -12  -6   23.90   30.00
   3 -12   6   13.80   37.10
   9   3   6   58.49   24.90
   3   9  -6   39.00   49.90
  -9  -3  -6  100.59   52.39
  12  -3   6  -27.40   60.09
  -3  12  -6   28.40   52.29
  -3  12  -6   34.50   25.70
  12  -9  -6   39.00   52.29
  -3  -9   6   31.80   36.50
   8   4   6  318.47   77.09
   8   4   6  281.37   43.30
   4 -12   6  251.47   42.60
   8 -12  -6  488.35   86.19
   8 -12  -6  328.17   47.80
   4   8  -6  334.47   79.19
 -12   4  -6  388.96   84.29
  -8  -4  -6  466.15   77.29
  12  -8  -6  344.77   78.59
  12  -4   6  376.36   72.19
  -4  12  -6  419.56   79.49
  -4  12  -6  377.06   44.30
  -4  -8   6  319.67   51.79
   7   5   6 1089.59   83.89
   5 -12   6 1023.80   58.79
 -12   7   6  963.40   62.29
   7   5   6 1058.99   58.99
   5 -12   6  926.81   77.19
   5 -12   6  847.92   67.99
   7   5   6 1322.77   87.49
 -12   5  -6 1120.49   98.09
   7 -12  -6 1095.19  103.49
   7 -12  -6 1064.59   64.59
   5   7  -6 1071.79   90.49
  -5  12  -6 1134.89   92.69
  -5  12  -6 1046.80   61.19
  -7  -5  -6 1170.48   83.09
  12  -5   6 1096.79   79.19
  12  -7  -6 1133.89   89.99
  -5  -7   6 1021.40   70.09
  -7  12   6 1302.47   80.29
  -7  -5  -6 1022.30   61.99
   6 -12   6  521.25   46.90
   6 -12   6  390.26   55.49
   6 -12   6  490.75   67.29
   6 -12  -6  406.66   84.89
   6   6  -6  466.95   73.39
 -12   6  -6  543.35   87.89
   6   6   6  521.35   70.39
 -12   6   6  509.95   49.99
   6 -12  -6  526.55   54.59
   6   6   6  499.35   49.80
  -6  -6   6  474.95   57.19
  -6  12  -6  415.26   48.50
  12  -6  -6  487.45   79.89
  12  -6   6  538.35   62.99
  -6  -6  -6  519.25   72.19
  -6  -6  -6  508.45   48.80
  -6  12  -6  498.95   81.19
   7 -12   6  126.19   39.90
   7 -12   6   92.29   36.90
 -12   7  -6  137.49   55.89
   5   7   6  199.28   41.20
   5   7   6   51.19   50.39
   7   5  -6  124.09   52.79
   5 -12  -6  156.68   64.09
 -12   5   6   82.49   31.50
   7 -12   6  164.88   42.10
   5 -12  -6  151.18   37.50
  -5  12   6  277.47   67.39
  -5  -7  -6  116.29   33.30
  12  -7   6  152.98   46.40
  -5  -7  -6  165.88   56.09
  -7  12  -6   97.59   26.20
  12  -5  -6   94.79   51.09
  -7  -5   6  105.09   35.50
  -7  12  -6  122.99   54.79
   8 -12   6  819.12   57.69
   8 -12   6  899.71   62.39
 -12   4   6  715.43   55.89
   4 -12  -6  803.92   59.29
   4   8   6  841.32   81.49
 -12   8  -6  922.91   94.89
   8 -12   6  684.33   73.69
   4 -12  -6  684.23   96.39
   4   8   6  714.43   54.69
   8   4  -6  717.83   84.29
  -8  -4   6  764.32   59.09
  12  -4  -6  797.02   86.69
  -4  -8  -6  676.03   84.19
  -4  -8  -6  680.83   55.49
  12  -8   6  830.82   64.79
  -8  12  -6  812.42   88.29
  -8  12  -6  672.93   52.09
  -4  12   6  812.42   75.59
   3 -12  -6  420.36   51.49
   9   3  -6  343.97   78.79
   3   9   6  476.45   75.49
 -12   9  -6  467.75   87.39
   3 -12  -6  345.87   85.39
   9 -12   6  539.05   58.59
 -12   3   6  348.07   48.50
   9 -12   6  331.87   70.99
   3   9   6  404.66   47.10
   9 -12   6  509.45   52.19
  -3  -9  -6  403.66   50.09
  -9  12  -6  403.96   81.39
  -9  12  -6  443.36   44.70
  12  -9   6  514.35   61.19
  -3  12   6  473.35   71.99
  -9  -3   6  393.16   52.39
  12  -3  -6  310.77   76.89
  -3  -9  -6  243.38   69.89
  10 -12   6   20.70   36.00
  10 -12   6  116.49   38.60
 -12  10  -6   86.89   57.99
  10   2  -6  -27.20   49.99
 -12   2   6    5.20   28.20
   2  10   6   16.50   48.20
   2 -12  -6   33.50   32.70
  10 -12   6   67.89   45.70
 -10  12  -6   29.00   22.50
 -10  12  -6   16.40   49.30
  12 -10   6   24.80   40.40
  -2  12   6   49.30   49.90
 -10  -2   6   24.30   32.20
  12  -2  -6   14.50   46.00
  -2 -10  -6   64.29   32.50
  11 -12   6  110.19   39.00
   1 -12  -6   29.80   59.59
   1 -12  -6   65.39   33.40
 -12   1   6   71.09   32.60
 -12  11  -6   70.19   55.79
   1  11   6  122.69   49.90
  11   1  -6   66.99   49.90
  11 -12   6   58.69   41.70
  -1  12   6   35.50   52.09
  12  -1  -6   59.39   48.30
 -11  12  -6   76.19   60.59
  12 -11   6  111.79   41.00
 -11  -1   6   38.60   33.10
  -1 -11  -6   56.19   33.60
  -1 -11  -6  -43.40   59.29
 -12  12  -6   54.29   55.39
   0 -12  -6  -14.00   31.50
  12   0  -6   -4.80   43.80
  12 -12   6    9.80   45.10
   0  12   6  -46.90   53.49
 -12   0   6  -18.00   31.50
  12 -13  -6  257.37   66.59
  12 -13  -6  271.37   44.90
 -13   1  -6  327.37   81.09
  12   1   6  205.58   50.79
   1  12  -6  252.37   62.89
   1 -13   6  162.58   40.10
  13 -12  -6  376.26   85.09
 -12  -1  -6  261.77   59.69
  -1  13  -6  285.97   63.09
  13  -1   6  183.38   49.99
  13 -12  -6  273.77   45.50
  11 -13  -6   41.00   56.49
   2 -13   6    6.90   35.10
   2  11  -6   43.50   51.79
  11 -13  -6   39.00   30.80
  11   2   6   52.79   46.90
 -13   2  -6   84.39   56.89
  -2 -11   6  -54.39   35.30
  -2  13  -6   23.30   50.29
  13 -11  -6   36.40   29.50
  13 -11  -6   17.30   52.59
 -11  -2  -6  100.59   53.69
  13  -2   6   -2.10   49.60
   3  10  -6   95.79   54.39
   3 -13   6   70.09   41.10
  10 -13  -6  145.99   35.00
  10   3   6  102.79   50.69
  10 -13  -6  184.28   61.19
 -13   3  -6  305.17   81.39
   3 -13   6  120.19   32.80
  13 -10  -6   97.79   55.89
  -3 -10   6   70.59   36.90
  13  -3   6  153.88   51.69
 -10  -3  -6  103.09   56.79
  -3  13  -6  185.78   57.59
 -13   4  -6  568.34   87.39
   4 -13   6  310.87   54.29
   9 -13  -6  486.75   87.29
   4 -13   6  406.16   42.60
   9   4   6  354.66   69.29
   4   9  -6  299.87   78.89
   9 -13  -6  431.06   52.69
  -9  -4  -6  497.85   94.69
  13  -4   6  424.96   65.59
  13  -9  -6  359.76   78.49
  -4  13  -6  346.47   81.09
  -4  -9   6  342.67   53.69
  -4  13  -6  313.57   46.80
   5 -13   6  181.88   41.50
 -13   5  -6  175.28   58.89
   8 -13  -6  191.28   46.20
   8 -13  -6  145.89   67.29
   5 -13   6  149.39   33.90
   8   5   6  159.38   54.99
 -13   8   6  199.38   45.40
   8   5   6  218.98   42.10
   5   8  -6  135.59   52.59
   5 -13   6  124.49   43.60
  13  -8  -6  181.78   54.39
  -5  -8   6  137.59   39.80
  13  -5   6  165.88   47.80
  -5  13  -6  176.28   41.90
  -8  -5  -6  146.89   58.59
  -5  13  -6  110.79   53.19
   7 -13  -6  173.78   63.79
   7   6   6  123.49   52.39
   6   7  -6  129.79   53.09
 -13   6  -6  220.98   59.29
   7   6   6  177.28   49.50
   6 -13   6  111.19   38.40
   6 -13   6   65.89   42.10
   7   6   6   71.29   28.60
   7 -13  -6  164.78   37.60
   6 -13   6  131.09   33.20
 -13   7   6  129.89   31.00
  -7  -6  -6  168.08   36.00
  -7  -6  -6  279.97   67.69
  13  -6   6  140.49   50.19
  -6  13  -6  214.48   41.00
  13  -7  -6   90.89   47.20
  -6  -7   6   95.49   37.50
  -6  13  -6  120.99   55.79
 -13   6   6  850.21   57.19
 -13   7  -6 1065.79   98.39
   7 -13   6  726.93   79.69
   6   7   6  906.61   83.99
   7 -13   6  914.01   67.79
   6 -13  -6  845.42   60.49
   7   6  -6  807.42   85.19
   6   7   6  768.42   85.89
   6   7   6  876.51   56.59
   7 -13   6  917.01   57.19
   6 -13  -6  805.72  100.79
  -7  13  -6  814.12   58.09
  -6  -7  -6  865.61   58.59
  -7  -6   6  800.82   65.89
  -6  -7  -6  890.31   85.39
  -6  13   6 1012.90   78.19
  13  -6  -6  883.61   84.39
  13  -7   6  833.32   75.29
  -7  13  -6  887.81   90.39
   8 -13   6  283.67   67.49
 -13   8  -6  456.75   88.89
   5   8   6  536.45   78.89
   8 -13   6  481.45   50.59
   5 -13  -6  398.36   87.09
   8   5  -6  350.26   77.39
 -13   5   6  457.55   50.29
   5 -13  -6  402.16   49.90
   5   8   6  244.38   68.99
   5   8   6  351.96   46.10
  -8  13  -6  361.26   82.99
  -8  13  -6  327.57   46.10
  -5  -8  -6  375.06   49.99
  -5  -8  -6  268.87   65.89
  -8  -5   6  387.26   57.09
  13  -5  -6  371.06   71.99
  13  -8   6  343.77   71.49
   9   4  -6   63.09   50.19
   4   9   6  132.39   46.60
   4   9   6   75.59   59.19
   4 -13  -6   76.69   34.10
 -13   4   6   80.89   30.40
   4 -13  -6   19.00   61.19
   9 -13   6   90.69   40.60
 -13   9  -6  105.09   54.99
   9 -13   6   63.39   35.50
   4   9   6   61.09   25.00
   9 -13   6  121.99   41.50
  -9  -4   6   54.19   33.70
  -4  -9  -6  144.79   57.99
  -4  13   6  131.29   54.09
  -4  -9  -6   92.29   34.50
  13  -9   6   79.79   45.70
  13  -4  -6   97.89   50.19
  -9  13  -6   62.79   25.40
  -9  13  -6   90.79   54.49
   3 -13  -6  218.08   69.39
  10 -13   6  362.26   63.29
 -13   3   6  260.67   48.40
   3 -13  -6  371.36   51.49
 -13  10  -6  407.56   87.59
   3  10   6  314.27   70.19
  10 -13   6  384.46   51.59
   3  10   6  481.15   77.69
  10   3  -6  313.97   75.59
  -3 -10  -6  311.07   48.90
 -10  -3   6  283.67   48.80
 -10  13  -6  328.07   79.39
 -10  13  -6  190.98   50.59
  -3 -10  -6  193.18   65.29
  13  -3  -6  311.37   69.39
  -3  13   6  329.07   71.59
  13 -10   6  245.68   61.79
  11 -13   6  132.69   38.60
 -13  11  -6   92.99   54.59
   2  11   6  112.69   52.19
  11   2  -6  132.99   54.39
   2 -13  -6   90.89   64.99
 -13   2   6  129.39   34.90
   2 -13  -6  144.59   36.00
  13  -2  -6   84.09   43.70
 -11  13  -6   87.99   51.69
  -2 -11  -6  111.09   36.00
  13 -11   6  225.48   54.89
  -2  13   6  154.28   53.99
 -11  -2   6  118.09   35.00
  12 -13   6  -14.50   48.20
  12   1  -6   21.40   45.60
 -13  12  -6   32.20   57.29
   1 -13  -6   41.00   34.60
   1  12   6   26.10   48.60
 -13   1   6   19.90   30.60
  -1 -12  -6  -29.50   58.49
 -12  13  -6   73.59   59.59
  -1  13   6   31.40   69.19
  13  -1  -6   62.39   44.20
  -1 -12  -6   50.19   34.60
 -12  -1   6   56.49   35.00
  13 -12   6   43.70   41.20
   3  11  -6  106.39   58.19
  11 -14  -6  151.08   37.50
  11 -14  -6  181.68   68.19
   3 -14   6  123.19   44.60
   3 -14   6  105.99   39.40
  11   3   6  101.29   48.50
  -3  14  -6  128.89   55.89
 -11  -3  -6  135.39   57.59
  14  -3   6  131.39   49.90
  -3 -11   6   49.20   37.80
  14 -11  -6  169.58   55.99
   4  10  -6   19.60   48.70
  10 -14  -6   45.90   32.10
 -14   4  -6  104.39   53.99
  10 -14  -6   52.59   57.09
  10   4   6   39.50   47.60
   4 -14   6   28.90   38.80
  -4  14  -6  -12.20   51.79
  14 -10  -6   -6.10   50.19
  14  -4   6   67.29   45.20
  -4 -10   6   11.60   37.20
 -10  -4  -6  -11.70   52.89
   5 -14   6   82.69   31.00
   9   5   6   50.79   50.09
 -14   5  -6  149.88   56.09
   9 -14  -6  146.19   62.39
 -14   9   6   56.59   32.70
   5   9  -6   50.79   47.80
   9 -14  -6   64.19   32.40
   5 -14   6   71.89   40.10
  -5  14  -6   60.89   54.29
  -9  -5  -6  109.69   72.89
  -5  -9   6   46.40   37.40
  -5  14  -6   42.60   29.80
  14  -9  -6   59.19   53.99
  14  -5   6   79.09   45.10
   8 -14  -6  438.46   50.89
   8   6   6  412.16   69.19
   6 -14   6  401.26   59.09
   6 -14   6  324.47   46.60
 -14   6  -6  484.65   90.19
   6   8  -6  433.86   79.69
 -14   8   6  395.06   47.40
   8 -14  -6  589.74   89.59
   8   6   6  296.27   47.50
  -8  -6  -6  431.46   80.69
  14  -6   6  361.16   67.09
  14  -8  -6  398.76   77.79
  -6  14  -6  289.37   47.30
  -6  14  -6  405.16   81.59
  -6  -8   6  335.97   59.09
   7 -14  -6  216.08   47.40
   7   7  -6  133.29   52.89
 -14   7   6  228.98   46.50
   7   7   6  246.28   44.90
   7   7   6  156.08   53.49
   7 -14   6  272.97   66.39
   7 -14   6  326.47   57.49
   7 -14  -6  106.49   64.09
   7 -14   6  185.48   44.60
 -14   7  -6  327.77   85.59
  -7  -7  -6  255.97   70.19
  -7  14  -6  143.09   56.79
  -7  14   6  286.17   65.39
  -7  -7  -6  169.28   37.80
  -7  14  -6  270.47   42.90
  14  -7  -6  185.88   55.49
  14  -7   6  257.67   59.89
  -7  -7   6  244.18   56.69
   8   6  -6   81.69   52.89
   8 -14   6  140.69   43.60
   6   8   6   49.10   28.90
 -14   6   6   93.39   30.90
   8 -14   6  113.09   36.00
   6 -14  -6  232.08   67.39
   8 -14   6   96.99   43.90
 -14   8  -6  143.69   59.09
   6 -14  -6   93.09   35.00
   6   8   6   59.29   51.09
  -6  -8  -6   49.10   61.89
  -8  14  -6  156.68   58.99
  -8  -6   6   58.29   36.00
  -6  14   6  209.78   57.99
  -6  -8  -6  114.49   36.00
  -8  14  -6  105.69   27.80
  14  -8   6  130.49   46.20
  14  -6  -6  141.09   51.59
   9   5  -6  420.16   80.29
 -14   9  -6  510.45   93.29
   5   9   6  435.76   71.29
   5 -14  -6  334.07   78.69
 -14   5   6  376.76   49.70
   9 -14   6  525.95   52.09
   5   9   6  411.36   47.00
   5 -14  -6  423.76   53.19
   9 -14   6  406.46   66.09
  -9  14  -6  332.67   50.39
  14  -9   6  468.05   58.39
  -5  -9  -6  461.65   51.89
  -5  14   6  542.55   74.99
  -9  -5   6  407.26   56.39
  -5  -9  -6  528.35   85.59
  14  -5  -6  413.76   71.29
  -9  14  -6  419.96   84.39
  10   4  -6  123.39   50.79
 -14  10  -6  152.68   59.19
 -14   4   6  154.38   35.50
  10 -14   6  326.87   63.89
   4 -14  -6  180.68   38.90
   4  10   6  174.98   56.09
   4 -14  -6  211.98   67.79
  10 -14   6  180.08   40.60
 -10  -4   6  239.98   52.69
 -10  14  -6   55.39   52.79
  14 -10   6  260.47   57.99
  14  -4  -6  129.49   50.49
  -4  14   6  324.37   67.89
  -4 -10  -6  242.78   50.49
  -4 -10  -6  133.19   63.29
   3 -14  -6 -101.19   59.89
  11 -14   6   14.10   44.90
  11 -14   6  109.49   44.90
 -14  11  -6   33.80   55.59
 -14   3   6   20.70   31.70
  11   3  -6   30.60   45.60
   3  11   6   33.10   48.70
   3 -14  -6   48.70   33.50
  -3 -11  -6   28.60   36.00
  14  -3  -6   -7.00   44.00
  14 -11   6    0.80   38.30
 -11  -3   6   -0.30   32.10
  -3 -11  -6  -36.90   57.79
  -3  14   6   70.39   58.09
 -11  14  -6   -2.40   50.69
   0   0  -7  -10.60   50.19
   0   0   7   -9.30   26.40
   0   0   7   18.20   29.90
   0   0  -7   31.10   20.60
  -1   1   7   -2.60   39.70
   1  -1  -7  -18.50   47.20
  -1   1   7   58.09   30.50
   1   0   7   33.90   26.30
  -1   0  -7   -0.80   50.99
   1   0   7   81.79   39.40
   0  -1   7  -27.00   29.60
   0   1  -7   12.50   51.89
   1   0   7   56.59   30.10
   0  -1   7   36.90   29.30
   1  -1  -7   72.49   24.30
   0  -1  -7  -37.60   48.40
   1  -1   7  -47.10   27.30
  -1   1  -7   12.40   50.59
  -1   0   7   26.80   30.50
   1   0  -7  -26.50   48.70
   1   0  -7   36.90   21.90
  -1   0   7    1.70   31.40
   1  -1   7   29.70   29.80
   0   1   7   24.80   29.30
  -1   1  -7   47.60   21.80
   0  -2   7  144.99   35.20
   0  -2   7   40.50   35.90
  -2   0  -7   55.09   50.99
   0   2  -7   62.49   50.49
   2   0   7   79.19   28.80
   2  -2  -7   79.49   54.69
   0   2  -7   92.39   26.60
  -2   2   7  123.29   31.90
  -2   1  -7  306.87   38.80
   1   1   7  175.48   33.40
   1  -2   7  265.77   46.80
   1  -2   7  221.68   48.70
   1   1  -7  172.88   39.40
  -2   1   7  253.57   43.00
   1   1   7  310.67   45.30
   1  -2  -7  122.09   54.29
  -2   1  -7  152.48   54.69
   1   1  -7  235.18   60.89
   1   1   7  375.46   54.09
  -1  -1   7  276.47   45.70
  -1   2   7  297.07   45.10
  -1  -1  -7  232.38   63.59
   2  -1   7  158.68   32.40
   2  -1   7  272.37   45.50
  -1   2  -7  243.18   59.79
   2  -1  -7  183.58   55.79
  -1   2  -7  234.78   38.00
   2  -1  -7  277.77   37.80
   0   2   7  105.69   37.30
   0   2   7    7.00   24.30
  -2   2  -7  -12.20   49.10
  -2   2  -7   76.29   22.90
   2  -2   7   35.20   29.40
   0   2   7   49.90   29.00
   2   0  -7   48.60   24.70
   2  -2   7   70.59   32.50
   2   0  -7   16.60   50.09
   0  -2  -7  -45.50   50.79
  -2   0   7   81.39   35.90
   0  -3   7  248.18   63.89
   3   0   7  382.66   61.99
   3   0   7  425.76   59.89
  -3   0  -7  284.57   63.99
  -3   3   7  342.47   49.10
   0   3  -7  307.87   62.69
   3  -3  -7  304.17   79.09
   0  -3   7  319.17   49.20
   0   3  -7  372.36   41.50
   3   0   7  415.06   46.70
   3   0   7  259.47   47.80
   2   1   7   16.80   27.30
   1  -3   7   39.00   33.00
   1   2  -7   66.69   23.40
   2   1   7   97.39   31.50
  -3   2   7   40.80   35.80
   2   1   7    8.70   38.80
   1   2  -7   14.50   47.30
   2  -3  -7  -42.60   51.99
  -3   1  -7  -47.10   52.09
   1  -3   7   -2.80   31.00
   2   1   7   92.79   43.30
   3  -1   7   51.39   40.30
  -2   3   7   58.19   34.10
  -1   3  -7  -12.50   47.40
  -1  -2   7   42.60   32.10
  -1   3  -7   28.00   20.90
   3  -2  -7   -0.20   52.39
   3  -1   7  -12.70   27.20
   3  -1   7   25.60   32.00
   2   1  -7  133.99   57.89
  -3   1   7  198.88   44.20
   2   1  -7  126.99   38.70
  -3   2  -7   89.99   52.99
   1   2   7  157.78   33.80
   1   2   7  169.28   41.70
   1  -3  -7   83.79   53.29
   2  -3   7  116.99   34.20
   1   2   7  110.09   29.80
   2  -3   7   73.09   31.50
  -1  -2  -7  122.29   58.39
  -2   3  -7  104.89   54.09
   3  -2   7   76.19   30.90
   3  -2   7  237.48   51.19
  -2   3  -7   85.59   28.00
   3  -1  -7  190.38   57.39
  -2  -1   7   99.09   50.79
  -1   3   7  134.19   39.80
   3  -2   7  143.89   34.20
  -1   3   7  131.19   31.40
  -3   0   7  402.46   50.59
   3   0  -7  308.97   81.09
   3  -3   7  403.06   49.40
   0   3   7  447.76   46.10
  -3   3  -7  381.56   76.79
  -3   3  -7  467.75   41.30
   0   3   7  340.87   49.00
   0  -3  -7  261.07   62.39
   3  -3   7  348.67   54.09
   0   3   7  504.15   65.19
   4   0   7  272.87   44.30
   0   4  -7  189.48   40.20
   4  -4  -7   54.49   64.79
   0  -4   7  179.78   44.20
   4   0   7  238.48   60.19
   0   4  -7   74.59   53.19
  -4   4   7  188.78   41.30
   3   1   7  151.88   49.50
   1  -4   7   81.19   32.30
   3   1   7  160.08   36.00
   3  -4  -7  116.49   58.19
  -4   1  -7   64.29   49.99
   3   1   7   75.99   30.00
  -4   3   7  125.89   34.40
   1  -4   7  103.89   33.70
   1   3  -7  137.59   55.79
   1   3  -7   83.19   31.70
  -3   4   7  149.49   31.50
  -3  -1  -7   36.60   54.09
   4  -1   7  145.49   36.00
   4  -1   7   82.99   30.30
  -1  -3   7   97.99   36.80
   4  -3  -7   92.39   62.69
  -1   4  -7   77.19   26.50
  -1   4  -7  172.98   59.49
  -4   2   7  225.38   41.70
   2   2  -7  162.48   51.69
   2  -4   7  201.78   50.89
   2  -4   7  209.88   45.80
  -4   2  -7  167.68   57.29
   2  -4  -7   96.59   55.69
   2   2   7  240.38   43.90
   2   2   7  307.77   42.70
   2   2   7  364.26   62.99
   4  -2   7  296.97   45.30
   4  -2   7  305.27   53.89
  -2   4  -7  291.97   38.30
   4  -2   7  159.18   33.70
   4  -2  -7  225.28   66.79
  -2  -2   7  237.38   56.79
  -2  -2  -7   85.09   54.99
  -2   4  -7  212.28   59.89
  -4   1   7   49.10   32.10
   3  -4   7    0.10   30.70
  -4   3  -7   65.79   22.30
   1  -4  -7  -41.10   52.79
   3  -4   7   82.59   35.90
  -4   3  -7   -8.60   48.30
   1   3   7   96.09   44.40
   3   1  -7  -23.20   49.00
   3  -4   7   33.00   31.90
  -3   4  -7   30.90   48.00
   4  -3   7  -18.60   29.20
  -1   4   7   81.29   43.30
   4  -3   7   18.40   32.70
  -3  -1   7   43.20   31.30
   4  -3   7   62.59   38.80
  -3   4  -7   21.80   22.90
  -1   4   7   92.99   39.60
   4  -1  -7  -28.20   57.49
   0  -4  -7  137.99   62.69
  -4   0   7  178.28   43.00
   4  -4   7  167.08   36.40
  -4   4  -7  145.59   54.19
   0   4   7  276.57   63.49
   0   4   7   76.59   46.50
  -4   4  -7  156.68   36.80
   4  -4   7   88.29   34.80
   4  -4   7  244.58   51.89
   4   0  -7  165.98   63.29
   5   0   7  191.68   49.90
   5  -5  -7  189.58   64.69
   0   5  -7  172.28   53.69
  -5   5   7  180.98   43.20
   5   0   7  206.18   44.80
  -5   0  -7  130.49   56.19
   4   1   7  526.25   51.29
   1  -5   7  526.35   79.49
   1  -5   7  536.95   53.19
   4   1   7  666.43   70.39
   4   1   7  669.33   51.29
  -5   1  -7  511.25   78.49
   4   1   7  707.33   68.69
   1   4  -7  451.35   78.89
   4  -5  -7  439.56   90.69
  -5   4   7  614.14   50.59
   5  -1   7  479.25   53.69
  -1   5  -7  523.25   80.99
   5  -4  -7  529.55   89.29
   5  -1   7  663.33   67.69
  -1  -4   7  640.24   77.49
   5  -1   7  580.14   53.69
  -1   5  -7  595.54   47.10
  -5   3   7  153.88   33.60
   3   2   7  117.69   29.40
   3   2   7  225.98   60.89
   2  -5   7   96.49   32.70
   2  -5   7   93.69   34.30
   2   3  -7  142.09   54.89
  -5   2  -7   38.30   50.29
   3  -5  -7   23.90   55.09
  -2   5  -7  118.49   55.29
   5  -2   7  171.08   35.70
  -2  -3   7  163.88   36.30
   5  -2   7   84.49   32.10
   5  -3  -7   84.49   56.99
   5  -2   7  193.08   48.10
  -2   5  -7  158.08   38.00
   3  -5   7   -0.80   29.70
   2  -5  -7  -39.30   58.09
   3  -5   7  -20.70   31.90
   3   2  -7   18.80   49.50
   2   3   7   38.30   46.30
   2   3   7   19.70   36.60
  -5   2   7   26.80   30.10
  -5   3  -7   -2.40   49.20
   2   3   7  -10.50   25.60
   3  -5   7   42.40   44.60
  -3  -2   7    8.10   31.00
  -3   5  -7   33.20   52.39
   5  -3   7  -23.10   30.10
   5  -2  -7   19.80   55.09
   5  -3   7  -35.10   32.30
  -3   5  -7   52.09   22.40
   5  -3   7  102.89   42.50
   1   4   7  193.88   44.20
   4   1  -7   96.19   54.99
   1  -5  -7   51.39   69.19
  -5   1   7  193.28   45.00
   4  -5   7   97.69   32.60
   1   4   7  303.77   63.49
  -5   4  -7  132.29   52.79
   4  -5   7  115.19   35.60
   5  -4   7   64.09   33.90
  -4   5  -7  226.48   38.90
   5  -4   7  198.58   37.30
   5  -1  -7  177.68   61.09
  -4   5  -7  127.29   53.29
  -4  -1   7  118.39   33.20
   5   0  -7  -23.00   49.60
  -5   0   7  -27.90   28.70
   0  -5  -7  -14.00   31.60
  -5   5  -7   -9.00   48.60
   0   5   7   63.59   40.20
   5  -5   7   18.00   39.00
   0   5   7   66.09   46.90
  -5   5  -7    4.60   22.20
   0   6  -7  888.61   90.79
   6   0   7 1133.69   61.69
   0  -6   7  961.10   64.59
  -6   0  -7  758.02   84.39
   6  -6  -7  950.20   95.79
   6   0   7 1096.69   80.89
   6   0   7  883.11   64.59
   1   5  -7  352.86   79.39
   5   1   7  572.74   50.29
   1  -6   7  472.35   53.79
   5   1   7  390.76   48.50
  -6   5   7  474.25   48.20
   5  -6  -7  407.76   86.59
   5   1   7  565.64   66.29
   6  -1   7  445.56   51.89
   6  -1   7  583.14   66.59
  -1  -5   7  452.15   51.09
  -5  -1  -7  286.37   62.19
  -1   6  -7  332.17   78.39
   6  -1   7  514.35   64.29
  -1   6  -7  431.76   48.70
   6  -5  -7  337.47   87.29
  -6   4   7   45.30   29.00
   4   2   7  128.09   39.60
   4   2   7   85.99   28.40
   4   2   7   -0.10   26.10
   2  -6   7   67.19   33.60
  -6   2  -7   23.20   49.60
   4  -6  -7   -8.10   61.49
   2   4  -7   49.50   51.29
   4   2   7   72.09   49.10
   6  -2   7  105.79   37.50
   6  -2   7   43.80   32.90
   6  -2   7  -19.80   29.60
   6  -4  -7   49.90   53.49
  -2   6  -7   43.60   23.60
  -2   6  -7   43.20   51.19
   6  -2   7   97.59   45.10
  -2  -4   7   41.20   33.00
   3  -6  -7  208.58   67.09
   3   3   7  180.68   31.80
   3  -6   7  209.98   47.90
   3   3  -7  266.87   61.49
  -6   3  -7  166.08   53.79
  -6   3   7  257.67   44.90
   3  -6   7  153.18   39.20
   6  -3   7  150.78   36.20
   6  -3   7  202.08   39.10
  -3  -3   7  232.18   47.40
  -3   6  -7  286.27   72.89
   6  -3  -7  188.28   57.89
  -3   6  -7  252.07   40.20
   2   4   7  133.59   49.40
   4   2  -7  119.09   55.29
   2   4   7  132.99   40.00
   2   4   7   95.69   27.10
   2  -6  -7  129.29   33.10
  -6   4  -7   73.59   52.99
   2  -6  -7  -24.30   89.29
   4  -6   7   81.99   34.60
  -6   2   7   76.79   30.80
   6  -4   7   65.59   34.00
   6  -4   7   33.90   32.10
   6  -2  -7   32.10   51.39
  -4   6  -7  102.69   53.89
  -4  -2   7  113.99   33.40
   6  -4   7  216.08   54.39
  -4   6  -7   84.49   26.50
   1   5   7   72.69   48.70
  -6   5  -7    9.80   49.10
  -6   1   7   -0.20   27.50
  -6   5  -7   41.50   21.60
   1  -6  -7   -1.10   28.50
   5   1  -7  -26.00   51.09
   1   5   7  -29.00   39.90
   5  -6   7   69.69   37.80
  -5   6  -7  -17.90   46.60
   6  -5   7  -56.69   30.80
   6  -5   7  -55.79   31.30
  -5   6  -7   23.80   21.00
   6  -1  -7    2.90   50.49
  -1  -5  -7   -4.50   29.20
  -5  -1   7   14.00   30.60
  -6   6  -7  -29.10   23.50
   6   0  -7   19.80   51.89
   6  -6   7   11.80   37.90
   0  -6  -7    0.30   37.80
  -6   0   7  -27.70   28.70
  -6   6  -7   29.20   52.49
   7   0   7  540.15   50.09
   7   0   7  344.07   68.69
   0   7  -7  300.07   79.09
   7  -7  -7  361.06   83.39
   7   0   7  485.65   72.49
   0  -7   7  438.06   53.99
   6   1   7  133.49   35.40
   6   1   7   72.19   28.80
   1  -7   7  117.99   43.30
   1   6  -7  119.49   51.79
  -7   6   7  124.69   31.00
   6  -7  -7   95.49   62.69
  -7   1  -7   82.09   51.59
   7  -1   7  120.29   47.80
  -6  -1  -7   68.89   49.10
  -1  -6   7  135.19   38.90
   7  -1   7   72.89   33.10
   7  -6  -7  136.29   57.99
  -1   7  -7  124.19   52.29
   7  -1   7   88.29   37.80
   5   2   7  719.53   76.39
   5  -7  -7  683.53   93.29
  -7   5   7  711.43   51.99
   2  -7   7  661.03   60.19
   2   5  -7  610.44   86.49
  -7   2  -7  623.54   82.29
   5   2   7  863.91   54.09
   5  -7  -7  741.03   52.69
   7  -2   7  823.52   70.59
   7  -2   7  816.62   57.99
   7  -2   7  864.11   71.39
  -2   7  -7  719.43   52.49
   7  -5  -7  764.72   91.49
   7  -2   7  650.23   60.49
  -2   7  -7  710.33   86.09
  -2  -5   7  699.43   58.19
  -5  -2  -7  528.85   78.39
   3   4  -7  342.17   84.69
   4  -7  -7  403.26   46.90
   3  -7   7  312.77   60.79
  -7   4   7  410.06   46.50
   4   3   7  352.66   48.70
   3  -7   7  304.57   52.79
   4  -7  -7  334.27   75.89
  -7   3  -7  294.27   62.29
   7  -3   7  349.67   51.49
   7  -4  -7  407.66   81.39
   7  -3   7  480.95   64.89
  -3   7  -7  379.36   45.60
  -3  -4   7  428.06   50.39
   7  -3   7  298.67   42.70
  -3   7  -7  272.57   75.09
   4  -7   7  -47.40   32.20
   3  -7  -7  -93.69   77.39
   4   3  -7  -14.60   49.30
  -7   3   7   18.50   30.00
   3   4   7   77.59   50.19
  -7   4  -7  -36.60   48.20
   4  -7   7   67.59   47.30
   3  -7  -7   37.90   27.70
   3   4   7   31.90   25.50
  -4   7  -7   29.90   51.09
   7  -4   7  -35.50   29.80
  -4  -3   7   54.59   32.10
   7  -3  -7   20.70   50.89
  -4   7  -7   48.10   23.30
   7  -4   7  122.89   44.00
   5  -7   7    9.00   35.20
   2  -7  -7   40.00   28.60
  -7   5  -7   36.10   51.29
   5  -7   7   22.80   35.60
   2   5   7  123.79   51.19
   2   5   7   50.59   27.10
  -7   2   7   60.59   32.80
   5   2  -7   78.59   53.09
   5  -7   7  133.99   38.00
   7  -2  -7   67.29   50.29
  -2  -5  -7   75.39   30.20
  -5  -2   7   65.59   31.10
  -5   7  -7   54.29   50.59
  -5   7  -7   24.70   25.40
   7  -5   7  128.89   41.60
   7  -5   7  -12.70   32.50
   6  -7   7   51.79   38.80
   1  -7  -7   19.80   29.50
   6  -7   7  -32.40   35.60
   6  -7   7  -25.80   34.70
  -7   6  -7  -37.00   46.60
  -7   1   7   -5.60   29.60
   6   1  -7    5.80   49.20
   7  -1  -7   -9.10   46.10
   7  -6   7   72.79   41.90
  -6  -1   7   15.20   31.40
  -1   7   7  136.09   50.29
  -6   7  -7   -0.80   50.09
   0  -7  -7   25.90   30.70
   7  -7   7   94.09   40.40
  -7   0   7   -6.40   31.40
   7   0  -7   30.90   49.60
  -7   7  -7   32.90   50.59
   8   0   7  119.79   34.40
   8   0   7   65.69   53.79
   8  -8  -7   58.19   57.69
   0  -8   7  -20.00   36.90
   0   8  -7   50.59   52.59
  -8   0  -7   36.50   45.30
   1   7  -7  583.24   83.39
   1  -8   7  496.25   59.59
  -8   1  -7  572.44   79.09
   7   1   7  763.92   55.29
   7  -8  -7  716.23   93.19
   8  -1   7  846.02   75.29
  -7  -1  -7  571.54   80.29
  -1  -7   7  549.74   58.69
   8  -7  -7  680.03   89.89
   8  -1   7  747.53   56.39
  -1   8  -7  581.44   82.79
  -8   6   7  392.16   46.30
  -8   2  -7  269.57   72.49
   6   2   7  443.46   71.19
   6  -8  -7  307.17   76.59
   6   2   7  276.07   48.40
   6  -8  -7  336.27   44.70
   2  -8   7  181.88   56.29
  -2   8  -7  236.98   60.19
   8  -2   7  443.36   51.79
  -2  -6   7  385.06   53.09
   8  -6  -7  357.46   84.89
  -6  -2  -7  279.77   70.59
   3   5  -7   15.60   53.69
   5   3   7    6.10   26.70
   5  -8  -7   40.80   28.30
   5   3   7   94.79   49.00
  -8   5   7   24.30   29.30
   5  -8  -7   29.20   60.99
  -8   3  -7  -58.39   46.70
  -3   8  -7   60.19   24.60
  -5  -3  -7  -49.20   46.00
   8  -3   7  -55.69   31.70
   8  -5  -7   40.70   53.49
   8  -3   7  111.99   48.70
  -3  -5   7   15.30   32.50
  -3   8  -7   13.30   51.09
  -8   4  -7  109.39   50.29
   4   4   7  142.69   55.59
  -8   4   7   95.49   30.70
   4  -8   7   36.30   39.30
   4   4   7  206.58   42.70
   4  -8  -7  135.59   31.70
   4   4  -7  107.79   54.29
   4  -8  -7   96.59   78.89
  -4  -4  -7   93.89   54.89
  -4   8  -7  164.98   30.30
  -4  -4   7  125.59   36.50
  -4   8  -7  119.99   55.39
   8  -4  -7  189.48   59.59
   8  -4   7  247.08   56.79
   5  -8   7  137.89   41.00
   5  -8   7  189.58   47.70
   5   3  -7  131.59   55.09
   3   5   7  128.69   30.90
   3   5   7  275.87   68.59
  -8   5  -7  146.79   54.49
   3  -8  -7  183.88   42.10
  -8   3   7  151.88   34.30
   8  -3  -7  201.98   59.29
   8  -5   7  231.08   57.79
  -3  -5  -7  204.38   42.50
  -5   8  -7  207.28   41.00
   8  -5   7  120.09   38.30
  -5  -3   7  171.38   37.10
  -5   8  -7  142.59   55.59
   2  -8  -7   70.89   32.20
   2   6   7  134.99   48.30
  -8   6  -7  -18.20   48.70
  -8   2   7   27.30   29.90
   6  -8   7   54.49   38.40
   6   2  -7   24.00   54.29
   6  -8   7   64.49   38.70
   2  -8  -7  -51.49  105.09
  -6  -2   7   38.40   31.50
  -2  -6  -7   25.60   31.80
  -6   8  -7   50.59   24.10
   8  -6   7   94.19   42.20
   8  -6   7  -49.80   35.40
  -2   8   7  108.09   48.60
   8  -2  -7   43.20   51.09
  -6   8  -7   26.80   50.29
   1   7   7  308.57   67.49
  -8   7  -7  221.38   62.69
   7  -8   7  228.28   50.49
   1  -8  -7  232.68   43.80
  -8   1   7  194.58   46.40
   7   1  -7  158.68   52.59
   1  -8  -7  194.68  102.59
   7  -8   7  161.78   43.30
   8  -1  -7  148.79   53.89
  -1  -7  -7  196.68   45.60
  -1   8   7  287.37   66.99
   8  -7   7  240.68   56.69
  -7  -1   7  205.28   39.70
  -7   8  -7  270.97   40.90
  -7   8  -7  176.08   56.19
  -8   8  -7   88.09   55.29
   8  -8   7  144.29   43.60
  -8   0   7  135.39   36.90
   0   8   7  138.69   51.89
   0  -8  -7   88.69   33.20
   0  -8  -7 -118.49  105.49
   8   0  -7   29.40   47.40
   2   7  -7    4.70   52.89
   7  -9  -7   56.59   60.19
   7  -9  -7   66.39   30.40
  -9   2  -7   55.59   45.40
   2  -9   7  -37.50   37.20
  -9   7   7   38.60   30.90
   7   2   7   70.89   53.99
  -7  -2  -7    7.30   50.29
   9  -2   7  -33.70   38.20
   9  -7  -7    2.30   54.09
   9  -2   7   43.60   47.40
  -2  -7   7    5.60   33.80
  -2   9  -7   35.40   51.49
   6   3   7  214.08   47.30
   6  -9  -7  220.18   71.69
  -9   6   7  197.58   46.00
  -9   3  -7  263.17   57.19
   3   6  -7  185.98   55.19
   6  -9  -7  225.98   44.40
  -3  -6   7  190.78   38.50
  -3   9  -7  235.88   61.59
   9  -3   7  339.87   64.19
   9  -6  -7  259.27   68.89
  -6  -3  -7  244.38   59.69
   9  -3   7  146.99   39.40
  -9   5   7  203.48   44.50
   5  -9  -7   60.99   65.79
  -9   4  -7   83.69   48.60
   4   5  -7   77.29   50.99
   5   4   7  176.58   58.29
   4  -9   7  123.39   41.10
   5  -9  -7  151.88   34.40
   9  -5  -7  110.59   59.99
  -4   9  -7   83.19   52.19
   9  -4   7  167.58   49.20
  -4  -5   7  154.88   36.80
  -4   9  -7  137.79   29.20
  -5  -4  -7  121.29   53.39
   4   5   7  113.19   52.79
  -9   5  -7   29.00   46.30
   5   4  -7  -15.40   48.60
   5  -9   7  -12.20   44.80
   4  -9  -7   66.59   32.70
   5  -9   7  -49.40   35.70
  -9   4   7   34.40   32.10
   5  -9   7  -48.80   37.40
  -5  -4   7   40.70   32.70
  -5   9  -7    9.50   48.40
  -4  -5  -7   31.20   29.50
  -4  -5  -7   25.70   50.69
   9  -4  -7   24.90   52.59
   9  -5   7   77.29   45.50
  -5   9  -7   71.59   25.20
   6  -9   7   -0.20   39.30
   3  -9  -7   94.59   31.60
   6   3  -7   88.39   49.90
   6  -9   7  188.38   47.70
  -9   6  -7  105.79   50.29
  -9   3   7   78.49   34.40
  -6   9  -7   94.79   54.69
   9  -3  -7   77.29   53.99
  -6   9  -7   44.80   27.70
   9  -6   7  122.39   42.70
  -3  -6  -7   84.39   33.30
  -6  -3   7   99.39   35.70
  -3  -6  -7  -30.90   53.29
   9  -6   7   38.60   40.70
  -3   9   7  141.99   54.99
   7  -9   7   33.60   38.60
   7   2  -7   42.30   49.80
  -9   7  -7   57.29   52.19
   2  -9  -7   69.89   30.70
   7  -9   7    4.60   35.80
  -9   2   7   69.89   30.60
   2  -9  -7    6.70   64.99
  -2  -7  -7   16.70   30.60
  -7   9  -7   55.99   53.19
   9  -2  -7   25.70   54.09
   9  -7   7   47.10   42.30
   9  -7   7  105.69   45.00
  -2   9   7  110.49   54.19
  -7  -2   7  100.39   35.80
  -7   9  -7   87.99   25.50
   0   0   0    0.00    0.00

_computing_structure_solution     'SHELXT 2014/5 (Sheldrick, 2014)'
;
_shelx_hkl_checksum              52855
_shelx_shelxl_version_number     2016/6
_olex2_submission_special_instructions 'No special instructions were received'
loop_
_space_group_symop_operation_xyz
'x, y, z'
'-y, x-y, z+2/3'
'-x+y, -x, z+1/3'
'y, x, -z'
'x-y, -y, -z+1/3'
'-x, -x+y, -z+2/3'
loop_
_atom_site_label
_atom_site_type_symbol
_atom_site_fract_x
_atom_site_fract_y
_atom_site_fract_z
_atom_site_U_iso_or_equiv
_atom_site_adp_type
_atom_site_occupancy
_atom_site_site_symmetry_order
_atom_site_calc_flag
_atom_site_refinement_flags_posn
_atom_site_refinement_flags_adp
_atom_site_refinement_flags_occupancy
_atom_site_disorder_assembly
_atom_site_disorder_group
Zn1 Zn 0.39350(7) 0.72184(6) 0.64646(16) 0.0261(4) Uani 1 1 d . . . . .
O1 O 0.4133(4) 0.6524(5) 0.7918(9) 0.0275(19) Uani 1 1 d . . . . .
O2 O 0.3540(4) 0.6398(4) 0.4345(9) 0.0213(16) Uani 1 1 d . . . . .
O3 O 0.3795(5) 0.5873(4) 0.2001(10) 0.030(2) Uani 1 1 d . . . . .
O4 O 0.4968(6) 0.7841(8) 0.5214(18) 0.092(4) Uani 1 1 d D U . . .
O5 O 0.5772(16) 0.7925(19) 0.679(4) 0.123(12) Uani 0.5 1 d D U P A .
C1 C 0.4426(6) 0.6178(7) 0.7098(16) 0.033(3) Uani 1 1 d . . . . .
C2 C 0.4327(7) 0.5974(7) 0.5052(17) 0.034(3) Uani 1 1 d . . . . .
C3 C 0.4673(8) 0.5642(8) 0.4322(17) 0.040(3) Uani 1 1 d . . . . .
H3 H 0.461610 0.552261 0.298220 0.048 Uiso 1 1 calc R . . . .
C4 C 0.5104(8) 0.5468(8) 0.5432(18) 0.045(4) Uani 1 1 d . . . . .
C5 C 0.5186(9) 0.5665(9) 0.7362(16) 0.052(4) Uani 1 1 d . . . . .
H5 H 0.548721 0.557054 0.815874 0.063 Uiso 1 1 calc R . . . .
C6 C 0.4838(9) 0.6001(9) 0.8179(17) 0.052(4) Uani 1 1 d . . . . .
H6 H 0.489142 0.610738 0.952680 0.062 Uiso 1 1 calc R . . . .
C7 C 0.3865(6) 0.6106(6) 0.3718(14) 0.020(2) Uani 1 1 d . . . . .
C8 C 0.5532(16) 0.787(3) 0.514(5) 0.091(10) Uani 0.5 1 d D U P . .
N2 N 0.5809(18) 0.778(2) 0.343(5) 0.106(9) Uani 0.5 1 d D U P A -1
N3 N 0.5652(18) 0.863(2) -0.102(5) 0.122(13) Uani 0.5 1 d D U P A -1
H3A H 0.517652 0.841439 -0.127045 0.146 Uiso 0.5 1 calc R . P A -1
H3B H 0.583382 0.839563 -0.171104 0.146 Uiso 0.5 1 calc R . P A -1
C9 C 0.649(3) 0.787(3) 0.321(8) 0.122(14) Uani 0.5 1 d D U P A -1
H9A H 0.673764 0.821608 0.214681 0.146 Uiso 0.5 1 calc R . P A -1
H9B H 0.676475 0.808393 0.441396 0.146 Uiso 0.5 1 calc R . P A -1
C10 C 0.654(4) 0.726(4) 0.280(11) 0.21(3) Uani 0.5 1 d D U P A -1
H10A H 0.703622 0.738516 0.267723 0.247 Uiso 0.25 1 calc R . P A -1
H10B H 0.631337 0.691182 0.385583 0.247 Uiso 0.25 1 calc R . P A -1
H10C H 0.628615 0.704447 0.158013 0.247 Uiso 0.25 1 calc R . P A -1
H10D H 0.605428 0.684248 0.273156 0.247 Uiso 0.25 1 calc R . P A -1
H10E H 0.677713 0.731581 0.155296 0.247 Uiso 0.25 1 calc R . P A -1
H10F H 0.680434 0.718316 0.382866 0.247 Uiso 0.25 1 calc R . P A -1
C11 C 0.553(2) 0.786(3) 0.164(6) 0.112(12) Uani 0.5 1 d . U P A -1
H11A H 0.500468 0.759641 0.170471 0.135 Uiso 0.5 1 calc R . P A -1
H11B H 0.567416 0.764223 0.058866 0.135 Uiso 0.5 1 calc R . P A -1
C12 C 0.578(3) 0.860(3) 0.119(5) 0.112(13) Uani 0.5 1 d D U P A -1
H12A H 0.629650 0.888942 0.149323 0.135 Uiso 0.5 1 calc R . P A -1
H12B H 0.551882 0.877444 0.195519 0.135 Uiso 0.5 1 calc R . P A -1
C13 C 0.604(3) 0.945(3) -0.161(7) 0.154(19) Uani 0.5 1 d D U P A -1
H13A H 0.585407 0.969529 -0.080832 0.185 Uiso 0.5 1 calc R . P A -1
H13B H 0.655677 0.966660 -0.137005 0.185 Uiso 0.5 1 calc R . P A -1
C14 C 0.592(4) 0.952(4) -0.361(8) 0.22(4) Uani 0.5 1 d D U P A -1
H14A H 0.615905 1.002204 -0.396233 0.261 Uiso 0.25 1 calc R . P A -1
H14B H 0.610739 0.927340 -0.440921 0.261 Uiso 0.25 1 calc R . P A -1
H14C H 0.540599 0.930205 -0.384853 0.261 Uiso 0.25 1 calc R . P A -1
H14D H 0.562257 0.904296 -0.418439 0.261 Uiso 0.25 1 calc R . P A -1
H14E H 0.567423 0.979159 -0.373750 0.261 Uiso 0.25 1 calc R . P A -1
H14F H 0.637563 0.976294 -0.429819 0.261 Uiso 0.25 1 calc R . P A -1
loop_
_atom_site_aniso_label
_atom_site_aniso_U_11
_atom_site_aniso_U_22
_atom_site_aniso_U_33
_atom_site_aniso_U_23
_atom_site_aniso_U_13
_atom_site_aniso_U_12
Zn1 0.0340(8) 0.0267(7) 0.0191(6) -0.0040(5) -0.0017(5) 0.0164(6)
O1 0.038(4) 0.048(5) 0.016(4) -0.009(4) -0.005(3) 0.036(5)
O2 0.025(4) 0.033(4) 0.017(3) -0.006(3) -0.005(3) 0.022(4)
O3 0.044(5) 0.046(5) 0.016(4) -0.007(4) -0.004(4) 0.036(5)
O4 0.053(6) 0.098(10) 0.092(8) -0.006(8) 0.011(6) 0.014(8)
O5 0.095(19) 0.16(3) 0.065(12) -0.012(17) -0.022(13) 0.023(19)
C1 0.039(7) 0.057(9) 0.015(6) -0.005(6) 0.000(5) 0.032(7)
C2 0.037(7) 0.050(8) 0.024(6) -0.004(6) -0.006(5) 0.029(6)
C3 0.067(10) 0.067(9) 0.016(6) -0.008(6) -0.009(6) 0.056(8)
C4 0.081(10) 0.069(10) 0.024(6) -0.007(6) -0.011(7) 0.067(9)
C5 0.096(12) 0.101(13) 0.011(6) -0.005(7) -0.010(7) 0.087(11)
C6 0.093(12) 0.096(13) 0.009(5) -0.005(7) -0.002(7) 0.078(11)
C7 0.031(6) 0.022(6) 0.010(5) 0.002(4) -0.001(5) 0.016(5)
C8 0.058(14) 0.13(3) 0.065(11) 0.003(17) 0.007(11) 0.030(16)
N2 0.067(15) 0.17(2) 0.064(11) -0.012(16) -0.003(12) 0.051(17)
N3 0.057(18) 0.17(3) 0.079(16) 0.008(19) -0.019(16) 0.013(19)
C9 0.09(2) 0.17(4) 0.11(3) -0.04(3) -0.004(19) 0.07(2)
C10 0.20(5) 0.18(5) 0.25(7) -0.07(5) 0.03(5) 0.10(4)
C11 0.08(2) 0.16(3) 0.075(14) -0.01(2) -0.007(17) 0.05(2)
C12 0.08(2) 0.16(3) 0.075(17) -0.02(2) -0.019(19) 0.04(2)
C13 0.08(3) 0.18(3) 0.11(3) 0.03(3) -0.02(3) 0.00(3)
C14 0.24(7) 0.18(5) 0.12(3) 0.04(4) -0.05(4) 0.02(5)
loop_
_atom_type_symbol
_atom_type_description
_atom_type_scat_dispersion_real
_atom_type_scat_dispersion_imag
_atom_type_scat_source
C C 0.0040 0.0020
'ANOMDisVal Program in PLATON Spek, A. L. J. Appl. Crystallogr. 2003, 36, 7-13'
H H 0.0000 0.0000
'ANOMDisVal Program in PLATON Spek, A. L. J. Appl. Crystallogr. 2003, 36, 7-13'
N N 0.0080 0.0040
'ANOMDisVal Program in PLATON Spek, A. L. J. Appl. Crystallogr. 2003, 36, 7-13'
O O 0.0140 0.0070
'ANOMDisVal Program in PLATON Spek, A. L. J. Appl. Crystallogr. 2003, 36, 7-13'
Zn Zn 0.2280 1.6720
'ANOMDisVal Program in PLATON Spek, A. L. J. Appl. Crystallogr. 2003, 36, 7-13'
loop_
_geom_angle_atom_site_label_1
_geom_angle_atom_site_label_2
_geom_angle_atom_site_label_3
_geom_angle
_geom_angle_site_symmetry_1
_geom_angle_site_symmetry_3
O1 Zn1 O1 160.7(3) . 2_664
O1 Zn1 O2 80.6(3) 2_664 .
O1 Zn1 O2 78.5(3) . 3_565
O1 Zn1 O2 82.1(3) . .
O1 Zn1 O2 89.7(3) 2_664 3_565
O1 Zn1 O3 98.5(3) . 2_665
O1 Zn1 O4 97.2(5) . .
O1 Zn1 O4 93.2(5) 2_664 .
O2 Zn1 O2 78.81(8) . 3_565
O2 Zn1 O4 96.2(4) . .
O3 Zn1 O1 96.9(3) 2_665 2_664
O3 Zn1 O2 169.6(3) 2_665 .
O3 Zn1 O2 91.1(3) 2_665 3_565
O3 Zn1 O4 94.0(4) 2_665 .
O4 Zn1 O2 173.7(5) . 3_565
Zn1 O1 Zn1 101.6(3) . 3_565
C1 O1 Zn1 124.0(8) . 3_565
C1 O1 Zn1 123.3(7) . .
Zn1 O2 Zn1 92.8(3) . 2_664
C7 O2 Zn1 125.1(7) . .
C7 O2 Zn1 136.2(7) . 2_664
C7 O3 Zn1 125.5(7) . 3_564
C8 O4 Zn1 140(2) . .
O1 C1 C2 122.9(10) . .
O1 C1 C6 119.7(10) . .
C6 C1 C2 117.5(11) . .
C1 C2 C7 123.2(10) . .
C3 C2 C1 118.6(11) . .
C3 C2 C7 118.2(10) . .
C2 C3 H3 118.1 . .
C2 C3 C4 123.9(11) . .
C4 C3 H3 118.1 . .
C3 C4 C4 121.8(13) . 4_556
C5 C4 C3 116.3(11) . .
C5 C4 C4 121.9(13) . 4_556
C4 C5 H5 119.1 . .
C4 C5 C6 121.8(11) . .
C6 C5 H5 119.1 . .
C1 C6 C5 121.9(11) . .
C1 C6 H6 119.1 . .
C5 C6 H6 119.1 . .
O2 C7 O3 123.2(10) . .
O2 C7 C2 119.5(9) . .
O3 C7 C2 117.2(10) . .
O4 C8 O5 109(4) . .
O4 C8 N2 122(3) . .
O5 C8 N2 128(3) . .
C8 N2 C9 125(3) . .
C8 N2 C11 119(3) . .
C9 N2 C11 112(4) . .
H3A N3 H3B 108.6 . .
C12 N3 H3A 110.3 . .
C12 N3 H3B 110.3 . .
C12 N3 C13 107(4) . .
C13 N3 H3A 110.3 . .
C13 N3 H3B 110.3 . .
N2 C9 H9A 108.0 . .
N2 C9 H9B 108.0 . .
H9A C9 H9B 107.3 . .
C10 C9 N2 117(5) . .
C10 C9 H9A 108.0 . .
C10 C9 H9B 108.0 . .
C9 C10 H10A 109.5 . .
C9 C10 H10B 109.5 . .
C9 C10 H10C 109.5 . .
C9 C10 H10D 109.5 . .
C9 C10 H10E 109.5 . .
C9 C10 H10F 109.5 . .
H10A C10 H10B 109.5 . .
H10A C10 H10C 109.5 . .
H10A C10 H10D 141.1 . .
H10A C10 H10E 56.3 . .
H10A C10 H10F 56.3 . .
H10B C10 H10C 109.5 . .
H10B C10 H10D 56.3 . .
H10B C10 H10E 141.1 . .
H10B C10 H10F 56.3 . .
H10C C10 H10D 56.3 . .
H10C C10 H10E 56.3 . .
H10C C10 H10F 141.1 . .
H10D C10 H10E 109.5 . .
H10D C10 H10F 109.5 . .
H10E C10 H10F 109.5 . .
N2 C11 H11A 109.3 . .
N2 C11 H11B 109.3 . .
N2 C11 C12 112(4) . .
H11A C11 H11B 108.0 . .
C12 C11 H11A 109.3 . .
C12 C11 H11B 109.3 . .
N3 C12 H12A 110.5 . .
N3 C12 H12B 110.5 . .
C11 C12 N3 106(4) . .
C11 C12 H12A 110.5 . .
C11 C12 H12B 110.5 . .
H12A C12 H12B 108.7 . .
N3 C13 H13A 109.6 . .
N3 C13 H13B 109.6 . .
H13A C13 H13B 108.1 . .
C14 C13 N3 110(5) . .
C14 C13 H13A 109.6 . .
C14 C13 H13B 109.6 . .
C13 C14 H14A 109.5 . .
C13 C14 H14B 109.5 . .
C13 C14 H14C 109.5 . .
C13 C14 H14D 109.5 . .
C13 C14 H14E 109.5 . .
C13 C14 H14F 109.5 . .
H14A C14 H14B 109.5 . .
H14A C14 H14C 109.5 . .
H14A C14 H14D 141.1 . .
H14A C14 H14E 56.3 . .
H14A C14 H14F 56.3 . .
H14B C14 H14C 109.5 . .
H14B C14 H14D 56.3 . .
H14B C14 H14E 141.1 . .
H14B C14 H14F 56.3 . .
H14C C14 H14D 56.3 . .
H14C C14 H14E 56.3 . .
H14C C14 H14F 141.1 . .
H14D C14 H14E 109.5 . .
H14D C14 H14F 109.5 . .
H14E C14 H14F 109.5 . .
loop_
_geom_bond_atom_site_label_1
_geom_bond_atom_site_label_2
_geom_bond_distance
_geom_bond_site_symmetry_2
Zn1 O1 2.024(8) .
Zn1 O1 2.056(7) 2_664
Zn1 O2 2.241(7) 3_565
Zn1 O2 2.123(6) .
Zn1 O3 2.042(7) 2_665
Zn1 O4 2.135(12) .
O1 C1 1.329(15) .
O2 C7 1.235(13) .
O3 C7 1.266(12) .
O4 C8 1.20(3) .
O5 C8 1.23(3) .
C1 C2 1.460(16) .
C1 C6 1.357(18) .
C2 C3 1.368(17) .
C2 C7 1.490(16) .
C3 H3 0.9500 .
C3 C4 1.399(17) .
C4 C4 1.49(2) 4_556
C4 C5 1.380(17) .
C5 H5 0.9500 .
C5 C6 1.404(18) .
C6 H6 0.9500 .
C8 N2 1.38(5) .
N2 C9 1.41(5) .
N2 C11 1.42(5) .
N3 H3A 0.9100 .
N3 H3B 0.9100 .
N3 C12 1.56(4) .
N3 C13 1.59(4) .
C9 H9A 0.9900 .
C9 H9B 0.9900 .
C9 C10 1.40(5) .
C10 H10A 0.9800 .
C10 H10B 0.9800 .
C10 H10C 0.9800 .
C10 H10D 0.9800 .
C10 H10E 0.9800 .
C10 H10F 0.9800 .
C11 H11A 0.9900 .
C11 H11B 0.9900 .
C11 C12 1.44(7) .
C12 H12A 0.9900 .
C12 H12B 0.9900 .
C13 H13A 0.9900 .
C13 H13B 0.9900 .
C13 C14 1.43(5) .
C14 H14A 0.9800 .
C14 H14B 0.9800 .
C14 H14C 0.9800 .
C14 H14D 0.9800 .
C14 H14E 0.9800 .
C14 H14F 0.9800 .
loop_
_geom_hbond_atom_site_label_D
_geom_hbond_atom_site_label_H
_geom_hbond_atom_site_label_A
_geom_hbond_distance_DH
_geom_hbond_distance_HA
_geom_hbond_distance_DA
_geom_hbond_angle_DHA
_geom_hbond_site_symmetry_A
N3 H3A O3 0.91 1.97 2.87(3) 170.3 2_664
N3 H3B O5 0.91 1.41 2.25(5) 150.3 1_554
loop_
_geom_torsion_atom_site_label_1
_geom_torsion_atom_site_label_2
_geom_torsion_atom_site_label_3
_geom_torsion_atom_site_label_4
_geom_torsion
_geom_torsion_site_symmetry_1
_geom_torsion_site_symmetry_4
Zn1 O1 C1 C2 106.5(12) 3_565 .
Zn1 O1 C1 C2 -30.7(17) . .
Zn1 O1 C1 C6 -73.7(15) 3_565 .
Zn1 O1 C1 C6 149.2(11) . .
Zn1 O2 C7 O3 -148.0(9) . .
Zn1 O2 C7 O3 -3.1(17) 2_664 .
Zn1 O2 C7 C2 36.1(13) . .
Zn1 O2 C7 C2 -179.0(8) 2_664 .
Zn1 O3 C7 O2 10.8(16) 3_564 .
Zn1 O3 C7 C2 -173.2(8) 3_564 .
Zn1 O4 C8 O5 -59(6) . .
Zn1 O4 C8 N2 116(4) . .
O1 C1 C2 C3 177.5(13) . .
O1 C1 C2 C7 -3(2) . .
O1 C1 C6 C5 -176.9(15) . .
O4 C8 N2 C9 174(4) . .
O4 C8 N2 C11 17(7) . .
O5 C8 N2 C9 -12(8) . .
O5 C8 N2 C11 -168(5) . .
C1 C2 C3 C4 2(2) . .
C1 C2 C7 O2 -0.4(19) . .
C1 C2 C7 O3 -176.6(12) . .
C2 C1 C6 C5 3(2) . .
C2 C3 C4 C4 179.8(11) . 4_556
C2 C3 C4 C5 -1(2) . .
C3 C2 C7 O2 179.2(12) . .
C3 C2 C7 O3 3.1(17) . .
C3 C4 C5 C6 2(2) . .
C4 C4 C5 C6 -179.3(13) 4_556 .
C4 C5 C6 C1 -3(3) . .
C6 C1 C2 C3 -2(2) . .
C6 C1 C2 C7 177.3(13) . .
C7 C2 C3 C4 -178.0(13) . .
C8 N2 C9 C10 112(6) . .
C8 N2 C11 C12 76(5) . .
N2 C11 C12 N3 162(4) . .
C9 N2 C11 C12 -83(5) . .
C11 N2 C9 C10 -90(7) . .
C12 N3 C13 C14 -178(6) . .
C13 N3 C12 C11 -171(4) . .
loop_
_twin_individual_id
_twin_individual_mass_fraction_refined
1 0.63(5)
2 0.37(5)
