#------------------------------------------------------------------------------
#$Date: 2017-12-20 01:47:21 +0200 (Wed, 20 Dec 2017) $
#$Revision: 204365 $
#$URL: file:///home/coder/svn-repositories/cod/cif/4/12/68/4126880.cif $
#------------------------------------------------------------------------------
#
# This file is available in the Crystallography Open Database (COD),
# http://www.crystallography.net/
#
# All data on this site have been placed in the public domain by the
# contributors.
#
data_4126880
loop_
_publ_author_name
'Luo, Dong'
'Wang, Xue-Zhi'
'Yang, Chen'
'Zhou, Xiao-Ping'
'Li, Dan'
_publ_section_title
;
 Self-Assembly of Chiral Metal-Organic Tetartoid.
;
_journal_name_full               'Journal of the American Chemical Society'
_journal_paper_doi               10.1021/jacs.7b11285
_journal_year                    2017
_chemical_formula_sum            'C217 H224 Co20 F3 N72 O19 S'
_chemical_formula_weight         5412.33
_space_group_crystal_system      cubic
_space_group_IT_number           196
_space_group_name_Hall           'F 2 2 3'
_space_group_name_H-M_alt        'F 2 3'
_symmetry_space_group_name_Hall  'F 2 2 3'
_symmetry_space_group_name_H-M   'F 2 3'
_atom_sites_solution_hydrogens   difmap
_audit_creation_method           SHELXL-2014/7
_cell_angle_alpha                90
_cell_angle_beta                 90
_cell_angle_gamma                90
_cell_formula_units_Z            4
_cell_length_a                   32.9477(3)
_cell_length_b                   32.9477(3)
_cell_length_c                   32.9477(3)
_cell_measurement_reflns_used    4894
_cell_measurement_temperature    100(2)
_cell_measurement_theta_max      70.6370
_cell_measurement_theta_min      4.4330
_cell_volume                     35766.4(6)
_computing_structure_refinement  'SHELXL-2014/7 (Sheldrick, 2014)'
_diffrn_ambient_temperature      100(2)
_diffrn_detector_area_resol_mean 10
_diffrn_measured_fraction_theta_full 0.986
_diffrn_measured_fraction_theta_max 0.970
_diffrn_measurement_device_type  'XtaLAB AFC12 (RINC): Kappa single'
_diffrn_measurement_method       '\w scans'
_diffrn_radiation_type           CuK\a
_diffrn_radiation_wavelength     1.54184
_diffrn_reflns_av_R_equivalents  0.0235
_diffrn_reflns_av_unetI/netI     0.0319
_diffrn_reflns_Laue_measured_fraction_full 0.986
_diffrn_reflns_Laue_measured_fraction_max 0.970
_diffrn_reflns_limit_h_max       40
_diffrn_reflns_limit_h_min       -21
_diffrn_reflns_limit_k_max       22
_diffrn_reflns_limit_k_min       -37
_diffrn_reflns_limit_l_max       24
_diffrn_reflns_limit_l_min       -25
_diffrn_reflns_number            8600
_diffrn_reflns_point_group_measured_fraction_full 0.875
_diffrn_reflns_point_group_measured_fraction_max 0.846
_diffrn_reflns_theta_full        67.684
_diffrn_reflns_theta_max         70.952
_diffrn_reflns_theta_min         3.795
_diffrn_source                   'fine-focus sealed X-ray tube'
_exptl_absorpt_coefficient_mu    7.519
_exptl_absorpt_correction_T_max  1
_exptl_absorpt_correction_T_min  0.50324
_exptl_absorpt_correction_type   multi-scan
_exptl_crystal_colour            purple
_exptl_crystal_density_diffrn    1.005
_exptl_crystal_description       polyhedron
_exptl_crystal_F_000             11060
_exptl_crystal_size_max          0.19
_exptl_crystal_size_mid          0.16
_exptl_crystal_size_min          0.15
_refine_diff_density_max         1.294
_refine_diff_density_min         -0.503
_refine_diff_density_rms         0.119
_refine_ls_abs_structure_details
;
 Flack x determined using 1646 quotients [(I+)-(I-)]/[(I+)+(I-)]
 (Parsons, Flack and Wagner, Acta Cryst. B69 (2013) 249-259).
;
_refine_ls_abs_structure_Flack   -0.004(7)
_refine_ls_extinction_method     none
_refine_ls_goodness_of_fit_ref   1.080
_refine_ls_hydrogen_treatment    constr
_refine_ls_matrix_type           full
_refine_ls_number_parameters     256
_refine_ls_number_reflns         4907
_refine_ls_number_restraints     2
_refine_ls_restrained_S_all      1.093
_refine_ls_R_factor_all          0.0791
_refine_ls_R_factor_gt           0.0741
_refine_ls_shift/su_max          0.082
_refine_ls_shift/su_mean         0.002
_refine_ls_structure_factor_coef Fsqd
_refine_ls_weighting_details
'w=1/[\s^2^(Fo^2^)+(0.1315P)^2^+378.0255P] where P=(Fo^2^+2Fc^2^)/3'
_refine_ls_weighting_scheme      calc
_refine_ls_wR_factor_gt          0.2089
_refine_ls_wR_factor_ref         0.2162
_reflns_Friedel_coverage         0.654
_reflns_Friedel_fraction_full    0.749
_reflns_Friedel_fraction_max     0.708
_reflns_number_gt                4540
_reflns_number_total             4907
_reflns_threshold_expression     'I > 2\s(I)'
_cod_data_source_file            ja7b11285_si_002.cif
_cod_data_source_block           delta-5
_cod_original_cell_volume        35766.3(11)
_cod_database_code               4126880
_shelx_shelxl_version_number     2014/7
_shelx_space_group_comment
;
The symmetry employed for this shelxl refinement is uniquely defined
by the following loop, which should always be used as a source of
symmetry information in preference to the above space-group names.
They are only intended as comments.
;
_shelx_res_file
;

    1.res created by SHELXL-2014/7


TITL 170825a in F23 #196
REM reset to F23 #196
CELL 1.54184 32.947671 32.947671 32.947671 90 90 90
ZERR 4 0.00034 0.00034 0.00034 0 0 0
LATT -4
SYMM +Z,+X,+Y
SYMM +Y,+Z,+X
SYMM -Y,-Z,+X
SYMM +Z,-X,-Y
SYMM -Y,+Z,-X
SYMM -Z,-X,+Y
SYMM -Z,+X,-Y
SYMM +Y,-Z,-X
SYMM -X,-Y,+Z
SYMM +X,-Y,-Z
SYMM -X,+Y,-Z
SFAC C H N O Co S F
UNIT 868 896 288 76 80 4 12
DELU C19 F1
DELU O4 S1
EADP S1 C19
EADP F1 O4
EXYZ F1 O4
EXYZ C19 S1

L.S. 25 0 0
PLAN  1
BOND
fmap 2 53
acta
WGHT    0.131500  378.025482
FVAR       0.41343
CO1   5    0.859244    0.640756    0.140756    10.33333    0.02550    0.02550 =
         0.02550   -0.00215    0.00215    0.00215
CO3   5    0.861607    0.638393   -0.138393    10.33333    0.03380    0.03380 =
         0.03380    0.00090   -0.00090    0.00090
CO2   5    0.781350    0.546027    0.004014    11.00000    0.03090    0.03185 =
         0.02839   -0.00387    0.00209    0.00028
O1    4    0.823824    0.500000    0.000000    10.50000    0.01566    0.01059 =
         0.01737   -0.00125    0.00000    0.00000
O2    4    0.744777    0.500000    0.000000    10.50000    0.02466    0.03575 =
         0.04470   -0.00502    0.00000    0.00000
C17   1    0.833452    0.589305    0.066751    11.00000    0.01793    0.02379 =
         0.02778   -0.00536    0.00089   -0.00417
N3    3    0.735843    0.594638    0.005535    11.00000    0.02939    0.03368 =
         0.02731   -0.00451    0.00102    0.00528
C15   1    0.806749    0.576896    0.126038    11.00000    0.02427    0.02354 =
         0.01869   -0.00129    0.00267    0.00217
C2    1    0.825605    0.581573   -0.074903    11.00000    0.02341    0.03352 =
         0.03092   -0.00584    0.00564   -0.00001
N4    3    0.803595    0.560836    0.059966    11.00000    0.02197    0.02675 =
         0.02223   -0.00107    0.00562    0.00353
C16   1    0.787243    0.553386    0.097286    11.00000    0.02211    0.02006 =
         0.02492   -0.00252    0.00136   -0.00141
AFIX   3
H16   2    0.766173    0.535356    0.102546    11.00000   -1.20000
AFIX   0
N5    3    0.835799    0.599642    0.106006    11.00000    0.01885    0.02188 =
         0.02120    0.00127   -0.00084    0.00086
C18   1    0.859856    0.604633    0.033308    11.00000    0.02897    0.03802 =
         0.01666   -0.00340    0.00254   -0.00215
AFIX   7
H18A  2    0.867191    0.582396    0.015956    11.00000   -1.50000
H18B  2    0.883959    0.616533    0.044559    11.00000   -1.50000
H18C  2    0.845462    0.624692    0.017805    11.00000   -1.50000
AFIX   0
N2    3    0.797985    0.580052   -0.045537    11.00000    0.02843    0.02410 =
         0.02922   -0.00672    0.00019    0.00182
C8    1    0.689344    0.594011    0.106381    11.00000    0.02771    0.03136 =
         0.03548   -0.00308    0.00486    0.00002
AFIX   3
H8    2    0.670884    0.573221    0.101471    11.00000   -1.20000
AFIX   0
C13   1    0.777464    0.686076    0.131598    11.00000    0.02005    0.03223 =
         0.02900   -0.00636    0.00637    0.00325
AFIX   3
H13A  2    0.768024    0.711186    0.119458    11.00000   -1.20000
H13B  2    0.778014    0.690076    0.160758    11.00000   -1.20000
AFIX   0
C6    1    0.699691    0.599391    0.031866    11.00000    0.02955    0.03786 =
         0.04230   -0.00650    0.00573    0.00293
AFIX   3
H6A   2    0.682201    0.620081    0.020346    11.00000   -1.20000
H6B   2    0.684621    0.574111    0.032416    11.00000   -1.20000
AFIX   0
C4    1    0.777059    0.616250   -0.047914    11.00000    0.03002    0.03397 =
         0.03326    0.00000   -0.00073    0.00343
N6    3    0.819096    0.678803    0.117797    11.00000    0.02613    0.02656 =
         0.02439   -0.00105    0.00415    0.00438
C3    1    0.794222    0.639021   -0.077560    11.00000    0.03317    0.03584 =
         0.03312    0.00363    0.00465    0.00992
AFIX   3
H3    2    0.786302    0.665031   -0.085160    11.00000   -1.20000
AFIX   0
C10   1    0.723675    0.636197    0.153536    11.00000    0.02256    0.03116 =
         0.02863   -0.00323    0.00490    0.00147
AFIX   3
H10   2    0.727595    0.644777    0.180136    11.00000   -1.20000
AFIX   0
C9    1    0.695504    0.607289    0.145603    11.00000    0.02845    0.02920 =
         0.04067   -0.00111    0.00859    0.00206
AFIX   3
H9    2    0.680164    0.596559    0.166733    11.00000   -1.20000
AFIX   0
C12   1    0.740036    0.641133    0.082153    11.00000    0.02176    0.02815 =
         0.03361    0.00015    0.01172    0.00019
AFIX   3
H12   2    0.754526    0.652783    0.060923    11.00000   -1.20000
AFIX   0
C14   1    0.800077    0.587063    0.167313    11.00000    0.02138    0.02502 =
         0.01929   -0.00160    0.00444    0.00267
AFIX   3
H14   2    0.781897    0.572853    0.183573    11.00000   -1.20000
AFIX   0
C11   1    0.747260    0.653757    0.122118    11.00000    0.02509    0.02480 =
         0.02578    0.00166    0.00679    0.00067
N1    3    0.824689    0.616564   -0.094722    11.00000    0.02739    0.02093 =
         0.03253   -0.00430    0.00598    0.00012
C5    1    0.743963    0.622767   -0.020616    11.00000    0.02671    0.03076 =
         0.03880   -0.00139    0.00173    0.00462
AFIX   3
H5    2    0.728482    0.646347   -0.021756    11.00000   -1.20000
AFIX   0
C1    1    0.853293    0.547680   -0.084476    11.00000    0.03347    0.02900 =
         0.03763   -0.00531    0.00271    0.00135
AFIX   7
H1A   2    0.847174    0.524984   -0.067245    11.00000   -1.50000
H1B   2    0.880842    0.556070   -0.080058    11.00000   -1.50000
H1C   2    0.849863    0.539903   -0.112350    11.00000   -1.50000
AFIX   0
O3    4    0.825477    0.674523   -0.174523    10.33333    0.07230    0.07230 =
         0.07230    0.00591   -0.00591    0.00591
AFIX   7
H3A   2    0.817705    0.721460   -0.183016    10.33333   -1.50000
H3B   2    0.790498    0.669117   -0.207725    10.33333   -1.50000
AFIX   0
C7    1    0.710661    0.611103    0.073923    11.00000    0.02792    0.03077 =
         0.02761   -0.00163    0.00967    0.00348
PART   1
F1    7    0.750000    0.750000    0.198336    10.25000    0.17599    0.08515 =
         0.07572    0.00000    0.00000   -0.01254
C19   1    0.772653    0.772653    0.227347    10.08333    0.01761    0.01761 =
         0.01761    0.00294    0.00294   -0.00294
PART 2
O4    4    0.750000    0.750000    0.198336    10.25000    0.17599    0.08515 =
         0.07572    0.00000    0.00000   -0.01254
S1    6    0.772653    0.772653    0.227347    10.08333    0.01761    0.01761 =
         0.01761    0.00294    0.00294   -0.00294
PART   0

HKLF 4

REM  170825a in F23 #196
REM R1 =  0.0741 for    4540 Fo > 4sig(Fo)  and  0.0791 for all    4907 data
REM    256 parameters refined using      2 restraints

END

WGHT      0.1341    361.9228

REM Highest difference peak  1.294,  deepest hole -0.503,  1-sigma level  0.119
Q1    1   0.7594  0.7594  0.2406  10.33333  0.05    1.13
;
_shelx_res_checksum              74798
_shelx_hkl_file
;
   2   2  -2 1063798    4931                                                      194472 1198.96 -218.30  1.0000
   2   0  -2   81561    1126                                                       46932  141.47    4.27  1.0000
  -2   0   2   73795    1126                                                       41087  141.47   -4.27  1.0000
  -1   3   1  210457    1783                                                       69871 -399.61  -66.31  1.0000
   3   3  -3  325300    7477                                                      294892   95.56  355.81  1.0000
   3   1  -3    6684     137                                                        4988  -88.46  -93.50  1.0000
  -3   1   3    6309     144                                                        4375  -90.31  -97.10  1.0000
   3  -1  -3    6257     135                                                        4306  -90.31   97.10  1.0000
   0   4   0  149330      33                                                         341  828.44  -14.72  1.0000
  -4   0   2  548450    5007                                                      201097 -599.34   -0.04  1.0000
  -2  -4   0  539160    4995                                                      195777 -598.67    2.24  1.0000
  -2   4   2   11148      77                                                        1703 -130.28   63.02  1.0000
   0  -4  -2   15620      44                                                         436  213.92    2.49  1.0000
  -4  -2   2   11392      64                                                        1697 -133.04  -63.71  1.0000
   4   4  -4   20266     186                                                        6786  -61.24  302.10  1.0000
   4   2  -4   25853    1343                                                       54486 -178.14  104.12  1.0000
  -4   2   4   22550    1354                                                       48895 -175.26   97.73  1.0000
   4   0  -4  332498   11301                                                      448997  191.71    1.02  1.0000
   0  -4  -4  325967   11305                                                      442432  193.29    4.83  1.0000
  -4   0   4  328408   11303                                                      444242  191.71   -1.02  1.0000
   4  -2  -4   26788    1432                                                       55473 -175.26  -97.73  1.0000
  -5   1   3   90438    2657                                                      103912 -105.21  163.99  1.0000
  -1   5   1   16624     439                                                       16941   12.50  106.87  1.0000
  -1  -5  -1   16126     434                                                       16287   14.21  110.76  1.0000
  -5  -1   3   89190    2611                                                      102272 -104.54 -164.47  1.0000
  -3   5   3   16685     430                                                       15635   83.86  -59.49  1.0000
  -1  -5  -3   35988     368                                                       13366  158.35 -177.56  1.0000
   3   1  -5   36301     367                                                       13665  156.83 -172.73  1.0000
  -1   5   3   35953     370                                                       13592  154.87 -170.85  1.0000
   1  -5  -3   32343     311                                                       10970  154.87  170.85  1.0000
   3  -1  -5   33055     313                                                       11347  156.81  175.89  1.0000
  -5  -3   3   11878     283                                                       10473   83.45   60.35  1.0000
   5   5  -5  105558    2919                                                      114741  240.27  105.56  1.0000
   5   3  -5   23786     753                                                       30150  114.12  -65.68  1.0000
  -3   5   5   23060     772                                                       29324  114.44  -66.04  1.0000
  -5   1   5   14125     451                                                       16120  171.82  247.62  1.0000
   5   1  -5   14319     443                                                       16569  171.84  244.55  1.0000
   5  -1  -5   16946     639                                                       24327  171.82 -247.62  1.0000
   1  -5  -5   16745     640                                                       23465  172.77 -245.56  1.0000
   5  -3  -5   18394     647                                                       24016  111.47   68.41  1.0000
   0   6   0    1942     186                                                        6597  -76.22   -0.17  1.0000
  -6   0   4   47012    1962                                                       80288 -136.49    0.92  1.0000
  -4  -6   0   43201    1937                                                       75429 -137.04   -0.03  1.0000
  -6   2   4  113919    4374                                                      172398 -200.99   51.29  1.0000
  -4   6   2  112079    4371                                                      170289 -201.16   51.76  1.0000
  -2   6   2   19324     556                                                       21692   27.57   78.77  1.0000
  -2  -6  -2   17236     544                                                       20068   34.69   92.97  1.0000
   0  -6  -2   30162    1977                                                       77829 -216.04    3.10  1.0000
   0   6   2   29382    1975                                                       76573 -216.04   -3.10  1.0000
   2  -2  -6   13416     425                                                       15337   28.60  -82.72  1.0000
  -6  -2   4  132301    4973                                                      195408 -198.08  -54.50  1.0000
  -4   6   4   42828     690                                                       26449 -236.00  -24.63  1.0000
   4   4  -6   41703     669                                                       25342 -235.95  -24.91  1.0000
   4   6  -4   42194     654                                                       25490 -235.42  -26.96  1.0000
   4   2  -6   83871    1517                                                       59503  -98.17   15.74  1.0000
  -2   6   4   82397    1526                                                       58120  -98.54   16.29  1.0000
   0  -6  -4    2543     188                                                        5735  -51.91    0.00  1.0000
   4   0  -6    2825     190                                                        6151  -51.85   -3.29  1.0000
   4  -2  -6  100511    1934                                                       73194  -99.60  -16.79  1.0000
  -6  -4   2  104623    1913                                                       76805  -99.68  -16.00  1.0000
   2  -6  -4   99106    1932                                                       72302  -98.54  -16.29  1.0000
   6   6  -6  181780    4292                                                      168877  -29.31  104.11  1.0000
  -6   4   6   40743     910                                                       30347   16.47   63.03  1.0000
   6   4  -6   47813     889                                                       36156   16.52   65.03  1.0000
   6   2  -6   45093     671                                                       25039   79.80  129.38  1.0000
  -6   2   6   47067     691                                                       26672   79.34  128.46  1.0000
  -6   6   2   45331     685                                                       24755   82.80  129.81  1.0000
   6   0  -6   70451    1019                                                       38333  142.87    1.05  1.0000
   0  -6  -6   72116    1027                                                       39525  143.07   -0.74  1.0000
   6  -2  -6   46108     686                                                       25925   79.34 -128.46  1.0000
   2  -6  -6   45014     690                                                       24927   80.39 -128.12  1.0000
   4  -6  -6   27593     531                                                       18854   16.32  -65.13  1.0000
  -7   1   5   63756    2384                                                       92583  119.92  -40.79  1.0000
  -3  -7  -1   15837     748                                                       29099  123.27 -121.71  1.0000
  -7   1   3   14714     765                                                       27685  125.42 -122.61  1.0000
  -3   7   1   16210     765                                                       29876  125.13 -128.24  1.0000
   1   7  -1   31997     640                                                       24776   48.74   68.41  1.0000
  -1   7   1   31520     652                                                       24745   48.44   65.32  1.0000
  -7  -1   3   13691     680                                                       25697  123.10  122.40  1.0000
   1  -5  -7   51392    1974                                                       76601  117.80   45.27  1.0000
  -7  -1   5   50907    1964                                                       75889  117.13   44.22  1.0000
  -5   7   3   41231    1568                                                       59851   82.67 -127.99  1.0000
  -7   3   5   41838    1570                                                       60624   82.89 -126.79  1.0000
  -3   7   3    8337      84                                                          18   74.10  173.49  1.0000
  -7   3   3    7991      86                                                          99   72.12  170.91  1.0000
  -3  -7  -3    7665      58                                                          70   68.76  167.64  1.0000
  -1   7   3  108622    2237                                                       88760    6.73 -121.71  1.0000
  -1  -7  -3  104596    2232                                                       85733   13.65 -128.30  1.0000
   1  -7  -3   78699    1599                                                       61567    6.73  121.71  1.0000
   3  -1  -7   79074    1604                                                       62271   12.93  128.18  1.0000
   3  -3  -7    8077      93                                                         983   69.93 -168.08  1.0000
  -7  -3   3    8247      76                                                        1314   69.29 -167.63  1.0000
   5   7  -5   40619     308                                                       11613  172.82 -126.37  1.0000
  -5   7   5   42633     363                                                       12766  172.83 -125.30  1.0000
   5   5  -7   41697     328                                                       12274  172.47 -124.92  1.0000
   5   3  -7   18425     439                                                       16017  232.31 -136.32  1.0000
  -3   7   5   18533     455                                                       16322  233.54 -136.76  1.0000
   5   1  -7   20036     942                                                       34716   93.26  -15.30  1.0000
  -1  -7  -5   21892     949                                                       37363   94.43  -16.37  1.0000
   5  -1  -7   23530    1042                                                       39630   95.10   16.30  1.0000
   1  -7  -5   23770    1044                                                       39666   93.61   14.48  1.0000
   5  -3  -7   14200     221                                                        6382  230.69  137.01  1.0000
  -7  -5   3   14245     186                                                        6646  230.57  138.27  1.0000
   3  -7  -5   14313     218                                                        6491  233.54  136.76  1.0000
  -7   5   7   18194     987                                                       34101   91.58 -135.05  1.0000
  -7   7   5   18118     983                                                       33851   91.45 -131.51  1.0000
   7   5  -7   20642     955                                                       37679   91.71 -134.15  1.0000
   5   7  -7   20835     949                                                       37872   91.72 -131.84  1.0000
  -7   7   3  114772    3655                                                      142808   77.92  106.86  1.0000
   7   3  -7  114978    3635                                                      141846   74.95  103.13  1.0000
  -7   3   7  115113    3658                                                      142837   77.17  104.04  1.0000
   7   1  -7   54330    1287                                                       48985    6.35   65.36  1.0000
  -1  -7  -7   55047    1302                                                       49995    5.82   60.92  1.0000
   7  -1  -7   46146    1086                                                       41503    5.87  -59.92  1.0000
   1  -7  -7   45640    1092                                                       40756    6.13  -64.54  1.0000
   3  -7  -7   98142    3170                                                      123203   75.91 -102.88  1.0000
   5  -7  -7   19725     978                                                       36307   91.29  135.18  1.0000
   0   8   0   39894    2418                                                       94689  221.51    5.74  1.0000
  -8   0   4   32725    1306                                                       50093   88.04   -1.22  1.0000
  -8   0   6   47561    1149                                                       42999  -22.00    1.10  1.0000
   0  -6  -8   49073    1161                                                       44414  -22.11    0.86  1.0000
  -8   2   6   18727     573                                                       21065   -5.96  -15.93  1.0000
  -6   8   2   17648     564                                                       19923   -9.62  -14.53  1.0000
  -8   2   4   18193     506                                                       17814  -12.70   10.30  1.0000
  -4   8   2   19654     506                                                       19053   -8.33    9.55  1.0000
  -4  -8  -2   18316     483                                                       18023  -15.06   10.96  1.0000
  -2  -8  -2   23052     853                                                       33786  -79.93  -26.56  1.0000
   2   8  -2   21823     836                                                       32302  -75.23  -30.28  1.0000
  -2   8   2   21721     859                                                       32362  -74.13  -32.40  1.0000
   0   8   2  113407    3829                                                      150172 -104.13    4.41  1.0000
  -8  -2   4   12020     333                                                       11696  -14.08  -11.17  1.0000
   2  -6  -8   21687     663                                                       24022   -9.88   13.15  1.0000
  -8   4   6   58903    2426                                                       93700 -145.50  -23.73  1.0000
  -6   8   4   58864    2425                                                       93637 -146.89  -21.50  1.0000
  -4   8   4   16814     766                                                       28763   28.77   89.99  1.0000
  -8   4   4   16276     767                                                       27836   27.01   89.90  1.0000
  -2  -8  -4    8098     170                                                        4893  -20.79  -81.22  1.0000
   4   2  -8    7802     170                                                        4660  -19.31  -86.71  1.0000
  -2   8   4    8293     180                                                        5066  -19.61  -87.28  1.0000
   4   0  -8   40944    1768                                                       70159  128.28   -0.30  1.0000
   0  -8  -4   37972    1765                                                       66487  129.22    1.84  1.0000
   4  -2  -8    2626     104                                                         486  -20.62   80.93  1.0000
  -8  -4   4   10681     524                                                       19601   15.25  -95.53  1.0000
  -6   8   6    6390     168                                                        3482  -63.82   17.62  1.0000
   6   6  -8    6303     126                                                        3441  -63.54   17.23  1.0000
   6   4  -8   93661    3002                                                      117365  -76.10   24.56  1.0000
  -2  -8  -6   70565    2163                                                       84783   79.95   47.29  1.0000
   6   2  -8   69860    2152                                                       82751   78.42   43.02  1.0000
   6   0  -8   22856     767                                                       28632   36.98   -2.39  1.0000
   0  -8  -6   22688     771                                                       28513   37.40    2.32  1.0000
   6  -2  -8   66092    2075                                                       79727   79.97  -46.92  1.0000
  -8  -6   2   67409    2043                                                       81337   79.92  -47.47  1.0000
   2  -8  -6   63968    2075                                                       76594   79.51  -44.08  1.0000
   6  -4  -8  124248    3889                                                      151536  -75.21  -26.43  1.0000
   8   8  -8    4913     111                                                        3799  -72.34   79.39  1.0000
  -8   6   8   23356     405                                                       11551 -124.61    3.38  1.0000
  -8   8   6   24524     405                                                       12423 -126.92    5.84  1.0000
  -8   8   4   61714    1539                                                       58385    7.76  -41.96  1.0000
  -2  -8  -8   18115    1402                                                       52821  185.94   86.32  1.0000
  -8   8   2   18721    1402                                                       53381  183.61   87.15  1.0000
   0  -8  -8   76080    2883                                                      111506  119.19    1.36  1.0000
   2  -8  -8   16474    1333                                                       50206  187.37  -85.00  1.0000
   4  -8  -8   60723    1506                                                       56973    9.67   42.04  1.0000
  -9   1   7  145634    4511                                                      175831  -79.23   19.71  1.0000
  -7  -9  -1  146488    4471                                                      176051  -77.12   15.02  1.0000
  -5  -9  -1   10106     232                                                        8486  -61.03   -5.83  1.0000
  -5   9   1   10090     268                                                        8510  -67.87   -4.75  1.0000
  -9   1   5   10009     276                                                        8481  -69.29   -4.08  1.0000
  -9   1   3   56339    1798                                                       69323  -59.32  -67.05  1.0000
  -3   9   1   57336    1793                                                       69535  -55.92  -69.38  1.0000
  -1   9   1     166      96                                                        1779   47.88   56.80  1.0000
   1   9  -1     186      79                                                        1895   47.98   56.99  1.0000
  -9  -1   3   58242    1834                                                       71078  -57.87   66.93  1.0000
   1  -5  -9   11684     344                                                        9877  -60.01    7.20  1.0000
  -9  -1   5   13370     325                                                       11466  -61.30    7.35  1.0000
   1  -7  -9  126547    3971                                                      154343  -77.61  -13.57  1.0000
  -7   9   3   56716    2246                                                       87309  -31.79 -127.62  1.0000
  -9   3   7   55246    2247                                                       85515  -32.50 -127.27  1.0000
  -9   3   5   39299    1104                                                       41741    9.08    8.77  1.0000
  -5   9   3   39730    1099                                                       41434    5.54    6.70  1.0000
  -5  -9  -3   39974    1077                                                       41317    2.27    6.80  1.0000
  -3   9   3     454      81                                                         123  -37.06  -53.21  1.0000
  -3  -9  -3     373      73                                                         259  -48.57  -48.60  1.0000
  -9   3   3     405     104                                                         146  -38.24  -51.46  1.0000
  -1  -9  -3   52993    1422                                                       55483    6.09  -14.30  1.0000
  -1   9   3   51048    1424                                                       54190    6.91  -17.94  1.0000
   3  -3  -9     207     120                                                         512  -47.14   49.37  1.0000
  -9  -3   3     228      73                                                         453  -47.45   48.06  1.0000
  -9  -3   5   36397     991                                                       37660    2.89   -6.22  1.0000
   3  -7  -9   29159    1383                                                       52135  -33.06  128.69  1.0000
  -9   5   7   33602     753                                                       27933  -35.42  -77.07  1.0000
   5   7  -9   31453     708                                                       26067  -37.57  -77.96  1.0000
  -7   9   5   33066     744                                                       27522  -37.77  -78.63  1.0000
  -9   5   5    3426     170                                                        3672    7.83   43.00  1.0000
  -5   9   5    3476     170                                                        3822    9.43   42.56  1.0000
  -3  -9  -5   73831    1976                                                       81491 -121.63   42.75  1.0000
  -3   9   5   70062    1980                                                       76407 -119.62   46.00  1.0000
   5   3  -9   70860    1969                                                       77168 -119.80   46.58  1.0000
   5   1  -9   39231     979                                                       37530   12.65   -4.34  1.0000
  -1  -9  -5   36727     976                                                       36241    4.23   -2.24  1.0000
   1  -9  -5   28870     747                                                       27333   13.53    4.93  1.0000
   5  -1  -9   28401     747                                                       27850    5.13    2.30  1.0000
   5  -3  -9   46607    1386                                                       52029 -121.15  -41.82  1.0000
  -9  -5   3   47497    1359                                                       52983 -121.54  -42.24  1.0000
   9   7  -7    2125      72                                                        2142   84.58 -135.09  1.0000
   7   7  -9    2115      94                                                        2128   84.61 -134.40  1.0000
  -7   9   7    2027     170                                                        2403   84.02 -135.23  1.0000
   7   9  -7    2192      72                                                        1935   85.53 -133.65  1.0000
   7   7  -9    2050      71                                                        2298   84.61 -134.40  1.0000
   7   5  -9   59064    2090                                                       84222   81.40  -52.56  1.0000
   5   9  -7   55687    2068                                                       80105   80.13  -53.88  1.0000
   7   3  -9    2459      99                                                        1282  -31.67  -85.75  1.0000
  -3  -9  -7    2555     115                                                        1393  -32.88  -90.19  1.0000
  -1  -9  -7   47615    1132                                                       42449  -71.54   45.89  1.0000
   7   1  -9   47938    1124                                                       42688  -70.74   44.55  1.0000
   1  -9  -7   26535     639                                                       22263  -71.07  -44.75  1.0000
   7  -1  -9   27917     635                                                       23570  -71.06  -44.74  1.0000
   7  -3  -9    1978     103                                                         291  -31.85   89.64  1.0000
   3  -9  -7    1908     109                                                         172  -32.29   87.09  1.0000
   7  -5  -9   75738    2704                                                      104353   79.29   57.82  1.0000
   9   9  -9  223101    4027                                                      158679 -149.99   23.37  1.0000
   7   9  -9    1599      64                                                        1564  -60.59  -12.91  1.0000
   9   7  -9    1577      65                                                        1525  -58.30  -12.10  1.0000
  -9   9   7    1524     133                                                        1476  -60.69  -12.46  1.0000
   5   9  -9    9620     115                                                        3236  -94.48  -10.75  1.0000
   9   5  -9    9707      99                                                        3319  -94.52  -12.48  1.0000
   5   9  -9    9689      98                                                        3277  -94.48  -10.75  1.0000
  -9   9   5    9517     186                                                        3189  -93.93   -9.99  1.0000
   9   9  -5    9841      98                                                        3364  -94.57  -10.74  1.0000
  -9   9   3    2679     176                                                        3034  -92.08    2.56  1.0000
  -3  -9  -9    2813     174                                                        3194  -91.12    1.66  1.0000
  -1  -9  -9   20605     199                                                        3830 -167.71  -21.24  1.0000
   1  -9  -9   21185     182                                                        3925 -170.62   25.97  1.0000
   3  -9  -9    3686     209                                                        4570  -90.47   -2.72  1.0000
   5  -9  -9   19571     338                                                       10055  -94.76   13.04  1.0000
   0  10   0   19374     531                                                       19930    4.01    5.47  1.0000
  -2  10   0   59876    1381                                                       53242  -28.64    4.47  1.0000
 -10   0   4    7321     183                                                        4873  -32.32    3.61  1.0000
 -10   0   6   22468    1690                                                       64661  214.15   -3.56  1.0000
   0  -8 -10   91306    1755                                                       66384   91.33    0.86  1.0000
 -10   2   8   12444     519                                                       18038    7.46  -52.55  1.0000
  -8 -10  -2   11868     471                                                       17491    5.36  -55.49  1.0000
  -8  10   2   12401     518                                                       18138    8.47  -53.24  1.0000
 -10   2   6   20758     605                                                       21225   -7.92   10.83  1.0000
  -6  10   2   20683     600                                                       20971   -5.53    7.27  1.0000
  -6 -10  -2   21554     567                                                       21779   -7.85    8.53  1.0000
 -10   2   4   49823    1935                                                       73462  -46.09 -114.06  1.0000
  -4  10   2   49952    1931                                                       73799  -48.08 -112.29  1.0000
  -4 -10  -2   50935    1913                                                       75549  -53.34 -108.01  1.0000
   2  10  -2    8524     117                                                        3812  109.60   13.09  1.0000
  -2  10   2    8876     152                                                        4183  109.91   14.92  1.0000
 -10  -2   4   44789    1757                                                       67846  -53.08  107.62  1.0000
 -10  -2   6   10715     333                                                       10933   -6.83   -8.56  1.0000
   2  -6 -10   10844     358                                                       10978   -7.13   -7.73  1.0000
   2  -8 -10   23134     863                                                       30956    5.52   56.16  1.0000
  10   4  -8   96286    2076                                                       80771  -41.81  -37.18  1.0000
   8  10  -4   96201    2075                                                       81455  -38.09  -38.75  1.0000
 -10   4   8   99802    2141                                                       84701  -38.23  -39.06  1.0000
  -6 -10  -4     272      87                                                         667   41.43   53.08  1.0000
  -6  10   4     226     116                                                         692   42.10   48.64  1.0000
 -10   4   6     214     119                                                         773   41.66   47.08  1.0000
  -4 -10  -4   14682     607                                                       21659  -33.09  -41.96  1.0000
 -10   4   4   15520     631                                                       22387  -25.21  -46.12  1.0000
  -2 -10  -4   22536     417                                                       14798  -80.14   24.92  1.0000
  -2  10   4   22001     421                                                       14603  -74.10   19.08  1.0000
   4   0 -10   29532    1080                                                       40578   60.60  -12.95  1.0000
   4  -2 -10   11456     222                                                        5903  -80.53  -24.58  1.0000
 -10  -4   4    5589     293                                                       10103  -33.19   41.20  1.0000
   4  -4 -10    5421     324                                                        9887  -32.78   41.71  1.0000
   4  -8 -10   95439    2105                                                       80149  -41.81   35.81  1.0000
 -10   6   8   14766     420                                                       13844  -75.90   16.55  1.0000
  -8  10   6   15108     412                                                       14080  -75.42   17.45  1.0000
   6   8 -10   12612     353                                                       11517  -74.97   17.67  1.0000
   6   8 -10   14346     333                                                       13273  -74.97   17.67  1.0000
  10   6  -8   13619     334                                                       12437  -74.05   18.44  1.0000
   6   6 -10    1285     106                                                        2266  -22.71  -10.22  1.0000
 -10   6   6    1540     143                                                        2591  -24.24   -7.83  1.0000
  -6  10   6    1716     163                                                        2843  -22.72  -10.65  1.0000
  10   6  -6     916      72                                                        1965  -27.80  -11.45  1.0000
  -4 -10  -6   26214     757                                                       27918   11.44    5.16  1.0000
   6   4 -10   27391     749                                                       28789   10.81    3.09  1.0000
 -10   6   4   25009     770                                                       26497   10.59    4.39  1.0000
   6   2 -10   19900     718                                                       26655   47.74  -56.33  1.0000
  -2 -10  -6   19784     721                                                       26246   42.46  -53.78  1.0000
   6   0 -10   55751     557                                                       20173  193.03   -2.66  1.0000
   0 -10  -6   54722     557                                                       19525  193.25    3.31  1.0000
 -10  -6   2   32681    1047                                                       41078   43.94   54.15  1.0000
   6  -2 -10   32264    1081                                                       40484   43.83   53.51  1.0000
   2 -10  -6   30342    1077                                                       38705   47.52   56.05  1.0000
   6  -4 -10   28152     821                                                       29832   11.22   -4.70  1.0000
  -8  10   8   26921     934                                                       35324  -38.15   40.41  1.0000
   8   8 -10   26142     850                                                       34357  -37.85   40.08  1.0000
   8  10  -8   24117     850                                                       32310  -40.60   37.13  1.0000
  10   8  -8   24352     851                                                       32832  -42.01   37.39  1.0000
   8   6 -10   23051     476                                                       17205   32.87   27.76  1.0000
   6  10  -8   23260     448                                                       17244   33.22   29.36  1.0000
   8   6 -10   23426     448                                                       17529   32.87   27.76  1.0000
   8   4 -10     404      90                                                         404    1.75   -4.09  1.0000
  10   8  -4     523      42                                                         511    2.20   -6.45  1.0000
   4  10  -8     423      40                                                         405   -0.33   -1.52  1.0000
  -4 -10  -8     476     106                                                         488    3.39   -6.38  1.0000
   8   2 -10     268     114                                                        1890   65.94  -34.28  1.0000
  -2 -10  -8     232     134                                                        1807   67.84  -35.97  1.0000
 -10   8   2     212     139                                                        1511   70.17  -33.00  1.0000
   0 -10  -8   51088    1215                                                       44888   29.05    1.70  1.0000
   8   0 -10   52266    1208                                                       46043   28.81   -0.82  1.0000
   2 -10  -8     645     110                                                         140   65.56   34.18  1.0000
   8  -2 -10     710     103                                                         143   68.16   35.48  1.0000
   8  -4 -10    1033     145                                                        1049    3.07    6.28  1.0000
  10  10 -10   98999    3260                                                      128347  -94.09    1.49  1.0000
   8  10 -10    1223     140                                                        4836  -66.42  -28.66  1.0000
  10   8 -10    1169     142                                                        4746  -66.55  -29.02  1.0000
 -10  10   8    1345     246                                                        5078  -66.89  -27.68  1.0000
  10   6 -10   28746     557                                                       21495  -51.94   15.82  1.0000
 -10  10   6   29670     638                                                       22362  -50.39   11.66  1.0000
   6  10 -10   30250     556                                                       22844  -50.66   12.12  1.0000
  10  10  -6   27939     556                                                       20920  -49.75   10.92  1.0000
   6  10 -10   27347     569                                                       20325  -50.66   12.12  1.0000
   4  10 -10   70874    1422                                                       55455   63.35    5.07  1.0000
  10   4 -10   71168    1423                                                       55720   63.54    4.08  1.0000
 -10  10   4   70581    1492                                                       55251   63.05    5.36  1.0000
  -4 -10 -10   72358    1493                                                       57496   59.93    6.15  1.0000
  10  10  -4   70948    1422                                                       56248   59.93    6.01  1.0000
  10  10  -2     491      42                                                         165   15.27  -12.01  1.0000
 -10  10   2     586     130                                                         238   14.94  -10.30  1.0000
  10   2 -10     559      49                                                         210   13.43  -14.80  1.0000
  -2 -10 -10     560     145                                                         196   15.32  -13.50  1.0000
   0 -10 -10     668     340                                                       10060  258.76    3.46  1.0000
  10  10   0     764     255                                                        9723  258.95    3.06  1.0000
   2 -10 -10    1539     126                                                         910   13.49   15.06  1.0000
   4 -10 -10   65007    1352                                                       50191   63.65   -5.60  1.0000
  10 -10  -8     631     108                                                        3546  -66.89   27.68  1.0000
  10 -10 -10   77707    2637                                                      103788  -93.58   -1.07  1.0000
  -1  -9 -11   50957     762                                                       26660 -135.90  -36.78  1.0000
   9  11  -1   50996     681                                                       26599 -136.44  -36.60  1.0000
  -9  11   1   50564     750                                                       26548 -134.34  -34.50  1.0000
  -7  11   1   24874     467                                                       15927  -21.08  -62.68  1.0000
 -11   1   7   24462     467                                                       15721  -22.48  -60.61  1.0000
  -5  11   1    4904     153                                                        3423  -23.18   -8.53  1.0000
 -11   1   5    4512     154                                                        3254  -20.43   -6.59  1.0000
 -11   1   3    9706     274                                                        8362  -10.38  -72.39  1.0000
  -3  11   1    9691     267                                                        8751  -15.20  -73.38  1.0000
  -1  11   1    9586     323                                                       11458  -34.00  106.30  1.0000
   1  11  -1    9264     307                                                       11020  -35.47  107.75  1.0000
  -1  11  -1    6571     255                                                        8629    0.33  -67.85  1.0000
 -11  -1   3   11874     330                                                       11158  -14.02   59.59  1.0000
 -11  -1   5    9737     252                                                        7624  -22.85   10.25  1.0000
   1  -7 -11   14647     295                                                        7921  -21.14   63.73  1.0000
 -11  -1   7   14119     265                                                        7562  -20.77   63.56  1.0000
   1  -9 -11   61953     968                                                       34776 -137.52   42.35  1.0000
  -9  11   3   50764     679                                                       24309 -142.91  -35.23  1.0000
  11   3  -9   48855     611                                                       23150 -141.77  -34.08  1.0000
  -9 -11  -3   49629     630                                                       23690 -141.72  -33.41  1.0000
   9  11  -3   50514     608                                                       24054 -143.40  -33.93  1.0000
   3   9 -11   49877     608                                                       23709 -142.79  -34.85  1.0000
  -7  11   3  112187    3219                                                      128065  -48.75   91.21  1.0000
 -11   3   7  106404    3222                                                      121873  -48.88   91.42  1.0000
  -7 -11  -3  115282    3184                                                      131148  -48.10   87.11  1.0000
   7  11  -3  107665    3162                                                      123092  -48.47   91.19  1.0000
  -5 -11  -3   56203    1229                                                       47078  -61.87  -43.84  1.0000
  -5  11   3   55598    1252                                                       47886  -57.91  -51.01  1.0000
 -11   3   5   55241    1256                                                       47071  -60.41  -51.12  1.0000
 -11   3   3   28595     832                                                       30220  -43.64   73.23  1.0000
  -3  11   3   28998     825                                                       31013  -44.19   77.01  1.0000
   1  11  -3   12118     197                                                        6903  -52.61  -17.68  1.0000
 -11  -3   3   12931     398                                                       13790  -43.09  -77.75  1.0000
   3  -3 -11   13776     437                                                       14743  -43.13  -78.05  1.0000
 -11  -3   5   77873    1748                                                       67258  -61.93   44.20  1.0000
   3  -7 -11  113874    3356                                                      129546  -47.85  -86.81  1.0000
   3  -9 -11   47491     655                                                       22154 -142.14   33.71  1.0000
  -9  11   5    6507     307                                                        8320   20.80   16.07  1.0000
   5   9 -11    6224     245                                                        7995   20.80   15.46  1.0000
   5   9 -11    6389     216                                                        8183   20.80   15.46  1.0000
 -11   5   9    6116     297                                                        7870   20.83   14.45  1.0000
   9  11  -5    6241     218                                                        7979   20.44   14.59  1.0000
  11   5  -9    6293     220                                                        8216   22.35   16.54  1.0000
   7  11  -5   44538    1036                                                       39944   22.04   12.67  1.0000
   5   7 -11   44386    1066                                                       39793   21.92   15.17  1.0000
  -7 -11  -5   46582    1071                                                       41243   25.45    9.91  1.0000
 -11   5   7   45388    1103                                                       40747   22.01   13.28  1.0000
  -7  11   5   46113    1097                                                       41516   21.56   14.07  1.0000
  11   5  -7   46570    1038                                                       41321   25.08    8.74  1.0000
   5   5 -11    2721     205                                                        6152   75.61  -33.92  1.0000
   5  11  -5    2417     156                                                        5584   75.23  -34.60  1.0000
  -5  11   5    2719     224                                                        6116   75.66  -35.28  1.0000
  -5 -11  -5    3014     200                                                        6181   71.13  -38.97  1.0000
 -11   5   5    2501     223                                                        5757   75.09  -33.20  1.0000
 -11   5   3    4332     279                                                        7983   -1.73   56.97  1.0000
   5   3 -11    4184     257                                                        7887   -1.52   58.60  1.0000
  -3 -11  -5    4607     252                                                        7826    2.08   52.15  1.0000
   5   1 -11   10865     508                                                       18173  -67.90   -7.97  1.0000
  -1 -11  -5   10454     504                                                       17458  -68.11  -14.08  1.0000
   5  -1 -11    8612     446                                                       14992  -67.75   13.85  1.0000
 -11  -5   3    6464     292                                                       10205    0.70  -50.95  1.0000
   5  -3 -11    5936     329                                                        9555    2.06  -52.06  1.0000
   5  -5 -11    3469     272                                                        6904   71.14   39.10  1.0000
 -11  -5   5    3570     228                                                        7061   71.14   39.12  1.0000
   5  -9 -11   12861     479                                                       15506   21.68  -17.45  1.0000
  11  -5  -9   12248     384                                                       14701   20.83  -14.45  1.0000
  -9  11   7   15508     463                                                       14726  -21.40   22.97  1.0000
  11   7  -9   14998     377                                                       14290  -23.36   23.87  1.0000
   7   9 -11   15578     375                                                       14808  -21.20   22.66  1.0000
   7   9 -11   14056     394                                                       13315  -21.20   22.66  1.0000
 -11   7   9   15285     462                                                       14590  -22.20   22.73  1.0000
  -7  11   7    1161     245                                                        6077   25.88   88.28  1.0000
  11   7  -7     952     162                                                        5483   22.34   88.53  1.0000
   7   7 -11    1078     193                                                        5907   26.16   88.51  1.0000
   7   7 -11    1156     161                                                        6089   26.16   88.51  1.0000
 -11   7   7    1207     254                                                        6295   25.36   90.13  1.0000
   7   5 -11    4931     178                                                        4809  -10.27    5.84  1.0000
  -5 -11  -7    5144     193                                                        4978   -9.51    6.17  1.0000
 -11   7   5    4507     224                                                        4451  -14.47    6.79  1.0000
  11   7  -3   29228    1022                                                       40476  -58.89   19.82  1.0000
   7   3 -11   27628    1061                                                       38938  -60.28   21.67  1.0000
  -3 -11  -7   27227    1068                                                       38061  -58.45   20.39  1.0000
   7   1 -11   24235     404                                                       13845 -119.09   61.70  1.0000
  -1 -11  -7   23609     408                                                       13196 -118.77   58.82  1.0000
   1 -11  -7   10884     166                                                        3511 -119.38  -61.99  1.0000
   7  -1 -11   10832     172                                                        3519 -117.67  -58.16  1.0000
 -11  -7   3   40646    1381                                                       53746  -58.89  -19.82  1.0000
   7  -3 -11   39969    1425                                                       53008  -58.73  -21.09  1.0000
   7  -5 -11    5009     217                                                        4866   -9.56   -5.85  1.0000
  11  -7  -5    4631     132                                                        4575  -14.47   -6.79  1.0000
  11  -7  -7     808     148                                                        5313   25.36  -90.13  1.0000
  11  -7  -9   13050     326                                                       12390  -22.20  -22.73  1.0000
   9  11  -9   17754     487                                                       19416   11.18  -38.41  1.0000
   9   9 -11   16851     486                                                       18618   12.28  -39.23  1.0000
  11   9  -9   16496     486                                                       18145   11.42  -40.64  1.0000
   7  11  -9   14557     246                                                        9390   51.34   11.45  1.0000
   9   7 -11   14006     246                                                        9038   50.22   10.79  1.0000
   9   5 -11    5113     198                                                        5581  -30.94   -9.73  1.0000
   5  11  -9    5315     160                                                        5923  -32.97   -8.98  1.0000
   5  11  -9    4993     167                                                        5575  -32.97   -8.98  1.0000
  11   9  -5    5386     160                                                        5821  -31.96  -11.14  1.0000
   9   5 -11    5242     160                                                        5718  -30.94   -9.73  1.0000
  -5 -11  -9    5497     228                                                        5942  -31.46  -10.78  1.0000
  11   9  -3   58695    2085                                                       82750  -93.65    9.65  1.0000
   9   3 -11   55699    2125                                                       79223  -93.85   11.19  1.0000
   3  11  -9   58714    2085                                                       82648  -93.13    7.75  1.0000
   9   3 -11   57807    2085                                                       81735  -93.85   11.19  1.0000
  -3 -11  -9   59657    2149                                                       83744  -93.10    9.09  1.0000
   9   1 -11   16944     957                                                       36173 -145.32   52.03  1.0000
  11   9  -1   16237     905                                                       35346 -145.31   45.18  1.0000
  -1 -11  -9   16591     976                                                       35961 -145.66   44.94  1.0000
   1 -11  -9   12829     840                                                       29749 -145.10  -50.74  1.0000
   9  -1 -11   13256     832                                                       30659 -145.12  -45.03  1.0000
   3 -11  -9   61400    2261                                                       86241  -94.71  -11.75  1.0000
  11  -9  -7   16253     285                                                       10746   51.82  -12.78  1.0000
   9 -11  -9   17242     501                                                       19042   12.40   38.71  1.0000
  11  -9  -9   18113     502                                                       19810   11.31   38.29  1.0000
  11  11 -11   54346    1690                                                       66248  -46.42   24.90  1.0000
  11   9 -11   12938     446                                                       17009  -53.99  -58.01  1.0000
   9  11 -11   12882     446                                                       17097  -55.27  -58.23  1.0000
 -11  11   7  217539    6104                                                      240283  -48.86    1.55  1.0000
  11   7 -11  213061    6014                                                      235710  -49.24    0.55  1.0000
   7  11 -11  215437    6014                                                      238175  -49.06    1.73  1.0000
  11   5 -11   20884     310                                                       11753  -74.70    8.71  1.0000
   5  11 -11   19780     326                                                       11044  -73.51    8.73  1.0000
 -11  11   5   20850     402                                                       11848  -73.49    8.77  1.0000
  11  11  -5   21002     309                                                       11826  -74.31   10.49  1.0000
   5  11 -11   20682     308                                                       11722  -73.51    8.73  1.0000
  -5 -11 -11   21932     394                                                       12492  -74.68   10.42  1.0000
  -3 -11 -11    8744     295                                                        7977 -110.59   38.41  1.0000
   3  11 -11    7990     200                                                        7098 -108.19   38.16  1.0000
  11   3 -11    8445     204                                                        7544 -110.99   37.56  1.0000
  11  11  -3    8288     199                                                        7468 -110.91   38.88  1.0000
 -11  11   3    8298     296                                                        7488 -107.75   38.39  1.0000
  -1 -11 -11   38444    1655                                                       59325  -93.22  -35.46  1.0000
 -11  11   1   43192    1664                                                       64373  -89.85  -35.51  1.0000
  11   1 -11   40926    1584                                                       62201  -92.08  -37.28  1.0000
  11  11  -1   40886    1582                                                       62222  -92.71  -35.25  1.0000
  11  11   1   37482    1479                                                       58070  -92.64   37.50  1.0000
   1 -11 -11   38452    1565                                                       59158  -92.07   37.82  1.0000
  11  -3 -11    4455      90                                                        2642 -110.32  -38.51  1.0000
  11  11   3    4504      80                                                        2605 -111.49  -37.26  1.0000
   3 -11 -11    4520     173                                                        2627 -111.90  -37.62  1.0000
  11  -5 -11   25075     389                                                       14895  -74.57  -10.65  1.0000
  11  -7 -11  228948    6356                                                      252911  -50.16   -1.82  1.0000
  11 -11  -7  224886    6357                                                      248001  -48.86   -1.55  1.0000
  11 -11  -9   12694     454                                                       16943  -55.74   57.60  1.0000
  11  -9 -11   13381     453                                                       17896  -56.44   55.78  1.0000
  11 -11 -11   54463    1690                                                       66351  -46.33  -24.79  1.0000
   0  12   0    2618     278                                                        9536  157.43  115.75  1.0000
  -2  12   0   27632     759                                                       28475    5.13    7.10  1.0000
 -12   0   4      28     137                                                        1965   95.19   15.82  1.0000
  -4  12   0      35     124                                                        2020   95.84   18.95  1.0000
  -6  12   0    2213     146                                                        2230   -0.36    0.03  1.0000
  12   0  -6    2230      79                                                        2226    0.70   -6.11  1.0000
 -12   0   6    1967     132                                                        1962    0.70    6.11  1.0000
   8  12   0   12416      86                                                        2828  119.48    7.73  1.0000
   0  -8 -12   12234     173                                                        2743  119.46    6.35  1.0000
  12   0  -8   12861      95                                                        3024  119.85   -5.61  1.0000
 -12   0   8   11846     164                                                        2542  119.85    5.61  1.0000
   0 -10 -12    6890     355                                                        9816   32.90    2.55  1.0000
  10  12   0    7268     268                                                       10246   32.73    1.74  1.0000
  10  12  -2      11      47                                                         104   12.85  -20.80  1.0000
  -2 -10 -12      12     149                                                         168   13.25  -20.63  1.0000
 -10  12   2      16     133                                                         166   15.24  -19.60  1.0000
  12   2 -10      11      57                                                         113   13.46  -19.89  1.0000
   8  12  -2    2999      43                                                         310   87.91   10.98  1.0000
   2   8 -12    2801      35                                                         245   84.00    9.32  1.0000
 -12   2   8    3056     120                                                         343   87.00   11.10  1.0000
 -12   2   6    5502     293                                                        7999   85.41  -48.29  1.0000
  -6  12   2    5914     296                                                        8517   82.01  -43.24  1.0000
  -4  12   2   22621     779                                                       28526  -38.24  -54.31  1.0000
 -12   2   4   23164     789                                                       29034  -37.72  -49.55  1.0000
  -2  12   2   17254     371                                                       12688   41.33   -1.01  1.0000
   2  12  -2   17164     340                                                       12686   40.42   -0.58  1.0000
   0  12  -2   92707    3383                                                      132586 -122.37    2.54  1.0000
 -12  -2   4   27570     902                                                       33725  -36.65   23.71  1.0000
 -12  -2   6    5921     284                                                        8491   82.48   44.99  1.0000
  12  -2  -6    5749     224                                                        8349   85.41   48.29  1.0000
   2  -8 -12    3391     128                                                         515   85.80  -11.49  1.0000
  12  -2  -8    3235      55                                                         423   87.00  -11.10  1.0000
   2 -10 -12      10     153                                                         152   13.06   20.81  1.0000
  12  -2 -10      23      59                                                         234   12.76   21.00  1.0000
  10  12   2      11      37                                                         138   13.47   20.24  1.0000
  12   4 -10   53841    1711                                                       67049  -41.05   40.60  1.0000
   4  10 -12   53690    1708                                                       66988  -42.12   39.48  1.0000
  -4 -10 -12   59597    1796                                                       73407  -41.04   40.21  1.0000
 -10 -12  -4   55039    1734                                                       68266  -40.41   40.78  1.0000
 -10  12   4   55351    1788                                                       68863  -42.41   39.11  1.0000
  10  12  -4   53288    1709                                                       66371  -41.00   40.17  1.0000
  -8  12   4    9864     341                                                       10668  -10.31  -10.66  1.0000
   8  12  -4    9052     261                                                        9840   -6.84  -10.14  1.0000
  -8 -12  -4    9856     294                                                       10586  -11.10  -10.06  1.0000
  12   4  -8    9447     264                                                       10144  -10.91   -9.86  1.0000
 -12   4   8    9269     334                                                       10054   -6.85  -10.02  1.0000
   4   8 -12    8716     258                                                        9466  -10.25  -10.60  1.0000
  -6 -12  -4   21816     391                                                       14710  -44.73  -32.46  1.0000
   6  12  -4   20069     355                                                       13389  -47.09  -29.08  1.0000
 -12   4   6   21157     426                                                       14299  -46.41  -29.47  1.0000
  -6  12   4   20703     417                                                       14053  -45.33  -28.96  1.0000
  -4 -12  -4   16644     429                                                       14942   18.03  -46.62  1.0000
   4  12  -4   16937     390                                                       15206   18.32  -47.70  1.0000
 -12   4   4   16187     456                                                       14467   18.37  -47.13  1.0000
  -4  12   4   16581     442                                                       14819   18.49  -46.09  1.0000
   2  12  -4   13926     294                                                       10933  -23.84  -17.51  1.0000
   4   0 -12    5480     487                                                       16588  112.07   13.32  1.0000
   4  -2 -12   15128     381                                                       11885  -22.25   28.17  1.0000
 -12  -4   4   13946     366                                                       12346   18.06   47.18  1.0000
   4  -4 -12   14405     403                                                       12756   18.34   47.10  1.0000
  12  -4  -6   21308     375                                                       14423  -46.41   29.47  1.0000
 -12  -4   6   20975     420                                                       14014  -44.65   32.62  1.0000
   4  -8 -12   11087     392                                                       11833  -11.44    9.85  1.0000
  12  -4  -8   10257     295                                                       11083   -6.85   10.02  1.0000
   4 -10 -12   71185    2300                                                       86168  -40.54  -40.76  1.0000
  12  -4 -10   71933    2213                                                       87088  -41.08  -40.47  1.0000
  10  12  -6    1610      60                                                         328   31.33   44.54  1.0000
 -10  12   6    1792     143                                                         408   29.09   45.50  1.0000
  12   6 -10    1721      62                                                         411   31.28   43.44  1.0000
   6  10 -12    1737      54                                                         379   29.56   45.45  1.0000
   6  10 -12    1584      68                                                         299   29.56   45.45  1.0000
 -12   6   8    4184     238                                                        4928   29.11   84.06  1.0000
   6   8 -12    4437     142                                                        5192   27.86   84.65  1.0000
  -8 -12  -6    4387     191                                                        5176   28.96   82.57  1.0000
   8  12  -6    4166     145                                                        4930   29.26   85.41  1.0000
   6   8 -12    4354     180                                                        5080   27.86   84.65  1.0000
  -8  12   6    4387     221                                                        5135   27.88   85.36  1.0000
  12   6  -8    4281     148                                                        5056   29.30   82.49  1.0000
   6  12  -6    8337     339                                                       12507   54.83  -42.51  1.0000
   6   6 -12    8906     381                                                       13287   55.17  -41.17  1.0000
   6   6 -12    8917     337                                                       13301   55.17  -41.17  1.0000
  -6 -12  -6    8865     385                                                       13180   55.13  -44.16  1.0000
 -12   6   6    8983     416                                                       13271   54.46  -43.22  1.0000
  -6  12   6    8498     402                                                       12767   55.17  -41.33  1.0000
  -4 -12  -6    7167     263                                                        7795   -1.57  -10.31  1.0000
   4  12  -6    7109     209                                                        7488   -3.88   -8.39  1.0000
  12   6  -4    7356     209                                                        8023   -0.66  -10.10  1.0000
 -12   6   4    7745     286                                                        8132   -4.48   -8.67  1.0000
   6   4 -12    7717     263                                                        8329   -1.61   -9.81  1.0000
   6   2 -12    2877     196                                                        4819   15.49  -28.78  1.0000
  -2 -12  -6    3252     192                                                        4887   12.76  -23.41  1.0000
   6   0 -12     944     126                                                        1354  -12.48    0.80  1.0000
   0 -12  -6     984     132                                                        1395  -12.27   -1.04  1.0000
   6  -2 -12    4389     254                                                        6313   13.57   23.63  1.0000
 -12  -6   2    4795     207                                                        6801   12.34   24.55  1.0000
  12  -6  -2    4253     179                                                        6467   13.36   28.83  1.0000
   6  -4 -12    5764     239                                                        6342   -1.29   10.35  1.0000
  12  -6  -4    5487     164                                                        5810   -4.48    8.67  1.0000
 -12  -6   4    5814     198                                                        6407   -0.66   10.10  1.0000
   6  -6 -12    6989     366                                                       10744   54.76   44.01  1.0000
  12  -6  -6    7321     293                                                       11156   54.46   43.22  1.0000
  12  -6  -8    3823     131                                                        4432   29.11  -84.06  1.0000
   6 -10 -12    2883     200                                                        1162   31.38  -43.10  1.0000
  12  -6 -10    3225      69                                                        1335   30.75  -44.83  1.0000
  12   8 -10   15207     371                                                       13959    4.19  -28.21  1.0000
 -10  12   8   16071     459                                                       14552    1.78  -28.07  1.0000
   8  10 -12   15497     368                                                       14022    2.07  -28.25  1.0000
   8   8 -12    4746     241                                                        7920    9.54   41.73  1.0000
 -12   8   8    4749     302                                                        7818    8.86   40.50  1.0000
  12   8  -8    4540     213                                                        7629    8.54   41.44  1.0000
  -8 -12  -8    5002     268                                                        8166    9.20   40.77  1.0000
   8   8 -12    4598     210                                                        7729    9.54   41.73  1.0000
   8   6 -12    3930     150                                                        3506  -16.85    4.00  1.0000
  -6 -12  -8    4109     178                                                        3749  -16.03    4.90  1.0000
 -12   8   6    3593     192                                                        3355  -14.99    6.40  1.0000
   8   6 -12    4183     111                                                        3747  -16.85    4.00  1.0000
  -4 -12  -8   11252     365                                                       11148  -14.26  -19.47  1.0000
   8   4 -12   11629     351                                                       11607  -13.58  -19.84  1.0000
  12   8  -4   11811     307                                                       11672  -14.45  -19.14  1.0000
   8   4 -12   11809     306                                                       11788  -13.58  -19.84  1.0000
   8   2 -12   38523    1835                                                       70081  132.84   61.04  1.0000
  12   8  -2   38293    1787                                                       70311  134.88   61.61  1.0000
  -2 -12  -8   38078    1845                                                       69942  134.48   62.10  1.0000
   0 -12  -8    2643     224                                                        5463   46.09   -2.98  1.0000
  12   8   0    2619     149                                                        5432   46.16   -2.41  1.0000
   8   0 -12    2526     217                                                        5292   46.07    2.59  1.0000
 -12  -8   2   50980    2178                                                       87240  134.88  -61.61  1.0000
   8  -2 -12   46858    2221                                                       81714  134.61  -61.26  1.0000
   2 -12  -8   47388    2227                                                       82123  133.37  -62.17  1.0000
  12  -8  -4   15197     391                                                       14961  -17.57   22.06  1.0000
   8  -4 -12   15365     468                                                       15219  -14.55   19.18  1.0000
   8  -6 -12    3960     200                                                        3595  -15.31   -4.15  1.0000
  12  -8  -6    3410     102                                                        3177  -14.99   -6.40  1.0000
  12  -8  -8    5104     225                                                        8274    8.86  -40.50  1.0000
  10 -12  -8   16512     400                                                       14974    1.78   28.07  1.0000
  12  -8 -10   17088     400                                                       15574    2.53   28.61  1.0000
  10  10 -12    2429      92                                                        2318   41.87  -36.79  1.0000
  10  12 -10    2253      96                                                        2149   41.17  -37.11  1.0000
  10   8 -12   35217    1005                                                       39236   21.42    2.43  1.0000
   8  12 -10   34958    1005                                                       39261   22.96    1.90  1.0000
  10   6 -12    8536     213                                                        7485   -2.48   39.10  1.0000
  12  10  -6    8862     213                                                        7836   -2.04   39.05  1.0000
  -6 -12 -10    8717     286                                                        7695   -2.19   38.39  1.0000
   6  12 -10    9355     215                                                        8198   -2.81   41.91  1.0000
  10   4 -12    3223     130                                                        4629    2.57  -26.29  1.0000
   4  12 -10    2906     129                                                        4308    1.40  -26.91  1.0000
 -12  10   4    2841     217                                                        4224    1.64  -26.91  1.0000
  -4 -12 -10    2915     213                                                        4392    0.57  -27.80  1.0000
  12  10  -4    2804     129                                                        4269    0.65  -28.05  1.0000
  12  10  -2   29244     998                                                       38683   68.98   24.72  1.0000
 -12  10   2   32150    1088                                                       42236   70.90   26.96  1.0000
  10   2 -12   29778     999                                                       39267   70.60   29.24  1.0000
  -2 -12 -10   29516    1073                                                       39161   69.73   24.35  1.0000
  12  10   0   12868     367                                                       14077   10.68   -2.47  1.0000
   0 -12 -10   13037     452                                                       14291   11.00   -3.13  1.0000
  10   0 -12   12979     370                                                       14241   11.08    2.77  1.0000
  12  10   2   38238    1252                                                       49012   70.54  -28.92  1.0000
   2 -12 -10   40632    1338                                                       51718   70.60  -29.37  1.0000
  12  10   4    1166      67                                                        2046    1.96   26.05  1.0000
  12 -10  -6    9218     223                                                        8063   -3.01  -41.01  1.0000
  12 -10  -8   33295     961                                                       37503   22.98   -1.91  1.0000
  12 -10 -10    2226      84                                                        2126   40.53   36.67  1.0000
  10 -12 -10    2208      79                                                        2061   42.01   36.91  1.0000
  12  12 -12   47784    1540                                                       60273   61.28   12.72  1.0000
  12  10 -12   28036     618                                                       24710   -4.07  -30.55  1.0000
  10  12 -12   28801     617                                                       25396   -3.11  -32.34  1.0000
   8  12 -12   23820     675                                                       26165    8.25  -18.40  1.0000
  12   8 -12   23870     676                                                       25989    6.57  -18.55  1.0000
 -12  12   8   24808     788                                                       27249    8.26  -19.09  1.0000
  -6 -12 -12    5141     209                                                        3863  -17.13   -9.46  1.0000
   6  12 -12    4350     113                                                        3211  -15.88  -10.63  1.0000
  12   6 -12    4761     119                                                        3522  -16.81  -10.53  1.0000
 -12  12   6    4716     238                                                        3526  -16.14  -10.19  1.0000
  12  12  -6    4563     113                                                        3382  -16.69   -9.63  1.0000
 -12  12   4    9934     322                                                        8028   34.17    5.90  1.0000
  -4 -12 -12   10392     328                                                        8380   33.10    3.89  1.0000
  12  12  -4   10312     226                                                        8348   32.98    4.40  1.0000
  12   4 -12   10072     227                                                        8212   34.21    6.84  1.0000
   4  12 -12   10161     225                                                        8239   34.83    6.58  1.0000
 -12  12   2   52912    1994                                                       75678  110.51  -11.76  1.0000
  -2 -12 -12   50551    1983                                                       73228  110.41   -8.00  1.0000
  12   2 -12   51543    1902                                                       74061  111.16  -12.85  1.0000
  12  12  -2   52221    1900                                                       75215  110.55   -8.60  1.0000
  12  12   0    1196     319                                                       12272  156.33    0.17  1.0000
   0 -12 -12    1340     428                                                       12754  156.58    0.17  1.0000
  12   0 -12    1102     323                                                       11941  156.09   -1.14  1.0000
  12  12   2   44517    1668                                                       65502  110.26   11.13  1.0000
   2 -12 -12   45915    1766                                                       67230  110.88   12.26  1.0000
  12  12   4   12744     288                                                       10694   33.21   -6.32  1.0000
   4 -12 -12   12437     399                                                       10387   34.26   -6.96  1.0000
  12  -6 -12    6037     139                                                        4637  -17.37    9.31  1.0000
  12  -8 -12   28832     781                                                       31144    6.28   18.96  1.0000
  12 -12  -8   26997     784                                                       29543    8.26   19.09  1.0000
  12 -10 -12   23917     533                                                       20840   -3.57   31.31  1.0000
  12 -12 -10   23314     534                                                       20262   -3.39   31.76  1.0000
  13   1 -11   14057     558                                                       21034  -51.00   20.75  1.0000
  -1 -11 -13   14119     652                                                       21376  -53.17   19.69  1.0000
 -11  13   1   14501     650                                                       21729  -52.00   21.12  1.0000
  13  -1  11   14894     552                                                       21921  -50.39   19.30  1.0000
  11  13  -1   14014     553                                                       21170  -52.60   19.78  1.0000
  -9  13   1    6671     202                                                        3455  -25.17   44.47  1.0000
  13   1  -9    6858     118                                                        3706  -24.65   41.89  1.0000
  13  -1   9    6689     104                                                        3556  -25.82   41.00  1.0000
  -1  -9 -13    6696     223                                                        3424  -24.80   46.47  1.0000
   9  13  -1    6975     106                                                        3599  -25.38   46.46  1.0000
 -13   1   7   13534     447                                                       14302   -9.79   54.99  1.0000
   7  13  -1   13130     371                                                       13929  -10.25   54.37  1.0000
  13   1  -7   14353     377                                                       15091   -9.14   50.96  1.0000
  -7  13   1   12916     433                                                       13831  -11.38   54.78  1.0000
  -5  13   1    1508     230                                                        6355   41.31   74.33  1.0000
 -13   1   5    1488     238                                                        6267   38.15   75.75  1.0000
  13   1  -5    1555     178                                                        6390   40.16   74.16  1.0000
 -13   1   3   11641     353                                                       11340   -9.59  -13.24  1.0000
  -3  13   1   11617     336                                                       11229   -8.04  -12.87  1.0000
  13   1  -1    3487     134                                                        4896   -8.13   63.92  1.0000
   1  13  -1    4207     152                                                        4462   20.90   92.30  1.0000
  -1  13   1    4267     174                                                        4629   19.49   91.92  1.0000
  13  -1  -1    6646     207                                                        7874   18.59  -93.82  1.0000
  -1  13  -1    5352     235                                                        7292   -9.33  -60.72  1.0000
  -3  13  -1   15879     446                                                       15918   -9.40    8.58  1.0000
 -13  -1   3   15208     451                                                       15386   -8.49    6.04  1.0000
 -13  -1   5    1013     205                                                        5222   40.16  -74.16  1.0000
  13  -1  -5     938     144                                                        5059   38.15  -75.75  1.0000
  -5  13  -1    1044     202                                                        5284   36.78  -76.31  1.0000
   1  -7 -13    8533     343                                                        8916   -8.72  -51.09  1.0000
  13  -1  -7    8678     243                                                        9143   -9.79  -54.99  1.0000
 -13  -1   7    7842     300                                                        8220   -9.14  -50.96  1.0000
  13  -1  -9   10773     185                                                        6514  -25.21  -45.74  1.0000
   9  13   1   10437     175                                                        6497  -24.68  -40.91  1.0000
   1  -9 -13   10740     295                                                        6686  -25.10  -41.44  1.0000
  11  13   1   14617     570                                                       21748  -51.09  -21.29  1.0000
  13  -1 -11   15458     577                                                       23012  -53.41  -18.51  1.0000
   1 -11 -13   15724     683                                                       23044  -50.76  -21.18  1.0000
  13   3 -11   69961    2322                                                       89892  -76.02   37.58  1.0000
 -11  13   3   71793    2408                                                       91853  -75.48   35.63  1.0000
  11  13  -3   72820    2319                                                       93371  -76.75   36.71  1.0000
 -11 -13  -3   68131    2326                                                       87880  -76.18   36.43  1.0000
 -13   3   9      39     140                                                         146  -11.79  -17.13  1.0000
  -9  13   3      20     128                                                          84  -13.11  -15.54  1.0000
   9  13  -3      32      50                                                         107  -11.37  -17.11  1.0000
  13   3  -9      19      57                                                          89  -15.06  -16.10  1.0000
   3   9 -13      29      44                                                          31  -13.38  -15.10  1.0000
   3   7 -13    1057      64                                                        1900  -23.52  -40.14  1.0000
  -7  13   3    1177     149                                                        2087  -23.62  -40.02  1.0000
   7  13  -3    1076      70                                                        1887  -22.57  -39.36  1.0000
 -13   3   7    1128     151                                                        1945  -22.06  -40.63  1.0000
  -5  13   3   31568    1043                                                       39293   33.68  -35.71  1.0000
   5  13  -3   30744     987                                                       38628   34.72  -36.83  1.0000
 -13   3   5   30798    1049                                                       38665   35.15  -36.60  1.0000
  13   3  -3    7138     189                                                        7037   22.03   -1.82  1.0000
 -13   3   3    7482     263                                                        7391   18.06   -1.69  1.0000
  -3  13   3    7433     239                                                        7485   18.62   -3.44  1.0000
  13  -3   3    6903     186                                                        6750   22.44   -1.21  1.0000
  13  -3   1    9100     292                                                       11069   -6.99   38.94  1.0000
   1  13  -3    9461     306                                                       10962   -5.21   29.80  1.0000
  13   3  -1    9218     292                                                       11269   -5.56   38.39  1.0000
  -1  13  -3    5342     211                                                        6741   -8.07  -38.95  1.0000
  13  -3  -3    1545      64                                                        1462   18.06    1.69  1.0000
 -13  -3   3    1623     116                                                        1514   22.03    1.82  1.0000
   3  -3 -13    1698     151                                                        1600   22.05    2.11  1.0000
  13  -3  -5   33010    1050                                                       41145   35.15   36.60  1.0000
 -13  -3   5   33221    1094                                                       40760   40.13   32.04  1.0000
  13  -3  -7    1422      85                                                        2380  -22.06   40.63  1.0000
   3  -9 -13      31     160                                                          44  -14.45   16.67  1.0000
   9  13   3      20      36                                                         102  -14.59   16.19  1.0000
  13  -3  -9      29      61                                                          99  -11.79   17.13  1.0000
  13  -3 -11   74538    2405                                                       95307  -76.64  -35.80  1.0000
   3 -11 -13   70471    2496                                                       90535  -76.20  -37.09  1.0000
  11  13   3   73787    2399                                                       94307  -76.18  -36.43  1.0000
 -11  13   5   10202     291                                                        7476    1.10   42.12  1.0000
  11  13  -5    9587     190                                                        6906    2.29   41.50  1.0000
  13   5 -11    9634     194                                                        6915    1.05   43.52  1.0000
 -11 -13  -5    9707     222                                                        6974    1.35   43.23  1.0000
   5  11 -13    8891     187                                                        6333    0.95   42.57  1.0000
  -5 -11 -13    9807     294                                                        7065    2.84   41.42  1.0000
   5  11 -13    9144     216                                                        6549    0.95   42.57  1.0000
   5   9 -13   46901    1262                                                       49775   -1.95   54.94  1.0000
  13   5  -9   46744    1265                                                       49630   -2.32   56.35  1.0000
  -9  13   5   47843    1344                                                       50597   -2.64   54.77  1.0000
  -9 -13  -5   46941    1296                                                       49749   -2.62   55.98  1.0000
 -13   5   9   44755    1343                                                       47949    0.38   53.85  1.0000
   5   9 -13   46258    1300                                                       49108   -1.95   54.94  1.0000
   9  13  -5   46135    1263                                                       49237   -0.38   53.96  1.0000
   7  13  -5    7742     124                                                        3999   58.68   -3.96  1.0000
  13   5  -7    8406     128                                                        4414   56.23   -9.31  1.0000
   5   7 -13    8205     175                                                        4341   60.01   -2.12  1.0000
 -13   5   7    7869     211                                                        4091   58.53   -4.19  1.0000
   5   7 -13    7843     118                                                        4073   60.01   -2.12  1.0000
  -7 -13  -5    8055     164                                                        4136   56.26   -9.86  1.0000
  -7  13   5    8085     202                                                        4272   59.96   -1.65  1.0000
   5  13  -5     741     135                                                        4481   45.53   68.53  1.0000
  -5  13   5    1005     209                                                        5134   45.85   68.81  1.0000
   5   5 -13     811     187                                                        4689   45.93   68.92  1.0000
  -5 -13  -5    1133     191                                                        5351   52.02   63.72  1.0000
 -13   5   5     956     216                                                        4966   45.96   67.81  1.0000
   5   3 -13   15442     238                                                       14301   16.64   53.35  1.0000
 -13   5   3   14937     260                                                       13930   15.66   54.20  1.0000
  13   5  -1    2690      89                                                        2821    2.30   -7.05  1.0000
   5   1 -13    3024     167                                                        3151    4.03   -8.73  1.0000
  13   5   1    1730      66                                                        1818    4.19    8.85  1.0000
   5  -1 -13    2053     148                                                        2167    2.40    7.20  1.0000
 -13  -5   3   15879     426                                                       15077   12.84  -47.74  1.0000
  13  -5  -3   15836     391                                                       14821   15.66  -54.20  1.0000
   5  -5 -13     275     199                                                        3119   51.68  -64.25  1.0000
  13  -5  -5     210      99                                                        2892   45.96  -67.81  1.0000
 -13  -5   5     253     143                                                        3021   51.52  -63.88  1.0000
  13  -5  -7    9248     149                                                        5119   58.53    4.19  1.0000
   5  -9 -13   40486    1131                                                       43080   -2.57  -56.39  1.0000
  13  -5  -9   37079    1029                                                       39933    0.38  -53.85  1.0000
  11  13   5    9694     187                                                        6962    1.35  -43.23  1.0000
  13  -5 -11   10026     199                                                        7258    2.38  -41.85  1.0000
 -11  13   7     271     171                                                         233   57.22   18.90  1.0000
  13   7 -11     228      77                                                         297   57.47   18.24  1.0000
   7  11 -13     227      71                                                         298   57.19   18.72  1.0000
 -11 -13  -7     207      96                                                         328   57.00   18.20  1.0000
  11  13  -7     251      78                                                         260   57.50   18.08  1.0000
 -13   7   9    9057     442                                                       13431    4.33   57.57  1.0000
  -9 -13  -7    8508     395                                                       13014    6.56   58.82  1.0000
   7   9 -13    8967     345                                                       13424    4.08   58.99  1.0000
  -9  13   7    9143     444                                                       13640    3.78   59.19  1.0000
   9  13  -7    8556     346                                                       12844    4.04   58.23  1.0000
  13   7  -9    8499     348                                                       13011    6.14   59.29  1.0000
   7   9 -13    8690     378                                                       13079    4.08   58.99  1.0000
   7  13  -7   52314    1316                                                       49508   24.36  -15.08  1.0000
   7   7 -13   55278    1355                                                       52268   26.37  -17.08  1.0000
   7   7 -13   56289    1315                                                       53253   26.37  -17.08  1.0000
  -7 -13  -7   56303    1366                                                       53078   28.69  -19.04  1.0000
 -13   7   7   54784    1397                                                       51869   25.11  -15.86  1.0000
  -5 -13  -7   23414    1168                                                       42164   91.01   57.35  1.0000
  13   7  -5   24855    1120                                                       43999   90.56   57.25  1.0000
   7   5 -13   24802    1164                                                       44193   89.92   61.01  1.0000
   7   5 -13   24563    1117                                                       43873   89.92   61.01  1.0000
 -13   7   5   24482    1198                                                       43529   90.26   58.04  1.0000
   7   3 -13   10927     376                                                       12062   16.36   36.58  1.0000
 -13   7   3   11540     409                                                       12349   13.23   38.61  1.0000
  13   7  -3   11472     324                                                       12416   14.13   35.49  1.0000
  -3 -13  -7   11200     385                                                       12185   14.66   35.47  1.0000
  13   7  -1    1690      73                                                        2125   29.51   31.60  1.0000
  -1 -13  -7    1667     143                                                        2098   29.63   31.77  1.0000
   7   1 -13    1760     161                                                        2066   27.78   35.80  1.0000
  13   7   1    1457      62                                                        1679   27.90  -36.42  1.0000
   7  -1 -13    1344     153                                                        1672   29.39  -31.92  1.0000
 -13  -7   1    1360      99                                                        1704   29.51  -31.60  1.0000
  13  -7  -3   13438     379                                                       14340   13.23  -38.61  1.0000
   7  -3 -13   13496     457                                                       14601   14.61  -35.62  1.0000
 -13  -7   3   13778     408                                                       14842   14.13  -35.49  1.0000
   7  -5 -13   19933    1000                                                       37287   90.10  -57.27  1.0000
  13  -7  -5   18730     919                                                       35729   90.26  -58.04  1.0000
   7  -7 -13   37374     943                                                       34776   28.36   19.19  1.0000
  13  -7  -7   35167     846                                                       32807   25.11   15.86  1.0000
  13  -7  -9    6325     269                                                        9988    4.33  -57.57  1.0000
  13  -7 -11     276      64                                                         232   57.78  -18.47  1.0000
   9  11 -13   17274     545                                                       21173   21.27  -38.65  1.0000
  13   9 -11   16819     546                                                       20642   20.85  -39.62  1.0000
  13   9  -9   64760    1569                                                       60825  -17.18   -5.19  1.0000
  -9 -13  -9   63548    1624                                                       59713  -16.97   -5.50  1.0000
   9   9 -13   66128    1567                                                       62706  -15.30   -7.77  1.0000
 -13   9   9   61000    1661                                                       57729  -15.28   -8.01  1.0000
   9   7 -13     849     104                                                        1325  -26.52   17.48  1.0000
   9   7 -13     750      70                                                        1188  -26.52   17.48  1.0000
  -7 -13  -9     743     135                                                        1139  -25.84   18.74  1.0000
 -13   9   7     647     172                                                        1016  -26.43   19.09  1.0000
   9   5 -13   33319     714                                                       28819  -24.82   26.13  1.0000
  -5 -13  -9   30029     773                                                       25506  -26.48   24.99  1.0000
   9   5 -13   31527     757                                                       27149  -24.82   26.13  1.0000
  13   9  -5   31998     714                                                       27362  -26.26   25.17  1.0000
   5  13  -9   32155     715                                                       27629  -25.43   27.38  1.0000
   9   3 -13    9465     316                                                        9940   -5.14   62.43  1.0000
  13   9  -3    9156     257                                                        9605   -5.09   63.01  1.0000
   9   3 -13    9176     256                                                        9629   -5.14   62.43  1.0000
  -3 -13  -9    9312     331                                                        9728   -4.60   63.54  1.0000
  -1 -13  -9    3345     186                                                        2880  -80.89    3.55  1.0000
  13   9  -1    3298      92                                                        2831  -81.47    3.46  1.0000
   9   1 -13    3327     172                                                        3018  -82.86    5.89  1.0000
   9   1 -13    3249      90                                                        2918  -82.86    5.89  1.0000
   1 -13  -9    4238     202                                                        4195  -83.70   -5.98  1.0000
  13   9   1    4188     120                                                        4115  -82.86   -6.18  1.0000
 -13  -9   1    4700     140                                                        4528  -81.47   -3.46  1.0000
   9  -1 -13    4443     197                                                        4225  -81.50   -3.49  1.0000
   9  -3 -13    9562     335                                                       10034   -4.98  -63.27  1.0000
  13   9   3    9012     249                                                        9431   -4.88  -63.22  1.0000
  13   9   5   26335     581                                                       22282  -25.18  -26.33  1.0000
  13  -9  -5   27632     587                                                       23466  -25.22  -27.55  1.0000
  13  -9  -7     418      65                                                         670  -26.43  -19.09  1.0000
   9 -13  -9   67912    1638                                                       64431  -15.33    7.63  1.0000
  13  -9  -9   67599    1640                                                       64155  -15.28    8.01  1.0000
  11 -13  -9   17594     567                                                       21512   21.14   38.65  1.0000
  13  -9 -11   18132     567                                                       22206   21.66   39.30  1.0000
  13  11 -11   15646     456                                                       16957   45.20  -56.09  1.0000
  11  11 -13   16249     456                                                       17544   45.58  -55.75  1.0000
  11  13 -11   16000     457                                                       17344   43.62  -55.00  1.0000
  11   9 -13    3297      84                                                        1321   34.30  -27.35  1.0000
   9  13 -11    3377      90                                                        1330   35.88  -26.85  1.0000
  -9 -13 -11    3238     141                                                        1201   37.15  -27.09  1.0000
  -7 -13 -11    2509     165                                                        1734  -14.05  -32.24  1.0000
  11   7 -13    2585      89                                                        1668  -17.30  -32.49  1.0000
   7  13 -11    2669      88                                                        1863  -14.30  -33.07  1.0000
  13  11  -7    2361      86                                                        1609  -13.94  -31.93  1.0000
   5  13 -11   44890    1423                                                       55689   49.89    3.49  1.0000
  11   5 -13   45711    1423                                                       56622   49.84    1.78  1.0000
 -13  11   5   42841    1513                                                       53417   49.97    3.87  1.0000
  13  11  -5   44620    1422                                                       55448   50.17    3.91  1.0000
  -5 -13 -11   43787    1497                                                       54538   50.21    3.26  1.0000
  11   3 -13    1518     122                                                        3887   -4.16  -56.20  1.0000
  -3 -13 -11    1304     206                                                        3473   -6.48  -56.04  1.0000
  13  11  -3    1569     120                                                        3906   -6.75  -55.85  1.0000
 -13  11   3    1357     236                                                        3696   -5.90  -58.20  1.0000
  11   1 -13   24302     601                                                       23210  -61.77   71.25  1.0000
 -13  11   1   25196     699                                                       24169  -60.17   69.96  1.0000
  -1 -13 -11   23545     688                                                       22579  -58.80   69.41  1.0000
  13  11  -1   24194     598                                                       23303  -58.90   70.13  1.0000
   1 -13 -11    9733     325                                                        8197  -62.13  -71.20  1.0000
  13  11   1    9882     223                                                        8384  -61.52  -70.85  1.0000
  11  -1 -13    9626     227                                                        8279  -59.07  -70.17  1.0000
   3 -13 -11    1340     229                                                        3578   -4.91   56.31  1.0000
  13  11   3    1433     110                                                        3766   -5.02   56.85  1.0000
  11  -5 -13   49007    1470                                                       60373   50.38   -4.25  1.0000
  13 -11  -5   45218    1473                                                       56069   49.97   -3.87  1.0000
  13  11   5   45696    1466                                                       56708   50.21   -0.76  1.0000
  13 -11  -7    3292      99                                                        2429  -14.04   34.06  1.0000
  13 -11  -9    1343      71                                                         221   36.24   26.43  1.0000
  13 -11 -11    9886     287                                                       10685   43.62   54.94  1.0000
  13  13 -13    9494     298                                                       10551   16.67  -13.87  1.0000
  11  13 -13    2717     114                                                        1537   19.28  -19.59  1.0000
  13  11 -13    2875     111                                                        1664   19.47  -19.30  1.0000
  13  13 -11    2924     114                                                        1672   20.29  -19.74  1.0000
  13   9 -13   44111     931                                                       36218  -40.14    5.21  1.0000
   9  13 -13   44447     931                                                       36582  -39.71    6.38  1.0000
   7  13 -13     195      91                                                        1343  -31.05   49.10  1.0000
  13  13  -7     156      80                                                        1183  -31.47   47.27  1.0000
  13   7 -13     161      84                                                        1147  -29.49   47.80  1.0000
  -7 -13 -13     134     164                                                        1079  -31.25   46.93  1.0000
 -13  13   5     686     190                                                         748   -9.48  -19.14  1.0000
  -5 -13 -13     668     151                                                         757   -8.83  -20.12  1.0000
  13   5 -13     688      75                                                         787   -8.84  -20.74  1.0000
  13  13  -5     713      71                                                         809   -8.70  -19.93  1.0000
  -3 -13 -13    2004     180                                                         975   10.88   26.61  1.0000
  13  13  -3    1886      72                                                         896    9.97   26.60  1.0000
 -13  13   3    2082     167                                                        1037   10.95   26.36  1.0000
  13   3 -13    2513      82                                                        1345    6.25   26.99  1.0000
 -13  13   1   11968     395                                                       10754  -20.26  -36.19  1.0000
  13  13  -1   11038     266                                                        9918  -19.72  -36.53  1.0000
  13   1 -13   10993     272                                                        9897  -19.50  -36.57  1.0000
  -1 -13 -13   11104     378                                                        9954  -19.94  -36.27  1.0000
  13  13   1    9015     210                                                        7975  -19.51   36.11  1.0000
   1 -13 -13    8620     331                                                        7601  -19.52   36.36  1.0000
  13  -1 -13    8468     217                                                        7438  -19.65   36.07  1.0000
  13  13   3    1554      54                                                         672    6.54  -27.01  1.0000
   3 -13 -13    1635     172                                                         721    6.27  -27.25  1.0000
  13  13   5    4789     141                                                        5222   -9.15   20.78  1.0000
  13  -5 -13    4452     152                                                        4848   -8.82   20.03  1.0000
  13  -7 -13     295      82                                                        1631  -31.30  -46.99  1.0000
  13 -13  -7     338      97                                                        1790  -31.02  -49.35  1.0000
  13 -13  -9   44970     975                                                       37084  -39.57   -6.26  1.0000
  13  -9 -13   46747     973                                                       38657  -39.82   -6.00  1.0000
  13 -13 -11     922      69                                                         297   19.52   19.66  1.0000
   0  14   0   81637    2560                                                       99970   62.48    4.67  1.0000
  14   0   0   81613    2533                                                       99692   61.67   -3.91  1.0000
  14   0   2   40455     875                                                       34443  -31.89   -1.50  1.0000
  -2  14   0   39042     908                                                       33263  -31.20    0.97  1.0000
  -4  14   0     184     110                                                        1015   37.40    4.16  1.0000
  14   0  -4     113      53                                                         810   36.39   -5.90  1.0000
 -14   0   4     153     113                                                         911   36.39    5.90  1.0000
  14   0   4     127      46                                                         849   36.54   -4.26  1.0000
  14   0   6   29165     938                                                       36384   40.97    1.89  1.0000
   6  14   0   29410     937                                                       36524   40.23   -5.23  1.0000
  -6  14   0   30103     997                                                       37316   40.35   -3.17  1.0000
 -14   0   6   27522     997                                                       34415   40.23   -4.32  1.0000
  14   0  -6   30263     942                                                       37473   40.23    4.32  1.0000
   0  -8 -14   19949     546                                                       18409  -11.41    1.89  1.0000
 -14   0   8   17932     521                                                       16518  -11.05    0.67  1.0000
   8  14   0   18686     448                                                       17173  -11.60   -0.16  1.0000
  14   0   8   18289     447                                                       17047   -9.59   -0.03  1.0000
  -8  14   0   19137     523                                                       17789  -10.18    0.91  1.0000
  14   0  -8   19697     455                                                       18213  -11.05   -0.67  1.0000
   0 -10 -14   77542    1315                                                       48828  117.95    0.46  1.0000
 -10  14   0   77030    1295                                                       48433  117.90    1.71  1.0000
  14   0  10   76438    1210                                                       47991  117.78   -2.50  1.0000
  10  14   0   75066    1210                                                       46910  117.75   -0.45  1.0000
  14   0 -10   75401    1215                                                       47249  117.40   -0.38  1.0000
  14   0 -12    4238     125                                                        3337   15.04    0.39  1.0000
 -12  14   0    4647     228                                                        3742   14.37   -1.83  1.0000
   0 -12 -14    4700     238                                                        3772   14.65   -0.31  1.0000
  12  14   0    4835     115                                                        3874   14.96   -0.92  1.0000
  12  14  -2   31971     936                                                       37835   31.69  -44.49  1.0000
  14  -2  12   30868     935                                                       36412   30.51  -45.35  1.0000
  14   2 -12   29843     941                                                       35342   30.81  -44.79  1.0000
  -2 -12 -14   31045    1042                                                       36692   30.98  -45.09  1.0000
 -12  14   2   29298    1028                                                       34656   30.21  -48.80  1.0000
 -10  14   2   27029     996                                                       34667   53.59   55.45  1.0000
  -2 -10 -14   29901    1021                                                       38104   54.45   56.51  1.0000
  10  14  -2   28203     909                                                       36151   54.47   56.91  1.0000
  14  -2  10   27566     909                                                       35622   55.50   56.04  1.0000
  14   2 -10   26526     914                                                       34338   54.72   53.13  1.0000
 -14   2   8    2790     203                                                        3653  -74.17  -23.34  1.0000
  -8  14   2    2544     199                                                        3419  -74.51  -25.56  1.0000
   8  14  -2    2831     110                                                        3731  -74.23  -23.65  1.0000
  14  -2   8    2560     106                                                        3479  -74.14  -26.13  1.0000
 -14   2   6    5119     252                                                        5978  -23.97   31.29  1.0000
  14   2  -6    6567     192                                                        7353  -22.61   27.42  1.0000
  -6  14   2    6023     249                                                        6728  -26.65   29.18  1.0000
  14  -2   6    5775     182                                                        6454  -25.13   28.27  1.0000
   6  14  -2    5827     183                                                        6827  -23.82   32.09  1.0000
  14  -2   4    2214     110                                                        3731  -71.64   -8.09  1.0000
  -4  14   2    2158     167                                                        3717  -75.34   -7.35  1.0000
   4  14  -2    2220     107                                                        3714  -75.40   -5.25  1.0000
 -14   2   4    2199     179                                                        3651  -74.83   -5.04  1.0000
  14   2  -2     670      53                                                         797    8.63  -26.23  1.0000
  14  -2   2     803      56                                                         847    4.90  -26.92  1.0000
  -2  14   2     447     101                                                         917   16.11   18.56  1.0000
  14   2   0   11559     264                                                       10098   14.42   -2.49  1.0000
  14  -2   0   11501     263                                                        9966   15.21   -6.49  1.0000
   0  14  -2   11242     285                                                        9669   15.80    7.09  1.0000
  -2  14  -2     243      79                                                         152    7.44   30.12  1.0000
  14   2   2      52      38                                                          46   13.73  -18.86  1.0000
  -4  14  -2    3461     197                                                        5585  -72.80    6.98  1.0000
  14   2   4    3044     144                                                        5093  -74.79    7.55  1.0000
 -14  -2   4    3183     205                                                        5256  -71.91    8.94  1.0000
  14  -2  -4    3359     153                                                        5421  -74.83    5.04  1.0000
  14   2   6    2328      84                                                        2597  -26.31  -28.11  1.0000
  14  -2  -6    2416      99                                                        2903  -23.97  -31.29  1.0000
 -14  -2   6    2255     158                                                        2601  -22.61  -27.42  1.0000
  14  -2  -8    9150     303                                                       11855  -74.17   23.34  1.0000
  14   2   8    8405     293                                                       11120  -73.78   25.18  1.0000
   2  -8 -14    9204     409                                                       12156  -74.55   25.52  1.0000
   8  14   2    8342     293                                                       11094  -74.47   25.51  1.0000
  14  -2 -10   29624    1013                                                       37769   54.33  -56.22  1.0000
  10  14   2   31695    1007                                                       40249   54.65  -53.41  1.0000
  12  14   2   32060     963                                                       37761   30.77   44.98  1.0000
   2 -12 -14   31037    1075                                                       36676   30.96   44.56  1.0000
 -12  14   4   15144     378                                                        9872  -49.02    4.46  1.0000
  12  14  -4   14819     261                                                        9778  -47.29    4.88  1.0000
  -4 -12 -14   15140     372                                                       10026  -47.44    4.94  1.0000
  14   4 -12   14288     265                                                        9199  -48.79    3.73  1.0000
  10  14  -4   36702    1092                                                       43810   35.94   -8.93  1.0000
   4  10 -14   34144    1091                                                       41050   36.12   -9.25  1.0000
  -4 -10 -14   38585    1194                                                       45863   35.86  -10.06  1.0000
 -10  14   4   34934    1175                                                       41935   36.20   -9.51  1.0000
 -10 -14  -4   37760    1113                                                       44546   33.81  -10.38  1.0000
  14   4 -10   36094    1096                                                       42727   33.80   -9.96  1.0000
   8  14  -4   24610     763                                                       30460  -33.04  -16.18  1.0000
 -14   4   8   23240     840                                                       28942  -32.76  -17.33  1.0000
  14   4  -8   24965     766                                                       31235  -35.54  -15.53  1.0000
   4   8 -14   22610     760                                                       28315  -35.18  -10.60  1.0000
  -8  14   4   23786     836                                                       29711  -35.92   -9.73  1.0000
   4   6 -14    4279     134                                                        4911  -63.32  -35.05  1.0000
  -6  14   4    4698     223                                                        5422  -62.95  -34.76  1.0000
   6  14  -4    4083     141                                                        4804  -65.09  -33.93  1.0000
 -14   4   6    4346     230                                                        5102  -64.76  -34.25  1.0000
 -14   4   4    1821     137                                                        1327   -9.42  -52.53  1.0000
   4  14  -4    1801      61                                                        1283  -10.00  -52.52  1.0000
  14  -4   4    1691      65                                                        1229   -9.43  -46.69  1.0000
  14  -4   2   13354     130                                                        4461 -105.97    1.41  1.0000
  14   4  -2   13890     131                                                        4735 -106.77    1.14  1.0000
   4   0 -14     110     152                                                        1115  -48.43  -16.08  1.0000
  14   4   0     150      54                                                        1221  -47.37   14.11  1.0000
   0  14  -4      83      78                                                        1038  -49.30  -15.91  1.0000
 -14  -4   2   28018     420                                                       14161 -106.77   -1.14  1.0000
  14   4   2   28896     378                                                       14969 -109.22    7.49  1.0000
  14  -4  -2   27963     380                                                       14098 -109.84    4.95  1.0000
 -14  -4   4    2775     138                                                        2482   -6.60   49.41  1.0000
  14   4   4    3152      83                                                        2593  -12.17   50.76  1.0000
   4  -4 -14    2761     180                                                        2478   -6.39   48.09  1.0000
  14  -4  -4    3181      95                                                        2768   -9.42   52.53  1.0000
 -14  -4   6    6211     256                                                        7534  -65.47   32.32  1.0000
  14  -4  -6    6066     193                                                        7204  -64.76   34.25  1.0000
  14  -4  -8   19677     637                                                       24947  -32.76   17.33  1.0000
   4  -8 -14   16878     722                                                       22100  -35.45   16.01  1.0000
   4 -10 -14   39992    1243                                                       47041   34.17   10.29  1.0000
  14  -4 -10   37316    1130                                                       44421   35.65    8.99  1.0000
  10  14   4   37125    1124                                                       43856   33.81   10.38  1.0000
  14  -4 -12   11766     198                                                        7332  -47.27   -4.86  1.0000
   4 -12 -14   11940     316                                                        7322  -48.91   -3.17  1.0000
  12  14   4   11038     183                                                        6656  -48.48   -3.62  1.0000
  14   6 -12    1967      98                                                        1564  -13.22   -9.03  1.0000
  -6 -12 -14    1978     178                                                        1597  -13.13  -10.42  1.0000
 -12  14   6    1784     165                                                        1444  -12.21   -9.75  1.0000
   6  12 -14    1898      82                                                        1546  -12.34   -9.94  1.0000
  12  14  -6    1904      86                                                        1542  -12.62  -10.01  1.0000
   6  10 -14   17955     530                                                       18460   -3.69    6.05  1.0000
 -10 -14  -6   18035     535                                                       18510   -3.35    9.26  1.0000
 -10  14   6   18825     586                                                       19385   -4.00    6.17  1.0000
  14   6 -10   18488     498                                                       18929   -3.07    8.62  1.0000
   6  10 -14   18752     495                                                       19268   -3.69    6.05  1.0000
  10  14  -6   18506     496                                                       19248   -5.46    3.67  1.0000
 -14   6   8     649     151                                                        1307  -26.47  -37.39  1.0000
   6   8 -14     587      61                                                        1153  -25.03  -34.90  1.0000
  -8  14   6     573     160                                                        1115  -24.92  -34.43  1.0000
  14   6  -8     652      81                                                        1313  -24.77  -36.25  1.0000
  -8 -14  -6     684     110                                                        1361  -25.68  -36.62  1.0000
   8  14  -6     594      74                                                        1191  -26.49  -36.88  1.0000
   6   8 -14     789     115                                                        1492  -25.03  -34.90  1.0000
  -6 -14  -6    6383     203                                                        5307  -11.75   13.43  1.0000
   6   6 -14    6274     138                                                        4929  -15.19   16.61  1.0000
 -14   6   6    6596     243                                                        5291  -14.52   14.54  1.0000
   6   6 -14    6429     200                                                        5066  -15.19   16.61  1.0000
   6  14  -6    6106     146                                                        4891  -14.01   14.17  1.0000
  -6  14   6    6302     226                                                        4963  -14.97   17.10  1.0000
   6   4 -14   38620     950                                                       35164   14.21   13.27  1.0000
   6   4 -14   37732     890                                                       34316   14.21   13.27  1.0000
  14   6  -4   38374     894                                                       34618   16.73   11.90  1.0000
 -14   6   4   38766     973                                                       35254   14.19   13.96  1.0000
  -4 -14  -6   40553     947                                                       36839   15.88   11.81  1.0000
   4  14  -6   39140     893                                                       35696   13.86   13.56  1.0000
   6   2 -14    9043     321                                                        9786   -9.91    6.55  1.0000
   2  14  -6    8645     261                                                        9411   -8.84    7.13  1.0000
   6   0 -14    5146     132                                                         628   95.75   -0.92  1.0000
   6  -2 -14    9280     354                                                       10126   -4.89   -8.25  1.0000
  14   6   2    9252     266                                                        9985   -9.12   -6.48  1.0000
  14  -6  -2    9463     271                                                       10240   -8.66   -6.91  1.0000
 -14  -6   2    9438     307                                                       10312   -4.87   -8.46  1.0000
 -14  -6   4   39055     866                                                       35264   16.73  -11.90  1.0000
   6  -4 -14   37277     908                                                       33738   16.20  -10.87  1.0000
  14  -6  -4   36118     821                                                       32731   14.19  -13.96  1.0000
  14  -6  -6    6605     152                                                        5299  -14.52  -14.54  1.0000
  14   6   6    6545     144                                                        5185  -15.00  -16.56  1.0000
   6  -6 -14    6524     247                                                        5466  -11.54  -12.32  1.0000
  14  -6  -8    2414     125                                                        3918  -26.47   37.39  1.0000
   6 -10 -14   16521     531                                                       16980   -3.41   -8.87  1.0000
  14  -6 -10   15017     414                                                       15639   -5.08   -3.40  1.0000
  14  -6 -12    1144      73                                                         840  -13.35   10.08  1.0000
  -8 -12 -14    2530     205                                                        3106   -5.33   29.33  1.0000
   8  12 -14    2614     125                                                        3202   -5.74   27.66  1.0000
  12  14  -8    2662     120                                                        3236   -5.03   29.07  1.0000
  14   8 -12    2307     124                                                        2805   -4.83   27.72  1.0000
   8  10 -14   69023    1768                                                       71934   -8.88  -16.07  1.0000
 -10 -14  -8   65816    1820                                                       69088  -10.88  -14.26  1.0000
  14   8 -10   67666    1770                                                       70946  -10.70  -14.46  1.0000
  10  14  -8   62788    1769                                                       65480   -8.83  -14.35  1.0000
   8   8 -14    1602      91                                                         518  -49.16   -4.30  1.0000
 -14   8   8    1830     178                                                         595  -51.71   -6.27  1.0000
  -8 -14  -8    1511     110                                                         454  -47.20   -6.34  1.0000
   8   8 -14    1565      63                                                         493  -49.16   -4.30  1.0000
   8   6 -14    2274      92                                                        2722  -19.35  -52.73  1.0000
 -14   8   6    2099     174                                                        2536  -18.12  -56.30  1.0000
  -6 -14  -8    2176     164                                                        2812  -18.07  -61.29  1.0000
   8   6 -14    2099     145                                                        2496  -19.35  -52.73  1.0000
   8   4 -14   60543    2057                                                       76446  -39.13   62.92  1.0000
  14   8  -4   62469    2006                                                       79356  -42.52   62.18  1.0000
   8   4 -14   62734    2004                                                       78912  -39.13   62.92  1.0000
 -14   8   4   63829    2093                                                       80506  -39.09   65.96  1.0000
  -4 -14  -8   59347    2064                                                       75740  -41.98   62.58  1.0000
   8   2 -14   14056     435                                                       13656  -32.53  -28.78  1.0000
  -2 -14  -8   15424     449                                                       14790  -32.38  -31.27  1.0000
  14   8  -2   14966     372                                                       14358  -32.39  -31.02  1.0000
 -14   8   2   15236     469                                                       14635  -31.27  -29.94  1.0000
   8   2 -14   14577     369                                                       14177  -32.53  -28.78  1.0000
   8   0 -14     142     125                                                         606  -26.09   -0.13  1.0000
  14   8   0     168      53                                                         648  -25.66   -0.33  1.0000
   8  -2 -14   17606     514                                                       16951  -31.99   31.04  1.0000
  14  -8  -2   17456     438                                                       16845  -31.27   29.94  1.0000
  14   8   2   16588     432                                                       16260  -33.08   28.53  1.0000
  14  -8  -4   75695    2370                                                       93808  -39.09  -65.96  1.0000
   8  -4 -14   78379    2452                                                       97124  -42.42  -61.71  1.0000
  14   8   4   74767    2365                                                       92469  -39.21  -63.43  1.0000
   8  -6 -14     845     173                                                         626  -17.73   62.38  1.0000
  14   8   6     785      41                                                         603  -19.87   53.48  1.0000
  14  -8  -6     769      67                                                         503  -18.12   56.30  1.0000
  14  -8  -8     855      64                                                          46  -51.71    6.27  1.0000
  14  -8 -10   61999    1649                                                       64660   -8.60   15.40  1.0000
  14  -8 -12    3500     131                                                        4192   -5.04  -29.67  1.0000
  12 -14  -8    3156     134                                                        3815   -5.72  -27.74  1.0000
  14  10 -12   26093     613                                                       22386   22.74    9.19  1.0000
  10  12 -14   28375     612                                                       24465   23.80    7.67  1.0000
  14  10 -10   14057     294                                                       10824   28.48  -10.62  1.0000
  10  10 -14   13611     288                                                       10418   25.37  -15.93  1.0000
  10   8 -14   30516     854                                                       33680   -4.39  -33.06  1.0000
  -8 -14 -10   29398     920                                                       32675   -4.81  -34.45  1.0000
  14  10  -6   17396     408                                                       15698   40.53   43.94  1.0000
   6  14 -10   16661     410                                                       14937   40.23   42.69  1.0000
  -6 -14 -10   17063     477                                                       15341   40.77   43.81  1.0000
  10   6 -14   17547     407                                                       15879   41.84   46.62  1.0000
  14  10  -4    7487     195                                                        7698   48.90    8.91  1.0000
  10   4 -14    7298     253                                                        7442   48.06    9.37  1.0000
  -4 -14 -10    7097     276                                                        7242   49.07    9.50  1.0000
  10   4 -14    7192     193                                                        7331   48.06    9.37  1.0000
  10   2 -14    2608     156                                                        2393  -40.33   54.11  1.0000
  10   2 -14    2496      82                                                        2255  -40.33   54.11  1.0000
  -2 -14 -10    2458     171                                                        2249  -40.00   51.30  1.0000
  14  10  -2    2369      81                                                        2144  -40.52   52.18  1.0000
 -14 -10   0  105414    1973                                                       72132  115.10    0.42  1.0000
   0 -14 -10  110321    2039                                                       76231  114.98    0.22  1.0000
  14  10   0  111912    1960                                                       77524  115.10   -0.42  1.0000
  10   0 -14  112006    2030                                                       77598  115.11   -0.44  1.0000
  10   0 -14  113185    1961                                                       78581  115.11   -0.44  1.0000
  14  10   2    3678     110                                                        3688  -40.73  -54.46  1.0000
  10  -2 -14    3747     112                                                        3788  -40.63  -52.72  1.0000
  14 -10  -4    8161     223                                                        8440   48.46   -8.40  1.0000
  14  10   4    7487     208                                                        7601   48.05   -9.84  1.0000
  14  10   6   23781     569                                                       22007   41.72  -46.74  1.0000
  14 -10  -6   24626     579                                                       22749   39.66  -42.57  1.0000
  14 -10  -8   23282     675                                                       26024   -3.60   34.61  1.0000
  14 -10 -10   14016     292                                                       10790   26.45   13.84  1.0000
  10 -14 -10   14085     289                                                       10823   25.63   15.67  1.0000
  12 -14 -10   26748     590                                                       23028   23.33   -7.51  1.0000
  14 -10 -12   25830     589                                                       22427   22.29   -5.77  1.0000
  12  14 -12   10281     283                                                        9544  -12.50   28.12  1.0000
  14  12 -12   11172     284                                                       10333  -12.83   25.94  1.0000
  12  12 -14   10849     285                                                       10058  -12.47   26.12  1.0000
  12  10 -14    1065     109                                                        2555  -49.97   20.85  1.0000
  10  14 -12     920     118                                                        2262  -50.35   19.69  1.0000
  -8 -14 -12   12718     514                                                       15504  -21.72  -24.98  1.0000
  12   8 -14   13673     442                                                       16837  -24.26  -22.43  1.0000
   8  14 -12   13728     442                                                       16816  -23.13  -26.09  1.0000
  12   6 -14   12292     443                                                       16767  -44.48   -8.52  1.0000
  -6 -14 -12   12012     524                                                       16533  -44.48   -6.34  1.0000
   6  14 -12   12761     444                                                       17387  -44.39   -6.71  1.0000
  14  12  -6   11933     441                                                       16454  -44.47   -6.01  1.0000
  14  12  -4     835      88                                                        2193   22.98  -28.82  1.0000
  12   4 -14     826      96                                                        2217   22.99  -29.88  1.0000
 -14  12   4     864     218                                                        2245   23.33  -28.66  1.0000
  -4 -14 -12     704     189                                                        1970   22.24  -29.19  1.0000
  12   2 -14    9870     314                                                       11897   -8.65  -33.37  1.0000
  14  12  -2    9732     312                                                       11690   -7.94  -33.74  1.0000
 -14  12   2   10092     417                                                       12061   -7.91  -33.17  1.0000
  -2 -14 -12    9078     402                                                       10976   -7.88  -34.11  1.0000
  14  12   0   83746    2004                                                       79193   16.37   -1.68  1.0000
  12   0 -14   82705    2007                                                       78141   16.51    1.08  1.0000
 -14  12   0   86831    2120                                                       82495   15.29   -0.40  1.0000
   0 -14 -12   82208    2100                                                       77775   16.08   -1.59  1.0000
   2 -14 -12    5980     314                                                        7505   -8.27   33.36  1.0000
  14  12   2    5768     197                                                        7285   -8.56   33.33  1.0000
  12  -2 -14    5709     202                                                        7192   -8.14   33.57  1.0000
  14  12   4       8      45                                                         248   22.64   30.57  1.0000
  14 -12  -6   14869     541                                                       19861  -44.42    6.41  1.0000
  12  -6 -14   15922     535                                                       21128  -44.79    6.43  1.0000
  14 -12  -8    8838     310                                                       11319  -23.21   25.41  1.0000
  14 -12 -10     479      88                                                        1367  -50.11  -19.68  1.0000
  14 -12 -12    9305     240                                                        8603  -12.53  -28.73  1.0000
  14  14 -14   19643     374                                                       13409   36.60  -34.41  1.0000
  14  14 -12   13945     441                                                       16036  -19.71   11.01  1.0000
  14  12 -14   14181     445                                                       16425  -20.88   11.36  1.0000
  12  14 -14   15071     446                                                       17162  -19.48   13.53  1.0000
  14  10 -14   68621    1627                                                       63903   19.07   -0.97  1.0000
  10  14 -14   68363    1628                                                       63423   20.41    0.65  1.0000
  14   8 -14     499     101                                                         456  -41.46    0.28  1.0000
   8  14 -14     529     101                                                         521  -39.60    0.00  1.0000
  14  14  -8     447     100                                                         390  -40.41   -0.28  1.0000
  -8 -14 -14     495     158                                                         475  -40.08   -0.39  1.0000
  -6 -14 -14   11064     408                                                       10958   -3.09   42.14  1.0000
  14   6 -14   11180     314                                                       11141   -2.91   45.81  1.0000
  14  14  -6   11758     310                                                       11671   -2.97   41.89  1.0000
  -4 -14 -14   80934    2315                                                       85951  -15.54  -10.24  1.0000
  14   4 -14   82375    2215                                                       87493  -15.77  -10.18  1.0000
  14  14  -4   81592    2212                                                       86608  -15.41  -10.45  1.0000
  14  14  -2   16768     379                                                       14681   16.94    2.37  1.0000
  -2 -14 -14   16742     500                                                       14697   16.50    2.83  1.0000
  14   2 -14   16044     384                                                       14045   16.46    2.99  1.0000
  14  14   0   31116     934                                                       36709   31.18   -1.44  1.0000
   0 -14 -14   29793    1049                                                       35286   31.26   -0.62  1.0000
  14   0 -14   30769     940                                                       36340   31.22    0.00  1.0000
  14  -2 -14   16138     377                                                       14129   16.59   -2.46  1.0000
   2 -14 -14   15606     497                                                       13584   16.88   -3.24  1.0000
  14  14   2   16182     369                                                       14147   16.67   -3.11  1.0000
  14  14   4   78318    2117                                                       83308  -15.93    9.60  1.0000
  14 -14  -6   12503     350                                                       12301   -4.33  -43.28  1.0000
  14  -6 -14   12873     338                                                       12777   -3.15  -41.57  1.0000
  14 -14  -8     784     102                                                         884  -39.44   -0.08  1.0000
  14  -8 -14     765      71                                                         878  -40.09    0.53  1.0000
  14 -14 -10   66715    1580                                                       61787   20.54   -0.30  1.0000
  14 -14 -12   15781     472                                                       17948  -19.56  -12.76  1.0000
  15   1 -13    3067     136                                                        3468    6.57    2.94  1.0000
  13  15  -1    3352     118                                                        3802    7.78    1.29  1.0000
  -1 -13 -15    2849     231                                                        3255    7.72    0.94  1.0000
  15  -1  11    3997     126                                                        4425   13.92   24.08  1.0000
  15   1 -11    3492     144                                                        3913   15.00   26.12  1.0000
  -1 -11 -15    3863     272                                                        4247   13.27   23.67  1.0000
 -11  15   1    3629     224                                                        4112   15.13   23.46  1.0000
  11  15  -1    3989     130                                                        4375   13.36   24.49  1.0000
   9  15  -1   14519     288                                                       10857  -43.00   -7.33  1.0000
  15  -1   9   14438     287                                                       10828  -40.83   -8.52  1.0000
  -1  -9 -15   14946     418                                                       11248  -42.24   -7.68  1.0000
  15   1  -9   15170     297                                                       11276  -45.02   -7.58  1.0000
  -1  -7 -15    2182     151                                                         966   47.95  -64.00  1.0000
 -15   1   7    1984     151                                                         728   47.96  -64.01  1.0000
  15  -1   7    1965      52                                                         775   45.69  -64.38  1.0000
  15   1  -7    2071      76                                                         838   48.40  -65.80  1.0000
   7  15  -1    2007      56                                                         739   48.64  -64.61  1.0000
  -7  15   1    2082     125                                                         857   48.36  -66.21  1.0000
   5  15  -1    8325     255                                                        9466   -5.82   17.95  1.0000
 -15   1   5    8514     327                                                        9735   -6.18   18.78  1.0000
  15   1  -5    8644     264                                                       10155  -12.44   11.98  1.0000
  -5  15   1    8023     314                                                        9326   -8.35   17.16  1.0000
  15  -1   5    8291     256                                                        9637   -9.84   14.45  1.0000
  -3  15   1    4750     154                                                        3268  -17.12  -70.88  1.0000
  15  -1   3    5162     111                                                        3782  -15.48  -62.78  1.0000
 -15   1   3    4705     181                                                        3286  -16.11  -69.80  1.0000
  15  -1   1   11595     295                                                       11382   30.73   77.27  1.0000
  -1  15   1   11967     331                                                       11279   31.20   67.88  1.0000
  15   1  -1   11122     295                                                       10933   29.79   76.66  1.0000
  15  -1  -1    9111     224                                                        8357   31.19  -68.50  1.0000
  -1  15  -1    8999     259                                                        8741   29.16  -77.58  1.0000
  15   1   1    9065     222                                                        8182   32.47  -67.89  1.0000
  -3  15  -1    5082     162                                                        3727  -15.15   62.71  1.0000
 -15  -1   3    4684     184                                                        3406  -13.99   65.06  1.0000
  15   1   5    9429     292                                                       10880   -9.03  -16.64  1.0000
  15  -1  -5   10317     299                                                       11661   -6.18  -18.78  1.0000
  -5  15  -1    9704     349                                                       11115   -9.71  -13.73  1.0000
 -15  -1   5    9485     360                                                       11065  -12.44  -11.98  1.0000
 -15  -1   7    1933     133                                                         660   48.40   65.80  1.0000
   1  -7 -15    2057     190                                                         769   50.76   68.59  1.0000
  -7  15  -1    1936     129                                                         710   46.89   65.79  1.0000
  15   1   7    1992      50                                                         734   48.52   66.06  1.0000
  15  -1  -7    1979      73                                                         721   47.96   64.01  1.0000
   7  15   1    2059      48                                                         818   48.41   65.43  1.0000
  15   1   9   11996     226                                                        8577  -41.48    9.95  1.0000
  15  -1  -9   12433     239                                                        9045  -42.59    7.71  1.0000
   1  -9 -15   11594     334                                                        8212  -44.62    7.73  1.0000
  -9  15  -1   10880     311                                                        7755  -40.99    8.46  1.0000
   9  15   1   11588     224                                                        8196  -44.35    8.10  1.0000
 -11  15  -1    4222     237                                                        4683   14.22  -24.27  1.0000
   1 -11 -15    4135     256                                                        4586   14.74  -26.60  1.0000
  15  -1 -11    4450     153                                                        4874   13.41  -24.23  1.0000
  11  15   1    4125     134                                                        4565   14.69  -27.01  1.0000
   1 -13 -15    2088     235                                                        2430    6.68   -3.17  1.0000
  15  -1 -13    2173     119                                                        2532    7.69   -1.23  1.0000
  13  15   1    2474      96                                                        2829    6.77   -2.14  1.0000
  13  15  -3   41380    1017                                                       39688   14.54  -26.20  1.0000
  15  -3  13   42607    1016                                                       40803   13.56  -25.85  1.0000
  -3 -13 -15   40672    1128                                                       38979   14.43  -26.19  1.0000
  15   3 -13   39671    1021                                                       38114   14.39  -25.28  1.0000
  15   3 -11   43470    1043                                                       38698   20.50   13.22  1.0000
  11  15  -3   46142    1038                                                       41053   21.77   12.49  1.0000
 -11  15   3   45519    1140                                                       40812   20.32   11.42  1.0000
  15  -3  11   46474    1038                                                       41071   22.82   13.76  1.0000
 -15   3   9    5448     300                                                        7239  -18.55   17.52  1.0000
  15   3  -9    5915     213                                                        7856  -19.42   18.15  1.0000
  -9  15   3    5195     291                                                        6987  -19.11   17.83  1.0000
   9  15  -3    5570     202                                                        7373  -18.88   17.30  1.0000
  15  -3   9    5072     200                                                        6973  -19.56   19.36  1.0000
  15  -3   7    8444     360                                                       13660   46.90   59.39  1.0000
   7  15  -3    8737     360                                                       13953   45.96   60.45  1.0000
  -7  15   3    8095     431                                                       13206   47.09   58.25  1.0000
 -15   3   7    8084     440                                                       13109   46.17   59.75  1.0000
 -15   3   5    2428     156                                                         841  -23.17   34.64  1.0000
  -5  15   3    2309     119                                                         781  -22.19   34.95  1.0000
  15  -3   5    2604      58                                                        1008  -22.50   32.59  1.0000
   5  15  -3    2672      59                                                         987  -23.23   34.60  1.0000
  15   3  -3    3543     155                                                        5546  -48.57   53.93  1.0000
  15  -3   3    3268     150                                                        5206  -49.52   57.36  1.0000
  -3  15   3    2975     203                                                        5216  -55.82   55.41  1.0000
 -15   3   3    3294     236                                                        5625  -54.70   54.97  1.0000
  15  -3   1   18164     524                                                       20199    1.75  -49.21  1.0000
  15   3  -1   18668     524                                                       20589    1.64  -45.99  1.0000
   1  15  -3   17703     540                                                       19644    0.40  -52.06  1.0000
  -1  15  -3   18071     559                                                       20036    1.26   49.22  1.0000
  15   3   1   18691     531                                                       20578   -0.81   52.98  1.0000
   3  -3 -15    1168     185                                                        1735  -48.89  -54.52  1.0000
  15  -3  -3     940      66                                                        1360  -54.70  -54.97  1.0000
  -3  15  -3    1099     112                                                        1506  -49.57  -57.72  1.0000
  15   3   3     912      61                                                        1341  -55.20  -53.82  1.0000
 -15  -3   3    1149     127                                                        1699  -48.57  -53.93  1.0000
  15   3   5    1461      45                                                         331  -22.90  -34.18  1.0000
   3  -5 -15    1101     126                                                         203  -21.49  -32.41  1.0000
 -15  -3   5    1558     117                                                         416  -20.74  -33.39  1.0000
  15  -3  -5    1434      57                                                         309  -23.17  -34.64  1.0000
  15   3   7    7748     342                                                       12716   46.89  -57.56  1.0000
   7  15   3    8139     340                                                       13372   48.09  -57.85  1.0000
  15  -3  -7    8275     348                                                       13360   46.17  -59.75  1.0000
 -15  -3   7    7773     412                                                       12907   48.25  -58.24  1.0000
  15   3   9    5121     189                                                        6886  -19.31  -17.54  1.0000
   9  15   3    5333     189                                                        7133  -19.54  -17.45  1.0000
  15  -3  -9    5253     202                                                        7013  -18.55  -17.52  1.0000
   3 -11 -15   26203     691                                                       22577   19.71  -14.13  1.0000
  15  -3 -11   26000     570                                                       22169   22.32  -12.10  1.0000
  11  15   3   25208     562                                                       21657   20.26  -12.90  1.0000
  13  15   3   40245     988                                                       38690   14.29   25.09  1.0000
  -5 -13 -15    5422     304                                                        6831   41.25    4.88  1.0000
  13  15  -5    5242     199                                                        6654   41.09    5.40  1.0000
  15   5 -13    5558     207                                                        7160   39.71    7.93  1.0000
  -5 -11 -15     611     160                                                         622    0.05    3.27  1.0000
   5  11 -15     511      68                                                         517    0.83    5.70  1.0000
 -11  15   5     654     165                                                         661    0.66    5.08  1.0000
  15   5 -11     537      86                                                         580   -0.71    6.09  1.0000
  11  15  -5     464      74                                                         483   -0.22    4.13  1.0000
   9  15  -5   18803     517                                                       19871   -5.64   34.33  1.0000
  15   5  -9   19123     522                                                       20335   -4.48   34.10  1.0000
   5   9 -15   18715     514                                                       19896   -4.34   33.53  1.0000
  -9  15   5   18821     613                                                       20050   -3.92   33.38  1.0000
 -15   5   9   17723     610                                                       18760   -5.22   33.55  1.0000
   5   9 -15   18046     564                                                       19201   -4.34   33.53  1.0000
   5   7 -15   13811     478                                                       18440   48.37   14.10  1.0000
   5   7 -15   14703     540                                                       19477   48.37   14.10  1.0000
  15   5  -7   14429     485                                                       18936   44.60    9.70  1.0000
  -7  15   5   13263     551                                                       17797   48.19   13.77  1.0000
   7  15  -5   13624     482                                                       18340   48.17   11.45  1.0000
 -15   5   7   13452     565                                                       18057   47.79   12.14  1.0000
   5  15  -5    8693     280                                                       10475   62.67  -20.84  1.0000
 -15   5   5    8871     376                                                       10723   62.99  -20.55  1.0000
   5   5 -15    8657     274                                                       10424   65.36  -23.10  1.0000
   5   5 -15    9610     350                                                       11527   65.36  -23.10  1.0000
   5   3 -15   15560     419                                                       13365   43.71   12.95  1.0000
 -15   5   3   15570     445                                                       13505   42.67   13.60  1.0000
  15  -5   3   15636     358                                                       13621   41.70   13.43  1.0000
  15  -5   1    5824     102                                                        2968   62.08   31.11  1.0000
  15   5  -1    6003     100                                                        3125   60.86   30.15  1.0000
   1  15  -5    6043     114                                                        3211   55.44   24.53  1.0000
  15   5   1    4937      79                                                        2281   56.17  -21.71  1.0000
   5  -1 -15    5210     158                                                        2541   61.36  -31.66  1.0000
   5  -3 -15   28303     718                                                       25441   44.11  -13.08  1.0000
  15  -5  -3   27368     630                                                       24742   42.67  -13.60  1.0000
 -15  -5   3   28443     679                                                       25589   43.95  -13.07  1.0000
  15   5   3   26575     626                                                       23927   43.52  -13.76  1.0000
  15   5   5   12232     388                                                       14544   65.46   22.97  1.0000
   5  -5 -15   13899     505                                                       16311   67.86   26.52  1.0000
  15  -5  -5   12746     394                                                       15143   62.99   20.55  1.0000
 -15  -5   5   14189     452                                                       16658   66.97   25.44  1.0000
  15   5   7   19306     642                                                       24770   48.27  -13.79  1.0000
  15  -5  -7   20030     649                                                       25626   47.79  -12.14  1.0000
  15  -5  -9   18245     506                                                       19301   -5.22  -33.55  1.0000
   5  -9 -15   18799     621                                                       19967   -4.69  -34.01  1.0000
   5 -11 -15     798     205                                                         852   -0.79   -5.85  1.0000
  15  -5 -11     610      81                                                         629    0.05   -4.64  1.0000
  13  15   5    1848      88                                                        2647   39.63   -7.37  1.0000
  15  -5 -13    2101     110                                                        2895   40.83   -5.50  1.0000
  15   7 -13   26597     659                                                       24883   11.69  -30.60  1.0000
  13  15  -7   26236     655                                                       24625   11.25  -33.18  1.0000
  -7 -13 -15   25191     757                                                       23637   11.05  -33.31  1.0000
   7  13 -15   28417     656                                                       26395   13.48  -33.02  1.0000
  15   7 -11    1681     106                                                        1761  -18.77  -15.55  1.0000
  11  15  -7    1779     100                                                        1747  -16.20  -16.93  1.0000
   7  11 -15    1871      94                                                        1849  -15.85  -16.29  1.0000
 -15   7   9    1897     185                                                        1427   17.75  -14.46  1.0000
   9  15  -7    2040      83                                                        1541   17.41  -14.76  1.0000
   7   9 -15    1974     114                                                        1517   16.70  -13.66  1.0000
  -9  15   7    1999     159                                                        1530   16.51  -13.86  1.0000
   7   9 -15    1893      74                                                        1445   16.70  -13.66  1.0000
  15   7  -9    1827      87                                                        1417   13.23  -12.16  1.0000
   7   7 -15   44274    1202                                                       42910   11.25   37.82  1.0000
   7  15  -7   47003    1156                                                       45314   12.52   36.67  1.0000
  -7 -15  -7   48142    1208                                                       46288   13.19   36.30  1.0000
   7   7 -15   46694    1153                                                       45302   11.25   37.82  1.0000
 -15   7   7   46325    1248                                                       44705   12.34   37.48  1.0000
   7   5 -15   20730     744                                                       26568   40.31    8.36  1.0000
  15   7  -5   22027     691                                                       27563   36.85    3.72  1.0000
   5  15  -7   21048     691                                                       26884   40.20    9.93  1.0000
 -15   7   5   20628     778                                                       26367   39.92    9.80  1.0000
   7   5 -15   20318     686                                                       26101   40.31    8.36  1.0000
  -5 -15  -7   23043     750                                                       28721   36.91    3.00  1.0000
   7   3 -15   18535     558                                                       18476   17.95   45.81  1.0000
  15   7  -3   19115     497                                                       19342   20.03   45.49  1.0000
 -15   7   3   19193     588                                                       19248   18.72   45.67  1.0000
   7   3 -15   19113     492                                                       19062   17.95   45.81  1.0000
  15   7  -1    4137     146                                                        5011   57.90  -14.86  1.0000
   7   1 -15    4331     223                                                        5251   57.42  -14.99  1.0000
  15  -7  -1    3456     135                                                        4111   61.93   13.66  1.0000
 -15  -7   1    3369     162                                                        4073   57.90   14.86  1.0000
   7  -1 -15    3385     202                                                        4125   58.15   15.36  1.0000
  15   7   1    3425     121                                                        4142   57.07   14.86  1.0000
 -15  -7   3   35208     915                                                       35727   20.03  -45.49  1.0000
  15  -7  -3   33556     876                                                       33816   18.72  -45.67  1.0000
   7  -3 -15   32271     956                                                       32759   20.03  -45.22  1.0000
  15  -7  -5   21212     699                                                       27027   39.92   -9.80  1.0000
   7  -5 -15   21977     788                                                       27512   36.71   -2.22  1.0000
  15  -7  -7   56386    1400                                                       54634   12.34  -37.48  1.0000
   7  -7 -15   57995    1498                                                       55977   13.21  -35.96  1.0000
  15  -7  -9    3694     113                                                        3063   17.75   14.46  1.0000
  15  -7 -11     916      78                                                         845  -15.76   17.02  1.0000
  13 -15  -7   18570     460                                                       16950   13.06   33.87  1.0000
  15  -7 -13   18742     453                                                       17356   11.14   32.97  1.0000
  13  15  -9    4829     241                                                        7541   28.61   25.87  1.0000
  15   9 -13    5267     243                                                        8058   27.98   26.53  1.0000
  15   9 -11    8121     208                                                        7048  -14.34   17.51  1.0000
   9  11 -15    8040     205                                                        6925  -14.45   13.32  1.0000
   9   9 -15    4866     119                                                        3477  -60.35   13.24  1.0000
  15   9  -9    4430     126                                                        3087  -59.50   13.14  1.0000
  -7 -15  -9    2588     145                                                        1709   19.31    4.07  1.0000
 -15   9   7    2832     174                                                        1898   19.52    4.21  1.0000
   9   7 -15    2603     124                                                        1678   19.77    5.95  1.0000
   9   7 -15    2877      84                                                        1900   19.77    5.95  1.0000
  -5 -15  -9    8902     258                                                        6021   37.40  -29.31  1.0000
 -15   9   5    9215     313                                                        6563   34.22  -32.49  1.0000
   9   5 -15    9584     185                                                        6870   34.03  -30.14  1.0000
   9   5 -15    8725     240                                                        6133   34.03  -30.14  1.0000
  15   9  -5    9570     190                                                        6631   36.80  -29.46  1.0000
 -15   9   3    5081     235                                                        3891   22.68    0.64  1.0000
   9   3 -15    5411     122                                                        4201   22.27    0.66  1.0000
  -3 -15  -9    5246     206                                                        3993   22.77    1.60  1.0000
  15   9  -3    5292     128                                                        4028   22.89    1.59  1.0000
   9   3 -15    4988     187                                                        3827   22.27    0.66  1.0000
  15   9  -1    2940     128                                                        4293   27.33    6.18  1.0000
   9   1 -15    3063     217                                                        4684   31.55    2.95  1.0000
   9   1 -15    2807     126                                                        4362   31.55    2.95  1.0000
   9  -1 -15     848      64                                                        1609   27.26   -6.78  1.0000
 -15  -9   1     999      99                                                        1813   27.33   -6.18  1.0000
  15   9   1     718      67                                                        1549   31.46   -3.64  1.0000
   9  -1 -15     839     152                                                        1596   27.26   -6.78  1.0000
  15   9   3    1165      52                                                         621   22.46   -0.71  1.0000
   9  -3 -15     976     149                                                         468   22.75   -1.51  1.0000
  15  -9  -3    1269      80                                                         695   22.68   -0.64  1.0000
   9  -5 -15   12460     356                                                        9084   37.02   29.28  1.0000
  15  -9  -5   12446     251                                                        9379   34.22   32.49  1.0000
  15   9   5   11865     238                                                        8829   34.30   30.30  1.0000
  15   9   7    2704      66                                                        1761   19.91   -5.45  1.0000
  15  -9  -7    2682      98                                                        1776   19.52   -4.21  1.0000
  15  -9  -9    3063      96                                                        1790  -61.03  -13.20  1.0000
  15  -9 -11    6420     167                                                        5446  -14.24  -14.43  1.0000
  11 -15  -9    6869     170                                                        5825  -14.64  -13.38  1.0000
  15  -9 -13    5503     239                                                        8455   29.30  -26.37  1.0000
  13 -15  -9    5536     244                                                        8576   30.05  -26.87  1.0000
  11  13 -15    4201     120                                                        2331   16.40  -33.81  1.0000
  15  11 -13    3939     131                                                        2141   17.10  -33.77  1.0000
  15  11 -11   49004    1464                                                       56378  -30.72   15.79  1.0000
  11  11 -15   50143    1463                                                       57939  -32.18   15.84  1.0000
  11   9 -15    2494     168                                                        5683  -48.64  -19.16  1.0000
   9  15 -11    2093     174                                                        5075  -49.34  -17.83  1.0000
  -7 -15 -11      25     129                                                         137    3.15  -14.71  1.0000
  11   7 -15      66      75                                                         231    5.09  -13.90  1.0000
   7  15 -11     104      82                                                         269    0.83  -14.59  1.0000
  15  11  -7     130      87                                                         332    2.83  -14.68  1.0000
  11   5 -15    2617     145                                                        4664    0.69   42.33  1.0000
  15  11  -5    2724     147                                                        4696    3.08   41.77  1.0000
  -5 -15 -11    2488     229                                                        4369    3.74   41.99  1.0000
  11   3 -15   47672    1201                                                       48072   -6.16  -10.80  1.0000
  15  11  -3   45679    1199                                                       46157   -5.98   -9.15  1.0000
  -3 -15 -11   45004    1282                                                       45440   -5.92   -9.49  1.0000
  -1 -15 -11   28241     780                                                       26030  -17.07   10.29  1.0000
  15  11  -1   29263     689                                                       26979  -17.11    9.68  1.0000
  11   1 -15   29306     689                                                       26654  -19.45    9.53  1.0000
 -15  11   1   29037     804                                                       26966  -16.13   10.91  1.0000
  15  11   1   18003     411                                                       15929  -19.44   -9.54  1.0000
  11  -1 -15   17467     412                                                       15680  -17.48  -10.35  1.0000
  11  -3 -15   52337    1287                                                       52785   -5.75    9.35  1.0000
  15  11   3   48428    1285                                                       48773   -5.85   10.76  1.0000
  15 -11  -3   50086    1294                                                       50282   -5.15   10.90  1.0000
  15  11   5    3316     153                                                        5574    1.60  -42.44  1.0000
  15 -11  -5    3217     176                                                        5400    2.58  -42.29  1.0000
  15 -11  -7    1259     102                                                        1749    0.98   14.21  1.0000
  15 -11  -9    1894     155                                                        4752  -49.19   17.74  1.0000
  15 -11 -11   60819    1758                                                       68871  -30.35  -14.86  1.0000
  13 -15 -11    3613      98                                                        1888   15.75   33.93  1.0000
  15 -11 -13    3520      96                                                        1803   14.03   34.23  1.0000
  15  13 -13     286     131                                                        1497   42.86  -43.69  1.0000
  13  15 -13     336     136                                                        1628   42.29  -43.02  1.0000
  13  13 -15     353     130                                                        1736   43.38  -44.59  1.0000
  13  11 -15    8898     227                                                        7146  -17.39   10.07  1.0000
  11  15 -13    9994     233                                                        8045  -18.04   10.91  1.0000
   9  15 -13    9551     290                                                       10414  -62.36  -70.01  1.0000
  13   9 -15    9472     287                                                       10198  -61.18  -67.70  1.0000
   7  15 -13   11853     260                                                        9375   37.39   19.86  1.0000
  15  13  -7   11547     257                                                        8943   39.31   19.84  1.0000
  13   7 -15   11341     254                                                        9023   36.34   20.39  1.0000
  13   5 -15     198      83                                                         923   19.10  -27.65  1.0000
  15  13  -5     277      87                                                        1066   16.61  -28.89  1.0000
  -5 -15 -13     313     157                                                        1150   16.71  -29.31  1.0000
  13   3 -15   12778     405                                                       15384   35.54    8.01  1.0000
  -3 -15 -13   12293     504                                                       15039   36.64    6.80  1.0000
  15  13  -3   12490     403                                                       15260   36.86    7.08  1.0000
  -1 -15 -13   16079     548                                                       16999   15.72  -40.23  1.0000
  13   1 -15   16112     447                                                       16855   18.37  -41.67  1.0000
  15  13  -1   16204     444                                                       17151   15.54  -40.27  1.0000
  15  13   1   15291     411                                                       15922   18.45   40.61  1.0000
  13  -1 -15   14727     415                                                       15644   15.47   40.65  1.0000
   1 -15 -13   14538     527                                                       15157   18.44   40.82  1.0000
  13  -3 -15   11816     390                                                       14501   36.69   -6.95  1.0000
  15  13   3   12367     385                                                       14985   35.71   -7.46  1.0000
  15  13   5       8      49                                                         357   18.63   28.00  1.0000
  15 -13  -5       8     103                                                         313   15.40   29.09  1.0000
  15 -13  -7   17350     392                                                       14410   37.12  -19.88  1.0000
  15 -13  -9    9236     284                                                       10043  -62.19   69.85  1.0000
  15 -13 -11   11535     266                                                        9448  -17.87  -10.89  1.0000
  15 -13 -13     888     117                                                        2927   42.92   42.76  1.0000
  15  15 -15   11941     344                                                       11747   40.90  -39.40  1.0000
  15  13 -15    1160     137                                                         903   37.49  -16.52  1.0000
  15  15 -13    1067     136                                                         783   39.84  -17.31  1.0000
  13  15 -15    1292     146                                                        1027   38.10  -16.18  1.0000
  15  11 -15   10578     306                                                       10308   -5.82   -1.62  1.0000
  11  15 -15   11686     316                                                       11407   -5.32   -1.24  1.0000
   9  15 -15    3347     132                                                        2292  -11.08  -26.75  1.0000
  15  15  -9    3079     130                                                        2085  -11.06  -25.59  1.0000
  15   9 -15    3258     119                                                        2197  -12.19  -24.98  1.0000
  15  15  -7   12768     300                                                       10965   16.46   -5.02  1.0000
  15   7 -15   12276     304                                                       10536   16.25   -4.69  1.0000
  15  -5  15   14751     412                                                       15923   17.22   38.46  1.0000
  15   5 -15   14285     421                                                       15383   16.87   38.95  1.0000
  15  15  -5   14605     416                                                       15673   16.07   35.87  1.0000
  15   3 -15   23647     659                                                       25063   10.92   -5.46  1.0000
  15  15  -3   24027     655                                                       25489   11.20   -5.66  1.0000
  15  15  -1   19706     453                                                       17449   27.71   27.66  1.0000
  15   1 -15   19140     459                                                       17223   25.43   28.50  1.0000
  15  15   1   23006     545                                                       20877   26.02  -29.00  1.0000
  15  -1 -15   23735     551                                                       21279   27.50  -27.09  1.0000
  15  -3 -15   26909     723                                                       28442   11.20    6.02  1.0000
  15  15   3   26147     716                                                       27584   10.62    5.58  1.0000
  15  15   5   14327     399                                                       15418   16.79  -38.91  1.0000
  15 -15  -5   14214     423                                                       15091   14.69  -36.32  1.0000
  15 -15  -7   12532     312                                                       10805   15.99    4.16  1.0000
  15 -15  -9    3971     132                                                        2822  -11.21   26.38  1.0000
  15  -9 -15    3984     109                                                        2879  -10.58   25.48  1.0000
  15 -15 -11   13102     351                                                       12837   -5.36    1.64  1.0000
  16   0   0    7313     684                                                       26565  158.59  -16.29  1.0000
  16   0  -2      93      61                                                         365   58.19    9.17  1.0000
  16   0   2     109      57                                                         330   57.85    9.72  1.0000
  -2  16   0      85      95                                                         344   56.15   -9.54  1.0000
  -4  16   0    1426     134                                                        2068   15.58    2.74  1.0000
 -16   0   4    1501     158                                                        2204   16.85   -0.08  1.0000
  16   0   4    1313      79                                                        1943   15.93   -2.35  1.0000
  16   0  -6     101     139                                                        4542 -117.65   -2.80  1.0000
  16   0   6      45     128                                                        4144 -118.39    0.91  1.0000
   0  -6 -16     122     232                                                        4650 -117.20    4.06  1.0000
  -6  16   0     135     208                                                        4814 -118.47   -1.20  1.0000
 -16   0   6      87     202                                                        4444 -117.65    2.80  1.0000
 -16   0   8   18757     421                                                       12267   53.75    1.42  1.0000
   0  -8 -16   20009     465                                                       13230   54.23    1.31  1.0000
  -8  16   0   18045     416                                                       11772   53.01   -2.60  1.0000
   8  16   0   19443     336                                                       12824   53.74    0.74  1.0000
  16   0  -8   20076     345                                                       13338   53.75   -1.42  1.0000
  16   0   8   19289     337                                                       12748   53.31    2.88  1.0000
  16   0  10   12637     662                                                       25737  -98.50   -0.64  1.0000
  10  16   0   12310     661                                                       25433  -99.56   -0.23  1.0000
 -10  16   0   13163     759                                                       26520  -98.72    0.29  1.0000
  16   0 -10   12602     670                                                       25868  -99.66   -0.04  1.0000
  12  16   0    7161     174                                                        6059   13.91   -0.26  1.0000
  16   0  12    7631     170                                                        6439   14.59   -1.19  1.0000
  14  16   0    6755     201                                                        7109   -4.35   -1.06  1.0000
  16   0 -14    6820     212                                                        7145   -3.99    1.37  1.0000
  14  16  -2    1934     155                                                        4966  -48.09  -25.36  1.0000
  16   2 -14    2045     170                                                        5050  -48.27  -21.93  1.0000
  16   2 -12    7146     159                                                        4082   43.24  -11.34  1.0000
  12  16  -2    7771     143                                                        4562   43.07  -10.17  1.0000
  16  -2  12    7792     137                                                        4702   41.12   -9.44  1.0000
  -2 -12 -16    7433     244                                                        4322   42.74   -9.79  1.0000
  -2 -10 -16    3796     287                                                        5909  -58.77    1.55  1.0000
  10  16  -2    3432     160                                                        5430  -58.77    1.68  1.0000
  16  -2  10    3433     156                                                        5345  -53.55    4.06  1.0000
 -10  16   2    3344     249                                                        5375  -57.46    3.80  1.0000
  16   2 -10    3567     175                                                        5668  -56.43    4.44  1.0000
 -16   2   8    2983     194                                                        3458    5.29   -6.77  1.0000
  16  -2   8    3132     113                                                        3575    0.12   -9.54  1.0000
   8  16  -2    3108     115                                                        3610    5.09   -7.29  1.0000
  -8  16   2    2906     204                                                        3476    6.25   -8.26  1.0000
  16   2  -6    5506     184                                                        6722  -16.67    4.12  1.0000
  -6  16   2    4994     248                                                        6363  -19.44    4.40  1.0000
   6  16  -2    4992     176                                                        6279  -18.11    2.45  1.0000
  16  -2   6    4915     175                                                        6085  -16.82    3.38  1.0000
 -16   2   6    4869     262                                                        6106  -17.71    2.91  1.0000
 -16   2   4   15315     848                                                       31173 -112.41    8.35  1.0000
  -4  16   2   15078     827                                                       30964 -113.15    8.54  1.0000
  16  -2   4   14518     772                                                       29838 -110.18   11.48  1.0000
  16   2  -2   26242     501                                                       19405   45.42  -13.59  1.0000
  16  -2   2   26091     500                                                       19222   45.88  -12.90  1.0000
  16  -2   0   29723    1326                                                       52149 -114.79   -4.96  1.0000
   0  16  -2   28063    1350                                                       49775 -114.02    4.13  1.0000
  16   2   0   29805    1326                                                       52468 -115.73   -5.06  1.0000
  -2  16  -2   29806     615                                                       22475   45.58   12.73  1.0000
 -16  -2   2   28962     635                                                       21755   45.42   13.59  1.0000
  16   2   2   29658     577                                                       22467   44.19   18.96  1.0000
  -4  16  -2   18749     975                                                       35868 -110.34  -12.02  1.0000
  16   2   4   18351     926                                                       35540 -112.90   -8.09  1.0000
 -16  -2   4   19239     987                                                       36609 -110.54  -12.47  1.0000
  16  -2  -4   19179     929                                                       36620 -112.41   -8.35  1.0000
 -16  -2   6    5862     263                                                        7115  -16.67   -4.12  1.0000
  16  -2  -6    5400     192                                                        6699  -17.71   -2.91  1.0000
  -6  16  -2    5705     256                                                        6973  -17.05   -4.17  1.0000
  16   2   6    5080     180                                                        6407  -18.77   -4.65  1.0000
   8  16   2    1901      77                                                        2305    2.28    9.52  1.0000
  16  -2  -8    2060     103                                                        2458    5.29    6.77  1.0000
  -8  16  -2    2004     181                                                        2360    0.31    9.42  1.0000
  16   2   8    1840      80                                                        2268    5.70    7.86  1.0000
   2  -8 -16    2079     203                                                        2531    2.53   10.11  1.0000
   2 -10 -16    3398     276                                                        5426  -56.25   -4.31  1.0000
  16  -2 -10    3191     168                                                        5088  -58.76   -1.44  1.0000
  10  16   2    3138     144                                                        5099  -56.66   -4.46  1.0000
  16   2  10    3204     145                                                        5153  -57.47   -3.24  1.0000
 -10  16  -2    3162     236                                                        4997  -53.63   -4.21  1.0000
  12  16   2    6663     116                                                        3733   42.87   10.30  1.0000
  14  16   2    1862     146                                                        4765  -48.19   22.32  1.0000
  16  -2 -14    2124     164                                                        5243  -47.75   25.24  1.0000
  16   4 -14   20034     653                                                       24792  -30.00  -18.45  1.0000
  14  16  -4   19374     647                                                       23914  -29.15  -17.87  1.0000
  16  -4  14   20806     645                                                       25866  -31.17  -19.73  1.0000
  -4 -12 -16    2427     195                                                        2004  -16.83   -5.61  1.0000
  12  16  -4    2388      96                                                        1967  -16.73   -5.51  1.0000
  16   4 -12    2390     107                                                        1859  -17.80   -3.12  1.0000
  16  -4  12    2349      85                                                        1939  -16.50   -5.57  1.0000
  10  16  -4   11689     597                                                       23116  -89.83  -20.78  1.0000
 -10  16   4   11064     692                                                       22113  -89.01  -21.50  1.0000
  16   4 -10   11879     603                                                       23412  -89.97  -22.21  1.0000
  16  -4  10   11429     596                                                       22754  -89.84  -21.89  1.0000
 -16   4   8   14042     502                                                       14477   -3.24   23.48  1.0000
  -8  16   4   14791     496                                                       15290   -3.63   23.71  1.0000
  16  -4   8   15000     409                                                       15355   -2.37   24.50  1.0000
   8  16  -4   15914     411                                                       16355   -2.98   23.80  1.0000
  16   4  -8   15200     416                                                       15411   -1.13   24.84  1.0000
  16  -4   6   15597     524                                                       20821  -46.36   25.78  1.0000
  -6  16   4   16382     597                                                       21350  -45.05   23.42  1.0000
 -16   4   6   15043     605                                                       19879  -47.74   22.90  1.0000
   4   6 -16   15022     519                                                       19797  -45.30   23.45  1.0000
   6  16  -4   15370     524                                                       20237  -48.26   22.51  1.0000
   4   4 -16    1985      57                                                        1640  -59.44   -0.11  1.0000
  16  -4   4    2013      77                                                        1676  -49.46   -0.02  1.0000
 -16   4   4    2032     163                                                        1818  -56.65   -3.05  1.0000
  16  -4   2    1729      70                                                         738  -35.48  -30.62  1.0000
   4   2 -16    1546     139                                                         614  -35.41  -33.43  1.0000
  16   4  -2    1694      63                                                         747  -34.37  -31.71  1.0000
  16  -4   0     983     125                                                        4024   65.83    0.00  1.0000
   0  16  -4     836     142                                                        3705   65.57    0.36  1.0000
  16   4   0    1029     120                                                        3969   63.43   -0.28  1.0000
   4  -2 -16    2422     151                                                        1310  -35.05   31.79  1.0000
  16   4   2    2550      66                                                        1446  -34.96   33.87  1.0000
  -2  16  -4    2297     103                                                        1173  -35.83   30.80  1.0000
 -16  -4   2    2282     122                                                        1217  -34.37   31.71  1.0000
   4  -4 -16    2356     198                                                        1929  -49.72   -2.61  1.0000
  -4  16  -4    2456     140                                                        2125  -49.63   -0.55  1.0000
 -16  -4   4    2639     147                                                        2257  -49.70   -1.90  1.0000
  16  -4  -4    2249      88                                                        2072  -56.65    3.05  1.0000
  16   4   4    2192      75                                                        1922  -58.81    1.04  1.0000
  16   4   6   18224     618                                                       23444  -44.17  -23.65  1.0000
 -16  -4   6   20541     691                                                       26442  -45.48  -25.60  1.0000
   4  -6 -16   21224     743                                                       27277  -45.71  -25.87  1.0000
  16  -4  -6   18901     624                                                       24320  -47.74  -22.90  1.0000
  16  -4  -8   15426     411                                                       15889   -3.24  -23.48  1.0000
  16   4   8   14756     402                                                       15239   -3.46  -24.53  1.0000
  16  -4 -10    8288     489                                                       18149  -89.46   20.63  1.0000
   4 -10 -16    9312     626                                                       19731  -89.95   22.54  1.0000
  10  16   4    8604     479                                                       18724  -90.19   23.19  1.0000
  12  16   4    1805      60                                                        1361  -17.94    3.91  1.0000
  16  -4 -12    1746      93                                                        1379  -16.93    5.55  1.0000
  14  16   4   18940     606                                                       23556  -29.81   18.93  1.0000
  14  16  -6     881      89                                                         184  -35.05   -8.70  1.0000
  16   6 -14    1079      99                                                         291  -34.06   -5.80  1.0000
  12  16  -6   17517     380                                                       14418  -11.87  -54.75  1.0000
  16   6 -12   16958     384                                                       13988  -10.82  -56.24  1.0000
 -10  16   6      76     169                                                         324   -3.28  -19.15  1.0000
  16   6 -10       6      82                                                          66   -0.36  -19.02  1.0000
   6  10 -16       2      61                                                          98   -3.27  -19.32  1.0000
  10  16  -6      33      77                                                         215   -2.06  -18.99  1.0000
  16   6  -8    1551      83                                                         567  -30.24  -36.89  1.0000
 -16   6   8    1229     177                                                         382  -27.90  -39.62  1.0000
   8  16  -6    1876      83                                                         877  -27.96  -39.20  1.0000
  -8  16   6    1394     153                                                         503  -28.07  -38.23  1.0000
   6   8 -16    1491      61                                                         569  -28.32  -38.71  1.0000
   6   8 -16    1399     112                                                         500  -28.32  -38.71  1.0000
   6  16  -6    4697     141                                                        4185  -48.70    0.84  1.0000
   6   6 -16    5151     200                                                        4657  -48.90    0.60  1.0000
   6   6 -16    4925     126                                                        4428  -48.90    0.60  1.0000
 -16   6   6    4794     224                                                        4278  -48.55    0.92  1.0000
   6   4 -16    5041     297                                                        8660  -75.87  -58.43  1.0000
 -16   6   4    5071     336                                                        8660  -75.95  -57.93  1.0000
  16   6  -4    5541     230                                                        9052  -78.05  -54.62  1.0000
  16  -6   4    4762     228                                                        8097  -76.15  -56.84  1.0000
   6   4 -16    4591     219                                                        7977  -75.87  -58.43  1.0000
   2  16  -6     339      42                                                         104  -41.72  -23.14  1.0000
  16  -6   2     309      75                                                         204  -41.68  -19.80  1.0000
 -16   6   2     314     132                                                         194  -41.09  -22.13  1.0000
   6   2 -16     318     138                                                         201  -41.30  -24.63  1.0000
   0  16  -6     235     191                                                        5882 -125.88   -1.37  1.0000
   6   0 -16     242     251                                                        6176 -129.30    1.47  1.0000
   6  -2 -16     317     160                                                         293  -42.14   19.54  1.0000
  16  -6  -2     352      76                                                         416  -41.09   22.13  1.0000
 -16  -6   2     326      95                                                         343  -42.43   19.49  1.0000
 -16  -6   4    6411     305                                                       10301  -78.05   54.62  1.0000
  16   6   4    5073     240                                                        8712  -76.18   58.47  1.0000
  16  -6  -4    5308     251                                                        9013  -75.95   57.93  1.0000
   6  -4 -16    6014     345                                                        9764  -78.25   54.92  1.0000
  16   6   6    6471     168                                                        5986  -49.12   -0.59  1.0000
  16  -6  -6    6647     180                                                        6140  -48.55   -0.92  1.0000
  16  -6  -8    2228      84                                                        1164  -27.90   39.62  1.0000
  16  -6 -10      19      88                                                         176   -2.01   19.15  1.0000
  16  -6 -12   15326     335                                                       12361  -12.19   54.86  1.0000
  16  -6 -14    2356      92                                                        1093  -35.35    9.08  1.0000
  14 -16  -6    2506     122                                                        1228  -34.99   10.48  1.0000
  16   8 -14    1261     100                                                         523  -59.57   41.52  1.0000
  14  16  -8    1283     111                                                         563  -58.86   39.57  1.0000
   8  12 -16    8987     382                                                       14524   51.81  -10.04  1.0000
  16   8 -12    8835     387                                                       13803   47.97   -6.29  1.0000
  12  16  -8    8972     383                                                       14319   50.07  -10.59  1.0000
   8  10 -16   11104     248                                                        8965  -19.51  -11.17  1.0000
  10  16  -8   11151     251                                                        8966  -19.36  -13.23  1.0000
  16   8 -10   11152     253                                                        8925  -20.89   -9.74  1.0000
   8  16  -8   14370     455                                                       17754   36.43   56.94  1.0000
   8   8 -16   13383     449                                                       16827   38.01   56.43  1.0000
   8   6 -16   12407     264                                                        9668  -27.13   -5.57  1.0000
 -16   8   6   12819     389                                                       10304  -25.07   -3.51  1.0000
   6  16  -8   12862     274                                                       10349  -24.99   -3.51  1.0000
  16   8  -6   12770     274                                                       10138  -26.47   -3.46  1.0000
  -6 -16  -8   12513     336                                                        9905  -26.61   -3.28  1.0000
   8   6 -16   12452     329                                                        9707  -27.13   -5.57  1.0000
   8   4 -16    2067     176                                                        3069  -15.18   29.15  1.0000
 -16   8   4    2235     208                                                        3179  -19.04   28.38  1.0000
  16   8  -4    2321     113                                                        3365  -14.67   28.61  1.0000
   8   4 -16    2306     103                                                        3368  -15.18   29.15  1.0000
   8   2 -16    5511     241                                                        5131   -0.91  -22.92  1.0000
 -16   8   2    6257     281                                                        5807   -1.57  -23.24  1.0000
   8   2 -16    5845     151                                                        5456   -0.91  -22.92  1.0000
  16   8  -2    6198     162                                                        5624   -3.09  -24.46  1.0000
  16   8   0    5653     137                                                        4677  -13.95    1.64  1.0000
 -16  -8   0    5817     184                                                        4827  -13.95   -1.64  1.0000
   8   0 -16    5306     217                                                        4323  -14.55   -0.67  1.0000
 -16  -8   2    7908     237                                                        7275   -3.09   24.46  1.0000
  16   8   2    7395     194                                                        6951   -1.17   22.94  1.0000
   8  -2 -16    8290     298                                                        7653   -2.86   25.39  1.0000
  16  -8  -2    7636     206                                                        7151   -1.57   23.24  1.0000
   8  -4 -16     857     192                                                        1454  -14.31  -28.21  1.0000
  16   8   4     660      64                                                        1191  -14.08  -28.72  1.0000
  16  -8  -4     782      95                                                        1278  -19.04  -28.38  1.0000
   8  -6 -16   17214     483                                                       14118  -26.47    3.81  1.0000
  16   8   6   17110     366                                                       13868  -27.00    5.79  1.0000
  16  -8  -6   17300     377                                                       14358  -25.07    3.51  1.0000
  16  -8  -8   13343     439                                                       16523   36.07  -57.65  1.0000
  16  -8 -10   11850     268                                                        9653  -18.97   12.37  1.0000
  12 -16  -8    8430     367                                                       13815   51.86    9.86  1.0000
  16  -8 -12    8140     364                                                       13261   49.94   11.02  1.0000
  14 -16  -8    1124     111                                                         164  -59.58  -40.49  1.0000
  16  -8 -14    1107      81                                                          48  -59.02  -39.47  1.0000
  16  10 -14    1194     134                                                        2017  -19.19   31.01  1.0000
  10  14 -16    1271     134                                                        2148  -18.20   31.25  1.0000
  16  10 -12    6237     197                                                        5957    8.44   34.13  1.0000
  10  12 -16    6682     197                                                        6267    6.55   33.93  1.0000
  16  10 -10    2156     133                                                        2758    5.62  -19.51  1.0000
  10  10 -16    2418     121                                                        3036    4.80  -20.39  1.0000
  10   8 -16    4895     113                                                        2904  -56.02   18.78  1.0000
  10   6 -16   16946     401                                                       15672  -37.17  -37.92  1.0000
  -6 -16 -10   15735     475                                                       14696  -35.93  -39.28  1.0000
  16  10  -6   15930     403                                                       14888  -35.98  -39.35  1.0000
 -16  10   4    9827     268                                                        4946  -95.69  -61.69  1.0000
  10   4 -16    9759     211                                                        4690  -97.80  -59.64  1.0000
  16  10  -4    9834     148                                                        4879  -97.30  -62.57  1.0000
  -4 -16 -10   10264     240                                                        5287  -96.61  -62.52  1.0000
  10   4 -16    9985     144                                                        4878  -97.80  -59.64  1.0000
  -2 -16 -10   14908     407                                                       12232  -23.58   -9.78  1.0000
  10   2 -16   14600     316                                                       12245  -20.85  -10.88  1.0000
  10   2 -16   13817     391                                                       11528  -20.85  -10.88  1.0000
  16  10  -2   14420     319                                                       11806  -23.41   -9.16  1.0000
  10   0 -16   11859     114                                                        3689  -98.82    2.23  1.0000
  16  10   0   12080     118                                                        3790  -99.19   -2.68  1.0000
  10   0 -16   12042     202                                                        3791  -98.82    2.23  1.0000
  16 -10  -2   15100     339                                                       12790  -20.06    9.12  1.0000
  10  -2 -16   14779     410                                                       12119  -23.53    9.18  1.0000
  16  10   2   14392     322                                                       12057  -20.83   10.27  1.0000
  16 -10  -4   13937     243                                                        8496  -95.69   61.69  1.0000
  16  10   4   13940     223                                                        8271  -97.29   59.59  1.0000
  16 -10  -6   17314     433                                                       16066  -36.96   38.10  1.0000
  16  10   6   17637     421                                                       16333  -37.38   37.99  1.0000
  16 -10  -8    2206      95                                                         782  -55.97  -19.12  1.0000
  16 -10 -10    3038     137                                                        3708    4.81   19.34  1.0000
  16 -10 -12    8236     228                                                        7765    6.18  -34.35  1.0000
  12 -16 -10    8466     227                                                        8034    6.56  -33.97  1.0000
  14 -16 -10     350      92                                                         720  -18.59  -31.00  1.0000
  16 -10 -14     359      83                                                         759  -18.11  -31.54  1.0000
  12  14 -16    3721     142                                                        2798  -12.11   23.25  1.0000
  16  12 -14    3513     158                                                        2566  -13.13   23.25  1.0000
  12  12 -16   36651    1006                                                       42819   24.51  -25.24  1.0000
  16  12 -12   34874    1007                                                       40867   24.31  -25.38  1.0000
  10  16 -12   20560     528                                                       19683  -12.42   14.26  1.0000
  12  10 -16   21161     526                                                       20202  -13.90   16.56  1.0000
  16  12  -8   15524     553                                                       20417   40.38   14.76  1.0000
  12   8 -16   16385     553                                                       21438   40.08   11.01  1.0000
   8  16 -12   16452     555                                                       21433   39.91   13.84  1.0000
  12   6 -16    7086     188                                                        6339  -22.72   43.38  1.0000
  16  12  -6    6911     190                                                        6217  -21.20   40.87  1.0000
  -4 -16 -12    1288     145                                                         584  -21.74   11.79  1.0000
  12   4 -16    1147      78                                                         510  -19.82   12.53  1.0000
  16  12  -4    1289      74                                                         589  -21.03   12.34  1.0000
  16  12  -2   18009     510                                                       19934    1.09   16.72  1.0000
  -2 -16 -12   16679     598                                                       18528    0.99   16.75  1.0000
  12   2 -16   17609     509                                                       19336    1.98   14.53  1.0000
  12   0 -16   24837     571                                                       22248  -17.32   -0.48  1.0000
  16  12   0   24368     570                                                       21843  -17.04    0.70  1.0000
  16  12   2   16742     473                                                       18481    2.14  -14.92  1.0000
  12  -2 -16   16123     474                                                       17946    1.05  -16.75  1.0000
  16 -12  -4    3272     133                                                        2092  -20.33  -12.68  1.0000
  16  12   4    3437      79                                                        2238  -20.01  -12.57  1.0000
  16  12   6    9357     228                                                        8613  -22.35  -43.42  1.0000
  16 -12  -6    9128     255                                                        8256  -22.96  -40.86  1.0000
  16 -12  -8   16968     581                                                       22015   39.93  -14.37  1.0000
  16 -12 -10   17800     453                                                       16991  -12.42  -14.54  1.0000
  16 -12 -12   30666     940                                                       36495   25.45   25.36  1.0000
  16 -12 -14    6660     171                                                        5357  -13.51  -21.55  1.0000
  14  16 -14    1056     150                                                        1542  -47.61   16.75  1.0000
  16  14 -14    1165     164                                                        1678  -47.13   16.10  1.0000
  14  14 -16    1304     153                                                        1920  -48.65   16.72  1.0000
  14  12 -16    7457     258                                                        9119  -29.78   46.86  1.0000
  12  16 -14    6961     261                                                        8557  -29.92   47.15  1.0000
  10  16 -14     141     118                                                         218  -44.86  -10.37  1.0000
  14  10 -16     132     116                                                         244  -44.52  -10.20  1.0000
  14   8 -16    6586     191                                                        5853  -47.10   11.02  1.0000
  16  14  -8    6750     193                                                        5992  -41.12   10.62  1.0000
  14   6 -16    4498     126                                                        2895  -35.13   -2.99  1.0000
  16  14  -6    4147     115                                                        2631  -33.08   -4.28  1.0000
  14   4 -16    7057     149                                                        4403 -125.23  -12.70  1.0000
  16  14  -4    7276     150                                                        4525 -125.79  -15.10  1.0000
  16  14  -2    4729     145                                                        4733   -4.85  -25.64  1.0000
  14   2 -16    4748     156                                                        4693   -5.95  -26.77  1.0000
  16  14   0   13765     333                                                       12531  -11.06   -2.87  1.0000
  14   0 -16   13824     337                                                       12589  -11.04    2.13  1.0000
  16  14   2    7313     205                                                        7254   -6.23   26.06  1.0000
  14  -2 -16    7489     210                                                        7487   -5.44   25.62  1.0000
  16  14   4    4580      72                                                        1480 -124.49   12.33  1.0000
  16 -14  -4    4780     142                                                        1637 -128.27   13.59  1.0000
  14  -4 -16    4933      85                                                        1785 -125.52   15.18  1.0000
  16 -14  -6    2146     123                                                        1033  -35.93    3.36  1.0000
  16 -14  -8    7602     217                                                        6784  -45.71  -11.71  1.0000
  16 -14 -10     139     102                                                         599  -45.10    9.81  1.0000
  16 -14 -12    6336     230                                                        7826  -29.89  -47.26  1.0000
  16  16 -16   11147     355                                                       11830  -31.32  -19.75  1.0000
  14  16 -16    6457     181                                                        3643  -40.70    5.14  1.0000
  16  14 -16    5931     178                                                        3315  -39.74    3.64  1.0000
  16  16 -14    6363     182                                                        3598  -40.27    5.19  1.0000
  12  16 -16    4638     193                                                        4602   -7.49  -29.30  1.0000
  16  12 -16    4866     188                                                        4802   -8.44  -30.71  1.0000
  16  16 -10   15685     299                                                       10029  -58.14  -18.93  1.0000
  16  10 -16   16218     299                                                       10515  -57.83  -18.47  1.0000
  16   8 -16     127     119                                                         -11   22.84    3.51  1.0000
  16  16  -8     325     117                                                         168   26.46    4.17  1.0000
  16  16  -6    8040     218                                                        6851  -49.04   15.09  1.0000
  16   6 -16    7983     225                                                        6888  -46.54   14.98  1.0000
  16  -6  16    8760     205                                                        7487  -48.91   14.26  1.0000
  16   4 -16     810      98                                                         320  -29.13   19.75  1.0000
  16  16  -4     920      93                                                         410  -29.02   20.02  1.0000
  16   2 -16    2080     134                                                        3537  -35.27    2.98  1.0000
  16  16  -2    2089     125                                                        3447  -33.67    3.76  1.0000
  16   0 -16     126      88                                                         263   56.30   -0.02  1.0000
  16  16   0      95      78                                                         314   56.32    0.70  1.0000
  16  16   2     767      81                                                        1685  -35.10   -2.46  1.0000
  16  -2 -16     953     105                                                        1886  -33.45   -3.51  1.0000
  16  16   4    1308      64                                                         708  -29.06  -19.05  1.0000
  16  -4 -16    1168      89                                                         603  -29.07  -19.64  1.0000
  16 -16  -4    1084     141                                                         519  -29.28  -18.74  1.0000
  16 -16  -6    7466     224                                                        6389  -49.21  -16.50  1.0000
  16  -6 -16    7472     186                                                        6290  -49.02  -14.85  1.0000
  16 -16  -8    1960     136                                                        1803   25.87   -4.80  1.0000
  16 -16 -10   11861     219                                                        6973  -56.53   20.49  1.0000
  16 -16 -12    5072     172                                                        5059   -7.34   29.57  1.0000
  15  17  -1    8374     235                                                        8227    1.79    3.81  1.0000
  17   1 -15    8467     247                                                        8460    2.45    2.28  1.0000
  17  -1  13    1140      76                                                        1540    7.61  -27.15  1.0000
  17   1 -13    1262     116                                                        1678    7.49  -26.41  1.0000
  13  17  -1    1075      87                                                        1457    7.68  -26.61  1.0000
  17  -1  11    2003      98                                                        2757  -14.41  -10.77  1.0000
  11  17  -1    1836     101                                                        2629  -15.34  -13.42  1.0000
  17   1 -11    1676     122                                                        2406  -15.24  -10.37  1.0000
  -9  17   1      82     150                                                         386   44.36  -38.27  1.0000
  -1  -9 -17       6     213                                                         713   46.50  -36.57  1.0000
  17  -1   9      41      63                                                         523   46.01  -38.00  1.0000
   9  17  -1       8      71                                                         698   46.14  -37.01  1.0000
  -7  17   1   19644     668                                                       22196   10.14   36.53  1.0000
   7  17  -1   20619     594                                                       23512   10.66   41.84  1.0000
  -1  -7 -17   21748     722                                                       24696   10.37   42.13  1.0000
  17   1  -7   20261     602                                                       23052   11.63   36.05  1.0000
  17  -1   7   19911     595                                                       22593    9.81   40.87  1.0000
 -17   1   7   19750     677                                                       22567   10.62   41.73  1.0000
  -5  17   1    4123     235                                                        6325  -21.94   24.47  1.0000
  17  -1   5    3943     168                                                        5819  -18.87   22.30  1.0000
 -17   1   5    4269     258                                                        6554  -22.57   24.60  1.0000
  17  -1   3     720      59                                                         263  -11.60  -21.64  1.0000
 -17   1   3     660     124                                                         165  -15.39  -25.70  1.0000
  -3  17   1     395     100                                                          49  -16.31  -24.35  1.0000
  17  -1   1    5290     102                                                        2787  -43.34   11.05  1.0000
  17   1  -1    5203     105                                                        2740  -43.16   11.76  1.0000
  17  -1  -1    2477      66                                                         883  -43.04  -12.54  1.0000
  17   1   1    2588      68                                                         889  -45.12  -12.18  1.0000
  -1  17  -1    2644      91                                                         974  -43.42  -12.24  1.0000
 -17  -1   3     934     134                                                         428  -12.64   20.38  1.0000
  -3  17  -1     932      98                                                         411  -11.27   21.18  1.0000
  17   1   3    1303      64                                                         593  -16.28   24.64  1.0000
  17   1   5    3941     173                                                        6072  -22.34  -23.16  1.0000
 -17  -1   5    4804     255                                                        6792  -17.81  -22.44  1.0000
  -5  17  -1    4611     239                                                        6636  -18.09  -23.71  1.0000
  17  -1  -5    3931     181                                                        6133  -22.57  -24.60  1.0000
 -17  -1   7   24642     807                                                       27736   11.63  -36.05  1.0000
  -7  17  -1   25231     801                                                       28290   10.18  -39.71  1.0000
  17  -1  -7   25988     735                                                       29257   10.62  -41.73  1.0000
  17   1   7   24872     728                                                       27719    9.94  -36.15  1.0000
  17  -1  -9      81      97                                                         388   46.25   36.18  1.0000
  17   1   9      90      59                                                         368   43.94   38.60  1.0000
   9  17   1      75      60                                                         411   44.85   38.42  1.0000
  -9  17  -1      69     149                                                         429   45.73   37.73  1.0000
   1  -9 -17     102     152                                                         351   44.80   38.21  1.0000
  17   1  11    2527     107                                                        3442  -15.52   11.84  1.0000
  11  17   1    2344     111                                                        3211  -15.52   10.22  1.0000
  17  -1 -13    1242     106                                                        1665    7.80   26.39  1.0000
  13  17   1    1197      83                                                        1592    7.28   26.47  1.0000
  17  -1 -15   11821     324                                                       11671    1.89   -3.59  1.0000
  15  17   1   11685     313                                                       11677    2.92   -2.71  1.0000
  17   3 -15    7714     237                                                        7734    0.18    4.68  1.0000
  15  17  -3    7885     223                                                        7891    0.30    4.27  1.0000
  17  -3  13    8194     141                                                        4777   49.93    7.76  1.0000
  13  17  -3    7750     148                                                        4452   49.03    8.37  1.0000
  17   3 -11   21730     416                                                       15261  -42.45   31.96  1.0000
  17  -3  11   21912     405                                                       15349  -43.50   29.81  1.0000
  11  17  -3   22384     406                                                       15468  -45.24   32.36  1.0000
   9  17  -3    7040     140                                                        4357   51.42   -3.90  1.0000
  17  -3   9    7111     134                                                        4416   52.45   -3.10  1.0000
  -9  17   3    6779     217                                                        4081   52.04   -4.73  1.0000
  17   3  -9    6909     155                                                        4191   54.02   -3.14  1.0000
  -3  -9 -17    7324     288                                                        4579   51.22   -4.18  1.0000
   7  17  -3   11941     306                                                       11484    6.38   -3.26  1.0000
  17  -3   7   11711     307                                                       11583    6.52  -10.56  1.0000
 -17   3   7   10735     388                                                       10368    5.80   -3.60  1.0000
  -7  17   3   11780     389                                                       11457    6.39   -6.13  1.0000
  17  -3   5     346      65                                                         530   15.21  -16.83  1.0000
  -5  17   3     373     114                                                         552   15.15  -16.11  1.0000
 -17   3   5     385     160                                                         572   15.43  -16.37  1.0000
  17  -3   3   12963     358                                                       13452    3.97   -2.95  1.0000
 -17   3   3   13466     446                                                       13698    2.17    0.68  1.0000
  17   3  -3   13179     358                                                       13608    3.61   -1.56  1.0000
  17  -3   1    8844     217                                                        7756  -54.64   -2.82  1.0000
  17   3  -1    8881     217                                                        7897  -57.23   -4.32  1.0000
  -1  17  -3    7242     202                                                        6211  -54.42    3.00  1.0000
  17   3   1    6858     171                                                        5729  -46.71    0.06  1.0000
   3  -3 -17   10829     392                                                       11234    3.68    2.11  1.0000
  -3  17  -3   10290     323                                                       10789    4.52    3.43  1.0000
 -17  -3   3   10342     346                                                       10722    3.61    1.56  1.0000
  17   3   3    9648     272                                                        9979    3.44    0.17  1.0000
 -17  -3   5     993     142                                                        1431   14.39   18.66  1.0000
  17   3   5     786      64                                                        1097   14.59   16.44  1.0000
   3  -5 -17     881     199                                                        1307   15.74   19.31  1.0000
  17  -3  -5     865      88                                                        1189   15.43   16.37  1.0000
  -5  17  -3     930     127                                                        1274   16.18   16.63  1.0000
  17   3   7   12902     332                                                       12593    6.19    6.31  1.0000
  -7  17  -3   12147     405                                                       12008    6.64   10.63  1.0000
  17  -3  -7   13287     342                                                       12880    5.80    3.60  1.0000
 -17  -3   7   12514     412                                                       12422    6.50   11.33  1.0000
  17  -3  -9   11996     245                                                        8450   51.60    4.42  1.0000
  17   3   9   12074     232                                                        8415   52.03    5.49  1.0000
  -9  17  -3   12126     328                                                        8625   52.29    3.14  1.0000
   9  17   3   12482     230                                                        8848   53.97    3.18  1.0000
  11  17   3   21802     387                                                       15276  -42.90  -31.66  1.0000
  17  -3 -11   20593     400                                                       13949  -45.57  -32.18  1.0000
  13  17   3    3409      71                                                        1356   48.71   -7.89  1.0000
  17  -3 -15    7435     223                                                        7428    0.47   -4.48  1.0000
  15  17   3    7454     206                                                        7466    0.23   -4.22  1.0000
  15  17  -5    5261     218                                                        7585   22.82  -28.15  1.0000
  17   5 -15    4873     230                                                        7174   26.00  -28.51  1.0000
  17  -5  15    5048     212                                                        7482   22.24  -30.08  1.0000
  17  -5  13    3519     117                                                        3183    8.84  -27.18  1.0000
  17   5 -13    3082     140                                                        2845   10.01  -25.53  1.0000
  13  17  -5    3490     124                                                        3226    9.63  -25.67  1.0000
  17   5 -11    5883     210                                                        6737    3.60  -12.13  1.0000
  17  -5  11    5664     195                                                        6612    5.19  -12.47  1.0000
  11  17  -5    6012     199                                                        6897    5.36  -10.71  1.0000
 -17   5   9    2485     214                                                        2796    3.88   11.18  1.0000
  17   5  -9    2821     129                                                        2987    0.55   11.77  1.0000
  -9  17   5    2516     188                                                        2673    1.05    9.89  1.0000
   9  17  -5    2819     117                                                        3144    3.81   10.90  1.0000
  17  -5   9    2755     112                                                        2955    1.52   10.81  1.0000
 -17   5   7    5464     200                                                        3211   41.44   24.55  1.0000
   7  17  -5    5339     116                                                        3127   41.13   24.51  1.0000
  17  -5   7    5313     113                                                        3109   40.91   23.99  1.0000
   5   7 -17    5260      97                                                        3050   42.00   26.30  1.0000
   5   7 -17    5521     178                                                        3257   42.00   26.30  1.0000
  -7  17   5    5016     193                                                        2863   41.92   26.32  1.0000
   5   5 -17    1881     137                                                         115   35.99   64.91  1.0000
 -17   5   5    1868     153                                                         122   34.46   63.30  1.0000
  17  -5   5    1654      71                                                          70   37.17   62.26  1.0000
   5   5 -17    1680      39                                                          55   35.99   64.91  1.0000
 -17   5   3    6824     241                                                        4492   15.36  -30.45  1.0000
  17  -5   3    7186     145                                                        4622   15.99  -32.88  1.0000
   5   3 -17    7278     225                                                        4850   17.45  -30.44  1.0000
  17  -5   1   41190    1075                                                       42200    0.10  -21.11  1.0000
   1  17  -5   37965    1088                                                       39785   -5.95  -15.46  1.0000
  17   5  -1   41015    1075                                                       42432   -1.95  -21.37  1.0000
  -1  17  -5   37470    1041                                                       38387    0.14   20.42  1.0000
 -17  -5   1   39963    1070                                                       41361   -1.95   21.37  1.0000
  17   5   1   37393    1012                                                       39212   -6.00   15.54  1.0000
  17  -5  -3    6777     142                                                        4454   15.36   30.45  1.0000
   5  -3 -17    7277     243                                                        4656   14.37   33.63  1.0000
 -17  -5   3    7062     199                                                        4488   14.02   33.59  1.0000
  -3  17  -5    6634     177                                                        4204   16.46   32.45  1.0000
  17   5   3    6425     130                                                        4165   17.01   30.33  1.0000
  17  -5  -5    1815      79                                                         105   34.46  -63.30  1.0000
 -17  -5   5    1477     115                                                          39   34.30  -60.63  1.0000
  17   5   5    1802      51                                                          89   36.18  -64.98  1.0000
   5  -5 -17    1780     167                                                         126   34.58  -60.30  1.0000
  17  -5  -7    5601     125                                                        3319   41.44  -24.55  1.0000
  17   5   7    5496     104                                                        3224   42.21  -26.18  1.0000
  17   5   9    1480      68                                                        1593    0.81  -10.66  1.0000
  17  -5  -9    1464     105                                                        1698    3.88  -11.18  1.0000
  17  -5 -11   12680     377                                                       13907    5.43   10.06  1.0000
  17  -5 -13    1547     105                                                        1305    9.47   25.91  1.0000
  15  17   5    3744     164                                                        5783   26.20   28.64  1.0000
  15  17  -7   18295     611                                                       22930   14.98  -44.27  1.0000
  17   7 -15   16921     616                                                       21658   17.65  -43.44  1.0000
  13  17  -7    3328     117                                                        2418   25.95  -19.42  1.0000
  17   7 -13    3374     138                                                        2442   25.86  -18.37  1.0000
  11  17  -7   35210    1011                                                       40105  -19.64  -26.53  1.0000
   7  11 -17   33937    1010                                                       38873  -20.62  -25.55  1.0000
  17   7 -11   34341    1016                                                       39145  -19.62  -26.03  1.0000
   9  17  -7    7327     183                                                        5626   16.14   38.61  1.0000
   7   9 -17    7259     169                                                        5670   14.83   37.50  1.0000
  17   7  -9    7730     184                                                        6033   15.44   39.53  1.0000
   7  17  -7    3212     138                                                        3929   11.94   -3.81  1.0000
   7   7 -17    3243     124                                                        4061   10.43   -9.95  1.0000
   7   7 -17    3231     189                                                        4048   10.43   -9.95  1.0000
  17   7  -5   20850     331                                                       13100   61.49  -11.01  1.0000
 -17   7   5   19411     440                                                       11957   61.54   -9.91  1.0000
   7   5 -17   19135     394                                                       11818   60.81  -10.65  1.0000
  17  -7   5   19991     333                                                       12503   60.74  -11.51  1.0000
   7   5 -17   19149     320                                                       11830   60.81  -10.65  1.0000
   7   3 -17    3997      86                                                        2762   45.13  -39.65  1.0000
  17   7  -3    3828     103                                                        2777   38.99  -36.98  1.0000
 -17   7   3    3733     185                                                        2578   40.46  -35.23  1.0000
   7   3 -17    3948     186                                                        2716   45.13  -39.65  1.0000
  17  -7   3    3643     113                                                        2611   41.12  -40.33  1.0000
  17   7  -1   32849     975                                                       37976   21.51  -24.22  1.0000
   7   1 -17   33584    1062                                                       39015   23.74  -21.67  1.0000
  -1  17  -7   36134    1167                                                       42035   24.20   24.58  1.0000
 -17  -7   1   39728    1185                                                       45354   21.51   24.22  1.0000
  17   7   1   38956    1136                                                       44734   23.61   21.20  1.0000
   7  -1 -17   40036    1229                                                       45857   22.05   25.24  1.0000
  17  -7  -3    2951     107                                                        1866   40.46   35.23  1.0000
   7  -3 -17    3044     194                                                        2048   39.32   37.69  1.0000
  17  -7  -5   25495     450                                                       16825   61.54    9.91  1.0000
   7  -5 -17   26095     558                                                       17332   61.43   11.62  1.0000
  17  -7  -7    6109     210                                                        7080   11.86    3.85  1.0000
  17  -7  -9    6828     173                                                        5187   15.97  -39.02  1.0000
  17  -7 -11   29755     887                                                       34277  -20.06   25.40  1.0000
  17  -7 -13    3414     118                                                        2491   26.01   19.43  1.0000
  13 -17  -7    3721     131                                                        2683   27.45   18.85  1.0000
  15 -17  -7   17177     584                                                       21837   14.95   46.77  1.0000
  15  17  -9       8     117                                                          28   -9.33    0.35  1.0000
  17   9 -15      14     136                                                         -70   -7.56   -0.29  1.0000
  17   9 -13    5168     140                                                        2779  -39.12    6.23  1.0000
   9  13 -17    5240     133                                                        2829  -39.27    3.48  1.0000
  13  17  -9    5241     138                                                        2795  -39.93    4.20  1.0000
  17   9 -11    1456     118                                                        1552   -3.84  -16.29  1.0000
   9  11 -17    1391     100                                                        1474   -3.08  -13.78  1.0000
  11  17  -9    1366     114                                                        1471   -3.18  -15.60  1.0000
   9  17  -9   10601     160                                                        4799  -59.27   39.16  1.0000
   9   9 -17   10481     151                                                        4724  -60.11   38.29  1.0000
   9   7 -17    4779     147                                                        4769   -6.13   20.34  1.0000
  17   9  -5      32      83                                                          67   -6.76  -21.27  1.0000
   9   5 -17      36      55                                                         158   -2.96  -21.07  1.0000
   9   5 -17      24     124                                                          83   -2.96  -21.07  1.0000
   9   3 -17     770      61                                                        1191   15.95   -1.68  1.0000
  17   9  -3     683      83                                                        1082   16.52   -0.47  1.0000
   9   3 -17     643     137                                                        1030   15.95   -1.68  1.0000
  17   9  -1   26466     588                                                       22860   33.79  -24.25  1.0000
   9   1 -17   26152     584                                                       22646   33.94  -26.11  1.0000
 -17   9   1   26063     706                                                       22535   35.20  -28.75  1.0000
   9   1 -17   26432     673                                                       22908   33.94  -26.11  1.0000
  17  -9  -1   27183     606                                                       23586   35.20   28.75  1.0000
   9  -1 -17   27189     691                                                       23569   33.82   24.91  1.0000
  17   9   1   26400     597                                                       22862   33.96   25.85  1.0000
   9  -3 -17     419     145                                                         739   16.90   -0.30  1.0000
  17   9   3     466      65                                                         803   16.29    1.20  1.0000
  17  -9  -3     423      97                                                         754   15.90    2.77  1.0000
  17   9   5     394      59                                                         809   -2.34   21.13  1.0000
  17  -9  -5     501     108                                                        1007   -5.49   22.68  1.0000
  17  -9  -7    3484     143                                                        3598   -4.05  -21.70  1.0000
  17   9   7    3702     110                                                        3694   -6.02  -20.75  1.0000
  17  -9  -9   13100     205                                                        6536  -59.41  -38.96  1.0000
  17  -9 -11    3058     134                                                        3231   -3.05   14.84  1.0000
  11 -17  -9    3172     131                                                        3322   -3.47   14.61  1.0000
  17  -9 -13    6694     141                                                        3876  -40.01   -3.63  1.0000
  13 -17  -9    6755     149                                                        3965  -39.31   -3.83  1.0000
  15 -17  -9     245     118                                                         351   -8.84    1.23  1.0000
  17  -9 -15     191      90                                                         297   -8.91   -0.04  1.0000
  17  11 -15    6236     248                                                        6935    1.97  -18.01  1.0000
  11  15 -17    7071     237                                                        7758    3.69  -19.18  1.0000
  11  13 -17   18036     440                                                       16322    8.19  -31.28  1.0000
  17  11 -13   18010     443                                                       16193    9.11  -30.90  1.0000
  17  11 -11    4262     258                                                        8594  -69.12   -9.55  1.0000
  11  11 -17    4192     250                                                        8522  -68.73   -7.51  1.0000
  11   9 -17   10120     252                                                        8828  -10.61   47.54  1.0000
  11   7 -17    2765     170                                                        5288  -59.49   -3.16  1.0000
  17  11  -7    3279     180                                                        5946  -58.82   -4.09  1.0000
  11   5 -17    4127     164                                                        5438   31.51  -11.22  1.0000
  17  11  -5    4278     171                                                        5517   32.39  -15.36  1.0000
  11   3 -17   23074     595                                                       23026    9.35  -39.09  1.0000
  17  11  -3   23236     596                                                       22970    7.40  -37.10  1.0000
  11   1 -17   29413     600                                                       23751   24.37   31.58  1.0000
  17  11  -1   28447     602                                                       22683   25.61   32.13  1.0000
  17 -11  -1   31650     653                                                       25584   25.42  -32.11  1.0000
  17  11   1   31044     638                                                       25196   24.45  -31.79  1.0000
  11  -1 -17   30047     637                                                       24047   26.06  -32.25  1.0000
  17  11   3   25866     663                                                       25856    9.31   38.31  1.0000
  17 -11  -3   25709     677                                                       25476    8.35   40.64  1.0000
  17  11   5    4481     166                                                        5819   31.32   11.73  1.0000
  17 -11  -5    5112     199                                                        6449   31.52   14.63  1.0000
  17 -11  -7    6306     288                                                        9983  -59.10    4.95  1.0000
  17 -11  -9    4257     139                                                        3327  -13.07  -49.09  1.0000
  17 -11 -11    3729     233                                                        7855  -69.41    8.57  1.0000
  13 -17 -11   19342     464                                                       17573    8.12   31.78  1.0000
  17 -11 -13   19362     467                                                       17528    8.66   31.55  1.0000
  15 -17 -11    5733     200                                                        6343    3.47   18.80  1.0000
  17 -11 -15    5647     193                                                        6277    2.65   18.23  1.0000
  17  13 -15     663     156                                                         661    8.02   -2.71  1.0000
  13  15 -17     858     146                                                         871    5.80   -1.48  1.0000
  13  13 -17    2722     146                                                        3118    2.37    7.18  1.0000
  13  17 -13    2409     155                                                        2713    3.47    5.51  1.0000
  17  13 -13    2477     163                                                        2834    1.58    6.93  1.0000
  13  11 -17     622     110                                                         657   -6.20   19.29  1.0000
  11  17 -13     786     131                                                         801   -7.07   18.17  1.0000
  13   9 -17    9010     286                                                       10180  -22.83    9.85  1.0000
  13   7 -17     322     101                                                         863  -14.73   19.01  1.0000
  17  13  -7     291     100                                                         824  -14.40   20.06  1.0000
  13   5 -17    9375     328                                                       11931    6.79  -30.84  1.0000
  17  13  -5    9764     330                                                       12347    7.26  -30.81  1.0000
  13   3 -17   11639     273                                                        9730   21.32   35.29  1.0000
  17  13  -3   12118     272                                                       10143   21.74   36.15  1.0000
  17  13  -1    6195     242                                                        8824   35.25    8.67  1.0000
  13   1 -17    5992     243                                                        8638   35.55    7.29  1.0000
  13  -1 -17    4051     180                                                        6220   35.41   -8.55  1.0000
  17  13   1    4020     180                                                        6214   35.41   -7.02  1.0000
  13  -3 -17   12575     284                                                       10565   21.67  -35.27  1.0000
  17  13   3   12420     281                                                       10459   21.31  -35.49  1.0000
  17 -13  -3   12885     311                                                       10806   22.23  -35.99  1.0000
  17 -13  -5    8397     317                                                       10923    4.47   30.97  1.0000
  17  13   5    8339     287                                                       10769    6.22   30.77  1.0000
  17 -13  -7      20     117                                                          63  -15.66  -19.44  1.0000
  17 -13  -9    8115     275                                                        9340  -21.78  -11.27  1.0000
  17 -13 -11     598     103                                                         599   -6.86  -17.88  1.0000
  17 -13 -13    1203     108                                                        1423    3.42   -5.62  1.0000
  15  17 -15    3467     203                                                        4048    8.61   -6.89  1.0000
  15  15 -17    3576     196                                                        4252    9.76   -8.06  1.0000
  17  15 -15    3512     181                                                        4163    9.74   -6.58  1.0000
  13  17 -15    6055     186                                                        3582   18.88  -35.92  1.0000
  15  13 -17    6011     174                                                        3455   19.38  -37.53  1.0000
  17  15 -13    6431     184                                                        3860   20.40  -36.18  1.0000
  11  17 -15    7557     275                                                        9142  -23.53  -28.29  1.0000
  15  11 -17    7470     278                                                        9099  -24.15  -28.56  1.0000
  17  15  -9    7844     220                                                        7070    2.61  -16.63  1.0000
  15   9 -17    7310     214                                                        6613    1.95  -16.56  1.0000
  15   7 -17    7025     237                                                        7840    4.34  -47.32  1.0000
  17  15  -7    7157     235                                                        7936    3.84  -46.96  1.0000
  17  15  -5    4607     134                                                        2867   40.10   -5.74  1.0000
  15   5 -17    4464     130                                                        2745   39.64   -4.98  1.0000
  17  15  -3   18068     420                                                       15563    4.02  -26.71  1.0000
  15   3 -17   18709     422                                                       16122    3.38  -28.04  1.0000
  17  15  -1    5858     234                                                        8164   20.98  -29.26  1.0000
  15   1 -17    6480     239                                                        8698   19.15  -27.74  1.0000
  17  15   1    5230     201                                                        7242   19.32   27.73  1.0000
  15  -1 -17    4901     206                                                        6996   20.92   28.69  1.0000
  17  15   3   17212     384                                                       14741    3.46   27.80  1.0000
  15  -3 -17   16999     389                                                       14581    4.21   26.30  1.0000
  17 -15  -3   16581     417                                                       14251    1.69   28.76  1.0000
  15  -5 -17    2203      80                                                        1025   39.83    6.10  1.0000
  17 -15  -5    1989     141                                                         878   39.52    5.97  1.0000
  17  15   5    2069      68                                                         914   39.73    4.98  1.0000
  17 -15  -7   14817     449                                                       16204    3.96   48.22  1.0000
  17 -15  -9    5847     199                                                        5326    0.77   15.52  1.0000
  17 -15 -11    8751     300                                                       10457  -23.44   28.57  1.0000
  17 -15 -13    5679     140                                                        3274   18.91   36.25  1.0000
  17  17 -17    4835     233                                                        5740   -0.56   13.13  1.0000
  15  17 -17    4590     206                                                        3895   23.21   14.31  1.0000
  17  17 -15    5173     196                                                        4361   24.48   13.90  1.0000
  17  15 -17    4553     206                                                        3781   25.09   14.65  1.0000
  17  13 -17    1778     177                                                        2870   12.21   28.38  1.0000
  17  11 -17     915     147                                                        1310   15.36   -0.18  1.0000
  17   9 -17    2220     137                                                        1925  -19.09    9.33  1.0000
  17  17  -9    2246     147                                                        1922  -19.49   10.08  1.0000
  17  -7  17    8083     198                                                        6940   15.84  -13.10  1.0000
  17  17  -7    7723     219                                                        6547   15.84   -8.70  1.0000
  17   7 -17    7518     216                                                        6350   16.52  -12.02  1.0000
  17  17  -5    1223     107                                                         540   52.37  -14.27  1.0000
  17   5 -17    1075     120                                                         416   51.90  -15.61  1.0000
  17  17  -3   10080     316                                                       11427    9.87  -20.19  1.0000
  17   3 -17   10790     326                                                       11887    7.07  -20.01  1.0000
  17   1 -17    5557     190                                                        6085   -7.34    0.02  1.0000
  17  17  -1    5042     179                                                        5572   -8.10    1.53  1.0000
  17  17   1    7745     240                                                        8393   -7.66   -0.09  1.0000
  17  -1 -17    8257     249                                                        8918   -8.05   -1.99  1.0000
  17 -17  -3    9793     354                                                       11000    8.62   20.46  1.0000
  17  17   3   10369     311                                                       11471    7.15   20.94  1.0000
  17  -3 -17   10769     321                                                       12148    9.67   20.51  1.0000
  17 -17  -5    1658     162                                                         972   51.54   14.48  1.0000
  17  -5 -17    1689      88                                                        1014   52.25   14.41  1.0000
  17  17   5    1719      71                                                        1055   51.45   15.10  1.0000
  17  -7 -17    7663     192                                                        6513   15.72    9.66  1.0000
  17 -17  -7    7317     233                                                        6091   17.30   10.98  1.0000
  17 -17  -9    1651     143                                                        1392  -16.73   -8.71  1.0000
  17 -17 -11    2773     158                                                        3454   14.10    2.07  1.0000
  18   0   0    2518     184                                                        6346   60.48    0.02  1.0000
  18   0   2   20103     468                                                       17776  -17.36   -1.45  1.0000
  18   0  -2   21227     471                                                       18669  -18.58   -0.60  1.0000
 -18   0   2   20021     547                                                       17540  -18.58    0.60  1.0000
 -18   0   4   71906    2215                                                       80062   30.36    0.85  1.0000
  18   0   4   75872    2143                                                       84669   31.86    0.89  1.0000
  -4  18   0   75822    2198                                                       84562   31.67   -0.98  1.0000
 -18   0   6    5658     205                                                        3993   24.70    1.80  1.0000
  -6  18   0    5363     198                                                        3770   24.28    3.31  1.0000
  18   0  -6    5834     146                                                        4140   24.70   -1.80  1.0000
  18   0   6    5606     128                                                        3990   24.03   -2.91  1.0000
 -18   0   8   18265     848                                                       28024  -66.17    2.67  1.0000
  -8  18   0   19277     842                                                       28813  -63.40   -0.01  1.0000
  18   0   8   19784     759                                                       29383  -63.11    0.61  1.0000
  18   0  -8   19951     767                                                       30104  -66.17   -2.67  1.0000
  18   0  10   43869    1307                                                       50955   33.40   -0.54  1.0000
  10  18   0   44747    1307                                                       51795   32.93    0.03  1.0000
 -10  18   0   40625    1398                                                       47519   33.71   -0.34  1.0000
  18   0  12   28119     673                                                       26481  -10.17    0.27  1.0000
  18   0 -12   26142     682                                                       24475  -10.75    0.23  1.0000
  12  18   0   28313     673                                                       26549  -10.92    0.28  1.0000
  18   0 -14     954     112                                                        1013   -1.89   -2.86  1.0000
  14  18   0    1104      87                                                        1171   -2.02    2.66  1.0000
  18   0 -16     117     101                                                         182   -5.53    0.22  1.0000
  16  18   0      63      83                                                         110   -5.22    0.11  1.0000
  16  18  -2    1406      94                                                         412  -35.70    7.94  1.0000
  18   2 -16     932     113                                                         183  -35.05    8.37  1.0000
  18  -2  14   31228     888                                                       34699    3.05   32.44  1.0000
  14  18  -2   31212     889                                                       34770    1.82   35.19  1.0000
  18   2 -14   30613     897                                                       34094    2.27   34.08  1.0000
  18  -2  12    1678      71                                                         104  -70.15  -58.05  1.0000
  18   2 -12    1568     110                                                         161  -69.04  -55.04  1.0000
  12  18  -2    1579      83                                                         242  -69.65  -56.50  1.0000
  18  -2  10   10534     272                                                        9968   -6.32    7.82  1.0000
  18   2 -10   10639     287                                                       10087   -6.35   10.25  1.0000
  10  18  -2   10560     273                                                       10097   -5.27    8.12  1.0000
  18  -2   8   28738     457                                                       17557  -72.85  -52.55  1.0000
  -8  18   2   26616     537                                                       15686  -74.56  -49.41  1.0000
 -18   2   8   25286     535                                                       14715  -74.13  -47.94  1.0000
   8  18  -2   29479     456                                                       18019  -73.90  -47.05  1.0000
  18   2  -6    8492     270                                                        9356   15.80    4.77  1.0000
  18  -2   6    8895     261                                                        9727   14.29    3.74  1.0000
 -18   2   6    8765     353                                                        9355   12.63    5.66  1.0000
  -6  18   2    9025     333                                                        9667   12.63    4.91  1.0000
  18  -2   4    1554      90                                                        1714   12.12   -1.32  1.0000
 -18   2   4    1296     166                                                        1579   14.34   -4.53  1.0000
  -4  18   2    1538     137                                                        1755   13.03   -2.56  1.0000
  18  -2   2   14239     153                                                        5003  100.72   -9.02  1.0000
 -18   2   2   13652     245                                                        4746   99.56  -10.55  1.0000
  18   2  -2   14583     156                                                        5191  100.97   -9.05  1.0000
  18  -2   0     836     243                                                        8824  133.38    3.10  1.0000
  18   2   0     899     243                                                        8867  131.62    4.79  1.0000
 -18  -2   2   11735     194                                                        3548  100.97    9.05  1.0000
  -2  18  -2   11181     158                                                        3270  100.66   10.47  1.0000
  18   2   2   12229     119                                                        3884  100.04    9.77  1.0000
   2  -2 -18   11232     205                                                        3301  100.40    8.58  1.0000
  18   2   4    2269      95                                                        2531   12.90    2.45  1.0000
  -4  18  -2    2379     149                                                        2611   12.97    1.62  1.0000
 -18  -2   4    2444     173                                                        2603   11.43    0.52  1.0000
  18  -2  -4    2152     111                                                        2525   14.34    4.53  1.0000
  -6  18  -2   12940     445                                                       14018   15.00   -3.64  1.0000
  18   2   6   13395     378                                                       14170   12.26   -4.60  1.0000
 -18  -2   6   13861     464                                                       14971   15.80   -4.77  1.0000
  18  -2  -6   13867     387                                                       14616   12.63   -5.66  1.0000
  18   2   8   29236     453                                                       17715  -74.70   50.34  1.0000
  18  -2  -8   28653     461                                                       17337  -74.13   47.94  1.0000
  18   2  10    9895     257                                                        9436   -5.54  -10.11  1.0000
  10  18   2    9968     255                                                        9459   -6.08  -10.47  1.0000
 -10  18  -2    9466     356                                                        8955   -6.02   -7.69  1.0000
  18  -2 -10   10436     276                                                        9971   -5.36   -8.56  1.0000
  12  18   2    2234      86                                                        1901  -70.04   55.35  1.0000
  18  -2 -14   18275     576                                                       20946    1.85  -34.79  1.0000
  14  18   2   19521     565                                                       22266    2.65  -33.28  1.0000
  18  -2 -16    3357     111                                                        1692  -35.36   -8.41  1.0000
  16  18   2    3173      86                                                        1565  -35.20   -7.88  1.0000
  18   4 -16    1005     128                                                        1566  -45.90   27.47  1.0000
  16  18  -4    1002     110                                                        1612  -44.99   24.66  1.0000
  18   4 -14   18066     527                                                       18693    5.75  -11.31  1.0000
  14  18  -4   19191     521                                                       19699    4.40   -7.27  1.0000
  18  -4  12   14926     416                                                       15749   -2.34   15.96  1.0000
  12  18  -4   15446     415                                                       16453   -3.88   15.57  1.0000
  18   4 -10   19365     475                                                       17965   13.17  -20.69  1.0000
  10  18  -4   19640     467                                                       18271   12.36  -17.24  1.0000
  18  -4  10   18451     466                                                       17010   13.54  -19.33  1.0000
 -18   4   8   17554     473                                                       13155  -34.67   23.02  1.0000
  -8  18   4   18219     459                                                       13612  -35.25   30.32  1.0000
  18  -4   8   18747     375                                                       14156  -34.93   24.11  1.0000
   8  18  -4   18918     374                                                       14269  -35.26   23.73  1.0000
   4   8 -18   19385     455                                                       14653  -35.10   29.39  1.0000
  18   4  -8   18271     381                                                       13809  -34.07   27.98  1.0000
 -18   4   6    2981     182                                                        2397  -15.04  -18.22  1.0000
   4   6 -18    3199     188                                                        2652  -13.17  -14.47  1.0000
  18  -4   6    3015     100                                                        2481  -14.00  -18.62  1.0000
  18  -4   4    2293      88                                                        1683   31.48  -12.04  1.0000
 -18   4   4    2571     188                                                        1815   33.37  -14.97  1.0000
   4   4 -18    2493     182                                                        1754   34.19  -14.77  1.0000
   4   2 -18   12801     450                                                       14149  -81.19    7.76  1.0000
 -18   4   2   12735     445                                                       14013  -82.85    6.88  1.0000
  18  -4   2   11595     351                                                       12831  -79.11    8.38  1.0000
  18   4  -2   12059     353                                                       13213  -83.48    6.37  1.0000
  18  -4   0  117382    3349                                                      131349   40.64   -0.08  1.0000
   4   0 -18  126346    3446                                                      141062   41.30    1.52  1.0000
  18   4   0  117015    3347                                                      131281   41.55   -1.54  1.0000
  18   4   2   10959     329                                                       11987  -80.83   -6.88  1.0000
  -2  18  -4   11418     369                                                       12649  -79.33   -8.50  1.0000
 -18  -4   4    4636     191                                                        3840   34.51   12.63  1.0000
  -4  18  -4    4611     179                                                        3838   31.52   11.89  1.0000
   4  -4 -18    4856     254                                                        4032   33.69   12.78  1.0000
  18   4   4    4514     119                                                        3615   34.96   14.58  1.0000
  18  -4  -4    4709     134                                                        3759   33.37   14.97  1.0000
  18  -4  -6    8187     210                                                        7268  -15.04   18.22  1.0000
  18   4   6    7851     197                                                        6952  -14.09   14.75  1.0000
   4  -6 -18    7996     326                                                        7259  -13.15   19.25  1.0000
  -6  18  -4    7639     270                                                        6860  -13.63   18.37  1.0000
  18   4   8   24961     507                                                       19597  -34.86  -30.28  1.0000
  18  -4  -8   24567     517                                                       19324  -34.67  -23.02  1.0000
  -8  18  -4   25780     599                                                       20359  -34.92  -24.37  1.0000
  18  -4 -10   14569     371                                                       13395   12.24   17.23  1.0000
  18   4  10   15090     358                                                       13749   13.78   19.07  1.0000
  18  -4 -12   16975     477                                                       18034   -3.85  -15.72  1.0000
  12  18   4   16726     463                                                       17801   -3.75  -16.64  1.0000
  14  18   4   13865     377                                                       14402    5.69   11.58  1.0000
  18  -4 -16    1293     118                                                        2069  -44.87  -24.32  1.0000
  16  18   4    1438      90                                                        2258  -45.86  -26.87  1.0000
  18   6 -16     216     134                                                         824   13.75   29.76  1.0000
  18  -6  16     256      89                                                         893   10.64   29.22  1.0000
  16  18  -6     190     109                                                         818   12.21   31.47  1.0000
  18  -6  14   17539     360                                                       13894   34.80   10.34  1.0000
  14  18  -6   17587     364                                                       13702   37.65   12.17  1.0000
  18  -6  12    3839     121                                                        2901  -26.07  -42.08  1.0000
  18   6 -12    3841     138                                                        2821  -26.88  -39.64  1.0000
  12  18  -6    3824     126                                                        2830  -25.74  -37.69  1.0000
  10  18  -6    1442     122                                                        2680   19.20   21.46  1.0000
  18  -6  10    1375     119                                                        2584   19.25   21.29  1.0000
  18   6 -10    1486     136                                                        2742   19.08   21.70  1.0000
  18   6  -8    1204     121                                                        2374  -22.51  -32.47  1.0000
  18  -6   8    1237     112                                                        2442  -23.19  -31.05  1.0000
   8  18  -6    1372     108                                                        2616  -23.00  -29.83  1.0000
   6   8 -18    1157      91                                                        2311  -23.03  -30.55  1.0000
   6   6 -18    3194     196                                                        3673   26.45    0.88  1.0000
  18  -6   6    3279     129                                                        3686   28.71   -1.28  1.0000
   6   6 -18    3007     108                                                        3467   26.45    0.88  1.0000
 -18   6   4    7444     328                                                        8065  -19.02  -22.79  1.0000
   6   4 -18    7539     303                                                        8221  -17.09  -22.25  1.0000
  18  -6   4    6488     217                                                        7300  -16.35  -24.53  1.0000
  18   6  -4    6983     211                                                        8013  -17.26  -27.69  1.0000
   6   4 -18    6409     196                                                        7025  -17.09  -22.25  1.0000
  18  -6   2   11234     295                                                       10613    4.18    4.43  1.0000
   6   2 -18   11564     384                                                       10964    1.66    6.40  1.0000
 -18   6   2   11139     387                                                       10516    1.03    7.46  1.0000
   6   0 -18    1047     161                                                         606   15.87    3.84  1.0000
   6  -2 -18    9646     346                                                        9099    6.19   -2.18  1.0000
  18  -6  -2    8952     242                                                        8394    1.03   -7.46  1.0000
   6  -4 -18   12459     480                                                       13923  -16.67   27.60  1.0000
  18  -6  -4   12641     364                                                       13506  -19.02   22.79  1.0000
  -4  18  -6   12048     412                                                       13191  -15.64   23.87  1.0000
  18  -6  -6    7324     241                                                        8096   27.11   -0.36  1.0000
  18  -6  -8    2971     162                                                        4788  -23.21   30.12  1.0000
  18  -6 -10     211     103                                                         791   18.97  -21.51  1.0000
  18  -6 -12    5697     165                                                        4556  -25.78   37.34  1.0000
  16 -18  -6     876     157                                                        1918   11.76  -29.23  1.0000
  18  -6 -16     718     103                                                        1757   12.03  -31.19  1.0000
  18   8 -16    3779     240                                                        7030  -22.68   60.46  1.0000
  18  -8  16    4143     222                                                        7628  -24.10   59.73  1.0000
  16  18  -8    3995     234                                                        7338  -22.76   60.30  1.0000
  18  -8  14   30504     751                                                       30280    1.37    0.06  1.0000
  14  18  -8   28955     751                                                       28725    1.46    0.01  1.0000
  12  18  -8    1661     123                                                        2463   24.46   -9.56  1.0000
  18   8 -12    1330     147                                                        2080   28.90   -8.02  1.0000
  18  -8  12    1281     121                                                        2034   28.57   -8.71  1.0000
  18   8 -10    3438     158                                                        4479   34.08  -14.14  1.0000
  10  18  -8    3199     159                                                        4193   33.57  -13.43  1.0000
   8  10 -18    3135     145                                                        3997   32.76  -15.75  1.0000
  18  -8   8   17793     464                                                       17718    6.29   16.80  1.0000
   8   8 -18   17307     454                                                       17131    4.89   10.32  1.0000
  18  -8   6   19198     512                                                       19822  -13.81  -74.06  1.0000
  18   8  -6   19153     511                                                       19928  -14.87  -73.15  1.0000
   8   6 -18   18290     502                                                       18833  -13.42  -71.87  1.0000
  18   8  -4    8224     186                                                        6566  -24.14    6.85  1.0000
   8   4 -18    7683     172                                                        5959  -22.89   -0.41  1.0000
  18  -8   4    8338     195                                                        6467  -26.15    5.06  1.0000
   8   4 -18    8046     265                                                        6280  -22.89   -0.41  1.0000
  18   8  -2   11182     539                                                       21249 -103.17  -47.69  1.0000
   8   2 -18   11167     625                                                       21232 -102.78  -45.95  1.0000
  18  -8   2   10281     543                                                       19814 -101.81  -45.93  1.0000
   8   0 -18   18161     503                                                       15702   19.40   -0.29  1.0000
  18   8   0   17817     404                                                       15340   19.74    0.45  1.0000
  18   8   2    8873     466                                                       17898 -103.04   45.62  1.0000
   8  -2 -18    9432     580                                                       18632 -102.98   48.34  1.0000
  18  -8  -2    8792     478                                                       17633 -102.29   46.97  1.0000
  18   8   4    7369     165                                                        5695  -22.88    0.00  1.0000
  18  -8  -4    7560     189                                                        5859  -25.18   -5.42  1.0000
  18  -8  -6   17530     486                                                       17996  -13.03   70.85  1.0000
  18   8   6   17944     475                                                       18466  -13.36   71.60  1.0000
  18   8   8   18139     460                                                       18033    4.31  -10.38  1.0000
  18  -8  -8   17108     473                                                       17025    5.04  -13.04  1.0000
  18  -8 -10    2161     137                                                        2934   33.61   13.80  1.0000
  12 -18  -8     653     113                                                        1140   23.89    9.53  1.0000
  18  -8 -12     604     108                                                        1076   24.61    9.42  1.0000
  14 -18  -8   27944     710                                                       27732    1.98    1.83  1.0000
  18  -8 -14   26600     703                                                       26398    1.38    0.12  1.0000
  16 -18  -8    6619     327                                                       11004  -24.10  -59.76  1.0000
  16  18 -10     801     142                                                        1437   -9.76   32.65  1.0000
  18  10 -16     695     139                                                        1267   -9.41   32.60  1.0000
  18  10 -14    7656     317                                                       10757   32.90    5.69  1.0000
  14  18 -10    7621     316                                                       10732   33.19    5.19  1.0000
  12  18 -10   20803     522                                                       19248    9.92    8.83  1.0000
  18  10 -12   21522     529                                                       19907   10.15    8.85  1.0000
  10  12 -18   21566     520                                                       19818   10.62   11.86  1.0000
  10  18 -10   27134     522                                                       18701   65.23   11.34  1.0000
  10  10 -18   29325     519                                                       20485   66.13   12.63  1.0000
  10   8 -18    4814     123                                                        3426   10.69   25.68  1.0000
  10   6 -18   17099     312                                                       11767   59.57    7.47  1.0000
  18  10  -6   16362     317                                                       11304   57.52    7.21  1.0000
  18  10  -4   26792     738                                                       28819  -11.63   15.48  1.0000
  10   4 -18   26327     734                                                       28332  -11.34   19.57  1.0000
  10   2 -18    9278     354                                                        9355   -1.01   -2.58  1.0000
  10   2 -18   10194     270                                                       10275   -1.01   -2.58  1.0000
  18  10  -2   10129     277                                                       10013    1.22    0.32  1.0000
  18 -10   0   35746    1094                                                       39920   22.02   -3.64  1.0000
  18  10   0   39365    1086                                                       43864   22.63    0.21  1.0000
  10   0 -18   38447    1181                                                       42915   22.73    0.61  1.0000
  18 -10  -2   10699     287                                                       10635    0.42    2.97  1.0000
  18  10   2    9399     265                                                        9451   -0.76    2.82  1.0000
  18 -10  -4   39252    1073                                                       41879  -12.54  -14.75  1.0000
  18  10   4   39027    1062                                                       41421  -11.11  -18.65  1.0000
  18 -10  -6   16917     323                                                       11680   60.23   -6.12  1.0000
  18  10   6   16619     303                                                       11371   59.63   -7.33  1.0000
  18 -10  -8    7252     189                                                        5514   11.39  -25.03  1.0000
  18 -10 -10   35033     667                                                       25438   64.85  -11.38  1.0000
  12 -18 -10   19923     477                                                       18236   10.63  -12.20  1.0000
  18 -10 -12   19086     479                                                       17615    9.71   -9.20  1.0000
  18 -10 -14    8979     354                                                       12342   33.27   -5.19  1.0000
  14 -18 -10   10094     359                                                       13532   32.28   -5.16  1.0000
  16 -18 -10     740     126                                                        1360   -9.12  -34.86  1.0000
  18  12 -16    2442     204                                                        5090  -47.56   13.40  1.0000
  18  12 -14    2826     173                                                        2757  -11.93  -19.16  1.0000
  12  14 -18    2745     160                                                        2629  -11.97  -17.37  1.0000
  18  12 -12     579     134                                                         765   -7.87    2.89  1.0000
  12  12 -18     544     127                                                         741   -8.50    2.82  1.0000
  12  10 -18     255     106                                                         977   53.83   -4.89  1.0000
  18  12  -8    3977     129                                                        2072   15.97  -39.90  1.0000
  12   8 -18    3910     115                                                        1954   16.13  -41.65  1.0000
  18  12  -6    1094     126                                                        2684  -53.66   17.14  1.0000
  12   6 -18     988     113                                                        2519  -55.67   16.72  1.0000
  18  12  -4   16203     525                                                       20406  -23.72  -42.76  1.0000
  12   4 -18   15530     522                                                       19744  -25.01  -40.54  1.0000
  12   2 -18   20741     747                                                       28656  -50.29  -12.84  1.0000
  18  12  -2   21348     749                                                       29441  -50.64  -13.14  1.0000
  18  12   0      64      72                                                         296  -18.83    0.45  1.0000
  18 -12   0      45     133                                                         232  -17.53   -0.27  1.0000
  12   0 -18      46      61                                                         253  -18.79   -0.54  1.0000
  18 -12  -2   16753     624                                                       23873  -49.60   13.72  1.0000
  18  12   2   16204     607                                                       23308  -50.53   12.81  1.0000
  18  12   4    9893     353                                                       13309  -25.50   40.86  1.0000
  18 -12  -4   10308     378                                                       13600  -23.57   41.75  1.0000
  18 -12  -6    1885     178                                                        4045  -55.02  -17.34  1.0000
  18  12   6    2067     129                                                        4274  -55.15  -16.20  1.0000
  18 -12  -8    2351     128                                                         888   15.60   41.30  1.0000
  18 -12 -10    1063     140                                                        2765   54.36    4.94  1.0000
  18 -12 -12      79     105                                                         162   -8.80   -3.63  1.0000
  18 -12 -14    3513     140                                                        3383  -13.03   18.69  1.0000
  14  16 -18    4668     229                                                        6192  -21.13    2.62  1.0000
  18  14 -16    4527     221                                                        6083  -22.26    0.04  1.0000
  14  14 -18   11676     351                                                       12448  -16.85  -28.59  1.0000
  18  14 -14   12262     357                                                       13060  -16.65  -27.93  1.0000
  12  18 -14    3787     188                                                        3781   -0.69  -16.36  1.0000
  14  12 -18    3843     167                                                        3947   -2.47  -15.88  1.0000
  14  10 -18    2135     161                                                        3870   29.02  -23.79  1.0000
  18  14  -8   37105    1045                                                       39461   -7.39  -14.87  1.0000
  14   8 -18   38985    1044                                                       41564   -7.96  -15.66  1.0000
  18  14  -6   16199     394                                                       15184    8.60   -0.67  1.0000
  14   6 -18   14901     392                                                       14065    7.10   -1.30  1.0000
  18  14  -4   26180     670                                                       25704    0.04   25.14  1.0000
  14   4 -18   26418     668                                                       25780   -1.12   23.94  1.0000
  14   2 -18    3390      93                                                        1456   32.05  -28.07  1.0000
  18  14  -2    3285      96                                                        1418   33.61  -26.13  1.0000
  14   0 -18   27189     721                                                       28353   -7.16   -0.86  1.0000
  18  14   0   26338     720                                                       27486   -7.18    1.47  1.0000
  18  14   2    3018      82                                                        1216   31.76   28.19  1.0000
  14  -2 -18    2912      78                                                        1177   33.50   26.12  1.0000
  18 -14  -2    3139     162                                                        1291   32.12   28.04  1.0000
  18  14   4   24900     619                                                       24316   -0.87  -23.83  1.0000
  18 -14  -4   23441     643                                                       22844   -1.23  -22.34  1.0000
  18 -14  -6   22357     557                                                       21348    7.08    1.00  1.0000
  18  14   6   21274     529                                                       20259    7.35    0.93  1.0000
  18 -14  -8   35051     972                                                       37314   -7.04   15.36  1.0000
  18 -14 -10    3598     200                                                        5822   28.92   24.23  1.0000
  18 -14 -12    5589     195                                                        5611   -0.91   16.89  1.0000
  18 -14 -14   15222     439                                                       16360  -18.81   28.96  1.0000
  18  16 -16     628     182                                                        1354  -13.18   24.13  1.0000
  16  18 -16     612     180                                                        1303  -13.36   22.65  1.0000
  16  16 -18     456     170                                                        1074  -13.13   23.46  1.0000
  16  14 -18    2312     173                                                        1653  -51.44    6.15  1.0000
  18  16 -14    2339     174                                                        1632  -51.14    7.35  1.0000
  16  12 -18    2000     157                                                        1606   -9.74   -4.30  1.0000
  16  10 -18    5652     198                                                        5440    1.43  -15.92  1.0000
  18  16 -10    5278     200                                                        5064    1.09  -14.98  1.0000
  18  16  -8     449     120                                                         369  -13.68    8.92  1.0000
  16   8 -18     270     110                                                         193  -11.94    6.65  1.0000
  16   6 -18    2614     116                                                         938   -1.08   49.74  1.0000
  18  16  -6    2654     122                                                         968    0.96   51.55  1.0000
  18  16  -4    1545     109                                                        1290   -4.92    5.90  1.0000
  16   4 -18    1645     117                                                        1384   -7.96    5.16  1.0000
  18  16  -2    5483     236                                                        8350  -45.34  -29.05  1.0000
  16   2 -18    5190     238                                                        8044  -45.06  -24.34  1.0000
  18  16   0    1398      85                                                         442   33.57    1.94  1.0000
  16   0 -18    1530      90                                                         520   33.47   -2.06  1.0000
  18  16   2    5680     241                                                        8655  -45.08   25.00  1.0000
  18 -16  -2    5558     296                                                        8496  -45.77   28.32  1.0000
  16  -2 -18    5871     246                                                        8810  -45.03   29.22  1.0000
  18 -16  -4    1733     167                                                        1434   -7.11   -6.19  1.0000
  16  -4 -18    1697      85                                                        1422   -5.02   -6.09  1.0000
  18  16   4    1621      80                                                        1373   -8.08   -4.82  1.0000
  18 -16  -6    2010     165                                                         563   -1.61  -49.84  1.0000
  18 -16  -8     249     151                                                         166  -13.84   -8.11  1.0000
  18 -16 -10    4544     185                                                        4405    1.77   13.81  1.0000
  18 -16 -12     632     113                                                         417   -9.78    5.15  1.0000
  18  18 -16    1234     187                                                        1048   -7.66  -13.76  1.0000
  18  16 -18    1209     187                                                        1010   -7.88  -14.66  1.0000
  18  14 -18    3325     226                                                        5371    6.69   50.14  1.0000
  18  12 -18    8131     349                                                       11807  -27.19  -31.66  1.0000
  18  10 -18    9911     262                                                        7980   27.86   -9.84  1.0000
  18 -10  18   10148     244                                                        8212   28.90  -12.21  1.0000
  18  18 -10    9896     266                                                        8067   28.23  -12.98  1.0000
  18   8 -18   15694     306                                                        9994  -50.49   12.60  1.0000
  18  -8  18   16153     287                                                       10279  -51.47   11.82  1.0000
  18  18  -8   16476     302                                                       10602  -50.79   11.94  1.0000
  18   6 -18    3564     199                                                        5803   11.21   33.61  1.0000
  18  18  -6    3254     191                                                        5430    9.68   35.08  1.0000
  18   4 -18    1488     137                                                        2136    7.53   44.59  1.0000
  18  18  -4    1634     130                                                        2309    6.85   42.73  1.0000
  18   2 -18    2671     118                                                        1248   47.17   18.50  1.0000
  18  18  -2    2373     103                                                        1062   45.92   17.62  1.0000
  18   0 -18   68690    1912                                                       74404   21.92   -0.22  1.0000
  18  18   0   69497    1908                                                       75290   22.09    0.63  1.0000
  18  -2 -18    4252     122                                                        2542   46.34  -17.54  1.0000
  18 -18  -2    4333     206                                                        2547   45.22  -18.85  1.0000
  18  18   2    4239     107                                                        2506   47.57  -18.00  1.0000
  18 -18  -4    3427     230                                                        4634    7.16  -44.81  1.0000
  18  18   4    3676     147                                                        4919    7.30  -44.56  1.0000
  18  -4 -18    3431     158                                                        4544    6.87  -42.37  1.0000
  18 -18  -6    1223     201                                                        2669    9.97  -35.42  1.0000
  18  -6 -18    1277     115                                                        2728   10.13  -34.75  1.0000
  18 -18  -8   15606     312                                                        9920  -50.71  -11.57  1.0000
  18 -18 -10    4410     171                                                        3155   27.97   11.42  1.0000
  18 -18 -12    7564     317                                                       10993  -25.58   32.17  1.0000
  19   1 -17    4539     209                                                        6544  -29.61   -0.15  1.0000
  17  19  -1    4475     193                                                        6336  -27.26   -1.70  1.0000
  19   1 -15    5356     219                                                        6543   -8.62   58.67  1.0000
  15  19  -1    5469     198                                                        6883   -7.01   60.90  1.0000
  19  -1  13    8118     188                                                        6583   16.89    8.54  1.0000
  13  19  -1    8334     194                                                        6786   16.87    8.18  1.0000
  19   1 -13    7547     212                                                        6120   16.15    8.82  1.0000
  19  -1  11    2040      78                                                         998   46.39   23.03  1.0000
  19   1 -11    1974     110                                                         961   47.26   25.09  1.0000
  11  19  -1    1898      83                                                         925   43.86   22.09  1.0000
  19  -1   9   15499     491                                                       18784  -18.52  -25.89  1.0000
  19   1  -7    1406     129                                                        3047   36.30  -65.29  1.0000
  19  -1   7    1289     111                                                        2756   34.88  -65.99  1.0000
  -7  19   1    1262     184                                                        2576   33.31  -62.80  1.0000
 -19   1   7    1345     202                                                        2731   32.30  -65.25  1.0000
  19  -1   5    3572     127                                                        3708   12.71   15.05  1.0000
  -5  19   1    3655     189                                                        3996   12.61   19.56  1.0000
 -19   1   5    3527     226                                                        3804   15.57   21.09  1.0000
  19  -1   3   21476     624                                                       24386  -34.15  -24.33  1.0000
  19   1  -3   20752     626                                                       23696  -34.41  -23.50  1.0000
 -19   1   3   21694     712                                                       24448  -31.69  -21.59  1.0000
  19  -1   1    6936     310                                                       11195  -38.91   47.21  1.0000
  19   1  -1    7467     313                                                       11743  -37.72   46.58  1.0000
  19   1   1    6512     298                                                       10847  -40.79  -48.07  1.0000
  19  -1  -1    6839     302                                                       11223  -39.99  -49.14  1.0000
 -19  -1   3   26025     821                                                       29347  -34.41   23.50  1.0000
  19   1   3   25386     732                                                       28118  -29.50   20.59  1.0000
  -3  19  -1   24864     779                                                       27912  -33.78   25.03  1.0000
  19   1   5    4283     149                                                        4678   12.01  -19.33  1.0000
  -5  19  -1    5098     216                                                        5264   12.47  -14.60  1.0000
 -19  -1   5    4910     242                                                        5228   10.79  -16.10  1.0000
  19  -1  -5    4264     160                                                        4584   15.57  -21.09  1.0000
 -19  -1   7     813     173                                                        1710   36.30   65.29  1.0000
  19   1   7     855      89                                                        1696   33.34   63.94  1.0000
  -7  19  -1     901     168                                                        1909   35.30   66.67  1.0000
  19  -1  -7     934     119                                                        1854   32.30   65.25  1.0000
  19   1   9    9233     320                                                       11840  -18.82   26.61  1.0000
  19  -1  -9    9624     337                                                       12382  -19.95   26.09  1.0000
  -9  19  -1    9645     417                                                       12263  -18.60   25.96  1.0000
  19   1  11    2272      77                                                        1201   46.37  -23.38  1.0000
  11  19   1    2132      76                                                        1107   47.49  -25.88  1.0000
  19  -1 -13    6840     193                                                        5448   16.77   -8.36  1.0000
  13  19   1    7201     170                                                        5813   16.30   -7.90  1.0000
  19  -1 -15    2564     153                                                        3264   -6.87  -60.84  1.0000
  15  19   1    3153     129                                                        3902   -8.01  -58.48  1.0000
  17  19   1    6046     235                                                        8331  -29.33    0.82  1.0000
  19  -1 -17    6151     246                                                        8296  -27.46    0.74  1.0000
  19   3 -17    8191     208                                                        6309  -26.48   -9.73  1.0000
  17  19  -3    8133     195                                                        6215  -26.05  -10.67  1.0000
  15  19  -3    8433     239                                                        8205    4.98    9.79  1.0000
  19   3 -15    8680     258                                                        8465    5.11   11.03  1.0000
  19  -3  13    7382     251                                                        9133  -17.11  -27.88  1.0000
  13  19  -3    7442     256                                                        9296  -18.23  -27.27  1.0000
  19  -3  11   10208     293                                                       10794   17.77   -4.86  1.0000
  11  19  -3   10349     291                                                       10970   19.29   -5.59  1.0000
  19  -3   9    6531     231                                                        8204  -14.08  -17.31  1.0000
  19   3  -9    6352     242                                                        8030  -14.88  -16.35  1.0000
  19  -3   7    3839     107                                                        2269   29.57   28.70  1.0000
  -7  19   3    3756     165                                                        2133   31.21   32.47  1.0000
 -19   3   7    3490     191                                                        1976   29.98   29.88  1.0000
 -19   3   5    3901     209                                                        2731   21.06    6.18  1.0000
  19  -3   5    3531     107                                                        2521   19.07    5.49  1.0000
  19  -3   3   27808     605                                                       22987  -26.36   25.69  1.0000
  19   3  -3   28398     607                                                       23427  -27.08   25.41  1.0000
   3   3 -19   29378     706                                                       24167  -27.67   27.71  1.0000
 -19   3   3   27936     699                                                       22992  -26.62   28.37  1.0000
  19  -3   1   16835     423                                                       15630    1.66   10.01  1.0000
  19   3  -1   17371     424                                                       16134   -0.49   11.19  1.0000
  19  -3  -1   11992     308                                                       10766    2.29  -12.01  1.0000
 -19  -3   1   13687     389                                                       12591   -0.49  -11.19  1.0000
  19   3   1   12789     308                                                       11518    1.66  -12.38  1.0000
   3  -1 -19   14081     434                                                       12906    0.01  -11.58  1.0000
 -19  -3   3   31633     749                                                       26378  -27.08  -25.41  1.0000
  19   3   3   31111     670                                                       25731  -27.84  -27.27  1.0000
   3  -3 -19   33360     797                                                       27926  -27.15  -26.14  1.0000
 -19  -3   5    4225     191                                                        3078   18.93   -6.84  1.0000
  19  -3  -5    4041     131                                                        2849   21.06   -6.18  1.0000
  -5  19  -3    4279     175                                                        3154   19.40   -5.19  1.0000
  19   3   5    4315     109                                                        3005   21.09   -8.62  1.0000
  19   3   7    4288      99                                                        2556   31.19  -32.28  1.0000
  -7  19  -3    3812     173                                                        2226   30.06  -28.88  1.0000
  19  -3  -7    4216     128                                                        2554   29.98  -29.88  1.0000
  19  -3  -9    3983     182                                                        5188  -12.37   17.06  1.0000
  19   3   9    4031     159                                                        5340  -14.89   14.81  1.0000
  -9  19  -3    3863     261                                                        5153  -13.76   17.57  1.0000
  19  -3 -11    6603     221                                                        7109   18.90    4.93  1.0000
  13  19   3    2077     106                                                        2975  -17.30   27.26  1.0000
  19  -3 -15    8606     249                                                        8390    4.82   -9.77  1.0000
  15  19   3    8426     229                                                        8200    5.33  -11.24  1.0000
  17 -19  -3    8193     254                                                        6329  -26.97    9.15  1.0000
  19  -3 -17    8162     203                                                        6270  -25.82   10.37  1.0000
  17  19   3    8442     187                                                        6508  -26.59   10.01  1.0000
  19   5 -17    1166     126                                                         655   30.26    3.74  1.0000
  17  19  -5    1277     119                                                         765   30.42    2.99  1.0000
  19   5 -15    3321     147                                                        2043   24.31  -31.60  1.0000
  19  -5  15    3270     109                                                        2007   26.19  -32.03  1.0000
  15  19  -5    3325     129                                                        2066   26.64  -31.86  1.0000
  19  -5  13    1374     107                                                        2090   17.56  -11.57  1.0000
  13  19  -5    1314     118                                                        1998   17.17  -11.42  1.0000
  19  -5  11   20565     595                                                       23010   19.83   -5.84  1.0000
  19   5 -11   20155     602                                                       22517   19.22   -5.24  1.0000
  11  19  -5   20257     595                                                       22694   19.68   -5.13  1.0000
  19   5  -9     317     107                                                         593    5.18   13.09  1.0000
  19  -5   9     272      89                                                         547    2.41   15.32  1.0000
  19  -5   7    9665     346                                                       12733   32.53  -46.93  1.0000
   5   5 -19    3472     175                                                        1519   33.38  -26.19  1.0000
  19  -5   5    3149      99                                                        1308   32.96  -27.19  1.0000
  19   5  -5    3471     101                                                        1473   33.63  -28.92  1.0000
 -19   5   3    1240     198                                                        2095  -10.70   27.74  1.0000
  19  -5   3    1466     113                                                        2221   -9.87   23.79  1.0000
   5   3 -19    1436     209                                                        2424  -10.33   29.14  1.0000
   5   1 -19    7455     305                                                        6943   10.22   14.42  1.0000
  19  -5   1    7370     205                                                        6852    9.95   13.06  1.0000
 -19   5   1    7001     314                                                        6459   10.65   13.86  1.0000
  19   5   1    6504     179                                                        6005   10.45  -14.42  1.0000
   5  -1 -19    6238     275                                                        5727    9.44   -9.51  1.0000
  19  -5  -3    1461     125                                                        2388  -10.70  -27.74  1.0000
  19   5   3    1378     102                                                        2333   -9.52  -28.66  1.0000
  19  -5  -5    3559     109                                                        1577   33.99   24.66  1.0000
  19   5   5    3625      84                                                        1627   33.24   26.17  1.0000
  19  -5  -7   11602     405                                                       15069   33.11   47.73  1.0000
  19   5   7   11607     393                                                       14883   31.63   43.86  1.0000
  19  -5  -9     943     120                                                        1424    2.81  -15.24  1.0000
  19   5   9     937      77                                                        1478    6.01  -15.58  1.0000
  19  -5 -11   12491     396                                                       14443   19.91    5.01  1.0000
  19  -5 -13    1282     130                                                        1960   17.21   11.50  1.0000
  19  -5 -15    3399     118                                                        2131   27.07   31.88  1.0000
  19  -5 -17    1220     102                                                         718   30.60   -2.88  1.0000
  17 -19  -5    1145     169                                                         652   31.18   -2.80  1.0000
  19   7 -17    3453     148                                                        1462  -24.95  -37.62  1.0000
  19  -7  17    3531     102                                                        1461  -27.15  -38.60  1.0000
  17  19  -7    3623     131                                                        1558  -26.11  -37.84  1.0000
  19   7 -15    1387     152                                                        2357   23.82   -0.50  1.0000
  19  -7  15    1718     123                                                        2762   23.69    0.80  1.0000
  15  19  -7    1445     141                                                        2398   23.18   -0.06  1.0000
  19  -7  13    7514     221                                                        7639  -13.62  -10.95  1.0000
  19   7 -13    6847     241                                                        7009  -13.05   -9.58  1.0000
  13  19  -7    7007     224                                                        7150  -13.20  -10.11  1.0000
  19  -7  11   11945     427                                                       15500  -30.26   17.03  1.0000
  19   7 -11   11578     433                                                       15306  -31.95   19.51  1.0000
  19  -7   9    4104     210                                                        6729  -36.82    4.15  1.0000
  19   7  -9    4159     218                                                        6875  -37.79    1.76  1.0000
  19  -7   7    8076     261                                                        9346    8.43   22.18  1.0000
   7   7 -19    7813     247                                                        8989    7.93   21.09  1.0000
   7   5 -19    3964      92                                                        2663   25.49    1.85  1.0000
   7   5 -19    3919     181                                                        2625   25.49    1.85  1.0000
  19  -7   5    3861     124                                                        2639   25.42   -0.47  1.0000
  19   7  -5    4018     121                                                        2843   23.04    0.77  1.0000
  19  -7   3   13007     458                                                       16476   10.54   27.51  1.0000
  19   7  -3   14075     451                                                       17648   13.75   26.31  1.0000
   7   3 -19   13071     542                                                       16575   11.08   27.57  1.0000
  19  -7   1   31501     946                                                       36017   24.53    9.80  1.0000
  19   7  -1   32583     943                                                       37058   23.88   10.30  1.0000
   7   1 -19   33777    1043                                                       37813   20.98   12.14  1.0000
  19   7   1   27913     814                                                       31596   21.05  -11.84  1.0000
  19   7   3   12272     404                                                       15633   10.54  -27.38  1.0000
  19  -7  -3   11300     416                                                       14796   12.92  -28.99  1.0000
  19  -7  -5    2952     121                                                        1871   24.92   -1.50  1.0000
  19   7   5    3115      89                                                        1974   25.51   -1.76  1.0000
  19  -7  -7    6818     245                                                        7821    6.84  -20.98  1.0000
  19   7   7    7128     224                                                        8251    7.88  -21.33  1.0000
  19  -7  -9    3981     208                                                        6453  -35.33   -3.41  1.0000
  19  -7 -11   11654     423                                                       15580  -33.45  -20.00  1.0000
  19  -7 -13    6127     206                                                        6258  -12.77    9.65  1.0000
  15 -19  -7    2494     186                                                        3789   24.06    2.12  1.0000
  17 -19  -7    5143     188                                                        2540  -27.72   39.16  1.0000
  19  -7 -17    5236     123                                                        2705  -26.00   37.42  1.0000
  19   9 -17      42     158                                                         321    3.36  -31.08  1.0000
  19  -9  17      39     103                                                         266    2.06  -29.15  1.0000
  17  19  -9      60     148                                                         364    1.01  -31.37  1.0000
  19   9 -15    2303     167                                                        2484    4.13  -10.24  1.0000
  19  -9  15    2536     140                                                        2778    5.15  -10.95  1.0000
  15  19  -9    2664     156                                                        2892    4.76  -12.86  1.0000
  19   9 -13   14957     368                                                       12215  -40.30   -2.08  1.0000
  19  -9  13   16009     360                                                       13114  -39.53   -3.20  1.0000
  13  19  -9   16071     361                                                       13093  -42.28   -2.37  1.0000
  11  19  -9   17002     444                                                       16749   -7.32  -33.77  1.0000
  19   9 -11   17146     448                                                       16885   -7.06  -31.87  1.0000
  19  -9  11   17364     448                                                       17196   -6.44  -32.51  1.0000
   9  11 -19   15889     439                                                       15603   -7.36  -32.40  1.0000
  19  -9   9    2517     120                                                         745  -49.96    2.61  1.0000
   9   9 -19    2403      94                                                         696  -48.79    0.82  1.0000
  19  -9   7   16689     475                                                       17608   11.91  -10.47  1.0000
  19   9  -7   16210     470                                                       16912   10.61  -11.56  1.0000
   9   7 -19   17117     462                                                       18081   12.31  -10.82  1.0000
  19  -9   5    3663     141                                                        2842   15.57    6.90  1.0000
   9   5 -19    3717     100                                                        2848   15.06    8.20  1.0000
  19   9  -5    3753     117                                                        2864   14.68    8.84  1.0000
   9   3 -19    2584     204                                                        3408   16.02   16.27  1.0000
  19   9  -3    2874     126                                                        3634   14.15   18.49  1.0000
  19  -9   3    2650     147                                                        3348   13.62   18.81  1.0000
   9   3 -19    2368     105                                                        3155   16.02   16.27  1.0000
  19   9  -1    5558     203                                                        7099    6.75  -34.91  1.0000
  19  -9  -1    4599     211                                                        6077    7.58   37.25  1.0000
  19   9   1    4832     183                                                        6330    6.47   35.89  1.0000
  19   9   3    2609     115                                                        3421   15.74  -16.65  1.0000
  19  -9  -3    2432     149                                                        3224   15.90  -15.91  1.0000
  19   9   5    3021      89                                                        2223   14.90   -8.82  1.0000
  19  -9  -5    2984     139                                                        2263   16.41   -5.91  1.0000
  19   9   7   11026     307                                                       11802   12.29   10.53  1.0000
  19  -9  -7   10055     329                                                       10899   13.27   10.20  1.0000
  19  -9  -9    2042     119                                                         483  -49.99   -1.48  1.0000
  11 -19  -9   24441     611                                                       24170   -7.29   32.76  1.0000
  19  -9 -11   22358     615                                                       22112   -7.23   33.37  1.0000
  13 -19  -9   14234     310                                                       11537  -41.84    1.37  1.0000
  19  -9 -13   12745     308                                                       10096  -42.28    2.16  1.0000
  15 -19  -9    1729     145                                                        1910    4.83   12.45  1.0000
  17 -19  -9     550     152                                                        1302    1.00   29.78  1.0000
  19  -9 -17     642     101                                                        1523    0.67   32.17  1.0000
  19  11 -17    9797     277                                                        8350   -0.60  -27.35  1.0000
  19 -11  17   10076     256                                                        8668    0.35  -27.67  1.0000
  17  19 -11    9305     276                                                        7944    0.90  -28.72  1.0000
  19 -11  15    2155     142                                                        2267   -7.50   18.78  1.0000
  15  19 -11    2305     167                                                        2320   -5.23   18.61  1.0000
  19  11 -15    1806     168                                                        1866   -6.79   19.20  1.0000
  19  11 -13    2655     169                                                        3701  -34.19   13.73  1.0000
  11  13 -19    2353     161                                                        3341  -34.19   13.24  1.0000
  13  19 -11    2473     170                                                        3521  -35.63   14.66  1.0000
  19  11 -11    2246     143                                                        1239  -12.53   32.65  1.0000
  11  11 -19    2279     115                                                        1251  -12.16   34.35  1.0000
  11   9 -19    3264     208                                                        6897  -53.66  -16.91  1.0000
  19  11  -7     859     134                                                        2346  -40.70    9.20  1.0000
  11   7 -19     832     107                                                        2270  -40.07    9.44  1.0000
  19  11  -5    4325     122                                                        2683   23.65   29.41  1.0000
  11   5 -19    3671      97                                                        2248   21.66   30.58  1.0000
  19 -11   5    3980     151                                                        2474   22.32   28.41  1.0000
  11   3 -19   43322    1210                                                       46557   18.69  -11.22  1.0000
  19 -11   3   43793    1222                                                       47097   19.26  -12.68  1.0000
  19  11  -3   45507    1213                                                       48694   18.33  -12.36  1.0000
  19  11  -1     942      90                                                        1023   13.96    9.37  1.0000
  19 -11  -1    1759     152                                                        1904   14.56   -9.86  1.0000
  19  11   1    2034      98                                                        2133   10.68   -6.82  1.0000
  19  11   3   40551    1122                                                       43622   18.63   12.27  1.0000
  19 -11  -3   41202    1137                                                       44548   20.18   13.66  1.0000
  19  11   5    4649     108                                                        3038   21.84  -30.27  1.0000
  19 -11  -5    5110     169                                                        3338   23.31  -30.10  1.0000
  19 -11  -7     291     136                                                        1323  -41.51   -7.51  1.0000
  19  11   7     388      71                                                        1467  -40.12   -9.08  1.0000
  19 -11  -9    1777     181                                                        4684  -54.80   19.62  1.0000
  19 -11 -11    4571     152                                                        3165  -11.79  -33.42  1.0000
  19 -11 -13    1345     125                                                        2057  -35.16  -14.33  1.0000
  15 -19 -11    3002     144                                                        3116   -6.76  -18.33  1.0000
  19 -11 -15    2625     128                                                        2635   -4.88  -18.21  1.0000
  17 -19 -11    4800     167                                                        3756    0.31   29.11  1.0000
  19 -13  17     211     136                                                         369   22.31    3.02  1.0000
  19  13 -17     228     164                                                         400   22.05    2.39  1.0000
  19  13 -15    4455     202                                                        4336   -8.88  -49.33  1.0000
  13  13 -19    1504     136                                                        1872   16.48    9.41  1.0000
  19  13 -13    1514     160                                                        1905   18.18   11.35  1.0000
  13  11 -19    5672     198                                                        5645  -10.77  -23.83  1.0000
  13   9 -19      13     107                                                         135  -15.11  -12.81  1.0000
  19  13  -9      54     130                                                         246  -14.61  -12.18  1.0000
  19  13  -7   25947     799                                                       30945   35.71    6.27  1.0000
  13   7 -19   25893     795                                                       30587   33.12    4.55  1.0000
  19  13  -5    4114     154                                                        3908  -24.40   11.00  1.0000
  13   5 -19    4234     142                                                        4063  -22.76    9.78  1.0000
  13   3 -19    3590     125                                                        3540   32.87  -28.62  1.0000
  19  13  -3    3736     133                                                        3818   35.28  -28.22  1.0000
  19 -13   1    6398     219                                                        5179  -14.69   16.96  1.0000
  13   1 -19    6541     162                                                        5418  -18.26   15.69  1.0000
  19  13  -1    6683     169                                                        5450  -19.20   17.13  1.0000
  19  13   1    6668     171                                                        5523  -18.15  -15.83  1.0000
  19 -13  -1    7145     217                                                        5816  -18.99  -17.85  1.0000
  19  13   3    3269     115                                                        3193   32.64   28.53  1.0000
  19 -13  -3    3460     185                                                        3473   35.74   29.92  1.0000
  19  13   5    2952     101                                                        2782  -22.77   -9.85  1.0000
  19 -13  -5    2885     169                                                        2698  -22.63  -10.15  1.0000
  19 -13  -7   31463     957                                                       36667   33.87   -5.81  1.0000
  19 -13  -9      50     136                                                         239  -14.11   12.76  1.0000
  19 -13 -11    5103     186                                                        5004  -12.04   24.33  1.0000
  19 -13 -13    3033     156                                                        3602   17.56  -10.48  1.0000
  19 -13 -15    5627     184                                                        5591   -9.16   51.46  1.0000
  17  19 -15    9571     264                                                        6722  -24.97   29.69  1.0000
  19  15 -17    9862     244                                                        6918  -25.58   30.27  1.0000
  15  15 -19    3258     208                                                        4993   32.52   -6.80  1.0000
  19  15 -15    3298     222                                                        4984   32.04   -6.05  1.0000
  15  13 -19    2375     154                                                        1711   10.41   27.39  1.0000
  19  15 -13    2363     181                                                        1758   12.83   27.68  1.0000
  15  11 -19    5191     165                                                        3198   34.59   67.07  1.0000
  15   9 -19    1307     131                                                        1060  -10.33   -0.04  1.0000
  19  15  -9    1493     143                                                        1201  -10.13    1.22  1.0000
  19  15  -7   27314     830                                                       33015   32.51    9.02  1.0000
  15   7 -19   25574     827                                                       30908   32.04    6.10  1.0000
  19  15  -5    4867     129                                                        3052   46.36  -19.14  1.0000
  15   5 -19    5018     133                                                        3140   44.51  -20.24  1.0000
  15   3 -19    4461     168                                                        5414  -12.34    8.15  1.0000
  19  15  -3    3961     173                                                        4779  -11.19    7.70  1.0000
  19 -15   1    6990     277                                                        7866   11.02   -1.53  1.0000
  15   1 -19    6989     232                                                        8065   13.95   -0.88  1.0000
  19  15  -1    7359     233                                                        8288   12.93    1.37  1.0000
  15  -1 -19    8913     267                                                        9917   12.21   -0.37  1.0000
  19 -15  -1    8825     315                                                        9896   11.76    2.08  1.0000
  19  15   1    8334     267                                                        9484   13.71    0.87  1.0000
  19  15   3    2651     122                                                        3417  -12.75   -8.09  1.0000
  19 -15  -3    2795     210                                                        3519  -11.67   -8.11  1.0000
  19 -15  -5    8356     243                                                        5964   43.65   20.57  1.0000
  19  15   5    9216     189                                                        6722   45.15   20.27  1.0000
  19 -15  -7   25067     806                                                       30387   32.20   -6.40  1.0000
  19 -15  -9     253     144                                                         141  -10.48   -0.34  1.0000
  19 -15 -11    6581     180                                                        4454   35.22  -68.27  1.0000
  19 -15 -13    2460     134                                                        1831   11.52  -26.93  1.0000
  19  17 -17    2411     189                                                        1987  -15.23    3.83  1.0000
  17  15 -19     882     168                                                        1074   -7.17  -17.57  1.0000
  19  17 -15    1149     190                                                        1394   -7.58  -16.30  1.0000
  17  13 -19    2018     160                                                        2232   -0.28   -5.30  1.0000
  17  11 -19    6659     274                                                        8299    9.92  -36.94  1.0000
  19  17 -11    7339     280                                                        9135   11.30  -35.05  1.0000
  17  -9  19    3027     138                                                        3757    6.33  -32.48  1.0000
  17   9 -19    2907     173                                                        3627    5.12  -31.17  1.0000
  19  17  -9    3219     179                                                        3994    5.19  -31.49  1.0000
  17   7 -19   12701     221                                                        6738   80.93  -22.65  1.0000
  19  17  -7   13076     225                                                        7042   80.58  -22.58  1.0000
  17   5 -19    9287     262                                                        9065   18.24  -12.48  1.0000
  19  17  -5    8994     266                                                        8815   18.91  -13.62  1.0000
  17   3 -19    3746     145                                                        3505   -3.23   -5.82  1.0000
  19  17  -3    3634     144                                                        3322   -4.40   -6.82  1.0000
  17   1 -19     422      94                                                         476   14.78   14.73  1.0000
  19  17  -1     387      95                                                         442   16.00   16.05  1.0000
  19  17   1     364      92                                                         409   14.84  -14.65  1.0000
  19 -17  -1     278     195                                                         285   14.52  -15.82  1.0000
  17  -1 -19     225      87                                                         234   15.81  -15.48  1.0000
  17  -3 -19    3399     117                                                        3084   -4.65    6.85  1.0000
  19 -17  -3    3223     211                                                        2977   -3.32    7.92  1.0000
  19  17   3    3060     116                                                        2837   -3.27    6.14  1.0000
  19  17   5   10460     276                                                       10281   17.63   12.63  1.0000
  19 -17  -5   10035     333                                                        9914   18.80   14.33  1.0000
  19 -17  -7   17368     328                                                       10350   80.06   23.31  1.0000
  19 -17  -9    2140     175                                                        2735    4.74   30.67  1.0000
  19 -17 -11    6462     263                                                        8209   11.25   37.81  1.0000
  19 -17 -13     182     122                                                         260   -0.47    6.05  1.0000
  19 -19  19    4082     195                                                        4558  -15.37   58.37  1.0000
  19 -17  19     499     147                                                         568  -29.62    2.64  1.0000
  19  15 -19    5175     216                                                        4244   26.22   23.68  1.0000
  19 -15  19    5854     190                                                        4897   28.66   24.78  1.0000
  19 -13  19     249     125                                                         -27    8.47   31.22  1.0000
  19  13 -19      83     154                                                         191    8.54   31.16  1.0000
  19 -11  19    8605     245                                                        8352   -5.29   -1.69  1.0000
  19  19 -11    9172     276                                                        8889   -4.92   -2.01  1.0000
  19  19  -9    7823     251                                                        7321   -1.68  -22.70  1.0000
  19   9 -19    8138     249                                                        7652   -1.14  -20.05  1.0000
  19   7 -19    1945     141                                                        1445  -16.54  -10.71  1.0000
  19  19  -7    1917     139                                                        1416  -16.34   -9.90  1.0000
  19   5 -19    3537     185                                                        5395   -4.52  -31.71  1.0000
  19  19  -5    2825     182                                                        4541   -6.57  -31.11  1.0000
  19   3 -19    2888     121                                                        1455  -25.73   34.61  1.0000
  19  19  -3    2708     117                                                        1330  -25.99   31.82  1.0000
  19   1 -19   14399     404                                                       15672  -10.37    2.44  1.0000
  19  19  -1   12869     396                                                       14238  -11.56    3.76  1.0000
  19 -19  -1   14975     469                                                       16306  -10.58   -2.80  1.0000
  19  -1 -19   14036     422                                                       15449  -11.29   -4.43  1.0000
  19  19   1   14513     417                                                       15797  -10.40   -2.58  1.0000
  19  19   3    6049     134                                                        3960  -25.89  -35.30  1.0000
  19 -19  -3    5441     232                                                        3491  -25.47  -32.64  1.0000
  19  -3 -19    5427     137                                                        3456  -25.89  -32.30  1.0000
  19 -19  -5    1221     206                                                        2394   -5.36   31.69  1.0000
  19  -5 -19    1409     115                                                        2665   -6.75   30.90  1.0000
  19 -19  -7    2892     195                                                        2218  -17.79    9.85  1.0000
  19 -19  -9    7231     253                                                        6915   -3.01   19.92  1.0000
  19 -19 -11    2674     160                                                        2531   -5.99    1.53  1.0000
  20   0   0   41967    2256                                                       88561  190.25   -0.09  1.0000
 -20   0   2    1177     142                                                         301  105.94   -1.93  1.0000
  20   0  -2    1369      95                                                         214  105.94    1.93  1.0000
  20   0   2    1239      90                                                         259  105.23    2.17  1.0000
  20   0   4    2297     269                                                        9670  103.41    1.43  1.0000
 -20   0   4    2617     368                                                       10233  102.56   -1.76  1.0000
  20   0   6   10561     418                                                       15757  -46.70    0.11  1.0000
  20   0  -6   10767     429                                                       16132  -47.69   -0.28  1.0000
  20   0  -8    1069     120                                                         806    8.83    0.63  1.0000
  20   0   8     997      82                                                         738    9.05    0.11  1.0000
  20   0  10   26271     890                                                       34577  -48.96    0.17  1.0000
  12  20   0   29780     669                                                       26080   22.73   -2.28  1.0000
  20   0 -12   29041     681                                                       25375   22.82    2.76  1.0000
  20   0  12   30037     670                                                       25922   25.25   -1.02  1.0000
  20   0 -14     150     122                                                         174   -1.92    1.01  1.0000
  14  20   0      27      87                                                          39   -2.18   -0.77  1.0000
  16  20   0    4768     139                                                        3927   13.10    0.96  1.0000
  20   0 -16    4215     153                                                        3435   12.94   -0.08  1.0000
  18  20   0     153      95                                                         167   -1.12    0.67  1.0000
  20   0 -18     209     112                                                         227   -1.23   -1.07  1.0000
  18  20  -2     442     107                                                         314   11.33    5.87  1.0000
  20   2 -18     327     119                                                         232   11.77    7.99  1.0000
  20   2 -16   12917     316                                                       11222   19.43   34.77  1.0000
  16  20  -2   12599     303                                                       10865   20.56   38.98  1.0000
  20  -2  14    2545      95                                                        1927  -14.64   21.75  1.0000
  14  20  -2    2584     110                                                        1929  -15.38   21.44  1.0000
  20   2 -14    2249     132                                                        1620  -15.70   21.21  1.0000
  20   2 -12    2324     141                                                        1495   17.03   10.18  1.0000
  12  20  -2    2693     106                                                        1799   15.90   12.82  1.0000
  20  -2  12    2511     100                                                        1643   16.55   11.59  1.0000
  20  -2  10     209      90                                                         194  -27.11   18.92  1.0000
  20   2 -10     192     123                                                         181  -27.80   17.58  1.0000
  20  -2   8    3131     108                                                        1940    8.76  -22.85  1.0000
  20  -2   6     396      82                                                          94   25.15    7.97  1.0000
 -20   2   4    8277     394                                                       10484  -29.27   -4.85  1.0000
  20  -2   4    8871     304                                                       11277  -28.95   -6.85  1.0000
 -20   2   2   59428    1189                                                       42568   72.01   29.73  1.0000
  20   2  -2   59053    1087                                                       42295   72.23   27.71  1.0000
  20  -2   2   59003    1087                                                       42365   71.55   28.22  1.0000
  20  -2   0    1839     108                                                        2120    6.47    0.76  1.0000
  20   2   0    1745     107                                                        2057    7.35    0.46  1.0000
  20   2   2   49516     876                                                       34190   72.61  -28.47  1.0000
 -20  -2   2   47839     956                                                       32893   72.23  -27.71  1.0000
  20   2   4    9815     329                                                       12261  -27.24    7.49  1.0000
 -20  -2   4    9194     414                                                       11816  -30.60    7.53  1.0000
  20  -2  -6    2821     124                                                        1998   25.82   -8.04  1.0000
  20   2   6    2919      97                                                        2073   26.09   -8.02  1.0000
  20  -2  -8    3722     137                                                        2500    9.58   20.46  1.0000
  20   2   8    3647     105                                                        2496    9.01   19.43  1.0000
  20   2  10     882      82                                                        1194  -25.83  -19.46  1.0000
  20  -2 -10     778     124                                                        1108  -26.62  -17.09  1.0000
  20  -2 -14    3254     135                                                        2528  -15.28  -20.43  1.0000
  14  20   2    3375     105                                                        2622  -15.51  -19.84  1.0000
  20  -2 -16   12749     309                                                       11028   20.25  -38.24  1.0000
  16  20   2   12302     292                                                       10616   19.66  -34.61  1.0000
  20  -2 -18     900     109                                                         730   11.32   -6.09  1.0000
  18 -20  -2     925     198                                                         785   11.20   -7.43  1.0000
  18  20   2     830      91                                                         695   11.40   -7.54  1.0000
  20   4 -18    8363     295                                                       10111   19.63    8.03  1.0000
  18  20  -4    8182     287                                                        9751   18.01    8.51  1.0000
  20   4 -16   11186     286                                                        9526   21.19    7.90  1.0000
  16  20  -4   11010     272                                                        9319   20.62    8.70  1.0000
  20  -4  14    1739     112                                                        2535   -9.58  -31.93  1.0000
  14  20  -4    1664     129                                                        2556  -12.80  -29.40  1.0000
  20   4 -14    1581     141                                                        2349  -10.65  -29.30  1.0000
  20  -4  12   12543     279                                                        9795   30.80    9.32  1.0000
  12  20  -4   12731     279                                                        9872   32.08    9.52  1.0000
  20   4 -12   12998     296                                                       10032   30.46   11.71  1.0000
  20  -4  10    1197      98                                                         521  -43.56  -16.20  1.0000
  20   4 -10    1346     125                                                         625  -41.22  -13.75  1.0000
  20  -4   8   20521     377                                                       14034   50.98   -3.67  1.0000
  20   4  -8   20532     386                                                       13955   51.79   -3.45  1.0000
   4   6 -20   13030     564                                                       17898  -45.66  -27.22  1.0000
  20  -4   6   12632     468                                                       17594  -46.50  -23.49  1.0000
   4   4 -20   15525     514                                                       16914    5.08   10.47  1.0000
  20  -4   4   13043     398                                                       14546    6.36   11.94  1.0000
   4   2 -20     639     133                                                         495   67.93   14.40  1.0000
  20   4  -2     639      99                                                         493   67.30   13.27  1.0000
  20  -4   2     610      92                                                         434   65.45   14.52  1.0000
  20  -4   0    4486     347                                                       13084   97.25    2.15  1.0000
  20   4   0    4040     342                                                       12351   97.60   -0.51  1.0000
  20   4   2     772      91                                                        1210   67.59  -15.68  1.0000
  20  -4  -4   11508     344                                                       12877    7.06  -10.76  1.0000
  20   4   4   10890     332                                                       12068    4.94  -10.72  1.0000
  20   4   6   10854     407                                                       15314  -45.61   26.28  1.0000
  20  -4  -6   11136     418                                                       15531  -44.79   27.64  1.0000
  20   4   8   23044     420                                                       15816   53.64    3.45  1.0000
  20  -4  -8   23620     434                                                       16228   54.16    3.51  1.0000
  20   4  10     858      69                                                         235  -41.62   13.80  1.0000
  20  -4 -10     956     122                                                         307  -41.41   13.38  1.0000
  20  -4 -12    4948     159                                                        3204   31.76   -9.82  1.0000
  20  -4 -16    7206     195                                                        5848   20.85   -8.50  1.0000
  16  20   4    7043     168                                                        5726   22.03   -7.51  1.0000
  18 -20  -4    5384     278                                                        6762   19.23   -8.61  1.0000
  18  20   4    5960     207                                                        7444   19.65   -8.36  1.0000
  20  -4 -18    5967     221                                                        7294   17.79   -8.70  1.0000
  20   6 -18    1047     136                                                        1084   -2.16   21.29  1.0000
  18  20  -6    1018     130                                                        1083   -1.24   21.54  1.0000
  20  -6  16    1015     105                                                        1257  -14.09   19.63  1.0000
  20   6 -16     882     138                                                        1061  -11.89   15.83  1.0000
  16  20  -6    1153     129                                                        1360  -12.06   17.71  1.0000
  20   6 -14    6348     266                                                        7885   20.12   13.37  1.0000
  20  -6  14    6708     245                                                        8341   20.90   15.42  1.0000
  14  20  -6    6852     252                                                        8557   21.42   14.40  1.0000
  20   6 -12    1826     144                                                        1086   12.27   16.08  1.0000
  20  -6  12    1940     111                                                        1145   12.29   17.09  1.0000
  12  20  -6    1773     111                                                        1050   12.74   15.62  1.0000
  20  -6  10    7330     299                                                       10867   31.84   34.75  1.0000
  20   6 -10    6649     305                                                       10202   33.93   33.88  1.0000
  20  -6   8    3771     177                                                        5146   23.45    2.37  1.0000
  20  -6   6    6106     182                                                        6018   -6.64    4.99  1.0000
  20   6  -6    5155     183                                                        5172   -4.02    1.90  1.0000
  20  -6   4    1719     111                                                        1404  -46.58  -26.32  1.0000
   6   4 -20    1897     166                                                        1575  -46.72  -25.40  1.0000
  20   6  -4    1773     101                                                        1485  -46.23  -26.60  1.0000
  20   6  -2   22097     496                                                       18949   24.32    3.81  1.0000
  20  -6   2   21791     500                                                       18673   23.03    5.69  1.0000
  20  -6  -4    2305     132                                                        2010  -47.23   25.19  1.0000
  20  -6  -6    6494     209                                                        6430   -5.29   -3.84  1.0000
  20  -6  -8    2212     156                                                        3296   22.01    2.03  1.0000
  20  -6 -10    6121     283                                                        9453   32.85  -34.47  1.0000
  20  -6 -12     926     119                                                         428   13.07  -15.54  1.0000
  16 -20  -6     263     159                                                         321  -12.58  -16.75  1.0000
  20  -6 -16     348     105                                                         415  -12.10  -17.54  1.0000
  18 -20  -6    1715     193                                                        1789   -2.13  -20.75  1.0000
  20  -6 -18    1572     109                                                        1675   -1.39  -21.66  1.0000
  20   8 -18     815     148                                                         783  -22.30    2.01  1.0000
  20  -8  18    1005      96                                                         939  -24.82    3.58  1.0000
  18  20  -8     844     141                                                         814  -24.28    2.05  1.0000
  20  -8  16     455     103                                                         130   49.92  -15.80  1.0000
  20   8 -16     448     136                                                         162   49.81  -15.64  1.0000
  16  20  -8     431     129                                                         268   47.18  -14.41  1.0000
  20   8 -14    8011     301                                                        9205   16.34    7.90  1.0000
  20  -8  14    8720     284                                                        9941   16.60    9.66  1.0000
  14  20  -8    8688     291                                                        9947   15.84    5.68  1.0000
  20  -8  12    3718     209                                                        6389   68.02   10.43  1.0000
  20   8 -12    3650     229                                                        6207   69.40   14.29  1.0000
  12  20  -8    3981     217                                                        6598   67.72   13.57  1.0000
  20  -8  10    3757     160                                                        3723    4.45  -13.35  1.0000
  20   8 -10    3764     158                                                        3731    4.29  -12.81  1.0000
  20  -8   8    3243     228                                                        7260   56.05  -15.19  1.0000
   8   8 -20    3198     203                                                        7024   53.45  -17.51  1.0000
   8   6 -20    1130      71                                                        1072   -8.47    7.23  1.0000
  20   8  -6    1148     108                                                        1098   -8.26    7.37  1.0000
  20  -8   6     895     119                                                         890   -7.00    8.18  1.0000
  20   8  -4    4963     227                                                        7894   36.52   12.49  1.0000
  20  -8   4    4537     238                                                        7353   36.26   14.40  1.0000
  20   8  -2    6102     183                                                        6250   -6.35   -9.21  1.0000
  20  -8   2    5684     205                                                        5788   -6.74  -11.44  1.0000
  20   8   0   19821     741                                                       28636   58.34   -0.31  1.0000
  20   8   2    4695     153                                                        4912   -7.09    7.57  1.0000
  20  -8  -2    4830     186                                                        5065   -6.44    5.65  1.0000
  20   8   4    5999     252                                                        9169   35.99  -14.71  1.0000
  20  -8  -4    5768     273                                                        8971   37.11  -13.73  1.0000
  20  -8  -6    1314     135                                                        1245   -6.51   -4.66  1.0000
  20   8   6    1279      81                                                        1200   -8.65   -6.57  1.0000
  20  -8  -8    4835     300                                                        9363   53.62   16.36  1.0000
  20   8   8    5817     279                                                       10742   53.56   18.00  1.0000
  20  -8 -10    3330     160                                                        3269    4.23   14.22  1.0000
  12 -20  -8    1920     157                                                        3484   68.07  -15.06  1.0000
  20  -8 -12    1543     152                                                        2912   67.79  -13.18  1.0000
  14 -20  -8   10313     327                                                       11626   15.67   -7.01  1.0000
  20  -8 -14    9272     313                                                       10561   15.84   -6.04  1.0000
  16 -20  -8     495     152                                                         480   47.85   15.57  1.0000
  20  -8 -16     482     108                                                         436   47.12   14.72  1.0000
  18 -20  -8    3653     199                                                        3741  -25.66   -2.52  1.0000
  20 -10  18   15692     392                                                       14275  -11.20   -5.62  1.0000
  20  10 -18   14543     407                                                       13174  -11.17   -6.33  1.0000
  20  10 -16    5317     251                                                        6675  -18.64  -20.76  1.0000
  16  20 -10    5575     248                                                        7042  -19.53  -22.68  1.0000
  20  10 -14    4822     217                                                        5246  -21.57   19.81  1.0000
  20 -10  14    5213     197                                                        5644  -21.23   19.39  1.0000
  14  20 -10    5157     209                                                        5604  -20.23   19.17  1.0000
  20  10 -12    2179     153                                                        1421   48.38   -1.56  1.0000
  20 -10  12    2167     140                                                        1404   47.87   -1.80  1.0000
  10  10 -20     387     101                                                        1204   18.10  -31.46  1.0000
  20 -10  10     488     142                                                        1357   15.28  -30.63  1.0000
  20 -10   8    5794     184                                                        5132   28.91   19.64  1.0000
  10   8 -20    5402     154                                                        4770   27.31   18.66  1.0000
  20  10  -6    3629     202                                                        6370   35.63   21.24  1.0000
  10   6 -20    3637     187                                                        6304   35.30   19.04  1.0000
  20 -10   6    4014     217                                                        6858   35.89   19.63  1.0000
  20 -10   4   31660     675                                                       27322  -26.22    0.68  1.0000
  20  10  -4   31340     665                                                       26986  -26.51    0.40  1.0000
  20  10  -2    4341     155                                                        4548   -7.85  -32.10  1.0000
  20  10   0   20164     380                                                       14295  -46.04   -1.07  1.0000
  20 -10  -2    5627     207                                                        5711   -5.32   32.30  1.0000
  20  10   2    5206     164                                                        5321   -5.85   34.98  1.0000
  20 -10  -4   26831     614                                                       23149  -24.34    0.31  1.0000
  20  10   4   26564     595                                                       22914  -24.15   -0.22  1.0000
  20 -10  -6    2641     200                                                        4957   35.16  -19.13  1.0000
  20  10   6    2811     154                                                        5196   35.19  -19.37  1.0000
  20 -10  -8    5199     189                                                        4596   28.17  -18.69  1.0000
  20 -10 -10    2336     177                                                        4130   18.52   31.72  1.0000
  20 -10 -12    2507     142                                                        1728   47.43    1.72  1.0000
  14 -20 -10    3740     167                                                        4115  -20.37  -19.63  1.0000
  20 -10 -14    3567     157                                                        3906  -19.99  -18.98  1.0000
  16 -20 -10    4607     210                                                        5936  -19.50   24.00  1.0000
  18 -20 -10   15301     397                                                       13885  -11.22    6.72  1.0000
  20 -12  18    7336     226                                                        7379    1.04   14.07  1.0000
  18  20 -12    7076     262                                                        7167    1.63   13.29  1.0000
  20  12 -18    6564     249                                                        6721    2.53   13.89  1.0000
  20  12 -16     233     160                                                         118   13.68   -8.66  1.0000
  16  20 -12     650     162                                                         464   14.98   -9.24  1.0000
  20 -12  16     502     125                                                         356   13.61   -9.26  1.0000
  20 -12  14     780     154                                                        1431   21.14    1.45  1.0000
  20  12 -14     970     179                                                        1674   21.33    3.59  1.0000
  20  12 -12     333     166                                                        2109   43.09  -50.21  1.0000
  20 -12  12     449     159                                                        2408   42.17  -50.66  1.0000
  12  12 -20     360     144                                                        2221   45.56  -47.19  1.0000
  20 -12  10   22121     646                                                       24644   18.74   -9.61  1.0000
  12  10 -20   21533     635                                                       23930   17.93   -8.39  1.0000
  20 -12   8    8292     405                                                       14470   63.50  -24.80  1.0000
  20  12  -8    8045     395                                                       14130   63.42  -24.84  1.0000
  12   8 -20    8211     385                                                       14279   62.58  -22.39  1.0000
  20 -12   6    4825     231                                                        6468   31.02    5.69  1.0000
  20  12  -6    4451     203                                                        6002   30.14    5.90  1.0000
  12   6 -20    4639     186                                                        6165   27.31    7.07  1.0000
  20  12  -4   10496     379                                                       13859   38.80  -30.48  1.0000
  20 -12   4   10917     399                                                       14403   39.70  -32.80  1.0000
  12   4 -20   10590     372                                                       13930   39.08  -33.83  1.0000
  12   2 -20    9138     187                                                        6513   30.08    6.16  1.0000
  20  12  -2    9416     196                                                        6646   31.00    7.52  1.0000
  20 -12   0   11278     465                                                       16586   46.33   -3.25  1.0000
  20  12   0   11578     439                                                       16636   43.85    2.86  1.0000
  20 -12  -2    7293     210                                                        4861   31.49   -7.07  1.0000
  20  12   2    7517     160                                                        5172   30.02   -5.64  1.0000
  20 -12  -4   12687     454                                                       16507   40.06   32.56  1.0000
  20  12   4   12341     423                                                       15972   39.15   33.74  1.0000
  20  12   6    5607     201                                                        7273   27.58   -6.72  1.0000
  20 -12  -6    5306     255                                                        6917   29.38   -5.21  1.0000
  20 -12  -8    7741     390                                                       13555   61.98   25.10  1.0000
  20 -12 -10   19558     586                                                       21771   17.98   12.02  1.0000
  20 -12 -12     185     137                                                        1623   43.41   51.74  1.0000
  20 -12 -14    2080     147                                                        3078   20.99   -1.45  1.0000
  20 -14  18    1466     134                                                        1393   -8.93   36.41  1.0000
  20  14 -18    1127     175                                                         975   -9.75   34.05  1.0000
  20 -14  16    3129     175                                                        2876  -20.98    0.86  1.0000
  20  14 -16    3065     193                                                        2803  -21.70    0.84  1.0000
  14  14 -20     652     147                                                        1338    4.10  -54.01  1.0000
  20  14 -14     676     173                                                        1382    4.28  -52.60  1.0000
  14  12 -20    6890     226                                                        6575    5.51    2.97  1.0000
  14  10 -20    7423     208                                                        6217   33.63  -30.78  1.0000
  14   8 -20     647     105                                                         226   37.75   -0.34  1.0000
  20  14  -8     718     134                                                         360   40.44    1.55  1.0000
  20  14  -6    1005     128                                                         812   12.42   -2.63  1.0000
  14   6 -20     931     102                                                         771   10.77   -2.67  1.0000
  14   4 -20     966      86                                                         732  -47.58  -38.13  1.0000
  20  14  -4     992     104                                                         801  -46.64  -38.04  1.0000
  20  14  -2     519     101                                                         533  -18.04   15.86  1.0000
  14   2 -20     462      79                                                         442  -18.68   14.87  1.0000
  20  14   0   37591    1090                                                       42808   26.70   -1.00  1.0000
  20 -14   0   36714    1110                                                       41757   26.13    1.16  1.0000
  20 -14  -2     318     180                                                         268  -16.73  -13.60  1.0000
  20  14   2     186      84                                                         104  -18.88  -14.58  1.0000
  20  14   4    1559      89                                                        1649  -46.98   37.82  1.0000
  20 -14  -4    1480     175                                                        1570  -46.63   38.59  1.0000
  20  14   6    1092      72                                                         922   10.91    2.84  1.0000
  20 -14  -6    1209     171                                                        1046   10.26    3.00  1.0000
  20 -14  -8     781     163                                                         434   41.39   -0.80  1.0000
  20 -14 -10    4128     172                                                        3187   32.77   31.38  1.0000
  20 -14 -12    9340     276                                                        8972    4.39   -0.28  1.0000
  20 -14 -14    2420     163                                                        4143    3.56   54.21  1.0000
  20 -16  18    1574     156                                                        1380    2.50   16.58  1.0000
  20  16 -18    1604     183                                                        1371    1.44   16.73  1.0000
  20 -16  16      49     158                                                          89   -1.90    5.55  1.0000
  20  16 -16      97     182                                                         160   -1.15    7.46  1.0000
  20  16 -14    1419     177                                                         917   -7.33  -34.78  1.0000
  16  14 -20    1387     156                                                         870   -7.50  -36.19  1.0000
  16  12 -20    7883     295                                                        9271   20.12  -11.02  1.0000
  16  10 -20    6236     193                                                        5006  -27.57   15.07  1.0000
  20  16 -10    6591     202                                                        5344  -28.37   16.75  1.0000
  20  16  -8    2831     214                                                        6086   51.12    9.34  1.0000
  16   8 -20    3003     210                                                        6256   50.06   10.54  1.0000
  16   6 -20    7382     179                                                        5339   21.63   18.33  1.0000
  20  16  -6    6761     189                                                        4897   21.03   16.09  1.0000
  16   4 -20   17071     470                                                       17599   12.90   28.48  1.0000
  20  16  -4   17254     473                                                       17694   11.50   25.91  1.0000
  20  16  -2    7568     230                                                        7988    0.36   32.82  1.0000
  20 -16   2    7241     286                                                        7648    0.12   31.58  1.0000
  16   2 -20    7081     224                                                        7423    1.01   32.62  1.0000
  20  16   0    1898      99                                                         499  135.21   -1.50  1.0000
  16   0 -20    2221      85                                                         353  135.20    1.51  1.0000
  20 -16   0    2007     196                                                         427  134.27   -1.85  1.0000
  20 -16  -2    8195     304                                                        8696   -0.19  -33.13  1.0000
  20  16   2    7952     238                                                        8332    0.94  -32.44  1.0000
  20 -16  -4   16133     487                                                       16421   10.72  -27.06  1.0000
  20  16   4   16398     442                                                       16911   13.07  -29.12  1.0000
  20 -16  -6    5362     213                                                        3738   20.56  -16.36  1.0000
  20 -16  -8    3139     245                                                        6385   49.20  -10.83  1.0000
  20 -16 -10    4397     180                                                        3307  -28.64  -15.48  1.0000
  20 -16 -12    7208     266                                                        8537   20.75   12.97  1.0000
  20 -16 -14    3532     143                                                        2858   -7.48   37.79  1.0000
  20 -18  18    2616     198                                                        4316   31.93    0.78  1.0000
  20  18 -16    1404     193                                                        1901   -1.02   46.53  1.0000
  18 -14  20     789     115                                                         793   10.62   12.27  1.0000
  18  14 -20     974     157                                                         993   10.72   12.77  1.0000
  18 -12  20    2569     155                                                        3915  -23.06    8.12  1.0000
  18  12 -20    2431     173                                                        3694  -21.73    9.88  1.0000
  20  18 -10    4469     213                                                        4978  -10.46   -5.72  1.0000
  18  10 -20    4779     200                                                        5206   -9.06   -5.94  1.0000
  18   8 -20    5288     211                                                        6077   13.14  -26.58  1.0000
  20  18  -8    5192     217                                                        5930   12.62  -25.42  1.0000
  18   6 -20    3850     187                                                        5092   -1.70   30.81  1.0000
  20  18  -6    4262     194                                                        5657   -3.13   30.89  1.0000
  20  18  -4    4928     189                                                        5338  -33.26   13.42  1.0000
  18   4 -20    5154     186                                                        5631  -34.19   14.23  1.0000
  20  18  -2    3251     141                                                        3626   33.63    4.61  1.0000
  18   2 -20    3136     143                                                        3523   35.99    4.66  1.0000
  20 -18   2    3199     239                                                        3632   34.61    5.55  1.0000
  18   0 -20    3719     258                                                        8994   69.46    0.84  1.0000
  20 -18   0    3724     329                                                        8976   69.18    0.91  1.0000
  20  18   0    3728     257                                                        9022   69.59   -0.72  1.0000
  18  -2 -20    4373     160                                                        4845   33.74   -4.51  1.0000
  20  18   2    4421     159                                                        4968   35.72   -5.18  1.0000
  20 -18  -4    1621     210                                                        1695  -34.09  -12.99  1.0000
  20  18   4    1748      93                                                        1884  -34.62  -14.27  1.0000
  20 -18  -6    2618     232                                                        3711   -3.47  -30.63  1.0000
  20 -18  -8    2188     194                                                        2663   10.78   24.95  1.0000
  20 -18 -10    4583     217                                                        5050   -9.69    5.62  1.0000
  20 -18 -12    3519     196                                                        4954  -22.18   -4.90  1.0000
  20 -20  20   11894     249                                                        8031   29.53  -36.54  1.0000
  20 -18  20    3808     157                                                        3191   17.32   -6.49  1.0000
  20 -20  18    4090     185                                                        3454   17.51   -6.42  1.0000
  20 -16  20    2615     133                                                        1375   27.44   -9.48  1.0000
  20 -14  20      28     117                                                         342   21.08  -19.24  1.0000
  20  14 -20       4     159                                                         185   20.84  -20.10  1.0000
  20 -12  20    2767     129                                                        2216   10.55   23.90  1.0000
  20  12 -20    2697     161                                                        2187   11.65   24.39  1.0000
  20  10 -20     217     147                                                         130  -14.72   15.61  1.0000
  20  20 -10     256     152                                                         180  -14.34   16.00  1.0000
  20   8 -20    4660     151                                                        1950   60.83   24.50  1.0000
  20  20  -8    4435     156                                                        1774   60.95   23.61  1.0000
  20   6 -20    2779     151                                                        3006    2.53   26.36  1.0000
  20  20  -6    2995     153                                                        3219    3.40   28.01  1.0000
  20   4 -20     387     118                                                         542    6.61   -5.62  1.0000
  20  20  -4     390     122                                                         562    4.87   -7.01  1.0000
  20   2 -20   17609     392                                                       14033   28.89  -13.36  1.0000
  20 -20   2   17224     446                                                       13648   29.29  -10.99  1.0000
  20  20  -2   18697     392                                                       15070   28.36  -13.41  1.0000
  20   0 -20    2965     185                                                        5779   44.25   -1.01  1.0000
  20 -20   0    2798     276                                                        5495   43.55    0.24  1.0000
  20  20   0    2739     180                                                        5474   44.40    0.76  1.0000
  20  -2 -20   19470     431                                                       15764   28.37   13.80  1.0000
  20 -20  -2   19444     482                                                       15651   29.13   12.11  1.0000
  20  20   2   20478     428                                                       16616   28.84   12.99  1.0000
  20 -20  -4      60     219                                                         143    5.29    7.60  1.0000
  20  20   4      67      75                                                         142    6.49    6.22  1.0000
  20  -4 -20      58      86                                                         131    5.16    6.74  1.0000
  20 -20  -6    3969     235                                                        4306    2.12  -26.82  1.0000
  20 -20  -8    7002     212                                                        3694   61.57  -26.57  1.0000
  20 -20 -10     437     160                                                         370  -14.39  -15.65  1.0000
  21   1 -19    4985     167                                                        4213  -12.15    9.92  1.0000
  19  21  -1    4913     151                                                        4131  -13.94    9.91  1.0000
  21   1 -17   12948     318                                                       10885  -18.66    9.60  1.0000
  17  21  -1   13236     306                                                       11157  -18.63    8.92  1.0000
  15  21  -1    1935     116                                                        2412   -5.44   -9.45  1.0000
  21   1 -15    1731     141                                                        2219   -4.48  -10.50  1.0000
  21  -1  13     502      88                                                        1024   23.87  -13.63  1.0000
  21   1 -13     519     146                                                        1031   23.72  -13.06  1.0000
  21  -1  11   58638    1498                                                       58142   -1.92    1.57  1.0000
  21   1 -11   59850    1505                                                       59275   -2.07    2.86  1.0000
  21  -1   9    3828     139                                                        3723   -5.94   36.23  1.0000
  21   1  -7     748     126                                                        1119    7.92   10.03  1.0000
  21  -1   7     784     101                                                        1122    7.02    9.11  1.0000
  21  -1   5    6767     262                                                        9298   31.10   13.17  1.0000
  21  -1   3   36476     873                                                       33341  -20.17    0.77  1.0000
  21   1  -3   37362     875                                                       34373  -19.41    1.51  1.0000
  21   1  -1    1881     123                                                        2610  -10.55   22.44  1.0000
  21  -1   1    1887     123                                                        2586  -10.95   21.91  1.0000
 -21  -1   1    3083     228                                                        4023  -10.55  -22.44  1.0000
  21   1   1    2693     139                                                        3737  -12.30  -25.92  1.0000
  21  -1  -1    2791     146                                                        3830  -11.58  -25.29  1.0000
  21   1   3   28825     684                                                       26357  -17.11    0.61  1.0000
  21   1   5    5739     237                                                        8175   32.58  -13.35  1.0000
  21   1   7      13      83                                                          91    5.84  -10.77  1.0000
  21  -1  -7      29     121                                                         122    6.60   -9.72  1.0000
  21   1   9    5700     179                                                        5715   -4.94  -36.14  1.0000
  21  -1  -9    6186     213                                                        6140   -4.91  -32.33  1.0000
  21   1  11   67092    1690                                                       66205   -3.20   -2.79  1.0000
  21  -1 -13     129     132                                                         408   21.55   15.48  1.0000
  21  -1 -15    2845     154                                                        3449   -5.38   10.01  1.0000
  17  21   1   14379     330                                                       12159  -19.05   -9.60  1.0000
  21  -1 -17   14466     343                                                       12263  -18.88   -8.75  1.0000
  19  21   1    9170     236                                                        8115  -12.74   -9.92  1.0000
  21  -1 -19    9425     246                                                        8353  -13.91   -9.81  1.0000
  19 -21  -1    9013     308                                                        7904  -11.85  -10.76  1.0000
  21   3 -19    1167     127                                                        1166  -12.61   19.17  1.0000
  19  21  -3    1134     121                                                        1099  -13.44   18.63  1.0000
  21   3 -17     455     124                                                         696    9.32    6.27  1.0000
  17  21  -3     486     114                                                         765   11.91    5.89  1.0000
  21  -3  15   16800     449                                                       17119   -7.69   34.69  1.0000
  15  21  -3   16984     451                                                       17219   -8.16   33.95  1.0000
  21   3 -15   15929     463                                                       16132   -9.15   36.57  1.0000
  21  -3  13    2244     104                                                        1809    4.41   10.68  1.0000
  21   3 -13    2054     147                                                        1625    2.67   10.73  1.0000
  21  -3  11   10950     406                                                       15119  -36.43   14.17  1.0000
  21   3 -11   10991     415                                                       15155  -36.36   13.87  1.0000
  21  -3   9    1980     144                                                        3433   29.92  -33.04  1.0000
  21   3  -9    2398     165                                                        3974   32.71  -32.26  1.0000
  21  -3   7   45233    1311                                                       51131   22.52  -30.05  1.0000
  21  -3   5    3692     167                                                        4887  -13.63  -14.11  1.0000
  21  -3   3    3041     110                                                        1578    7.86   46.55  1.0000
  21   3  -3    3169     115                                                        1690    8.94   47.09  1.0000
  21  -3   1   23257     444                                                       16388  -55.98  -10.43  1.0000
  21   3  -1   23831     442                                                       16823  -56.29  -10.69  1.0000
  21  -3  -1   11243     207                                                        6466  -58.00   10.64  1.0000
  21   3   1   10710     196                                                        6299  -55.26    9.10  1.0000
  21   3   3    2356      97                                                        1146   10.33  -45.20  1.0000
  21  -3  -5    1838     145                                                        2759  -12.55   15.89  1.0000
  21   3   5    1651     110                                                        2510  -12.20   15.62  1.0000
  21   3   7   44776    1304                                                       51455   26.01   31.37  1.0000
  21  -3  -7   43568    1312                                                       50169   26.12   31.09  1.0000
  21  -3  -9     324     136                                                         687   34.13   33.40  1.0000
  21   3   9     281      80                                                         541   33.19   32.05  1.0000
  21  -3 -11   12462     474                                                       16872  -36.72  -10.03  1.0000
  21   3  11   13067     453                                                       17387  -35.14  -11.23  1.0000
  21  -3 -15   15185     423                                                       15411   -7.80  -33.37  1.0000
  17 -21  -3    1157     194                                                        1547   11.20   -5.49  1.0000
  21  -3 -17    1191     123                                                        1626   11.76   -6.35  1.0000
  21  -3 -19    1447     110                                                        1424  -13.30  -18.49  1.0000
  19 -21  -3    1298     211                                                        1285  -13.07  -18.84  1.0000
  21   5 -19    7146     261                                                        8186    2.76  -45.51  1.0000
  19  21  -5    7726     259                                                        8747    3.84  -45.91  1.0000
  21   5 -17    5233     182                                                        4085   19.16   18.19  1.0000
  17  21  -5    5523     167                                                        4251   20.53   17.30  1.0000
  21  -5  15    4360     137                                                        3500  -22.69  -21.43  1.0000
  21   5 -15    3721     170                                                        2994  -22.09  -23.86  1.0000
  15  21  -5    4106     146                                                        3304  -21.56  -20.45  1.0000
  21  -5  13    9960     291                                                       10344    0.17   -8.19  1.0000
  13  21  -5    9466     290                                                        9912    0.05   -9.96  1.0000
  21   5 -13   10061     308                                                       10475   -0.39   -9.82  1.0000
  21  -5  11    1818     114                                                        1045  -40.66   21.44  1.0000
  21   5 -11    1548     137                                                         833  -38.40   19.97  1.0000
  21   5  -9    3555     150                                                        2371   -5.30   32.77  1.0000
  21  -5   9    3694     129                                                        2470   -5.63   33.51  1.0000
  21  -5   7   18097     533                                                       20079    7.98   20.65  1.0000
  21  -5   5     894     115                                                        1004   -1.78   29.53  1.0000
  21   5  -5    1146     112                                                        1274   -1.38   27.35  1.0000
  21  -5   3    5052     178                                                        5202   -4.32    7.70  1.0000
  21  -5   1    5776     227                                                        7256   -5.23   43.14  1.0000
  21   5   3    3355     133                                                        3553   -5.42   -6.50  1.0000
  21  -5  -5    2339     143                                                        2510    0.74  -28.34  1.0000
  21   5   5    2217     109                                                        2385    0.28  -27.10  1.0000
  21  -5  -7   13763     435                                                       15345    7.72  -17.97  1.0000
  21   5   7   14537     419                                                       16101    6.88  -18.77  1.0000
  21  -5  -9    3643     159                                                        2448   -5.08  -32.45  1.0000
  21  -5 -11     494     134                                                          21  -37.76  -19.41  1.0000
  21  -5 -15    4166     153                                                        3335  -21.75   19.76  1.0000
  21  -5 -17    9060     222                                                        7416   20.83  -17.95  1.0000
  17 -21  -5    8111     274                                                        6665   19.33  -17.35  1.0000
  19 -21  -5    7269     299                                                        8320    3.22   46.60  1.0000
  21  -5 -19    7208     240                                                        8191    3.60   45.67  1.0000
  21   7 -19    1485     161                                                        2585   23.27   -9.94  1.0000
  19  21  -7    1680     150                                                        2778   22.56   -8.33  1.0000
  21  -7  17    5947     191                                                        5996   -1.80   23.60  1.0000
  21   7 -17    5982     223                                                        5989   -2.13   22.05  1.0000
  17  21  -7    5807     212                                                        5825   -1.98   22.20  1.0000
  21  -7  15    9016     285                                                       10034   -9.04   -8.90  1.0000
  21   7 -15    8525     302                                                        9516   -8.55  -11.08  1.0000
  15  21  -7    9017     284                                                       10016   -8.74   -9.31  1.0000
  21   7 -13   20817     605                                                       22570  -12.15   20.66  1.0000
  21  -7  13   21155     598                                                       22720  -10.75   21.07  1.0000
  21  -7  11    2869     129                                                        1796  -23.95  -15.55  1.0000
  21   7 -11    2666     148                                                        1743  -21.21  -15.33  1.0000
  21  -7   9   21110     612                                                       23123   -4.26  -37.15  1.0000
  21  -7   7   13871     415                                                       15173  -12.21   -5.42  1.0000
  21  -7   5    3126     151                                                        3082    4.68   -8.83  1.0000
  21   7  -5    3549     137                                                        3383    7.83  -10.45  1.0000
  21   7  -3   24302     601                                                       22800  -10.32   -1.15  1.0000
  21  -7   3   24560     608                                                       23215   -9.18   -1.09  1.0000
  21  -7   1     346     126                                                         445   10.12   28.79  1.0000
  21   7  -1     366      98                                                         441   11.73   29.05  1.0000
  21   7   1    1167     101                                                        1565   10.04  -29.57  1.0000
  21  -7  -3   28783     706                                                       27226   -9.40   -1.68  1.0000
  21   7   3   28054     695                                                       26640   -8.58   -2.03  1.0000
  21  -7  -5    3018     159                                                        2832    8.02    9.56  1.0000
  21   7   5    3094     116                                                        2931    6.66    7.79  1.0000
  21   7   7   18980     527                                                       20405  -11.67    6.40  1.0000
  21  -7  -7   18423     542                                                       19708  -10.77    6.23  1.0000
  21   7   9   17885     503                                                       19816   -4.57   38.63  1.0000
  21  -7  -9   16137     521                                                       17938   -4.33   38.86  1.0000
  21  -7 -11    2401     144                                                        1514  -21.61   16.48  1.0000
  13 -21  -7   19881     573                                                       21464  -11.24  -20.94  1.0000
  21  -7 -13   19318     567                                                       20858  -11.15  -17.27  1.0000
  15 -21  -7    5787     241                                                        6707  -10.18    9.61  1.0000
  21  -7 -17    4314     160                                                        4308   -2.06  -22.01  1.0000
  17 -21  -7    4345     216                                                        4362   -1.79  -22.85  1.0000
  19 -21  -7    1827     200                                                        3037   24.10    7.92  1.0000
  19  21  -9   13401     338                                                       12371    2.54   12.83  1.0000
  21   9 -19   11600     340                                                       10771    0.76   13.20  1.0000
  21  -9  17    1336     112                                                        1084  -18.11  -21.67  1.0000
  17  21  -9    1461     153                                                        1251  -18.34  -20.17  1.0000
  21   9 -17    1386     169                                                        1145  -18.23  -21.31  1.0000
  21  -9  15    5981     196                                                        5877   -0.38    1.36  1.0000
  15  21  -9    5734     208                                                        5595   -1.26    1.52  1.0000
  21  -9  13    1434     128                                                        1212    0.20   19.16  1.0000
  21   9 -13    1343     162                                                        1096    0.73   21.06  1.0000
  21  -9  11    5513     139                                                        1745  -60.94  -27.90  1.0000
  21   9 -11    5362     159                                                        1593  -63.59  -25.32  1.0000
  21  -9   9     581     153                                                        2664  -64.71   17.80  1.0000
  21  -9   7    9650     240                                                        7407  -17.64   23.51  1.0000
   9   7 -21    9238     206                                                        7051  -18.26   21.64  1.0000
  21   9  -7    9987     233                                                        7609  -18.88   23.34  1.0000
  21  -9   5    8515     267                                                        9318  -10.43   12.70  1.0000
  21   9  -5    8267     253                                                        8981   -9.47   11.55  1.0000
  21   9  -3     767     109                                                         631   10.12   15.93  1.0000
  21  -9   3     771     141                                                         667    8.43   14.95  1.0000
  21   9  -1   12367     384                                                       14317   -0.73  -47.49  1.0000
  21   9   1    7892     260                                                        9298    0.36   48.33  1.0000
  21  -9  -3     850     139                                                         705   10.16  -15.32  1.0000
  21   9   3     700      89                                                         563    9.50  -13.39  1.0000
  21   9   5   12369     344                                                       13119   -8.33  -11.68  1.0000
  21  -9  -5   11392     368                                                       12188   -8.99  -11.21  1.0000
  21  -9  -7   10765     282                                                        8400  -18.40  -21.13  1.0000
  21   9   7   11684     249                                                        9232  -18.02  -21.63  1.0000
  21  -9  -9    1876     206                                                        5268  -65.64  -17.72  1.0000
  21  -9 -11    3594     142                                                         753  -61.76   25.53  1.0000
  11 -21  -9    3825     120                                                         834  -62.56   26.11  1.0000
  13 -21  -9    2222     137                                                        1882    2.15  -19.14  1.0000
  21  -9 -13    1837     139                                                        1559    1.17  -19.17  1.0000
  15 -21  -9    5145     198                                                        5059   -1.67   -0.62  1.0000
  17 -21  -9    3215     175                                                        2917  -18.19   21.91  1.0000
  21  -9 -17    3312     134                                                        3081  -18.54   20.41  1.0000
  19 -21  -9    6649     237                                                        5995    0.66  -13.90  1.0000
  21 -11  19   10492     318                                                       11345  -11.24    7.73  1.0000
  19  21 -11   10810     341                                                       11611  -10.81    8.44  1.0000
  21  11 -19   10346     337                                                       11280  -11.64    6.16  1.0000
  21 -11  17    3634     162                                                        3875   -8.61    3.96  1.0000
  17  21 -11    3713     191                                                        3883   -6.17    2.80  1.0000
  21  11 -15     556     179                                                         718  -12.46   41.23  1.0000
  21 -11  15     560     137                                                         749  -10.53   40.59  1.0000
  21  11 -13    4532     225                                                        5346    8.31  -25.93  1.0000
  21 -11  13    4851     206                                                        5784    6.47  -25.84  1.0000
  21 -11  11   25288     907                                                       34762  -59.17   -0.93  1.0000
  11   9 -21   32908     963                                                       36754  -38.81  -33.94  1.0000
  21 -11   9   34694     975                                                       38563  -38.57  -34.60  1.0000
  21  11  -7    6442     193                                                        5229  -15.95   27.46  1.0000
  21 -11   7    6850     214                                                        5712  -14.47   27.04  1.0000
  11   7 -21    6687     172                                                        5534  -14.84   26.02  1.0000
  21 -11   5   30566     765                                                       28849    6.62  -23.53  1.0000
  21  11  -5   31738     754                                                       30053    6.47  -21.93  1.0000
  11   5 -21   30094     746                                                       28380    6.54  -24.48  1.0000
  21 -11   3    5361     276                                                        8265  -36.57    3.90  1.0000
  21  11  -3    5546     248                                                        8528  -37.03    3.63  1.0000
  21  11  -1    7557     192                                                        6271  -16.67  -11.78  1.0000
  21 -11  -1    7768     248                                                        6614  -14.71   11.20  1.0000
  21  11   1    7925     200                                                        6732  -15.22   13.19  1.0000
  21 -11  -3    5790     298                                                        8731  -36.13   -2.78  1.0000
  21  11   3    6221     254                                                        9231  -36.06   -1.89  1.0000
  21  11   5   33325     810                                                       31526    6.61   24.05  1.0000
  21 -11  -5   33116     830                                                       31367    6.77   21.10  1.0000
  21 -11  -7    7856     244                                                        6570  -15.46  -28.31  1.0000
  21  11   7    8318     196                                                        7027  -15.05  -25.75  1.0000
  21 -11  -9   41875    1195                                                       46153  -38.85   35.46  1.0000
  21 -11 -11   17754     681                                                       25640  -57.66    2.18  1.0000
  21 -11 -13    1802     142                                                        2243    9.01   25.80  1.0000
  19 -21 -11   10410     332                                                       11305  -11.65   -7.57  1.0000
  21 -13  19    5952     203                                                        6293  -12.72  -13.85  1.0000
  21  13 -19    5584     225                                                        5783  -11.10  -14.50  1.0000
  21  13 -17     998     167                                                         729   10.87   22.96  1.0000
  21 -13  17    1344     139                                                        1048   11.34   23.72  1.0000
  21 -13  15    8163     242                                                        6923   16.96   -3.43  1.0000
  21  13 -15    8224     259                                                        6951   17.80   -3.08  1.0000
  21 -13  13    9498     349                                                       12089   41.11   20.68  1.0000
  21  13 -13    8632     354                                                       11228   39.36   22.26  1.0000
  21 -13  11    6103     225                                                        5595   -4.58   29.65  1.0000
  13  11 -21    5925     198                                                        5462   -3.91   32.41  1.0000
  21  13  -9    7621     237                                                        7050   -0.62   11.83  1.0000
  21 -13   9    7716     255                                                        7015    0.78   12.54  1.0000
  13   9 -21    7341     215                                                        6759   -0.10   11.59  1.0000
  21 -13   7    2511     187                                                        2604   -3.55    1.09  1.0000
  13   7 -21    2308     119                                                        2463   -6.43    2.28  1.0000
  21  13  -7    2667     158                                                        2743   -3.00    1.06  1.0000
  21  13  -5    9628     310                                                       10659   -8.24  -20.57  1.0000
  21 -13   5   10453     341                                                       11559   -8.46  -20.95  1.0000
  13   5 -21    9597     297                                                       10740   -9.17  -22.05  1.0000
  21  13  -3    8596     225                                                        7753  -18.27  -25.67  1.0000
  13   3 -21    8237     213                                                        7368  -18.99  -26.23  1.0000
  21  13  -1   14701     397                                                       14789    1.30   42.03  1.0000
  21 -13  -1   18978     528                                                       19197    1.01  -43.56  1.0000
  21  13   1   18324     494                                                       18645    0.03  -42.44  1.0000
  21 -13  -3    6708     251                                                        6051  -16.63   25.37  1.0000
  21  13   3    6858     184                                                        6056  -18.70   25.76  1.0000
  21  13   5   10508     315                                                       11719   -9.25   22.27  1.0000
  21 -13  -5   10618     364                                                       11777   -9.18   18.73  1.0000
  21 -13  -7    2693     203                                                        2843   -4.39   -0.49  1.0000
  21 -13  -9    5839     217                                                        5240    1.33  -11.56  1.0000
  21 -13 -11    8689     271                                                        8100   -4.82  -29.34  1.0000
  21 -13 -13   17104     554                                                       20656   41.77  -20.63  1.0000
  21 -13 -15   10854     280                                                        9432   17.46    2.74  1.0000
  21 -15  19     766     134                                                         825  -10.60  -28.65  1.0000
  21  15 -19     571     158                                                         600  -11.22  -29.22  1.0000
  21 -15  17    4269     167                                                        3091  -19.07   -9.26  1.0000
  21  15 -17    4254     195                                                        3129  -19.80   -7.31  1.0000
  21 -15  15    3781     205                                                        4235   -0.73  -21.10  1.0000
  21  15 -15    3675     211                                                        4167   -2.25  -19.03  1.0000
  21 -15  13    5760     242                                                        6285    4.75  -27.33  1.0000
  15  13 -21    6172     227                                                        6600    6.98  -28.38  1.0000
  21 -15  11    7194     259                                                        6739  -14.82   28.89  1.0000
  15  11 -21    6986     223                                                        6387  -17.03   29.42  1.0000
  21  15  -9    3893     177                                                        3680   36.89   32.80  1.0000
  21 -15   9    3874     215                                                        3656   36.72   32.55  1.0000
  15   9 -21    4098     162                                                        3881   35.35   31.02  1.0000
  21  15  -7    1736     145                                                        1571   11.34    3.27  1.0000
  21 -15   7    2029     198                                                        1805   10.46    1.22  1.0000
  15   7 -21    1874     119                                                        1679   11.29    2.48  1.0000
  21  15  -5    4949     174                                                        4553   28.68  -20.03  1.0000
  15   5 -21    4994     165                                                        4668   26.98  -20.05  1.0000
  21 -15   5    5273     231                                                        4850   28.79  -19.69  1.0000
  15   3 -21   15191     392                                                       14511  -15.98   21.15  1.0000
  21  15  -3   15549     397                                                       14973  -16.10   23.51  1.0000
  21  15  -1    8148     262                                                        8640   -6.02   -8.42  1.0000
  15   1 -21    8948     254                                                        9404   -5.38   -8.42  1.0000
  21 -15   1    9126     322                                                        9649   -6.04   -8.35  1.0000
  21 -15  -1    9292     336                                                        9811   -6.01   10.04  1.0000
  21  15   1    9375     276                                                        9851   -5.48    8.44  1.0000
  21  15   3   15671     397                                                       14996  -15.89  -21.22  1.0000
  21 -15  -3   15714     443                                                       14987  -17.04  -22.61  1.0000
  21  15   5    2045      93                                                        1725   27.89   20.46  1.0000
  21 -15  -5    2074     203                                                        1804   26.89   21.15  1.0000
  21 -15  -7    2918     204                                                        2684   12.27   -3.25  1.0000
  21 -15  -9    5432     223                                                        5260   36.46  -31.86  1.0000
  21 -15 -11    2944     164                                                        2477  -16.67  -28.71  1.0000
  21 -15 -13    3474     172                                                        3823    5.59   28.38  1.0000
  21 -17  19    2341     170                                                        3418  -19.07   10.52  1.0000
  21 -17  17    7963     272                                                        8177   -3.31   -0.16  1.0000
  21  17 -17    8038     281                                                        8230   -3.21   -0.43  1.0000
  21  17 -15     526     190                                                         718    0.32   32.33  1.0000
  21 -17  15     409     172                                                         558    0.92   31.00  1.0000
  17 -13  21     445     112                                                        1103   33.62   15.20  1.0000
  21 -17  13     501     183                                                        1194   33.49   15.02  1.0000
  17  13 -21     392     153                                                         994   33.25   14.99  1.0000
  21 -17  11    1668     186                                                        1550   10.33   40.52  1.0000
  17  11 -21    1555     151                                                        1457    9.36   40.29  1.0000
  21  17 -11    1666     177                                                        1565    9.79   40.28  1.0000
  21 -17   9    3403     216                                                        3244    0.76    4.79  1.0000
  17   9 -21    3109     154                                                        2963    0.69    4.68  1.0000
  21  17  -9    3015     177                                                        2910   -0.10    4.63  1.0000
  21 -17   7   10834     376                                                       11586    0.61  -38.34  1.0000
  17   7 -21   10982     324                                                       11639   -0.03  -36.61  1.0000
  21  17  -7   10541     330                                                       11229    0.24  -37.75  1.0000
  17   5 -21     244     106                                                         206    0.45   27.25  1.0000
  21  17  -5     324     114                                                         334    0.07   25.62  1.0000
  21  17  -3    9075     231                                                        7597    4.38   16.03  1.0000
  17   3 -21    9492     228                                                        7860    4.81   17.34  1.0000
  21  17  -1    1233     109                                                        1120   -3.08    5.10  1.0000
  17   1 -21    1128      96                                                        1065   -1.58    6.05  1.0000
  21 -17   1    1267     210                                                        1102   -4.54    6.65  1.0000
  21 -17  -1    2523     222                                                        2369   -2.89   -7.20  1.0000
  21  17   1    2543     111                                                        2440   -1.82   -7.07  1.0000
  21 -17  -3    7289     272                                                        5935    2.53  -17.02  1.0000
  21  17   3    7789     188                                                        6343    4.62  -17.06  1.0000
  21 -17  -5    1778     216                                                        2011    0.66  -25.91  1.0000
  21  17   5    1862      98                                                        2121    0.76  -27.40  1.0000
  21 -17  -7   10669     358                                                       11138   -1.86   37.16  1.0000
  21 -17  -9    1313     173                                                        1278   -1.00   -4.14  1.0000
  21 -17 -11    1110     150                                                         958    9.15  -40.23  1.0000
  21 -17 -13     477     134                                                        1114   33.88  -13.51  1.0000
  19 -19  21    2391     141                                                        2193   -1.43    5.61  1.0000
  19 -21  19    2531     166                                                        2328   -1.26    5.50  1.0000
  21 -19  19    2512     148                                                        2309   -1.60    5.69  1.0000
  19 -17  21     737     125                                                         894   14.28  -10.18  1.0000
  21 -19  17     820     164                                                         994   14.55  -10.36  1.0000
  19 -15  21    8175     243                                                        7640   -6.23   -9.31  1.0000
  21 -19  15    9330     283                                                        8747   -6.33   -8.57  1.0000
  21 -19  13    3695     213                                                        3297    8.19  -35.53  1.0000
  19 -13  21    3866     144                                                        3470    8.27  -35.52  1.0000
  19  13 -21    3631     173                                                        3238    7.73  -33.96  1.0000
  21  19 -11     329     166                                                         362  -12.20    0.74  1.0000
  19  11 -21     419     146                                                         444  -11.76    1.51  1.0000
  21  19  -9    7251     242                                                        7548    4.47   -5.13  1.0000
  19   9 -21    6215     229                                                        6496    4.58   -5.35  1.0000
  19   7 -21   25896     734                                                       28275    9.93  -40.70  1.0000
  21 -19   7   25768     761                                                       27977    8.98  -40.27  1.0000
  21  19  -7   25382     734                                                       27796   10.36  -40.37  1.0000
  19   5 -21     434     117                                                        1042   15.87   36.39  1.0000
  21  19  -5     474     128                                                        1102   17.27   36.67  1.0000
  19   3 -21    7840     178                                                        5418   -5.09  -38.70  1.0000
  21 -19   3    7116     269                                                        4873   -6.03  -38.25  1.0000
  21  19  -3    7462     177                                                        5114   -5.27  -38.59  1.0000
  21  19  -1     274     102                                                          13  -29.54    1.58  1.0000
  21 -19   1     304     213                                                          35  -27.79    1.83  1.0000
  19   1 -21     415      90                                                          89  -28.73    1.04  1.0000
  19  -1 -21     999      88                                                         472  -29.45   -1.84  1.0000
  21 -19  -1    1117     230                                                         568  -29.13   -1.77  1.0000
  21  19   1    1061      95                                                         546  -28.31   -1.21  1.0000
  21 -19  -3    6808     259                                                        4623   -5.72   37.93  1.0000
  21  19   3    6830     148                                                        4560   -5.54   39.27  1.0000
  21 -19  -5     869     219                                                        1768   18.05  -36.87  1.0000
  21 -19  -7   33553     954                                                       36039    8.48   40.70  1.0000
  21 -19  -9    8206     296                                                        8690    5.95    2.70  1.0000
  21 -19 -11    1711     169                                                        1798  -10.94   -1.10  1.0000
  21 -21  21    2202     128                                                        2742  -15.01   27.46  1.0000
  21 -19  21    6249     192                                                        5766   -7.68    4.82  1.0000
  21 -21  19    6409     209                                                        5907   -7.83    4.72  1.0000
  19 -21  21    6318     200                                                        5830   -7.77    5.03  1.0000
  21 -17  21   16988     443                                                       16171   -6.91   18.66  1.0000
  21 -21  17   17900     459                                                       17069   -6.87   18.71  1.0000
  21 -21  15    3533     210                                                        3778    0.74   -8.59  1.0000
  21 -15  21    3199     143                                                        3439    0.80   -8.87  1.0000
  21 -21  13    2717     196                                                        1944   16.47   -0.51  1.0000
  21  13 -21    2259     149                                                        1522   17.50   -1.23  1.0000
  21 -21  11   13066     408                                                       12828   -2.02   -1.13  1.0000
  21  21 -11   13553     375                                                       13224   -2.55   -3.08  1.0000
  21  11 -21   13480     373                                                       13201   -2.05   -3.49  1.0000
  21  21  -9    1523     153                                                        1446  -26.49  -19.48  1.0000
  21   9 -21    1322     129                                                        1232  -26.54  -19.53  1.0000
  21   7 -21    1034     136                                                        1442   -8.12  -17.56  1.0000
  21  21  -7    1023     143                                                        1444   -8.49  -17.71  1.0000
  21   5 -21    2396     138                                                        2590  -25.79   16.65  1.0000
  21  21  -5    2351     144                                                        2556  -25.08   16.76  1.0000
  21 -21   3   19523     583                                                       20800    8.58  -23.28  1.0000
  21  21  -3   18996     533                                                       20129    7.69  -22.72  1.0000
  21   3 -21   18817     535                                                       20018    8.22  -22.82  1.0000
  21   1 -21    6856     181                                                        5214  -20.49   -7.95  1.0000
  21 -21   1    6867     267                                                        5338  -19.09   -6.75  1.0000
  21  21  -1    7374     181                                                        5819  -18.61   -6.87  1.0000
  21  -1 -21    4954     139                                                        3695  -18.54    7.28  1.0000
  21 -21  -1    4976     246                                                        3721  -18.24    8.07  1.0000
  21  21   1    5065     137                                                        3666  -20.59    7.75  1.0000
  21 -21  -3   13627     457                                                       14747    9.23   20.97  1.0000
  21  21   3   13938     395                                                       14941    8.07   23.42  1.0000
  21 -21  -5     909     209                                                         922  -25.50  -15.94  1.0000
  21 -21  -7    1126     190                                                        1546   -8.22   16.55  1.0000
  21 -21  -9    1124     163                                                        1016  -25.69   19.07  1.0000
  21 -21 -11   13436     379                                                       13267   -1.26    1.95  1.0000
  22   0   0  114021    3594                                                      141352   78.57   -1.66  1.0000
  22   0   2    3635     129                                                        2537   20.35    0.93  1.0000
  22   0  -2    3354     134                                                        2280   20.86   -0.47  1.0000
  22   0   4     827     100                                                         777   -1.84   -0.06  1.0000
  22   0   6   12723     416                                                       16070   28.64   -3.42  1.0000
  22   0  -6   11574     424                                                       14731   28.29    0.02  1.0000
  22   0   8   13662     331                                                       12051  -14.58    0.41  1.0000
  22   0  10    6519     206                                                        6904   -4.83   -0.67  1.0000
  22   0  12   13293     411                                                       15143  -15.93    0.24  1.0000
  22   0 -12   13947     429                                                       15751  -15.19   -0.32  1.0000
  22   0 -14   24562     685                                                       25938    8.88   -1.53  1.0000
  22   0 -16     406     137                                                         162   15.25    0.56  1.0000
  22   0 -18    3074     155                                                        3339    4.82   -0.23  1.0000
  22   0 -20    2163     145                                                        3494   25.86    0.71  1.0000
  20 -22   0    2288     240                                                        3667   26.12    0.28  1.0000
  20 -22   2    4458     263                                                        4430    3.89  -26.67  1.0000
  20  22  -2    4026     157                                                        4059    2.98  -27.65  1.0000
  22   2 -20    4142     164                                                        4118    4.69  -30.58  1.0000
  22   2 -18    2510     167                                                        3631   11.27   17.80  1.0000
  18  22  -2    2630     148                                                        3826   11.12   18.78  1.0000
  22   2 -16    1596     145                                                        1356    0.22  -12.02  1.0000
  22  -2  14    2726     140                                                        3937   18.41   14.97  1.0000
  22   2 -14    2477     183                                                        3696   19.39   15.20  1.0000
  22   2 -12   13652     324                                                       10677  -24.34  -16.09  1.0000
  22  -2  12   14457     309                                                       11369  -24.08  -16.55  1.0000
  22  -2  10   10184     332                                                       12300   10.65   55.71  1.0000
  22   2 -10    9637     346                                                       11508    8.58   57.25  1.0000
  22  -2   8    7743     194                                                        6029  -49.20   -0.58  1.0000
  22  -2   6    1263     107                                                        1032    7.76    9.53  1.0000
  22  -2   4    2612     128                                                        2403   -5.92   24.30  1.0000
  22   2  -4    2767     139                                                        2517   -6.56   23.34  1.0000
  22  -2   2   15561     291                                                       10148   58.15  -16.08  1.0000
  22   2  -2   15760     292                                                       10247   59.32  -17.21  1.0000
  22   2   0     316     101                                                          63   20.27   -1.18  1.0000
  22  -2   0     327     110                                                          69   19.99   -1.18  1.0000
  22   2   2   14953     263                                                        9481   60.31   16.62  1.0000
  22  -2  -2   13938     272                                                        8922   57.13   16.23  1.0000
  22   2   4    3196     133                                                        3154   -2.30  -22.06  1.0000
  22  -2  -6    1280     136                                                        1093    6.98   -7.75  1.0000
  22   2   6    1378     103                                                        1236    9.53   -7.05  1.0000
  22  -2  -8   10443     280                                                        8667  -44.83    0.80  1.0000
  22   2   8   11054     257                                                        9164  -46.16    0.46  1.0000
  22   2  10    6271     225                                                        7724   10.07  -54.03  1.0000
  22   2  12   14593     312                                                       11423  -23.94   17.46  1.0000
  22  -2 -14    2893     178                                                        4028   16.83  -14.05  1.0000
  22  -2 -16    2204     140                                                        1879    0.44   13.96  1.0000
  18 -22  -2    1176     214                                                        1940    9.58  -17.65  1.0000
  22  -2 -18    1155     132                                                        1973   10.70  -18.69  1.0000
  22  -2 -20    1242     107                                                        1164    3.30   27.73  1.0000
  20 -22  -2    1388     222                                                        1271    4.69   29.43  1.0000
  20  22  -4    2147     117                                                        1194   21.99  -26.54  1.0000
  22   4 -20    1914     123                                                        1054   20.70  -26.87  1.0000
  22   4 -18   13759     434                                                       15518   13.75   -7.26  1.0000
  18  22  -4   14005     424                                                       15801   13.82   -7.77  1.0000
  22   4 -16    3046     164                                                        2527    6.87    9.59  1.0000
  22  -4  14    6063     193                                                        5903   -3.47  -13.91  1.0000
  22   4 -14    6507     225                                                        6233   -3.23  -17.29  1.0000
  22  -4  12    1785     106                                                         811  -25.67   12.21  1.0000
  22   4 -12    1919     142                                                         940  -25.96    9.53  1.0000
  22  -4  10   10517     311                                                       11113   -3.43   22.19  1.0000
  22   4 -10   10322     330                                                       10871   -1.85   17.83  1.0000
  22  -4   8   15094     426                                                       16067    2.84   26.51  1.0000
  22   4  -8   14437     432                                                       15276    3.47   25.74  1.0000
  22  -4   6   18658     504                                                       18927   -2.53   -2.94  1.0000
  22  -4   4   52318    1196                                                       46488  -31.65    8.69  1.0000
  22  -4   2     145     112                                                         405  -63.15   14.47  1.0000
  22  -4   0    1569     124                                                        1268   -8.20    0.69  1.0000
  22   4   0    1550     114                                                        1270   -7.66   -1.13  1.0000
  22   4   2      37     106                                                        1208  -64.24  -12.11  1.0000
  22  -4  -4   37489     907                                                       33095  -28.75   -9.41  1.0000
  22   4   4   40777     901                                                       36160  -28.58   -8.43  1.0000
  22  -4  -6   15839     449                                                       16155   -3.43    5.02  1.0000
  22   4   6   16067     434                                                       16355   -3.21    5.20  1.0000
  22   4   8   15963     442                                                       16603    5.30  -24.95  1.0000
  22  -4  -8   15977     460                                                       16687    5.34  -26.34  1.0000
  22  -4 -10   10217     337                                                       10830   -1.46  -18.56  1.0000
  22   4  10   11237     313                                                       11739   -1.65  -15.72  1.0000
  22  -4 -14    7513     240                                                        7320   -2.41   11.80  1.0000
  16 -22  -4    1323     193                                                        1013    7.27   -6.60  1.0000
  22  -4 -16    1809     126                                                        1431    6.62   -8.88  1.0000
  22  -4 -18   20246     570                                                       22402   13.87    7.75  1.0000
  18 -22  -4   17797     595                                                       19770   13.32    8.55  1.0000
  22  -4 -20    1793      96                                                         923   21.95   26.68  1.0000
  20 -22  -4    1850     214                                                         989   21.16   26.93  1.0000
  22   6 -20    2759     156                                                        3014   -7.16  -33.34  1.0000
  20  22  -6    3015     155                                                        3325   -7.78  -31.95  1.0000
  22   6 -18     565     147                                                        1145   27.98    5.28  1.0000
  18  22  -6     546     140                                                        1129   27.42    6.22  1.0000
  22   6 -16    3594     180                                                        3000   30.95   -3.65  1.0000
  22  -6  16    4183     135                                                        3592   31.77   -2.90  1.0000
  22  -6  14   31577     809                                                       31219   -1.63   -1.30  1.0000
  22   6 -14   31536     819                                                       31026   -0.96   -3.16  1.0000
  22  -6  12   12428     308                                                       10795   16.69    2.51  1.0000
  22   6 -12   12134     325                                                       10342   18.43    2.03  1.0000
  22  -6  10    3115     132                                                        1558   35.27   12.68  1.0000
  22   6 -10    3059     142                                                        1459   36.92   12.89  1.0000
  22  -6   8    6600     197                                                        5474  -13.96    5.93  1.0000
  22  -6   6    4121     160                                                        3733   -2.29    6.00  1.0000
  22   6  -6    3978     166                                                        3654   -1.23    5.49  1.0000
  22  -6   4      20     123                                                         150  -15.93    1.24  1.0000
  22   6  -4      31     115                                                         163  -14.82   -0.84  1.0000
  22   6  -2   14586     325                                                       11157   30.47   51.48  1.0000
  22  -6   2   15816     333                                                       12487   28.31   50.19  1.0000
  22  -6   0   12662     423                                                       14749   18.29   -0.52  1.0000
  22   6   0   13533     413                                                       15832   19.47   -0.09  1.0000
  22  -6  -4     508     137                                                         922  -15.97   -2.04  1.0000
  22  -6  -6    3073     170                                                        2720   -0.59   -7.44  1.0000
  22  -6  -8    7070     216                                                        5803  -15.38   -5.69  1.0000
  22   6   8    7552     184                                                        6284  -15.04   -4.52  1.0000
  22  -6 -10    2636     159                                                        1174   36.86  -13.68  1.0000
  22  -6 -12   11418     304                                                        9869   16.46   -2.20  1.0000
  14 -22  -6   19260     521                                                       18838   -4.63   -0.04  1.0000
  16 -22  -6    4631     210                                                        3938   30.07    4.47  1.0000
  22  -6 -16    4625     169                                                        3971   31.96    3.57  1.0000
  18 -22  -6    2300     213                                                        3462   27.83   -5.81  1.0000
  22  -6 -18    2452     144                                                        3658   27.82   -5.97  1.0000
  20 -22  -6    1754     204                                                        1945   -8.13   31.66  1.0000
  22   8 -20     612     132                                                         678    8.39    4.84  1.0000
  20  22  -8     582     141                                                         665    7.58    5.42  1.0000
  22   8 -18     196     150                                                         162   37.42   11.97  1.0000
  18  22  -8     301     140                                                           9   37.44   12.48  1.0000
  22  -8  16   11238     303                                                       10980   -3.26   15.23  1.0000
  22   8 -16   10169     329                                                        9897   -3.03   15.34  1.0000
  22  -8  14    5474     206                                                        6223    8.96   -7.13  1.0000
  22   8 -14    4848     240                                                        5635   10.16   -6.69  1.0000
  22  -8  12    3985     171                                                        3992   -0.87   -5.81  1.0000
  22   8 -12    4166     204                                                        4112   -0.08   -7.30  1.0000
  22  -8  10    4751     151                                                        2789   33.01   26.43  1.0000
  22   8 -10    4341     165                                                        2466   33.18   27.83  1.0000
  22  -8   8     689     152                                                        2033  -21.82   40.61  1.0000
  22  -8   6    4035     181                                                        4492  -10.28    5.04  1.0000
  22   8  -6    3995     176                                                        4317   -9.80    3.04  1.0000
  22   8  -4     606     130                                                        1540  -14.99   26.21  1.0000
  22  -8   4     603     143                                                        1570  -16.05   26.74  1.0000
  22   8  -2   14838     489                                                       18727  -31.67   -5.45  1.0000
  22  -8   2   13930     500                                                       17796  -32.09   -2.81  1.0000
  22   8   0   35319     819                                                       31697  -20.30   -0.60  1.0000
  22   8   2   15923     510                                                       19921  -31.28    3.31  1.0000
  22  -8  -2   14552     524                                                       18395  -31.56    5.16  1.0000
  22   8   4     969     107                                                        2143  -14.10  -27.80  1.0000
  22  -8  -4     897     163                                                        2067  -14.18  -28.57  1.0000
  22   8   6    3046     124                                                        3339   -8.40   -3.61  1.0000
  22  -8  -6    2939     185                                                        3229   -8.96   -3.53  1.0000
  22  -8  -8      81     155                                                         398  -21.04  -39.09  1.0000
  22   8   8      89      76                                                         454  -22.37  -39.63  1.0000
  22  -8 -10    3729     167                                                        1926   34.75  -25.69  1.0000
  12 -22  -8    4189     178                                                        4188   -0.88    6.94  1.0000
  22  -8 -12    3697     183                                                        3683   -0.59    6.41  1.0000
  14 -22  -8    5960     241                                                        6847   10.28    7.21  1.0000
  16 -22  -8   12165     346                                                       11894   -2.98  -14.66  1.0000
  22  -8 -16   11466     324                                                       11203   -3.25  -15.34  1.0000
  18 -22  -8     392     171                                                         733   37.73  -11.77  1.0000
  22  -8 -18     370     100                                                         696   37.21  -12.35  1.0000
  20 -22  -8    1804     184                                                        1953    8.08   -5.32  1.0000
  22  10 -20    2901     171                                                        3501  -10.62   -9.51  1.0000
  22 -10  18    9291     328                                                       11683   17.78   16.32  1.0000
  22  10 -18    9094     347                                                       11577   18.76   16.84  1.0000
  22  10 -16    1618     176                                                        2420  -26.75  -16.53  1.0000
  22 -10  16    1586     138                                                        2402  -26.41  -14.42  1.0000
  22  10 -14    2914     190                                                        2638    7.86    8.37  1.0000
  22 -10  14    3205     161                                                        2963    5.84    4.58  1.0000
  22 -10  12    5848     173                                                        3447   23.35  -28.07  1.0000
  22  10 -12    5627     192                                                        3246   24.65  -27.61  1.0000
  22 -10  10    8345     324                                                       10848    9.12  -28.22  1.0000
  22 -10   8   14010     367                                                       13215   -4.05   29.25  1.0000
  22  10  -8   12705     360                                                       11952   -4.15   29.20  1.0000
  22  10  -6   13065     276                                                        9733   35.20  -18.11  1.0000
  10   6 -22   12279     253                                                        9001   35.89  -18.92  1.0000
  22 -10   6   12826     291                                                        9523   35.06  -17.14  1.0000
  22 -10   4   11061     315                                                        9919   -7.50   11.43  1.0000
  22  10  -4   11039     288                                                       10046   -5.75   11.69  1.0000
  22 -10   2    3641     166                                                        2011   37.26  -13.85  1.0000
  22  10  -2    3820     117                                                        2157   36.69  -12.74  1.0000
  22  10   0     566     102                                                        1210   22.56    0.15  1.0000
  22 -10  -2    4407     198                                                        2635   36.97   14.94  1.0000
  22  10   2    4255     119                                                        2512   37.70   16.83  1.0000
  22  10   4   16078     392                                                       14873   -6.42  -10.20  1.0000
  22 -10  -4   15506     426                                                       14282   -6.93   -9.90  1.0000
  22 -10  -6   14590     341                                                       10979   35.81   16.85  1.0000
  22  10   6   14591     299                                                       11020   35.74   18.75  1.0000
  22  10   8    9425     237                                                        8692   -2.40  -26.45  1.0000
  22 -10  -8    8692     281                                                        8050   -3.24  -26.50  1.0000
  22 -10 -10   10799     396                                                       13686    8.72   29.30  1.0000
  22 -10 -12    6710     187                                                        4023   26.34   27.30  1.0000
  22 -10 -14    2747     154                                                        2494    6.94   -6.28  1.0000
  16 -22 -10    1891     161                                                        2732  -25.75   15.67  1.0000
  22 -10 -16    1702     135                                                        2524  -26.21   15.31  1.0000
  18 -22 -10    5702     257                                                        7596   17.98  -15.85  1.0000
  20 -22 -10    1753     164                                                        2161   -9.28   10.30  1.0000
  22  12 -20    4343     185                                                        3585    3.00   22.27  1.0000
  22 -12  18    1525     127                                                        1774    9.46   16.03  1.0000
  22  12 -18    1470     171                                                        1761   10.46   14.84  1.0000
  22 -12  16    2038     150                                                        2252   -8.82   16.98  1.0000
  22  12 -16    1878     192                                                        2087   -8.80   15.99  1.0000
  22  12 -14    3516     213                                                        3740   11.24    2.43  1.0000
  22 -12  14    4059     191                                                        4284   11.07    2.64  1.0000
  22 -12  12    2561     175                                                        2202    5.11    9.85  1.0000
  22 -12  10    9074     358                                                       11845   31.32   -4.41  1.0000
  22  12  -8    2530     161                                                        2419   -4.34    0.96  1.0000
  22 -12   8    2322     182                                                        2199   -4.65    0.75  1.0000
  12   8 -22    2278     111                                                        2145   -5.85    1.53  1.0000
  22  12  -6    4338     166                                                        3660   11.01   -0.63  1.0000
  22 -12   6    4792     205                                                        4128   10.21   -0.56  1.0000
  12   6 -22    4513     136                                                        3872   10.15   -0.73  1.0000
  22 -12   4   10317     280                                                        8147  -22.40  -20.40  1.0000
  22  12  -4    9746     235                                                        7699  -21.68  -20.66  1.0000
  22  12  -2   21564     616                                                       23623  -13.13    5.00  1.0000
  22 -12   0     540     184                                                        1017  -17.75   -0.11  1.0000
  22  12   0     600     108                                                        1087  -17.39    0.17  1.0000
  22 -12  -2   22538     638                                                       24588  -13.48   -3.03  1.0000
  22  12   2   20845     608                                                       22900  -13.82   -3.74  1.0000
  22 -12  -4   10765     288                                                        8434  -23.68   19.20  1.0000
  22  12   4   10162     229                                                        7894  -23.71   20.37  1.0000
  22 -12  -6    4850     214                                                        4220    9.78   -0.95  1.0000
  22  12   6    4783     137                                                        4126   10.02    1.39  1.0000
  22 -12  -8    5317     225                                                        5190   -4.22   -1.47  1.0000
  22 -12 -10    6675     300                                                        9186   33.20    5.96  1.0000
  22 -12 -12    1735     155                                                        1434    6.52  -10.56  1.0000
  22 -12 -14    3325     166                                                        3494   11.66   -3.71  1.0000
  22 -14  20     791     104                                                         563    5.73   -7.15  1.0000
  22  14 -20     611     146                                                         407    6.41   -6.80  1.0000
  22 -14  18     174     125                                                         180   -0.55   -7.99  1.0000
  22  14 -18     181     160                                                         193   -0.93   -6.76  1.0000
  22 -14  16    5673     229                                                        6746  -13.36   -8.89  1.0000
  22  14 -16    4582     246                                                        5557  -13.54   -8.07  1.0000
  22 -14  14    7264     285                                                        8761   -7.99  -49.66  1.0000
  22  14 -14    7481     298                                                        8887   -8.06  -47.28  1.0000
  22 -14  12    7810     297                                                        9001   -9.55  -14.73  1.0000
  22 -14  10   24830     554                                                       20812   25.25  -17.52  1.0000
  14  10 -22   24222     533                                                       20442   24.19  -15.18  1.0000
  22  14  -8      71     139                                                         199   10.87   -5.68  1.0000
  22 -14   8      29     180                                                         133   12.01   -4.51  1.0000
  14   8 -22      19     110                                                         109   11.84   -5.40  1.0000
  22  14  -6    2117     143                                                        1785   24.42    4.09  1.0000
  22 -14   6    1946     194                                                        1627   23.91    4.08  1.0000
  14   6 -22    1976     103                                                        1656   23.99    4.09  1.0000
  22  14  -4    1267     134                                                        2052  -16.79  -12.77  1.0000
  22 -14   4    1300     210                                                        2092  -16.54  -13.35  1.0000
  14   4 -22    1168      98                                                        1936  -17.25  -12.27  1.0000
  22  14  -2    8753     166                                                        4442   57.04   -7.56  1.0000
  22  14   0   47130    1194                                                       46477   -3.10    0.17  1.0000
  22 -14   0   47253    1218                                                       46680   -2.71    1.11  1.0000
  22  14   2    8184     144                                                        4074   56.06    5.16  1.0000
  22 -14  -2    8406     232                                                        4135   57.83    6.55  1.0000
  22 -14  -4    1476     217                                                        2347  -17.43   12.93  1.0000
  22  14   4    1530     110                                                        2394  -17.27   12.04  1.0000
  22  14   6    1401      82                                                        1106   24.52   -4.05  1.0000
  22 -14  -6    1526     201                                                        1223   23.01   -3.53  1.0000
  22 -14  -8      19     179                                                         117   12.85    5.32  1.0000
  22 -14 -10   29343     680                                                       25219   23.56   17.79  1.0000
  22 -14 -12    3278     191                                                        4068   -9.27   16.63  1.0000
  22 -14 -14   12356     400                                                       14325   -8.56   48.60  1.0000
  22 -16  20    6107     192                                                        5473    6.71   17.45  1.0000
  20 -22  16    6638     228                                                        5964    7.01   16.23  1.0000
  22 -16  18    1417     152                                                        1825   11.94   -3.61  1.0000
  22  16 -18    1285     179                                                        1702   13.95   -2.70  1.0000
  22 -16  16     974     164                                                        1354   -7.86   -8.77  1.0000
  22  16 -16    1149     184                                                        1566   -8.14   -8.67  1.0000
  22 -16  14    2746     197                                                        3149  -10.28   48.18  1.0000
  22 -16  12     624     183                                                         364  -12.20    0.08  1.0000
  16  12 -22     641     133                                                         378  -12.07   -0.45  1.0000
  22 -16  10    2345     205                                                        2501    1.20   -4.00  1.0000
  16  10 -22    2472     150                                                        2628    0.29   -5.17  1.0000
  22  16 -10    2450     174                                                        2562   -1.01   -5.50  1.0000
  22  16  -8    7412     207                                                        5039  -35.66    7.09  1.0000
  22 -16   8    7342     245                                                        4992  -35.74    6.77  1.0000
  16   8 -22    7870     187                                                        5443  -35.12    7.19  1.0000
  22  16  -6    2300     136                                                         964  -23.41  -28.10  1.0000
  22 -16   6    2446     222                                                        1049  -22.01  -28.93  1.0000
  16   6 -22    2399     108                                                        1039  -22.96  -27.93  1.0000
  22  16  -4    2076     146                                                        2963  -17.51   12.28  1.0000
  16   4 -22    2286     130                                                        3294  -18.82   13.55  1.0000
  16   2 -22    7185     198                                                        6664   15.68  -23.44  1.0000
  22 -16   2    7250     292                                                        6882   13.66  -23.56  1.0000
  22  16  -2    7171     209                                                        6776   15.28  -26.40  1.0000
  22  16   0     232     104                                                         319    5.41   -0.40  1.0000
  22 -16   0     350     221                                                         455    5.31    2.95  1.0000
  22  16   2    8342     229                                                        7803   15.55   23.38  1.0000
  22 -16  -2    8165     306                                                        7826   14.24   26.07  1.0000
  22 -16  -4    2106     221                                                        3074  -19.05  -10.64  1.0000
  22  16   4    2372     127                                                        3387  -18.61  -13.70  1.0000
  22 -16  -6    3079     207                                                        1497  -23.48   27.99  1.0000
  22 -16  -8    8674     255                                                        6073  -36.23   -6.95  1.0000
  22 -16 -10    3319     204                                                        3515    0.88    4.79  1.0000
  22 -16 -12     762     143                                                         446  -13.27    0.86  1.0000
  22 -16 -14    1304     136                                                        1392   -9.81  -48.11  1.0000
  22 -18  20    1035     116                                                         752   -0.94   16.07  1.0000
  18 -20  22    1247     126                                                         930   -0.39   15.88  1.0000
  20 -22  18    1117     157                                                         831   -1.05   15.81  1.0000
  22 -18  18   22777     704                                                       27056   22.60  -25.26  1.0000
  18 -18  22   22095     699                                                       26316   22.64  -25.20  1.0000
  22 -18  16    2959     185                                                        3305   28.91  -18.13  1.0000
  18 -16  22    2725     145                                                        3043   28.74  -18.02  1.0000
  22  18 -16    2781     186                                                        2996   29.11  -16.03  1.0000
  22 -18  14   13649     352                                                       11298   12.96   27.20  1.0000
  22 -18  12    1125     210                                                        1479   -5.47   -8.77  1.0000
  18  12 -22    1201     143                                                        1558   -5.51   -8.43  1.0000
  22  18 -12    1286     179                                                        1684   -6.19   -8.81  1.0000
  22 -18  10    2925     230                                                        4035   18.88    7.85  1.0000
  18  10 -22    2739     168                                                        3841   19.42    6.28  1.0000
  22  18 -10    2876     189                                                        3943   18.45    6.04  1.0000
  18   8 -22   12697     406                                                       14717  -17.56    4.00  1.0000
  22  18  -8   12403     412                                                       14476  -18.19    4.44  1.0000
  22 -18   6    1050     231                                                         991    6.55   31.98  1.0000
  18   6 -22    1228     113                                                        1183    6.68   32.02  1.0000
  22  18  -6    1285     139                                                        1247    6.59   31.71  1.0000
  18   4 -22   21177     558                                                       21213    2.96   18.84  1.0000
  22  18  -4   21280     563                                                       21321    2.89   18.04  1.0000
  22  18  -2     555     112                                                         404    1.10  -15.51  1.0000
  22 -18   2     538     223                                                         399    1.25  -13.18  1.0000
  18   2 -22     581      88                                                         420    2.21  -12.82  1.0000
  22 -18   0    3231     252                                                        3819   10.18    0.57  1.0000
  22  18   0    2899     142                                                        3487   10.69    0.10  1.0000
  22 -18  -2     824     226                                                         675    0.57   12.97  1.0000
  22  18   2     812      96                                                         622    2.46   12.45  1.0000
  22 -18  -4   29893     808                                                       30025    3.63  -20.74  1.0000
  22  18   4   29816     770                                                       29857    2.87  -19.00  1.0000
  22 -18  -6    2984     228                                                        3078    6.86  -33.19  1.0000
  22 -18  -8   12710     437                                                       14826  -18.35   -4.31  1.0000
  22 -18 -10    2468     191                                                        3518   19.18   -9.55  1.0000
  22 -18 -12    1225     145                                                        1585   -5.62    8.35  1.0000
  22 -20  20     417     107                                                         611   18.79  -15.10  1.0000
  20 -20  22     474     103                                                         686   18.87  -15.00  1.0000
  20 -22  20     451     123                                                         656   18.72  -15.02  1.0000
  20 -18  22    1411     106                                                         542   32.47    2.10  1.0000
  22 -20  18    1516     134                                                         605   32.62    1.94  1.0000
  22 -20  16    2486     178                                                        2260   17.98    7.59  1.0000
  22 -20  14    7687     285                                                        7961   -1.25   49.16  1.0000
  22 -20  12    4293     227                                                        3940    3.35    8.73  1.0000
  20  12 -22    3859     167                                                        3578    3.80    7.92  1.0000
  22  20 -12    4141     187                                                        3888    3.93    7.26  1.0000
  22 -20  10     638     212                                                         717   -9.55    8.44  1.0000
  20  10 -22     667     136                                                         725   -9.67    7.51  1.0000
  22  20 -10     817     157                                                         917  -10.41    8.95  1.0000
  22 -20   8    4205     236                                                        3420  -27.36    3.96  1.0000
  22  20  -8    4344     173                                                        3532  -25.58    2.56  1.0000
  20   8 -22    4340     159                                                        3461  -26.54    1.76  1.0000
  22  20  -6    1548     139                                                        2336   22.46   -8.35  1.0000
  20   6 -22    1612     129                                                        2435   20.88   -9.80  1.0000
  20   4 -22   12397     336                                                       12505   -0.70   -1.55  1.0000
  22  20  -4   12179     342                                                       12155   -0.76   -0.18  1.0000
  20   2 -22    5215     202                                                        6388   41.64  -39.21  1.0000
  22 -20   2    5631     300                                                        6861   41.60  -38.98  1.0000
  22  20  -2    5581     209                                                        6788   43.25  -39.28  1.0000
  20   0 -22     151      91                                                         287    9.52   -0.53  1.0000
  22 -20   0     212     216                                                         368    9.21    3.96  1.0000
  22  20   0      72     100                                                         172    9.49    0.15  1.0000
  22 -20  -2    2453     238                                                        3024   41.10   39.10  1.0000
  22  20   2    2266     121                                                        2756   42.64   39.39  1.0000
  22 -20  -4   11848     391                                                       11828   -0.92    0.31  1.0000
  22 -20  -6    1481     214                                                        2283   20.83   10.13  1.0000
  22 -20  -8    1231     189                                                         771  -26.10   -3.16  1.0000
  22 -20 -10      55     150                                                          47   -9.35   -8.07  1.0000
  22 -20 -12    3987     180                                                        3719    4.15   -7.80  1.0000
  22 -22  20    1341     110                                                        1701   -9.35  -23.87  1.0000
  20 -22  22    1333      99                                                        1685   -9.28  -23.62  1.0000
  22 -22  18     454     131                                                         574    6.69   -4.58  1.0000
  18 -22  22     337     105                                                         440    6.25   -4.72  1.0000
  22 -22  16    1463     170                                                        1946    6.36  -12.74  1.0000
  22 -22  14   15722     439                                                       15224   -4.29   -0.07  1.0000
  22 -22  12    5056     229                                                        4425   13.51    7.63  1.0000
  22  12 -22    4469     166                                                        3910   13.18    8.36  1.0000
  22 -22  10    1294     199                                                         933   13.19  -14.21  1.0000
  22  10 -22    1171     124                                                         787   14.94  -16.06  1.0000
  22 -22   8   15149     423                                                       13324  -15.91    0.08  1.0000
  22  22  -8   15643     382                                                       13678  -16.75    0.90  1.0000
  22   8 -22   15958     377                                                       13917  -17.05    1.97  1.0000
  22   6 -22     149     114                                                         237   17.67    0.32  1.0000
  22  22  -6      67     120                                                         100   18.65   -0.14  1.0000
  22 -22   4    7292     281                                                        5814   19.82  -14.78  1.0000
  22  22  -4    6933     189                                                        5434   18.33  -15.91  1.0000
  22   4 -22    7244     185                                                        5734   18.20  -15.60  1.0000
  22 -22   2    2678     230                                                        1934    8.40  -14.84  1.0000
  22  22  -2    2645     118                                                        1946    8.56  -13.18  1.0000
  22   2 -22    2458     112                                                        1825    6.37  -14.36  1.0000
  22   0 -22   23049     811                                                       31000   49.75   -0.49  1.0000
  22 -22   0   24769     846                                                       32965   49.61    0.88  1.0000
  22 -22  -2    3362     230                                                        2575    7.78   13.88  1.0000
  22 -22  -4    7677     264                                                        6156   18.60   15.06  1.0000
  22 -22  -6    1457     193                                                        1850   18.77   -0.75  1.0000
  22 -22  -8   21740     538                                                       19402  -16.74   -1.30  1.0000
  22 -22 -10    1021     154                                                         644   15.31   14.06  1.0000
  23   1 -21    1986     117                                                        1804   -0.01    5.18  1.0000
  21 -23   1    2032     224                                                        1868    0.42    4.34  1.0000
  23   1 -19    6683     230                                                        7576  -12.17   30.22  1.0000
  19 -23   1    5406     293                                                        6120  -11.29   31.37  1.0000
  23   1 -17    2102     148                                                        2043    7.49   -0.47  1.0000
  23   1 -15    4558     179                                                        3929   18.74   44.55  1.0000
  23  -1  13    9781     261                                                        9062    1.93   11.05  1.0000
  23   1 -13   10044     285                                                        9360    1.60   10.67  1.0000
  23  -1  11    2957     137                                                        3027   -6.20   12.60  1.0000
  23   1 -11    3407     182                                                        3399   -4.99   13.81  1.0000
  23  -1   9   19995     630                                                       23238  -22.44    4.49  1.0000
  23   1  -9   21763     643                                                       25291  -23.43    4.60  1.0000
  23  -1   7    9687     237                                                        7792    1.83  -23.78  1.0000
  23  -1   5   21694     618                                                       23490   12.88   48.40  1.0000
  23  -1   3     522     111                                                         990    6.85  -27.28  1.0000
  23   1  -3     612     130                                                        1110    7.73  -27.36  1.0000
  23  -1   1   37867    1079                                                       41548  -17.72    6.73  1.0000
  23   1  -1   38554    1079                                                       42057  -17.15    5.25  1.0000
  23  -1  -1   38680    1101                                                       42679  -18.79   -7.82  1.0000
  23   1   1   38886    1099                                                       42679  -18.86   -4.56  1.0000
  23   1   3     131     110                                                         276    8.86   27.83  1.0000
  23   1   5   24608     694                                                       26532   12.89  -48.12  1.0000
  23  -1  -7    9646     254                                                        7728    3.41   23.06  1.0000
  23   1   7    9483     231                                                        7599    8.05   19.70  1.0000
  23   1   9   19989     609                                                       23219  -21.74   -6.21  1.0000
  23  -1 -11    4427     197                                                        4418   -5.24  -15.19  1.0000
  23   1  11    4230     151                                                        4191   -4.39  -13.81  1.0000
  23  -1 -13    8353     253                                                        7762    1.91   -9.48  1.0000
  23  -1 -15    5610     188                                                        4889   19.85  -44.07  1.0000
  23  -1 -17    1780     142                                                        1808    9.31    3.02  1.0000
  23  -1 -19    7770     254                                                        8755  -12.22  -30.78  1.0000
  19 -23  -1    6970     312                                                        7861  -11.87  -30.04  1.0000
  23  -1 -21    1520     105                                                        1394    0.22   -3.93  1.0000
  21 -23  -1    1433     223                                                        1308   -0.53   -4.53  1.0000
  23   3 -21    2052     141                                                        2718   13.97    1.21  1.0000
  21 -23   3    2108     237                                                        2814   14.62    1.03  1.0000
  23   3 -19    8134     274                                                        9118   -9.38   17.68  1.0000
  23   3 -17    1244     149                                                        1140   -4.31   -8.29  1.0000
  23  -3  15     396     105                                                        1393   43.89   14.88  1.0000
  23   3 -15     251     147                                                        1026   44.77   13.69  1.0000
  23   3 -13   13194     347                                                       12311   -2.65  -28.07  1.0000
  23  -3  13   12267     327                                                       11536   -3.02  -25.68  1.0000
  23  -3  11    3171     154                                                        3887  -11.89    7.89  1.0000
  23   3 -11    3201     195                                                        3906  -11.84    5.63  1.0000
  23   3  -9   10768     322                                                       11204   -2.98   14.08  1.0000
  23  -3   9    9706     304                                                       10168   -3.02   18.73  1.0000
  23  -3   7    2489     153                                                        3364   -6.27   24.52  1.0000
  23  -3   5   20243     530                                                       19916    5.02   -3.48  1.0000
  23  -3   3    8618     241                                                        7686  -11.09   20.14  1.0000
  23  -3   1   10070     210                                                        6264  -40.43  -19.98  1.0000
  23   3  -1   10698     213                                                        6680  -40.54  -21.37  1.0000
  23   3   1   11547     221                                                        7401  -39.43   21.76  1.0000
  23  -3  -1   10853     228                                                        6777  -39.80   22.63  1.0000
  23   3   3    9425     253                                                        8634   -8.88  -16.05  1.0000
  23  -3  -5   17788     489                                                       17505    6.17    5.63  1.0000
  23   3   5   18339     475                                                       18033    7.13    6.84  1.0000
  23   3   7     723     110                                                        1198   -4.59  -23.91  1.0000
  23  -3  -7     704     164                                                        1112   -7.27  -23.73  1.0000
  23  -3  -9   11383     365                                                       11707   -1.64  -15.45  1.0000
  23   3   9   12470     342                                                       12895   -2.37  -15.71  1.0000
  23   3  11    4109     160                                                        4862  -11.26   -4.92  1.0000
  23  -3 -13   14099     373                                                       13079    0.03   23.82  1.0000
  23  -3 -15     678     147                                                        1944   44.07  -14.49  1.0000
  23  -3 -17    1015     122                                                         934   -4.67    7.98  1.0000
  17 -23  -3     888     198                                                         791   -4.25    8.61  1.0000
  19 -23  -3    7944     328                                                        8829   -8.57  -16.39  1.0000
  23  -3 -19    8721     274                                                        9679   -8.69  -18.16  1.0000
  23  -3 -21    3498     150                                                        4366   14.07   -2.14  1.0000
  21 -23  -3    3310     230                                                        4132   13.68   -2.28  1.0000
  23   5 -21     827     118                                                         901    2.16   -1.51  1.0000
  21 -23   5     761     229                                                         812    1.76   -0.62  1.0000
  23   5 -19    1957     159                                                        2933  -22.77   -7.60  1.0000
  23   5 -17    1286     157                                                        1493  -11.22   30.01  1.0000
  23  -5  15    5848     168                                                        4750   -9.80   17.74  1.0000
  23   5 -15    5669     207                                                        4650  -12.98   17.51  1.0000
  23  -5  13     856     108                                                         147  -35.91   31.43  1.0000
  23   5 -13     760     165                                                         103  -34.79   30.21  1.0000
  23  -5  11    5139     180                                                        4806   -4.27   -2.71  1.0000
  23   5 -11    4872     195                                                        4533   -2.95   -4.17  1.0000
  23  -5   9     906     145                                                        2301  -26.04  -38.84  1.0000
  23   5  -9    1102     165                                                        2565  -24.01  -40.09  1.0000
  23  -5   7    3052     163                                                        3674   16.16  -42.93  1.0000
  23  -5   5    5943     222                                                        6439   13.07   20.74  1.0000
  23   5  -5    6137     222                                                        6595   15.16   21.74  1.0000
  23  -5   3    2677     141                                                        1441  -25.93   21.87  1.0000
  23   5  -3    2681     125                                                        1399  -24.59   23.36  1.0000
  23  -5   1    4296     214                                                        6163  -16.83   26.52  1.0000
  23  -5  -5    6894     252                                                        7461   14.99  -22.72  1.0000
  23  -5  -7    2683     175                                                        3249   16.39   42.54  1.0000
  23  -5  -9     892     176                                                        2263  -25.37   39.68  1.0000
  23  -5 -11    2258     177                                                        2102   -2.69    2.18  1.0000
  23  -5 -15    8506     238                                                        7269  -11.59  -17.06  1.0000
  15 -23  -5    8118     260                                                        6963  -12.81  -16.68  1.0000
  17 -23  -5    2305     205                                                        2707  -12.04  -28.05  1.0000
  23  -5 -17    2343     141                                                        2676  -10.60  -30.05  1.0000
  19 -23  -5    1340     206                                                        2190  -23.48    7.45  1.0000
  23  -5 -19    1592     119                                                        2487  -22.97    7.60  1.0000
  21 -23  -5     696     191                                                         777    2.90    1.04  1.0000
  23   7 -21    6336     202                                                        5763  -20.60    9.28  1.0000
  23   7 -19     558     145                                                         653   12.05    6.45  1.0000
  23  -7  17    1202     116                                                        1829   26.07    2.96  1.0000
  23   7 -17    1174     166                                                        1806   26.26    3.17  1.0000
  23  -7  15    1736     118                                                        1073   30.73   13.72  1.0000
  23   7 -15    1832     162                                                        1144   29.50   11.83  1.0000
  23  -7  13    9562     304                                                       10177  -19.01    0.66  1.0000
  23   7 -13   10325     326                                                       10982  -17.32   -0.26  1.0000
  23  -7  11    1877     143                                                        1944    1.01    5.51  1.0000
  23   7 -11    1960     160                                                        2044    1.23    6.62  1.0000
  23  -7   9    1068     145                                                        1648  -21.20  -14.18  1.0000
  23   7  -7     968     128                                                         435  -22.56    5.76  1.0000
  23  -7   7    1235     146                                                         631  -22.18    5.66  1.0000
  23  -7   5    2722     153                                                        1944   16.09    4.73  1.0000
  23   7  -5    2533     139                                                        1803   15.63    4.95  1.0000
  23   7  -3    8278     299                                                       10521   19.64   25.81  1.0000
  23  -7   3    8278     311                                                       10313   17.48   25.86  1.0000
  23  -7   1    1925     167                                                        2635   11.29   17.70  1.0000
  23   7  -1    1923     129                                                        2663   12.16   16.83  1.0000
  23   7   1    1883     123                                                        2528   10.42  -16.55  1.0000
  23  -7  -3    4360     225                                                        5954   18.80  -27.76  1.0000
  23   7   3    4499     186                                                        5963   17.07  -25.80  1.0000
  23  -7  -5    3228     177                                                        2364   16.23   -5.51  1.0000
  23   7   5    3198     117                                                        2388   15.35   -4.26  1.0000
  23  -7  -7    2290     169                                                        1314  -25.20   -7.57  1.0000
  23   7   7    2271      99                                                        1344  -23.55   -7.51  1.0000
  23   7   9    1758     108                                                        2542  -21.59   13.06  1.0000
  23  -7  -9    1730     179                                                        2550  -22.79   14.41  1.0000
  23  -7 -11     942     157                                                        1009    1.55   -7.15  1.0000
  13 -23  -7    4496     208                                                        4944  -18.61    0.25  1.0000
  15 -23  -7    1623     154                                                         990   30.11  -13.61  1.0000
  23  -7 -15    1619     133                                                         968   31.20  -13.97  1.0000
  17 -23  -7     239     167                                                         483   25.17   -3.29  1.0000
  23  -7 -17     244     117                                                         473   26.71   -2.08  1.0000
  19 -23  -7    1632     177                                                        1794   11.61   -6.93  1.0000
  23  -7 -19    1534     102                                                        1691   11.65   -6.93  1.0000
  21 -23  -7    2099     175                                                        1739  -20.66   -9.68  1.0000
  23   9 -21      97     125                                                         274    1.78  -17.64  1.0000
  21 -23   9     146     225                                                         365    2.86  -17.68  1.0000
  23   9 -19     128     141                                                         343  -10.00  -11.14  1.0000
  23   9 -17    1594     165                                                        1366   -7.01    8.14  1.0000
  23  -9  17    1632     122                                                        1367   -8.18    9.79  1.0000
  23   9 -15   11886     369                                                       11660  -41.87   25.27  1.0000
  23  -9  15   13417     355                                                       13053  -42.44   23.94  1.0000
  23   9 -13    4017     184                                                        2800  -22.60   17.76  1.0000
  23  -9  13    3848     161                                                        2669  -22.20   16.16  1.0000
  23  -9  11   13423     361                                                       12839  -13.72  -66.15  1.0000
  23   9 -11   12706     370                                                       12161  -13.20  -66.06  1.0000
  23  -9   9    1857     147                                                         588  -46.30    5.71  1.0000
  23  -9   7   14126     372                                                       13151  -28.62  -92.23  1.0000
  23   9  -7   13475     365                                                       12488  -28.54  -92.68  1.0000
  23   9  -5    1791     125                                                         967  -14.24  -21.06  1.0000
  23  -9   5    1897     162                                                        1095  -12.71  -20.70  1.0000
  23  -9   3    1966     172                                                        1905   -3.77   -1.64  1.0000
  23   9  -3    1885     126                                                        1833   -3.31   -1.46  1.0000
  23   9  -1    8840     278                                                        9478  -14.96  -22.58  1.0000
  23   9   1    8089     252                                                        8863  -16.73   21.98  1.0000
  23   9   3    4264     149                                                        4348   -2.62    4.26  1.0000
  23  -9  -3    3863     208                                                        3872   -3.02    3.07  1.0000
  23  -9  -5    1087     175                                                         513  -11.67   21.35  1.0000
  23   9   5    1391      97                                                         705  -13.14   20.78  1.0000
  23  -9  -7   17899     501                                                       17196  -28.33   93.73  1.0000
  23   9   7   18791     468                                                       18033  -29.33   94.31  1.0000
  23  -9  -9    4472     185                                                        2404  -46.65   -6.06  1.0000
  23  -9 -11   15281     425                                                       14960  -12.02   67.47  1.0000
  23  -9 -13    2669     161                                                        1687  -22.50  -18.42  1.0000
  15 -23  -9    8756     271                                                        8452  -41.28  -24.54  1.0000
  23  -9 -17    1514     116                                                        1238   -8.87  -10.67  1.0000
  17 -23  -9    1588     160                                                        1309   -8.71  -10.05  1.0000
  19 -23  -9      62     151                                                         215   -9.07   10.89  1.0000
  21 -23  -9      64     153                                                         203    4.68   16.43  1.0000
  21 -23  11   12718     406                                                       13237    2.98   12.91  1.0000
  23  11 -21   12373     368                                                       12944    3.55   12.74  1.0000
  23 -11  19     289     104                                                         593    6.07   17.07  1.0000
  23  11 -19     368     147                                                         675    7.42   15.85  1.0000
  23 -11  17    3960     158                                                        3458   -1.77   28.82  1.0000
  23  11 -17    3725     189                                                        3304   -0.79   26.99  1.0000
  23 -11  15    1157     137                                                        1119   13.57   44.17  1.0000
  23  11 -15    1055     181                                                        1081   15.63   41.79  1.0000
  23 -11  13    5959     218                                                        5763   -2.93    9.85  1.0000
  23  11 -13    5859     242                                                        5653   -3.36   10.90  1.0000
  23 -11  11     349     169                                                        1120   21.15   28.67  1.0000
  23 -11   9    5619     252                                                        7488  -27.40   -0.04  1.0000
  23  11  -9    4813     238                                                        6612  -29.22   -1.69  1.0000
  23 -11   7   15392     401                                                       13408  -21.37    3.85  1.0000
  23  11  -7   15694     381                                                       13678  -20.54    2.13  1.0000
  23 -11   5     392     190                                                         589  -10.16   -0.42  1.0000
  23  11  -5     319     133                                                         456   -8.42    0.62  1.0000
  23 -11   3    5269     217                                                        4287  -18.86  -13.57  1.0000
  23  11  -3    4842     159                                                        3976  -17.33  -12.74  1.0000
  23  11  -1    3167     153                                                        3948    9.54   11.68  1.0000
  23 -11  -1    2482     204                                                        3182    9.99  -10.88  1.0000
  23  11   1    2622     140                                                        3324    9.29  -11.71  1.0000
  23  11   3    5875     164                                                        4879  -18.45   14.15  1.0000
  23 -11  -3    5979     233                                                        4960  -18.45   13.47  1.0000
  23  11   5     388      91                                                         578  -10.04   -0.19  1.0000
  23 -11  -5     443     190                                                         622   -9.31   -0.90  1.0000
  23 -11  -7    7355     248                                                        6088  -20.08   -4.13  1.0000
  23  11   7    7182     179                                                        5877  -20.11   -2.63  1.0000
  23 -11  -9    7585     315                                                        9657  -27.89    2.86  1.0000
  23 -11 -11      46     161                                                         199   23.70  -28.13  1.0000
  23 -11 -13    6237     219                                                        5910   -1.79  -11.24  1.0000
  23 -11 -17    3430     136                                                        3014   -0.62  -28.71  1.0000
  21 -23  13    4084     225                                                        3624   -8.31   -4.19  1.0000
  23  13 -21    3879     160                                                        3432   -8.27   -4.15  1.0000
  23  13 -19     243     160                                                         530   -0.45  -33.61  1.0000
  23 -13  19     265     113                                                         538   -0.36  -32.14  1.0000
  23 -13  17    1269     139                                                        1497  -20.61   19.89  1.0000
  23  13 -17    1230     173                                                        1476  -20.76   20.65  1.0000
  23 -13  15      65     144                                                         315   -1.69  -37.15  1.0000
  23  13 -15      80     177                                                         448   -3.00  -37.42  1.0000
  23  13 -13    8072     276                                                        7231  -20.14   -0.46  1.0000
  23 -13  13    9147     265                                                        8117  -20.63   -1.95  1.0000
  23 -13  11   16553     465                                                       16396   -7.33   16.03  1.0000
  23  13  -9    5558     204                                                        4321  -18.72    5.39  1.0000
  23 -13   9    5908     218                                                        4646  -17.88    6.08  1.0000
  23  13  -7    9399     339                                                       11359    3.99  -24.43  1.0000
  23 -13   7    9780     361                                                       11886    6.87  -22.93  1.0000
  13   7 -23    9325     312                                                       11304    3.37  -25.43  1.0000
  23  13  -5    3355     162                                                        3305   -0.13    5.90  1.0000
  23 -13   5    3515     215                                                        3404    1.19    4.32  1.0000
  13   5 -23    3563     126                                                        3485    0.59    4.36  1.0000
  23  13  -3    6473     206                                                        6067  -10.77  -22.88  1.0000
  23  13  -1    1027     114                                                         331  -24.85   19.42  1.0000
  23 -13  -1     648     203                                                         131  -24.82  -17.48  1.0000
  23  13   1     802      97                                                         218  -24.04  -18.02  1.0000
  23 -13  -3    6306     271                                                        5881  -11.31   23.77  1.0000
  23  13   3    7023     195                                                        6481  -12.68   23.86  1.0000
  23 -13  -5    5210     248                                                        5235   -1.34   -5.76  1.0000
  23  13   5    5347     164                                                        5237    0.89   -3.83  1.0000
  23 -13  -7   16438     537                                                       19032    3.79   24.78  1.0000
  23 -13  -9    5930     230                                                        4555  -18.65   -7.80  1.0000
  23 -13 -11   11989     359                                                       11789   -7.06  -13.85  1.0000
  23 -13 -13    6312     214                                                        5587  -20.81   -0.25  1.0000
  21 -23  15     647     171                                                         563  -15.26  -10.84  1.0000
  23 -15  19    3136     144                                                        3173   -5.32   -3.38  1.0000
  23  15 -19    2986     179                                                        3032   -4.38   -3.14  1.0000
  23 -15  17    5550     195                                                        4994  -11.34   -4.15  1.0000
  23  15 -17    5095     213                                                        4550  -11.02   -3.22  1.0000
  23 -15  15    3156     181                                                        2767   -9.13   -4.24  1.0000
  23  15 -15    3704     193                                                        3270   -8.82   -2.74  1.0000
  23 -15  13    4795     207                                                        4247    5.66    8.51  1.0000
  23  15 -11    1464     169                                                        1112    5.54   10.38  1.0000
  23 -15  11    1573     195                                                        1172    6.17   11.47  1.0000
  23  15  -9    3114     187                                                        3679   -0.01   13.14  1.0000
  23 -15   9    2857     226                                                        3355    0.94   12.93  1.0000
  15   9 -23    2775     152                                                        3391   -1.68   13.65  1.0000
  23 -15   7    4433     245                                                        5094   12.00   -3.33  1.0000
  15   7 -23    4638     177                                                        5369   12.68   -2.94  1.0000
  23  15  -7    4922     205                                                        5565   11.16   -3.19  1.0000
  23  15  -5    4313     167                                                        3585    6.91  -14.32  1.0000
  23 -15   5    4417     237                                                        3682    7.73  -14.55  1.0000
  15   5 -23    4009     133                                                        3312    6.79  -14.18  1.0000
  23  15  -3    6504     221                                                        7274    9.93  -12.98  1.0000
  23 -15   1    3069     231                                                        2267    9.93  -13.25  1.0000
  23  15  -1    2825     126                                                        1984    9.95  -15.04  1.0000
  23  15   1    2002     110                                                        1347   10.08   13.75  1.0000
  23 -15  -1    2089     227                                                        1356   10.66   15.37  1.0000
  23  15   3    8005     253                                                        8877   10.07   10.42  1.0000
  23 -15  -3    8314     335                                                        9237   10.47   12.44  1.0000
  23  15   5    5718     157                                                        4873    7.28   14.54  1.0000
  23 -15  -5    5570     261                                                        4708    8.37   15.32  1.0000
  23 -15  -7    4549     253                                                        5207   12.08    3.97  1.0000
  23 -15  -9    3041     216                                                        3563    0.80  -13.01  1.0000
  23 -15 -11    6299     233                                                        5496    6.37  -11.25  1.0000
  23 -15 -13    7030     226                                                        6400    5.70   -7.08  1.0000
  17 -21  23    1547     116                                                        1214  -11.31    9.00  1.0000
  21 -23  17    1449     140                                                        1122  -11.41    8.76  1.0000
  23 -17  19    1783     131                                                        2061   -0.73   11.57  1.0000
  17 -19  23    1910     122                                                        2186   -0.35   11.67  1.0000
  23 -17  17    3895     170                                                        3132    0.69  -30.41  1.0000
  17 -17  23    3910     143                                                        3137    1.00  -30.01  1.0000
  23  17 -17    4288     185                                                        3564   -0.22  -29.35  1.0000
  23 -17  15     357     169                                                         868   20.73  -40.79  1.0000
  23  17 -15     276     176                                                         625   19.89  -40.90  1.0000
  23 -17  13     170     183                                                         315   -1.79    9.91  1.0000
  23  17 -11     423     171                                                         237   -2.58   10.54  1.0000
  23 -17  11     102     190                                                          16   -2.19   12.28  1.0000
  17  11 -23     349     122                                                         182   -1.07   10.59  1.0000
  23 -17   9    2018     230                                                        2874  -12.97   21.77  1.0000
  17   9 -23    2092     145                                                        2902  -11.82   21.58  1.0000
  23  17  -9    1919     181                                                        2707  -12.48   19.98  1.0000
  23 -17   7    4282     239                                                        3222  -13.38   23.07  1.0000
  17   7 -23    4044     137                                                        2994  -11.64   22.83  1.0000
  23  17  -7    4079     164                                                        3027  -12.35   23.03  1.0000
  17   5 -23    8798     228                                                        7822   12.37   -3.93  1.0000
  23  17  -5    8663     246                                                        7770   11.61   -4.49  1.0000
  17   3 -23    1757      96                                                        1720  -17.43   15.57  1.0000
  23  17  -3    1735     128                                                        1664  -18.11   15.03  1.0000
  23  17  -1    1334     121                                                        1288  -24.76   -1.45  1.0000
  23 -17   1    1623     244                                                        1583  -25.98   -1.35  1.0000
  23  17   1    1200     110                                                        1173  -24.27    2.19  1.0000
  23 -17  -1    1156     236                                                        1127  -25.49    2.27  1.0000
  23 -17  -3     975     238                                                         907  -17.48  -15.34  1.0000
  23  17   3     834      93                                                         770  -17.35  -15.70  1.0000
  23 -17  -5   11128     359                                                       10134   11.24    3.88  1.0000
  23  17   5   11728     286                                                       10601   12.58    4.74  1.0000
  23 -17  -7    8845     282                                                        7267  -12.17  -23.40  1.0000
  23 -17  -9    4679     244                                                        5980  -12.75  -22.47  1.0000
  23 -17 -11     388     167                                                         196   -2.91  -11.60  1.0000
  23 -17 -13     569     132                                                         832   -3.14   -9.89  1.0000
  19 -21  23    1670      98                                                        1635  -19.91   25.78  1.0000
  21 -23  19    1550     129                                                        1508  -20.00   25.82  1.0000
  23 -19  21    1340      98                                                        1283  -19.70   25.38  1.0000
  23 -19  19    4440     190                                                        5491  -10.55   24.32  1.0000
  19 -23  19    4646     218                                                        5743  -10.94   23.90  1.0000
  23 -19  17    2111     166                                                        2556    5.32  -14.91  1.0000
  23 -19  15     213     165                                                           3   30.93  -12.01  1.0000
  23 -19  13     749     180                                                         984    5.98   13.88  1.0000
  23  19 -13     572     162                                                         775    4.85   13.16  1.0000
  23 -19  11     485     196                                                         389  -11.33   -6.47  1.0000
  23  19 -11     549     157                                                         434  -12.80   -6.79  1.0000
  19  11 -23     376     123                                                         291  -12.61   -8.05  1.0000
  23 -19   9    1568     217                                                        2226  -15.32   -2.66  1.0000
  19   9 -23    1810     135                                                        2447  -13.68   -4.40  1.0000
  23  19  -9    1854     159                                                        2483  -13.17   -5.59  1.0000
  19   7 -23     867     117                                                         956   -2.41   -1.95  1.0000
  23 -19   7     862     224                                                         946   -2.59   -1.23  1.0000
  23  19  -7     900     136                                                         978   -1.71   -2.43  1.0000
  19   5 -23    8535     239                                                        8291    1.97   -2.08  1.0000
  23  19  -5    8348     253                                                        8158    1.21   -2.21  1.0000
  23 -19   3    2229     256                                                        3643  -21.51   25.42  1.0000
  23  19  -3    2169     158                                                        3673  -23.52   25.06  1.0000
  19   3 -23    2244     135                                                        3702  -21.90   26.43  1.0000
  23 -19   1    4570     279                                                        5121   -7.78    2.39  1.0000
  23  19  -1    4597     174                                                        5129   -7.83    0.89  1.0000
  23 -19  -1    4480     275                                                        5061   -8.35   -2.21  1.0000
  23  19   1    4241     164                                                        4742   -7.82   -0.19  1.0000
  23 -19  -3    3105     263                                                        4855  -22.52  -26.95  1.0000
  23  19   3    3894     176                                                        5787  -21.74  -26.95  1.0000
  23 -19  -5    8666     315                                                        8495    2.27   -0.14  1.0000
  23 -19  -7     375     193                                                         416   -0.98    2.82  1.0000
  23 -19  -9    1850     193                                                        2491  -13.87    2.92  1.0000
  23 -19 -11    1018     160                                                         871  -12.62    6.45  1.0000
  23 -21  21     288      75                                                         148    9.28   -6.97  1.0000
  21 -23  21     409      86                                                         241    9.67   -6.81  1.0000
  23 -21  19     256     102                                                         421   -8.10    4.47  1.0000
  19 -23  21     354     104                                                         545   -8.05    4.73  1.0000
  23 -21  17     399     134                                                         410   12.71    2.63  1.0000
  23 -21  15    4635     199                                                        4433   10.56  -29.80  1.0000
  23 -21  13    6724     274                                                        7624  -10.51   -5.92  1.0000
  23 -21  11    1413     192                                                        1471   -2.31   -9.26  1.0000
  23  21 -11    1347     140                                                        1361   -1.13   -9.12  1.0000
  21  11 -23    1400     126                                                        1419   -1.28   -9.74  1.0000
  23 -21   9   15533     488                                                       17525  -15.55   -5.79  1.0000
  23  21  -9   14581     448                                                       16476  -15.00   -9.35  1.0000
  21   9 -23   14333     445                                                       16246  -15.31   -8.84  1.0000
  23  21  -7    1416     135                                                        1678   -2.36    7.74  1.0000
  21   7 -23    1308     116                                                        1589   -2.99    8.16  1.0000
  23  21  -5    3936     171                                                        4482   19.71  -17.89  1.0000
  21   5 -23    3417     151                                                        3989   17.86  -18.52  1.0000
  23 -21   3    1742     237                                                        1686  -28.96   18.31  1.0000
  23  21  -3    1639     126                                                        1610  -30.25   18.15  1.0000
  21   3 -23    1580     103                                                        1555  -31.11   18.44  1.0000
  23 -21   1    3894     267                                                        4523  -10.26    8.89  1.0000
  23  21  -1    4317     169                                                        4982  -10.30    9.56  1.0000
  23 -21  -1    3370     249                                                        3956  -10.25   -8.36  1.0000
  23  21   1    3646     148                                                        4255  -10.27   -9.48  1.0000
  23 -21  -3    2531     226                                                        2517  -30.42  -19.79  1.0000
  23 -21  -5     770     213                                                         960   18.86   18.63  1.0000
  23 -21  -7    3886     218                                                        4291   -0.98   -8.68  1.0000
  23 -21  -9   15513     488                                                       17374  -14.42    7.56  1.0000
  23 -21 -11    1716     154                                                        1742   -1.29    8.64  1.0000
  23 -23  19    3501     128                                                        3171    5.73    1.66  1.0000
  23 -23  17    4474     164                                                        4055    3.94    9.42  1.0000
  17 -23  23    4320     146                                                        3915    3.81    9.45  1.0000
  23 -23  15    8474     234                                                        6653   27.62    0.54  1.0000
  23 -23  13    2081     170                                                        2055   10.09   -6.25  1.0000
  23 -23  11     122     188                                                         299   11.09   19.13  1.0000
  23  11 -23     160     111                                                         359   10.28   20.90  1.0000
  23 -23   9    2395     211                                                        2867   -9.67   -2.47  1.0000
  23   9 -23    2283     130                                                        2684   -8.42   -1.40  1.0000
  23   7 -23     143     106                                                          97    6.09   27.08  1.0000
  23 -23   5    9536     304                                                        8178   14.22  -18.09  1.0000
  23   5 -23    9082     228                                                        7715   14.69  -18.21  1.0000
  23 -23   3    2861     226                                                        2678  -13.16   38.04  1.0000
  23   3 -23    2870     116                                                        2692  -12.98   37.28  1.0000
  23   1 -23    8846     275                                                        9983   -5.51   14.77  1.0000
  23 -23   1    9101     339                                                       10281   -5.02   16.17  1.0000
  23 -23  -1   10504     380                                                       11928   -6.29  -16.91  1.0000
  23 -23  -3    2488     207                                                        2241  -12.08  -38.15  1.0000
  23 -23  -5   10147     303                                                        8760   14.07   18.22  1.0000
  23 -23  -7     176     166                                                         -28    6.42  -26.45  1.0000
  23 -23  -9    1324     154                                                        1645   -8.74    1.75  1.0000
  24   0   0    8922     382                                                       13644   45.85   -1.15  1.0000
  24   0   2    2768     139                                                        1982  -16.61    0.28  1.0000
  24   0  -2    2652     153                                                        1892  -16.42   -1.38  1.0000
  24   0   4   14225     489                                                       18135   31.59    0.02  1.0000
  24   0   6    1779     165                                                        4087  -44.63    0.77  1.0000
  24   0   8   17262     476                                                       17643   -2.96   -2.22  1.0000
  24   0  10     891     110                                                         464  -17.06    1.08  1.0000
  24   0 -10    1351     157                                                         834  -16.18   -1.54  1.0000
  24   0 -12    4417     194                                                        4200   -3.41    2.21  1.0000
  24   0  12    4105     149                                                        3861   -3.96   -0.65  1.0000
  24   0 -14    1749     159                                                        2187  -10.14    0.58  1.0000
  24   0 -16     584     141                                                         805   -8.60    0.71  1.0000
  24   0 -18    7116     248                                                        7809    8.23   -0.34  1.0000
  24   0 -20     232     110                                                         133    7.59   -1.06  1.0000
  20 -24   0     372     202                                                         244    7.52    0.69  1.0000
  24   0 -22      30      90                                                         -13   11.17   -0.65  1.0000
  22 -24   0     381     197                                                         190   11.78    0.30  1.0000
  24   2 -22     468     100                                                         403   26.55    6.11  1.0000
  22 -24   2     332     195                                                         238   26.82    5.95  1.0000
  24   2 -20    3707     152                                                        3427    4.99   -1.51  1.0000
  20 -24   2    3665     244                                                        3331    5.95   -1.27  1.0000
  24   2 -18    4117     157                                                        2701  -22.12  -16.32  1.0000
  24   2 -16    1183     151                                                        1515   -6.24  -10.66  1.0000
  24  -2  14     299      98                                                         409    6.31    1.18  1.0000
  24   2 -14     513     162                                                         636    5.39    0.33  1.0000
  24  -2  12      19     105                                                          95    7.76  -15.25  1.0000
  24   2 -12      40     159                                                         155    8.24  -14.96  1.0000
  24  -2  10     569     123                                                         648   11.23   21.39  1.0000
  24   2 -10     579     166                                                         720   12.68   18.67  1.0000
  24  -2   8    4746     181                                                        4843    4.06    4.05  1.0000
  24   2  -8    4799     205                                                        4898    3.40    2.88  1.0000
  24  -2   6    3113     155                                                        3128  -34.71   36.80  1.0000
  24  -2   4     569     126                                                         121  -27.01   -8.49  1.0000
  24   2  -2   11213     373                                                       13114  -16.21  -17.65  1.0000
  24  -2   2   11366     371                                                       13247  -15.98  -17.00  1.0000
  24   2   0     156     122                                                         615   25.29    0.93  1.0000
  24  -2   0     220     140                                                         721   24.67    0.64  1.0000
  24  -2  -2   11577     374                                                       13515  -16.35   16.79  1.0000
  24   2   2   10833     363                                                       12741  -16.60   17.42  1.0000
  24   2   4     181     116                                                         -48  -25.02   11.63  1.0000
  24  -2  -6    4263     197                                                        4314  -35.65  -40.25  1.0000
  24   2   6    4221     162                                                        4124  -32.52  -39.76  1.0000
  24   2   8    5484     191                                                        5614    4.35   -3.85  1.0000
  24  -2  -8    5849     235                                                        5894    2.85   -3.63  1.0000
  24   2  10    1047     103                                                        1218   10.86  -18.20  1.0000
  24  -2 -12      29     162                                                         114    9.61   14.46  1.0000
  24   2  12      21      91                                                          91    9.22   15.05  1.0000
  24  -2 -14    1314     163                                                        1496    5.29   -1.94  1.0000
  24  -2 -16     604     134                                                         811   -5.62    8.90  1.0000
  18 -24  -2    4537     217                                                        3053  -21.69   17.75  1.0000
  24  -2 -18    4549     151                                                        3101  -21.22   16.53  1.0000
  24  -2 -20    4454     149                                                        4102    5.54   -0.07  1.0000
  20 -24  -2    4049     227                                                        3776    4.72    1.96  1.0000
  22 -24  -2     993     195                                                        1012   26.58   -6.81  1.0000
  22 -24   4    7034     306                                                        7810    6.66   12.09  1.0000
  24   4 -22    6845     229                                                        7731    8.43   10.87  1.0000
  24   4 -20    8220     210                                                        6372  -15.80   16.39  1.0000
  20 -24   4    7040     277                                                        5449  -14.88   14.98  1.0000
  24   4 -18      39     134                                                         218  -12.39  -12.40  1.0000
  24   4 -16    1648     164                                                        2043   -9.70    4.46  1.0000
  24  -4  14    6760     219                                                        7161  -13.31  -16.21  1.0000
  24   4 -14    6961     255                                                        7384  -11.59  -15.15  1.0000
  24  -4  12    9320     248                                                        8146   -0.07   18.22  1.0000
  24   4 -12    9122     272                                                        7989    0.14   17.53  1.0000
  24   4 -10    5152     220                                                        5294    9.32  -30.20  1.0000
  24  -4  10    5316     191                                                        5408    9.27  -28.16  1.0000
  24  -4   8    3368     159                                                        3525   -2.15   22.86  1.0000
  24  -4   6    2013     138                                                        1137  -25.68    1.69  1.0000
  24  -4   4    3691     199                                                        4841  -12.25   17.06  1.0000
  24   4  -4    4330     202                                                        5650  -11.56   18.22  1.0000
  24  -4   2    5004     215                                                        5929  -17.66   -8.33  1.0000
  24  -4   0   36942    1117                                                       43060   31.40   -1.00  1.0000
  24  -4  -6    3018     176                                                        1900  -26.37   -1.71  1.0000
  24  -4  -8    4563     211                                                        4782   -1.94  -22.98  1.0000
  24  -4 -10    5284     233                                                        5524    7.03   28.19  1.0000
  24  -4 -14   12557     375                                                       13058  -12.03   14.46  1.0000
  24  -4 -16    4342     194                                                        5019  -10.36   -4.53  1.0000
  16 -24  -4    4331     235                                                        5026  -10.59   -3.56  1.0000
  24  -4 -18     212     118                                                         521  -12.42   11.72  1.0000
  18 -24  -4     470     200                                                         864  -10.77   11.63  1.0000
  20 -24  -4    5909     234                                                        4459  -14.73  -15.20  1.0000
  24  -4 -20    6558     164                                                        4963  -14.23  -17.64  1.0000
  22 -24  -4    3909     227                                                        4591    8.09  -13.05  1.0000
  22 -24   6    4023     239                                                        3824   18.72   -3.96  1.0000
  24   6 -22    4098     151                                                        3889   19.82   -4.18  1.0000
  24   6 -20    3890     161                                                        3220   10.10   25.42  1.0000
  24   6 -18    2706     168                                                        2937    6.07   -1.91  1.0000
  24  -6  16     301     102                                                         -44   13.88  -32.76  1.0000
  24   6 -16      71     164                                                          77   12.39  -32.98  1.0000
  24  -6  14    1242     112                                                         749  -10.86  -12.16  1.0000
  24   6 -14    1330     167                                                         757  -12.90  -13.44  1.0000
  24   6 -12     206     159                                                         -44   -6.31   28.73  1.0000
  24  -6  12     246     121                                                          17   -6.81   28.37  1.0000
  24  -6  10    7891     235                                                        7209  -10.26    0.34  1.0000
  24   6 -10    7597     247                                                        6947  -10.24    0.00  1.0000
  24  -6   8     315     140                                                         285    3.84    4.25  1.0000
  24  -6   6    1159     149                                                        1409  -30.68   48.61  1.0000
  24   6  -6    1335     155                                                        1615  -29.34   49.56  1.0000
  24  -6   4   26181     548                                                       20594  -30.78   28.07  1.0000
  24   6  -4   25461     543                                                       19912  -30.78   29.20  1.0000
  24  -6   2   15867     505                                                       17944  -34.49   19.76  1.0000
  24   6  -2   16583     495                                                       18799  -35.28   19.77  1.0000
  24  -6   0      67     157                                                         132   -6.78    0.73  1.0000
  24   6   0      72     114                                                         132   -6.05    1.25  1.0000
  24   6   2   15867     480                                                       17927  -35.45  -21.43  1.0000
  24  -6  -4   24101     498                                                       18596  -32.00  -28.00  1.0000
  24   6   4   22929     475                                                       17476  -32.94  -27.29  1.0000
  24  -6  -6    1183     181                                                        1373  -29.48  -50.48  1.0000
  24   6   6    1519     113                                                        1882  -29.35  -49.78  1.0000
  24  -6  -8      59     171                                                          38   -0.89   -3.01  1.0000
  24   6   8     199      87                                                         165    1.07   -3.48  1.0000
  24   6  10   10935     277                                                       10076  -11.98    0.75  1.0000
  24  -6 -10   10804     317                                                        9848  -12.16   -0.63  1.0000
  14 -24  -6     720     163                                                         327  -11.67   13.78  1.0000
  24  -6 -14     779     147                                                         377  -11.39   13.31  1.0000
  16 -24  -6      44     166                                                         556   11.34   33.18  1.0000
  24  -6 -16      56     131                                                         600   12.41   32.94  1.0000
  24  -6 -18     716     115                                                         806    5.69    3.25  1.0000
  18 -24  -6     872     172                                                         949    5.16    3.89  1.0000
  20 -24  -6    4390     199                                                        3750    9.03  -24.11  1.0000
  22 -24  -6    2762     185                                                        2618   18.22    4.52  1.0000
  24   8 -22     618     111                                                         674   -2.97   18.17  1.0000
  24   8 -20    1884     148                                                        2029   19.66    1.03  1.0000
  24   8 -18    4272     208                                                        5009   -8.89  -28.39  1.0000
  24   8 -16    8508     310                                                        9777    6.36  -15.26  1.0000
  24  -8  16    8686     287                                                       10035    6.40  -15.96  1.0000
  24  -8  14    2138     143                                                        2053  -11.49    5.59  1.0000
  24   8 -14    2344     178                                                        2264  -11.77    5.53  1.0000
  24  -8  12     219     135                                                         186    4.49   -7.91  1.0000
  24   8 -12     196     173                                                         143    5.58   -5.31  1.0000
  24  -8  10    8027     273                                                        8495    6.94  -14.31  1.0000
  24  -8   8    5956     194                                                        4181   38.33  -19.61  1.0000
  24   8  -6    5603     245                                                        7154  -18.79    6.95  1.0000
  24  -8   6    6236     255                                                        7772  -17.53    7.05  1.0000
  24  -8   4    2226     202                                                        3932   32.63    0.99  1.0000
  24   8  -4    2446     176                                                        4197   32.17    1.14  1.0000
  24  -8   2     827     175                                                        1097   11.78   11.47  1.0000
  24   8  -2     964     131                                                        1253   10.29   11.08  1.0000
  24   8   0     641     131                                                        2226   44.86    0.43  1.0000
  24   8   2    2308     131                                                        2799    9.69  -11.70  1.0000
  24   8   4    3878     192                                                        6067   32.50   -2.11  1.0000
  24  -8  -4    3463     246                                                        5605   33.42   -1.87  1.0000
  24  -8  -6    6970     303                                                        8633  -19.00   -5.06  1.0000
  24   8   6    7045     252                                                        8828  -19.81   -6.20  1.0000
  24   8   8   10197     224                                                        7990   36.28   18.91  1.0000
  24  -8  -8    9116     280                                                        7097   37.35   17.93  1.0000
  24  -8 -10    6129     253                                                        6426    5.25   11.05  1.0000
  12 -24  -8     402     145                                                         353    4.97    7.48  1.0000
  24  -8 -12     321     163                                                         268    4.52    4.80  1.0000
  14 -24  -8    2833     174                                                        2712  -10.52   -5.86  1.0000
  24  -8 -16    5531     220                                                        6587    5.46   15.44  1.0000
  16 -24  -8    5327     239                                                        6353    5.94   15.39  1.0000
  18 -24  -8    6501     260                                                        7484   -8.58   28.71  1.0000
  24  -8 -18    6268     220                                                        7224   -8.84   28.86  1.0000
  20 -24  -8      95     153                                                         -21   19.90   -1.81  1.0000
  22 -24  -8    1435     157                                                        1610   -4.15  -18.77  1.0000
  22 -24  10    4466     218                                                        3785  -10.91    2.03  1.0000
  24  10 -22    4340     157                                                        3709  -10.26    3.87  1.0000
  24  10 -20    1826     137                                                        1174   21.35   26.73  1.0000
  24 -10  18    4404     147                                                        3720   10.52    3.99  1.0000
  24  10 -18    4287     183                                                        3580   11.37    2.14  1.0000
  24  10 -16    1629     181                                                        2180   -4.31   12.89  1.0000
  24 -10  16    1630     140                                                        2182   -6.15   11.60  1.0000
  24  10 -14    7790     265                                                        7415   -7.05    9.74  1.0000
  24 -10  14    7493     242                                                        7165   -6.11    8.13  1.0000
  24 -10  12     181     143                                                         271    6.16   36.15  1.0000
  24  10 -12     339     177                                                         641    7.21   37.18  1.0000
  24 -10  10     319     165                                                         818  -10.65   25.60  1.0000
  24 -10   8    1185     170                                                         614    1.95   20.51  1.0000
  24  10  -8    1403     162                                                         791    3.26   20.19  1.0000
  24 -10   6     858     178                                                        1528  -27.26   -5.49  1.0000
  24  10  -6    1094     150                                                        1858  -25.39   -7.21  1.0000
  24  10  -4     243     117                                                         207  -14.83   30.97  1.0000
  24 -10   4     304     184                                                         -21  -16.11   31.94  1.0000
  24 -10   2    3760     250                                                        5948  -32.76   -4.64  1.0000
  24  10  -2    3921     204                                                        6104  -32.13   -4.58  1.0000
  24  10   0   19901     560                                                       21313   10.09    0.69  1.0000
  24 -10  -2    3345     251                                                        5359  -32.11    3.80  1.0000
  24  10   2    3549     184                                                        5638  -32.42    3.81  1.0000
  24  10   4     429      97                                                         523  -13.97  -32.61  1.0000
  24 -10  -4     365     195                                                         443  -14.88  -30.96  1.0000
  24 -10  -6    3037     222                                                        4256  -24.11    7.76  1.0000
  24  10   6    3071     151                                                        4437  -28.58    6.68  1.0000
  24  10   8    2733      96                                                        1814    2.03  -20.75  1.0000
  24 -10  -8    2715     193                                                        1830    1.78  -19.93  1.0000
  24 -10 -10     964     187                                                        1757   -8.04  -27.81  1.0000
  24 -10 -12    1848     176                                                        2838    8.51  -37.52  1.0000
  24 -10 -16    2251     152                                                        2911   -4.81  -13.00  1.0000
  22 -24  12     459     184                                                         649   12.36    1.26  1.0000
  24  12 -22     329     113                                                         485   11.04    1.93  1.0000
  24  12 -20    1421     142                                                        1215   16.83   -3.75  1.0000
  24 -12  18    2214     121                                                        1437  -20.54   -4.21  1.0000
  24  12 -18    2259     159                                                        1461  -21.44   -5.59  1.0000
  24  12 -16     226     167                                                         191    5.54  -13.00  1.0000
  24 -12  16     303     138                                                         251    6.49  -11.94  1.0000
  24 -12  14    6444     228                                                        6224  -13.48  -37.98  1.0000
  24  12 -14    6533     250                                                        6288  -13.07  -35.46  1.0000
  24 -12  12     967     165                                                         767  -17.12   -4.61  1.0000
  24 -12  10    3242     190                                                        2356   15.60    9.97  1.0000
  24  12  -8    1157     166                                                        1490   29.54  -12.86  1.0000
  24 -12   8    1173     187                                                        1564   28.93  -10.23  1.0000
  24 -12   6    5637     266                                                        6733   -3.63   40.18  1.0000
  24  12  -6    5380     228                                                        6433   -2.95   38.69  1.0000
  24 -12   4      12     197                                                         157   15.09   11.00  1.0000
  24  12  -4      13     124                                                         159   15.98    9.55  1.0000
  24  12  -2    7393     202                                                        6145   15.01   14.22  1.0000
  24  12   0    5931     258                                                        8838   34.87    1.59  1.0000
  24 -12  -2    6343     260                                                        5197   14.93  -13.15  1.0000
  24  12   2    6790     183                                                        5638   14.37  -15.97  1.0000
  24 -12  -4     341     199                                                         744   15.11   -9.89  1.0000
  24  12   4     399     101                                                         844   15.66  -10.05  1.0000
  24 -12  -6    7462     306                                                        8600   -4.79  -38.55  1.0000
  24  12   6    7038     236                                                        8195   -4.41  -39.24  1.0000
  24 -12  -8    1140     204                                                        1486   28.82   11.50  1.0000
  24 -12 -10    4787     210                                                        3673   15.92  -10.24  1.0000
  24 -12 -12    1222     168                                                         990  -16.73    5.06  1.0000
  24 -12 -16      52     108                                                         -19    6.10   13.55  1.0000
  22 -24  14     343     166                                                         659    2.64   15.45  1.0000
  24  14 -20    1398     142                                                        1619  -11.51   -9.59  1.0000
  24 -14  18    8058     274                                                        9448    9.69   18.95  1.0000
  24  14 -18    7373     296                                                        8635    9.72   16.57  1.0000
  24 -14  16    3056     173                                                        3430   -5.68   -4.71  1.0000
  24  14 -16    3212     184                                                        3548   -5.79   -1.30  1.0000
  24 -14  14   10160     323                                                       10330  -17.08  -25.79  1.0000
  24  14 -14   10452     327                                                       10563  -15.65  -24.50  1.0000
  24 -14  12     755     179                                                        1258  -16.19    3.65  1.0000
  24 -14  10     619     177                                                         -31  -49.64   11.87  1.0000
  24  14 -10     490     169                                                          10  -50.25   12.47  1.0000
  24  14  -8    7702     286                                                        9257    3.20  -32.81  1.0000
  24 -14   8    7170     311                                                        8658    4.93  -34.73  1.0000
  24  14  -6    6329     265                                                        8215  -24.69   -0.99  1.0000
  24 -14   6    6529     301                                                        8355  -24.22    0.42  1.0000
  24 -14   4    1234     222                                                        1990   12.18  -41.96  1.0000
  24  14  -4    1162     130                                                        1829   10.83  -41.98  1.0000
  24  14  -2    2277     121                                                         677  -43.01  -28.11  1.0000
  24  14   0    2437     141                                                        2979   10.70    0.33  1.0000
  24 -14   0    2672     241                                                        3298   11.76   -0.22  1.0000
  24 -14  -2     894     218                                                          39  -42.47   28.84  1.0000
  24  14   2    1667     100                                                         344  -43.13   27.47  1.0000
  24  14   4    2925     146                                                        4136   10.62   41.56  1.0000
  24 -14  -4    2899     257                                                        4210   11.90   42.98  1.0000
  24  14   6    4833     185                                                        6401  -23.57    0.59  1.0000
  24 -14  -6    4224     267                                                        5803  -25.37    0.13  1.0000
  24 -14  -8    3686     243                                                        4738    3.47   33.58  1.0000
  24 -14 -10     230     174                                                         113  -49.40  -15.32  1.0000
  24 -14 -12     239     167                                                         567  -16.87   -3.95  1.0000
  22 -24  16      41     133                                                          -9   11.95    5.38  1.0000
  16 -22  24       6      95                                                          19   11.86    5.48  1.0000
  24 -16  20     871     102                                                         779    2.43   -9.66  1.0000
  20 -24  16     961     165                                                         862    2.56   -9.52  1.0000
  24 -16  18    1563     133                                                        1906   18.64    3.93  1.0000
  24  16 -18    1624     156                                                        1915   17.29    2.92  1.0000
  24 -16  16    4681     191                                                        4297   -0.66  -11.22  1.0000
  24  16 -16    4523     201                                                        4119    0.12  -10.81  1.0000
  24 -16  14    4415     188                                                        3659   -7.37  -20.44  1.0000
  24 -16  12    6137     250                                                        6327    1.61  -14.76  1.0000
  24 -16  10    5954     235                                                        4919  -17.47    5.27  1.0000
  24  16 -10    5281     206                                                        4327  -16.54    3.80  1.0000
  24  16  -8    2342     173                                                        2801    7.14    6.17  1.0000
  24 -16   8    2323     219                                                        2794    7.30    6.36  1.0000
  16   8 -24    2571     133                                                        3078    7.64    6.38  1.0000
  24  16  -6    1129     132                                                         322  -28.00   26.88  1.0000
  24 -16   6    1277     214                                                         410  -28.73   27.89  1.0000
  16   6 -24    1390      92                                                         486  -27.95   27.14  1.0000
  24  16  -4    2207     142                                                        2197    0.09    0.58  1.0000
  24  16  -2    3141     173                                                        4575  -24.20   -9.30  1.0000
  24  16   0     312     113                                                         890   24.98   -0.22  1.0000
  24 -16   0     387     238                                                        1031   25.52    0.37  1.0000
  24 -16  -2    3741     271                                                        5250  -23.55    9.54  1.0000
  24  16   2    3180     165                                                        4657  -24.70    8.59  1.0000
  24  16   4    3751     137                                                        3798    2.02   -1.93  1.0000
  24 -16  -4    4108     255                                                        4143    2.10   -2.50  1.0000
  24 -16  -6     753     210                                                         130  -27.24  -27.68  1.0000
  24 -16  -8    2383     213                                                        2891    7.24   -7.17  1.0000
  24 -16 -10    4052     210                                                        3230  -17.42   -6.53  1.0000
  24 -16 -12    8973     300                                                        9302    2.45   15.77  1.0000
  22 -24  18    4012     160                                                        4234    1.28    3.94  1.0000
  24 -18  20    1026      94                                                         930   -4.32   11.48  1.0000
  20 -24  18    1004     138                                                         904   -4.51   11.52  1.0000
  24 -18  18      85     125                                                          93    7.66   -4.71  1.0000
  24 -18  16     195     147                                                         -45   22.18   18.08  1.0000
  24  18 -16       2     149                                                         163   22.13   17.94  1.0000
  24 -18  14    1101     171                                                        1456    9.14  -14.81  1.0000
  24 -18  12   12065     368                                                       12301    3.90   23.29  1.0000
  24  18 -12   11306     358                                                       11680    2.53   23.65  1.0000
  24 -18  10     129     193                                                         863  -38.40   13.11  1.0000
  24  18 -10     135     153                                                         854  -37.60   12.65  1.0000
  24 -18   8    2278     216                                                        1907   -1.59  -11.23  1.0000
  18   8 -24    2026     117                                                        1676   -0.53  -12.60  1.0000
  24  18  -8    1894     153                                                        1561   -0.92  -11.84  1.0000
  24  18  -6    2278     133                                                        1023  -35.48   -4.26  1.0000
  24 -18   6    2222     222                                                        1039  -34.31   -2.94  1.0000
  18   6 -24    2303     103                                                        1083  -34.24   -3.65  1.0000
  24  18  -4    1109     130                                                         373    4.61  -29.78  1.0000
  24 -18   2    5071     286                                                        5588  -19.15   -3.20  1.0000
  24  18  -2    5321     192                                                        5809  -20.38   -4.76  1.0000
  24 -18   0   13431     527                                                       17538   33.93   -0.52  1.0000
  24  18   0   13850     475                                                       18039   34.11    0.55  1.0000
  24 -18  -2    4729     274                                                        5039  -18.69    6.14  1.0000
  24  18   2    5259     176                                                        5593  -17.36    5.18  1.0000
  24  18   4    1627      86                                                         695    5.52   29.43  1.0000
  24 -18  -4    1214     224                                                         446    4.99   29.01  1.0000
  24 -18  -6    1876     214                                                         788  -34.18    3.97  1.0000
  24 -18  -8    3339     212                                                        2927   -0.29   11.77  1.0000
  24 -18 -10    2003     215                                                        4041  -38.22  -13.17  1.0000
  24 -18 -12   15244     439                                                       15602    3.01  -22.49  1.0000
  22 -24  20     127      82                                                         269   18.53   11.43  1.0000
  24 -20  20    1164      88                                                        1062    2.97  -17.02  1.0000
  20 -24  20    1329     110                                                        1221    3.09  -16.27  1.0000
  24 -20  18    1294     126                                                        1413   -4.88    8.14  1.0000
  18 -24  20    1325     133                                                        1441   -5.07    8.15  1.0000
  24 -20  16    2725     160                                                        2658    4.80    4.27  1.0000
  24 -20  14    2396     180                                                        2716   13.78  -21.15  1.0000
  24 -20  12      95     176                                                         181  -28.12    6.57  1.0000
  24  20 -12      97     145                                                          60  -28.43    6.08  1.0000
  24 -20  10    1565     206                                                        1638   -2.49  -21.73  1.0000
  20  10 -24    1387     115                                                        1470   -2.31  -23.62  1.0000
  24  20 -10    1425     153                                                        1511   -2.30  -23.45  1.0000
  24 -20   8    2027     220                                                        2132    1.63   -1.82  1.0000
  20   8 -24    1941     117                                                        2041    1.58   -1.76  1.0000
  24  20  -8    1964     144                                                        2118    2.44   -2.65  1.0000
  20   6 -24    2690     122                                                        2666   -0.77   13.03  1.0000
  24  20  -6    2781     140                                                        2710    0.01   15.28  1.0000
  24  20  -4    3285     140                                                        2699  -17.31   -2.94  1.0000
  20   4 -24    3169     113                                                        2597  -17.69   -2.67  1.0000
  24 -20   2    5925     257                                                        4575   14.96   12.59  1.0000
  24  20  -2    6125     174                                                        4913   12.66   11.80  1.0000
  24 -20   0     997     225                                                        1219    6.86    0.50  1.0000
  24  20   0    1109     109                                                        1396    8.33    0.30  1.0000
  24 -20  -2    5319     259                                                        4152   13.61  -11.46  1.0000
  24  20   2    5463     146                                                        4319   13.03  -11.23  1.0000
  24 -20  -4    1411     223                                                        1062  -17.60    1.37  1.0000
  24 -20  -6    3810     229                                                        3747   -0.10  -14.07  1.0000
  24 -20  -8    2331     197                                                        2465    3.47   -0.10  1.0000
  24 -20 -10    1021     166                                                        1065   -2.44   22.86  1.0000
  24 -20 -12     141     131                                                         321  -26.76   -7.18  1.0000
  24 -22  20      62      73                                                         180   17.39   -7.00  1.0000
  20 -24  22      62      73                                                         180   17.74   -6.74  1.0000
  24 -22  18    4369     155                                                        4429    1.06    5.58  1.0000
  18 -24  22    4306     152                                                        4352    0.87    6.28  1.0000
  24 -22  16    5289     170                                                        4005   22.61   20.89  1.0000
  24 -22  14    3264     173                                                        3070    4.45    0.38  1.0000
  24 -22  12     847     166                                                         947   -4.22    4.26  1.0000
  24 -22  10    2440     196                                                        2324    0.09    7.16  1.0000
  24 -22   8    7937     253                                                        6130   24.16    9.12  1.0000
  22   8 -24    7343     180                                                        5516   25.52    9.41  1.0000
  24  22  -6     657     115                                                        1094   15.26   30.84  1.0000
  22   6 -24     610      94                                                        1068   13.19   31.04  1.0000
  24 -22   4    5093     279                                                        6505   30.88  -13.14  1.0000
  24  22  -4    5330     210                                                        6777   30.60  -12.69  1.0000
  22   4 -24    5403     197                                                        6779   29.91  -13.50  1.0000
  24 -22   2    1995     211                                                        1523    9.48   16.23  1.0000
  24  22  -2    2105     109                                                        1649    9.11   15.25  1.0000
  24 -22   0     321     213                                                           1   39.07   -0.68  1.0000
  24 -22  -2    1841     209                                                        1437    8.93  -14.44  1.0000
  24 -22  -4    5117     271                                                        6479   29.77   12.64  1.0000
  24 -22  -6    1478     192                                                        2243   12.98  -30.30  1.0000
  24 -22  -8    5805     204                                                        4265   24.21   -8.92  1.0000
  24 -22 -10    2709     161                                                        2602    0.51   -7.45  1.0000
  24 -24  18     634      85                                                         743   -4.12    2.80  1.0000
  24 -24  16     710     105                                                         510    3.74   10.08  1.0000
  16 -24  24     606      81                                                         430    3.42    9.79  1.0000
  24 -24  14    3712     168                                                        3492   -3.70    1.43  1.0000
  24 -24  12    1214     154                                                         832   12.52   -4.34  1.0000
  24 -24  10     537     170                                                         697   -6.97   -3.82  1.0000
  24   8 -24    1503      93                                                        1309    2.15   -5.80  1.0000
  24   6 -24    8869     214                                                        7491  -15.03    8.00  1.0000
  24 -24   4    1939     194                                                        2198   15.82   -2.39  1.0000
  24   4 -24    1824      99                                                        2116   14.89   -3.60  1.0000
  24 -24   2    2545     204                                                        1929   10.17   10.54  1.0000
  24 -24   0    6417     245                                                        5909   -6.64    0.46  1.0000
  24 -24  -2    2257     177                                                        1675    9.79  -11.80  1.0000
  24 -24  -4    1371     180                                                        1573   14.75    2.42  1.0000
  24 -24  -6    6132     212                                                        5025  -16.27   -6.45  1.0000
  24 -24  -8     550     135                                                         437    1.42    5.52  1.0000
  23 -25   1     867     190                                                         827  -11.67  -10.14  1.0000
  25   1 -21    7262     242                                                        8308    9.84  -23.15  1.0000
  21 -25   1    6946     304                                                        7997   10.23  -22.71  1.0000
  19 -25   1     451     205                                                         233   31.51  -10.13  1.0000
  25   1 -19     684     118                                                         472   31.88   -9.61  1.0000
  25   1 -17     482     139                                                         162   21.18  -15.93  1.0000
  25   1 -15   14032     444                                                       15867   19.51   16.21  1.0000
  25   1 -13    5335     245                                                        6722   13.68  -19.27  1.0000
  25  -1  13    4813     201                                                        6148   13.81  -19.63  1.0000
  25   1 -11    1763     180                                                        1646   10.58   11.17  1.0000
  25  -1  11    1421     123                                                        1324   10.98   10.98  1.0000
  25   1  -9    5218     206                                                        4479  -13.04   -1.61  1.0000
  25  -1   9    4574     167                                                        3955  -10.43    0.91  1.0000
  25  -1   7   55332    1421                                                       55300    2.47   -5.98  1.0000
  25  -1   5    4273     199                                                        5493   42.42   23.38  1.0000
  25  -1   3    3210     168                                                        3284   -0.15  -16.40  1.0000
  25   1  -3    3605     186                                                        3687   -0.47  -18.30  1.0000
  25  -1   1   13707     397                                                       14638    9.53    1.56  1.0000
  25   1  -1   12781     398                                                       13693    9.53    1.30  1.0000
  25  -1  -1   18143     513                                                       19046    8.19   -1.59  1.0000
  25   1   1   17717     508                                                       18708    9.38   -2.45  1.0000
  25  -1  -3    4216     202                                                        4414    1.24   17.81  1.0000
  25   1   3    4311     180                                                        4497    0.34   21.36  1.0000
  25   1   5    4147     195                                                        5256   44.58  -22.21  1.0000
  25   1   7   50951    1301                                                       50624    0.05    3.81  1.0000
  25   1   9    5409     174                                                        4691  -11.67    0.15  1.0000
  25  -1 -11    2162     179                                                        2110   11.88  -10.12  1.0000
  25   1  11    2366     126                                                        2265   10.54  -10.38  1.0000
  25  -1 -13    6149     263                                                        7609   13.08   20.13  1.0000
  25  -1 -15   11334     372                                                       13033   20.23  -17.25  1.0000
  25  -1 -17    2256     143                                                        1617   21.49   17.03  1.0000
  19 -25  -1     542     194                                                         334   31.64   10.29  1.0000
  25  -1 -19     642     120                                                         417   32.86    9.43  1.0000
  21 -25  -1    8817     336                                                        9888    8.89   23.24  1.0000
  25  -1 -21    9099     280                                                       10091    8.08   21.79  1.0000
  23 -25  -1     953     178                                                         901  -11.58    9.44  1.0000
  25   3 -23     298      77                                                         143   -0.35   10.89  1.0000
  23 -25   3     371     187                                                         183    0.22   11.81  1.0000
  25   3 -21    1038     113                                                         898    2.51   17.95  1.0000
  21 -25   3     809     205                                                         667    2.52   19.07  1.0000
  25   3 -19   10245     338                                                       11920  -18.60   35.78  1.0000
  25   3 -17    4644     200                                                        4847    6.85   24.14  1.0000
  25   3 -15     371     157                                                         403    9.32   23.19  1.0000
  25  -3  13     172     118                                                         676   20.28   27.38  1.0000
  25   3 -13     238     169                                                         781   22.23   26.10  1.0000
  25  -3  11   30114     786                                                       29373   -3.60   -9.04  1.0000
  25   3 -11   31929     798                                                       31271   -2.86  -10.56  1.0000
  25   3  -9    3185     202                                                        3970   13.38  -13.12  1.0000
  25  -3   9    2868     166                                                        3649   12.87  -13.74  1.0000
  25  -3   7    3041     160                                                        2937   -0.83    3.61  1.0000
  25  -3   5    6554     231                                                        7083    4.42  -11.87  1.0000
  25   3  -5    6260     242                                                        6810    4.64  -12.86  1.0000
  25  -3   3   32076     952                                                       36563   25.86    1.58  1.0000
  25  -3   1     973     152                                                        1305   -0.40  -19.47  1.0000
  25  -3  -1    1017     162                                                        1424   -1.90   20.48  1.0000
  25   3   3   33966    1007                                                       38885   26.82    1.40  1.0000
  25  -3  -5    5010     248                                                        5579    5.40   14.56  1.0000
  25   3   5    6614     222                                                        7264    5.55   13.42  1.0000
  25   3   7    2416     135                                                        2297    0.80   -2.79  1.0000
  25  -3  -7    2347     196                                                        2233    0.01   -3.49  1.0000
  25  -3 -13    1534     180                                                        2874   22.16  -27.22  1.0000
  25  -3 -15     597     147                                                         725    7.26  -22.68  1.0000
  17 -25  -3    7168     294                                                        7508    7.58  -25.18  1.0000
  25  -3 -17    7686     249                                                        8060    7.69  -24.39  1.0000
  19 -25  -3    6427     291                                                        7656  -19.10  -35.57  1.0000
  25  -3 -19    6913     243                                                        8281  -17.82  -35.74  1.0000
  25  -3 -21    1589     100                                                        1492    3.98  -17.37  1.0000
  21 -25  -3    1532     186                                                        1385    2.79  -18.18  1.0000
  23 -25  -3     533     176                                                         306    0.20  -11.50  1.0000
  23 -25   5    5813     236                                                        5049    9.76   -4.34  1.0000
  25   5 -23    5855     163                                                        5100   10.07   -3.45  1.0000
  25   5 -21      75     107                                                         119   -8.48   35.27  1.0000
  21 -25   5     305     208                                                         -43   -9.46   34.53  1.0000
  25   5 -19    3452     154                                                        2995   -4.94    7.32  1.0000
  25   5 -17   10122     319                                                       10476   13.50   35.65  1.0000
  25  -5  15     218     106                                                         213    8.64  -28.31  1.0000
  25   5 -15     198     155                                                         159    9.07  -30.20  1.0000
  25  -5  13    2778     141                                                        2688    6.68    1.14  1.0000
  25   5 -13    2793     181                                                        2735    7.01    1.99  1.0000
  25  -5  11    4388     208                                                        6005   23.07    2.04  1.0000
  25   5 -11    4022     229                                                        5572   23.03    2.03  1.0000
  25  -5   9      20     130                                                          12   -5.33  -15.23  1.0000
  25  -5   7    2256     171                                                        3411   21.96    4.74  1.0000
  25  -5   5    3903     160                                                        1865   39.13   15.00  1.0000
  25   5  -5    4829     163                                                        2482   40.03   16.12  1.0000
  25   5  -3    4110     163                                                        2868    6.22  -27.64  1.0000
  25  -5   3    4537     180                                                        3271    7.78  -27.69  1.0000
  25  -5   1    5127     211                                                        4999   14.85   16.78  1.0000
  25   5  -1    5557     195                                                        5526   14.81   18.88  1.0000
  25  -5  -1    9066     294                                                        8906   15.10  -16.57  1.0000
  25   5   1    9062     269                                                        8938   16.00  -18.22  1.0000
  25   5   3    3953     131                                                        2732    6.19   27.71  1.0000
  25  -5  -5    4061     191                                                        1988   38.84  -15.87  1.0000
  25   5   7    3341     167                                                        4851   23.69   -5.71  1.0000
  25  -5  -7    3284     222                                                        4702   22.44   -5.69  1.0000
  25  -5  -9     264     184                                                         607   -7.71   15.42  1.0000
  25   5   9     154      97                                                         439   -7.16   16.10  1.0000
  25  -5 -13    3134     186                                                        3079    7.32   -2.23  1.0000
  15 -25  -5     170     186                                                         108    9.07   28.40  1.0000
  25  -5 -15     385     146                                                         500    9.23   29.84  1.0000
  17 -25  -5   10941     363                                                       11322   13.71  -36.75  1.0000
  25  -5 -17   11422     332                                                       11817   13.63  -36.43  1.0000
  19 -25  -5    2015     186                                                        1684   -4.66   -7.01  1.0000
  25  -5 -19    2066     112                                                        1721   -4.51   -7.28  1.0000
  21 -25  -5      51     172                                                         337   -8.19  -34.40  1.0000
  23 -25  -5    7391     232                                                        6507    9.88    4.63  1.0000
  25   7 -23    1077      99                                                        1184    1.05  -20.30  1.0000
  25   7 -21    5480     203                                                        6091    6.79  -15.75  1.0000
  25   7 -19    4001     172                                                        3997    0.16    1.16  1.0000
  25   7 -17     521     155                                                         850  -12.11    4.76  1.0000
  25  -7  15    5860     181                                                        5353  -16.92   -2.51  1.0000
  25   7 -15    5406     225                                                        4902  -18.00   -2.47  1.0000
  25  -7  13     283     126                                                         315   11.45    1.96  1.0000
  25   7 -13     208     171                                                         224   12.49    2.82  1.0000
  25  -7  11   15122     466                                                       16706  -12.74  -18.06  1.0000
  25   7 -11   15439     475                                                       17041  -12.79  -15.71  1.0000
  25  -7   9    8561     249                                                        7278   -1.12  -69.29  1.0000
  25  -7   7   11297     401                                                       14533   24.05  -27.22  1.0000
  25   7  -7   10319     400                                                       13383   23.70  -27.37  1.0000
  25  -7   5   12067     294                                                        8959   26.21  -30.71  1.0000
  25   7  -5   12068     275                                                        8906   27.00  -29.34  1.0000
  25   7  -3    7588     253                                                        7855    8.99  -20.49  1.0000
  25  -7   3    7407     266                                                        7571   10.58  -20.81  1.0000
  25   7  -1    9457     299                                                       10265    9.01   -9.06  1.0000
  25  -7   1    9433     325                                                       10264    9.34  -10.27  1.0000
  25   7   1   11077     337                                                       11965    9.12    8.91  1.0000
  25  -7  -3    4454     236                                                        4671    7.57   19.29  1.0000
  25   7   3    5872     193                                                        6138    7.22   18.80  1.0000
  25  -7  -5   13370     344                                                       10108   26.35   28.76  1.0000
  25   7   5   14320     304                                                       11028   25.34   29.86  1.0000
  25  -7  -7   14422     517                                                       18094   23.69   29.49  1.0000
  25   7   7   14626     483                                                       18239   23.19   28.89  1.0000
  25   7   9   12012     293                                                       10858   -2.70   69.29  1.0000
  25  -7  -9   10820     341                                                        9702   -2.89   67.63  1.0000
  25  -7 -11   16037     503                                                       17698  -13.00   16.15  1.0000
  13 -25  -7      32     152                                                          11   12.05   -1.66  1.0000
  25  -7 -15    2503     155                                                        2137  -19.05    2.31  1.0000
  15 -25  -7    2602     175                                                        2208  -20.50    2.41  1.0000
  17 -25  -7    1781     179                                                        2385  -12.87   -4.46  1.0000
  25  -7 -17    2018     141                                                        2631  -12.84   -2.75  1.0000
  19 -25  -7    3714     195                                                        3734   -0.19   -1.99  1.0000
  25  -7 -19    3779     141                                                        3813   -0.42   -2.05  1.0000
  21 -25  -7    6993     262                                                        7665    6.43   16.54  1.0000
  23 -25  -7    1652     148                                                        1807    1.12   20.07  1.0000
  25   9 -23    2099     117                                                        2310   -5.35    4.04  1.0000
  25   9 -21     432     119                                                         614   -2.24   21.73  1.0000
  25   9 -19    1044     154                                                        1902   -0.73   38.61  1.0000
  25   9 -17    1822     165                                                        1906    3.35   -7.77  1.0000
  25  -9  17    1571     119                                                        1655    2.60   -7.11  1.0000
  25  -9  15     329     120                                                         356   15.74   40.86  1.0000
  25   9 -15     325     165                                                         330   17.34   43.30  1.0000
  25  -9  13      22     139                                                          83    7.24   23.29  1.0000
  25   9 -13      44     172                                                         247   10.54   23.80  1.0000
  25  -9  11    2593     160                                                        1805    5.91  -22.82  1.0000
  25  -9   9    3041     168                                                        1917   24.52   -2.11  1.0000
  25  -9   7     962     184                                                        1841   29.06  -15.40  1.0000
  25   9  -7    1153     164                                                        2107   28.12  -15.69  1.0000
  25   9  -5      96     142                                                         760  -29.80  -26.26  1.0000
  25  -9   5      35     179                                                         525  -29.93  -24.72  1.0000
  25   9  -3     207     131                                                         467   58.44   -1.09  1.0000
  25  -9   3     196     181                                                         509   59.00   -3.50  1.0000
  25  -9   1    1537     194                                                        1958   -6.14  -41.38  1.0000
  25   9  -1    1257     132                                                        1550   -4.97  -41.29  1.0000
  25   9   1    2461     145                                                        3127   -6.67   41.35  1.0000
  25  -9  -3     211     193                                                         728   57.56   -0.88  1.0000
  25   9   3     209     111                                                         495   59.06   -0.91  1.0000
  25  -9  -5     115     210                                                         824  -29.82   26.97  1.0000
  25   9   5     100     108                                                         807  -31.37   25.08  1.0000
  25  -9  -7    1128     205                                                        2101   29.15   15.95  1.0000
  25   9   7    1066     109                                                        2013   28.56   16.19  1.0000
  25  -9  -9    5287     221                                                        3670   26.14    1.73  1.0000
  25  -9 -11    1319     185                                                         810    6.49   21.10  1.0000
  25  -9 -15     306     133                                                         178   17.99  -40.85  1.0000
  25  -9 -17    1173     122                                                        1225    3.17    6.94  1.0000
  23 -25  11    4332     204                                                        4916   -7.87    6.65  1.0000
  25  11 -23    3858     154                                                        4429   -8.23    6.32  1.0000
  21 -25  11    7558     284                                                        7994    0.98  -21.66  1.0000
  25  11 -21    7301     238                                                        7659    1.74  -21.37  1.0000
  25  11 -19    3006     160                                                        2920   -1.93   11.75  1.0000
  25  11 -17     508     155                                                         571   -0.91   -9.26  1.0000
  25 -11  17     459     115                                                         489   -1.56   -7.40  1.0000
  25  11 -15    5078     239                                                        5695   -7.68   -7.75  1.0000
  25 -11  15    5288     209                                                        5823   -6.11   -9.96  1.0000
  25  11 -13   22205     580                                                       21058   11.86  -10.04  1.0000
  25 -11  13   22572     578                                                       21554   10.76   -9.81  1.0000
  25 -11  11     443     168                                                         629  -13.26   22.51  1.0000
  25 -11   9    6104     259                                                        7204   18.61  -66.23  1.0000
  25  11  -9    5522     249                                                        6592   17.82  -66.87  1.0000
  25 -11   7   15739     498                                                       18236  -14.94   18.41  1.0000
  25  11  -7   14891     486                                                       17170  -14.69   15.22  1.0000
  25 -11   5    2059     194                                                        1282   -7.31  -23.17  1.0000
  25  11  -5    2022     146                                                        1229   -7.48  -23.97  1.0000
  25 -11   3   11817     349                                                       10830  -13.24   23.99  1.0000
  25  11  -3   11308     305                                                       10244  -14.11   23.37  1.0000
  25  11  -1   11132     311                                                       10956   -1.70  -29.17  1.0000
  25 -11  -1    9179     341                                                        9128   -3.12   29.57  1.0000
  25  11   1   10805     292                                                       10660   -2.14   30.57  1.0000
  25 -11  -3   12048     366                                                       11177  -11.68  -22.21  1.0000
  25  11   3   11481     298                                                       10498  -13.72  -26.08  1.0000
  25 -11  -5    4558     237                                                        3367   -6.31   23.06  1.0000
  25  11   5    4772     138                                                        3522   -7.37   24.10  1.0000
  25 -11  -7   22012     686                                                       24725  -14.28  -15.51  1.0000
  25  11   7   22373     649                                                       25141  -14.35  -16.01  1.0000
  25 -11  -9    2551     208                                                        2873   17.39   65.87  1.0000
  25 -11 -11     348     174                                                         454  -11.30  -24.26  1.0000
  25 -11 -15    4905     203                                                        5481   -7.04    9.39  1.0000
  25 -11 -17     333     107                                                         374   -0.91    8.30  1.0000
  23 -25  13    3268     175                                                        3014    4.93   -0.88  1.0000
  21 -25  13     794     181                                                         702   -3.65    1.02  1.0000
  25  13 -21     522     119                                                         477   -2.52    2.53  1.0000
  25 -13  19    1627     121                                                        2409  -16.97    5.92  1.0000
  25  13 -19    1940     156                                                        2721  -15.68    5.65  1.0000
  25 -13  17   11165     300                                                       10393   10.32    9.75  1.0000
  25  13 -17   10678     311                                                        9943    9.85    8.77  1.0000
  25 -13  15    4532     189                                                        4129    4.72  -19.03  1.0000
  25  13 -15    4219     204                                                        3912    5.15  -17.11  1.0000
  25 -13  13    2280     176                                                        2076    5.40    3.54  1.0000
  25 -13  11    1417     180                                                        1224   -6.74    1.41  1.0000
  25  13  -9     952     165                                                        1100   10.89   -7.92  1.0000
  25 -13   9    1062     188                                                        1252   10.95   -8.87  1.0000
  25  13  -7    1388     161                                                        1920   28.77   15.35  1.0000
  25 -13   7    1588     215                                                        2123   28.00   16.12  1.0000
  25  13  -5    5186     186                                                        4073   14.97   15.22  1.0000
  25 -13   5    5720     251                                                        4498   15.73   15.61  1.0000
  25 -13   3    5434     264                                                        5345   24.68  -36.57  1.0000
  25  13  -3    5513     199                                                        5456   24.33  -36.76  1.0000
  25  13  -1    5820     196                                                        5530   11.90    9.10  1.0000
  25 -13  -1    7945     310                                                        7645   11.60   -9.32  1.0000
  25  13   1    7402     224                                                        7099   10.51   -7.72  1.0000
  25  13   3    5080     167                                                        4948   23.96   34.77  1.0000
  25 -13  -3    4856     272                                                        4690   26.60   37.87  1.0000
  25 -13  -5    9246     312                                                        7726   15.28  -15.14  1.0000
  25  13   5    9603     231                                                        8025   15.75  -13.83  1.0000
  25 -13  -7    1552     220                                                        2086   27.30  -14.70  1.0000
  25 -13  -9     707     201                                                         838   12.66    8.46  1.0000
  25 -13 -11    1998     194                                                        1737   -7.82   -1.87  1.0000
  25 -13 -13    1307     169                                                        1188    6.95   -2.18  1.0000
  25 -13 -15    7926     244                                                        7613    6.40   17.31  1.0000
  23 -25  15     132     135                                                         181   -3.69    1.73  1.0000
  21 -25  15    3162     175                                                        3179    0.46    6.76  1.0000
  25 -15  19     563      97                                                         683   -6.25   -9.14  1.0000
  25  15 -19     497     131                                                         638   -7.70  -10.66  1.0000
  25 -15  17    2977     166                                                        3608   17.32  -22.98  1.0000
  25  15 -17    3193     190                                                        3868   15.74  -22.54  1.0000
  25 -15  15    7891     263                                                        8115   -8.71  -18.47  1.0000
  25  15 -15    7577     269                                                        7729   -8.51  -16.82  1.0000
  25 -15  13     362     166                                                         151   23.85   -4.93  1.0000
  25  15 -11    2402     185                                                        3530  -21.01    4.14  1.0000
  25 -15  11    2077     200                                                        3146  -21.29    3.86  1.0000
  25  15  -9     241     158                                                         225    8.10    9.42  1.0000
  25 -15   9      39     187                                                         -30    8.33    9.74  1.0000
  25  15  -7    4094     212                                                        5663    9.28   24.75  1.0000
  25 -15   7    4188     264                                                        5736    8.71   24.60  1.0000
  25  15  -5     449     140                                                         648    5.16   15.41  1.0000
  25 -15   5     404     215                                                         603    6.05   16.90  1.0000
  25  15  -3    4288     178                                                        4553   -6.58    6.61  1.0000
  25  15  -1     134     108                                                         -96  -12.72  -20.08  1.0000
  25 -15   1      66     235                                                         169  -12.63  -19.66  1.0000
  25  15   1     369     107                                                         734  -12.43   20.16  1.0000
  25 -15  -1     345     235                                                         684  -12.17   19.62  1.0000
  25  15   3    1662     112                                                        1862   -6.99   -4.92  1.0000
  25 -15  -3    1434     241                                                        1610   -6.71   -4.89  1.0000
  25  15   5    3060     133                                                        3635    6.48  -16.64  1.0000
  25 -15  -5    2739     259                                                        3348    5.04  -17.13  1.0000
  25 -15  -7    1987     236                                                        3041    8.20  -24.14  1.0000
  25 -15  -9    1021     199                                                        1045    8.12  -10.11  1.0000
  25 -15 -11    3268     216                                                        4597  -21.35   -5.28  1.0000
  25 -15 -13     702     158                                                         441   24.90    5.33  1.0000
  25 -15 -15    9491     287                                                        9694   -8.13   16.67  1.0000
  23 -25  17     180     100                                                         179   -3.54   10.95  1.0000
  21 -25  17      53     120                                                         135    7.22   -6.96  1.0000
  25 -17  19     938     106                                                        1199    4.60    6.93  1.0000
  19 -25  17    1158     164                                                        1445    4.67    6.83  1.0000
  25 -17  17     606     136                                                        1242   15.58  -18.21  1.0000
  25  17 -17     589     141                                                        1231   14.83  -20.77  1.0000
  25 -17  15    4558     181                                                        3424   18.76   -5.09  1.0000
  25 -17  13    1915     174                                                        1463    8.30  -11.29  1.0000
  25 -17  11    5340     232                                                        5127   -2.65    3.34  1.0000
  25  17 -11    4996     206                                                        4780   -2.73    3.99  1.0000
  25  17  -9      55     152                                                         166  -10.72    3.08  1.0000
  25 -17   9     176     207                                                         371  -11.78    3.57  1.0000
  25 -17   7    2615     235                                                        3278   11.78  -16.32  1.0000
  25  17  -7    3090     179                                                        3925   12.79  -18.43  1.0000
  25  17  -5     539     128                                                         203    3.39   18.51  1.0000
  25 -17   5     889     243                                                         417    5.13   19.64  1.0000
  25  17  -3    2299     160                                                        3893   28.88  -11.40  1.0000
  25 -17   1    3767     270                                                        3652   18.86    8.24  1.0000
  25  17  -1    3543     148                                                        3354   17.44    9.04  1.0000
  25 -17  -1    1611     244                                                        1472   18.62   -8.97  1.0000
  25  17   1    1788     114                                                        1657   18.58   -8.68  1.0000
  25 -17  -3    3585     278                                                        5477   30.74    7.81  1.0000
  25  17   3    3573     175                                                        5456   29.66    9.09  1.0000
  25 -17  -5     896     219                                                         422    5.91  -19.74  1.0000
  25 -17  -7    1014     204                                                        1396   13.52   16.28  1.0000
  25 -17  -9     709     199                                                        1027  -10.77   -2.76  1.0000
  25 -17 -11    9354     299                                                        9072   -2.56   -4.17  1.0000
  25 -17 -13    2533     158                                                        2019    7.86   12.21  1.0000
  23 -25  19      87      71                                                         109    9.94   19.09  1.0000
  21 -25  19      47     100                                                          39   20.87   17.00  1.0000
  25 -19  19    2018     112                                                        2065   -1.11   -2.93  1.0000
  19 -25  19    2032     145                                                        2072   -1.05   -2.60  1.0000
  25 -19  17    3782     177                                                        4633   11.59   -7.33  1.0000
  25 -19  15    1112     150                                                         909   12.26  -10.71  1.0000
  25 -19  13      20     173                                                         226   13.22  -24.34  1.0000
  25  19 -13     193     139                                                         692   13.01  -24.49  1.0000
  25 -19  11   16940     477                                                       16219   -6.88   50.50  1.0000
  25  19 -11   17563     456                                                       16941   -6.06   50.14  1.0000
  25 -19   9      26     182                                                         194  -35.61   -7.61  1.0000
  25  19  -9     312     137                                                         -32  -35.18   -8.75  1.0000
  25 -19   7    2944     234                                                        2600    5.28  -10.98  1.0000
  19   7 -25    2736     112                                                        2422    7.05  -11.70  1.0000
  25  19  -7    2878     143                                                        2556    5.63  -10.78  1.0000
  25  19  -5    1652     135                                                        1844    0.22   23.31  1.0000
  25 -19   3    8840     337                                                        8953   -0.36    6.79  1.0000
  25  19  -3    8844     261                                                        8912   -0.37    4.78  1.0000
  25  19  -1       3     107                                                          61   -2.48   14.75  1.0000
  25 -19   1      57     218                                                         -75   -3.73   14.98  1.0000
  25 -19  -1     713     230                                                        1175   -3.52  -15.69  1.0000
  25  19   1     698     103                                                        1164   -3.46  -15.94  1.0000
  25 -19  -3    8709     331                                                        8866    0.72   -4.42  1.0000
  25  19   3    8994     253                                                        9168    1.20   -3.12  1.0000
  25 -19  -5    2682     236                                                        2961   -0.41  -25.35  1.0000
  25 -19  -7    2960     197                                                        2608    5.74   11.47  1.0000
  25 -19  -9      17     172                                                         233  -34.80    8.49  1.0000
  25 -19 -11   19391     517                                                       18811   -5.70  -49.61  1.0000
  21 -25  21    6669     221                                                        7939   15.90    0.62  1.0000
  25 -21  19     924      83                                                         608   -2.96  -12.37  1.0000
  19 -25  21    1096      95                                                         753   -3.06  -12.23  1.0000
  25 -21  17     582     111                                                         309   13.33    2.15  1.0000
  17 -25  21     884     118                                                         533   13.51    1.72  1.0000
  25 -21  15   14276     397                                                       14209    7.55  -27.51  1.0000
  25 -21  13    3386     183                                                        3665   12.15   17.10  1.0000
  25 -21  11    3344     201                                                        3669   -6.13   -1.13  1.0000
  25  21 -11    3109     155                                                        3476   -6.98   -0.70  1.0000
  25 -21   9     562     191                                                         921    6.66   14.38  1.0000
  25  21  -9     586     124                                                         972    6.73   15.06  1.0000
  25 -21   7   18995     568                                                       20446    9.28   -6.79  1.0000
  21   7 -25   18347     534                                                       19696    8.71   -6.72  1.0000
  25  21  -7   20110     541                                                       21615    9.50   -6.25  1.0000
  25  21  -5     848     114                                                         687   18.12   27.43  1.0000
  25 -21   3    2247     219                                                        2055    1.85   10.91  1.0000
  25  21  -3    2413     126                                                        2188    1.43   11.32  1.0000
  25 -21   1   22357     626                                                       22453  -14.78   18.98  1.0000
  25  21  -1   22319     584                                                       22402  -13.85   17.78  1.0000
  25 -21  -1   12042     403                                                       12025  -14.01  -17.30  1.0000
  25  21   1   13151     347                                                       13153  -14.64  -18.28  1.0000
  25 -21  -3    1533     205                                                        1333    1.12  -11.73  1.0000
  25 -21  -5     771     191                                                         617   18.37  -26.78  1.0000
  25 -21  -7   22937     663                                                       24437    8.65    6.81  1.0000
  25 -21  -9     981     158                                                        1470    7.51  -15.07  1.0000
  25 -21 -11    3132     168                                                        3463   -6.22    0.32  1.0000
  25 -23  19      98      65                                                          82   12.62   13.18  1.0000
  25 -23  17    1131     101                                                        1323    6.80   -0.38  1.0000
  17 -25  23    1044      86                                                        1222    6.71   -0.15  1.0000
  25 -23  15    3240     159                                                        3856    9.50    7.06  1.0000
  25 -23  13    3066     167                                                        2847   -9.27    7.92  1.0000
  25 -23  11    3053     189                                                        4036   14.29   12.09  1.0000
  25 -23   9    6177     238                                                        6012  -12.44  -21.89  1.0000
  25 -23   5    3075     205                                                        2789    0.33   -6.46  1.0000
  25 -23   3    2542     213                                                        2601    1.78    2.44  1.0000
  25 -23   1     482     195                                                         551  -17.66    4.07  1.0000
  25 -23  -1     143     181                                                         146  -17.38   -4.60  1.0000
  25 -23  -3    1486     184                                                        1515    1.60   -3.56  1.0000
  25 -23  -5    1542     173                                                        1342    0.01    6.65  1.0000
  25 -23  -7    6016     244                                                        7184   15.74   -5.33  1.0000
  25 -23  -9    7417     239                                                        7298  -10.44   19.23  1.0000
  25 -25  17    3739     125                                                        3852   -0.61   -8.86  1.0000
  25 -25  15     550     102                                                         734   -7.38    2.20  1.0000
  25 -25  13    2615     134                                                        1902   21.76    8.44  1.0000
  25 -25  11    7465     260                                                        8246    9.46   -2.18  1.0000
  25 -25   9     523     146                                                         647   -5.06    1.55  1.0000
  25 -25   5    1096     170                                                        1796    5.07   21.00  1.0000
  25 -25   3   14609     434                                                       15100    5.63    8.81  1.0000
  25 -25   1     533     158                                                         645  -11.99    8.00  1.0000
  25 -25  -1     782     151                                                         916  -11.60   -7.63  1.0000
  25 -25  -3   16771     474                                                       17271    5.43   -8.97  1.0000
  25 -25  -5     774     140                                                        1352    5.42  -19.97  1.0000
  25 -25  -7     940     124                                                        1177   -7.66    7.82  1.0000
  26   0   0      91     153                                                         708  -34.98    0.64  1.0000
  26   0  -2     480     165                                                         303    9.22   -0.81  1.0000
  26   0   2     702     150                                                         489    8.98   -1.10  1.0000
  26   0   4    6472     184                                                        4208  -31.95    1.58  1.0000
  26   0   6    1346     147                                                        1685   -8.96   -1.35  1.0000
  26   0   8    3030     169                                                        3726  -12.31    1.75  1.0000
  26   0  -8    3224     209                                                        3979  -12.91   -1.20  1.0000
  26   0  10     541     120                                                        -117   47.72    0.28  1.0000
  26   0 -10     520     180                                                         -25   46.80    0.13  1.0000
  26   0  12     436     105                                                         390    2.31   -0.29  1.0000
  26   0 -12     548     180                                                         473    3.41   -0.44  1.0000
  26   0 -14    7223     237                                                        6446    9.64    0.54  1.0000
  26   0 -16    1865     169                                                        3222  -27.85   -0.22  1.0000
  26   0 -18    6071     181                                                        4890  -16.40    0.42  1.0000
  18 -26   0    5313     234                                                        4248  -15.84    0.87  1.0000
  26   0 -20     133     109                                                          38  -11.76   -2.84  1.0000
  20 -26   0      26     186                                                         -46  -10.42   -0.89  1.0000
  26   0 -22      20      78                                                          35   21.30    0.28  1.0000
  22 -26   0     102     170                                                         -41   20.70   -0.63  1.0000
  24 -26   0     509     156                                                        1106   21.95   -0.22  1.0000
  24 -26   2     919     165                                                        1162    2.53   12.01  1.0000
  22 -26   2    3323     197                                                        2691   11.65  -11.07  1.0000
  26   2 -22    3493     120                                                        2891   10.76  -10.06  1.0000
  26   2 -20    7987     241                                                        8288    5.00  -17.15  1.0000
  20 -26   2    7097     287                                                        7414    4.76  -17.64  1.0000
  26   2 -18     133     132                                                         312    3.23   16.23  1.0000
  26   2 -16     729     151                                                         785   14.72    0.66  1.0000
  26  -2  14     311     101                                                         510   -3.53    9.52  1.0000
  26   2 -14     313     160                                                         478   -0.51    8.69  1.0000
  26  -2  12     686     124                                                         705    7.21  -31.09  1.0000
  26   2 -12     775     164                                                         787    8.54  -31.85  1.0000
  26  -2  10    1200     142                                                        1516    6.90   11.34  1.0000
  26   2 -10    1743     168                                                        2147    5.93   11.66  1.0000
  26   2  -8    5543     202                                                        3590    5.83  -30.18  1.0000
  26  -2   8    4713     161                                                        3020    5.32  -28.50  1.0000
  26  -2   6    2831     152                                                        1997   31.22    8.72  1.0000
  26  -2   4    1635     152                                                        2377  -17.25   -0.88  1.0000
  26  -2   2    6545     227                                                        5913    8.16   -1.36  1.0000
  26  -2   0    2852     191                                                        3580  -13.20    1.01  1.0000
  26   2   2    9120     253                                                        8195    9.60    3.52  1.0000
  26  -2  -2    8150     266                                                        7252   10.27    2.29  1.0000
  26   2   4    2977     178                                                        3981  -17.83    2.40  1.0000
  26  -2  -6    3322     198                                                        2518   31.91   -6.67  1.0000
  26   2   6    3452     150                                                        2636   31.24   -6.82  1.0000
  26   2   8    3372     132                                                        1863    4.99   31.38  1.0000
  26  -2 -10     504     171                                                         763    5.97  -13.27  1.0000
  26  -2 -12    1140     165                                                        1225    8.03   31.35  1.0000
  26  -2 -14      11     149                                                          58   -2.40   -8.54  1.0000
  26  -2 -16    1231     149                                                        1304   15.84   -0.07  1.0000
  26  -2 -18     832     129                                                        1254    5.12  -16.83  1.0000
  18 -26  -2     684     192                                                        1063    4.53  -16.47  1.0000
  26  -2 -20    6094     195                                                        6328    5.12   16.83  1.0000
  20 -26  -2    5546     248                                                        5737    5.45   16.63  1.0000
  22 -26  -2    1718     175                                                        1253   12.05    9.42  1.0000
  24 -26  -2    1922     166                                                        2270    3.51  -12.54  1.0000
  24 -26   4     717     169                                                         785   19.03   16.63  1.0000
  22 -26   4    4170     231                                                        4465   -3.99   17.92  1.0000
  26   4 -22    4089     154                                                        4387   -3.40   17.03  1.0000
  26   4 -20    1177     123                                                        1166  -10.40   14.60  1.0000
  20 -26   4    1251     213                                                        1220  -10.94   16.66  1.0000
  26   4 -18    2410     180                                                        4180  -32.24   -2.53  1.0000
  26   4 -16    2101     157                                                        1835    6.04    3.68  1.0000
  26  -4  14    3324     138                                                        2849   -6.88  -38.92  1.0000
  26   4 -14    3548     184                                                        3109   -6.14  -38.46  1.0000
  26   4 -12    5428     240                                                        6138   -6.47    8.47  1.0000
  26  -4  12    5120     207                                                        5822   -6.69    8.38  1.0000
  26  -4  10    7457     216                                                        6326   13.72   -4.30  1.0000
  26   4 -10    7411     243                                                        6228   14.48   -3.85  1.0000
  26  -4   8    3902     205                                                        5345  -28.65   30.36  1.0000
  26  -4   6    6246     222                                                        6047   -3.73   -3.23  1.0000
  26   4  -6    6289     237                                                        6119   -3.39   -2.77  1.0000
  26  -4   4    8146     363                                                       12520  -43.48  -24.56  1.0000
  26   4  -4    7912     359                                                       12232  -43.38  -26.13  1.0000
  26  -4   2    1977     163                                                        1627    4.90    9.18  1.0000
  26   4  -2    1838     155                                                        1546    2.92   10.70  1.0000
  26  -4   0   20126     507                                                       18227  -14.08    2.29  1.0000
  26  -4  -6    4515     232                                                        4277   -4.43    4.42  1.0000
  26  -4  -8    2919     229                                                        4182  -30.70  -31.47  1.0000
  26   4  10    7360     196                                                        6257   13.52    3.32  1.0000
  26  -4 -12    7526     288                                                        8405   -6.80   -8.92  1.0000
  26  -4 -14    3624     184                                                        3175   -6.30   39.57  1.0000
  16 -26  -4    2860     200                                                        2626    4.53   -1.74  1.0000
  26  -4 -16    3195     163                                                        2901    5.37   -2.98  1.0000
  18 -26  -4    1777     200                                                        3321  -32.08    2.41  1.0000
  26  -4 -18    1852     151                                                        3435  -32.39    2.03  1.0000
  20 -26  -4    1874     183                                                        1829   -8.98  -14.64  1.0000
  26  -4 -20    1844     108                                                        1808   -9.40  -14.88  1.0000
  22 -26  -4    2417     181                                                        2638   -3.09  -16.65  1.0000
  24 -26  -4     644     138                                                         706   19.65  -17.33  1.0000
  24 -26   6     447     160                                                         165  -12.61   14.91  1.0000
  26   6 -24     325      69                                                         104  -11.15   15.34  1.0000
  22 -26   6    3242     201                                                        2566   15.50    1.04  1.0000
  26   6 -22    3186     118                                                        2559   14.67    1.32  1.0000
  20 -26   6    2140     211                                                        2127    4.21    1.34  1.0000
  26   6 -20    2034     134                                                        2003    3.92    0.78  1.0000
  26   6 -18    1513     166                                                        3141    2.99   35.10  1.0000
  26  -6  16    2519     122                                                        2368   -2.34   -4.06  1.0000
  26   6 -16    2476     183                                                        2334   -3.51   -4.30  1.0000
  26  -6  14     997     117                                                        1153   -3.21   -6.37  1.0000
  26   6 -14    1084     172                                                        1215   -2.44   -5.78  1.0000
  26  -6  12    1267     137                                                        1294   17.95  -18.64  1.0000
  26   6 -12    1311     177                                                        1344   17.61  -18.13  1.0000
  26  -6  10    6130     196                                                        5160  -18.28   13.27  1.0000
  26   6 -10    5502     220                                                        4584  -18.65   14.43  1.0000
  26  -6   8    7179     253                                                        7283   -0.72    2.24  1.0000
  26  -6   6    2650     173                                                        1892   43.29   -5.08  1.0000
  26   6  -6    2766     177                                                        1928   43.75   -3.48  1.0000
  26   6  -4    2238     162                                                        1955   -3.88    7.07  1.0000
  26  -6   4    2055     172                                                        1797   -3.65    6.85  1.0000
  26   6  -2    3534     165                                                        2647   33.35    5.32  1.0000
  26  -6   2    3716     193                                                        2837   34.35    4.48  1.0000
  26  -6   0    5421     241                                                        5724   -4.16    1.39  1.0000
  26   6   0    5007     198                                                        5352   -4.92    0.06  1.0000
  26   6   2    2946     143                                                        2143   33.66   -4.74  1.0000
  26  -6  -4    3215     211                                                        2872   -3.75   -7.56  1.0000
  26   6   4    4109     156                                                        3650   -5.39   -6.67  1.0000
  26   6   6    3081     128                                                        2245   44.32    4.44  1.0000
  26  -6  -6    2704     211                                                        1922   43.31    4.55  1.0000
  26   6   8   10479     299                                                       10638   -1.64   -0.02  1.0000
  26  -6  -8   10374     349                                                       10590   -2.07   -0.63  1.0000
  26   6  10    3209     115                                                        2476  -18.95  -13.93  1.0000
  26  -6 -10    3312     205                                                        2587  -18.18  -12.82  1.0000
  14 -26  -6      76     162                                                         133   -4.56    6.12  1.0000
  26  -6 -14     147     150                                                         208   -3.30    6.72  1.0000
  26  -6 -16    2301     149                                                        2177   -3.34    3.91  1.0000
  16 -26  -6    2135     175                                                        2013   -4.44    4.37  1.0000
  18 -26  -6     210     159                                                        1001    3.00  -35.09  1.0000
  26  -6 -18     263     115                                                        1103    2.70  -34.80  1.0000
  20 -26  -6    2651     170                                                        2604    4.65   -0.79  1.0000
  22 -26  -6    4258     168                                                        3512   15.12   -1.47  1.0000
  24 -26  -6     482     119                                                         201  -11.78  -14.26  1.0000
  26   8 -24    2576      97                                                        2252  -18.97   -3.23  1.0000
  26   8 -22    2638     134                                                        3223  -12.74    1.82  1.0000
  26   8 -20    1530     131                                                        1609    2.49   -3.85  1.0000
  26   8 -18    1395     150                                                        1784   12.76    5.73  1.0000
  26  -8  16    1383     112                                                        1359  -16.56   11.50  1.0000
  26   8 -16    1596     161                                                        1532  -17.46   13.76  1.0000
  26  -8  14    1545     148                                                        2400  -17.05   20.32  1.0000
  26   8 -14    1617     186                                                        2478  -16.58   21.09  1.0000
  26  -8  12      92     144                                                         282   16.08   -1.31  1.0000
  26   8 -12     134     165                                                         351   16.17   -0.90  1.0000
  26  -8  10    1588     171                                                        2562  -23.34   49.32  1.0000
  26  -8   8    3289     178                                                        3421   12.44  -17.51  1.0000
  26   8  -8    2740     188                                                        2860   12.26  -17.58  1.0000
  26  -8   6    2215     197                                                        3052  -16.30   -5.43  1.0000
  26   8  -6    2397     178                                                        3208  -15.11   -6.97  1.0000
  26  -8   4   10909     335                                                       10851  -10.07   12.84  1.0000
  26   8  -4   10649     315                                                       10476  -11.50   12.83  1.0000
  26  -8   2    7413     252                                                        5840    6.07  -18.91  1.0000
  26   8  -2    7134     201                                                        5597    8.73  -18.03  1.0000
  26   8   0     455     135                                                        1009  -21.38   -0.47  1.0000
  26   8   2    5783     171                                                        4408    7.72   18.33  1.0000
  26  -8  -4    7272     290                                                        7031  -14.24  -14.79  1.0000
  26   8   4    7106     217                                                        6889  -14.33  -15.36  1.0000
  26  -8  -6    1159     218                                                        1739  -15.11    6.92  1.0000
  26   8   6    1118     114                                                        1655  -14.29    6.56  1.0000
  26  -8  -8     493     204                                                         509   12.75   21.05  1.0000
  26   8   8     510      96                                                         522   11.57   18.54  1.0000
  26  -8 -10     652     201                                                         982  -23.59  -49.39  1.0000
  26  -8 -14    1849     172                                                        2797  -17.24  -20.71  1.0000
  16 -26  -8    1216     145                                                        1189  -16.65  -11.49  1.0000
  26  -8 -16    1148     135                                                        1114  -16.45  -11.54  1.0000
  18 -26  -8    2813     170                                                        3373   12.86   -5.66  1.0000
  26  -8 -18    2985     141                                                        3527   12.35   -5.98  1.0000
  20 -26  -8    1004     130                                                        1045    1.67    2.87  1.0000
  22 -26  -8    2114     143                                                        2651  -13.25   -1.54  1.0000
  24 -26  10     372     146                                                         488   -8.12   -6.30  1.0000
  22 -26  10    2355     190                                                        2916   11.26  -10.57  1.0000
  26  10 -22    2489     132                                                        3094   11.78   -8.43  1.0000
  26  10 -20     751     118                                                         823    3.28    1.49  1.0000
  26  10 -18    1517     145                                                        1301   11.76    2.21  1.0000
  26 -10  16    2678     139                                                        2299   -3.35   -7.34  1.0000
  26  10 -16    2899     165                                                        2477   -3.87   -7.82  1.0000
  26  10 -14    1909     187                                                        2828   -5.22   31.99  1.0000
  26 -10  14    2251     162                                                        3182   -4.47   29.73  1.0000
  26 -10  12    2407     164                                                        2367    0.92    0.38  1.0000
  26  10 -12    2296     189                                                        2251    1.37    2.10  1.0000
  26 -10  10    4709     194                                                        3325   51.79    9.15  1.0000
  26 -10   8    8750     264                                                        7801   -8.06   16.89  1.0000
  26  10  -8    7621     258                                                        6703   -8.41   17.21  1.0000
  26 -10   6    6682     283                                                        7933   20.32    4.57  1.0000
  26  10  -6    6220     258                                                        7471   19.86    2.75  1.0000
  26 -10   4    7482     287                                                        7410  -11.08   26.80  1.0000
  26  10  -4    7717     247                                                        7635  -10.46   25.54  1.0000
  26  10  -2     275     124                                                         609   55.92   28.26  1.0000
  26 -10   2     279     202                                                         598   55.03   28.02  1.0000
  26  10   0    6232     259                                                        8620   28.51   -1.20  1.0000
  26 -10  -2     294     211                                                         449   52.44  -27.28  1.0000
  26  10   2     304     113                                                         418   54.57  -28.94  1.0000
  26 -10  -4    8589     325                                                        8499  -10.82  -26.99  1.0000
  26  10   4    9203     261                                                        9133  -11.47  -28.31  1.0000
  26  10   6    4884     186                                                        5868   19.21   -4.96  1.0000
  26 -10  -6    4933     273                                                        5968   19.78   -4.70  1.0000
  26 -10  -8    9014     331                                                        8111   -7.25  -17.78  1.0000
  26  10   8   10598     261                                                        9629   -7.36  -16.45  1.0000
  26 -10 -10    3028     201                                                        1815   51.93   -9.52  1.0000
  26 -10 -12    1423     186                                                        1411    1.11   -4.13  1.0000
  26 -10 -14     444     156                                                         858   -3.71  -31.73  1.0000
  26 -10 -16    3239     153                                                        2833   -2.17    7.30  1.0000
  24 -26  12    1048     141                                                         941   -3.98    8.04  1.0000
  22 -26  12    2308     164                                                        1766  -10.17    7.52  1.0000
  26  12 -22    1923     107                                                        1436   -9.84    7.93  1.0000
  20 -26  12      61     177                                                         -29   15.29   -4.85  1.0000
  26  12 -20     159     119                                                         188   15.64   -4.71  1.0000
  26 -12  18     584     102                                                         592   -2.50   -1.36  1.0000
  26  12 -18     624     145                                                         633   -2.19   -1.06  1.0000
  26 -12  16     418     126                                                         493    1.40   -3.40  1.0000
  26  12 -16     308     157                                                         379   -0.53   -4.13  1.0000
  26 -12  14    1533     153                                                        1587  -12.71  -21.47  1.0000
  26  12 -14    1426     172                                                        1472  -12.21  -20.66  1.0000
  26 -12  12    3997     175                                                        2196  -27.94   26.51  1.0000
  26 -12  10     872     171                                                         456  -15.92  -11.53  1.0000
  26  12 -10     828     168                                                         414  -16.52   -8.36  1.0000
  26 -12   8   11087     368                                                       11979  -19.30   14.34  1.0000
  26  12  -8   11022     350                                                       11849  -18.96   13.65  1.0000
  26 -12   6    6576     262                                                        5718   -2.98  -15.92  1.0000
  26  12  -6    6789     218                                                        5895   -3.10  -16.28  1.0000
  26 -12   4    2414     240                                                        3458  -22.20   -1.41  1.0000
  26  12  -4    1997     165                                                        2957  -22.04   -1.87  1.0000
  26  12  -2    2356     143                                                        2576    5.37   -3.09  1.0000
  26  12   0     246     113                                                         375    7.53    0.68  1.0000
  26 -12  -2    1279     236                                                        1421    6.76    2.07  1.0000
  26  12   2    1148     123                                                        1273    4.51    2.49  1.0000
  26 -12  -4     660     233                                                        1197  -21.34    0.51  1.0000
  26  12   4     753     108                                                        1363  -23.05   -0.18  1.0000
  26  12   6    6859     187                                                        5996   -2.95   15.63  1.0000
  26 -12  -6    7078     280                                                        6138   -3.64   16.08  1.0000
  26 -12  -8    4618     253                                                        5109  -17.84  -13.22  1.0000
  26 -12 -10     434     195                                                         154  -16.30    8.68  1.0000
  26 -12 -12    6342     218                                                        4032  -27.88  -26.50  1.0000
  26 -12 -16     709     125                                                         789   -0.14    3.06  1.0000
  24 -26  14    1810     128                                                        2417   12.93   -5.74  1.0000
  22 -26  14     995     134                                                         934    4.56   11.72  1.0000
  20 -26  14     641     168                                                         964   -3.70  -11.33  1.0000
  26  14 -20     621     115                                                         925   -4.41  -10.41  1.0000
  26 -14  18    4755     189                                                        5611   14.39    3.29  1.0000
  26  14 -18    5107     208                                                        5933   13.73    3.83  1.0000
  26 -14  16     389     133                                                         666  -11.54   -7.86  1.0000
  26  14 -16     289     143                                                         541  -12.21   -6.17  1.0000
  26 -14  14    6182     220                                                        6246    1.85   13.69  1.0000
  26  14 -14    5402     226                                                        5490    1.23   12.88  1.0000
  26 -14  12    2734     187                                                        2302    2.87  -10.80  1.0000
  26  14 -10     982     167                                                        1068   17.84   13.17  1.0000
  26 -14  10    1167     177                                                        1251   16.69   12.86  1.0000
  26  14  -8    3279     195                                                        4107   -6.57   18.90  1.0000
  26 -14   8    3303     223                                                        4116   -6.15   19.14  1.0000
  26  14  -6   10041     261                                                        8054   26.06   11.09  1.0000
  26 -14   6   10514     312                                                        8393   26.09   12.14  1.0000
  26  14  -4   11511     306                                                       10331  -39.49   11.71  1.0000
  26 -14   4   11619     366                                                       10405  -40.15   11.72  1.0000
  26  14  -2    1541     147                                                        2827   26.92   12.06  1.0000
  26 -14   0     224     236                                                         -22  -30.69    0.93  1.0000
  26  14   0     224     111                                                         -32  -30.69    0.81  1.0000
  26 -14  -2     344     246                                                        1048   25.60  -13.74  1.0000
  26  14   2     302     112                                                         975   26.14  -13.24  1.0000
  26  14   4    2555     109                                                        1808  -40.77  -12.29  1.0000
  26 -14  -4    2854     246                                                        2083  -39.85  -11.50  1.0000
  26  14   6    8386     193                                                        6591   26.01  -10.85  1.0000
  26 -14  -6    7611     294                                                        5913   23.22  -12.02  1.0000
  26 -14  -8    5223     269                                                        6224   -6.16  -18.47  1.0000
  26 -14 -10     942     198                                                        1009   17.50  -13.53  1.0000
  26 -14 -12    2764     183                                                        2351    2.63   10.36  1.0000
  24 -26  16     115      94                                                          -9  -11.58   18.76  1.0000
  22 -26  16    1087     132                                                        1349   -7.79    0.82  1.0000
  20 -26  16    2923     160                                                        2615   -2.35    8.76  1.0000
  26 -16  18      74     101                                                         296   12.27  -24.72  1.0000
  26  16 -18      46     131                                                         105   11.79  -25.67  1.0000
  26 -16  16      56     122                                                          95   -7.86    9.60  1.0000
  26  16 -16      43     144                                                          70   -8.11    9.47  1.0000
  26 -16  14    1086     152                                                        1219    3.04   -2.64  1.0000
  26 -16  12    1368     178                                                        1146  -32.89   -7.99  1.0000
  26  16 -12    1540     154                                                        1328  -32.85   -8.14  1.0000
  26  16 -10     387     150                                                         550   -5.82  -17.89  1.0000
  26 -16  10     658     187                                                         887   -5.24  -17.32  1.0000
  26 -16   8    1775     206                                                        1985   -8.89    0.73  1.0000
  26  16  -8    1793     151                                                        1932   -8.84   -1.22  1.0000
  26  16  -6      62     128                                                         201   -3.87  -12.70  1.0000
  26 -16   6     127     217                                                         309   -3.35  -12.92  1.0000
  26  16  -4    1111     126                                                         807  -28.32    3.73  1.0000
  26  16  -2    7149     230                                                        7476    7.74  -33.07  1.0000
  26  16   0    1403     130                                                        2422  -24.12    1.04  1.0000
  26 -16   0    1468     250                                                        2491  -23.79    0.34  1.0000
  26  16   2    5030     170                                                        5188    9.53   34.73  1.0000
  26 -16  -2    4698     276                                                        4798    9.61   33.29  1.0000
  26 -16  -4    1244     225                                                         970  -29.58   -5.51  1.0000
  26  16   4    1255      95                                                         968  -30.12   -5.28  1.0000
  26 -16  -6     326     210                                                         584   -2.86   12.68  1.0000
  26 -16  -8     594     205                                                         705   -9.84    0.11  1.0000
  26 -16 -10    1748     197                                                        2145   -5.88   17.75  1.0000
  26 -16 -12    3091     184                                                        2849  -33.71    7.20  1.0000
  24 -26  18     384      61                                                         252    9.37    4.60  1.0000
  22 -26  18    1052      97                                                        1455   11.73   -2.31  1.0000
  20 -26  18      79     122                                                         155   23.80   -9.87  1.0000
  26 -18  18    1325     109                                                        1466   -4.47    1.91  1.0000
  26 -18  16    2095     132                                                        1512   14.05   12.30  1.0000
  26  18 -16    2449     126                                                        1792   14.24   12.92  1.0000
  26 -18  14    7333     221                                                        5824   -4.16   36.26  1.0000
  26 -18  12    6594     244                                                        6679   -4.30  -13.24  1.0000
  26  18 -12    5762     219                                                        5827   -3.84  -11.93  1.0000
  26 -18  10   11841     327                                                       10856    9.38    1.58  1.0000
  26  18 -10   10516     299                                                        9701    8.57   -0.17  1.0000
  26  18  -8     511     127                                                         742  -23.72  -16.58  1.0000
  26 -18   8     680     200                                                         974  -23.30  -16.59  1.0000
  26 -18   6    3029     225                                                        1890   11.15   21.41  1.0000
  26  18  -6    3047     133                                                        1829   12.28   22.78  1.0000
  26  18  -4     856     128                                                        1518   -7.89   23.33  1.0000
  26  18  -2     122     116                                                         109    1.16    1.60  1.0000
  26 -18   2     135     229                                                         129    0.51    1.01  1.0000
  26 -18   0    3628     266                                                        4418   12.79    1.60  1.0000
  26  18   0    3629     158                                                        4410   12.65    0.72  1.0000
  26 -18  -2      26     211                                                          30   -0.84   -1.77  1.0000
  26  18   2      21      90                                                          21    0.06    1.10  1.0000
  26 -18  -4     491     223                                                         990   -6.54  -24.53  1.0000
  26 -18  -6    3697     220                                                        2350   11.18  -23.41  1.0000
  26 -18  -8     891     202                                                        1263  -23.09   16.96  1.0000
  26 -18 -10   14555     396                                                       13460    9.49   -1.09  1.0000
  26 -18 -12    8245     270                                                        8322   -3.95   12.87  1.0000
  20 -26  20     599      88                                                         520    3.71   -5.68  1.0000
  26 -20  18     635      89                                                         437    1.14   -9.09  1.0000
  18 -26  20     823     110                                                         600    1.05   -8.90  1.0000
  26 -20  16    1324     124                                                        1651   -2.97  -13.37  1.0000
  26 -20  14    1381     140                                                        1056    1.94  -12.02  1.0000
  26 -20  12    2290     177                                                        2526   -4.42    5.73  1.0000
  26  20 -12    1958     135                                                        2198   -4.62    6.25  1.0000
  26 -20  10    4494     224                                                        5421    8.50  -11.05  1.0000
  26  20 -10    4203     187                                                        5047    6.62  -11.02  1.0000
  26 -20   8    1466     199                                                        1903  -12.21   -3.72  1.0000
  26  20  -8    1573     129                                                        2006  -11.09   -4.15  1.0000
  26  20  -6     769     117                                                         990   43.67   -2.82  1.0000
  26  20  -4    1146     118                                                        1165   -2.58   29.22  1.0000
  26 -20   2    2494     233                                                        3042   21.70  -30.19  1.0000
  26  20  -2    2365     132                                                        2892   21.68  -30.18  1.0000
  26 -20   0    4412     262                                                        4977   -8.47    1.39  1.0000
  26  20   0    4961     175                                                        5564   -8.53   -0.53  1.0000
  26 -20  -2    1535     211                                                        1882   21.65   29.63  1.0000
  26  20   2    1641     101                                                        2058   20.92   30.44  1.0000
  26 -20  -4    1099     195                                                        1100   -2.38  -27.83  1.0000
  26 -20  -6     354     187                                                         238   43.84    3.84  1.0000
  26 -20  -8    1710     187                                                        2136  -11.13    3.39  1.0000
  26 -20 -10    5152     228                                                        6197    7.21   12.40  1.0000
  26 -20 -12    2542     146                                                        2783   -3.22   -5.40  1.0000
  26 -22  18    1634      91                                                        1871    6.67   18.58  1.0000
  18 -26  22    1679      98                                                        1912    6.50   18.73  1.0000
  26 -22  16     526     108                                                         492   -2.51  -11.16  1.0000
  16 -26  22     746      95                                                         705   -2.27  -11.16  1.0000
  26 -22  14    3542     177                                                        4491  -21.16   12.30  1.0000
  26 -22  12     168     143                                                         374    1.65  -14.79  1.0000
  26 -22  10     688     166                                                         796    6.94  -19.13  1.0000
  26 -22   8    9447     319                                                       10055  -10.00   -1.98  1.0000
  26 -22   4     612     195                                                         983    4.68   31.56  1.0000
  26 -22   2     939     195                                                         860    4.61    4.74  1.0000
  26 -22   0      16     193                                                         227   39.16    0.63  1.0000
  26 -22  -2     504     180                                                         484    3.04   -6.01  1.0000
  26 -22  -4    1040     183                                                        1573    4.42  -32.23  1.0000
  26 -22  -6    3052     180                                                        2671   12.91   -8.23  1.0000
  26 -22  -8   11233     350                                                       12021  -10.41    0.66  1.0000
  26 -22 -10     618     125                                                         715    6.60   16.43  1.0000
  26 -24  16     807      86                                                         923    5.11    6.66  1.0000
  26 -24  14     389     101                                                         643  -14.07   17.08  1.0000
  26 -24  12    1071     124                                                        1009   16.10    9.05  1.0000
  26 -24  10     164     145                                                         -56  -12.15  -23.26  1.0000
  26 -24   4    1006     166                                                        1596  -11.44   32.85  1.0000
  26 -24   2    2685     180                                                        2593    7.36  -12.36  1.0000
  26 -24   0    1078     151                                                         770  -10.43    0.05  1.0000
  26 -24  -2    2733     178                                                        2624    6.63    9.94  1.0000
  26 -24  -4    1370     156                                                        2094  -11.72  -32.45  1.0000
  26 -24  -6     648     136                                                         720   12.63   -2.56  1.0000
  26 -24  -8     818     116                                                         785  -12.14  -13.73  1.0000
  26 -26  14      22      87                                                         155   16.86    5.06  1.0000
  26 -26  12    3422     128                                                        2970    5.98   -6.51  1.0000
  26 -26  10     975     126                                                        1134   -3.22   -4.00  1.0000
  26 -26   6     962     129                                                         920    5.74   -3.50  1.0000
  26 -26   4    1703     154                                                        2489  -13.72   12.22  1.0000
  26 -26   2    2596     145                                                        2184    8.59    1.60  1.0000
  26 -26   0     137     125                                                         244    8.07   -0.14  1.0000
  26 -26  -2    2901     149                                                        2510    7.52   -1.88  1.0000
  26 -26  -4     568     120                                                        1055  -13.80  -12.38  1.0000
  26 -26  -6     585      98                                                         538    4.29    3.53  1.0000
  25 -27   1     192     133                                                         183    9.87    6.08  1.0000
  23 -27   1    4260     189                                                        3283   16.22    2.56  1.0000
  27   1 -21    2932     123                                                        2685    3.02    7.24  1.0000
  21 -27   1    2937     193                                                        2642    4.54    5.19  1.0000
  27   1 -19    1663     135                                                        2076   14.13    7.47  1.0000
  19 -27   1    1532     197                                                        1922   14.26    8.42  1.0000
  27   1 -17    1196     138                                                         444   24.07   14.38  1.0000
  27   1 -15    1239     153                                                         927    9.57   33.73  1.0000
  27   1 -13    1867     177                                                        2396   -3.48  -14.29  1.0000
  27  -1  13    2150     124                                                        2708   -4.22  -13.14  1.0000
  27   1 -11    2265     198                                                        2630   -6.69   -4.77  1.0000
  27  -1  11    2241     142                                                        2649   -7.39   -5.55  1.0000
  27   1  -9    4922     245                                                        5320   -9.59   -4.50  1.0000
  27  -1   9    4782     193                                                        5144   -8.95   -4.24  1.0000
  27  -1   7    4728     196                                                        4899   -9.61  -16.34  1.0000
  27  -1   5    9104     231                                                        6443   29.95   -8.28  1.0000
  27  -1   3    4451     187                                                        3805    9.77    3.79  1.0000
  27  -1   1    4046     193                                                        3575   10.52   19.45  1.0000
  27  -1  -1    4236     205                                                        3770   10.14  -18.65  1.0000
  27   1   1    4159     190                                                        3763    8.87  -17.75  1.0000
  27  -1  -3    2263     191                                                        1777   10.03   -6.45  1.0000
  27   1   3    1977     168                                                        1505   10.84   -5.11  1.0000
  27   1   5    5747     183                                                        3700   28.75   11.29  1.0000
  27   1   7    4444     185                                                        4512   -8.68   18.00  1.0000
  27  -1  -9    5602     253                                                        5956   -8.67    4.81  1.0000
  27   1   9    5376     204                                                        5709   -8.48    4.82  1.0000
  27  -1 -11    1832     196                                                        2206   -7.50    5.49  1.0000
  27  -1 -13    1621     192                                                        2107   -3.20   14.34  1.0000
  27  -1 -15    2479     163                                                        2192    8.74  -33.64  1.0000
  27  -1 -17    2777     139                                                        1543   24.55  -12.80  1.0000
  17 -27  -1    2658     198                                                        1385   25.72  -15.18  1.0000
  19 -27  -1     386     181                                                         567   14.22   -8.43  1.0000
  27  -1 -19     473     112                                                         664   13.76   -8.79  1.0000
  21 -27  -1    3546     199                                                        3191    4.59   -7.23  1.0000
  27  -1 -21    4013     131                                                        3644    4.28   -7.82  1.0000
  23 -27  -1    3858     174                                                        2853   17.67   -3.09  1.0000
  25 -27  -1     528     125                                                         537    9.59   -5.99  1.0000
  25 -27   3     190     135                                                         277   -8.97   11.13  1.0000
  23 -27   3    2014     169                                                        1485    6.43   19.62  1.0000
  27   3 -23    2002      83                                                        1522    7.59   18.93  1.0000
  27   3 -21    1140      99                                                         562    5.69  -23.65  1.0000
  21 -27   3    1253     176                                                         644    5.39  -23.50  1.0000
  27   3 -19    2402     135                                                        2502    0.28    2.96  1.0000
  19 -27   3    2475     204                                                        2538    1.51    2.93  1.0000
  27   3 -17     742     143                                                         431   20.05    4.45  1.0000
  27   3 -15     179     159                                                         438   10.11   26.75  1.0000
  27   3 -13    1908     188                                                        2234   -8.05    5.01  1.0000
  27  -3  13    1909     127                                                        2281   -9.12    5.66  1.0000
  27  -3  11    3482     186                                                        4785  -16.56   17.71  1.0000
  27   3 -11    3684     222                                                        5080  -16.96   19.19  1.0000
  27  -3   9    3788     167                                                        3117    5.94   12.26  1.0000
  27   3  -9    4559     203                                                        3814    5.82   12.63  1.0000
  27  -3   7    5034     203                                                        5026   33.91    4.12  1.0000
  27  -3   5     546     158                                                         171   21.97  -47.33  1.0000
  27   3  -5     656     172                                                         481   20.69  -46.54  1.0000
  27  -3   3     618     160                                                        1010   22.26   14.87  1.0000
  27   3  -3     725     165                                                        1193   23.37   15.78  1.0000
  27  -3   1    2712     190                                                        3230   -8.01   -8.35  1.0000
  27  -3  -1    2951     204                                                        3494   -4.43    9.15  1.0000
  27  -3  -7    2840     224                                                        2705   33.80   -5.24  1.0000
  27  -3 -11    5476     266                                                        7215  -17.12  -20.67  1.0000
  27   3  11    5442     213                                                        7051  -16.29  -18.44  1.0000
  27  -3 -13    1198     177                                                        1474   -8.60   -5.74  1.0000
  27  -3 -15     348     151                                                         792    9.17  -28.28  1.0000
  15 -27  -3     304     169                                                         724    9.17  -28.69  1.0000
  17 -27  -3     858     177                                                         536   19.58   -4.63  1.0000
  27  -3 -17     740     127                                                         449   18.93   -4.57  1.0000
  19 -27  -3    2918     187                                                        2993    1.55   -3.14  1.0000
  27  -3 -19    2775     139                                                        2836    0.65   -2.10  1.0000
  27  -3 -21     643      79                                                         222    6.15   24.10  1.0000
  21 -27  -3     694     153                                                         245    5.10   24.27  1.0000
  23 -27  -3    1272     136                                                         875    8.16  -19.62  1.0000
  25 -27  -3     256     113                                                         368   -9.31  -11.20  1.0000
  25 -27   5     974     133                                                         636   12.93   -0.41  1.0000
  23 -27   5    1002     154                                                         956    5.89    9.53  1.0000
  27   5 -23    1115      84                                                        1031    6.68    8.49  1.0000
  21 -27   5    1176     177                                                        1117    2.68    1.06  1.0000
  27   5 -21    1092     109                                                        1100    1.18   -0.65  1.0000
  27   5 -19    1079     128                                                        1442  -10.45   -3.38  1.0000
  19 -27   5     951     199                                                        1306  -10.87   -0.87  1.0000
  27   5 -17    4273     160                                                        2507   10.10   30.13  1.0000
  27  -5  15      59     105                                                         327   22.06    5.68  1.0000
  27   5 -15      25     168                                                         249   23.56    5.67  1.0000
  27  -5  13     978     120                                                         739    6.63    7.74  1.0000
  27   5 -13    1109     186                                                         844    8.23    7.95  1.0000
  27  -5  11    2932     175                                                        3979    4.86  -26.90  1.0000
  27   5 -11    3006     214                                                        4091    6.35  -25.46  1.0000
  27  -5   9     969     146                                                         928   -6.19    4.78  1.0000
  27  -5   7     544     168                                                         694    3.61  -10.70  1.0000
  27  -5   5     973     156                                                         284    9.34  -47.52  1.0000
  27   5  -5    1095     158                                                         372   10.10  -47.82  1.0000
  27  -5   3    2790     178                                                        2033   20.71  -12.77  1.0000
  27   5  -3    2654     168                                                        1923   20.76  -12.57  1.0000
  27  -5   1     669     198                                                        1289   -3.19   27.52  1.0000
  27   5  -1     746     148                                                        1389   -3.67   26.64  1.0000
  27  -5  -1    1071     200                                                        1886   -4.15  -27.82  1.0000
  27   5   1    1066     143                                                        1849   -4.15  -26.82  1.0000
  27   5   3    5020     165                                                        3995   20.35   13.09  1.0000
  27  -5  -5    1308     209                                                         511   10.67   45.35  1.0000
  27   5   5     976     121                                                         290    9.55   49.41  1.0000
  27  -5  -7    1102     200                                                        1338    3.22   11.01  1.0000
  27   5   7    1451     128                                                        1760    1.37   11.01  1.0000
  27   5   9     869     110                                                         822   -6.59   -4.84  1.0000
  27  -5 -13    2961     180                                                        2488    8.39   -8.69  1.0000
  27  -5 -15      11     146                                                          74   22.08   -5.24  1.0000
  15 -27  -5       6     160                                                         129   21.01   -6.68  1.0000
  17 -27  -5    4070     168                                                        2307    6.85  -31.63  1.0000
  27  -5 -17    3693     136                                                        2018    6.77  -31.81  1.0000
  19 -27  -5    2454     180                                                        3021  -11.06    2.63  1.0000
  27  -5 -19    2483     135                                                        3041  -10.86    2.54  1.0000
  21 -27  -5     387     132                                                         347    2.84   -1.32  1.0000
  23 -27  -5    1237     133                                                        1153    6.60   -8.56  1.0000
  25 -27  -5    1027     101                                                         709   11.55   -0.09  1.0000
  25 -27   7    2947     160                                                        2793   -1.61    3.68  1.0000
  23 -27   7    1827     166                                                        1969   10.52    4.58  1.0000
  27   7 -23    1606      96                                                        1695   10.93    6.35  1.0000
  21 -27   7    1565     190                                                        1621   -6.98   -6.54  1.0000
  27   7 -21    1569     110                                                        1593   -8.73   -6.70  1.0000
  27   7 -19    4226     183                                                        4912   -0.47   11.42  1.0000
  27   7 -17      38     146                                                         306  -29.14   19.97  1.0000
  27  -7  15    3882     130                                                        2252  -14.98   26.82  1.0000
  27   7 -15    3452     180                                                        1932  -14.81   26.80  1.0000
  27  -7  13     429     126                                                          54   28.56   10.66  1.0000
  27   7 -13     452     169                                                          63   28.72   11.32  1.0000
  27  -7  11    2742     155                                                        2130    7.87   10.84  1.0000
  27   7 -11    2818     189                                                        2214    8.16   10.39  1.0000
  27  -7   9    2873     166                                                        1791   21.79    9.12  1.0000
  27  -7   7   11544     307                                                       10059   21.12  -39.26  1.0000
  27   7  -7   10668     306                                                        9310   21.79  -38.65  1.0000
  27  -7   5    1123     200                                                        3436   56.00   -1.65  1.0000
  27   7  -5    1149     176                                                        3396   55.18    0.51  1.0000
  27  -7   3    8137     299                                                        8762   -2.15  -17.35  1.0000
  27   7  -3    8131     276                                                        8694   -0.31  -12.99  1.0000
  27   7  -1    4964     197                                                        5124  -11.19    3.11  1.0000
  27  -7   1    4987     250                                                        5184  -13.30    3.68  1.0000
  27   7   1   10094     301                                                       10287  -10.83   -3.46  1.0000
  27   7   3   10739     327                                                       11479   -0.73   15.32  1.0000
  27  -7  -5    1704     257                                                        4420   55.77    1.74  1.0000
  27   7   5    1922     173                                                        4762   56.15    0.03  1.0000
  27   7   7   14001     340                                                       12545   23.12   39.55  1.0000
  27  -7  -7   13074     392                                                       11411   22.12   41.88  1.0000
  27  -7  -9    2587     212                                                        1547   22.00   -9.73  1.0000
  27   7   9    2811     102                                                        1708   21.52  -10.96  1.0000
  13 -27  -7     755     144                                                         205   29.88  -10.81  1.0000
  27  -7 -13     376     164                                                          25   30.10  -11.76  1.0000
  27  -7 -15    3751     154                                                        2134  -16.17  -26.44  1.0000
  15 -27  -7    3792     162                                                        2190  -15.66  -26.13  1.0000
  27  -7 -17      83     123                                                         506  -28.85  -18.86  1.0000
  17 -27  -7      70     150                                                         473  -28.67  -20.02  1.0000
  19 -27  -7    1492     148                                                        1970    0.59  -12.55  1.0000
  27  -7 -19    1640     112                                                        2083   -0.69  -11.70  1.0000
  21 -27  -7    3645     161                                                        3708   -8.43    6.73  1.0000
  23 -27  -7    3261     142                                                        3439   11.77   -6.26  1.0000
  27   9 -23     252      78                                                         163   -6.16   -1.57  1.0000
  27   9 -21     266     107                                                         344    1.48   -4.91  1.0000
  27   9 -19     294     124                                                         275   -8.05  -24.28  1.0000
  27  -9  17     291      97                                                         257   -4.30   -1.58  1.0000
  27   9 -17     244     145                                                         201   -3.93    0.02  1.0000
  27  -9  15    1158     122                                                        1188   -8.55   15.70  1.0000
  27   9 -15    1092     162                                                        1133   -8.57   16.44  1.0000
  27  -9  13   10476     313                                                       10200   -2.33   -2.93  1.0000
  27   9 -13   11040     326                                                       10814   -2.14   -0.68  1.0000
  27  -9  11    3578     244                                                        7091   39.91  -33.53  1.0000
  27  -9   9   14942     418                                                       14517   -3.15  -15.69  1.0000
  27  -9   7    2362     214                                                        4035    8.48  -39.41  1.0000
  27   9  -7    2212     207                                                        3779    7.22  -39.52  1.0000
  27  -9   5    2267     199                                                        2525   -5.40   -6.42  1.0000
  27   9  -5    2324     169                                                        2661   -6.93   -5.91  1.0000
  27   9  -3      66     139                                                         -11  -15.65    5.82  1.0000
  27  -9   3       7     208                                                          89  -16.71    5.83  1.0000
  27   9  -1     309     125                                                         401    1.02   12.03  1.0000
  27  -9   1     294     211                                                         366    0.09   11.87  1.0000
  27   9   1     378     117                                                         477   -0.70  -14.87  1.0000
  27   9   3      56     111                                                         242  -16.91   -6.07  1.0000
  27  -9  -3      84     230                                                         314  -17.80   -6.26  1.0000
  27  -9  -5    1852     228                                                        2128   -6.35    6.28  1.0000
  27   9   5    2029     128                                                        2301   -6.07    3.82  1.0000
  27   9   7    3612     179                                                        5582    7.19   39.12  1.0000
  27  -9  -7    3407     271                                                        5393    9.34   38.25  1.0000
  27  -9  -9   13943     417                                                       13551   -2.95   16.81  1.0000
  27  -9 -15     702     142                                                         701   -8.55  -15.19  1.0000
  27  -9 -17     177     111                                                         137   -4.96    0.76  1.0000
  25 -27  11     290     106                                                         289    2.22   -4.72  1.0000
  23 -27  11    3214     163                                                        3220   -4.27    2.69  1.0000
  21 -27  11     466     165                                                         754   11.94   -3.44  1.0000
  27  11 -21     131     103                                                         300   12.40   -2.74  1.0000
  27  11 -19    5920     186                                                        5172  -12.94   -6.21  1.0000
  27 -11  17    1488     109                                                        1239  -19.34    8.16  1.0000
  27  11 -17    1772     151                                                        1494  -18.82    8.47  1.0000
  27  11 -15     678     163                                                        1043    9.65    9.95  1.0000
  27 -11  15     392     130                                                         644    8.11   10.03  1.0000
  27 -11  13      36     151                                                         213  -19.25   -0.60  1.0000
  27  11 -13     124     175                                                         414  -19.90   -1.14  1.0000
  27 -11  11    2987     191                                                        3122   20.13    2.66  1.0000
  27 -11   9     762     184                                                         990   12.52   -0.54  1.0000
  27  11  -9     760     176                                                         978   11.49    0.02  1.0000
  27 -11   7    1233     200                                                         991    0.90    7.53  1.0000
  27  11  -7    1005     165                                                         822    0.53    6.37  1.0000
  27 -11   5     898     201                                                         819   11.43   -3.53  1.0000
  27  11  -5     895     153                                                         862   10.26   -1.74  1.0000
  27 -11   3    2393     226                                                        2219   -6.37   -8.13  1.0000
  27  11  -3    2466     145                                                        2299   -6.35   -8.73  1.0000
  27  11  -1    4222     204                                                        5925   24.11   21.63  1.0000
  27  11   1    7620     291                                                       10020   25.49  -20.40  1.0000
  27 -11  -3    2677     237                                                        2518   -6.33    9.61  1.0000
  27  11   3    2655     131                                                        2477   -6.97   10.30  1.0000
  27 -11  -5     291     229                                                         241   10.87    3.04  1.0000
  27  11   5     364     104                                                         322   10.41    2.37  1.0000
  27 -11  -7    1328     219                                                        1114    1.89   -6.00  1.0000
  27  11   7    1512      98                                                        1263    1.40   -6.75  1.0000
  27 -11  -9    1445     225                                                        1798   13.56    0.36  1.0000
  27 -11 -11    3637     230                                                        3777   20.41   -2.28  1.0000
  27 -11 -15     283     139                                                         548   10.51   -9.90  1.0000
  27 -11 -17    4354     152                                                        3939  -18.83   -8.90  1.0000
  25 -27  13     633     100                                                         833   17.24    4.91  1.0000
  23 -27  13     270     124                                                         390    2.54    6.34  1.0000
  21 -27  13    1027     146                                                         751  -19.31   -2.16  1.0000
  27  13 -21     862      98                                                         606  -18.35   -2.42  1.0000
  27  13 -19     565     119                                                         455   -5.04   -6.35  1.0000
  27  13 -17     229     130                                                         371    8.06  -13.14  1.0000
  27 -13  17      35     101                                                          29    8.67  -14.40  1.0000
  27 -13  15    4015     168                                                        3415   -2.31  -13.07  1.0000
  27  13 -15    4007     178                                                        3294   -3.14  -15.26  1.0000
  27 -13  13      70     148                                                         409   24.48   -0.22  1.0000
  27 -13  11    3547     206                                                        3748   17.10   -8.45  1.0000
  27 -13   9     705     183                                                         923   15.82    4.90  1.0000
  27  13  -9     835     151                                                        1072   15.77    4.98  1.0000
  27  13  -7    1452     162                                                        1998   12.15   -5.93  1.0000
  27 -13   7    1371     208                                                        1927   12.79   -5.97  1.0000
  27 -13   5   12336     348                                                       10514  -13.04   14.45  1.0000
  27  13  -5   11689     300                                                        9876  -13.11   15.44  1.0000
  27 -13   3     297     232                                                         683  -51.25   -5.44  1.0000
  27  13  -3     250     132                                                         345  -51.11   -6.01  1.0000
  27  13  -1    2309     140                                                        2409  -18.83   19.65  1.0000
  27 -13  -1    2465     258                                                        2586  -17.74  -19.15  1.0000
  27  13   1    2151     133                                                        2220  -17.59  -18.16  1.0000
  27 -13  -3     381     231                                                         990  -51.92    6.64  1.0000
  27  13   3     399     113                                                        1036  -54.05    4.76  1.0000
  27 -13  -5   10037     350                                                        8440  -12.75  -13.95  1.0000
  27  13   5   11392     265                                                        9605  -13.63  -14.05  1.0000
  27 -13  -7    1258     233                                                        1731   10.68    6.74  1.0000
  27 -13  -9    2005     216                                                        2444   17.06   -4.77  1.0000
  27 -13 -11     864     184                                                         906   17.05    8.94  1.0000
  27 -13 -15    7999     232                                                        7117   -2.10   14.00  1.0000
  25 -27  15    1431      84                                                        1389   -2.97    2.32  1.0000
  23 -27  15      22      95                                                         211   16.11  -12.11  1.0000
  21 -27  15     184     128                                                          -5  -27.34    5.26  1.0000
  19 -27  15    1860     156                                                        1301   14.41  -31.83  1.0000
  27  15 -19    2015     119                                                        1451   15.31  -32.53  1.0000
  27 -15  17     562     109                                                         840  -14.49  -10.81  1.0000
  27  15 -17     638     132                                                         929  -12.99  -10.62  1.0000
  27  15 -15     911     139                                                         977   10.34   -8.58  1.0000
  27 -15  15     769     135                                                         833   10.11   -7.87  1.0000
  27 -15  13     722     153                                                         992  -11.47   -9.56  1.0000
  27 -15  11    3380     199                                                        3627   10.87   -3.90  1.0000
  27  15 -11    3521     177                                                        3701   11.20   -5.87  1.0000
  27 -15   9    2262     188                                                        1404   11.21   17.45  1.0000
  27  15  -9    2426     146                                                        1533   10.69   17.84  1.0000
  27 -15   7    1356     212                                                        1614  -15.35    3.80  1.0000
  27  15  -7    1553     150                                                        1844  -16.68    3.67  1.0000
  27  15  -5    2953     157                                                        2642   21.91   -5.34  1.0000
  27 -15   5    3198     236                                                        2913   19.56   -4.66  1.0000
  27  15  -3    2931     163                                                        3710   12.78   14.17  1.0000
  27  15  -1    1495     132                                                        1832    8.00   -6.31  1.0000
  27 -15  -1    2686     247                                                        3140    8.01    7.07  1.0000
  27  15   1    2948     145                                                        3445    8.45    6.61  1.0000
  27  15   3    2692     137                                                        3464   12.91  -16.55  1.0000
  27 -15  -3    2730     259                                                        3508   12.91  -16.65  1.0000
  27 -15  -5    2862     246                                                        2557   21.19    5.28  1.0000
  27  15   5    2751     108                                                        2473   19.15    4.81  1.0000
  27 -15  -7    1188     233                                                        1418  -14.63   -3.76  1.0000
  27 -15  -9    2981     199                                                        1963   10.89  -18.17  1.0000
  27 -15 -11    3351     198                                                        3617   12.30    4.74  1.0000
  27 -15 -15     683     114                                                         768   11.61    8.21  1.0000
  23 -27  17     842      80                                                         357    6.28   20.88  1.0000
  21 -27  17     131     105                                                         185    6.32    0.75  1.0000
  19 -27  17    1999     143                                                        1867    1.35   -2.86  1.0000
  27 -17  17    1401     110                                                        1122    9.09   -2.02  1.0000
  27  17 -17    1324     118                                                        1081    8.41   -1.50  1.0000
  27 -17  15    1838     147                                                        2291   -4.22   10.14  1.0000
  27 -17  13      65     158                                                         -18    3.42   16.15  1.0000
  27 -17  11    1452     177                                                        1364   -3.83  -10.34  1.0000
  27  17 -11    1537     143                                                        1424   -3.48  -10.96  1.0000
  27 -17   9     676     181                                                         815   13.95   -3.82  1.0000
  27  17  -9     683     131                                                         837   11.87   -4.71  1.0000
  27 -17   7    1398     211                                                        1184    0.77   16.98  1.0000
  27  17  -7    1554     133                                                        1372    2.19   17.97  1.0000
  27  17  -5    1568     126                                                         883   17.00   21.67  1.0000
  27 -17   5    1700     228                                                         959   13.96   22.00  1.0000
  27  17  -3     180     117                                                          94   17.90  -16.87  1.0000
  27 -17   1    4164     269                                                        4387    0.08    5.05  1.0000
  27  17  -1    4057     161                                                        4291   -0.28    5.00  1.0000
  27 -17  -1    3527     255                                                        3684    0.05   -3.85  1.0000
  27  17   1    3750     146                                                        3925    0.02   -4.13  1.0000
  27  17   3     281      91                                                         248   16.85   17.62  1.0000
  27 -17  -3     300     223                                                         280   15.28   16.53  1.0000
  27 -17  -5     940     198                                                         410   16.03  -21.84  1.0000
  27 -17  -7     595     195                                                         442    0.95  -16.84  1.0000
  27 -17  -9     618     186                                                         756   12.59    4.31  1.0000
  27 -17 -11    1439     169                                                        1352   -4.24   10.94  1.0000
  21 -27  19     568      74                                                         454    5.24   -1.90  1.0000
  19 -27  19     680      98                                                         631   32.92  -26.73  1.0000
  27 -19  17    1047     107                                                        1441   11.15  -16.15  1.0000
  27 -19  15      98     119                                                         -70   20.35   -0.04  1.0000
  27 -19  13    3900     183                                                        4094   -7.95    1.86  1.0000
  27  19 -13    3643     154                                                        3865   -8.46    1.53  1.0000
  27 -19  11     124     168                                                         466    6.87   29.52  1.0000
  27  19 -11     115     121                                                         451    5.53   29.20  1.0000
  27 -19   9     530     180                                                         331   -9.18   -8.16  1.0000
  27  19  -9     623     116                                                         382   -9.44   -9.40  1.0000
  27 -19   7     185     196                                                         524   18.52   16.89  1.0000
  27  19  -7     151     112                                                         452   18.95   16.59  1.0000
  27  19  -5    2947     128                                                        2141   35.40    8.07  1.0000
  27  19  -3    2292     124                                                        1964    7.12    2.61  1.0000
  27 -19   1    5619     262                                                        4703   -4.40  -20.54  1.0000
  27  19  -1    6249     171                                                        5226   -5.05  -22.18  1.0000
  27 -19  -1    7054     273                                                        6042   -6.75   22.41  1.0000
  27  19   1    7122     187                                                        6127   -6.42   21.74  1.0000
  27 -19  -3    2370     214                                                        2034    7.10   -3.76  1.0000
  27 -19  -5    3407     209                                                        2512   36.42   -7.68  1.0000
  27 -19  -7     390     191                                                         875   19.46  -16.82  1.0000
  27 -19  -9    1408     162                                                        1088  -10.03    7.78  1.0000
  27 -19 -11     146     127                                                         498    6.71  -28.38  1.0000
  19 -27  21      52      71                                                         -44   -1.30   14.80  1.0000
  27 -21  17    1061      88                                                         883    9.11   -5.88  1.0000
  17 -27  21    1401     102                                                        1193    9.26   -5.78  1.0000
  27 -21  15    1691     115                                                        1579  -13.64  -35.03  1.0000
  27 -21  13    1364     131                                                        1334   -3.71   27.42  1.0000
  27 -21  11     487     140                                                         889  -17.92  -11.99  1.0000
  27 -21   9    2215     173                                                        2179    3.77   16.82  1.0000
  27  21  -9    2299     118                                                        2236    4.40   16.87  1.0000
  27 -21   7    3661     202                                                        3782    1.70  -15.90  1.0000
  27  21  -7    3625     143                                                        3669    2.38  -13.48  1.0000
  27  21  -5    4045     124                                                        2708   27.78   -6.58  1.0000
  27 -21   3    1106     178                                                        1162  -11.89   -2.54  1.0000
  27  21  -3    1191     102                                                        1217  -12.48   -1.57  1.0000
  27 -21   1    1160     189                                                        1280   20.46   -1.13  1.0000
  27  21  -1    1188      95                                                        1291   19.40   -0.85  1.0000
  27 -21  -1     722     188                                                         798   20.56    1.21  1.0000
  27 -21  -3     792     184                                                         808  -14.02    1.73  1.0000
  27 -21  -5    2821     187                                                        1760   27.21    8.02  1.0000
  27 -21  -7    3729     197                                                        3836    1.36   13.58  1.0000
  27 -21  -9    4311     181                                                        4288    4.04  -17.81  1.0000
  27 -21 -11     401     116                                                         786  -18.25    9.00  1.0000
  27 -23  17     164      64                                                         338  -12.85   -6.22  1.0000
  27 -23  15     175      89                                                         160   13.11    9.71  1.0000
  15 -27  23     138      76                                                         119   12.71    9.69  1.0000
  27 -23  13     761     116                                                        1005  -10.57    0.81  1.0000
  27 -23  11    3116     137                                                        1947   22.94    8.96  1.0000
  27 -23   9     457     135                                                         542   -6.17    2.85  1.0000
  27 -23   3    1132     175                                                        1206   -4.21   11.69  1.0000
  27 -23   1    4949     207                                                        4863   -1.81  -12.60  1.0000
  27 -23  -1    3749     198                                                        3797   -3.92   12.18  1.0000
  27 -23  -3    2231     163                                                        2339   -4.18  -13.57  1.0000
  27 -23  -5    1628     139                                                        1197    6.05   11.74  1.0000
  27 -23  -7      15     131                                                          64    9.15  -11.66  1.0000
  27 -23  -9     983     107                                                        1116   -6.54   -3.01  1.0000
  27 -25  15     536      69                                                         355    8.20    8.51  1.0000
  27 -25  13    1040      91                                                        1173   10.86   -8.95  1.0000
  27 -25  11     551     109                                                         969  -15.00    5.19  1.0000
  27 -25   9     926     116                                                         942    0.23    3.24  1.0000
  27 -25   5     927     139                                                         766    6.21   -5.56  1.0000
  27 -25   3    1140     138                                                        1071   -1.15    2.77  1.0000
  27 -25   1    1714     143                                                        1320  -10.93   -7.62  1.0000
  27 -25  -1    1663     127                                                        1286  -10.99    7.27  1.0000
  27 -25  -3     898     117                                                         831   -1.35   -2.88  1.0000
  27 -25  -5     886     111                                                         737    5.95    5.78  1.0000
  27 -25  -7    1796      96                                                        1034   12.26   17.22  1.0000
  27 -27  11     171      83                                                         207    3.17   -0.32  1.0000
  27 -27   7     199      99                                                         361   19.11   -2.34  1.0000
  27 -27   5     247      98                                                         313    3.80   -6.26  1.0000
  27 -27   3     809     112                                                         665   15.47    2.65  1.0000
  27 -27   1    1562     116                                                        1600   -4.39  -11.01  1.0000
  27 -27  -1     710     101                                                         737   -5.12   11.72  1.0000
  27 -27  -3     419      85                                                         304   15.80   -2.44  1.0000
  27 -27  -5      78      67                                                         116    4.15    6.25  1.0000
  28   0   0   35641    1031                                                       39476   20.31    0.65  1.0000
  28   0   2    9007     246                                                        6527  -28.95   -1.10  1.0000
  28   0   4    3135     167                                                        2373   14.95    0.87  1.0000
  28   0   6    2648     160                                                        1850  -17.34    2.85  1.0000
  28   0  -8    9480     355                                                       11426   19.54   -1.73  1.0000
  28   0   8    8949     323                                                       10868   19.79   -1.41  1.0000
  28   0 -10    2050     200                                                        2495    9.57   -1.57  1.0000
  28   0  10    1853     147                                                        2286    9.77    1.47  1.0000
  28   0 -12     295     177                                                         569   13.67    0.81  1.0000
  28   0 -14    2102     185                                                        3036   18.99   -1.21  1.0000
  28   0 -16     675     144                                                         621   -2.16    0.36  1.0000
  28   0 -18    2541     137                                                        2023   11.16   -1.02  1.0000
  18 -28   0    2671     188                                                        2163   10.60   -0.85  1.0000
  28   0 -20    7646     241                                                        8594   10.79   -1.59  1.0000
  20 -28   0    6929     279                                                        7709    9.35   -1.91  1.0000
  22 -28   0   12652     424                                                       14280   14.40   -1.00  1.0000
  28   0 -22   13908     397                                                       15372   12.42   -0.37  1.0000
  24 -28   0      17     120                                                          15   16.61   -0.85  1.0000
  26 -28   0     434      89                                                         372    3.18   -0.04  1.0000
  26 -28   2     853     106                                                         954    0.02   -6.03  1.0000
  24 -28   2     299     133                                                         252   10.93   12.44  1.0000
  22 -28   2     371     160                                                         609    3.82   15.35  1.0000
  28   2 -22     462      80                                                         703    5.59   15.23  1.0000
  28   2 -20    1170     110                                                         981  -15.21  -21.84  1.0000
  20 -28   2    1104     169                                                         885  -13.26  -21.18  1.0000
  28   2 -18    2515     142                                                        2503  -10.37    3.00  1.0000
  18 -28   2    2052     193                                                        2056  -12.14    3.14  1.0000
  28   2 -16    1931     153                                                        1884  -16.93  -19.61  1.0000
  28   2 -14    4024     184                                                        2588  -26.77   -7.05  1.0000
  28   2 -12    6720     248                                                        7368    5.90  -32.31  1.0000
  28  -2  12    5331     207                                                        5921    6.42  -32.19  1.0000
  28  -2  10    4503     178                                                        4407    4.92   10.32  1.0000
  28   2 -10    4319     221                                                        4224    5.45   11.17  1.0000
  28  -2   8    2622     169                                                        3089    9.58    0.46  1.0000
  28  -2   6    2058     161                                                        1321  -30.79  -38.18  1.0000
  28   2  -4    2703     185                                                        2294   -7.79    6.68  1.0000
  28  -2   4    2416     168                                                        2045   -7.55    5.01  1.0000
  28  -2   2     628     178                                                        1232  -42.11    0.01  1.0000
  28  -2   0    1383     183                                                        1313    1.95    0.15  1.0000
  28  -2  -2     976     195                                                        1799  -41.98   -0.50  1.0000
  28  -2 -10    7269     270                                                        7096    4.81  -11.54  1.0000
  28  -2 -12    7370     287                                                        8023    5.44   32.60  1.0000
  28  -2 -14    3768     172                                                        2393  -26.47    7.09  1.0000
  16 -28  -2    2287     193                                                        2277  -15.95   19.40  1.0000
  28  -2 -16    2590     162                                                        2570  -16.89   19.81  1.0000
  28  -2 -18    3255     147                                                        3221  -11.04   -3.68  1.0000
  18 -28  -2    2736     185                                                        2704   -8.57   -2.87  1.0000
  28  -2 -20    1062      98                                                         890  -14.49   20.26  1.0000
  20 -28  -2     991     156                                                         801  -14.38   21.10  1.0000
  22 -28  -2     848     140                                                        1193    7.01  -16.34  1.0000
  24 -28  -2     145     113                                                          98   12.29  -12.33  1.0000
  26 -28  -2     703      87                                                         828    0.82    6.99  1.0000
  26 -28   4     296      98                                                         294    2.40    9.96  1.0000
  24 -28   4    3716     171                                                        3852    1.88   -4.49  1.0000
  22 -28   4    1621     154                                                        1449    3.86    2.70  1.0000
  28   4 -22    1579      91                                                        1437    4.70    1.11  1.0000
  28   4 -20    2468     135                                                        2899    8.54   -0.53  1.0000
  20 -28   4    2289     198                                                        2727    8.90   -1.35  1.0000
  28   4 -18    7634     279                                                        9394   20.11   -0.21  1.0000
  28   4 -16    2373     157                                                        2202   21.74   16.79  1.0000
  28   4 -14    4672     213                                                        5623   -5.51  -20.22  1.0000
  28  -4  14    3851     176                                                        4771   -6.85  -19.41  1.0000
  28   4 -12    2793     182                                                        2288  -10.42   -2.00  1.0000
  28  -4  12    2491     137                                                        1951  -11.77   -2.59  1.0000
  28  -4  10    2309     157                                                        2033   -8.67  -13.56  1.0000
  28   4 -10    2611     184                                                        2356   -8.27  -15.17  1.0000
  28  -4   8    3149     168                                                        2955    6.92    5.91  1.0000
  28  -4   6     276     158                                                         142  -11.38  -18.11  1.0000
  28   4  -6     482     172                                                         304  -12.54  -17.16  1.0000
  28  -4   4    6794     288                                                        8463   16.44  -11.35  1.0000
  28   4  -4    7117     291                                                        8829   15.54  -13.48  1.0000
  28  -4   2    9273     290                                                        8088  -16.63   10.12  1.0000
  28   4  -2    9914     272                                                        8764  -15.80   10.24  1.0000
  28  -4   0    4325     217                                                        3902    6.77   -1.11  1.0000
  28   4   0    4332     180                                                        3915    6.68   -0.28  1.0000
  28   4   2    8692     243                                                        7573  -16.00   -9.24  1.0000
  28  -4  -2    7752     282                                                        6774  -15.16   -9.85  1.0000
  28   4   4   16010     502                                                       18643   17.02   12.21  1.0000
  28  -4  -6     940     218                                                         661  -12.98   15.12  1.0000
  28   4   6     817     125                                                         626  -13.54   18.13  1.0000
  28   4   8    3785     153                                                        3587    7.45   -7.41  1.0000
  28   4  10    2581     124                                                        2226  -10.35   14.48  1.0000
  28  -4 -10    2681     210                                                        2301  -10.45   13.09  1.0000
  28  -4 -12    1244     182                                                         939   -9.56    1.89  1.0000
  28  -4 -14    3446     196                                                        4220   -6.38   16.91  1.0000
  14 -28  -4    3343     209                                                        4170   -7.46   17.01  1.0000
  16 -28  -4    3182     189                                                        2966   19.04  -15.92  1.0000
  28  -4 -16    3100     156                                                        2905   21.49  -17.18  1.0000
  18 -28  -4    7151     285                                                        8747   19.23   -1.24  1.0000
  28  -4 -18    7444     264                                                        9085   19.29   -0.81  1.0000
  28  -4 -20    1058      93                                                        1326    7.92    1.28  1.0000
  20 -28  -4     911     151                                                        1190    8.76    1.44  1.0000
  22 -28  -4     974     124                                                         844    3.74   -2.72  1.0000
  24 -28  -4    3552     142                                                        3670    1.66    4.21  1.0000
  26 -28  -4    1203      86                                                        1227    2.32   -9.14  1.0000
  26 -28   6    1297     103                                                        1089   13.03    0.26  1.0000
  24 -28   6     523     128                                                         510   -4.50   23.52  1.0000
  22 -28   6    1239     161                                                         961  -14.01   -4.41  1.0000
  28   6 -22    1189      87                                                         962  -12.70   -5.20  1.0000
  20 -28   6    2017     194                                                        1565  -14.70    9.72  1.0000
  28   6 -20    2026     115                                                        1602  -16.33    8.92  1.0000
  28   6 -18     351     130                                                         340   -7.41   -3.53  1.0000
  28   6 -16    5428     222                                                        5968  -22.39   11.48  1.0000
  28  -6  14      74     112                                                          68    3.70   16.26  1.0000
  28   6 -14     183     156                                                         224    3.56   16.61  1.0000
  28  -6  12     689     128                                                         357  -20.81   13.86  1.0000
  28   6 -12     607     182                                                         299  -20.17   13.51  1.0000
  28  -6  10    1241     162                                                        1872   20.41  -29.51  1.0000
  28  -6   8   13848     338                                                       11131   -9.51   24.28  1.0000
  28  -6   6    6107     201                                                        3703  -56.37  -26.44  1.0000
  28   6  -6    6219     195                                                        3742  -57.63  -26.53  1.0000
  28  -6   4    9748     339                                                       10408   -0.35  -25.97  1.0000
  28   6  -4   10165     325                                                       10750    0.56  -25.88  1.0000
  28   6  -2    2199     170                                                        2821   -8.78   11.74  1.0000
  28  -6   2    1810     211                                                        2346   -9.05   11.04  1.0000
  28  -6   0   17950     521                                                       17115   -6.48    0.24  1.0000
  28   6   0   19649     497                                                       18985   -4.90    0.97  1.0000
  28   6   2    3617     179                                                        4346   -9.13  -10.72  1.0000
  28   6   4   13612     394                                                       14176    1.60   25.29  1.0000
  28  -6  -6    3984     225                                                        1958  -57.41   27.22  1.0000
  28   6   6    3989     133                                                        1934  -58.57   27.87  1.0000
  28   6   8   18168     398                                                       14910   -8.70  -26.29  1.0000
  28  -6  -8   16756     448                                                       13821   -6.63  -25.85  1.0000
  12 -28  -6     422     149                                                         171  -18.59  -12.98  1.0000
  28  -6 -12     736     170                                                         415  -18.26  -12.87  1.0000
  14 -28  -6     758     156                                                         923    3.98  -17.05  1.0000
  28  -6 -14     623     160                                                         780    4.53  -16.80  1.0000
  16 -28  -6    4867     211                                                        5311  -23.29  -10.74  1.0000
  28  -6 -16    4821     195                                                        5277  -23.37  -10.97  1.0000
  18 -28  -6    1907     154                                                        1953   -7.70    2.40  1.0000
  28  -6 -18    1789     117                                                        1856   -9.72    2.84  1.0000
  20 -28  -6    2080     138                                                        1585  -16.14  -10.59  1.0000
  22 -28  -6    1051     112                                                         833  -11.44    3.39  1.0000
  24 -28   8     560     125                                                         761   -6.74   -4.88  1.0000
  22 -28   8    1115     158                                                        1014   -4.80    3.51  1.0000
  28   8 -22    1011      89                                                         932   -4.35    3.98  1.0000
  28   8 -20     721     106                                                         593   11.69   -0.31  1.0000
  20 -28   8    1036     187                                                         896   11.42   -0.54  1.0000
  28   8 -18    7751     231                                                        7126   -4.11   15.68  1.0000
  28  -8  16    2042     111                                                        1835   -0.88   16.52  1.0000
  28   8 -16    2265     165                                                        2059   -0.51   17.90  1.0000
  28  -8  14    1426     125                                                         831   -9.79   15.48  1.0000
  28   8 -14    1244     161                                                         677  -11.72   14.99  1.0000
  28  -8  12     689     145                                                         859   18.98   43.36  1.0000
  28   8 -12     737     168                                                         927   19.38   43.19  1.0000
  28  -8  10    4430     220                                                        5445  -15.12   -0.40  1.0000
  28   8  -8    4173     196                                                        3923    2.67   -3.05  1.0000
  28  -8   8    3466     193                                                        3224    3.05   -3.02  1.0000
  28  -8   6    4792     223                                                        4739  -10.37   16.03  1.0000
  28   8  -6    4087     194                                                        4035  -10.67   16.62  1.0000
  28  -8   4    5119     252                                                        5205    7.66   10.99  1.0000
  28   8  -4    5473     203                                                        5548    9.36   12.64  1.0000
  28  -8   2    9075     273                                                        6326   -5.33   32.86  1.0000
  28   8  -2    9113     222                                                        6432   -4.14   31.76  1.0000
  28  -8   0    2074     238                                                        3336   25.08   -0.37  1.0000
  28   8   0    1821     156                                                        3182   28.17   -0.71  1.0000
  28   8   2    6493     168                                                        4136   -3.91  -33.80  1.0000
  28  -8  -4    8896     355                                                        9089    6.77  -11.06  1.0000
  28   8   4    9478     279                                                        9693    8.11  -12.77  1.0000
  28   8   6    5455     184                                                        5459  -10.19  -17.15  1.0000
  28  -8  -6    5570     280                                                        5517   -8.74  -13.45  1.0000
  28  -8  -8    1363     224                                                        1264    1.54    2.47  1.0000
  28   8   8    1559     104                                                        1478    1.39    1.62  1.0000
  28  -8 -14    1891     172                                                        1151  -10.99  -16.25  1.0000
  28  -8 -16     494     134                                                         361   -0.63  -17.86  1.0000
  28  -8 -18    4526     148                                                        3983   -3.50  -16.37  1.0000
  26 -28  10     355      80                                                         312   -4.76   -3.37  1.0000
  28  10 -22    2951     109                                                        2664    5.33   -3.95  1.0000
  28  10 -20     298     106                                                         253   -0.09  -17.55  1.0000
  28  10 -18    2015     137                                                        1775    5.53  -15.72  1.0000
  28 -10  16     313     100                                                         563   -8.09   -9.48  1.0000
  28  10 -16     403     136                                                         676   -8.16   -9.16  1.0000
  28 -10  14   13525     401                                                       14242   -6.24   -1.36  1.0000
  28  10 -14   14223     414                                                       15028   -6.82   -1.62  1.0000
  28 -10  12      25     147                                                         243  -23.39    0.73  1.0000
  28 -10  10    2274     173                                                        1493   12.24  -13.96  1.0000
  28 -10   8    4323     238                                                        5854  -23.92  -17.02  1.0000
  28  10  -8    3882     226                                                        5299  -23.32  -16.02  1.0000
  28 -10   6    4360     259                                                        6315  -19.20  -19.78  1.0000
  28  10  -6    4234     231                                                        6224  -20.92  -19.18  1.0000
  28 -10   4    1812     211                                                        2121    4.30   -6.85  1.0000
  28  10  -4    1845     151                                                        2150    4.13   -6.82  1.0000
  28 -10   2     207     217                                                         332   15.25   -6.34  1.0000
  28  10  -2     298     137                                                         448   14.80   -4.95  1.0000
  28  10   0   15180     287                                                        9793   49.75    1.38  1.0000
  28  10   2    1112     124                                                        1413   14.56    5.52  1.0000
  28 -10  -4    1217     238                                                        1458    3.74    7.05  1.0000
  28  10   4    1488     124                                                        1791    4.41    7.70  1.0000
  28  10   6    3430     173                                                        5237  -20.19   19.84  1.0000
  28 -10  -6    3143     267                                                        4907  -20.40   20.18  1.0000
  28 -10  -8    9648     393                                                       11864  -23.44   17.87  1.0000
  28 -10 -10    4709     229                                                        3462   12.93   15.34  1.0000
  28 -10 -14   10883     347                                                       11577   -6.71    1.92  1.0000
  28 -10 -16      30     122                                                         134   -8.23    9.54  1.0000
  26 -28  12     293      68                                                         393    1.51    5.68  1.0000
  24 -28  12      87     110                                                         265   12.60    9.97  1.0000
  22 -28  12    3620     178                                                        4013    0.72  -25.93  1.0000
  20 -28  12     549     159                                                         295   12.66   34.43  1.0000
  28  12 -20     477     105                                                         214   12.61   34.38  1.0000
  28  12 -18     241     112                                                         172   -4.15   22.75  1.0000
  28 -12  16      45     107                                                          75   -0.02   -4.09  1.0000
  28  12 -16     107     141                                                         164    0.79   -5.08  1.0000
  28  12 -14     463     147                                                         712  -12.16   18.46  1.0000
  28 -12  14     342     134                                                         532  -11.61   18.84  1.0000
  28 -12  12    2782     171                                                        3007   11.43   35.20  1.0000
  28  12 -10    1458     167                                                        1167   -6.76    5.13  1.0000
  28 -12  10    1399     174                                                        1152   -5.32    4.85  1.0000
  28 -12   8    2361     199                                                        2051   10.87   -0.14  1.0000
  28  12  -8    2119     157                                                        1819   10.48   -0.61  1.0000
  28 -12   6    2957     231                                                        4575  -27.57    6.73  1.0000
  28  12  -6    2784     194                                                        4360  -27.57    6.42  1.0000
  28 -12   4    6778     255                                                        4980   -3.33  -24.24  1.0000
  28  12  -4    6126     194                                                        4436   -4.02  -23.83  1.0000
  28 -12   2    1189     231                                                        1184   -2.11   10.24  1.0000
  28  12  -2    1082     133                                                        1083   -2.11    8.95  1.0000
  28  12   0   15955     340                                                       12162   32.89    0.74  1.0000
  28 -12  -2     248     250                                                         241   -2.36   -9.03  1.0000
  28  12   2      59     119                                                          33   -1.75  -10.59  1.0000
  28 -12  -4   10614     337                                                        8322   -3.98   24.13  1.0000
  28  12   4   10951     249                                                        8558   -4.82   24.59  1.0000
  28 -12  -6    3458     282                                                        5247  -28.28   -6.07  1.0000
  28  12   6    3297     162                                                        5053  -28.39   -7.19  1.0000
  28 -12  -8    2381     230                                                        2063   10.25    0.80  1.0000
  28 -12 -10    2263     211                                                        1948   -5.29   -4.78  1.0000
  28 -12 -14    1406     156                                                        1912  -12.60  -20.53  1.0000
  28 -12 -16      53     106                                                          96    1.80    5.12  1.0000
  24 -28  14    1340      99                                                        1440    4.49   11.17  1.0000
  22 -28  14     734     112                                                        1095    2.64   16.25  1.0000
  20 -28  14    2831     157                                                        2626   -6.24   -8.99  1.0000
  28  14 -20    2442     114                                                        2307   -4.68   -7.83  1.0000
  28 -14  18    4287     147                                                        4330    0.13    2.33  1.0000
  28  14 -18    4939     167                                                        4942    0.88    2.56  1.0000
  28  14 -16      99     126                                                          56    3.49  -32.92  1.0000
  28 -14  16      56     103                                                         140    2.25  -32.96  1.0000
  28 -14  14    1190     133                                                         608  -19.84   -9.75  1.0000
  28 -14  12    6696     235                                                        6784    1.20    9.90  1.0000
  28  14 -10    7073     272                                                        8692  -18.30   -5.00  1.0000
  28 -14  10    6871     293                                                        8518  -19.00   -3.84  1.0000
  28  14  -8    1407     142                                                        1279    4.50  -23.80  1.0000
  28 -14   8    1311     189                                                        1214    5.84  -25.21  1.0000
  28 -14   6    5865     264                                                        5765  -22.91   -7.11  1.0000
  28  14  -6    6188     207                                                        6047  -23.27   -6.64  1.0000
  28  14  -4    4745     196                                                        5456   -3.49  -22.76  1.0000
  28 -14   4    4949     261                                                        5575   -2.42  -21.66  1.0000
  28  14  -2    2343     154                                                        3352  -22.27   -2.75  1.0000
  28  14   0    5792     223                                                        7176   17.65    0.65  1.0000
  28 -14  -2    2464     251                                                        3459  -21.49    2.61  1.0000
  28  14   2    2541     144                                                        3544  -21.38    2.63  1.0000
  28 -14  -4    3634     262                                                        4176   -2.39   22.59  1.0000
  28  14   4    3902     157                                                        4545   -4.01   21.45  1.0000
  28 -14  -6    7620     311                                                        7519  -23.44    7.18  1.0000
  28 -14  -8    1757     220                                                        1659    5.42   24.69  1.0000
  28 -14 -10    5272     263                                                        6704  -18.59    5.11  1.0000
  28 -14 -14     847     125                                                         339  -20.16   11.54  1.0000
  22 -28  16     205      85                                                         220   16.57    3.46  1.0000
  20 -28  16     419     119                                                         663  -13.12   10.47  1.0000
  28 -16  18      34      77                                                         210    0.30   21.96  1.0000
  28  16 -18      47     102                                                         249    0.48   22.16  1.0000
  28 -16  16     249     102                                                          99  -28.15   41.78  1.0000
  28  16 -16     136     109                                                         261  -26.88   43.44  1.0000
  28 -16  14     217     125                                                          48  -13.99   15.72  1.0000
  28 -16  12    2598     183                                                        3559   16.39    8.36  1.0000
  28  16 -12    2826     166                                                        3773   16.87    6.47  1.0000
  28 -16  10    6965     232                                                        5641  -15.07    8.30  1.0000
  28  16 -10    6821     199                                                        5577  -15.11    6.68  1.0000
  28 -16   8    3954     212                                                        3876   -2.80    0.21  1.0000
  28  16  -8    4156     177                                                        4132   -4.23    2.11  1.0000
  28  16  -6    1197     125                                                         481  -37.97   -0.38  1.0000
  28 -16   6    1276     202                                                         494  -39.37    1.04  1.0000
  28  16  -4     397     125                                                          55   47.39   -9.02  1.0000
  28 -16   4     330     209                                                         167   46.17   -6.94  1.0000
  28  16  -2     730     114                                                        1031  -21.11    2.22  1.0000
  28  16   0     129     104                                                         320  -13.31    1.40  1.0000
  28 -16   0     181     228                                                         396  -13.16    0.75  1.0000
  28  16   2     520      99                                                         774  -20.72   -1.50  1.0000
  28 -16  -2     625     230                                                         921  -21.74   -1.77  1.0000
  28  16   4     363      82                                                         285   48.19    9.32  1.0000
  28 -16  -4     376     224                                                         399   46.37    7.80  1.0000
  28 -16  -6    1549     205                                                         729  -38.11   -0.09  1.0000
  28 -16  -8    3400     216                                                        3321   -3.93   -0.76  1.0000
  28 -16 -10    6988     243                                                        5720  -14.76   -7.38  1.0000
  28 -16 -14     683     111                                                         416  -15.22  -15.37  1.0000
  22 -28  18      77      66                                                         208   -0.20   11.65  1.0000
  20 -28  18      73      86                                                         -26    6.41  -16.30  1.0000
  28 -18  18    3152     122                                                        3492    6.08   -0.47  1.0000
  18 -28  18    3337     151                                                        3666    5.72   -0.46  1.0000
  28 -18  16     600      96                                                         582   -1.18   -0.36  1.0000
  28 -18  14    3230     163                                                        3837  -11.21   -3.01  1.0000
  28 -18  12    4685     189                                                        4711    2.60  -10.56  1.0000
  28  18 -12    4594     171                                                        4523    1.40  -12.10  1.0000
  28 -18  10     804     169                                                         902    3.32    0.92  1.0000
  28  18 -10     993     127                                                        1117    3.96    0.12  1.0000
  28 -18   8    4324     198                                                        3712   20.52   14.71  1.0000
  28  18  -8    4150     157                                                        3622   18.71   14.24  1.0000
  28  18  -6     681     115                                                         810   12.96   31.24  1.0000
  28 -18   6     550     193                                                         661   11.77   31.46  1.0000
  28  18  -4    3148     155                                                        4185   25.31  -25.50  1.0000
  28 -18   2    8724     284                                                        6090  -32.36    4.96  1.0000
  28  18  -2   10830     223                                                        7849  -32.15    5.98  1.0000
  28  18   0      42      95                                                         335  -24.24   -0.18  1.0000
  28 -18   0       6     213                                                         188  -23.33   -0.44  1.0000
  28 -18  -2   15165     382                                                       11668  -32.69   -3.27  1.0000
  28  18   2   15525     324                                                       12082  -31.51   -3.62  1.0000
  28 -18  -4    3170     242                                                        4132   24.08   25.66  1.0000
  28 -18  -6     855     188                                                        1070   12.60  -32.40  1.0000
  28 -18  -8    5300     222                                                        4712   18.19  -13.38  1.0000
  28 -18 -10     261     152                                                         304    2.62   -0.23  1.0000
  28 -20  18     527      62                                                         664   20.49    5.25  1.0000
  18 -28  20     838      92                                                        1037   20.38    5.30  1.0000
  28 -20  16    1841     104                                                        2015   -7.47   14.77  1.0000
  28 -20  14     151     108                                                         198  -18.65  -33.47  1.0000
  28 -20  12    2956     163                                                        3255    1.47    7.68  1.0000
  28 -20  10     325     141                                                         413   -7.04  -21.12  1.0000
  28  20 -10     340     100                                                         437   -6.63  -20.92  1.0000
  28 -20   8    5783     240                                                        6217    5.34    3.03  1.0000
  28  20  -8    5664     192                                                        6137    5.66    4.57  1.0000
  28 -20   6    2016     181                                                        2502   16.65   10.02  1.0000
  28  20  -6    2035     122                                                        2514   17.13   11.56  1.0000
  28  20  -4      48     100                                                         121  -12.29   -2.84  1.0000
  28 -20   2      52     186                                                          42   11.53   25.61  1.0000
  28  20  -2     188      92                                                         -15    8.11   26.96  1.0000
  28 -20   0      39     178                                                         126   10.19    0.19  1.0000
  28  20   0      72      81                                                         183   10.37    1.03  1.0000
  28 -20  -2      14     186                                                         303    8.41  -26.98  1.0000
  28 -20  -4     113     183                                                         229  -12.23    2.40  1.0000
  28 -20  -6    1156     178                                                        1511   16.83  -10.57  1.0000
  28 -20  -8    6496     247                                                        7006    5.59   -5.42  1.0000
  28 -20 -10     367     122                                                         478   -6.07   20.58  1.0000
  28 -22  16    1938      79                                                        1489  -14.41   -4.22  1.0000
  16 -28  22    2017      90                                                        1553  -14.53   -4.17  1.0000
  28 -22  14    2073     124                                                        2601    2.42  -16.13  1.0000
  28 -22  12     406     108                                                         228    4.73  -25.68  1.0000
  28 -22  10    1900     135                                                        1558    4.10   12.21  1.0000
  28 -22   8    2326     172                                                        3039   15.29    0.38  1.0000
  28 -22   4    1494     157                                                        1113    0.06  -14.87  1.0000
  28 -22   2    2172     171                                                        1879  -18.59   10.49  1.0000
  28 -22   0    4445     226                                                        5584   16.53   -1.61  1.0000
  28 -22  -2    1092     158                                                         883  -17.91  -10.95  1.0000
  28 -22  -4    1009     151                                                         737   -0.16   12.99  1.0000
  28 -22  -6    2781     152                                                        2244  -15.23  -26.52  1.0000
  28 -22  -8    3796     174                                                        4686   14.97   -0.76  1.0000
  28 -24  14     488      70                                                         552   -2.14  -10.37  1.0000
  28 -24  12    4210     143                                                        4140    4.93  -13.23  1.0000
  28 -24  10    2402     123                                                        2426    3.86    7.19  1.0000
  28 -24   8     809     121                                                         384   -0.55   22.39  1.0000
  28 -24   4    2553     151                                                        2279   -4.58    4.36  1.0000
  28 -24   2    1293     147                                                        1244   -3.95   -2.20  1.0000
  28 -24   0     387     135                                                         625   10.92    0.71  1.0000
  28 -24  -2    1112     136                                                        1042   -3.72    0.83  1.0000
  28 -24  -4    3197     143                                                        2888   -4.49   -4.72  1.0000
  28 -24  -6    1029     106                                                         938   -9.55   -5.56  1.0000
  28 -24  -8     371      81                                                          89   -0.52  -23.36  1.0000
  28 -26  12     591      71                                                         625    1.66   -4.52  1.0000
  28 -26  10    1842     103                                                        1689    0.51    7.25  1.0000
  28 -26   6     252      93                                                         152    2.72    7.06  1.0000
  28 -26   4    3020     129                                                        2885   11.07  -11.86  1.0000
  28 -26   2    1531     111                                                        1509  -13.62   -4.46  1.0000
  28 -26   0      25      97                                                         381  -29.67   -0.75  1.0000
  28 -26  -2     724      98                                                         704  -13.40    3.94  1.0000
  28 -26  -4    2498     106                                                        2415   11.15   10.71  1.0000
  28 -26  -6      56      62                                                          14    2.41   -7.41  1.0000
  28 -28   6     929      80                                                         818    3.32   16.24  1.0000
  28 -28   4     609      82                                                         840   21.30  -21.68  1.0000
  28 -28   2     572      82                                                         714   -5.36   -7.36  1.0000
  28 -28   0    2680     107                                                        2858    3.47    0.00  1.0000
  27 -29   1      12      62                                                          25    0.98    4.45  1.0000
  25 -29   1     918     100                                                        1488   10.76   18.26  1.0000
  23 -29   1     641     126                                                         581   -3.49    0.97  1.0000
  21 -29   1    3316     171                                                        2681   12.47   19.58  1.0000
  29   1 -21    3693     116                                                        3047   11.98   17.62  1.0000
  29   1 -19    1982     122                                                        2111   -3.48  -10.50  1.0000
  19 -29   1    2045     168                                                        2167   -4.30  -11.29  1.0000
  29   1 -17    5236     181                                                        4562  -11.32   -3.19  1.0000
  17 -29   1    4500     216                                                        3862  -11.67   -3.57  1.0000
  29   1 -15    3186     186                                                        3649  -11.04   -6.89  1.0000
  29   1 -13     535     155                                                         484  -27.45   -5.11  1.0000
  29   1 -11    7500     268                                                        7257  -31.50   19.71  1.0000
  29   1  -9    9121     315                                                        9060  -28.65   27.25  1.0000
  29  -1   9    9348     279                                                        9339  -27.68   27.08  1.0000
  29  -1   7    6326     250                                                        7310   -9.60  -16.09  1.0000
  29   1  -5    8457     297                                                        7720   -8.91   -2.30  1.0000
  29  -1   5    9522     272                                                        8758   -8.78   -2.81  1.0000
  29   1  -3    2298     193                                                        2390    6.45  -15.20  1.0000
  29  -1   3    2150     180                                                        2241    6.95  -16.59  1.0000
  29  -1   1    1117     184                                                         894    5.22  -10.32  1.0000
  29  -1  -1     236     175                                                         148    3.99    9.37  1.0000
  29  -1  -7    3321     237                                                        4134  -11.51   14.75  1.0000
  29  -1  -9    7432     284                                                        7356  -28.31  -27.18  1.0000
  29  -1 -11    2375     198                                                        2075  -30.36  -18.17  1.0000
  29  -1 -13     657     166                                                         645  -27.99    6.01  1.0000
  29  -1 -15    1660     166                                                        1951  -10.73    5.98  1.0000
  29  -1 -17    4930     171                                                        4229  -12.06    3.12  1.0000
  17 -29  -1    4613     206                                                        4011  -10.51    2.26  1.0000
  29  -1 -19    2580     129                                                        2663   -3.63    8.39  1.0000
  19 -29  -1    2426     180                                                        2517   -3.47    8.58  1.0000
  29  -1 -21    4132     120                                                        3460   11.93  -18.99  1.0000
  21 -29  -1    3913     165                                                        3186   13.28  -20.01  1.0000
  23 -29  -1    1064     122                                                         987   -2.97   -0.17  1.0000
  25 -29  -1    1124     106                                                        1779   12.06  -17.06  1.0000
  27 -29   3     325      66                                                         405    4.32    2.56  1.0000
  25 -29   3    1464     114                                                        1639   -2.65  -13.11  1.0000
  23 -29   3    1559     139                                                        2000    6.66   10.61  1.0000
  21 -29   3    3567     181                                                        3425   -4.13  -17.05  1.0000
  29   3 -21    4078     135                                                        3876   -4.97  -16.55  1.0000
  29   3 -19      59     109                                                         120    3.54    8.48  1.0000
  19 -29   3      97     165                                                         171    2.95    8.77  1.0000
  29   3 -17    3441     173                                                        3924   -0.94   11.00  1.0000
  29   3 -15    3542     188                                                        4356   -0.67   20.82  1.0000
  29   3 -13    3313     184                                                        2315  -19.36    1.17  1.0000
  29  -3  13    3385     128                                                        2396  -18.95    0.46  1.0000
  29   3 -11    6130     265                                                        7995  -23.27    9.84  1.0000
  29  -3  11    5421     239                                                        7202  -23.54   10.52  1.0000
  29  -3   9     145     140                                                          92   -5.20    0.88  1.0000
  29   3  -9     115     170                                                          56   -7.02    2.99  1.0000
  29  -3   7    6254     234                                                        6357  -17.11  -35.34  1.0000
  29  -3   5     476     168                                                         458   10.28   -7.01  1.0000
  29   3  -5     209     183                                                         187   10.62   -6.94  1.0000
  29   3  -3    6853     243                                                        6235    1.68   10.42  1.0000
  29  -3   3    7020     252                                                        6465    2.49    7.94  1.0000
  29   3  -1    7562     250                                                        7011  -12.96  -16.86  1.0000
  29  -3   1    7923     272                                                        7478  -11.95  -18.13  1.0000
  29  -3  -1   13631     375                                                       12948  -13.44   18.63  1.0000
  29   3   1   12110     349                                                       11522  -12.61   18.19  1.0000
  29   3   3    4507     180                                                        4096    1.92   -7.81  1.0000
  29   3   5     101     130                                                          73    9.84    6.66  1.0000
  29   3   7    7315     235                                                        7425  -17.69   35.58  1.0000
  29   3   9     222     108                                                         144   -6.24   -2.11  1.0000
  29  -3  -9     228     187                                                         148   -6.51   -2.91  1.0000
  29   3  11    4525     196                                                        6177  -23.66   -7.91  1.0000
  29  -3 -11    5565     252                                                        7460  -24.54   -7.64  1.0000
  29  -3 -13    4004     193                                                        2936  -18.66   -2.74  1.0000
  15 -29  -3    2685     191                                                        3307   -3.79  -22.03  1.0000
  29  -3 -15    2690     170                                                        3324   -3.11  -21.57  1.0000
  17 -29  -3    3538     190                                                        4026    0.04  -11.98  1.0000
  29  -3 -17    3499     172                                                        4007   -0.74  -11.70  1.0000
  29  -3 -19     790     103                                                         999    2.21   -9.88  1.0000
  19 -29  -3     594     143                                                         814    3.69  -10.23  1.0000
  21 -29  -3    6197     202                                                        5970   -4.76   15.67  1.0000
  23 -29  -3    1060     107                                                        1414    6.71   -9.75  1.0000
  25 -29  -3    1222      86                                                        1360   -1.98   13.94  1.0000
  27 -29   5      13      74                                                         168   22.96    9.60  1.0000
  25 -29   5    1149     107                                                        1343   14.66   17.45  1.0000
  23 -29   5    1247     129                                                         837   12.31   -4.94  1.0000
  29   5 -23    1317      63                                                         912   11.99   -4.29  1.0000
  29   5 -21     326      85                                                         381    0.13    9.74  1.0000
  21 -29   5     282     147                                                         337    0.25   10.96  1.0000
  29   5 -19     212     109                                                         534    0.18  -17.98  1.0000
  19 -29   5     158     177                                                         444    0.08  -17.94  1.0000
  29   5 -17    3741     157                                                        3278  -12.75   38.11  1.0000
  29   5 -15    1760     165                                                        1825   -5.20    7.95  1.0000
  29   5 -13    1642     185                                                        2964  -15.26   34.45  1.0000
  29  -5  13    1699     144                                                        3056  -16.44   34.91  1.0000
  29  -5  11      89     133                                                         -13   15.17   12.02  1.0000
  29   5 -11      87     181                                                         -40   15.15   11.74  1.0000
  29  -5   9    4488     176                                                        3608  -12.63   -6.65  1.0000
  29  -5   7      50     165                                                          20   18.67  -12.69  1.0000
  29   5  -7      13     177                                                          89   18.58  -10.75  1.0000
  29  -5   5    6509     262                                                        6783   -4.48    1.37  1.0000
  29   5  -5    6639     256                                                        6944   -4.10    2.00  1.0000
  29  -5   3    4247     210                                                        4193   -6.00  -29.09  1.0000
  29   5  -3    3957     193                                                        3911   -6.06  -28.32  1.0000
  29   5  -1    5055     185                                                        3947  -13.74   16.24  1.0000
  29  -5   1    4850     231                                                        3942  -15.06   13.30  1.0000
  29   5   1    4482     173                                                        3622  -12.93  -13.13  1.0000
  29  -5  -1    4463     226                                                        3544  -14.36  -14.14  1.0000
  29   5   3    5554     202                                                        5415   -4.46   28.93  1.0000
  29   5   5    3423     159                                                        3701   -3.72   -3.37  1.0000
  29  -5  -5    3525     254                                                        3795   -5.39   -2.17  1.0000
  29   5   7     123     114                                                         417   18.66   11.01  1.0000
  29   5   9    2703     111                                                        2013  -12.45    8.17  1.0000
  29  -5 -11       4     188                                                         131   14.60  -12.62  1.0000
  13 -29  -5     472     145                                                        1204  -15.07  -34.99  1.0000
  29  -5 -13     328     180                                                         928  -15.69  -35.33  1.0000
  29  -5 -15     335     135                                                         368   -5.94  -10.30  1.0000
  15 -29  -5     431     142                                                         467   -5.33   -9.20  1.0000
  17 -29  -5    3493     160                                                        2999  -13.03  -40.22  1.0000
  29  -5 -17    3536     150                                                        3064  -13.28  -39.75  1.0000
  19 -29  -5      23     126                                                          14    0.67   17.15  1.0000
  29  -5 -19      38      92                                                           8    0.15   18.17  1.0000
  21 -29  -5     173     103                                                         217   -0.08  -11.02  1.0000
  23 -29  -5    1200      88                                                         825   11.10    5.04  1.0000
  27 -29   7      33      58                                                          24    3.33    7.10  1.0000
  25 -29   7    1211     116                                                        1584    9.43   21.77  1.0000
  23 -29   7     446     136                                                         417   -8.47   10.25  1.0000
  29   7 -23     311      59                                                         302   -7.23   10.63  1.0000
  21 -29   7    1915     177                                                        2686  -19.98   -1.95  1.0000
  29   7 -21    1791     112                                                        2503  -19.13   -1.87  1.0000
  19 -29   7    6297     244                                                        5640  -14.68    2.17  1.0000
  29   7 -19    6787     193                                                        6074  -15.14    2.01  1.0000
  29   7 -17     676     132                                                         443   -8.71    5.33  1.0000
  29   7 -15    3556     202                                                        4711  -19.65   11.67  1.0000
  29  -7  15    3640     165                                                        4788  -19.29   10.76  1.0000
  29  -7  13    4162     178                                                        4752   -5.50    7.88  1.0000
  29   7 -13    4597     210                                                        5178   -3.79    9.27  1.0000
  29  -7  11    4186     173                                                        3090   -1.56  -26.38  1.0000
  29   7 -11    4220     181                                                        3142   -0.92  -25.15  1.0000
  29  -7   9    2942     162                                                        1646   12.47  -26.00  1.0000
  29  -7   7   26985     776                                                       28985  -13.05    9.73  1.0000
  29   7  -7   27447     771                                                       29504  -13.33   10.37  1.0000
  29  -7   5    6857     235                                                        5117  -22.25    7.38  1.0000
  29   7  -5    6731     212                                                        4969  -22.23    8.61  1.0000
  29  -7   3   11946     331                                                       10572  -14.23   17.42  1.0000
  29   7  -3   10815     302                                                        9492  -14.46   18.54  1.0000
  29  -7   1    2493     237                                                        3226  -16.56   -8.88  1.0000
  29   7  -1    2272     158                                                        2972  -16.35   -7.92  1.0000
  29   7   1    2420     157                                                        3135  -16.35    8.49  1.0000
  29   7   3   11035     284                                                        9722  -14.24  -18.77  1.0000
  29   7   5   10920     260                                                        8742  -21.34   -7.90  1.0000
  29  -7  -5   11164     338                                                        9009  -22.43   -4.79  1.0000
  29   7   7   26399     748                                                       28539  -14.05   -9.94  1.0000
  29  -7  -7   27707     788                                                       29760  -13.22   -9.83  1.0000
  29  -7 -11    3049     188                                                        2060    0.42   26.16  1.0000
  29  -7 -13    7254     280                                                        8053   -5.30   -8.65  1.0000
  29  -7 -15    1458     157                                                        2203  -19.55  -11.94  1.0000
  29  -7 -17    2761     131                                                        2230   -9.52   -5.55  1.0000
  21 -29   9    3054     181                                                        3251    0.28  -16.96  1.0000
  29   9 -21    3097     124                                                        3237    1.23  -16.45  1.0000
  29   9 -19     106     107                                                         267  -21.27    0.29  1.0000
  19 -29   9     119     171                                                         288  -21.85   -0.66  1.0000
  29   9 -17    3926     168                                                        4029  -11.84   -9.50  1.0000
  29  -9  15    1443     109                                                        1508  -18.65    0.30  1.0000
  29   9 -15    1616     156                                                        1740  -18.86    1.56  1.0000
  29  -9  13     928     129                                                         964    0.00   -1.81  1.0000
  29   9 -13     675     154                                                         732    0.70   -2.52  1.0000
  29  -9  11    2846     166                                                        2393  -16.87   -0.09  1.0000
  29  -9   9    1418     174                                                        1715    6.75  -22.89  1.0000
  29   9  -9    1239     161                                                        1509    6.86  -20.99  1.0000
  29  -9   7     986     178                                                         700   21.81    7.22  1.0000
  29   9  -7     852     163                                                         593   21.23    7.45  1.0000
  29  -9   5    2309     207                                                        1871  -12.02   38.17  1.0000
  29   9  -5    2077     166                                                        1612  -11.35   38.55  1.0000
  29  -9   3     816     212                                                         959   34.55    7.97  1.0000
  29   9  -3     662     141                                                         798   33.97    9.31  1.0000
  29  -9   1    6029     283                                                        6047  -21.97  -20.09  1.0000
  29   9  -1    5866     202                                                        5808  -20.85  -20.34  1.0000
  29   9   1    7623     238                                                        7536  -20.53   20.87  1.0000
  29  -9  -3    3860     281                                                        4541   36.25   -7.86  1.0000
  29   9   3    3938     175                                                        4671   36.40   -8.48  1.0000
  29   9   5    2998     129                                                        2477   -9.71  -36.89  1.0000
  29  -9  -5    3073     245                                                        2578  -10.50  -37.16  1.0000
  29  -9  -7    1626     233                                                        1311   19.03   -6.25  1.0000
  29   9   7    1481      99                                                        1175   22.14   -8.36  1.0000
  29  -9  -9    3167     246                                                        3670    7.08   21.75  1.0000
  29  -9 -13     776     162                                                         826   -0.74    3.59  1.0000
  29  -9 -15    2162     146                                                        2265  -18.84   -0.39  1.0000
  29  -9 -17    5537     185                                                        5643  -11.91   10.08  1.0000
  25 -29  11    6001     174                                                        5629    4.99    7.04  1.0000
  29  11 -21    3785     114                                                        2858  -17.00   -4.79  1.0000
  29  11 -19    2610     129                                                        2828    0.62   15.52  1.0000
  29  11 -17    4485     168                                                        4229    5.65   -4.40  1.0000
  29 -11  15     879     109                                                        1008   -3.48  -12.73  1.0000
  29  11 -15    1101     142                                                        1242   -3.56  -12.44  1.0000
  29 -11  13     125     134                                                          89   -3.79  -10.40  1.0000
  29  11 -13     348     139                                                         321   -2.96  -10.67  1.0000
  29 -11  11   25418     624                                                       23351   13.96   -8.48  1.0000
  29 -11   9     814     161                                                        1426    3.46  -38.43  1.0000
  29  11  -9     614     158                                                        1096    3.37  -37.54  1.0000
  29 -11   7    3864     219                                                        4780   -5.48   30.43  1.0000
  29  11  -7    3619     201                                                        4514   -5.26   30.49  1.0000
  29 -11   5    1332     210                                                        2098  -21.20    2.23  1.0000
  29  11  -5    1376     151                                                        2210  -22.63    2.24  1.0000
  29 -11   3   20797     634                                                       22075  -14.81   22.96  1.0000
  29  11  -3   21985     610                                                       23478  -16.28   24.17  1.0000
  29  11  -1    2570     138                                                        1398  -33.50  -36.32  1.0000
  29  11   1    2916     129                                                        1715  -33.15   37.89  1.0000
  29 -11  -3   16910     556                                                       18065  -14.89  -22.74  1.0000
  29  11   3   18355     513                                                       19809  -16.74  -22.81  1.0000
  29 -11  -5     939     238                                                        1662  -23.40   -2.05  1.0000
  29  11   5    1113     114                                                        1863  -23.13   -1.06  1.0000
  29 -11  -7    4473     275                                                        5418   -6.16  -30.12  1.0000
  29 -11  -9     558     207                                                        1034    2.54   38.02  1.0000
  29 -11 -13      31     150                                                         -67   -3.92   10.66  1.0000
  29 -11 -15    1425     138                                                        1612   -3.63   13.51  1.0000
  23 -29  13     457      97                                                         611  -16.75    3.57  1.0000
  21 -29  13    2614     143                                                        2369   12.33  -25.70  1.0000
  19 -29  13     857     151                                                         796  -12.41   -2.07  1.0000
  29  13 -19     803     100                                                         736   -9.28   -2.22  1.0000
  29 -13  17     263      84                                                         220   -1.55   -2.42  1.0000
  29  13 -17     190     109                                                         149   -1.12   -3.27  1.0000
  29 -13  15    2247     141                                                        3110  -10.34  -31.87  1.0000
  29  13 -15    2288     155                                                        3124   -9.11  -33.49  1.0000
  29 -13  13     874     127                                                         492    4.45   16.52  1.0000
  29  13 -11     339     139                                                         265   -4.77   -0.94  1.0000
  29 -13  11       6     144                                                         -16   -4.96   -0.93  1.0000
  29  13  -9    1221     146                                                        1259   -4.18   -2.60  1.0000
  29 -13   9    1454     168                                                        1465   -2.77   -1.29  1.0000
  29  13  -7    3462     173                                                        3532   10.49   -9.10  1.0000
  29 -13   7    3554     218                                                        3646    9.40   -8.80  1.0000
  29 -13   5     524     206                                                         804  -29.52   24.70  1.0000
  29  13  -5     398     135                                                         572  -28.74   24.11  1.0000
  29 -13   3     170     225                                                         589  -21.54  -11.13  1.0000
  29  13  -3     184     121                                                         624  -23.32   -9.83  1.0000
  29  13  -1    4697     194                                                        5448  -10.85    0.72  1.0000
  29 -13  -1    5436     300                                                        6269  -11.26   -1.67  1.0000
  29  13   1    5487     202                                                        6336  -11.34    0.07  1.0000
  29  13   3    1009     116                                                        1897  -23.01   10.62  1.0000
  29 -13  -3    1253     242                                                        2214  -21.36   12.12  1.0000
  29 -13  -5     404     235                                                         587  -27.80  -24.31  1.0000
  29  13   5     414      87                                                         611  -30.86  -24.55  1.0000
  29 -13  -7    1970     217                                                        2085   10.33   11.03  1.0000
  29 -13  -9    1218     208                                                        1243   -1.82    1.42  1.0000
  29 -13 -13     543     138                                                         262    5.13  -14.85  1.0000
  29 -13 -15    1247     125                                                        1808   -9.37   31.40  1.0000
  23 -29  15     101      73                                                         110    3.23    1.50  1.0000
  21 -29  15    1095     112                                                        1406  -10.68    9.37  1.0000
  19 -29  15    1492     134                                                        1648   -1.62   -4.84  1.0000
  29 -15  17    1812     102                                                        2045  -10.41  -15.20  1.0000
  29  15 -17    2005     122                                                        2257  -10.34  -15.25  1.0000
  29 -15  15    5148     150                                                        3942   18.07   -4.24  1.0000
  29  15 -15    5101     159                                                        3857   18.70   -5.17  1.0000
  29 -15  13    3669     186                                                        4715   18.88  -17.56  1.0000
  29  15 -11     329     132                                                         335  -20.28  -23.64  1.0000
  29 -15  11     255     146                                                         227  -18.08  -22.32  1.0000
  29  15  -9     235     130                                                         179   10.63  -24.25  1.0000
  29 -15   9     300     166                                                         271   11.75  -26.02  1.0000
  29 -15   7    4564     233                                                        5503  -15.85   -9.86  1.0000
  29  15  -7    3895     185                                                        4788  -16.05   -8.94  1.0000
  29  15  -5    4148     164                                                        4129    9.97   -1.15  1.0000
  29 -15   5    3670     225                                                        3752   11.96    0.31  1.0000
  29  15  -3     839     114                                                         772   -2.36    1.74  1.0000
  29  15  -1     294     110                                                         406  -19.45  -27.20  1.0000
  29 -15  -1     479     227                                                         663  -17.43   27.28  1.0000
  29  15   1     412     103                                                         582  -18.34   28.19  1.0000
  29 -15  -3     979     227                                                         943   -1.13   -1.16  1.0000
  29  15   3    1085      93                                                         993   -2.84   -1.71  1.0000
  29 -15  -5    1983     219                                                        1994    9.14    0.37  1.0000
  29 -15  -7    5680     276                                                        6669  -14.87    8.59  1.0000
  29 -15  -9     250     184                                                         201   11.33   24.99  1.0000
  29 -15 -13    2429     156                                                        3277   19.21   17.62  1.0000
  21 -29  17      16      74                                                         245   20.38  -13.24  1.0000
  19 -29  17     154      98                                                         282  -10.67   -4.09  1.0000
  29 -17  17    1271      81                                                         976    8.53    3.68  1.0000
  29 -17  15    1529     110                                                        1331  -11.77   10.74  1.0000
  29 -17  13     473     122                                                         708    8.06   -5.99  1.0000
  29  17 -13     379     110                                                         614    7.13   -8.26  1.0000
  29 -17  11    3815     202                                                        4834   -4.25   30.62  1.0000
  29  17 -11    4024     179                                                        5051   -4.19   29.94  1.0000
  29  17  -9     358     110                                                         190  -28.69   26.73  1.0000
  29 -17   9     342     164                                                         135  -28.27   27.35  1.0000
  29 -17   7    1306     181                                                        1250    6.04   12.41  1.0000
  29  17  -7    1452     117                                                        1416    6.76   12.53  1.0000
  29  17  -5     632     108                                                         692    2.40   -3.64  1.0000
  29 -17   5     603     179                                                         636    0.81   -1.85  1.0000
  29  17  -3    5345     186                                                        5689   23.96  -15.47  1.0000
  29 -17   1    6187     269                                                        6484  -22.06   18.46  1.0000
  29  17  -1    6390     204                                                        6687  -21.56   18.07  1.0000
  29 -17  -1    3595     221                                                        3797  -21.75  -18.71  1.0000
  29  17   1    3680     140                                                        3871  -22.03  -18.56  1.0000
  29 -17  -3    2323     219                                                        2468   24.82   15.46  1.0000
  29  17   3    2263     103                                                        2369   24.94   14.75  1.0000
  29 -17  -5    1442     206                                                        1453    3.34    1.69  1.0000
  29 -17  -7    1746     188                                                        1695    6.33  -12.61  1.0000
  29 -17  -9     785     155                                                         820  -28.02  -26.46  1.0000
  29 -17 -13     509     106                                                         749    6.90    7.02  1.0000
  19 -29  19      44      76                                                          55   13.29   -2.85  1.0000
  29 -19  17    1265      82                                                        1432    9.46   -9.41  1.0000
  17 -29  19    1511     112                                                        1697    9.06   -9.27  1.0000
  29 -19  15    4146     153                                                        4603    4.90  -16.15  1.0000
  29 -19  13    3572     139                                                        3031  -16.99  -20.62  1.0000
  29 -19  11    3891     167                                                        3578    4.81    9.51  1.0000
  29  19 -11    3803     135                                                        3494    4.78   10.21  1.0000
  29 -19   9    2225     156                                                        1823  -13.03   -3.45  1.0000
  29  19  -9    2101     110                                                        1686  -13.13   -2.48  1.0000
  29 -19   7     806     161                                                        1259   12.36    7.69  1.0000
  29  19  -7     707     104                                                        1148   12.17    8.74  1.0000
  29  19  -5    2594     116                                                        2021   18.63  -22.42  1.0000
  29  19  -3     688      95                                                         763   -3.33   -0.72  1.0000
  29 -19   1    1914     192                                                        2352    3.34   10.54  1.0000
  29  19  -1    1866     111                                                        2353    3.09   12.39  1.0000
  29 -19  -1     838     181                                                        1178    3.65  -12.18  1.0000
  29  19   1     969      88                                                        1298    3.18  -11.23  1.0000
  29 -19  -3    1891     181                                                        1940   -2.42    3.18  1.0000
  29 -19  -5    3270     183                                                        2652   16.26   20.85  1.0000
  29 -19  -7     252     159                                                         533   12.85   -7.29  1.0000
  29 -19  -9    3647     167                                                        3153  -12.80    3.76  1.0000
  17 -29  21     764      79                                                        1187   15.70   13.11  1.0000
  29 -21  15    1027      82                                                        1249  -12.45   -5.64  1.0000
  15 -29  21    1171      99                                                        1413  -12.37   -5.35  1.0000
  29 -21  13      22      96                                                          30   14.50    1.35  1.0000
  29 -21  11    2817     140                                                        2137  -15.51    1.99  1.0000
  29 -21   9    1307     128                                                         910   -7.13   17.73  1.0000
  29 -21   7    9052     298                                                        9877   -4.96  -15.67  1.0000
  29 -21   3    5517     227                                                        6230    5.78  -11.29  1.0000
  29 -21   1     258     152                                                         223   10.01   11.69  1.0000
  29 -21  -1     414     153                                                         383   10.26  -12.12  1.0000
  29 -21  -3    5783     237                                                        6436    6.10    7.88  1.0000
  29 -21  -5    2860     159                                                        2663   -5.92    8.39  1.0000
  29 -21  -7    9279     299                                                       10215   -6.39   14.36  1.0000
  29 -21  -9    1238     112                                                         869   -6.19  -18.76  1.0000
  29 -23  13     690      79                                                         979   -0.10  -14.31  1.0000
  29 -23  11      76      89                                                         136   13.66   18.77  1.0000
  29 -23   9    3662     148                                                        3366  -10.73   13.05  1.0000
  29 -23   7     637     111                                                         482   -1.28   15.49  1.0000
  29 -23   3     495     133                                                         331    2.38   -8.30  1.0000
  29 -23   1    2332     158                                                        2897  -12.62   -4.21  1.0000
  29 -23  -1    1005     129                                                        1365  -11.56    1.90  1.0000
  29 -23  -3     543     124                                                         387    2.50    7.45  1.0000
  29 -23  -5    3368     146                                                        3007  -13.25   12.99  1.0000
  29 -23  -7     539      92                                                         380   -1.83  -16.26  1.0000
  29 -25  11    5483     160                                                        5313    3.85    5.28  1.0000
  29 -25   9     148      87                                                         134   -1.34    1.48  1.0000
  29 -25   5      62      93                                                          -6   13.28   -9.22  1.0000
  29 -25   3     962     107                                                        1351   -3.57  -14.90  1.0000
  29 -25   1    3410     144                                                        3440    2.29  -12.88  1.0000
  29 -25  -1    4177     152                                                        4244    2.75   12.62  1.0000
  29 -25  -3     317      93                                                         536   -2.75   15.55  1.0000
  29 -25  -5     109      78                                                         167   13.09    9.87  1.0000
  29 -27   5    1787      77                                                         746   31.60    0.02  1.0000
  29 -27   3     400      72                                                         562   12.68  -17.00  1.0000
  29 -27   1       9      70                                                          63  -11.39    1.89  1.0000
  29 -27  -1      27      61                                                         109  -10.81   -3.32  1.0000
  30   0  -4    5011     258                                                        5962  -13.16    3.05  1.0000
  30   0  -8    5201     253                                                        5387   -2.62    1.33  1.0000
  30   0 -10    7714     256                                                        6560   14.02    1.30  1.0000
  30   0 -12     251     175                                                         584  -17.06    0.17  1.0000
  30   0  12     339      94                                                         709  -16.86   -0.66  1.0000
  30   0 -14    3557     166                                                        2695   15.87    1.05  1.0000
  16 -30   0     148     172                                                         517  -21.66   -1.17  1.0000
  30   0 -16      86     132                                                         410  -22.47   -0.03  1.0000
  30   0 -18    1955     134                                                        2430  -10.42   -0.20  1.0000
  18 -30   0    1738     163                                                        2192  -10.52    0.50  1.0000
  30   0 -20    2726     111                                                        2559   -3.36   -2.19  1.0000
  20 -30   0    2424     146                                                        2311   -2.38   -1.07  1.0000
  22 -30   0     240     109                                                         237   -0.19    0.00  1.0000
  24 -30   0     969      93                                                         885    2.84    1.01  1.0000
  26 -30   2    1624      80                                                        1251   -8.32  -12.41  1.0000
  24 -30   2     801     103                                                        1056   -8.95   -0.38  1.0000
  22 -30   2    8362     250                                                        7358   13.28   -0.25  1.0000
  30   2 -22    9659     224                                                        8565   13.31    0.02  1.0000
  30   2 -20    2373     106                                                        2163   -0.71   -9.35  1.0000
  20 -30   2    2139     152                                                        1963   -1.10   -8.90  1.0000
  30   2 -18    5621     177                                                        5279    3.57   -3.39  1.0000
  18 -30   2    4966     205                                                        4640    3.15   -4.37  1.0000
  30   2 -16    2847     150                                                        2108    1.21  -23.00  1.0000
  30   2 -14    2331     170                                                        1945    5.94  -26.40  1.0000
  30   2 -12     224     173                                                         432   -4.69  -19.49  1.0000
  30  -2  10    5877     170                                                        3801   24.37   19.07  1.0000
  30   2 -10    7160     215                                                        4917   22.94   19.41  1.0000
  30  -2   8    7499     261                                                        8002   -1.23   -5.80  1.0000
  30  -2   6     514     159                                                         948   33.23   -3.08  1.0000
  30   2  -4   10471     318                                                       10222    1.33   -8.23  1.0000
  30  -2   4    9807     307                                                        9435    2.56   -9.33  1.0000
  30   2  -2    2487     178                                                        1602   18.19   -9.09  1.0000
  30  -2   2    2540     181                                                        1601   19.65   -8.93  1.0000
  30   2   0    8949     321                                                       10264  -13.77   -1.85  1.0000
  30  -2   0    9552     340                                                       10846  -13.14   -1.51  1.0000
  30   2   2    5410     191                                                        4025   19.97    7.50  1.0000
  30   2   4   12230     344                                                       11802    2.46   11.17  1.0000
  30   2   6     553     138                                                        1018   32.61    1.99  1.0000
  30  -2  -8    6649     263                                                        7061   -2.27    4.95  1.0000
  30   2   8    5740     210                                                        6142   -1.13    5.29  1.0000
  30  -2 -10    6879     227                                                        4641   23.33  -20.02  1.0000
  30   2  10    6625     163                                                        4362   24.77  -19.74  1.0000
  30  -2 -12     450     175                                                         724   -3.48   19.10  1.0000
  14 -30  -2    2168     171                                                        1841    4.87   24.41  1.0000
  30  -2 -14    2480     159                                                        2135    4.87   26.48  1.0000
  16 -30  -2    2554     156                                                        1792    1.23   25.21  1.0000
  30  -2 -16    2903     148                                                        2100    1.64   25.42  1.0000
  30  -2 -18    7728     218                                                        7341    3.12    3.90  1.0000
  18 -30  -2    6866     241                                                        6506    3.43    3.16  1.0000
  30  -2 -20    2612     104                                                        2379   -0.15    8.98  1.0000
  20 -30  -2    2318     139                                                        2144   -0.16    7.10  1.0000
  22 -30  -2    7231     199                                                        6294   13.82    1.13  1.0000
  24 -30  -2     572      81                                                         779   -8.23    1.14  1.0000
  26 -30   4    1642      76                                                        1499   -6.72   -3.26  1.0000
  24 -30   4      15      96                                                          22   16.31   -3.03  1.0000
  22 -30   4     125     118                                                         112    3.07    1.20  1.0000
  30   4 -22      44      65                                                          37    2.84    1.13  1.0000
  30   4 -20     611      90                                                         594   -2.15    1.05  1.0000
  20 -30   4     526     155                                                         535   -2.23    2.58  1.0000
  30   4 -18     266     116                                                         419  -13.45   -4.07  1.0000
  18 -30   4     181     167                                                         321  -13.03   -5.21  1.0000
  30   4 -16    1450     131                                                        1268   -1.22    8.63  1.0000
  30   4 -14   10737     359                                                       12488  -13.16  -26.65  1.0000
  30  -4  12     201     114                                                         249    6.43   -3.68  1.0000
  30   4 -12     234     174                                                         314    6.35   -5.25  1.0000
  30  -4  10    1128     129                                                        1022    1.07   -3.54  1.0000
  30   4 -10    1213     182                                                        1057    3.03   -3.67  1.0000
  30  -4   8    7941     301                                                        9784  -23.56  -11.55  1.0000
  30  -4   6    1585     166                                                        1053   22.58   -3.56  1.0000
  30   4  -6    1788     184                                                        1211   23.99   -3.19  1.0000
  30  -4   4    1255     171                                                         619  -25.58   -1.54  1.0000
  30   4  -4    1057     169                                                         494  -25.13   -2.19  1.0000
  30  -4   2      84     179                                                         178   -7.02   16.24  1.0000
  30   4  -2     102     160                                                         218   -8.86   17.79  1.0000
  30   4   0    5620     215                                                        5531    1.24   -2.01  1.0000
  30  -4   0    5176     258                                                        5069    1.53   -0.89  1.0000
  30  -4  -2      90     207                                                         192   -9.93  -18.22  1.0000
  30   4   2      93     137                                                         200   -6.99  -16.64  1.0000
  30   4   4    2163     141                                                        1271  -25.80   -0.06  1.0000
  30   4   6    2606     135                                                        1994   24.46    0.94  1.0000
  30   4   8    7107     267                                                        8985  -25.17   12.13  1.0000
  30  -4  -8    7771     324                                                        9815  -25.54    9.79  1.0000
  30  -4 -10    1758     200                                                        1606    2.29    3.06  1.0000
  30   4  10    1652     102                                                        1501    2.60    2.91  1.0000
  30  -4 -12     281     170                                                         351    4.89    4.28  1.0000
  12 -30  -4     264     145                                                         332    6.11    4.33  1.0000
  14 -30  -4    8533     320                                                       10013  -12.56   25.68  1.0000
  30  -4 -14    9903     323                                                       11409  -11.41   27.12  1.0000
  30  -4 -16    1128     127                                                         941   -2.08   -8.88  1.0000
  16 -30  -4    1188     143                                                        1005   -2.04   -8.25  1.0000
  18 -30  -4     454     120                                                         658  -14.08    3.76  1.0000
  30  -4 -18     425     105                                                         623  -12.97    4.40  1.0000
  20 -30  -4       1     104                                                         -82   -1.09   -1.59  1.0000
  30  -4 -20     132      71                                                         123   -2.78   -1.55  1.0000
  22 -30  -4     443      86                                                         427    2.32   -0.94  1.0000
  26 -30   6     228      66                                                         339  -10.21    4.02  1.0000
  24 -30   6     799     103                                                         396   11.73   12.75  1.0000
  22 -30   6    1279     132                                                        1257   -2.97    0.34  1.0000
  30   6 -22    1322      74                                                        1285   -2.57   -0.21  1.0000
  30   6 -20     181      89                                                         247   -9.99   20.55  1.0000
  20 -30   6     112     150                                                         118  -10.44   21.46  1.0000
  30   6 -18    3432     135                                                        2988   11.83    8.44  1.0000
  18 -30   6    3125     191                                                        2761   11.16    9.93  1.0000
  30   6 -16    2485     150                                                        2768   -3.46    6.39  1.0000
  30  -6  14      20      94                                                         -94   -9.09   -0.93  1.0000
  30   6 -14     212     151                                                         148   -7.82   -0.12  1.0000
  30   6 -12    4312     188                                                        3645  -12.25   -0.07  1.0000
  30  -6  12    3881     151                                                        3282  -13.01    2.45  1.0000
  30  -6  10     953     140                                                         666   -6.83    9.74  1.0000
  30  -6   8    3127     182                                                        2794   -7.42   -0.62  1.0000
  30  -6   6     952     172                                                        1272    2.74  -10.33  1.0000
  30   6  -6     955     168                                                        1224   -0.64  -10.90  1.0000
  30   6  -4    4092     222                                                        5918  -27.99   -1.54  1.0000
  30  -6   4    4267     250                                                        6130  -28.25   -0.96  1.0000
  30   6  -2    3780     166                                                        2932   17.26  -13.49  1.0000
  30  -6   2    4089     217                                                        3182   18.58  -13.95  1.0000
  30  -6   0     565     197                                                         849  -11.00    0.15  1.0000
  30   6   0     466     145                                                         719  -10.74   -2.05  1.0000
  30   6   2    2407     138                                                        1736   16.54   13.35  1.0000
  30   6   4    5257     229                                                        7233  -27.55    0.16  1.0000
  30  -6  -6      57     220                                                         139    2.42    9.47  1.0000
  30   6   6     108     112                                                         203    2.41    8.37  1.0000
  30   6   8    1719     110                                                        1469   -7.36    0.93  1.0000
  30  -6 -10     787     193                                                         525   -6.38   -9.88  1.0000
  30  -6 -12    4122     206                                                        3512  -12.61   -2.06  1.0000
  30  -6 -14     597     144                                                         497   -9.22    0.86  1.0000
  30  -6 -16     768     126                                                         987   -3.20   -8.39  1.0000
  30  -6 -18    3753     132                                                        3357   10.21   -7.66  1.0000
  24 -30   8       3      97                                                         -25   -3.16    2.10  1.0000
  22 -30   8     271     130                                                         280    3.90    7.07  1.0000
  30   8 -22     291      61                                                         300    4.02    7.42  1.0000
  30   8 -20     512      91                                                         693  -25.50  -27.62  1.0000
  20 -30   8     502     155                                                         693  -26.75  -29.35  1.0000
  30   8 -18     105     116                                                         100   -0.09   11.74  1.0000
  18 -30   8     233     170                                                         225    1.19   13.40  1.0000
  30   8 -16     655     136                                                        1346    9.91  -24.30  1.0000
  30  -8  14      36     104                                                         111  -21.19   -8.82  1.0000
  30   8 -14      34     139                                                          83  -21.41   -9.69  1.0000
  30  -8  12    2615     143                                                        2548    2.07  -35.54  1.0000
  30   8 -12    2603     174                                                        2541    2.20  -35.94  1.0000
  30  -8  10     169     144                                                          65  -16.45   14.34  1.0000
  30  -8   8    2805     188                                                        2843   11.39  -38.19  1.0000
  30   8  -8    3133     174                                                        3153   10.44  -37.27  1.0000
  30  -8   6    9832     300                                                        8792  -37.39   15.47  1.0000
  30   8  -6    9723     278                                                        8784  -35.13   15.15  1.0000
  30  -8   4    2053     209                                                        2361   -7.47   -1.12  1.0000
  30   8  -4    1730     150                                                        2068   -8.39    0.07  1.0000
  30   8  -2      68     143                                                         511   13.44  -30.25  1.0000
  30  -8   2      40     210                                                         366   11.38  -30.84  1.0000
  30   8   0     561     131                                                         688    5.25    0.00  1.0000
  30  -8   0     815     225                                                        1035    7.43   -0.28  1.0000
  30   8   2    1301     145                                                        2616   11.85   30.98  1.0000
  30   8   4     653     116                                                         855   -8.12    0.26  1.0000
  30  -8  -4     800     239                                                         984   -6.62   -0.27  1.0000
  30   8   6    9229     247                                                        8317  -33.67  -14.20  1.0000
  30  -8  -6   10134     332                                                        9157  -36.15  -15.56  1.0000
  30   8   8    2682     114                                                        2639    9.68   36.85  1.0000
  30  -8 -12    2891     189                                                        2842    2.16   36.31  1.0000
  30  -8 -14     510     143                                                        1002  -21.51    9.50  1.0000
  30  -8 -16    1191     134                                                        2069    9.51   23.88  1.0000
  30  -8 -18     432      85                                                         448    0.52  -12.52  1.0000
  30  10 -20    4165     139                                                        4118   -7.33   12.51  1.0000
  30  10 -18     928     112                                                        1444   10.40   14.51  1.0000
  30  10 -16     718     125                                                         988    9.54    0.17  1.0000
  30 -10  16     621      89                                                         872    9.38    1.20  1.0000
  30 -10  14    1326     110                                                        1123    1.89  -10.16  1.0000
  30  10 -14    1309     138                                                        1091    2.36  -10.32  1.0000
  30 -10  12    4912     186                                                        4832  -12.73   11.59  1.0000
  30 -10  10      91     150                                                          71   -8.38   -3.96  1.0000
  30 -10   8    1690     180                                                        1780  -13.90   -3.85  1.0000
  30  10  -8    1668     163                                                        1732  -14.89   -3.31  1.0000
  30 -10   6    7405     265                                                        7253  -11.49   -3.07  1.0000
  30  10  -6    6825     235                                                        6727  -11.75   -3.86  1.0000
  30 -10   4    3782     220                                                        3547  -12.21    8.37  1.0000
  30  10  -4    3857     172                                                        3604  -13.40    9.26  1.0000
  30 -10   2   10759     429                                                       14030    9.37  -39.85  1.0000
  30  10  -2   10594     386                                                       13771    9.82  -38.20  1.0000
  30  10   0    2448     135                                                        1942  -11.12    0.85  1.0000
  30  10   2   13958     466                                                       17418    9.26   36.61  1.0000
  30 -10  -4    1494     233                                                        1315  -13.12   -8.87  1.0000
  30  10   4    1524     115                                                        1304  -13.53   -7.59  1.0000
  30  10   6    9982     275                                                        9841  -10.89    3.16  1.0000
  30 -10  -6   10156     350                                                        9890  -12.10    2.28  1.0000
  30 -10  -8    2494     239                                                        2609  -15.10    3.79  1.0000
  30 -10 -12    3586     192                                                        3498  -12.40  -11.00  1.0000
  30 -10 -14    1443     140                                                        1209    2.56   10.23  1.0000
  30 -10 -16    2097     127                                                        2498    8.61    0.02  1.0000
  24 -30  12     741      63                                                         550  -11.71    1.25  1.0000
  22 -30  12     212      90                                                         235    7.95    1.95  1.0000
  30  12 -20     437      82                                                         823   18.38   -4.95  1.0000
  30  12 -18     306      96                                                         480   -2.79  -11.79  1.0000
  30 -12  16    1844     105                                                        2140    7.13    2.49  1.0000
  30  12 -16    2008     129                                                        2310    6.82    0.89  1.0000
  30  12 -14    1476     133                                                         865   -3.01  -18.33  1.0000
  30 -12  14     864     105                                                         417   -2.83  -18.28  1.0000
  30 -12  12    9371     297                                                       10034    4.01   -7.87  1.0000
  30  12 -10    2493     166                                                        3049   10.85    1.18  1.0000
  30 -12  10    2514     182                                                        3085   11.07    1.57  1.0000
  30 -12   8    2173     179                                                        2081    4.31  -19.04  1.0000
  30  12  -8    2250     147                                                        2124    3.85  -20.10  1.0000
  30 -12   6      74     178                                                         181    1.11  -31.40  1.0000
  30  12  -6      84     136                                                         263    1.44  -31.80  1.0000
  30 -12   4    5889     235                                                        4752  -11.05  -12.38  1.0000
  30  12  -4    5336     182                                                        4233  -12.54  -10.74  1.0000
  30 -12   2    2029     230                                                        2883   18.98   -7.16  1.0000
  30  12  -2    1980     141                                                        2806   18.42   -5.80  1.0000
  30  12   0      83     120                                                         474   26.04    0.28  1.0000
  30 -12  -2    3569     258                                                        4708   19.29    6.80  1.0000
  30  12   2    3648     169                                                        4761   18.66    6.25  1.0000
  30  12   4    6230     169                                                        5097  -11.58   10.55  1.0000
  30 -12  -4    6030     271                                                        4951  -10.63   11.07  1.0000
  30 -12  -6    1053     232                                                        1977    1.13   32.57  1.0000
  30 -12  -8    3094     222                                                        3097    6.81   21.60  1.0000
  30 -12 -12   13364     406                                                       14212    3.46   10.21  1.0000
  30 -12 -14     921     129                                                         448   -2.15   18.72  1.0000
  30 -12 -16    1691     108                                                        1986    7.15   -0.22  1.0000
  22 -30  14    1450      88                                                        1361   -2.93    3.85  1.0000
  20 -30  14     792     119                                                        1285   17.21    4.67  1.0000
  18 -30  14     210     129                                                         339    0.39   27.21  1.0000
  30  14 -18     126      85                                                         127    1.39   28.25  1.0000
  30 -14  16    3077     104                                                        2291  -17.93   16.04  1.0000
  30  14 -16    3242     127                                                        2454  -17.47   15.62  1.0000
  30 -14  14     391     102                                                         144   14.74    6.25  1.0000
  30 -14  12    1229     123                                                        1125  -22.72  -13.76  1.0000
  30 -14  10     892     146                                                        1184   -8.04   -5.73  1.0000
  30  14 -10     901     119                                                        1223   -9.33   -4.42  1.0000
  30  14  -8    1240     123                                                         921  -31.94  -38.59  1.0000
  30 -14   8    1202     166                                                         883  -31.84  -37.47  1.0000
  30 -14   6      76     173                                                         352   12.47  -17.09  1.0000
  30  14  -6      50     116                                                         300   12.59  -17.69  1.0000
  30  14  -4    1436     136                                                        1751  -18.92    1.00  1.0000
  30 -14   4    1544     202                                                        1890  -18.00   -0.13  1.0000
  30  14  -2    1453     140                                                        2594   12.20  -27.81  1.0000
  30  14   0    4548     153                                                        3846  -11.13    0.93  1.0000
  30 -14  -2    2603     253                                                        4147   14.38   26.46  1.0000
  30  14   2    2839     154                                                        4494   15.02   26.86  1.0000
  30  14   4     973      90                                                        1246  -20.13   -0.91  1.0000
  30 -14  -4     964     227                                                        1190  -18.91   -1.71  1.0000
  30 -14  -6     278     203                                                         738   13.31   17.40  1.0000
  30 -14  -8     761     197                                                         333  -30.95   37.65  1.0000
  30 -14 -12    1229     140                                                        1100  -22.18   14.26  1.0000
  30 -14 -14     291     103                                                          86   14.96   -5.40  1.0000
  20 -30  16     258      91                                                         197    3.28    5.56  1.0000
  18 -30  16    1287     124                                                        1449   -6.63   -1.79  1.0000
  30 -16  16    1448      84                                                         998   -3.67   17.50  1.0000
  30  16 -16    1692      96                                                        1197   -4.20   17.17  1.0000
  30 -16  14     543     108                                                         584   14.21    5.95  1.0000
  30 -16  12    1155     129                                                         969   -7.79   19.71  1.0000
  30  16 -12    1201     105                                                         999   -8.39   20.57  1.0000
  30 -16  10     975     145                                                        1201    3.27    8.72  1.0000
  30  16 -10     954     111                                                        1142    2.78    7.53  1.0000
  30  16  -8     489     112                                                         616    8.29    4.53  1.0000
  30 -16   8     502     161                                                         621    8.05    5.01  1.0000
  30  16  -6     354     110                                                         288   12.81  -20.94  1.0000
  30 -16   6     450     178                                                         409   13.74  -22.32  1.0000
  30 -16   4    1826     197                                                        2410    0.29   23.66  1.0000
  30  16  -4    1900     126                                                        2463   -0.34   21.72  1.0000
  30  16  -2    1368     109                                                         900  -13.72  -11.97  1.0000
  30 -16   0    7143     337                                                        9949  -31.23   -0.15  1.0000
  30  16   0    7227     280                                                       10021  -30.95   -0.88  1.0000
  30  16   2     898      83                                                         535  -11.73   11.72  1.0000
  30 -16  -2     929     204                                                         565  -12.90   11.30  1.0000
  30 -16  -4    2009     212                                                        2582    0.60  -22.70  1.0000
  30 -16  -6     162     187                                                          68   12.05   19.05  1.0000
  30 -16  -8     677     178                                                         826    8.89   -6.13  1.0000
  30 -16 -12    1722     125                                                        1478   -9.00  -20.50  1.0000
  18 -30  18     706      83                                                         430    2.09   13.66  1.0000
  30 -18  16       7      66                                                         -11   -5.05   -2.18  1.0000
  30 -18  14    4179     161                                                        4688   -8.87   12.21  1.0000
  30 -18  12      22     103                                                           8   11.31   -6.24  1.0000
  30  18 -12      23      88                                                          43   11.19   -6.25  1.0000
  30 -18  10    3200     157                                                        2844    1.11   17.48  1.0000
  30  18 -10    3414     124                                                        3030    1.40   17.67  1.0000
  30 -18   8    1505     155                                                        2058  -21.52  -13.01  1.0000
  30  18  -8    1664     116                                                        2239  -21.35  -13.12  1.0000
  30 -18   6    1215     156                                                         830   15.59    9.37  1.0000
  30  18  -6    1102     100                                                         742   17.93    8.89  1.0000
  30  18  -4     252      96                                                         201   -3.17   -3.05  1.0000
  30  18  -2     537      94                                                         931  -10.10   21.23  1.0000
  30 -18   0    1974     183                                                        1778    4.65   -0.30  1.0000
  30  18   0    1985      98                                                        1796    4.45   -0.37  1.0000
  30 -18  -2      82     177                                                         181  -10.43  -21.51  1.0000
  30  18   2     181      70                                                         365   -9.83  -19.58  1.0000
  30 -18  -4     365     166                                                         322   -3.22    1.94  1.0000
  30 -18  -6     302     165                                                         111   16.72   -9.00  1.0000
  30 -18  -8    2318     167                                                        3007  -21.55   13.70  1.0000
  30 -18 -12      83      91                                                         176   11.11    7.86  1.0000
  16 -30  20      39      71                                                          -5   10.68   -7.08  1.0000
  30 -20  14    2506      96                                                        1985   12.18  -11.61  1.0000
  30 -20  12     787     103                                                         826   -0.55   -7.62  1.0000
  30 -20  10     809     116                                                         698   14.83  -22.81  1.0000
  30 -20   8     382     132                                                         575   -4.53    8.04  1.0000
  30  20  -8     418      83                                                         605   -2.67    8.09  1.0000
  30 -20   6    1933     163                                                        2483    9.95  -14.28  1.0000
  30  20  -6    1767     104                                                        2321    7.47  -14.45  1.0000
  30  20  -4    4647     160                                                        5207  -24.02   30.64  1.0000
  30 -20   2    1580     160                                                        1408    0.01   10.13  1.0000
  30  20  -2    1637      86                                                        1469   -0.02    9.76  1.0000
  30 -20   0    1376     163                                                        2542  -27.35    0.67  1.0000
  30 -20  -2    1059     162                                                         892    1.18   -9.62  1.0000
  30 -20  -4    3333     182                                                        3793  -24.18  -29.43  1.0000
  30 -20  -6    1060     139                                                        1504    8.07   14.92  1.0000
  30 -20  -8     625     125                                                         849   -1.71   -8.41  1.0000
  30 -22  14    1676      78                                                        1596   -0.85    5.36  1.0000
  30 -22  12     173      76                                                         198   -0.43    1.86  1.0000
  30 -22  10    5342     172                                                        5133    3.61   -1.65  1.0000
  30 -22   8     431     110                                                         539   -4.62    2.12  1.0000
  30 -22   2     150     135                                                         110   12.41   -1.82  1.0000
  30 -22   0     131     125                                                          54    8.48   -0.13  1.0000
  30 -22  -2     182     124                                                         161   11.36    0.12  1.0000
  30 -22  -4    3951     177                                                        4767   -0.17  -20.01  1.0000
  30 -22  -6     141     103                                                         288  -11.49   -6.85  1.0000
  30 -24  10    1359      77                                                         886   18.11    2.53  1.0000
  30 -24   8     115      88                                                         274   -5.95   23.34  1.0000
  30 -24   4     686      98                                                         962  -15.82   12.58  1.0000
  30 -24   2    1971     113                                                        1811    4.89    5.24  1.0000
  30 -24   0    3668     151                                                        4034   -6.05    0.05  1.0000
  30 -24  -2    1472      98                                                        1352    5.76   -4.91  1.0000
  30 -24  -4     650      92                                                         943  -16.03  -10.79  1.0000
  30 -24  -6    1354      80                                                        1188    2.54   -6.82  1.0000
  30 -26   6     451      69                                                         405    2.37    0.54  1.0000
  30 -26   4     490      79                                                         404    1.50   -3.91  1.0000
  30 -26   2    2133      89                                                        1436    7.90  -19.81  1.0000
  30 -26   0    1878      88                                                        1750    3.09    0.30  1.0000
  23 -31   1    1266      92                                                         868  -14.78   -3.83  1.0000
  31   1 -21     558      64                                                         480   -3.74   -0.12  1.0000
  21 -31   1     801     118                                                         738   -2.69   -0.61  1.0000
  31   1 -19     859      99                                                        1387  -10.18  -12.96  1.0000
  19 -31   1     707     137                                                        1153   -9.33  -12.13  1.0000
  31   1 -17    9023     222                                                        7578   10.03   12.86  1.0000
  17 -31   1    7691     244                                                        6397    9.53   12.71  1.0000
  31   1 -15     781     135                                                         531  -17.74   16.34  1.0000
  31   1 -13    2630     165                                                        2271  -12.88    6.44  1.0000
  31  -1  11    1494     129                                                        2747  -25.09   14.32  1.0000
  31   1 -11    1467     194                                                        2748  -25.61   15.06  1.0000
  31   1  -9     790     179                                                         387  -16.72  -12.48  1.0000
  31   1  -5    4924     222                                                        4122    6.18  -22.34  1.0000
  31   1  -3    9256     305                                                        9335    0.71    4.54  1.0000
  31   1  -1      31     166                                                         -47   10.45   -4.71  1.0000
  31   1   1       2     158                                                          49   11.26    3.84  1.0000
  31   1   3    8502     272                                                        8590    0.81   -5.21  1.0000
  31  -1  -3    7992     301                                                        8130   -0.04   -4.66  1.0000
  31   1   5    5403     193                                                        4648    6.13   20.52  1.0000
  31   1   7     984     130                                                        1100   -9.02    7.91  1.0000
  31   1   9    1759     117                                                        1193  -15.25   13.84  1.0000
  31  -1  -9    1687     195                                                        1094  -16.45   13.83  1.0000
  31   1  11    2716     153                                                        4403  -25.84  -14.98  1.0000
  31  -1 -11    2878     214                                                        4606  -26.11  -14.09  1.0000
  31  -1 -13     759     157                                                         561  -13.37   -7.70  1.0000
  31  -1 -15    1698     138                                                        1407  -19.19  -16.34  1.0000
  15 -31  -1    1272     156                                                        1006  -20.60  -17.00  1.0000
  31  -1 -17    9332     232                                                        7912    9.18  -12.85  1.0000
  17 -31  -1    8404     243                                                        7035   10.14  -12.39  1.0000
  31  -1 -19    1101      99                                                        1695  -10.57   12.83  1.0000
  19 -31  -1    1011     123                                                        1560   -9.45   12.82  1.0000
  21 -31  -1     205      95                                                         172   -2.63    0.14  1.0000
  23 -31  -1     536      76                                                         289  -14.52    3.66  1.0000
  23 -31   3     311      95                                                         438   13.91   12.76  1.0000
  21 -31   3     667     119                                                        1023   -9.03  -19.07  1.0000
  31   3 -21     676      73                                                        1043   -9.33  -18.91  1.0000
  31   3 -19    2197     115                                                        2644    8.82    3.09  1.0000
  19 -31   3    1982     163                                                        2474   10.23    3.22  1.0000
  31   3 -17     905     115                                                         880    1.26   -2.85  1.0000
  17 -31   3     686     158                                                         668    1.61   -2.98  1.0000
  31   3 -15    1142     142                                                        1376    0.40   13.79  1.0000
  31   3 -13      14     143                                                          81   -0.34  -15.65  1.0000
  31   3 -11    2862     184                                                        2763  -13.78    8.21  1.0000
  31  -3   9    4318     179                                                        4196   -5.62   14.30  1.0000
  31  -3   7    8402     281                                                        8984   -3.67   35.24  1.0000
  31  -3   5     484     169                                                        1128   10.04  -21.82  1.0000
  31   3  -5     570     172                                                        1292   11.57  -22.00  1.0000
  31   3  -3    3680     184                                                        2643  -14.20   16.25  1.0000
  31  -3   3    3439     189                                                        2451  -14.10   15.81  1.0000
  31  -3   1     716     191                                                         814    3.59   -0.77  1.0000
  31   3  -1     607     156                                                         673    3.03    0.55  1.0000
  31   3   1     323     149                                                         376    2.73    0.97  1.0000
  31   3   3    2036     150                                                        1332  -12.68  -16.18  1.0000
  31   3   5    1547     151                                                        2611    9.80   22.34  1.0000
  31   3   7   13527     410                                                       14464   -4.72  -35.34  1.0000
  31  -3  -7   15173     442                                                       16170   -4.77  -34.42  1.0000
  31   3   9    2295     118                                                        2230   -4.57  -13.76  1.0000
  31  -3  -9    2497     204                                                        2407   -5.11  -13.75  1.0000
  31  -3 -11    2664     185                                                        2543  -14.29   -9.00  1.0000
  31  -3 -13      15     148                                                          81    1.44   15.39  1.0000
  13 -31  -3      11     132                                                          34    1.21   15.33  1.0000
  15 -31  -3    1379     146                                                        1650    0.18  -13.91  1.0000
  31  -3 -15    1686     144                                                        1940    2.50  -15.36  1.0000
  17 -31  -3     566     118                                                         538    2.47    4.78  1.0000
  31  -3 -17     661     111                                                         623    1.99    4.75  1.0000
  31  -3 -19    1715     103                                                        2155    9.97   -2.58  1.0000
  19 -31  -3    1639     121                                                        2020    8.87   -2.29  1.0000
  21 -31  -3     793      90                                                        1128   -7.19   19.54  1.0000
  25 -31   5      38      69                                                         196    1.61   16.25  1.0000
  23 -31   5     506      98                                                         450   10.97    1.51  1.0000
  21 -31   5    5032     199                                                        5523  -11.03    5.56  1.0000
  31   5 -21    5529     171                                                        6077  -10.90    4.39  1.0000
  31   5 -19     357      94                                                         384    3.87   -3.82  1.0000
  19 -31   5     285     136                                                         306    3.28   -2.85  1.0000
  31   5 -17      95     115                                                         162    0.98   32.33  1.0000
  17 -31   5      92     155                                                         130    2.11   32.02  1.0000
  31   5 -15    1770     139                                                        1400   -2.65   12.10  1.0000
  31   5 -13    4133     177                                                        3552   -6.17    9.61  1.0000
  31  -5  13    3895     135                                                        3291   -6.11   11.56  1.0000
  31  -5  11     249     123                                                         211   -1.64    5.41  1.0000
  31   5 -11     332     152                                                         285   -0.71    4.74  1.0000
  31  -5   9    8434     236                                                        6867  -17.53  -14.97  1.0000
  31   5  -7    4243     197                                                        3556   13.36   -3.05  1.0000
  31  -5   7    4201     184                                                        3489   13.49   -2.08  1.0000
  31  -5   5    1189     168                                                         922   -6.19   -6.56  1.0000
  31   5  -5    1160     171                                                         906   -6.27   -5.57  1.0000
  31  -5   3     400     187                                                         487   -1.26    9.43  1.0000
  31   5  -3     339     150                                                         427   -1.23   10.66  1.0000
  31   5  -1    1446     161                                                        2409  -14.77   20.78  1.0000
  31  -5   1    1614     203                                                        2611  -14.53   20.53  1.0000
  31  -5  -1    1935     226                                                        3022  -14.29  -21.08  1.0000
  31   5   1    1862     163                                                        2894  -13.34  -21.40  1.0000
  31   5   3      24     132                                                          43   -2.91   -8.40  1.0000
  31   5   5     844     121                                                         636   -5.93    5.69  1.0000
  31   5   7    2408     117                                                        1908   13.26    3.69  1.0000
  31  -5  -9    8564     271                                                        6989  -17.45   15.39  1.0000
  31   5   9    8178     201                                                        6652  -17.30   15.37  1.0000
  31  -5 -11     574     189                                                         517   -1.74   -5.61  1.0000
  31  -5 -13    3588     185                                                        3022   -5.82  -11.57  1.0000
  31  -5 -15    2410     141                                                        1974   -1.37  -11.47  1.0000
  31  -5 -17     154     103                                                          39   -0.33  -34.36  1.0000
  31  -5 -19      54      76                                                          63    4.58    4.15  1.0000
  23 -31   7    1107     103                                                        1445    5.88   13.08  1.0000
  21 -31   7    1852     130                                                        1737   -5.41  -17.05  1.0000
  31   7 -21    1834      83                                                        1734   -4.97  -16.50  1.0000
  19 -31   7    1592     144                                                        1292  -27.67  -10.15  1.0000
  31   7 -19    1754      97                                                        1449  -28.05  -10.44  1.0000
  31   7 -17    1148     114                                                        1330   15.18   -6.28  1.0000
  31   7 -15    3748     152                                                        2639  -19.47   -5.86  1.0000
  31  -7  13     538     105                                                         851  -17.92  -14.56  1.0000
  31   7 -13     673     140                                                        1044  -19.06  -15.00  1.0000
  31  -7  11   12192     399                                                       14442  -19.05   -8.02  1.0000
  31  -7   9     233     145                                                          56   14.58   20.82  1.0000
  31   7  -7    3322     180                                                        3159   -9.31    4.77  1.0000
  31  -7   7    3061     186                                                        2900   -7.18    4.37  1.0000
  31   7  -5    1500     162                                                        2493   23.96    3.54  1.0000
  31  -7   5    1516     193                                                        2521   24.49    6.30  1.0000
  31   7  -3    1954     153                                                        1736    8.40   -0.36  1.0000
  31  -7   3    2160     204                                                        2007    8.31   -2.52  1.0000
  31   7  -1    2912     161                                                        3027    2.41   -9.99  1.0000
  31  -7   1    2721     221                                                        2842    2.56   -7.82  1.0000
  31   7   1    4445     181                                                        4533    1.50    8.51  1.0000
  31  -7  -1    4574     262                                                        4778    3.20   10.99  1.0000
  31   7   3    1600     129                                                        1464    9.08    3.05  1.0000
  31   7   5    1206     129                                                        2122   24.43   -4.56  1.0000
  31  -7  -5    1298     233                                                        2236   24.16   -4.02  1.0000
  31   7   7    3081     127                                                        2905   -6.84   -4.59  1.0000
  31  -7  -9     419     181                                                         230   13.49  -20.19  1.0000
  31  -7 -11   15828     519                                                       18422  -19.40    7.85  1.0000
  31  -7 -13     874     149                                                        1297  -18.13   14.81  1.0000
  31  -7 -15    2630     131                                                        1713  -19.79    5.31  1.0000
  31  -7 -17     301      96                                                         364   16.51    6.39  1.0000
  23 -31   9      17      92                                                          43    6.63   10.95  1.0000
  21 -31   9     527     113                                                         712  -10.08    7.28  1.0000
  31   9 -21     421      63                                                         564   -9.32    7.91  1.0000
  19 -31   9     455     135                                                         574   -8.76   -2.15  1.0000
  31   9 -19     500      85                                                         626  -10.79   -1.14  1.0000
  31   9 -17      31     104                                                          86   -2.47    8.50  1.0000
  31  -9  15      71      85                                                          91    5.81    8.86  1.0000
  31   9 -15      46     121                                                          55    6.06    9.28  1.0000
  31   9 -13    2486     144                                                        1839  -23.26  -10.13  1.0000
  31  -9  13    2449     121                                                        1817  -23.20  -10.53  1.0000
  31  -9  11     358     136                                                         337   -3.36   -7.83  1.0000
  31  -9   9   10350     303                                                        9638   -6.23    5.56  1.0000
  31   9  -9   10910     298                                                       10135   -6.33    7.14  1.0000
  31  -9   7      60     170                                                         112   -6.99   14.77  1.0000
  31   9  -7     171     136                                                         272   -5.65   14.02  1.0000
  31  -9   5    1232     173                                                        1159   -7.04   32.16  1.0000
  31   9  -5    1183     148                                                        1095   -7.46   32.82  1.0000
  31  -9   3    1711     197                                                        2007   -5.96   -8.95  1.0000
  31   9  -3    1644     145                                                        1879   -4.50   -9.97  1.0000
  31  -9   1     520     221                                                        1164  -19.98   14.89  1.0000
  31   9  -1     450     129                                                        1075  -18.20   16.77  1.0000
  31   9   1    1011     137                                                        1951  -19.24  -17.89  1.0000
  31   9   3    1997     129                                                        2311   -5.82    8.92  1.0000
  31  -9  -5     673     228                                                         526   -7.57  -33.46  1.0000
  31   9   5     857     103                                                         764   -6.37  -30.59  1.0000
  31   9   7      33      84                                                          15   -6.85  -14.07  1.0000
  31  -9 -11     271     169                                                         259   -3.68    7.37  1.0000
  31  -9 -13    5199     189                                                        4347  -22.69   10.84  1.0000
  31  -9 -15     343     118                                                         411    5.59   -8.55  1.0000
  31  -9 -17     170      84                                                         276   -1.36   -7.90  1.0000
  31  11 -19     639      83                                                         667  -11.86  -27.27  1.0000
  31  11 -17     617      97                                                         774   -0.93   -9.70  1.0000
  31  11 -15    1344     115                                                        1014    6.21   13.30  1.0000
  31 -11  15    1219      92                                                         909    5.93   13.87  1.0000
  31 -11  13     564     107                                                         658   -3.66   -3.73  1.0000
  31 -11  11     353     134                                                         604   -9.62    8.47  1.0000
  31  11  -9     908     129                                                         474   16.35  -10.03  1.0000
  31 -11   7    3980     216                                                        4940   12.02   39.28  1.0000
  31  11  -7    4029     189                                                        4973   11.36   37.96  1.0000
  31 -11   5    2559     191                                                        2408   -2.83   -9.40  1.0000
  31  11  -5    2358     144                                                        2210   -2.88   -9.90  1.0000
  31 -11   3    2921     208                                                        2043  -24.86   15.62  1.0000
  31  11  -3    2688     131                                                        1862  -24.03   14.81  1.0000
  31 -11   1     665     199                                                         640   -9.28   -4.44  1.0000
  31  11  -1     378     126                                                         347   -9.04   -4.63  1.0000
  31  11   1     169     114                                                         151   -9.35    3.86  1.0000
  31 -11  -3    1744     229                                                        1093  -23.24  -14.59  1.0000
  31  11   3    1757     111                                                        1080  -24.28  -15.24  1.0000
  31  11   5    4631     149                                                        4419   -3.07   10.39  1.0000
  31 -11  -5    4918     246                                                        4674   -3.48   10.54  1.0000
  31 -11  -7    9771     377                                                       11305   13.02  -38.42  1.0000
  31 -11 -11     664     159                                                         989   -8.59   -8.70  1.0000
  31 -11 -13     887     137                                                         974   -2.59    4.11  1.0000
  31 -11 -15    1588     106                                                        1210    7.31  -11.20  1.0000
  21 -31  13     809      83                                                         652    6.22    8.26  1.0000
  19 -31  13     411     103                                                         450    8.50   -3.39  1.0000
  31  13 -19     522      75                                                         559    7.93   -3.46  1.0000
  31  13 -17     122      86                                                         185   14.11    2.91  1.0000
  31  13 -15    1131     106                                                        1318    5.83    5.49  1.0000
  31 -13  15     885      88                                                        1064    5.72    5.93  1.0000
  31 -13  13    6959     201                                                        6180   -7.52   -7.85  1.0000
  31 -13  11    2418     154                                                        2346    5.90  -34.96  1.0000
  31  13 -11    2661     131                                                        2644    4.92  -34.60  1.0000
  31 -13   9    3312     168                                                        2684  -12.98    0.37  1.0000
  31  13  -9    3377     145                                                        2695  -14.29    0.99  1.0000
  31  13  -7    1097     129                                                        1300   -1.81   -5.79  1.0000
  31 -13   7    1096     170                                                        1284   -1.76   -5.33  1.0000
  31 -13   5     473     188                                                         351   11.81   24.63  1.0000
  31  13  -5     436     118                                                         302   11.64   25.09  1.0000
  31 -13   3     367     188                                                         577    1.07  -10.25  1.0000
  31  13  -3     346     120                                                         576    0.55  -11.28  1.0000
  31  13  -1     350     113                                                         329   -3.31    1.45  1.0000
  31  13   1     158     103                                                         142   -2.75   -0.86  1.0000
  31 -13  -3      45     203                                                         139   -0.31   10.59  1.0000
  31  13   3      26      89                                                         101    0.20   10.32  1.0000
  31 -13  -5     511     197                                                         393   11.59  -24.17  1.0000
  31 -13  -7    1015     206                                                        1208   -1.29    5.83  1.0000
  31 -13 -11    2098     162                                                        2004    6.00   34.92  1.0000
  31 -13 -13    7270     215                                                        6487   -7.79    6.65  1.0000
  31 -13 -15     623      86                                                         739    6.50   -4.64  1.0000
  21 -31  15     682      59                                                         321  -11.02  -12.93  1.0000
  19 -31  15      64      85                                                         131    6.29   -4.93  1.0000
  17 -31  15     174     112                                                         165    4.67  -13.17  1.0000
  31  15 -17     347      76                                                         338    5.88  -13.54  1.0000
  31 -15  15      38      75                                                           2   -0.88   10.80  1.0000
  31 -15  13    3071     140                                                        3136   -4.22   13.76  1.0000
  31 -15  11    2692     150                                                        3026   -4.09   -8.96  1.0000
  31  15 -11    2690     131                                                        2980   -3.18   -9.10  1.0000
  31  15  -9     386     108                                                         464    6.11   -1.98  1.0000
  31 -15   9     425     143                                                         529    7.22   -1.97  1.0000
  31 -15   7    1854     159                                                        1105   -8.12  -21.22  1.0000
  31  15  -7    1858     113                                                        1056   -9.58  -22.00  1.0000
  31 -15   5     647     172                                                         799   -6.21    5.99  1.0000
  31  15  -5     954     114                                                        1169   -6.15    6.88  1.0000
  31 -15   3     432     180                                                        1288  -29.61  -17.05  1.0000
  31  15  -3     261     109                                                         995  -30.58  -17.54  1.0000
  31  15  -1    4977     141                                                        3916  -27.13   -8.58  1.0000
  31 -15  -1    3118     203                                                        2253  -26.84    8.93  1.0000
  31  15   1    3037     110                                                        2222  -26.52    8.12  1.0000
  31  15   3      85      78                                                         539  -29.46   17.41  1.0000
  31 -15  -3      83     189                                                         552  -30.51   18.62  1.0000
  31 -15  -5     444     185                                                         578   -4.37   -6.27  1.0000
  31 -15  -7    3480     198                                                        2410   -8.85   20.93  1.0000
  31 -15 -11    1403     139                                                        1643   -4.64    7.00  1.0000
  31 -15 -13    1991     117                                                        2005   -4.80  -13.47  1.0000
  19 -31  17     274      75                                                         393    7.98    0.74  1.0000
  17 -31  17    3004     114                                                        2513    7.65  -17.36  1.0000
  31 -17  15    4260     132                                                        4075   -2.65  -11.82  1.0000
  31 -17  13     355      95                                                         526    3.25    8.63  1.0000
  31  17 -13     289      86                                                         438    1.94    8.27  1.0000
  31 -17  11     824     121                                                         961    3.28    3.97  1.0000
  31  17 -11     819      98                                                         948    2.03    4.08  1.0000
  31 -17   9    3483     165                                                        3388   -8.67  -14.45  1.0000
  31  17  -9    3415     135                                                        3332   -9.24  -15.95  1.0000
  31 -17   7    6879     216                                                        6230    3.51   13.93  1.0000
  31  17  -7    6685     187                                                        5973    4.34   14.48  1.0000
  31  17  -5     283      91                                                         359   11.42    6.05  1.0000
  31 -17   5     353     159                                                         435   12.65    7.87  1.0000
  31  17  -3    1471      93                                                        1322    4.18    4.58  1.0000
  31  17  -1    1627      96                                                        1463    8.83    1.02  1.0000
  31 -17  -1    1311     184                                                        1141    9.13   -1.64  1.0000
  31  17   1    1469      83                                                        1236    9.63   -3.09  1.0000
  31 -17  -3    2088     174                                                        1842    3.91   -6.19  1.0000
  31 -17  -5     863     160                                                        1043   11.87   -5.38  1.0000
  31 -17  -7    6508     220                                                        5836    2.86  -17.37  1.0000
  31 -17 -11    1533     113                                                        1702    2.36   -3.81  1.0000
  31 -19  15      73      60                                                          75    3.39   -7.99  1.0000
  15 -31  19     115      82                                                         121    3.43   -7.65  1.0000
  31 -19  13     636      81                                                         626    3.14    3.00  1.0000
  31 -19  11    1147     110                                                        1378    1.27   11.66  1.0000
  31 -19   9    5791     160                                                        3941  -26.71   -6.22  1.0000
  31  19  -9    5368     127                                                        3607  -26.48   -6.20  1.0000
  31 -19   7    1459     133                                                        1867  -14.64  -11.33  1.0000
  31  19  -7    1270      92                                                        1615  -14.14  -12.75  1.0000
  31 -19   5    2060     151                                                        2075   -6.62    2.60  1.0000
  31  19  -5    1818      94                                                        1860   -7.18    3.50  1.0000
  31  19  -3     298      77                                                         382  -19.97   -8.61  1.0000
  31 -19   1    1391     152                                                         995   22.64   -4.51  1.0000
  31  19  -1    1498      78                                                        1093   22.19   -4.34  1.0000
  31 -19  -1     541     144                                                         278   22.82    5.10  1.0000
  31 -19  -3     388     142                                                         486  -19.76    9.36  1.0000
  31 -19  -5    1561     142                                                        1584   -5.99   -2.71  1.0000
  31 -19  -7     739     138                                                         975  -14.08   14.12  1.0000
  31 -19 -11     660      81                                                         808    1.48  -10.66  1.0000
  31 -21  13     554      69                                                         441    1.84   22.09  1.0000
  31 -21  11    6804     217                                                        7513  -10.29  -10.26  1.0000
  31 -21   9     151      95                                                         130   -0.16   -2.21  1.0000
  31 -21   7     650     114                                                         654   -4.25    3.97  1.0000
  31 -21   3      73     115                                                         144   -6.59    6.58  1.0000
  31 -21   1    1369     126                                                        1045   -6.22  -13.22  1.0000
  31 -21  -1    1671     131                                                        1316   -6.27   12.83  1.0000
  31 -21  -3     214     109                                                         343   -7.14   -7.08  1.0000
  31 -21  -5     387     105                                                         373   -1.69   -6.74  1.0000
  31 -21  -9     205      68                                                         189    0.84    2.19  1.0000
  31 -23  11     592      57                                                         506   -4.54   10.40  1.0000
  31 -23   9     776      84                                                         776    0.08   -3.69  1.0000
  31 -23   7    1284     101                                                        1250   -0.56   -2.24  1.0000
  31 -23   3    3131     127                                                        3024    1.82    2.11  1.0000
  31 -23   1     178      92                                                         -17   27.23    2.88  1.0000
  31 -23  -1     128      97                                                         316   25.84   -2.99  1.0000
  31 -23  -3    3479     125                                                        3389    1.33   -3.88  1.0000
  31 -23  -5     306      78                                                         267   -7.53    2.80  1.0000
  31 -25   5     521      62                                                         431   -4.12   -2.24  1.0000
  31 -25   3     629      67                                                         464   -6.26   -4.47  1.0000
  31 -25   1      94      72                                                          34  -10.96    0.40  1.0000
  31 -25  -1     213      60                                                         128   -9.31   -1.02  1.0000
  32   0   0    3814     180                                                        2931   15.63    0.22  1.0000
  32   0  -2   10605     371                                                       12252   15.81   -0.10  1.0000
  32   0   2   10762     360                                                       12504   16.58   -2.16  1.0000
  32   0  -4    9387     387                                                       13025   35.37    1.24  1.0000
  32   0   4    8903     370                                                       12608   36.78   -0.07  1.0000
  32   0   6     408     132                                                         523    5.35    2.50  1.0000
  32   0  -8     108     167                                                         662   31.42    1.69  1.0000
  32   0   8      87     118                                                         595   30.87   -0.01  1.0000
  32   0  10    1027     114                                                        2001   26.05    0.38  1.0000
  32   0 -10    1017     171                                                        1954   25.28   -0.28  1.0000
  32   0 -12    7746     284                                                        8917   13.16    0.69  1.0000
  32   0 -14   11476     305                                                       11227    2.39   -0.13  1.0000
  14 -32   0    9329     312                                                        9190    1.48    1.44  1.0000
  32   0 -16   10671     290                                                       11001    3.25    0.50  1.0000
  16 -32   0    8843     296                                                        8984    1.53   -1.12  1.0000
  32   0 -18   10488     294                                                       11284    7.83    0.28  1.0000
  18 -32   0    8934     303                                                        9709    8.24    0.97  1.0000
  20 -32   0    3378     161                                                        4511   18.55   -0.09  1.0000
  32   0 -20    3577     139                                                        4751   18.71    0.36  1.0000
  22 -32   0     378      76                                                         310    3.77   -0.12  1.0000
  22 -32   2     225      83                                                         177   -7.06   -4.84  1.0000
  32   2 -20     195      68                                                         162   -9.00  -12.17  1.0000
  20 -32   2     328     102                                                         330   -7.22  -12.37  1.0000
  32   2 -18    1838     111                                                        2206   -7.13   -9.69  1.0000
  18 -32   2    1624     144                                                        1965   -7.05   -9.51  1.0000
  32   2 -16    4924     177                                                        5224    2.85    4.15  1.0000
  16 -32   2    3913     196                                                        4218    4.21    2.59  1.0000
  32   2 -14     348     129                                                         404   -1.22   -4.45  1.0000
  32  -2  12    6469     250                                                        8458   23.01  -16.41  1.0000
  32   2 -12    8024     286                                                       10219   22.93  -15.97  1.0000
  32   2 -10    4279     196                                                        3938  -15.72    4.82  1.0000
  32   2  -6    2403     184                                                        2333   -1.10   12.17  1.0000
  32   2  -4    6744     213                                                        5166   27.92   10.92  1.0000
  32   2  -2     143     160                                                          72   -0.32   10.77  1.0000
  32   2   0     817     156                                                         343   20.64    0.51  1.0000
  32   2   2    2021     155                                                        1758   -0.85  -10.73  1.0000
  32  -2  -2    2028     187                                                        1720   -3.19   -8.67  1.0000
  32   2   4    4710     166                                                        3409   29.92   -9.79  1.0000
  32  -2  -4    4995     211                                                        3745   26.66   -9.45  1.0000
  32   2   6     983     132                                                         970   -0.01   -6.48  1.0000
  32   2   8    5423     227                                                        7275   21.92  -12.14  1.0000
  32  -2  -8    6070     280                                                        7999   22.00  -10.52  1.0000
  32   2  10    2781     113                                                        2490  -17.08   -5.63  1.0000
  32  -2 -10    3445     194                                                        3076  -18.22   -5.25  1.0000
  32  -2 -12    6466     271                                                        8447   22.84   17.97  1.0000
  14 -32  -2     722     129                                                         830   -2.77    3.64  1.0000
  32  -2 -14     739     130                                                         805   -0.40    4.74  1.0000
  16 -32  -2    3383     160                                                        3605    2.47   -3.89  1.0000
  32  -2 -16    4000     158                                                        4231    2.60   -3.23  1.0000
  32  -2 -18    1147      95                                                        1420   -6.59   10.15  1.0000
  18 -32  -2    1079     106                                                        1363   -7.25    9.08  1.0000
  32  -2 -20     346      62                                                         349   -7.38   12.51  1.0000
  20 -32  -2     298      81                                                         290   -8.22   13.03  1.0000
  22 -32   4    4926     147                                                        4137  -13.08    3.60  1.0000
  20 -32   4    3050     160                                                        4261   18.05  -10.39  1.0000
  32   4 -20    3287     137                                                        4485   16.69  -11.51  1.0000
  32   4 -18   11710     287                                                       10904   12.03   -5.01  1.0000
  18 -32   4   10145     308                                                        9357   12.79   -5.49  1.0000
  32   4 -16    2584     132                                                        2846    5.96    3.80  1.0000
  16 -32   4    2076     166                                                        2353    6.85    3.67  1.0000
  32   4 -14    1694     138                                                        1907   -1.53  -13.96  1.0000
  32   4 -12     885     150                                                        1190   16.80   -4.15  1.0000
  32   4 -10    6765     223                                                        6129    8.23    2.04  1.0000
  32  -4   8     588     154                                                        2065   24.49   37.82  1.0000
  32   4  -6    3201     196                                                        4380   15.74   19.76  1.0000
  32  -4   6    3298     201                                                        4528   16.48   18.88  1.0000
  32  -4   4    1508     179                                                        1384   16.37   16.70  1.0000
  32   4  -4    1321     158                                                        1182   15.70   15.05  1.0000
  32  -4   2    3126     212                                                        3590    4.12  -12.62  1.0000
  32   4  -2    2754     180                                                        3219    3.80  -14.96  1.0000
  32   4   0   15124     452                                                       16385   10.30   -1.39  1.0000
  32   4   2    4853     195                                                        5326    3.52   10.04  1.0000
  32   4   4    3463     161                                                        3350   16.26  -16.80  1.0000
  32  -4  -6    4328     248                                                        5746   16.98  -17.76  1.0000
  32   4   6    4314     190                                                        5696   16.74  -16.84  1.0000
  32  -4  -8     215     198                                                        1313   25.42  -38.69  1.0000
  32   4   8     167     102                                                        1183   25.29  -38.78  1.0000
  32  -4 -10   10131     303                                                        9357    8.24   -3.76  1.0000
  32  -4 -12    1064     156                                                        1417   16.36    2.91  1.0000
  32  -4 -14    1341     144                                                        1535   -0.92   13.28  1.0000
  32  -4 -16    2255     134                                                        2567    7.33   -3.64  1.0000
  32  -4 -18    8834     230                                                        8136   13.07    6.79  1.0000
  22 -32   6    3200     122                                                        3206    1.36   -9.66  1.0000
  20 -32   6    1272     119                                                        1384    0.12    3.42  1.0000
  32   6 -20    1331      82                                                        1429   -0.19    2.84  1.0000
  32   6 -18     358      95                                                         367    8.71   -1.11  1.0000
  18 -32   6     211     140                                                         211    7.40   -1.08  1.0000
  32   6 -16    1917     119                                                        1705   -4.75    2.03  1.0000
  32   6 -14    5534     193                                                        5490  -12.43  -24.18  1.0000
  32   6 -12    4427     180                                                        4433   -7.85    7.50  1.0000
  32  -6  12    3957     155                                                        3962   -9.91    9.32  1.0000
  32  -6  10     970     127                                                        1454  -20.04  -11.81  1.0000
  32   6  -8    6052     205                                                        4973   13.17   13.27  1.0000
  32  -6   8    6008     192                                                        4932   11.90   13.43  1.0000
  32   6  -6    1326     155                                                        1560   -9.40    0.51  1.0000
  32  -6   6    1303     167                                                        1531   -8.92    0.12  1.0000
  32   6  -4    1454     154                                                        2040    1.48  -26.72  1.0000
  32  -6   4    1203     179                                                        1732    1.68  -26.57  1.0000
  32  -6   2    1095     188                                                        1248   -0.38   -6.82  1.0000
  32   6  -2     899     138                                                        1017   -1.68   -7.15  1.0000
  32  -6   0    1102     200                                                        1337   -6.91   -0.79  1.0000
  32   6   0    1126     134                                                        1317   -5.62   -3.35  1.0000
  32  -6  -2    1326     214                                                        1456   -0.64    5.68  1.0000
  32   6   2    1106     132                                                        1218   -2.53    7.23  1.0000
  32   6   4     543     121                                                         880    2.68   25.81  1.0000
  32   6   6    1309     115                                                        1571   -9.89    0.10  1.0000
  32  -6  -8    3862     191                                                        3031   12.88  -12.81  1.0000
  32   6   8    3367     113                                                        2565   12.48  -13.43  1.0000
  32  -6 -10    2789     215                                                        3736  -21.15   13.40  1.0000
  32  -6 -12    3001     181                                                        2994   -8.48   -7.88  1.0000
  32  -6 -14    7626     243                                                        7648  -12.53   23.21  1.0000
  32  -6 -16    3364     136                                                        3058   -5.33   -1.50  1.0000
  32  -6 -18     562      73                                                         586    7.60    0.46  1.0000
  22 -32   8    2039     109                                                        2292   -2.00   21.65  1.0000
  20 -32   8     180     112                                                         259   -5.66   -5.35  1.0000
  32   8 -20     315      68                                                         418   -6.46   -5.05  1.0000
  32   8 -18     223      87                                                         308   -1.86    7.53  1.0000
  18 -32   8     343     131                                                         452   -1.22    7.69  1.0000
  32   8 -16     580      97                                                         627   -1.01   -1.76  1.0000
  32   8 -14   11838     323                                                       12705   -6.00   -7.15  1.0000
  32  -8  14    9818     309                                                       10595   -6.28   -5.96  1.0000
  32   8 -12    3834     143                                                        2720  -19.97   -2.00  1.0000
  32  -8  12    3494     127                                                        2450  -19.74   -0.19  1.0000
  32  -8  10    1004     130                                                         322   22.39   18.64  1.0000
  32   8  -8    2709     181                                                        3839  -15.91   12.66  1.0000
  32  -8   8    2799     184                                                        3871  -14.35   12.67  1.0000
  32   8  -6    2850     165                                                        3061   -5.02   -3.23  1.0000
  32  -8   6    2871     178                                                        3099   -5.28   -3.00  1.0000
  32  -8   4     476     176                                                         183   -8.08  -49.71  1.0000
  32   8  -4     487     135                                                         294   -6.66  -49.21  1.0000
  32   8  -2    2830     156                                                        2973  -24.27   -7.79  1.0000
  32  -8   2    3108     208                                                        3261  -22.95   -7.12  1.0000
  32   8   0    6437     227                                                        7020   -7.29   -0.83  1.0000
  32  -8   0    6531     284                                                        7093   -6.99   -0.10  1.0000
  32   8   2    1589     130                                                        1609  -24.54    9.23  1.0000
  32  -8  -4    1092     220                                                        1341   -6.89   49.27  1.0000
  32   8   4    1009     115                                                        1213   -7.90   50.07  1.0000
  32   8   6    3188     128                                                        3417   -5.26    3.72  1.0000
  32  -8  -8    5901     275                                                        7452  -12.87  -15.18  1.0000
  32  -8 -10    1130     171                                                         392   21.96  -19.12  1.0000
  32  -8 -12    3559     170                                                        2473  -20.47   -1.61  1.0000
  32  -8 -14   11380     344                                                       12237   -6.92    4.73  1.0000
  32  -8 -16    1174     102                                                        1232   -2.20    0.08  1.0000
  22 -32  10     293      68                                                         257   -1.77   -3.33  1.0000
  20 -32  10      61     104                                                          61    4.09   -3.61  1.0000
  32  10 -20     125      58                                                         137    4.50   -2.98  1.0000
  18 -32  10    6156     246                                                        6730  -10.59  -10.62  1.0000
  32  10 -18    7426     218                                                        8079  -10.74  -10.23  1.0000
  32  10 -16    1106     102                                                        1146    3.65   -5.29  1.0000
  32 -10  14    1026      88                                                         686    8.14   -8.95  1.0000
  32  10 -14    1280     108                                                         875    8.32   -9.75  1.0000
  32 -10  12    2244     119                                                        1630   15.62   -3.61  1.0000
  32  10 -10   11843     324                                                       11206    4.16  -12.91  1.0000
  32 -10  10   12279     328                                                       11654    4.11  -11.76  1.0000
  32 -10   8     107     147                                                          74    0.18    5.60  1.0000
  32  10  -8     176     134                                                         140    0.28    4.62  1.0000
  32 -10   6     427     162                                                        1305   -4.06  -32.64  1.0000
  32  10  -6     477     133                                                        1357   -3.02  -32.00  1.0000
  32  10  -4    7510     278                                                        9525  -19.39  -14.83  1.0000
  32 -10   4    7171     310                                                        9202  -20.03  -14.86  1.0000
  32 -10   2    1462     195                                                        1238    6.55   -2.84  1.0000
  32  10  -2    1619     130                                                        1339    7.80   -3.03  1.0000
  32 -10   0      52     193                                                         104   -6.16   -0.27  1.0000
  32  10   0      72     113                                                         133   -6.19    0.60  1.0000
  32  10   2    1709     111                                                        1456    6.81    2.53  1.0000
  32  10   4    7661     273                                                        9787  -20.09   15.90  1.0000
  32 -10  -4    7762     336                                                        9814  -19.33   15.25  1.0000
  32  10   6    1464     110                                                        2845   -3.81   31.64  1.0000
  32 -10 -10   16572     446                                                       15709    4.85   14.85  1.0000
  32 -10 -12    2305     156                                                        1666   16.15    4.03  1.0000
  32 -10 -14    1429     115                                                        1001    7.69   10.06  1.0000
  32 -10 -16    3034     115                                                        3132    4.10    5.14  1.0000
  32  12 -18    7203     202                                                        7192    0.64   -8.51  1.0000
  32  12 -16     413      92                                                         616   13.93    2.97  1.0000
  32  12 -14    3767     133                                                        3562   -5.34    7.48  1.0000
  32 -12  14    3397     123                                                        3192   -5.48    7.79  1.0000
  32 -12  12       5     107                                                         -69   -2.23   -4.09  1.0000
  32 -12  10      79     126                                                         347  -12.99  -22.43  1.0000
  32  12 -10      99     115                                                         414  -13.93  -22.12  1.0000
  32  12  -8     968     119                                                        1111   -3.84    9.28  1.0000
  32 -12   8     905     143                                                        1063   -3.25    9.61  1.0000
  32 -12   6    1489     168                                                        2250  -12.20   18.87  1.0000
  32  12  -6    1541     134                                                        2286  -12.16   18.28  1.0000
  32 -12   4   17031     433                                                       15314    7.14  -26.47  1.0000
  32  12  -4   16498     404                                                       14753    7.80  -25.73  1.0000
  32 -12   2     285     190                                                         289   -0.23   -1.19  1.0000
  32  12  -2     425     106                                                         443   -0.84   -2.69  1.0000
  32  12   0    3948     139                                                        3474    7.99    0.24  1.0000
  32 -12  -2     812     199                                                         828   -0.44    4.76  1.0000
  32  12   2     828      99                                                         842   -0.37    4.38  1.0000
  32  12   4   18110     432                                                       16319    7.32   26.51  1.0000
  32 -12  -4   18490     480                                                       16763    6.77   26.01  1.0000
  32 -12  -6    2047     209                                                        2887  -13.18  -18.00  1.0000
  32 -12 -10     321     149                                                         803  -12.66   21.87  1.0000
  32 -12 -12     356     126                                                         299   -0.22    3.60  1.0000
  32 -12 -14    3011     123                                                        2776   -5.15   -8.52  1.0000
  20 -32  14      46      62                                                         -10  -13.88    1.31  1.0000
  18 -32  14     260      92                                                         406    8.20   20.15  1.0000
  32  14 -16     574      76                                                         354    1.91  -12.69  1.0000
  32 -14  14   11323     350                                                       13128  -13.75   30.45  1.0000
  32  14 -12     152      92                                                         186    5.59   -0.37  1.0000
  32 -14  12     138     107                                                         166    5.69    0.01  1.0000
  32  14 -10     533     102                                                         262   15.43   -6.06  1.0000
  32 -14  10     556     123                                                         280   16.10   -5.51  1.0000
  32 -14   8   11080     316                                                       10501   16.53  -14.16  1.0000
  32  14  -8   11634     304                                                       11144   15.33  -14.18  1.0000
  32 -14   6    1613     164                                                        1645   -5.64  -17.45  1.0000
  32  14  -6    1522     110                                                        1585   -6.63  -17.71  1.0000
  32 -14   4     955     176                                                        1621   15.67  -15.15  1.0000
  32  14  -4     778     111                                                        1379   15.69  -14.48  1.0000
  32 -14   2    1697     186                                                        1725   -7.54  -11.23  1.0000
  32  14  -2    1790     111                                                        1813   -8.54  -12.23  1.0000
  32  14   0   12245     285                                                       10381   18.00   -1.83  1.0000
  32  14   2    3266     122                                                        3340   -7.07   11.17  1.0000
  32 -14  -2    3484     207                                                        3513   -9.07   12.20  1.0000
  32 -14  -4     870     176                                                        1551   17.15   14.23  1.0000
  32 -14  -6    3055     198                                                        3149   -5.90   16.91  1.0000
  32 -14 -10     699     132                                                         395   16.48    4.77  1.0000
  32 -14 -12     417     106                                                         461    4.87   -0.03  1.0000
  32 -14 -14   13138     398                                                       15076  -13.54  -30.98  1.0000
  18 -32  16     636      74                                                         762    4.56  -15.07  1.0000
  16 -32  16     538     108                                                         693    6.23    2.16  1.0000
  32 -16  14      18      68                                                         -33   -8.40   -2.16  1.0000
  32 -16  12    3438     137                                                        3644    7.36   11.62  1.0000
  32  16 -12    3294     129                                                        3548    7.93   10.24  1.0000
  32 -16  10      47     107                                                          60    4.21  -13.24  1.0000
  32  16 -10     126      87                                                         181    4.86  -13.36  1.0000
  32 -16   8    1124     135                                                        1222    8.72   -4.56  1.0000
  32  16  -8    1238      96                                                        1325    7.97   -4.49  1.0000
  32  16  -6     466      90                                                         418   -3.67   -0.04  1.0000
  32 -16   6     631     147                                                         587   -3.07   -0.17  1.0000
  32  16  -4     663      88                                                         718   -7.86   12.16  1.0000
  32 -16   4     633     155                                                         665   -7.15   12.70  1.0000
  32  16  -2      23      81                                                          54    7.57   -1.61  1.0000
  32  16   0     245      81                                                         605  -18.33   -1.19  1.0000
  32 -16   0     311     168                                                         701  -18.14   -0.65  1.0000
  32 -16  -2      88     167                                                         143    7.61    0.96  1.0000
  32  16   2      61      65                                                         104    7.42    0.65  1.0000
  32 -16  -4      52     169                                                           6   -8.54  -13.07  1.0000
  32 -16  -6     425     157                                                         355   -4.45   -1.08  1.0000
  32 -16 -10     275     112                                                         373    3.83   13.03  1.0000
  32 -16 -12    4916     165                                                        5191    7.44  -10.76  1.0000
  16 -32  18    2379     101                                                        2662    2.90   -6.82  1.0000
  32 -18  14    1402      77                                                        1621    4.40    5.92  1.0000
  32 -18  12     145      76                                                         223   12.89    8.79  1.0000
  32 -18  10    5513     166                                                        5135    3.63    9.69  1.0000
  32  18 -10    5325     150                                                        4909    4.64    7.71  1.0000
  32 -18   8     758     124                                                        1007   10.94   -7.81  1.0000
  32  18  -8     695      81                                                         921   10.60   -8.04  1.0000
  32 -18   6    3960     167                                                        3745   -5.16    9.44  1.0000
  32  18  -6    4149     133                                                        3958   -4.77    9.88  1.0000
  32 -18   4    1888     145                                                        1995   -5.25   -8.34  1.0000
  32  18  -4    1920      93                                                        2028   -5.30   -8.52  1.0000
  32  18  -2    3619     133                                                        4087  -30.01   26.13  1.0000
  32 -18   0   11092     352                                                       12296   11.43   -0.80  1.0000
  32  18   0   10762     317                                                       11983   11.75   -1.74  1.0000
  32 -18  -2    1076     148                                                        1168  -29.68  -26.60  1.0000
  32 -18  -4    2545     156                                                        2664   -5.21    8.85  1.0000
  32 -18  -6    4291     182                                                        4018   -6.10  -10.03  1.0000
  32 -18 -10    3848     127                                                        3508    4.15   -8.99  1.0000
  32 -20  12    3178     123                                                        3863   10.70    7.20  1.0000
  32 -20  10    1779      99                                                        1958    3.77   -2.34  1.0000
  32 -20   8     116      99                                                         250   -8.90   -6.81  1.0000
  32 -20   6     586     113                                                         812   10.94    5.66  1.0000
  32 -20   2     548     125                                                         773    6.26   -7.20  1.0000
  32 -20   0     296     117                                                         342   -2.64    0.85  1.0000
  32 -20  -2     668     119                                                         938    5.99    9.15  1.0000
  32 -20  -4    1001     105                                                         764  -14.77   -7.58  1.0000
  32 -22  10    2964     112                                                        3242    4.71    3.47  1.0000
  32 -22   8     183      79                                                          60   32.07  -14.58  1.0000
  32 -22   6      35      78                                                         146   -0.11   13.06  1.0000
  32 -22   2    3058     133                                                        3442    4.54   12.79  1.0000
  32 -22   0    2223      98                                                        1162   26.80    0.53  1.0000
  32 -22  -2    2733     128                                                        3119    5.33  -11.13  1.0000
  32 -22  -4    1364      95                                                        1888   11.16  -10.92  1.0000
  32 -24   4     618      74                                                         583    3.81    1.34  1.0000
  32 -24   2    1849      87                                                        2113    5.31    7.01  1.0000
  32 -24   0       7      61                                                         148   30.35    1.16  1.0000
  21 -33   1      74      63                                                          38    0.67    4.95  1.0000
  33   1 -19     560      71                                                         644   -3.62   -5.98  1.0000
  19 -33   1     528      89                                                         605   -3.43   -6.25  1.0000
  33   1 -17    2071     112                                                        2223   -5.06    0.57  1.0000
  17 -33   1    1815     129                                                        1937   -6.03    2.39  1.0000
  33   1 -15    3104     144                                                        3427    8.13    0.50  1.0000
  15 -33   1    2461     156                                                        2731    8.15    1.06  1.0000
  33   1 -13    1492     142                                                        1361   -3.80  -12.23  1.0000
  33  -1  11    7739     226                                                        7805    0.71  -26.13  1.0000
  33   1 -11    8433     261                                                        8481    1.12  -27.12  1.0000
  33   1  -9     455     157                                                         491    4.59   22.49  1.0000
  33  -1   9     385     103                                                         392    4.39   24.87  1.0000
  33  -1   7     187     117                                                         360  -12.49    3.82  1.0000
  33  -1   5    2417     150                                                        2826  -11.62    5.35  1.0000
  33   1  -5    2034     181                                                        2471  -11.60    6.69  1.0000
  33   1  -3    4490     199                                                        4164   15.90    7.78  1.0000
  33  -1   3    4469     178                                                        4147   14.74    6.82  1.0000
  33   1  -1    4111     184                                                        3471  -11.91   -2.72  1.0000
  33  -1   1    4062     182                                                        3435  -10.89   -3.61  1.0000
  33   1   1    3109     161                                                        2555  -12.14    2.46  1.0000
  33  -1  -1    3088     178                                                        2582  -12.13    1.12  1.0000
  33   1   3   10020     293                                                        9527   15.29   -6.78  1.0000
  33  -1  -3   10224     305                                                        9860   13.28   -6.89  1.0000
  33   1   5     881     136                                                        1135   -9.92   -6.07  1.0000
  33   1   7      67     107                                                         188  -13.13   -4.55  1.0000
  33  -1  -9     656     159                                                         679    2.79  -23.37  1.0000
  33   1   9     587      93                                                         637    4.24  -23.02  1.0000
  33  -1 -11    7267     246                                                        7252    1.67   26.97  1.0000
  33  -1 -13    1512     133                                                        1381   -3.78   12.35  1.0000
  13 -33  -1    1178     121                                                        1004   -5.54   12.16  1.0000
  33  -1 -15    2117     135                                                        2383    9.20   -1.78  1.0000
  15 -33  -1    1924     134                                                        2152    7.16   -0.27  1.0000
  33  -1 -17    1835     106                                                        1975   -5.36   -1.02  1.0000
  17 -33  -1    1524     111                                                        1663   -6.12   -1.44  1.0000
  33  -1 -19     630      65                                                         703   -2.97    5.66  1.0000
  19 -33  -1     507      80                                                         593   -3.86    5.85  1.0000
  21 -33   3    1117      93                                                        1800  -19.14    1.52  1.0000
  19 -33   3    3464     144                                                        3590    4.46   -5.01  1.0000
  33   3 -19    3916     125                                                        4015    3.77   -4.82  1.0000
  33   3 -17    3348     125                                                        3223   -0.74   -5.61  1.0000
  17 -33   3    2472     152                                                        2391   -0.10   -5.83  1.0000
  33   3 -15    2624     123                                                        2316   23.53   31.12  1.0000
  15 -33   3    2069     156                                                        1698   25.49   31.97  1.0000
  33   3 -13     905     130                                                        1247   13.72   14.24  1.0000
  33   3 -11    1746     145                                                        1396    9.75  -12.94  1.0000
  33  -3  11    1827      98                                                        1427   10.76  -11.42  1.0000
  33   3  -5    7144     235                                                        6763    1.26   15.73  1.0000
  33   3  -3     458     145                                                         827   17.35   21.86  1.0000
  33   3  -1     313     148                                                         515  -10.15   -6.26  1.0000
  33   3   1     670     135                                                         993  -11.15    7.72  1.0000
  33  -3  -1    1003     173                                                        1386  -10.93    7.72  1.0000
  33   3   3     253     129                                                         479   17.20  -24.78  1.0000
  33  -3  -3     293     169                                                         502   15.36  -26.28  1.0000
  33   3   5    8198     238                                                        7800    0.99  -14.79  1.0000
  33  -3  -7    9091     297                                                        9901   -8.21    2.44  1.0000
  33   3   7    7859     258                                                        8606   -7.96    3.31  1.0000
  33  -3  -9    2070     176                                                        1873   -7.93    2.79  1.0000
  33   3   9    1730      94                                                        1579   -7.13    3.04  1.0000
  33  -3 -11    1255     153                                                         958    9.55   11.30  1.0000
  33  -3 -13    1085     143                                                        1494   14.30  -15.20  1.0000
  33  -3 -15    3004     138                                                        2743   23.41  -32.50  1.0000
  33  -3 -17    4531     149                                                        4423   -0.38    4.81  1.0000
  33  -3 -19    4713     141                                                        4853    4.04    4.25  1.0000
  21 -33   5     220      76                                                         462  -16.61  -12.24  1.0000
  33   5 -19     168      70                                                         250   13.31  -16.75  1.0000
  19 -33   5      94     108                                                         121   12.02  -16.08  1.0000
  17 -33   5    1891     129                                                        1375   14.77   -0.95  1.0000
  33   5 -17    1921      96                                                        1421   14.87    0.21  1.0000
  33   5 -15    1190     114                                                        1331    3.07  -27.94  1.0000
  33   5 -13    2306     140                                                        2272    0.49    3.14  1.0000
  33   5 -11    1369     139                                                        1009   12.70  -21.79  1.0000
  33   5  -7    1029     148                                                        1173   17.27   20.60  1.0000
  33   5  -5     425     140                                                         951   14.48   36.25  1.0000
  33   5  -3    2523     152                                                        2307  -11.26  -22.56  1.0000
  33   5  -1    4717     170                                                        4085   13.66    2.11  1.0000
  33   5   1    4497     162                                                        3916   10.85    0.67  1.0000
  33   5   3    2146     127                                                        1888  -11.52   24.98  1.0000
  33   5   5     371     108                                                         856   14.86  -35.95  1.0000
  33  -5  -7    3015     202                                                        3379   15.50  -19.53  1.0000
  33   5   7    2579     123                                                        2898   14.32  -18.58  1.0000
  33  -5  -9    7746     264                                                        7381   -5.97   -6.47  1.0000
  33  -5 -11     698     162                                                         395   12.95   23.13  1.0000
  33  -5 -13    2564     152                                                        2584    1.55   -2.79  1.0000
  33  -5 -15     846     115                                                         933    3.15   28.16  1.0000
  33  -5 -17    1989      91                                                        1461   16.24   -1.36  1.0000
  21 -33   7     480      74                                                         745   11.06   -0.30  1.0000
  19 -33   7      49      99                                                         113   -9.16   -2.11  1.0000
  33   7 -19      71      67                                                         147   -9.17   -1.86  1.0000
  17 -33   7     873     138                                                         904   12.98   10.15  1.0000
  33   7 -17    1057      93                                                        1087   13.33    9.99  1.0000
  33   7 -15    2651     130                                                        2922  -11.64    7.23  1.0000
  33   7 -13     597     117                                                         538    2.30   13.99  1.0000
  33  -7   9     791     125                                                         722    3.12  -15.88  1.0000
  33  -7   7     469     148                                                         666    0.07    8.77  1.0000
  33   7  -7     729     128                                                         983    0.97    9.37  1.0000
  33   7  -5    2236     144                                                        1969  -10.40    4.02  1.0000
  33  -7   5    2288     165                                                        1970  -12.57    4.91  1.0000
  33   7  -3    1358     138                                                        2102  -12.54  -20.24  1.0000
  33  -7   3    1236     178                                                        1920  -11.70  -20.65  1.0000
  33   7  -1    1956     141                                                        2393    9.35   -2.37  1.0000
  33  -7   1    2185     203                                                        2620    8.87   -2.09  1.0000
  33   7   1    2413     145                                                        2899    9.61    1.21  1.0000
  33  -7  -1    3005     213                                                        3384    7.26   -1.65  1.0000
  33   7   3     335     113                                                         710  -12.56   20.02  1.0000
  33   7   5    1519     104                                                        1272  -11.11   -3.77  1.0000
  33   7   7     312      79                                                         451    1.02   -7.78  1.0000
  33  -7  -7     442     178                                                         639    1.72   -9.37  1.0000
  33  -7  -9    1036     172                                                         967    2.92   15.08  1.0000
  33  -7 -11   10327     347                                                       11720  -11.43  -19.80  1.0000
  33  -7 -13    2125     139                                                        1995    0.88  -13.80  1.0000
  33  -7 -15    1064     107                                                        1244  -11.55   -7.79  1.0000
  33  -7 -17    1891      92                                                        2010   11.56  -10.50  1.0000
  21 -33   9     281      80                                                         517  -22.10   -5.74  1.0000
  19 -33   9     873     106                                                         607   -4.41  -10.11  1.0000
  33   9 -19     867      65                                                         610   -4.49   -9.83  1.0000
  33   9 -17     445      80                                                         601  -10.29   -1.22  1.0000
  17 -33   9     402     129                                                         535   -9.48   -1.03  1.0000
  33   9 -15     288      98                                                         276    3.44   -7.94  1.0000
  33   9 -13    1755     125                                                        1941   -7.58   14.60  1.0000
  33  -9  11    1630     109                                                        1491    6.65  -10.88  1.0000
  33   9  -9    7127     218                                                        6849    0.90   21.34  1.0000
  33  -9   9    7245     227                                                        6988    1.10   20.90  1.0000
  33  -9   7    1395     138                                                        1074   15.88   -2.63  1.0000
  33   9  -7    1255     123                                                         947   17.29   -3.64  1.0000
  33   9  -5    2401     147                                                        2593   -7.63   17.86  1.0000
  33  -9   5    2369     182                                                        2511   -9.55   18.73  1.0000
  33   9  -3    2838     138                                                        2153   26.36   -8.55  1.0000
  33  -9   3    2982     183                                                        2310   25.22   -8.29  1.0000
  33  -9   1     840     182                                                         792   -2.56   11.69  1.0000
  33   9  -1     887     116                                                         826   -2.85   10.95  1.0000
  33   9   1     313     111                                                         279   -1.99  -10.91  1.0000
  33   9   3    2709     117                                                        2017   25.19    6.69  1.0000
  33   9   5    1993     103                                                        2130   -8.17  -17.44  1.0000
  33  -9  -7    1280     181                                                         984   15.21    2.59  1.0000
  33  -9  -9    8481     274                                                        8207    1.22  -21.87  1.0000
  33  -9 -11    2807     163                                                        2604    6.61   11.72  1.0000
  33  -9 -13    1456     126                                                        1664   -7.16  -15.79  1.0000
  33  -9 -15     153      88                                                         135    2.81    7.61  1.0000
  19 -33  11    3093     130                                                        3157    6.41   14.41  1.0000
  33  11 -19    3793     111                                                        3845    6.06   14.67  1.0000
  17 -33  11     569     105                                                         600    2.46    7.70  1.0000
  33  11 -17     604      75                                                         624    2.06    8.71  1.0000
  33  11 -15    3765     137                                                        4036   -4.26    5.69  1.0000
  33 -11  13     615      81                                                         549    6.33   11.52  1.0000
  33 -11  11     263     104                                                         117  -13.07   22.43  1.0000
  33  11 -11     201     103                                                          48  -13.18   22.69  1.0000
  33 -11   9    1507     128                                                         785  -18.30  -19.80  1.0000
  33  11  -9    1641     110                                                         909  -17.58  -19.11  1.0000
  33  11  -7   10874     338                                                       11998   -8.04   29.73  1.0000
  33 -11   7   11219     351                                                       12341   -7.84   29.74  1.0000
  33  11  -5    1165     119                                                        1822   18.22    5.02  1.0000
  33 -11   5    1229     161                                                        1855   17.22    5.92  1.0000
  33 -11   3     822     175                                                         980    7.82   20.96  1.0000
  33  11  -3     687     110                                                         853    8.75   19.91  1.0000
  33 -11   1     583     181                                                         625    3.74    1.19  1.0000
  33  11  -1     349     103                                                         369    5.27    0.32  1.0000
  33  11   1     289      97                                                         303    7.24    0.25  1.0000
  33  11   3    2445     114                                                        2766    7.25  -21.96  1.0000
  33 -11  -3    2637     207                                                        3015    7.92  -23.75  1.0000
  33 -11  -9    2319     158                                                        1472  -16.45   20.82  1.0000
  33 -11 -11     335     130                                                         187  -12.21  -21.49  1.0000
  33 -11 -13     238     100                                                         191    6.69  -11.07  1.0000
  33 -11 -15    4884     156                                                        5226   -4.75   -5.34  1.0000
  33  13 -17      93      61                                                         126   20.24    6.57  1.0000
  33  13 -15     413      74                                                         451    1.28    1.54  1.0000
  33 -13  13    1891      92                                                        1827  -17.29   30.26  1.0000
  33 -13  11     713     108                                                         808   -1.65   -3.50  1.0000
  33  13 -11     799      91                                                         922   -1.42   -4.97  1.0000
  33 -13   9     893     121                                                         948    2.89    3.69  1.0000
  33  13  -9    1031     104                                                        1063    1.97    3.66  1.0000
  33  13  -7    1345     105                                                        1393   -1.19   -2.41  1.0000
  33 -13   7    1373     142                                                        1407   -1.14   -1.88  1.0000
  33  13  -5    2404     118                                                        2382  -19.80    1.73  1.0000
  33 -13   5    2248     167                                                        2150  -20.53    3.41  1.0000
  33  13  -3     823     101                                                        1217  -11.75   -9.48  1.0000
  33 -13   3     836     154                                                        1204  -10.93   -9.09  1.0000
  33  13  -1     420      91                                                         232  -18.41  -12.82  1.0000
  33  13   1     907      88                                                         648  -18.91   12.04  1.0000
  33 -13  -3    1532     189                                                        2015  -10.36   11.38  1.0000
  33  13   3    1386      88                                                        1822   -9.83   11.18  1.0000
  33 -13  -9    1915     149                                                        1995    3.19   -5.27  1.0000
  33 -13 -11     503     112                                                         567   -1.76    2.34  1.0000
  33 -13 -13     985      89                                                         878  -16.36  -30.57  1.0000
  17 -33  15    1081      84                                                        1383   -2.71   -8.96  1.0000
  33  15 -13    1425      80                                                        1217   -5.93    1.32  1.0000
  33 -15  13    1322      79                                                        1094   -6.93    1.25  1.0000
  33  15 -11    4819     160                                                        5331   -7.49  -18.83  1.0000
  33 -15  11    4710     169                                                        5190   -7.14  -18.14  1.0000
  33  15  -9     773      91                                                        1413   20.14    0.10  1.0000
  33 -15   9     928     121                                                        1624   20.19   -0.72  1.0000
  33  15  -7    2017      98                                                        1703   -7.49   -6.31  1.0000
  33 -15   7    2183     129                                                        1861   -5.53   -6.48  1.0000
  33  15  -5     985      89                                                        1025    2.79   -0.64  1.0000
  33 -15   5    1037     134                                                        1102    3.77   -0.49  1.0000
  33  15  -3    1493      96                                                        1357   10.99    4.46  1.0000
  33 -15   3    1530     155                                                        1374   12.09    4.69  1.0000
  33  15  -1     723      88                                                        1420   21.42  -18.74  1.0000
  33 -15  -1     496     154                                                        1104   22.20   17.48  1.0000
  33  15   1     479      74                                                        1069   21.94   17.77  1.0000
  33 -15  -3    4765     202                                                        4508   11.21   -3.90  1.0000
  33 -15  -5    1934     163                                                        1988    2.38    0.37  1.0000
  33 -15  -9     947     122                                                        1607   19.20   -0.45  1.0000
  33 -15 -11    6718     216                                                        7338   -7.55   17.88  1.0000
  15 -33  17     375      84                                                         395    1.35    7.26  1.0000
  33 -17  13     145      63                                                         187   -0.06   -5.92  1.0000
  33 -17  11     255      81                                                         248   -4.38   12.79  1.0000
  33  17 -11     189      64                                                         166   -3.11   11.51  1.0000
  33 -17   9     274      94                                                         404   -4.50  -15.05  1.0000
  33  17  -9     345      72                                                         511   -4.69  -16.21  1.0000
  33 -17   7    5359     189                                                        5593   -4.32    3.92  1.0000
  33  17  -7    5342     165                                                        5618   -4.90    3.87  1.0000
  33  17  -5    3318     102                                                        2648  -19.56  -22.52  1.0000
  33 -17   5    3097     139                                                        2474  -18.36  -21.23  1.0000
  33  17  -3    4687     126                                                        3932  -17.19  -10.51  1.0000
  33  17  -1    2444      83                                                        1953    4.16   11.34  1.0000
  33 -17  -1    2429     143                                                        1932    4.60  -11.11  1.0000
  33 -17  -3    2966     158                                                        2359  -16.90    9.84  1.0000
  33 -17  -9      95      91                                                         147   -5.14   15.47  1.0000
  33 -17 -11     460      66                                                         485   -5.21  -12.41  1.0000
  13 -33  19     365      62                                                         433   -0.31   -5.01  1.0000
  33 -19  11     335      64                                                         209   -5.53    5.76  1.0000
  33 -19   9    1809      93                                                        1584  -15.39   11.63  1.0000
  33 -19   7    2864     131                                                        3218   -4.96   13.15  1.0000
  33 -19   5      91     105                                                          80   -2.17    9.90  1.0000
  33 -19   1     355     118                                                         519   -6.72    7.02  1.0000
  33 -19  -1     262     103                                                         391   -6.20   -6.09  1.0000
  33 -19  -3     555     104                                                         442    3.39   12.69  1.0000
  33 -19  -9    2308      86                                                        2062  -15.45  -11.64  1.0000
  33 -21   9      88      64                                                          62   -3.35    8.92  1.0000
  33 -21   7     530      71                                                         739   -5.41  -11.43  1.0000
  33 -21   3    1464      95                                                        1328    5.12   -5.69  1.0000
  33 -21   1     447      86                                                         670    5.15  -17.65  1.0000
  33 -21  -1     323      82                                                         520    5.68   18.01  1.0000
  33 -21  -3    1426      93                                                        1268    5.44    4.23  1.0000
  33 -23   3    2111      84                                                        1895    5.38   -1.61  1.0000
  33 -23   1     203      65                                                         241   -2.77   -0.29  1.0000
  34   0   0     181     134                                                         548  -20.40    1.44  1.0000
  34   0  -2     464     156                                                         541    3.50    0.54  1.0000
  34   0   2     467     135                                                         528    2.82    1.00  1.0000
  34   0  -4      59     145                                                         335  -19.90    9.68  1.0000
  34   0   4      90     124                                                         385  -20.47    4.12  1.0000
  34   0   6     112     113                                                          83    3.22   -2.31  1.0000
  34   0   8    7762     220                                                        7481    3.31    1.97  1.0000
  34   0 -10    2422     145                                                        2045    8.19    2.19  1.0000
  34   0  10    2196      94                                                        1836    8.24    1.92  1.0000
  12 -34   0     826     113                                                         653   -6.54   -0.19  1.0000
  34   0 -12     995     126                                                         808   -6.39   -0.44  1.0000
  34   0 -14    8372     203                                                        7130   14.48    0.94  1.0000
  14 -34   0    6641     200                                                        5597   13.71    0.37  1.0000
  34   0 -16     192      94                                                         -25  -28.44   -0.86  1.0000
  16 -34   0     424      88                                                          45  -28.46   -0.67  1.0000
  34   0 -18      61      64                                                         242  -15.89    0.00  1.0000
  18 -34   0      41      70                                                         218  -17.07   -0.25  1.0000
  18 -34   2    2475     109                                                        2232    6.26    4.51  1.0000
  34   2 -18    2832      96                                                        2616    5.30    4.31  1.0000
  34   2 -16     481      95                                                         451  -15.53    1.17  1.0000
  16 -34   2     384      98                                                         358  -14.81    1.45  1.0000
  34   2 -14    4214     135                                                        3273   15.14    4.64  1.0000
  14 -34   2    3228     135                                                        2398   15.70    3.61  1.0000
  34   2 -12    1730     131                                                        1593   -3.80  -11.60  1.0000
  34  -2  10     585      85                                                         495   23.41   -3.54  1.0000
  34   2 -10     607     134                                                         508   23.65   -3.11  1.0000
  34  -2   8     380     108                                                         484  -12.05   28.00  1.0000
  34  -2   6    2530     135                                                        2087   -4.24   15.79  1.0000
  34   2  -6    2927     162                                                        2420   -4.18   16.65  1.0000
  34   2  -4    2635     152                                                        2417    6.35   22.84  1.0000
  34  -2   2    1873     139                                                        1013   15.72   22.50  1.0000
  34   2  -2    2141     135                                                        1198   16.86   20.98  1.0000
  34  -2   0    3247     193                                                        4316  -17.88   -1.23  1.0000
  34   2   0    3047     176                                                        4123  -18.49   -1.81  1.0000
  34  -2  -2    1312     155                                                         575   17.33  -22.06  1.0000
  34  -2  -4    4192     198                                                        4005    5.24  -21.60  1.0000
  34   2   4    3906     159                                                        3658    6.42  -22.17  1.0000
  34   2   6    2715     123                                                        2257   -3.90  -15.49  1.0000
  34   2   8     274      85                                                         289  -10.60  -27.94  1.0000
  34  -2  -8     372     154                                                         432  -10.24  -28.76  1.0000
  34  -2 -10     316     144                                                         218   20.97    3.16  1.0000
  34  -2 -12    1281     131                                                        1163   -3.60   10.42  1.0000
  34  -2 -14    2811     125                                                        2083   14.18   -5.78  1.0000
  34  -2 -16     553      93                                                         531  -14.98   -1.40  1.0000
  34  -2 -18    4523     128                                                        4284    5.05   -5.45  1.0000
  20 -34   4    1780      77                                                        1128  -18.61    4.88  1.0000
  34   4 -18      37      64                                                         -18  -10.05    7.44  1.0000
  18 -34   4      45      85                                                         145  -10.45    6.84  1.0000
  34   4 -16     359      87                                                         694    1.90  -15.10  1.0000
  16 -34   4     187     110                                                         453    3.01  -15.31  1.0000
  34   4 -14    1871     120                                                        2039   -7.58    6.33  1.0000
  14 -34   4    1602     146                                                        1748   -7.28    6.19  1.0000
  34   4 -12    1043     125                                                         983    8.72    0.66  1.0000
  34  -4  10    3251     123                                                        2950    5.45    2.29  1.0000
  34  -4   8      30     110                                                         112  -15.49    5.50  1.0000
  34   4  -6     406     138                                                         395   19.67   -2.26  1.0000
  34   4  -4    3190     163                                                        3480    9.55   13.62  1.0000
  34   4  -2     213     131                                                         380    7.56    8.37  1.0000
  34   4   0     242     127                                                         368   -7.42   -0.46  1.0000
  34  -4   0     372     168                                                         541   -8.12    2.16  1.0000
  34   4   2     202     110                                                         340    6.83   -6.31  1.0000
  34  -4  -2     303     164                                                         458    6.52   -5.80  1.0000
  34   4   4    3951     156                                                        4157    9.91  -11.52  1.0000
  34   4   6     671      98                                                         691   19.23    2.02  1.0000
  34  -4  -8      58     148                                                         202  -17.27   -6.25  1.0000
  34   4   8      69      73                                                         208  -14.94   -7.01  1.0000
  34  -4 -10    2529     156                                                        2280    5.18   -0.94  1.0000
  34  -4 -12    1059     136                                                        1003    8.39   -0.55  1.0000
  34  -4 -14    1341     120                                                        1488   -7.52   -5.75  1.0000
  34  -4 -16    1357     103                                                        1951    2.37   14.88  1.0000
  34  -4 -18      81      53                                                         202  -10.03   -8.22  1.0000
  20 -34   6     470      75                                                         503   -0.24    4.44  1.0000
  34   6 -18      17      65                                                           8    5.51   10.99  1.0000
  18 -34   6      33      91                                                         -26    3.66   11.23  1.0000
  16 -34   6    2593     133                                                        2144   -9.89    1.45  1.0000
  34   6 -16    3021     105                                                        2501  -10.43    0.62  1.0000
  34   6 -14    1572     115                                                        1893  -16.75  -21.52  1.0000
  34   6 -12     464     117                                                         520   -4.31   13.43  1.0000
  34  -6  12     350      72                                                         384   -5.15   14.01  1.0000
  34   6  -8    1082     125                                                        1227    3.03   10.50  1.0000
  34   6  -6    2233     128                                                        2013   -3.44    3.78  1.0000
  34   6  -4    1143     132                                                        1753  -22.62    0.24  1.0000
  34   6  -2    1808     136                                                        2191  -21.91  -25.21  1.0000
  34   6   0    1746     126                                                        1955   -4.98    0.03  1.0000
  34   6   2    2048     128                                                        2450  -22.80   25.17  1.0000
  34   6   4    1672     117                                                        2422  -23.95   -1.46  1.0000
  34  -6  -6    3342     182                                                        3021   -3.31   -4.88  1.0000
  34   6   6    2749     107                                                        2517   -2.65   -3.87  1.0000
  34  -6  -8     179     167                                                         230    3.32  -11.90  1.0000
  34  -6 -10      85     149                                                         246    8.98  -25.88  1.0000
  34  -6 -12     654     126                                                         725   -5.82  -15.34  1.0000
  34  -6 -14    1728     119                                                        2123  -18.12   22.16  1.0000
  34  -6 -16    3820     117                                                        3251  -10.61   -3.29  1.0000
  18 -34   8    1023      94                                                         760   -4.33   27.01  1.0000
  34   8 -18    1062      65                                                         828   -4.87   25.55  1.0000
  16 -34   8    1477     130                                                        1387   -5.42   -4.85  1.0000
  34   8 -16    1909      91                                                        1806   -5.39   -4.66  1.0000
  34   8 -14    1044      99                                                        1255    1.35   -6.30  1.0000
  34   8  -8    4121     148                                                        3155    3.05  -29.83  1.0000
  34  -8   8    4297     153                                                        3350    3.56  -29.38  1.0000
  34  -8   6     774     141                                                         757  -34.99    5.94  1.0000
  34   8  -6     769     120                                                         744  -32.36    5.36  1.0000
  34  -8   4     690     156                                                         614   -5.26  -17.66  1.0000
  34   8  -4     627     111                                                         554   -5.04  -16.50  1.0000
  34   8  -2    5564     161                                                        4026  -16.40  -27.54  1.0000
  34  -8   2    5987     204                                                        4399  -16.10  -28.28  1.0000
  34   8   0     239     102                                                          60   15.87    1.29  1.0000
  34   8   2    7076     175                                                        5396  -15.70   27.08  1.0000
  34   8   4     323      85                                                         274   -5.82   14.82  1.0000
  34   8   6     338      70                                                         225  -31.32   -5.96  1.0000
  34  -8  -6     381     163                                                         260  -34.25   -6.49  1.0000
  34  -8  -8    5246     196                                                        4236    4.03   29.35  1.0000
  34  -8 -10     334     138                                                         443   -1.42   -6.68  1.0000
  34  -8 -12    6483     202                                                        6133   -6.42    1.59  1.0000
  34  -8 -14     571      95                                                         710    0.00    5.64  1.0000
  34  -8 -16    2127      84                                                        1949   -7.10    4.40  1.0000
  18 -34  10     185      77                                                         151   -3.95   10.23  1.0000
  34  10 -18     252      52                                                         213   -4.31   10.37  1.0000
  16 -34  10    6470     205                                                        5490   -9.62   -9.42  1.0000
  34  10 -16    8333     188                                                        7249   -8.55  -10.52  1.0000
  34  10 -14     617      81                                                         496   -5.89  -12.94  1.0000
  34 -10  10     929     101                                                         820   -4.97    2.37  1.0000
  34  10 -10    1006      98                                                         892   -3.70    2.79  1.0000
  34  10  -8     937     112                                                        1075    7.20    0.24  1.0000
  34 -10   8     938     121                                                        1076    6.24   -0.58  1.0000
  34  10  -6    3991     154                                                        4132    1.14   -3.43  1.0000
  34 -10   6    3919     171                                                        4001   -0.18   -4.34  1.0000
  34  10  -4    2786     120                                                        2169   -9.69    8.40  1.0000
  34 -10   4    3147     155                                                        2477  -10.37    7.85  1.0000
  34  10  -2    3576     163                                                        4684   18.49    6.58  1.0000
  34 -10   2    3876     201                                                        5009   18.06    4.70  1.0000
  34 -10   0      45     169                                                         180  -38.96    9.26  1.0000
  34  10   0     101      93                                                          96  -39.83    6.83  1.0000
  34  10   2    2985     142                                                        4032   18.83   -5.11  1.0000
  34  10   4    2213      87                                                        1650  -12.02   -5.78  1.0000
  34 -10  -6    3380     184                                                        3520    0.62    5.35  1.0000
  34 -10  -8    1862     160                                                        2063    5.48    1.44  1.0000
  34 -10 -10    1649     138                                                        1539   -3.68   -1.78  1.0000
  34 -10 -12    1348     117                                                        1663    7.43   -3.97  1.0000
  34 -10 -14     301      75                                                         210   -6.20   12.76  1.0000
  18 -34  12     425      79                                                         193   -7.29   16.31  1.0000
  16 -34  12    4210     148                                                        3826   -7.33   -0.71  1.0000
  34  12 -16    4898     130                                                        4469   -7.85   -1.28  1.0000
  34  12 -14     349      76                                                         455   -6.05  -13.84  1.0000
  34 -12  12    3066     121                                                        3369    3.60   14.29  1.0000
  34  12 -10    1531      99                                                        1311  -16.36    4.10  1.0000
  34 -12  10    1687     102                                                        1448  -16.74    4.00  1.0000
  34 -12   8     507     116                                                         451  -14.24  -17.87  1.0000
  34  12  -8     431      93                                                         364  -14.32  -17.47  1.0000
  34  12  -6   12987     309                                                       11287  -12.81   -9.33  1.0000
  34 -12   6   13250     325                                                       11558  -13.28   -8.22  1.0000
  34 -12   4     665     132                                                         534   -3.23    7.37  1.0000
  34  12  -4     715      92                                                         587   -3.55    5.48  1.0000
  34  12  -2    1364      96                                                        1581   -3.82   19.05  1.0000
  34 -12   2    1345     163                                                        1560   -3.95   19.29  1.0000
  34  12   0     294      79                                                         305    0.62    0.51  1.0000
  34  12   2     725      76                                                         859   -4.15  -19.45  1.0000
  34 -12  -8    2223     146                                                        2250  -14.24   17.85  1.0000
  34 -12 -10     967     116                                                         785  -16.82   -4.58  1.0000
  34 -12 -12    3082     127                                                        3339    2.87  -13.70  1.0000
  34 -12 -14     410      63                                                         540   -5.20   13.78  1.0000
  34  14 -12    1549      77                                                        1119   -7.52  -10.03  1.0000
  34 -14  12    1399      76                                                         978   -8.32   -9.72  1.0000
  34  14 -10    1219      80                                                         804   13.73    0.44  1.0000
  34 -14  10    1161      87                                                         767   13.29    0.19  1.0000
  34  14  -8      41      74                                                          59   -8.41    0.72  1.0000
  34 -14   8      82     101                                                         109   -7.87    0.87  1.0000
  34 -14   6     166     113                                                         170   -7.43   -4.76  1.0000
  34  14  -6     180      80                                                         182   -8.18   -4.98  1.0000
  34 -14   4      29     130                                                         -48    5.36    9.60  1.0000
  34  14  -4      26      77                                                         -11    5.34    9.03  1.0000
  34  14  -2    6011     174                                                        5922   -3.96    7.70  1.0000
  34 -14   2    5935     207                                                        5916   -2.92    7.56  1.0000
  34  14   0      42      67                                                         -68   13.33    0.87  1.0000
  34  14   2    3264     106                                                        3274   -2.30   -7.35  1.0000
  34 -14  -2    3902     173                                                        3846   -3.67   -7.85  1.0000
  34 -14  -8      82     108                                                         114   -8.46   -0.51  1.0000
  34 -14 -10    1110      97                                                         710   13.72    0.87  1.0000
  34 -14 -12    1182      72                                                         816   -7.50    9.72  1.0000
  14 -34  16    1652      89                                                        1308    4.22   -8.86  1.0000
  34  16 -12    1385      68                                                        1486    2.57   -1.39  1.0000
  34 -16  12    1187      67                                                        1271    2.10   -2.74  1.0000
  34  16 -10     774      68                                                        1100   11.77   -9.48  1.0000
  34 -16  10     718      83                                                        1013   11.08   -8.53  1.0000
  34 -16   8     515      88                                                         354   -6.97   -9.06  1.0000
  34  16  -8     604      67                                                         425   -7.24   -8.60  1.0000
  34 -16   6     351     103                                                         642    2.77  -17.01  1.0000
  34  16  -6     292      69                                                         543    2.33  -16.52  1.0000
  34  16  -4    2578     104                                                        2917   -5.11   -7.29  1.0000
  34 -16   4    2396     138                                                        2663   -3.89   -7.27  1.0000
  34  16  -2      17      60                                                          17   -5.19    8.38  1.0000
  34 -16   0      21     118                                                         420   32.56   -0.95  1.0000
  34  16   0      11      57                                                         360   32.27    0.25  1.0000
  34 -16  -2      67     119                                                          89   -3.74  -11.03  1.0000
  34 -16  -8     553      93                                                         375   -7.59    8.39  1.0000
  34 -16 -10    1137      79                                                        1502   10.96    8.83  1.0000
  34 -18  10     322      66                                                         651  -15.13    4.73  1.0000
  34 -18   8     166      81                                                         309   -7.71    7.28  1.0000
  34 -18   6     177      86                                                         235    1.70    3.97  1.0000
  34 -18   4     433      99                                                         447   -1.15   -0.44  1.0000
  34 -18   0      13      98                                                          60   -8.57    0.08  1.0000
  34 -18  -2     379     101                                                         567  -25.32  -14.31  1.0000
  34 -18  -6     862      88                                                         961    0.94   -3.57  1.0000
  34 -18  -8     649      70                                                         912   -7.63   -7.30  1.0000
  34 -20   8     640      55                                                         636    2.54   -1.16  1.0000
  34 -20   6      44      61                                                         -39    9.04  -10.13  1.0000
  34 -20   2     458      75                                                         407    6.62   -2.18  1.0000
  34 -20   0    1036     102                                                        2004  -25.80    0.20  1.0000
  35   1 -17      37      64                                                          -8   11.99    3.54  1.0000
  35   1 -15    1640      94                                                        1310   -1.05   11.88  1.0000
  15 -35   1    1307      88                                                        1027   -0.63   10.97  1.0000
  35   1 -13    1248     120                                                        1757   16.41    4.46  1.0000
  13 -35   1     937     102                                                        1366   16.03    4.61  1.0000
  11 -35   1      91     100                                                          30  -16.66   -6.44  1.0000
  35   1 -11      69     111                                                         -39  -16.21   -5.28  1.0000
  35   1  -9    3213     152                                                        3079   -2.64    0.54  1.0000
  35  -1   9    3105     111                                                        3026   -2.02    2.28  1.0000
  35  -1   7     721      94                                                         672   11.62    4.81  1.0000
  35  -1   5    1781     120                                                        1848  -18.42   24.93  1.0000
  35   1  -5    1828     142                                                        1893  -19.20   25.40  1.0000
  35  -1   3    2485     145                                                        2805  -23.73   23.68  1.0000
  35   1  -3    2553     150                                                        2862  -24.29   23.60  1.0000
  35  -1   1    2877     150                                                        2840   -0.26   -6.31  1.0000
  35   1  -1    2830     144                                                        2775   -0.04   -7.41  1.0000
  35  -1  -1    2145     149                                                        2100    0.08    5.73  1.0000
  35   1   1    2184     140                                                        2162   -0.77    8.36  1.0000
  35  -1  -3    2080     154                                                        2417  -21.11  -23.65  1.0000
  35   1   3    1903     130                                                        2178  -22.32  -23.46  1.0000
  35  -1  -5    1088     139                                                        1014  -23.66  -27.18  1.0000
  35   1   5     846      99                                                         782  -22.51  -28.27  1.0000
  35   1   7    2434     108                                                        2348   14.59   -5.60  1.0000
  35  -1  -9    4984     186                                                        4833   -2.97   -3.05  1.0000
  35  -1 -11     949     121                                                         952  -17.36    6.38  1.0000
  35  -1 -13     652     113                                                        1001   16.21   -5.99  1.0000
  35  -1 -15    2369     104                                                        1996   -2.47  -12.32  1.0000
  35  -1 -17     250      65                                                         395   12.82   -4.73  1.0000
  17 -35   3     617      74                                                         785   -4.08    5.20  1.0000
  35   3 -17     886      73                                                        1087   -5.01    4.25  1.0000
  35   3 -15    1591      97                                                        1724    5.13  -13.85  1.0000
  15 -35   3    1136      96                                                        1229    4.91  -14.82  1.0000
  35   3 -13    1976     111                                                        1661    0.12   -9.91  1.0000
  13 -35   3    1500     115                                                        1199    0.09  -10.92  1.0000
  35   3 -11    3928     167                                                        4322   -4.27  -20.75  1.0000
  35  -3   9     217      86                                                         631    9.77  -19.34  1.0000
  35  -3   7    1740     120                                                        2255   11.24    7.51  1.0000
  35   3  -7    1958     142                                                        2510   11.31    8.25  1.0000
  35  -3   5    1189     124                                                        1573   -6.23  -14.60  1.0000
  35   3  -5     992     136                                                        1344   -7.60  -15.27  1.0000
  35  -3   3    6570     181                                                        4827   17.39   19.28  1.0000
  35   3  -3    6376     178                                                        4683   17.94   18.77  1.0000
  35  -3   1    3200     163                                                        3279   -1.10   -7.29  1.0000
  35   3  -1    2803     144                                                        2906   -0.03   -6.04  1.0000
  35  -3  -1    6233     217                                                        6442   -0.88   10.02  1.0000
  35   3   1    5346     195                                                        5556   -0.40    9.48  1.0000
  35  -3  -3    4248     170                                                        2855   18.82  -19.07  1.0000
  35   3   3    3615     125                                                        2399   17.37  -18.22  1.0000
  35   3   5    1401     106                                                        1790   -7.34   14.31  1.0000
  35   3   7     275      79                                                         490   11.09   -7.70  1.0000
  35  -3  -7     532     141                                                         820   10.90   -9.38  1.0000
  35  -3  -9     362     141                                                         884   10.84   19.34  1.0000
  35  -3 -11    4015     171                                                        4424   -4.36   21.15  1.0000
  35  -3 -13     478     105                                                         317    0.72   10.95  1.0000
  35  -3 -15    2353     113                                                        2534    5.27   13.28  1.0000
  35  -3 -17     990      66                                                        1212   -5.25   -4.42  1.0000
  17 -35   5    1478      96                                                        1415   -1.53    2.78  1.0000
  35   5 -17    1985      79                                                        1904   -1.36    2.93  1.0000
  35   5 -15      79      80                                                         168   22.04   -6.55  1.0000
  15 -35   5      92      92                                                         191   22.19   -5.83  1.0000
  35   5 -13     358      97                                                         538    7.73   -5.45  1.0000
  35   5 -11     160     103                                                         314    8.56   25.12  1.0000
  35  -5  11     100      67                                                         177    7.70   23.67  1.0000
  35  -5   9     832      92                                                         907   -1.05  -14.64  1.0000
  35   5  -7    1898     127                                                        1945   -3.73   -5.34  1.0000
  35  -5   7    1768     118                                                        1824   -3.89   -5.10  1.0000
  35   5  -5    1184     119                                                        1167    1.82   -0.60  1.0000
  35  -5   5     963     120                                                         985    1.57   -1.87  1.0000
  35   5  -3    1202     125                                                        1467   -6.53    6.00  1.0000
  35  -5   3    1257     141                                                        1500   -5.72    6.35  1.0000
  35  -5   1    1368     147                                                        1461   -0.78    8.36  1.0000
  35   5  -1    1303     113                                                        1380   -1.05    8.05  1.0000
  35  -5  -1    1409     150                                                        1465   -0.74   -5.84  1.0000
  35   5   1    1254     112                                                        1326   -0.01   -5.47  1.0000
  35   5   3     765      98                                                        1002   -7.87   -2.76  1.0000
  35  -5  -3    1031     150                                                        1271   -6.68   -4.05  1.0000
  35   5   5     662      86                                                         698   -0.56    1.33  1.0000
  35   5   7     940      70                                                         975   -3.91    5.42  1.0000
  35  -5  -7    1103     147                                                        1121   -3.84    6.71  1.0000
  35  -5  -9    1590     141                                                        1760    0.11   14.96  1.0000
  35  -5 -11     662     128                                                        1082    8.11  -24.46  1.0000
  35  -5 -13     828     108                                                        1086    7.23    6.58  1.0000
  35  -5 -15      98      79                                                         220   22.13    6.81  1.0000
  17 -35   7     536      79                                                         601    6.36    7.01  1.0000
  35   7 -17     724      61                                                         783    6.07    8.23  1.0000
  15 -35   7    1451     118                                                        1728   -7.03   -3.57  1.0000
  35   7 -15    1796      93                                                        2126   -7.56   -3.06  1.0000
  35   7 -13     910      91                                                         850    9.32  -39.99  1.0000
  35  -7  11      28      68                                                          87   -0.57   14.61  1.0000
  35   7  -9    1800     117                                                        1973    0.72   -5.52  1.0000
  35   7  -7    6664     247                                                        8457  -21.21  -10.02  1.0000
  35   7  -5    1245     126                                                        2108   21.46   10.00  1.0000
  35   7  -3     451     105                                                         660    2.59  -21.66  1.0000
  35   7  -1     756     101                                                         718    9.21  -20.37  1.0000
  35   7   1    1005      99                                                         976    9.19   20.06  1.0000
  35  -7  -1    1007     150                                                         972    9.50   20.15  1.0000
  35   7   3     315      85                                                         450    1.49   21.47  1.0000
  35   7   5    1040      91                                                        1791   20.17  -12.78  1.0000
  35  -7  -5    1422     158                                                        2291   20.13  -13.94  1.0000
  35  -7  -7    9880     347                                                       12016  -20.93   10.52  1.0000
  35  -7  -9    2560     155                                                        2744    0.79    5.04  1.0000
  35  -7 -11     157     114                                                         319   -0.61  -14.74  1.0000
  35  -7 -13     717      91                                                         622    8.65   40.72  1.0000
  35  -7 -15    2039      94                                                        2447   -8.78    2.41  1.0000
  17 -35   9     174      74                                                         248   -5.21   -0.83  1.0000
  35   9 -17     312      53                                                         410   -5.18   -1.18  1.0000
  35   9 -15     588      66                                                         430   -4.87    7.63  1.0000
  15 -35   9     471      98                                                         337   -4.06    7.14  1.0000
  35   9 -13     219      77                                                         266    3.01   13.70  1.0000
  35   9  -9      93      89                                                         163   -0.70   17.03  1.0000
  35   9  -7    3166     118                                                        2438   18.90   -1.63  1.0000
  35   9  -5    1910     100                                                        1494  -12.36   -6.83  1.0000
  35   9  -3    4684     139                                                        3760   23.02   18.99  1.0000
  35   9  -1    1201      94                                                         940   22.37  -36.24  1.0000
  35   9   1    1367      88                                                        1116   23.43   37.69  1.0000
  35   9   3    5843     148                                                        4854   22.92  -19.81  1.0000
  35  -9  -5    1015     142                                                         710  -12.75    7.98  1.0000
  35  -9  -7    2732     158                                                        2040   19.71    2.03  1.0000
  35  -9  -9      37     118                                                          37   -0.96  -15.28  1.0000
  35  -9 -11    1947     120                                                        1983   -1.69    2.68  1.0000
  35  -9 -13     152      84                                                         181    2.78  -12.39  1.0000
  15 -35  11    1086     100                                                         963  -10.55    0.41  1.0000
  35  11 -15    1012      63                                                         887  -11.05    0.42  1.0000
  35  11 -11    9988     310                                                       11591  -17.41   25.84  1.0000
  35  11  -9      84      83                                                          67   -5.08   -4.51  1.0000
  35 -11   7     251     100                                                         413   -4.55    8.63  1.0000
  35  11  -7     171      82                                                         311   -3.71    8.97  1.0000
  35  11  -5    4356     134                                                        3800    5.14   -8.60  1.0000
  35 -11   5    4319     162                                                        3813    4.46   -8.23  1.0000
  35  11  -3    1677      97                                                        1903   -2.79    7.45  1.0000
  35 -11   3    1683     138                                                        1933   -3.20    7.89  1.0000
  35  11  -1     491      81                                                         498   -0.97   16.13  1.0000
  35  11   1     602      74                                                         594   -1.88  -15.91  1.0000
  35  11   3    3004     107                                                        3355   -2.69   -9.81  1.0000
  35 -11  -5    5417     188                                                        4773    6.06    7.75  1.0000
  35 -11  -7     240     125                                                         414   -3.05   -9.67  1.0000
  35 -11  -9     479     108                                                         475   -6.45    4.06  1.0000
  35 -11 -11   10591     332                                                       12250  -17.51  -27.35  1.0000
  35 -11 -13    1198      69                                                        1021    0.32   -5.50  1.0000
  15 -35  13     875      91                                                        1135   -8.44    3.28  1.0000
  35  13 -15    1023      58                                                        1308   -8.93    2.98  1.0000
  35  13 -11     365      66                                                         172    8.30   11.26  1.0000
  35  13  -9    2993      94                                                        2369  -16.98   -2.87  1.0000
  35 -13   9    3003     106                                                        2384  -16.64   -2.64  1.0000
  35  13  -7    2571     101                                                        2549   -0.14  -15.25  1.0000
  35 -13   7    2729     124                                                        2674    0.52  -15.33  1.0000
  35 -13   5    1169     113                                                         824   -8.08    7.90  1.0000
  35  13  -5    1114      75                                                         768   -8.94    7.43  1.0000
  35 -13   3    1139     122                                                        1096    4.21   -0.04  1.0000
  35  13  -3    1192      80                                                        1178    3.02   -0.60  1.0000
  35  13  -1    3484     120                                                        3712   -8.90    8.48  1.0000
  35 -13   1    3444     164                                                        3688   -9.07    8.13  1.0000
  35  13   1    2988     104                                                        3195   -9.39   -9.48  1.0000
  35 -13  -5     917     118                                                         617   -8.28   -7.49  1.0000
  35 -13  -7    5545     187                                                        5488    0.57   16.06  1.0000
  35 -13  -9    3384     121                                                        2710  -17.33    3.01  1.0000
  35 -13 -11     576      70                                                         339    7.57  -11.50  1.0000
  35  15 -11      40      50                                                          94    8.39  -17.59  1.0000
  35  15  -9    1397      72                                                        1512   -2.67    5.70  1.0000
  35 -15   9    1367      84                                                        1457   -3.04    5.20  1.0000
  35  15  -7    5273     183                                                        6645  -22.15  -15.96  1.0000
  35 -15   7    5105     195                                                        6434  -21.98  -16.38  1.0000
  35 -15   5     547      97                                                         681    9.44  -11.91  1.0000
  35  15  -5     459      64                                                         570    9.08  -11.96  1.0000
  35  15  -3    1254      66                                                         975   -3.18   -8.02  1.0000
  35 -15   3    1373     107                                                        1057   -2.80   -8.88  1.0000
  35  15  -1    3752      86                                                        2601   19.04    9.85  1.0000
  35 -15  -5    1430     112                                                        1672    9.62   12.77  1.0000
  35 -15  -7    4604     179                                                        5807  -20.99   15.41  1.0000
  35 -15  -9    1459      87                                                        1590   -3.19   -6.47  1.0000
  35 -17   9     698      65                                                         449  -10.29   -3.03  1.0000
  35 -17   7     417      68                                                         299   -2.36    6.47  1.0000
  35  17  -5     808      54                                                        1113   -3.93   -9.32  1.0000
  35 -17   5     842      94                                                        1133   -2.85   -9.11  1.0000
  35 -17   3    1454     107                                                        1776   -8.39    4.26  1.0000
  35 -17  -5    2537     115                                                        3081   -3.04   10.13  1.0000
  35 -17  -7    1097      72                                                         903   -2.71   -6.43  1.0000
  35 -19   5     395      73                                                         450    4.07    0.39  1.0000
  35 -19  -3     701      63                                                         660   -2.15    3.74  1.0000
  36   0   0   21085     533                                                       20178   -6.48   -0.43  1.0000
  36   0  -2     801     120                                                         903    3.58    0.43  1.0000
  36   0   2     774     106                                                         910    4.82    1.42  1.0000
  36   0  -4    1309     128                                                        1352   -1.21   -1.37  1.0000
  36   0   4    1276     100                                                        1315   -1.12   -0.36  1.0000
  36   0  -6    6090     168                                                        4315  -25.35    2.02  1.0000
  36   0   6    6458     150                                                        4691  -24.35    2.73  1.0000
  36   0   8    2681      97                                                        2611   -1.41   -0.09  1.0000
  36   0 -10    2825     166                                                        4678  -31.28   -0.57  1.0000
  36   0 -12    5252     146                                                        3948   19.77   -0.08  1.0000
  36   0 -14    3169     109                                                        2575  -11.38   -0.24  1.0000
  36   0 -16     588      66                                                         974   14.25    0.66  1.0000
  36   2 -16    1064      66                                                         883   -0.78   17.15  1.0000
  36   2 -14    1035      85                                                        1172  -16.28    0.55  1.0000
  14 -36   2     656      72                                                         757  -15.97    0.78  1.0000
  36   2 -12    2013     104                                                        2137   -6.60   13.11  1.0000
  12 -36   2    1395      94                                                        1483   -6.90   13.21  1.0000
  36   2 -10    1344     109                                                        1132   -3.75   -7.24  1.0000
  36  -2   8     114      73                                                          90    4.39    2.14  1.0000
  36  -2   6    1014      96                                                         875  -10.90    5.46  1.0000
  36   2  -6     897     119                                                         809   -9.19    5.99  1.0000
  36   2  -4      19     109                                                          41  -10.23   18.38  1.0000
  36  -2   4      20     101                                                         178  -10.15   17.90  1.0000
  36   2  -2     517     113                                                         467   -5.05   -1.72  1.0000
  36  -2   2     683     114                                                         614   -5.69   -1.68  1.0000
  36   2   0     103     100                                                         145   -3.89    0.62  1.0000
  36  -2   0      15     117                                                          40   -5.15   -1.10  1.0000
  36  -2  -2    1257     128                                                        1251   -5.00    4.45  1.0000
  36   2   2    1170     106                                                        1108   -5.99    3.04  1.0000
  36   2   4     103      90                                                         -45  -10.82  -17.83  1.0000
  36  -2  -4      47     120                                                          11  -10.60  -17.53  1.0000
  36   2   6     498      75                                                         358  -11.38   -3.10  1.0000
  36  -2  -8    1087     118                                                        1031    3.72   -1.76  1.0000
  36  -2 -10     353     108                                                         253   -4.56    4.33  1.0000
  36  -2 -12    1110     103                                                        1167   -7.50  -13.18  1.0000
  36  -2 -14     774      85                                                         912  -16.42   -1.49  1.0000
  36  -2 -16    1352      66                                                        1130   -1.29  -18.28  1.0000
  36   4 -16    1563      72                                                        1412   -9.04    8.79  1.0000
  36   4 -14    3116     124                                                        4071  -16.22   -2.43  1.0000
  14 -36   4    2377     129                                                        3175  -15.46   -2.17  1.0000
  36   4 -12    7649     170                                                        6202  -18.19    0.80  1.0000
  12 -36   4    5702     173                                                        4502  -17.69    0.31  1.0000
  36  -4  10    1567      69                                                        1323   -8.07    4.57  1.0000
  36  -4   8    3463     125                                                        3667   -3.74   -1.05  1.0000
  36   4  -8    3217     143                                                        3378   -3.13   -1.13  1.0000
  36  -4   6     891     105                                                        1472  -10.97   13.87  1.0000
  36   4  -6     818     117                                                        1436  -12.21   14.89  1.0000
  36  -4   4    7803     216                                                        7196   -2.01  -10.08  1.0000
  36   4  -4    7421     214                                                        6796   -1.20  -12.12  1.0000
  36  -4   2    4848     179                                                        5263   -5.59   15.26  1.0000
  36   4  -2    4471     173                                                        4867   -4.43   14.00  1.0000
  36  -4   0    5623     190                                                        5572    0.70    0.36  1.0000
  36   4   0    4988     169                                                        4996   -0.13   -0.05  1.0000
  36  -4  -2    3040     155                                                        3372   -5.83  -15.85  1.0000
  36   4   2    2691     126                                                        3019   -5.50  -15.99  1.0000
  36  -4  -4    4254     162                                                        3794   -2.03   10.40  1.0000
  36   4   4    4649     138                                                        4174   -1.90   10.43  1.0000
  36   4   6     586      72                                                        1064  -11.25  -13.27  1.0000
  36  -4  -8    2136     136                                                        2284   -3.65    2.00  1.0000
  36  -4 -10    2470     123                                                        2206   -7.64   -6.48  1.0000
  36  -4 -12    8581     210                                                        7048  -18.11   -0.94  1.0000
  36  -4 -14    4166     159                                                        5209  -15.51    2.30  1.0000
  36   6 -16     802      64                                                        1178   -8.26   18.35  1.0000
  14 -36   6    1155      88                                                         908    6.23  -10.39  1.0000
  36   6 -14    1662      79                                                        1377    6.32  -10.14  1.0000
  36   6 -12     291      80                                                         223   -0.88    7.29  1.0000
  36  -6  10     864      72                                                        1109  -13.34   -5.98  1.0000
  36   6  -8    1093     102                                                        1116  -16.78  -16.84  1.0000
  36  -6   8    1178      91                                                        1215  -15.98  -16.48  1.0000
  36   6  -6    5414     160                                                        4869   -0.85   11.07  1.0000
  36  -6   6    5265     160                                                        4643   -1.93   11.73  1.0000
  36   6  -4    2324     117                                                        2149   15.23  -27.24  1.0000
  36  -6   4    2474     121                                                        2264   16.81  -28.80  1.0000
  36   6  -2     362      94                                                         345   -8.79   -5.94  1.0000
  36  -6   2     322     110                                                         294   -8.08   -4.85  1.0000
  36   6   0     804      94                                                         691    4.26   -1.00  1.0000
  36  -6   0     788     126                                                         661    4.87   -0.77  1.0000
  36   6   2     206      87                                                         194   -9.17    6.93  1.0000
  36  -6  -2     309     130                                                         297   -8.39    6.20  1.0000
  36   6   4    3205     108                                                        3022   15.71   27.41  1.0000
  36  -6  -6    5633     184                                                        4933   -2.34  -12.52  1.0000
  36  -6  -8    2112     131                                                        2197  -16.67   16.73  1.0000
  36  -6 -10    1371     120                                                        1684  -13.72    6.64  1.0000
  36  -6 -12     275      89                                                         201   -1.45   -7.46  1.0000
  36  -6 -14    1021      70                                                         799    6.83   10.22  1.0000
  36   8 -16     230      50                                                         362  -21.94   -1.01  1.0000
  36   8 -14      47      62                                                         101  -15.91   -8.18  1.0000
  14 -36   8      38      80                                                          33  -16.96   -7.81  1.0000
  36   8 -10    2971     129                                                        3815  -13.54    8.21  1.0000
  36  -8  10    2827     119                                                        3644  -13.48    7.89  1.0000
  36   8  -8    2054     102                                                        1811  -17.88    9.59  1.0000
  36  -8   8    2087      97                                                        1839  -18.15    9.67  1.0000
  36   8  -6     108      84                                                         157   15.71  -22.44  1.0000
  36  -8   6     101      96                                                         116   16.09  -22.92  1.0000
  36   8  -4    7674     238                                                        8182   -5.90    1.16  1.0000
  36  -8   4    8346     248                                                        8911   -7.03   -0.39  1.0000
  36   8  -2     226      85                                                         217   -0.98   -7.64  1.0000
  36  -8   2     302     115                                                         287   -1.27   -6.78  1.0000
  36   8   0     245      84                                                         294   -3.02    1.13  1.0000
  36  -8   0     357     123                                                         403   -2.30    1.80  1.0000
  36   8   2     306      71                                                         290   -2.05   11.41  1.0000
  36  -8  -2     288     124                                                         280   -1.46   11.12  1.0000
  36   8   4    7146     206                                                        7574   -4.66   -2.12  1.0000
  36  -8  -6     426     132                                                         762   16.47   22.37  1.0000
  36  -8  -8    2558     136                                                        2338  -17.22  -10.18  1.0000
  36  -8 -10    4229     171                                                        5233  -13.72   -7.73  1.0000
  36  -8 -12     864      83                                                         998    2.65   19.32  1.0000
  14 -36  10    5384     205                                                        6665  -16.79    4.25  1.0000
  36  10 -14    5882     193                                                        7265  -17.03    5.05  1.0000
  36  10 -10     523      72                                                         502  -14.24    0.76  1.0000
  36 -10  10     398      61                                                         381  -13.46    0.26  1.0000
  36  10  -8    3073     115                                                        3257   -6.87    6.74  1.0000
  36  10  -6    2578     105                                                        2627   -0.43    2.03  1.0000
  36  10  -4    2071      90                                                        1805  -21.27    6.26  1.0000
  36  10  -2      14      75                                                         -31    4.11    6.55  1.0000
  36  10   0    7227     188                                                        6661    6.96    0.91  1.0000
  36  10   2      82      57                                                         115    3.89   -4.82  1.0000
  36 -10  -4    4601     164                                                        4287  -21.80   -5.82  1.0000
  36 -10  -6    5001     179                                                        5041    0.25   -2.85  1.0000
  36 -10  -8    4015     154                                                        4234   -7.82   -8.67  1.0000
  36 -10 -10     618      89                                                         600  -14.18   -0.70  1.0000
  36 -10 -12     403      65                                                         367   -4.32   -1.26  1.0000
  36  12 -12     620      57                                                         706    5.46    4.57  1.0000
  36 -12  10     695      58                                                         624    0.47   -3.84  1.0000
  36  12 -10     820      63                                                         727    0.16   -4.35  1.0000
  36  12  -8    1599      75                                                        1460    1.30   -4.75  1.0000
  36  12  -6    1418      79                                                        1498   -1.54   -6.85  1.0000
  36  12  -4     438      66                                                         328    2.56    5.39  1.0000
  36  12  -2    2216      97                                                        2737  -15.48    0.85  1.0000
  36  12   0     849      68                                                        1346  -15.50    0.72  1.0000
  36 -12  -4      75     106                                                          31    2.81   -5.85  1.0000
  36 -12  -6    1232     110                                                        1313   -1.61    8.11  1.0000
  36 -12  -8    2522     107                                                        2321    1.47    5.56  1.0000
  36 -12 -10     939      73                                                         837   -0.29    4.12  1.0000
  36  14 -10    3801     126                                                        4444  -10.09   -2.32  1.0000
  36  14  -8      61      51                                                          67  -19.44  -13.30  1.0000
  36  14  -6    1030      61                                                         873  -10.69    9.03  1.0000
  36  14  -4    4319     138                                                        4795   -8.46    7.08  1.0000
  36  14  -2    1315      58                                                        1031   13.23   12.36  1.0000
  36 -14  -2    1349     100                                                        1055   13.72  -12.86  1.0000
  36 -14  -4    6935     220                                                        7496   -8.13   -8.43  1.0000
  36 -14  -6     448      84                                                         327  -11.23   -9.37  1.0000
  36 -14  -8      61      66                                                          74  -18.95   12.09  1.0000
  36 -16  -2    1301      89                                                        1476    5.31    3.46  1.0000
  36 -16  -4     344      71                                                         448   -6.04  -11.91  1.0000
  36 -16  -6    2736      82                                                        1913   -6.68   17.99  1.0000
  37   1 -15     655      55                                                         691   -0.52    8.38  1.0000
  37   1 -13    1036      78                                                        1110  -13.92   -0.44  1.0000
  37   1 -11     448      83                                                         580    6.92    2.28  1.0000
  37  -1   7    2169      88                                                        2170   -0.92  -19.87  1.0000
  37   1  -5    1187     107                                                         918    6.86   -5.56  1.0000
  37  -1   5    1180      84                                                         902    7.81   -4.27  1.0000
  37   1  -3    2267     119                                                        2245   30.03   -2.86  1.0000
  37  -1   3    2328     110                                                        2337   30.86   -2.38  1.0000
  37   1  -1    1023     105                                                         997    1.09   -0.28  1.0000
  37  -1   1    1089      99                                                        1051    0.77   -0.92  1.0000
  37   1   1    2848     119                                                        2770    2.43    0.17  1.0000
  37  -1  -1    2939     127                                                        2897    1.04    0.26  1.0000
  37   1   3    3657     132                                                        3687   30.25    2.94  1.0000
  37  -1  -3    3735     149                                                        3779   28.13    2.25  1.0000
  37   1   5     530      70                                                         353    7.66    4.09  1.0000
  37  -1  -5     706     108                                                         507    7.96    2.56  1.0000
  37   1   7     784      59                                                         736   -0.68   20.77  1.0000
  37  -1  -9    1062     103                                                        1495   -5.07  -11.90  1.0000
  37  -1 -11     319      88                                                         414    6.21   -2.80  1.0000
  37  -1 -13      96      69                                                          85  -12.51    0.19  1.0000
  37   3 -15      66      54                                                         206    3.74   13.36  1.0000
  37   3 -13      78      68                                                         152   -7.27    2.78  1.0000
  37   3 -11    3414     110                                                        3558   -2.10   -5.84  1.0000
  11 -37   3    2349     103                                                        2457   -1.95   -5.11  1.0000
  37  -3   7     870      71                                                         602  -12.14   14.97  1.0000
  37   3  -7    1056      98                                                         738  -12.98   14.55  1.0000
  37   3  -5    1983     113                                                        2319    4.04   -7.75  1.0000
  37  -3   5    1866     103                                                        2203    4.04   -7.99  1.0000
  37  -3   3     600      95                                                         805  -13.27   17.36  1.0000
  37   3  -3     531      98                                                         697  -12.22   15.57  1.0000
  37  -3   1      15      95                                                          15   -5.17   -1.51  1.0000
  37   3  -1       7      86                                                         -67   -5.32   -1.33  1.0000
  37  -3  -1      69     109                                                          82   -6.90    2.37  1.0000
  37   3   1     129      82                                                         147   -6.02    2.00  1.0000
  37  -3  -3      88      99                                                          65  -13.26  -17.29  1.0000
  37   3   3     123      77                                                         130  -12.77  -18.20  1.0000
  37   3   5     587      67                                                         801    3.10    8.67  1.0000
  37  -3  -9    1281     100                                                        1219   15.74   -1.25  1.0000
  37  -3 -11    3968     140                                                        4119   -2.12    4.64  1.0000
  37  -3 -13       1      66                                                          17   -7.87   -2.61  1.0000
  37   5 -13     300      60                                                         280  -14.25   -0.54  1.0000
  37   5 -11      73      75                                                           9    2.21  -23.55  1.0000
  11 -37   5       7      71                                                          88    1.79  -22.52  1.0000
  37  -5   9     913      56                                                         862   -4.22  -17.01  1.0000
  37   5  -7     401      82                                                         514   -7.56    5.27  1.0000
  37  -5   7     327      72                                                         402   -7.96    3.89  1.0000
  37  -5   5    2162     100                                                        1887   29.53   -6.00  1.0000
  37   5  -5    2049     100                                                        1778   29.64   -5.97  1.0000
  37   5  -3     279      85                                                         153    2.90  -46.86  1.0000
  37  -5   3     316      94                                                          85    3.47  -47.05  1.0000
  37  -5   1     105     101                                                          59   12.43   23.99  1.0000
  37   5  -1     114      82                                                         133   12.84   24.69  1.0000
  37  -5  -1     132     106                                                           6   12.02  -23.54  1.0000
  37   5   1      99      75                                                          49   11.04  -23.64  1.0000
  37  -5  -3     322     109                                                         567    3.40   48.21  1.0000
  37   5   3     289      70                                                         439    3.13   47.21  1.0000
  37   5   5    2275      78                                                        2003   29.35    5.91  1.0000
  37  -5  -7     309     104                                                         371   -7.57   -3.37  1.0000
  37  -5  -9    1113     100                                                        1080   -4.25   18.96  1.0000
  37  -5 -11       8      79                                                          79    2.61   22.74  1.0000
  37  -5 -13     101      63                                                          64  -12.68    1.24  1.0000
  37   7 -13     184      54                                                         116   17.04    4.45  1.0000
  11 -37   7     685      75                                                         687   -5.70   -8.48  1.0000
  37   7  -9    1502      81                                                        1435   -3.66   -2.26  1.0000
  37  -7   9    1282      66                                                        1247   -2.11   -1.33  1.0000
  37   7  -7     655      78                                                         488   16.85    7.48  1.0000
  37  -7   7     600      73                                                         447   16.59    7.82  1.0000
  37   7  -5    1470      89                                                        1603    3.33   -3.32  1.0000
  37  -7   5    1534      97                                                        1669    3.22   -4.43  1.0000
  37   7  -3     978      89                                                        1530   11.23  -23.48  1.0000
  37  -7   3    1014     107                                                        1612   12.32  -22.86  1.0000
  37   7  -1     653      80                                                        1004   10.49    8.90  1.0000
  37  -7   1     636     109                                                         995   10.31   10.48  1.0000
  37   7   1     210      66                                                         423   10.69   -8.32  1.0000
  37  -7  -1     210     111                                                         431   10.78   -9.47  1.0000
  37   7   3    1280      77                                                        1955   12.10   23.55  1.0000
  37  -7  -7    2618     119                                                        2352   16.72   -7.47  1.0000
  37  -7  -9    2006     104                                                        1970   -2.85    2.80  1.0000
  37  -7 -11    1442      86                                                        1461   -5.61    8.58  1.0000
  37   9 -13    1682      64                                                        1537   -7.81   13.92  1.0000
  37   9 -11    3004      95                                                        2824   -2.49  -11.78  1.0000
  37  -9   9    1687      72                                                        1579  -17.11   27.76  1.0000
  37   9  -9    1949      81                                                        1856  -16.56   27.06  1.0000
  37  -9   7    2021      94                                                        2330    3.78  -11.21  1.0000
  37   9  -7    2066      94                                                        2365    3.53  -11.06  1.0000
  37   9  -5     758      76                                                        1138    5.24  -11.80  1.0000
  37  -9   5     807      86                                                        1198    5.28  -11.79  1.0000
  37   9  -3    1016      74                                                        1080    3.34  -11.98  1.0000
  37  -9   3    1157      95                                                        1213    2.86  -11.35  1.0000
  37   9  -1     486      66                                                         681    4.79   -6.84  1.0000
  37  -9   1     637      96                                                         847    4.29   -6.70  1.0000
  37   9   1     799      65                                                        1030    4.40    6.54  1.0000
  37  -9  -1    1202     110                                                        1505    4.50    7.19  1.0000
  37  -9  -5    1346     112                                                        1885    7.05   11.90  1.0000
  37  -9  -7    2956     131                                                        3331    4.07   10.27  1.0000
  37  -9  -9    1915      95                                                        1865  -16.53  -28.92  1.0000
  37  -9 -11    2522      91                                                        2364   -2.33   10.97  1.0000
  37  11 -11     473      49                                                         376    4.60    8.68  1.0000
  37  11  -9     160      52                                                         210    9.47  -12.25  1.0000
  37 -11   7     815      68                                                        1033    6.70   15.02  1.0000
  37  11  -7     856      63                                                        1071    6.44   14.63  1.0000
  37 -11   5    1463      86                                                        1546    4.34   -1.92  1.0000
  37  11  -5    1107      68                                                        1217    4.91   -0.80  1.0000
  37  11  -3     772      57                                                         497   -6.61  -15.05  1.0000
  37 -11   3     859      84                                                         564   -6.47  -15.25  1.0000
  37 -11   1    4275     133                                                        4158   -3.41   -1.70  1.0000
  37  11  -1    3527     109                                                        3426   -3.50   -1.97  1.0000
  37  11   1    5972     162                                                        5953   -2.02    2.46  1.0000
  37 -11  -3     675      95                                                         437   -6.86   14.11  1.0000
  37 -11  -5    1519      99                                                        1601    4.54    2.28  1.0000
  37 -11  -7    2104     106                                                        2449    6.22  -14.30  1.0000
  37 -11  -9      96      64                                                         143   11.09   11.33  1.0000
  37  13  -9    1885      67                                                        1900   -1.52   -6.03  1.0000
  37 -13   7     705      56                                                         703   -4.90   -1.77  1.0000
  37  13  -7     736      50                                                         739   -4.21   -1.74  1.0000
  37 -13   5    1822      81                                                        1860    1.04    2.66  1.0000
  37  13  -5    1549      65                                                        1559    0.42    2.92  1.0000
  37 -13   3    1338      83                                                        1599    5.34   -4.63  1.0000
  37  13  -3     963      58                                                        1181    5.63   -3.90  1.0000
  37 -13   1     552      80                                                         736    0.84   -8.13  1.0000
  37 -13  -3    1053      86                                                        1272    6.41    2.18  1.0000
  37 -13  -5    1030      79                                                        1059    1.10   -3.72  1.0000
  37 -13  -7     739      65                                                         754   -4.11    2.22  1.0000
  37 -15   5    1589      63                                                        1233  -10.08   -0.25  1.0000
  37 -15   3    2193      89                                                        2399   -0.12    9.88  1.0000
  37 -15  -1    1181      68                                                         861   -6.01    8.62  1.0000
  37 -15  -3    3607     123                                                        3886    0.30   -9.48  1.0000
  38   0   0     436      79                                                         400    1.82    0.32  1.0000
  38   0   2     103      71                                                           0   21.63   -0.39  1.0000
  38   0  -2     104      82                                                         -60   20.87   -1.38  1.0000
  38   0  -4     210      87                                                         139   -5.64    2.38  1.0000
  38   0   4     269      60                                                         195   -5.10    2.01  1.0000
  38   0  -6     698      82                                                         896   -7.20   -0.58  1.0000
  38   0   6     433      54                                                         569   -6.22    0.50  1.0000
  38   0 -10    2708      89                                                        2009  -14.80    0.12  1.0000
  38   0 -12     465      61                                                         473   -0.35    0.03  1.0000
  38   2 -12      49      56                                                          19   -2.49    7.06  1.0000
  38   2 -10     191      66                                                         121    6.87   13.85  1.0000
  38  -2   6      35      53                                                         170    0.09  -15.25  1.0000
  38   2  -6      13      78                                                         103    0.97  -14.71  1.0000
  38   2  -4    3209     118                                                        3239   -2.24    0.47  1.0000
  38  -2   4    3025     108                                                        3042   -2.55    0.86  1.0000
  38   2  -2    2968      96                                                        2027   14.96   12.81  1.0000
  38  -2   2    2869      94                                                        1954   13.82   14.41  1.0000
  38   2   0    1345      86                                                        1520   -4.73   -1.02  1.0000
  38  -2   0    1351      95                                                        1548   -5.33   -1.03  1.0000
  38   2   2    1731      73                                                        1027   14.66  -13.66  1.0000
  38  -2  -2    1948      95                                                        1207   14.34  -13.56  1.0000
  38   2   4    2013      83                                                        2090   -2.81    0.60  1.0000
  38  -2  -4    2462     106                                                        2543   -3.66    0.09  1.0000
  38  -2  -8     183      81                                                         311  -11.91   -9.92  1.0000
  38  -2 -10     228      73                                                         154    6.62  -13.64  1.0000
  38  -2 -12      62      58                                                          22   -2.47   -8.56  1.0000
  38   4 -12    1156      68                                                        1510   -8.40   -5.36  1.0000
  38   4  -8      58      67                                                         184  -15.51   -1.25  1.0000
  38   4  -6    1059      76                                                         773  -10.06   -0.95  1.0000
  38  -4   6     944      63                                                         686   -9.66   -0.84  1.0000
  38   4  -4    3867     118                                                        3459    8.16   -3.88  1.0000
  38  -4   4    3826     115                                                        3385    8.40   -2.38  1.0000
  38  -4   2     135      75                                                          53  -14.06    2.16  1.0000
  38   4  -2     126      72                                                          50  -14.24    3.25  1.0000
  38   4   0    1174      86                                                        1686   13.96   -0.58  1.0000
  38  -4   0    1171      98                                                        1668   13.58   -0.08  1.0000
  38  -4  -2     154      85                                                          80  -14.71   -4.91  1.0000
  38   4   2     196      60                                                         107  -14.84   -3.59  1.0000
  38   4   4    2232      74                                                        1908    8.47    3.64  1.0000
  38  -4  -4    2963     106                                                        2582    8.53    3.32  1.0000
  38  -4  -8      12      78                                                          51  -15.11    0.29  1.0000
  38  -4 -10    2346      95                                                        2325    0.42    2.85  1.0000
  38  -4 -12    1483      76                                                        1862   -8.29    4.67  1.0000
  38   6 -12     630      48                                                         402  -14.13  -15.44  1.0000
  38   6  -8     906      67                                                         940   -1.77    0.08  1.0000
  38   6  -6     178      68                                                         260   -0.88   -6.26  1.0000
  38  -6   6     179      61                                                         261   -1.49   -5.78  1.0000
  38   6  -4     200      65                                                         304   10.70    5.49  1.0000
  38  -6   4     260      73                                                         381   10.34    4.65  1.0000
  38  -6   2     973      85                                                        1183   12.04   -6.93  1.0000
  38   6  -2     973      73                                                        1202   11.56   -7.47  1.0000
  38   6   0      28      60                                                         214   19.19    0.72  1.0000
  38  -6   0      12      82                                                         175   20.13    0.20  1.0000
  38   6   2     678      55                                                         847   12.83    6.90  1.0000
  38  -6  -2     976      96                                                        1147   12.02    5.73  1.0000
  38  -6  -6     547      84                                                         670   -0.68    5.60  1.0000
  38  -6  -8    2425     102                                                        2448   -0.87   -0.16  1.0000
  38  -6 -10      21      62                                                          71  -19.39    5.57  1.0000
  38   8 -10    2080      64                                                        1482  -17.98   -8.81  1.0000
  38   8  -8    1180      59                                                         909    8.47   -2.15  1.0000
  38  -8   6     662      60                                                         703   -2.96    0.74  1.0000
  38   8  -6     719      61                                                         761   -3.87    0.39  1.0000
  38   8  -4    2434      86                                                        2302   -8.06    0.06  1.0000
  38  -8   4    2423      94                                                        2321   -7.80    0.62  1.0000
  38   8  -2     727      58                                                         722    7.50   -0.34  1.0000
  38  -8   2     855      82                                                         886    9.11    0.74  1.0000
  38   8   0     684      51                                                         558   -5.22    1.09  1.0000
  38  -8   0     807      81                                                         646   -6.15    1.07  1.0000
  38   8   2     268      41                                                         265    8.79   -0.07  1.0000
  38  -8  -2     426      80                                                         428    9.13   -0.05  1.0000
  38  -8  -6     309      77                                                         343   -4.33   -0.67  1.0000
  38  -8  -8    1211      71                                                         896   10.10   -0.27  1.0000
  38  10  -8     831      49                                                         727   -5.84   -6.74  1.0000
  38 -10   6     555      57                                                         618    2.97   -0.65  1.0000
  38  10  -6     484      48                                                         531    3.70    1.01  1.0000
  38  10  -4     102      48                                                         126    2.49   -3.45  1.0000
  38 -10   4     161      62                                                         191    1.82   -3.10  1.0000
  38  10  -2     111      42                                                         120   -0.36   -5.95  1.0000
  38 -10   2     113      70                                                         116   -1.28   -6.87  1.0000
  38 -10   0     444      77                                                         225  -12.72    4.85  1.0000
  38 -10  -4     559      74                                                         641    1.08    3.98  1.0000
  38 -10  -6     397      66                                                         454    4.28   -0.64  1.0000
  38 -10  -8     103      57                                                          61   -5.69    7.24  1.0000
  38 -12   4     236      56                                                         147    0.88    7.78  1.0000
  38 -12   2     456      61                                                         289  -12.12   -0.76  1.0000
  38 -12   0     402      63                                                         247    8.97    1.39  1.0000
  38 -12  -4     172      60                                                          87    0.04   -8.43  1.0000
  39   1  -7     739      78                                                        1681   27.82  -11.42  1.0000
  39   1  -5    2293     105                                                        3024   -6.78   14.23  1.0000
  39   1  -3    1440      74                                                        1211    7.63   -7.74  1.0000
  39  -1   3    1305      62                                                        1111    7.50   -6.95  1.0000
  39   1  -1    1794      88                                                        2264   11.40   -1.51  1.0000
  39  -1   1    1728      87                                                        2176   10.51    0.96  1.0000
  39   1   1     622      62                                                         912   11.20    0.13  1.0000
  39  -1  -1     625      71                                                         912   11.06    0.10  1.0000
  39   1   3    1457      63                                                        1257    8.40    6.95  1.0000
  39  -1  -3    1794      80                                                        1551    7.40    7.35  1.0000
  39  -1  -5    1529      91                                                        2136   -6.54  -14.30  1.0000
  39  -1  -9    2589      80                                                        1988   -3.57  -12.77  1.0000
  39   3  -7    2496      84                                                        2222    2.19    5.65  1.0000
  39   3  -5     898      65                                                         955    7.37  -11.71  1.0000
  39  -3   5     849      52                                                         887    7.19  -12.92  1.0000
  39   3  -3    3862     125                                                        4374    8.14   -1.20  1.0000
  39  -3   3    3414     121                                                        3890    7.87   -1.84  1.0000
  39  -3   1      43      64                                                         108    2.90   -7.74  1.0000
  39   3  -1      54      58                                                         125    2.30   -7.89  1.0000
  39  -3  -1      34      67                                                         101    2.24    8.64  1.0000
  39   3   1      53      51                                                         134    1.99    8.87  1.0000
  39   3   3    2011      81                                                        2383    7.86    2.11  1.0000
  39  -3  -3    2646      99                                                        3095    8.34    2.13  1.0000
  39  -3  -5     246      67                                                         247    7.54   12.72  1.0000
  39  -3  -9     460      59                                                         642    8.68    5.01  1.0000
  39   5  -9     943      58                                                        1148   -2.52    6.97  1.0000
  39   5  -7     269      50                                                         136    9.06   -3.52  1.0000
  39   5  -5     353      55                                                         149   -4.52   12.80  1.0000
  39   5  -3    1458      62                                                        1108   -3.35  -10.69  1.0000
  39  -5   3    1354      62                                                        1017   -3.25  -10.70  1.0000
  39   5  -1     836      56                                                         894   -1.82    1.66  1.0000
  39  -5   1     860      66                                                         914   -1.51    3.01  1.0000
  39   5   1     808      51                                                         855   -1.60   -0.90  1.0000
  39  -5  -1    1119      72                                                        1199   -2.19   -1.89  1.0000
  39  -5  -3     548      70                                                         337   -4.35   11.01  1.0000
  39  -5  -7      25      61                                                         -15    9.14    4.65  1.0000
  39   7  -7    1063      64                                                        1565   14.30   -1.61  1.0000
  39   7  -5     861      54                                                        1035   -0.70  -11.25  1.0000
  39   7  -3     938      54                                                        1033   -2.15   -3.13  1.0000
  39  -7   3    1068      61                                                        1133   -1.02   -3.04  1.0000
  39  -7   1     119      57                                                          30    4.56  -29.67  1.0000
  39  -7  -1     173      64                                                         463    4.19   31.02  1.0000
  39  -7  -3     753      65                                                         803   -0.79    3.22  1.0000
  39  -7  -7     514      61                                                         889   14.68    1.71  1.0000
  39  -9   3     328      50                                                         442   -0.03   -6.08  1.0000
  39  -9   1     982      64                                                        1188   -3.68  -12.94  1.0000
  39  -9  -1    1804      78                                                        2039   -1.98   14.48  1.0000
  39  -9  -5    2505      89                                                        2661   -3.39   -4.03  1.0000
  40   0  -2      98      47                                                         248   12.01    0.02  1.0000
  40   0  -4    1030      62                                                        1406   11.08   -0.06  1.0000
  40   2  -4     930      52                                                         914    0.30   -4.16  1.0000
  40  -2   0      47      46                                                          38    1.38   -0.27  1.0000
  40  -2  -2     554      51                                                         575   -1.50    2.14  1.0000
  40  -2  -4     404      50                                                         405    0.96    4.32  1.0000
  40  -4  -2     179      47                                                         148    6.56   -7.32  1.0000
  40  -4  -4    2183      66                                                        1667   11.20    8.80  1.0000
   0   0   0      48       0                                                           0   11.20    8.80  1.0000
   0   0   0      48       0                                                           0   11.20    8.80  1.0000

;
_shelx_hkl_checksum              5339
loop_
_space_group_symop_operation_xyz
'x, y, z'
'z, x, y'
'y, z, x'
'-y, -z, x'
'z, -x, -y'
'-y, z, -x'
'-z, -x, y'
'-z, x, -y'
'y, -z, -x'
'-x, -y, z'
'x, -y, -z'
'-x, y, -z'
'x, y+1/2, z+1/2'
'z, x+1/2, y+1/2'
'y, z+1/2, x+1/2'
'-y, -z+1/2, x+1/2'
'z, -x+1/2, -y+1/2'
'-y, z+1/2, -x+1/2'
'-z, -x+1/2, y+1/2'
'-z, x+1/2, -y+1/2'
'y, -z+1/2, -x+1/2'
'-x, -y+1/2, z+1/2'
'x, -y+1/2, -z+1/2'
'-x, y+1/2, -z+1/2'
'x+1/2, y, z+1/2'
'z+1/2, x, y+1/2'
'y+1/2, z, x+1/2'
'-y+1/2, -z, x+1/2'
'z+1/2, -x, -y+1/2'
'-y+1/2, z, -x+1/2'
'-z+1/2, -x, y+1/2'
'-z+1/2, x, -y+1/2'
'y+1/2, -z, -x+1/2'
'-x+1/2, -y, z+1/2'
'x+1/2, -y, -z+1/2'
'-x+1/2, y, -z+1/2'
'x+1/2, y+1/2, z'
'z+1/2, x+1/2, y'
'y+1/2, z+1/2, x'
'-y+1/2, -z+1/2, x'
'z+1/2, -x+1/2, -y'
'-y+1/2, z+1/2, -x'
'-z+1/2, -x+1/2, y'
'-z+1/2, x+1/2, -y'
'y+1/2, -z+1/2, -x'
'-x+1/2, -y+1/2, z'
'x+1/2, -y+1/2, -z'
'-x+1/2, y+1/2, -z'
loop_
_atom_site_label
_atom_site_type_symbol
_atom_site_fract_x
_atom_site_fract_y
_atom_site_fract_z
_atom_site_U_iso_or_equiv
_atom_site_adp_type
_atom_site_occupancy
_atom_site_site_symmetry_order
_atom_site_calc_flag
_atom_site_refinement_flags_posn
_atom_site_refinement_flags_adp
_atom_site_refinement_flags_occupancy
_atom_site_disorder_assembly
_atom_site_disorder_group
Co1 Co 0.85924(4) 0.64076(4) 0.14076(4) 0.0255(5) Uani 1 3 d S T P . .
Co3 Co 0.86161(4) 0.63839(4) -0.13839(4) 0.0338(6) Uani 1 3 d S T P . .
Co2 Co 0.78135(4) 0.54603(4) 0.00401(4) 0.0304(4) Uani 1 1 d . . . . .
O1 O 0.82382(18) 0.5000 0.0000 0.0145(12) Uani 1 2 d S T P . .
O2 O 0.7448(2) 0.5000 0.0000 0.0350(18) Uani 1 2 d S T P . .
C17 C 0.8335(2) 0.5893(2) 0.0668(2) 0.0232(15) Uani 1 1 d . . . . .
N3 N 0.7358(2) 0.5946(2) 0.0055(2) 0.0301(14) Uani 1 1 d . . . . .
C15 C 0.8067(2) 0.5769(2) 0.1260(2) 0.0222(15) Uani 1 1 d . . . . .
C2 C 0.8256(2) 0.5816(3) -0.0749(3) 0.0293(17) Uani 1 1 d . . . . .
N4 N 0.80360(19) 0.56084(19) 0.05997(19) 0.0236(13) Uani 1 1 d . . . . .
C16 C 0.7872(2) 0.5534(2) 0.0973(2) 0.0224(15) Uani 1 1 d . . . . .
H16 H 0.7662 0.5354 0.1025 0.027 Uiso 1 1 d R U . . .
N5 N 0.83580(18) 0.59964(18) 0.10601(18) 0.0206(12) Uani 1 1 d . . . . .
C18 C 0.8599(2) 0.6046(3) 0.0333(2) 0.0279(16) Uani 1 1 d . . . . .
H18A H 0.8672 0.5824 0.0160 0.042 Uiso 1 1 d R U . . .
H18B H 0.8840 0.6165 0.0446 0.042 Uiso 1 1 d R U . . .
H18C H 0.8455 0.6247 0.0178 0.042 Uiso 1 1 d R U . . .
N2 N 0.7980(2) 0.58005(19) -0.0455(2) 0.0272(14) Uani 1 1 d . . . . .
C8 C 0.6893(2) 0.5940(3) 0.1064(3) 0.0315(17) Uani 1 1 d . . . . .
H8 H 0.6709 0.5732 0.1015 0.038 Uiso 1 1 d R U . . .
C13 C 0.7775(2) 0.6861(2) 0.1316(2) 0.0271(16) Uani 1 1 d . . . . .
H13A H 0.7680 0.7112 0.1195 0.033 Uiso 1 1 d R U . . .
H13B H 0.7780 0.6901 0.1608 0.033 Uiso 1 1 d R U . . .
C6 C 0.6997(3) 0.5994(3) 0.0319(3) 0.037(2) Uani 1 1 d . . . . .
H6A H 0.6822 0.6201 0.0203 0.044 Uiso 1 1 d R U . . .
H6B H 0.6846 0.5741 0.0324 0.044 Uiso 1 1 d R U . . .
C4 C 0.7771(3) 0.6163(3) -0.0479(3) 0.0324(17) Uani 1 1 d . . . . .
N6 N 0.8191(2) 0.6788(2) 0.1178(2) 0.0257(13) Uani 1 1 d . . . . .
C3 C 0.7942(3) 0.6390(3) -0.0776(3) 0.0340(18) Uani 1 1 d . . . . .
H3 H 0.7863 0.6650 -0.0852 0.041 Uiso 1 1 d R U . . .
C10 C 0.7237(2) 0.6362(2) 0.1535(2) 0.0274(16) Uani 1 1 d . . . . .
H10 H 0.7276 0.6448 0.1801 0.033 Uiso 1 1 d R U . . .
C9 C 0.6955(3) 0.6073(3) 0.1456(3) 0.0328(18) Uani 1 1 d . . . . .
H9 H 0.6802 0.5966 0.1667 0.039 Uiso 1 1 d R U . . .
C12 C 0.7400(2) 0.6411(2) 0.0822(2) 0.0278(16) Uani 1 1 d . . . . .
H12 H 0.7545 0.6528 0.0609 0.033 Uiso 1 1 d R U . . .
C14 C 0.8001(2) 0.5871(2) 0.1673(2) 0.0219(15) Uani 1 1 d . . . . .
H14 H 0.7819 0.5729 0.1836 0.026 Uiso 1 1 d R U . . .
C11 C 0.7473(2) 0.6538(2) 0.1221(2) 0.0252(15) Uani 1 1 d . . . . .
N1 N 0.8247(2) 0.61656(19) -0.0947(2) 0.0269(14) Uani 1 1 d . . . . .
C5 C 0.7440(2) 0.6228(3) -0.0206(3) 0.0321(18) Uani 1 1 d . . . . .
H5 H 0.7285 0.6463 -0.0218 0.039 Uiso 1 1 d R U . . .
C1 C 0.8533(3) 0.5477(3) -0.0845(3) 0.0334(18) Uani 1 1 d . . . . .
H1A H 0.8472 0.5250 -0.0672 0.050 Uiso 1 1 d R U . . .
H1B H 0.8808 0.5561 -0.0801 0.050 Uiso 1 1 d R U . . .
H1C H 0.8499 0.5399 -0.1123 0.050 Uiso 1 1 d R U . . .
O3 O 0.8255(3) 0.6745(3) -0.1745(3) 0.072(4) Uani 1 3 d S T P . .
H3A H 0.8177 0.7215 -0.1830 0.108 Uiso 0.3333 1 d R U P . .
H3B H 0.7905 0.6691 -0.2077 0.108 Uiso 0.3333 1 d R U P . .
C7 C 0.7107(2) 0.6111(2) 0.0739(2) 0.0288(16) Uani 1 1 d . . . . .
F1 F 0.7500 0.7500 0.1983(5) 0.112(5) Uani 0.5 2 d S TU P . 1
C19 C 0.77265(16) 0.77265(16) 0.22735(16) 0.0176(17) Uani 0.25 3 d S TU P A 1
O4 O 0.7500 0.7500 0.1983(5) 0.112(5) Uani 0.5 2 d S TU P . 2
S1 S 0.77265(16) 0.77265(16) 0.22735(16) 0.0176(17) Uani 0.25 3 d S TU P . 2
loop_
_atom_site_aniso_label
_atom_site_aniso_U_11
_atom_site_aniso_U_22
_atom_site_aniso_U_33
_atom_site_aniso_U_23
_atom_site_aniso_U_13
_atom_site_aniso_U_12
Co1 0.0255(5) 0.0255(5) 0.0255(5) -0.0022(5) 0.0022(5) 0.0022(5)
Co3 0.0338(6) 0.0338(6) 0.0338(6) 0.0009(6) -0.0009(6) 0.0009(6)
Co2 0.0309(7) 0.0318(7) 0.0284(7) -0.0039(6) 0.0021(6) 0.0003(5)
O1 0.016(3) 0.011(3) 0.017(3) -0.001(3) 0.000 0.000
O2 0.025(4) 0.036(4) 0.045(4) -0.005(4) 0.000 0.000
C17 0.018(3) 0.024(3) 0.028(4) -0.005(3) 0.001(3) -0.004(3)
N3 0.029(3) 0.034(3) 0.027(3) -0.005(3) 0.001(3) 0.005(3)
C15 0.024(3) 0.024(3) 0.019(3) -0.001(3) 0.003(3) 0.002(3)
C2 0.023(4) 0.034(4) 0.031(4) -0.006(3) 0.006(3) 0.000(3)
N4 0.022(3) 0.027(3) 0.022(3) -0.001(3) 0.006(2) 0.004(3)
C16 0.022(3) 0.020(3) 0.025(3) -0.003(3) 0.001(3) -0.001(3)
N5 0.019(3) 0.022(3) 0.021(3) 0.001(2) -0.001(2) 0.001(2)
C18 0.029(4) 0.038(4) 0.017(3) -0.003(3) 0.003(3) -0.002(3)
N2 0.028(3) 0.024(3) 0.029(3) -0.007(3) 0.000(3) 0.002(3)
C8 0.028(4) 0.031(4) 0.035(4) -0.003(4) 0.005(3) 0.000(3)
C13 0.020(3) 0.032(4) 0.029(4) -0.006(3) 0.006(3) 0.003(3)
C6 0.030(4) 0.038(5) 0.042(5) -0.007(4) 0.006(4) 0.003(4)
C4 0.030(4) 0.034(4) 0.033(4) 0.000(4) -0.001(4) 0.003(3)
N6 0.026(3) 0.027(3) 0.024(3) -0.001(3) 0.004(3) 0.004(3)
C3 0.033(4) 0.036(4) 0.033(4) 0.004(4) 0.005(4) 0.010(4)
C10 0.023(3) 0.031(4) 0.029(4) -0.003(3) 0.005(3) 0.001(3)
C9 0.028(4) 0.029(4) 0.041(5) -0.001(4) 0.009(3) 0.002(3)
C12 0.022(4) 0.028(4) 0.034(4) 0.000(3) 0.012(3) 0.000(3)
C14 0.021(3) 0.025(4) 0.019(3) -0.002(3) 0.004(3) 0.003(3)
C11 0.025(4) 0.025(4) 0.026(4) 0.002(3) 0.007(3) 0.001(3)
N1 0.027(3) 0.021(3) 0.033(3) -0.004(3) 0.006(3) 0.000(3)
C5 0.027(4) 0.031(4) 0.039(4) -0.001(4) 0.002(3) 0.005(3)
C1 0.033(4) 0.029(4) 0.038(4) -0.005(4) 0.003(4) 0.001(4)
O3 0.072(4) 0.072(4) 0.072(4) 0.006(5) -0.006(5) 0.006(5)
C7 0.028(4) 0.031(4) 0.028(4) -0.002(3) 0.010(3) 0.003(3)
F1 0.176(17) 0.085(10) 0.076(9) 0.000 0.000 -0.013(10)
C19 0.0176(17) 0.0176(17) 0.0176(17) 0.0029(19) 0.0029(19) -0.0029(19)
O4 0.176(17) 0.085(10) 0.076(9) 0.000 0.000 -0.013(10)
S1 0.0176(17) 0.0176(17) 0.0176(17) 0.0029(19) 0.0029(19) -0.0029(19)
loop_
_atom_type_symbol
_atom_type_description
_atom_type_scat_dispersion_real
_atom_type_scat_dispersion_imag
_atom_type_scat_source
C C 0.0181 0.0091 'International Tables Vol C Tables 4.2.6.8 and 6.1.1.4'
H H 0.0000 0.0000 'International Tables Vol C Tables 4.2.6.8 and 6.1.1.4'
N N 0.0311 0.0180 'International Tables Vol C Tables 4.2.6.8 and 6.1.1.4'
O O 0.0492 0.0322 'International Tables Vol C Tables 4.2.6.8 and 6.1.1.4'
Co Co -2.3653 3.6143 'International Tables Vol C Tables 4.2.6.8 and 6.1.1.4'
S S 0.3331 0.5567 'International Tables Vol C Tables 4.2.6.8 and 6.1.1.4'
F F 0.0727 0.0534 'International Tables Vol C Tables 4.2.6.8 and 6.1.1.4'
loop_
_geom_angle_atom_site_label_1
_geom_angle_atom_site_label_2
_geom_angle_atom_site_label_3
_geom_angle
_geom_angle_site_symmetry_1
_geom_angle_site_symmetry_3
N5 Co1 N5 95.8(2) . 42_656
N5 Co1 N5 95.8(2) . 19_664
N5 Co1 N5 95.8(2) 42_656 19_664
N5 Co1 N6 87.1(3) . .
N5 Co1 N6 176.8(3) 42_656 .
N5 Co1 N6 82.8(3) 19_664 .
N5 Co1 N6 176.8(3) . 19_664
N5 Co1 N6 82.8(3) 42_656 19_664
N5 Co1 N6 87.2(3) 19_664 19_664
N6 Co1 N6 94.3(3) . 19_664
N5 Co1 N6 82.8(3) . 42_656
N5 Co1 N6 87.2(3) 42_656 42_656
N5 Co1 N6 176.8(3) 19_664 42_656
N6 Co1 N6 94.3(3) . 42_656
N6 Co1 N6 94.3(3) 19_664 42_656
N1 Co3 N1 113.01(17) 17_665 .
N1 Co3 N1 113.02(17) 17_665 40_654
N1 Co3 N1 113.02(17) . 40_654
N1 Co3 O3 105.6(2) 17_665 .
N1 Co3 O3 105.6(2) . .
N1 Co3 O3 105.6(2) 40_654 .
O2 Co2 N4 118.08(19) . .
O2 Co2 N2 122.52(19) . .
N4 Co2 N2 119.4(3) . .
O2 Co2 O1 81.0(2) . .
N4 Co2 O1 89.43(19) . .
N2 Co2 O1 99.7(2) . .
O2 Co2 N3 98.5(3) . .
N4 Co2 N3 92.9(3) . .
N2 Co2 N3 78.6(3) . .
O1 Co2 N3 177.6(2) . .
Co2 O1 Co2 94.8(2) . 11_565
Co2 O2 Co2 103.3(4) 11_565 .
N5 C17 N4 111.8(6) . .
N5 C17 C18 126.4(7) . .
N4 C17 C18 121.8(7) . .
C5 N3 C6 118.7(7) . .
C5 N3 Co2 111.5(5) . .
C6 N3 Co2 129.8(6) . .
C16 C15 N5 107.4(6) . .
C16 C15 C14 135.9(7) . .
N5 C15 C14 115.9(7) . .
N2 C2 N1 112.1(7) . .
N2 C2 C1 123.4(8) . .
N1 C2 C1 124.5(7) . .
C16 N4 C17 105.0(6) . .
C16 N4 Co2 128.9(5) . .
C17 N4 Co2 124.4(5) . .
N4 C16 C15 109.5(6) . .
C17 N5 C15 106.4(6) . .
C17 N5 Co1 140.6(5) . .
C15 N5 Co1 111.9(5) . .
C2 N2 C4 105.6(7) . .
C2 N2 Co2 141.4(6) . .
C4 N2 Co2 112.5(5) . .
C7 C8 C9 121.0(8) . .
N6 C13 C11 116.3(6) . .
C7 C6 N3 112.2(7) . .
C3 C4 N2 108.1(8) . .
C3 C4 C5 133.5(8) . .
N2 C4 C5 118.4(8) . .
C14 N6 C13 118.3(7) 19_664 .
C14 N6 Co1 113.9(5) 19_664 .
C13 N6 Co1 127.8(5) . .
C4 C3 N1 107.7(8) . .
C9 C10 C11 121.4(8) . .
C10 C9 C8 120.3(8) . .
C11 C12 C7 120.4(7) . .
N6 C14 C15 115.4(7) 42_656 .
C12 C11 C10 118.2(7) . .
C12 C11 C13 121.5(7) . .
C10 C11 C13 120.3(7) . .
C2 N1 C3 106.5(7) . .
C2 N1 Co3 130.4(5) . .
C3 N1 Co3 123.0(6) . .
N3 C5 C4 118.0(8) . .
C8 C7 C12 118.7(8) . .
C8 C7 C6 119.2(8) . .
C12 C7 C6 122.0(7) . .
C19 F1 C19 95.7(12) . 41_566
F1 C19 F1 115.4(4) 19_664 28_664
F1 C19 F1 115.4(4) 19_664 .
F1 C19 F1 115.4(4) 28_664 .
S1 O4 S1 95.7(12) . 41_566
O4 S1 O4 115.4(4) 19_664 28_664
O4 S1 O4 115.4(4) 19_664 .
O4 S1 O4 115.4(4) 28_664 .
O4 S1 S1 96.0(5) 19_664 41_566
O4 S1 S1 96.0(5) 28_664 41_566
O4 S1 S1 42.2(6) . 41_566
O4 S1 S1 96.0(5) 19_664 26_554
O4 S1 S1 42.2(6) 28_664 26_554
O4 S1 S1 96.0(5) . 26_554
S1 S1 S1 60.003(1) 41_566 26_554
O4 S1 S1 42.2(6) 19_664 15_554
O4 S1 S1 96.0(5) 28_664 15_554
O4 S1 S1 96.0(5) . 15_554
S1 S1 S1 60.003(1) 41_566 15_554
S1 S1 S1 60.003(1) 26_554 15_554
loop_
_geom_bond_atom_site_label_1
_geom_bond_atom_site_label_2
_geom_bond_distance
_geom_bond_site_symmetry_2
Co1 N5 1.935(6) .
Co1 N5 1.935(6) 42_656
Co1 N5 1.935(6) 19_664
Co1 N6 1.973(7) .
Co1 N6 1.973(7) 19_664
Co1 N6 1.973(7) 42_656
Co3 N1 2.017(7) 17_665
Co3 N1 2.017(7) .
Co3 N1 2.017(7) 40_654
Co3 O3 2.062(16) .
Co2 O2 1.941(5) .
Co2 N4 2.043(7) .
Co2 N2 2.055(7) .
Co2 O1 2.068(4) .
Co2 N3 2.194(6) .
O1 Co2 2.068(4) 11_565
O2 Co2 1.941(5) 11_565
C17 N5 1.340(10) .
C17 N4 1.377(10) .
C17 C18 1.492(11) .
N3 C5 1.293(11) .
N3 C6 1.482(10) .
C15 C16 1.382(10) .
C15 N5 1.383(10) .
C15 C14 1.418(10) .
C2 N2 1.329(10) .
C2 N1 1.325(11) .
C2 C1 1.476(11) .
N4 C16 1.365(9) .
N2 C4 1.380(10) .
C8 C7 1.398(12) .
C8 C9 1.379(13) .
C13 N6 1.465(9) .
C13 C11 1.491(11) .
C6 C7 1.483(12) .
C4 C3 1.355(13) .
C4 C5 1.430(12) .
N6 C14 1.308(10) 19_664
C3 N1 1.369(11) .
C10 C9 1.355(12) .
C10 C11 1.418(11) .
C12 C11 1.401(11) .
C12 C7 1.410(12) .
C14 N6 1.308(10) 42_656
F1 C19 1.424(11) .
F1 C19 1.424(11) 41_566
C19 F1 1.424(11) 19_664
C19 F1 1.424(11) 28_664
O4 S1 1.424(11) .
O4 S1 1.424(11) 41_566
S1 O4 1.424(11) 19_664
S1 O4 1.424(11) 28_664
S1 S1 2.111(15) 41_566
S1 S1 2.111(15) 26_554
S1 S1 2.111(15) 15_554
loop_
_platon_squeeze_void_nr
_platon_squeeze_void_average_x
_platon_squeeze_void_average_y
_platon_squeeze_void_average_z
_platon_squeeze_void_volume
_platon_squeeze_void_count_electrons
_platon_squeeze_void_content
1 -0.001 -0.003 -0.001 16333 4246 ' '
2 0.500 0.000 0.000 392 175 ' '
3 0.000 0.000 0.500 392 175 ' '
4 0.000 0.500 0.000 392 175 ' '
5 0.500 0.500 0.500 392 175 ' '
